ligand
 OpenBabel11021811513D
libRbt.so/2013.1/901 2013/11/27
 22 23  0  0  0  0  0  0  0  0999 V2000
  -29.4303    3.1617  -10.6555 N   0  0  0  0  0  0  0  0  0  0  0  0
  -26.2735    4.0719  -11.4671 C   0  0  1  0  0  0  0  0  0  0  0  0
  -27.1478    3.4461  -10.4853 O   0  0  0  0  0  0  0  0  0  0  0  0
  -25.7345    7.3785   -9.7015 P   0  0  1  0  0  0  0  0  0  0  0  0
  -28.2142    2.7923  -11.1920 C   0  0  2  0  0  0  0  0  0  0  0  0
  -30.9826    4.3529   -9.7159 N   0  0  0  0  0  0  0  0  0  0  0  0
  -28.7626    2.4563  -13.4904 O   0  0  0  0  0  0  0  0  0  0  0  0
  -28.1677    3.3647  -12.5562 C   0  0  2  0  0  0  0  0  0  0  0  0
  -33.7746    3.6033   -9.1359 N   0  0  0  0  0  0  0  0  0  0  0  0
  -26.0756    2.3485  -13.0435 O   0  0  0  0  0  0  0  0  0  0  0  0
  -26.7462    3.5933  -12.7846 C   0  0  2  0  0  0  0  0  0  0  0  0
  -31.5091    3.1635  -10.0459 C   0  0  0  0  0  0  0  0  0  0  0  0
  -30.6866    1.1010  -11.1563 N   0  0  0  0  0  0  0  0  0  0  0  0
  -25.8520    5.8698  -10.1120 O   0  0  0  0  0  0  0  0  0  0  0  0
  -26.4432    5.5457  -11.3282 C   0  0  0  0  0  0  0  0  0  0  0  0
  -24.8710    7.9993  -10.8589 O   0  0  0  0  0  0  0  0  0  0  0  0
  -29.6890    4.3467  -10.0904 C   0  0  0  0  0  0  0  0  0  0  0  0
  -33.2930    1.6343  -10.1735 O   0  0  0  0  0  0  0  0  0  0  0  0
  -32.9013    2.7414   -9.8047 C   0  0  0  0  0  0  0  0  0  0  0  0
  -30.5385    2.4090  -10.6408 C   0  0  0  0  0  0  0  0  0  0  0  0
  -27.0984    7.9685   -9.5608 O   0  5  0  0  0  0  0  0  0  0  0  0
  -25.2144    7.5073   -8.3284 O   0  0  0  0  0  0  0  0  0  0  0  0
  1 17  1  0  0  0  0
  1 20  1  0  0  0  0
  2 15  1  6  0  0  0
  2  3  1  0  0  0  0
  2 11  1  0  0  0  0
  3  5  1  0  0  0  0
  4 16  1  6  0  0  0
  4 21  1  0  0  0  0
  4 22  2  0  0  0  0
  4 14  1  0  0  0  0
  5  1  1  1  0  0  0
  5  8  1  0  0  0  0
  6 17  2  0  0  0  0
  6 12  1  0  0  0  0
  8  7  1  6  0  0  0
  8 11  1  0  0  0  0
  9 19  1  0  0  0  0
 11 10  1  1  0  0  0
 12 20  2  0  0  0  0
 12 19  1  0  0  0  0
 13 20  1  0  0  0  0
 14 15  1  0  0  0  0
 18 19  2  0  0  0  0
M  CHG  1  21  -1
M  END
>  <CHROM.1>
30.81600060,70.24027909,-59.73374048,174.55208493,-2.38008927,-28.35036860
4.36636176,-10.68862538,-2.63559000,0.38176309,0.66202635

>  <Name>
ligand

>  <RI>
0

>  <Rbt.Current_Directory>
/home/itssahil/PROJECTS/Mol_Feturizer/New_Systems/rnas/4XWF

>  <Rbt.Executable>
rbdock ($Id: //depot/dev/client3/rdock/2013.1/src/exe/rbdock.cxx#4 $)

>  <Rbt.Library>
libRbt.so (2013.1, Build901 2013/11/27)

>  <Rbt.Parameter_File>
/export/apps/rDock/src/rDock_2013.1_src/data/scripts/dock_solv.prm

>  <Rbt.Receptor>
prm/pocket_docking_2.prm

>  <SCORE>
-1.38552

>  <SCORE.INTER>
-0.368894

>  <SCORE.INTER.CONST>
1

>  <SCORE.INTER.POLAR>
0

>  <SCORE.INTER.ROT>
5

>  <SCORE.INTER.SOLV>
11.7732

>  <SCORE.INTER.VDW>
-11.1037

>  <SCORE.INTER.norm>
-0.0167679

>  <SCORE.INTRA>
-1.01662

>  <SCORE.INTRA.DIHEDRAL>
-1.49052

>  <SCORE.INTRA.DIHEDRAL.0>
3.49807

>  <SCORE.INTRA.POLAR>
0

>  <SCORE.INTRA.POLAR.0>
0

>  <SCORE.INTRA.REPUL>
0

>  <SCORE.INTRA.REPUL.0>
0

>  <SCORE.INTRA.SOLV>
-0.0910321

>  <SCORE.INTRA.SOLV.lig_0>
-73.062

>  <SCORE.INTRA.VDW>
-0.225844

>  <SCORE.INTRA.VDW.0>
-1.83782

>  <SCORE.INTRA.norm>
-0.0462101

>  <SCORE.RESTR>
0

>  <SCORE.RESTR.CAVITY>
0

>  <SCORE.RESTR.norm>
0

>  <SCORE.SYSTEM>
0

>  <SCORE.SYSTEM.CONST>
0

>  <SCORE.SYSTEM.DIHEDRAL>
0

>  <SCORE.SYSTEM.SOLV>
0

>  <SCORE.SYSTEM.norm>
0

>  <SCORE.heavy>
22

>  <SCORE.norm>
-0.062978

>  <RMSD>
0.883

$$$$
ligand
 OpenBabel11021811513D
libRbt.so/2013.1/901 2013/11/27
 22 23  0  0  0  0  0  0  0  0999 V2000
  -29.4873    3.1528  -10.6225 N   0  0  0  0  0  0  0  0  0  0  0  0
  -26.3222    4.0743  -11.3877 C   0  0  1  0  0  0  0  0  0  0  0  0
  -27.2081    3.4432  -10.4199 O   0  0  0  0  0  0  0  0  0  0  0  0
  -25.7481    7.3839   -9.6433 P   0  0  1  0  0  0  0  0  0  0  0  0
  -28.2628    2.7883  -11.1432 C   0  0  2  0  0  0  0  0  0  0  0  0
  -31.0558    4.3367   -9.7012 N   0  0  0  0  0  0  0  0  0  0  0  0
  -28.7784    2.4575  -13.4499 O   0  0  0  0  0  0  0  0  0  0  0  0
  -28.1991    3.3649  -12.5050 C   0  0  2  0  0  0  0  0  0  0  0  0
  -33.8759    3.6103   -9.2405 N   0  0  0  0  0  0  0  0  0  0  0  0
  -26.0975    2.3561  -12.9662 O   0  0  0  0  0  0  0  0  0  0  0  0
  -26.7752    3.5982  -12.7130 C   0  0  2  0  0  0  0  0  0  0  0  0
  -31.5743    3.1469  -10.0418 C   0  0  0  0  0  0  0  0  0  0  0  0
  -30.7306    1.0899  -11.1466 N   0  0  0  0  0  0  0  0  0  0  0  0
  -25.9033    5.8730  -10.0330 O   0  0  0  0  0  0  0  0  0  0  0  0
  -26.4981    5.5472  -11.2470 C   0  0  0  0  0  0  0  0  0  0  0  0
  -24.8752    7.9683  -10.8125 O   0  0  0  0  0  0  0  0  0  0  0  0
  -29.7572    4.3354  -10.0577 C   0  0  0  0  0  0  0  0  0  0  0  0
  -33.3326    1.5855  -10.1296 O   0  0  0  0  0  0  0  0  0  0  0  0
  -32.9685    2.7201   -9.8211 C   0  0  0  0  0  0  0  0  0  0  0  0
  -30.5933    2.3969  -10.6253 C   0  0  0  0  0  0  0  0  0  0  0  0
  -27.0969    8.0081   -9.5049 O   0  5  0  0  0  0  0  0  0  0  0  0
  -25.2189    7.5186   -8.2742 O   0  0  0  0  0  0  0  0  0  0  0  0
  1 17  1  0  0  0  0
  1 20  1  0  0  0  0
  2 15  1  6  0  0  0
  2  3  1  0  0  0  0
  2 11  1  0  0  0  0
  3  5  1  0  0  0  0
  4 16  1  6  0  0  0
  4 21  1  0  0  0  0
  4 22  2  0  0  0  0
  4 14  1  0  0  0  0
  5  1  1  1  0  0  0
  5  8  1  0  0  0  0
  6 17  2  0  0  0  0
  6 12  1  0  0  0  0
  8  7  1  6  0  0  0
  8 11  1  0  0  0  0
  9 19  1  0  0  0  0
 11 10  1  1  0  0  0
 12 20  2  0  0  0  0
 12 19  1  0  0  0  0
 13 20  1  0  0  0  0
 14 15  1  0  0  0  0
 18 19  2  0  0  0  0
M  CHG  1  21  -1
M  END
>  <CHROM.1>
30.81571098,71.27932737,-59.23218103,172.54212540,1.76273129,-28.39079127
4.36261338,-10.64797495,-2.62848762,0.37196455,0.65724660

>  <Name>
ligand

>  <RI>
0

>  <Rbt.Current_Directory>
/home/itssahil/PROJECTS/Mol_Feturizer/New_Systems/rnas/4XWF

>  <Rbt.Executable>
rbdock ($Id: //depot/dev/client3/rdock/2013.1/src/exe/rbdock.cxx#4 $)

>  <Rbt.Library>
libRbt.so (2013.1, Build901 2013/11/27)

>  <Rbt.Parameter_File>
/export/apps/rDock/src/rDock_2013.1_src/data/scripts/dock_solv.prm

>  <Rbt.Receptor>
prm/pocket_docking_2.prm

>  <SCORE>
-1.34577

>  <SCORE.INTER>
-0.425017

>  <SCORE.INTER.CONST>
1

>  <SCORE.INTER.POLAR>
0

>  <SCORE.INTER.ROT>
5

>  <SCORE.INTER.SOLV>
12.2523

>  <SCORE.INTER.VDW>
-11.3008

>  <SCORE.INTER.norm>
-0.019319

>  <SCORE.INTRA>
-0.920753

>  <SCORE.INTRA.DIHEDRAL>
-1.28831

>  <SCORE.INTRA.DIHEDRAL.0>
3.49807

>  <SCORE.INTRA.POLAR>
0

>  <SCORE.INTRA.POLAR.0>
0

>  <SCORE.INTRA.REPUL>
0

>  <SCORE.INTRA.REPUL.0>
0

>  <SCORE.INTRA.SOLV>
-0.11286

>  <SCORE.INTRA.SOLV.lig_0>
-73.062

>  <SCORE.INTRA.VDW>
-0.220167

>  <SCORE.INTRA.VDW.0>
-1.83782

>  <SCORE.INTRA.norm>
-0.0418524

>  <SCORE.RESTR>
0

>  <SCORE.RESTR.CAVITY>
0

>  <SCORE.RESTR.norm>
0

>  <SCORE.SYSTEM>
0

>  <SCORE.SYSTEM.CONST>
0

>  <SCORE.SYSTEM.DIHEDRAL>
0

>  <SCORE.SYSTEM.SOLV>
0

>  <SCORE.SYSTEM.norm>
0

>  <SCORE.heavy>
22

>  <SCORE.norm>
-0.0611714

>  <RMSD>
0.883

$$$$
ligand
 OpenBabel11021811513D
libRbt.so/2013.1/901 2013/11/27
 22 23  0  0  0  0  0  0  0  0999 V2000
  -29.5087    3.3208  -10.5187 N   0  0  0  0  0  0  0  0  0  0  0  0
  -26.3971    4.3921  -11.3080 C   0  0  1  0  0  0  0  0  0  0  0  0
  -27.2579    3.7780  -10.3071 O   0  0  0  0  0  0  0  0  0  0  0  0
  -26.1915    7.8249   -9.7340 P   0  0  1  0  0  0  0  0  0  0  0  0
  -28.2532    3.0010  -10.9927 C   0  0  2  0  0  0  0  0  0  0  0  0
  -31.1567    4.4518   -9.6727 N   0  0  0  0  0  0  0  0  0  0  0  0
  -28.7016    2.4624  -13.2741 O   0  0  0  0  0  0  0  0  0  0  0  0
  -28.2015    3.4756  -12.3937 C   0  0  2  0  0  0  0  0  0  0  0  0
  -33.9524    3.6055   -9.2731 N   0  0  0  0  0  0  0  0  0  0  0  0
  -26.0296    2.5781  -12.7465 O   0  0  0  0  0  0  0  0  0  0  0  0
  -26.7924    3.7875  -12.5990 C   0  0  2  0  0  0  0  0  0  0  0  0
  -31.6112    3.2336  -10.0042 C   0  0  0  0  0  0  0  0  0  0  0  0
  -30.6427    1.1948  -11.0380 N   0  0  0  0  0  0  0  0  0  0  0  0
  -26.2575    6.2861  -10.0277 O   0  0  0  0  0  0  0  0  0  0  0  0
  -26.6722    5.8562  -11.2835 C   0  0  0  0  0  0  0  0  0  0  0  0
  -25.0446    8.3232  -10.6863 O   0  0  0  0  0  0  0  0  0  0  0  0
  -29.8484    4.5012   -9.9879 C   0  0  0  0  0  0  0  0  0  0  0  0
  -33.2984    1.5978  -10.1257 O   0  0  0  0  0  0  0  0  0  0  0  0
  -32.9918    2.7496   -9.8186 C   0  0  0  0  0  0  0  0  0  0  0  0
  -30.5799    2.5165  -10.5404 C   0  0  0  0  0  0  0  0  0  0  0  0
  -27.5250    8.4435   -9.9932 O   0  5  0  0  0  0  0  0  0  0  0  0
  -26.0260    8.0747   -8.2908 O   0  0  0  0  0  0  0  0  0  0  0  0
  1 17  1  0  0  0  0
  1 20  1  0  0  0  0
  2 15  1  6  0  0  0
  2  3  1  0  0  0  0
  2 11  1  0  0  0  0
  3  5  1  0  0  0  0
  4 16  1  6  0  0  0
  4 21  1  0  0  0  0
  4 22  2  0  0  0  0
  4 14  1  0  0  0  0
  5  1  1  1  0  0  0
  5  8  1  0  0  0  0
  6 17  2  0  0  0  0
  6 12  1  0  0  0  0
  8  7  1  6  0  0  0
  8 11  1  0  0  0  0
  9 19  1  0  0  0  0
 11 10  1  1  0  0  0
 12 20  2  0  0  0  0
 12 19  1  0  0  0  0
 13 20  1  0  0  0  0
 14 15  1  0  0  0  0
 18 19  2  0  0  0  0
M  CHG  1  21  -1
M  END
>  <CHROM.1>
27.25057252,64.86830416,-66.29575034,170.44339966,1.10294141,-28.53226469
4.59453793,-10.61734657,-2.54959060,0.38304524,0.56137621

>  <Name>
ligand

>  <RI>
0

>  <Rbt.Current_Directory>
/home/itssahil/PROJECTS/Mol_Feturizer/New_Systems/rnas/4XWF

>  <Rbt.Executable>
rbdock ($Id: //depot/dev/client3/rdock/2013.1/src/exe/rbdock.cxx#4 $)

>  <Rbt.Library>
libRbt.so (2013.1, Build901 2013/11/27)

>  <Rbt.Parameter_File>
/export/apps/rDock/src/rDock_2013.1_src/data/scripts/dock_solv.prm

>  <Rbt.Receptor>
prm/pocket_docking_2.prm

>  <SCORE>
-1.63865

>  <SCORE.INTER>
-0.737288

>  <SCORE.INTER.CONST>
1

>  <SCORE.INTER.POLAR>
0

>  <SCORE.INTER.ROT>
5

>  <SCORE.INTER.SOLV>
12.1034

>  <SCORE.INTER.VDW>
-11.4593

>  <SCORE.INTER.norm>
-0.0335131

>  <SCORE.INTRA>
-0.901389

>  <SCORE.INTRA.DIHEDRAL>
-1.39275

>  <SCORE.INTRA.DIHEDRAL.0>
3.49807

>  <SCORE.INTRA.POLAR>
0

>  <SCORE.INTRA.POLAR.0>
0

>  <SCORE.INTRA.REPUL>
0

>  <SCORE.INTRA.REPUL.0>
0

>  <SCORE.INTRA.SOLV>
0.0914387

>  <SCORE.INTRA.SOLV.lig_0>
-73.062

>  <SCORE.INTRA.VDW>
-0.250733

>  <SCORE.INTRA.VDW.0>
-1.83782

>  <SCORE.INTRA.norm>
-0.0409722

>  <SCORE.RESTR>
2.88616e-05

>  <SCORE.RESTR.CAVITY>
2.88616e-05

>  <SCORE.RESTR.norm>
1.31189e-06

>  <SCORE.SYSTEM>
0

>  <SCORE.SYSTEM.CONST>
0

>  <SCORE.SYSTEM.DIHEDRAL>
0

>  <SCORE.SYSTEM.SOLV>
0

>  <SCORE.SYSTEM.norm>
0

>  <SCORE.heavy>
22

>  <SCORE.norm>
-0.074484

>  <RMSD>
0.971

$$$$
ligand
 OpenBabel11021811513D
libRbt.so/2013.1/901 2013/11/27
 22 23  0  0  0  0  0  0  0  0999 V2000
  -29.6579    3.6938  -10.1447 N   0  0  0  0  0  0  0  0  0  0  0  0
  -26.4616    4.7821   -9.9166 C   0  0  1  0  0  0  0  0  0  0  0  0
  -27.4886    3.8961   -9.3875 O   0  0  0  0  0  0  0  0  0  0  0  0
  -25.6521    8.4506   -9.4221 P   0  0  1  0  0  0  0  0  0  0  0  0
  -28.3340    3.4941  -10.4775 C   0  0  2  0  0  0  0  0  0  0  0  0
  -31.4811    4.6560   -9.4657 N   0  0  0  0  0  0  0  0  0  0  0  0
  -28.3480    3.8712  -12.8341 O   0  0  0  0  0  0  0  0  0  0  0  0
  -28.0270    4.4509  -11.5642 C   0  0  2  0  0  0  0  0  0  0  0  0
  -34.2341    3.5971   -9.4935 N   0  0  0  0  0  0  0  0  0  0  0  0
  -25.8210    3.6131  -11.8447 O   0  0  0  0  0  0  0  0  0  0  0  0
  -26.6065    4.7269  -11.3878 C   0  0  2  0  0  0  0  0  0  0  0  0
  -31.7905    3.4183   -9.8818 C   0  0  0  0  0  0  0  0  0  0  0  0
  -30.5419    1.5042  -10.8518 N   0  0  0  0  0  0  0  0  0  0  0  0
  -25.6942    6.9387   -9.8356 O   0  0  0  0  0  0  0  0  0  0  0  0
  -26.7470    6.1466   -9.3905 C   0  0  0  0  0  0  0  0  0  0  0  0
  -24.3709    8.9882  -10.1569 O   0  0  0  0  0  0  0  0  0  0  0  0
  -30.1542    4.8223   -9.6245 C   0  0  0  0  0  0  0  0  0  0  0  0
  -33.2993    1.6374  -10.1799 O   0  0  0  0  0  0  0  0  0  0  0  0
  -33.1374    2.8182   -9.8723 C   0  0  0  0  0  0  0  0  0  0  0  0
  -30.6479    2.8073  -10.3137 C   0  0  0  0  0  0  0  0  0  0  0  0
  -26.9247    9.1176   -9.8266 O   0  5  0  0  0  0  0  0  0  0  0  0
  -25.6980    8.5925   -7.9557 O   0  0  0  0  0  0  0  0  0  0  0  0
  1 17  1  0  0  0  0
  1 20  1  0  0  0  0
  2 15  1  1  0  0  0
  2  3  1  0  0  0  0
  2 11  1  0  0  0  0
  3  5  1  0  0  0  0
  4 16  1  6  0  0  0
  4 21  1  0  0  0  0
  4 22  2  0  0  0  0
  4 14  1  0  0  0  0
  5  1  1  1  0  0  0
  5  8  1  0  0  0  0
  6 17  2  0  0  0  0
  6 12  1  0  0  0  0
  8  7  1  6  0  0  0
  8 11  1  0  0  0  0
  9 19  1  0  0  0  0
 11 10  1  1  0  0  0
 12 20  2  0  0  0  0
 12 19  1  0  0  0  0
 13 20  1  0  0  0  0
 14 15  1  0  0  0  0
 18 19  2  0  0  0  0
M  CHG  1  21  -1
M  END
>  <CHROM.1>
48.82653399,175.74779414,-177.88838200,-178.21764099,4.82647752,-28.40821616
5.09384348,-10.13713443,-2.52713255,0.30088248,0.50040004

>  <Name>
ligand

>  <RI>
0

>  <Rbt.Current_Directory>
/home/itssahil/PROJECTS/Mol_Feturizer/New_Systems/rnas/4XWF

>  <Rbt.Executable>
rbdock ($Id: //depot/dev/client3/rdock/2013.1/src/exe/rbdock.cxx#4 $)

>  <Rbt.Library>
libRbt.so (2013.1, Build901 2013/11/27)

>  <Rbt.Parameter_File>
/export/apps/rDock/src/rDock_2013.1_src/data/scripts/dock_solv.prm

>  <Rbt.Receptor>
prm/pocket_docking_2.prm

>  <SCORE>
-2.00692

>  <SCORE.INTER>
-1.18161

>  <SCORE.INTER.CONST>
1

>  <SCORE.INTER.POLAR>
0

>  <SCORE.INTER.ROT>
5

>  <SCORE.INTER.SOLV>
11.7254

>  <SCORE.INTER.VDW>
-11.6296

>  <SCORE.INTER.norm>
-0.0537094

>  <SCORE.INTRA>
-0.82531

>  <SCORE.INTRA.DIHEDRAL>
-1.89641

>  <SCORE.INTRA.DIHEDRAL.0>
3.49807

>  <SCORE.INTRA.POLAR>
0

>  <SCORE.INTRA.POLAR.0>
0

>  <SCORE.INTRA.REPUL>
0

>  <SCORE.INTRA.REPUL.0>
0

>  <SCORE.INTRA.SOLV>
0.106814

>  <SCORE.INTRA.SOLV.lig_0>
-73.062

>  <SCORE.INTRA.VDW>
0.0694902

>  <SCORE.INTRA.VDW.0>
-1.83782

>  <SCORE.INTRA.norm>
-0.0375141

>  <SCORE.RESTR>
0

>  <SCORE.RESTR.CAVITY>
0

>  <SCORE.RESTR.norm>
0

>  <SCORE.SYSTEM>
0

>  <SCORE.SYSTEM.CONST>
0

>  <SCORE.SYSTEM.DIHEDRAL>
0

>  <SCORE.SYSTEM.SOLV>
0

>  <SCORE.SYSTEM.norm>
0

>  <SCORE.heavy>
22

>  <SCORE.norm>
-0.0912235

>  <RMSD>
0.979

$$$$
ligand
 OpenBabel11021811513D
libRbt.so/2013.1/901 2013/11/27
 22 23  0  0  0  0  0  0  0  0999 V2000
  -29.6426    3.6955  -10.1622 N   0  0  0  0  0  0  0  0  0  0  0  0
  -26.4706    4.8745  -10.1839 C   0  0  1  0  0  0  0  0  0  0  0  0
  -27.4548    4.0352   -9.5156 O   0  0  0  0  0  0  0  0  0  0  0  0
  -25.7132    8.5863  -10.1104 P   0  0  1  0  0  0  0  0  0  0  0  0
  -28.3261    3.4871  -10.5180 C   0  0  2  0  0  0  0  0  0  0  0  0
  -31.4450    4.6659   -9.4406 N   0  0  0  0  0  0  0  0  0  0  0  0
  -28.4310    3.5797  -12.9005 O   0  0  0  0  0  0  0  0  0  0  0  0
  -28.0821    4.3140  -11.7211 C   0  0  2  0  0  0  0  0  0  0  0  0
  -34.1920    3.6001   -9.3417 N   0  0  0  0  0  0  0  0  0  0  0  0
  -25.8655    3.4982  -11.9823 O   0  0  0  0  0  0  0  0  0  0  0  0
  -26.6643    4.6407  -11.6317 C   0  0  2  0  0  0  0  0  0  0  0  0
  -31.7739    3.4384   -9.8715 C   0  0  0  0  0  0  0  0  0  0  0  0
  -30.5607    1.5269  -10.8903 N   0  0  0  0  0  0  0  0  0  0  0  0
  -25.7400    7.0383  -10.3587 O   0  0  0  0  0  0  0  0  0  0  0  0
  -26.7740    6.2853   -9.8130 C   0  0  0  0  0  0  0  0  0  0  0  0
  -24.5006    9.0694  -10.9859 O   0  0  0  0  0  0  0  0  0  0  0  0
  -30.1189    4.8207   -9.6168 C   0  0  0  0  0  0  0  0  0  0  0  0
  -33.3208    1.7091  -10.2641 O   0  0  0  0  0  0  0  0  0  0  0  0
  -33.1270    2.8524   -9.8511 C   0  0  0  0  0  0  0  0  0  0  0  0
  -30.6446    2.8222  -10.3302 C   0  0  0  0  0  0  0  0  0  0  0  0
  -27.0287    9.1791  -10.4924 O   0  5  0  0  0  0  0  0  0  0  0  0
  -25.6639    8.8831   -8.6674 O   0  0  0  0  0  0  0  0  0  0  0  0
  1 17  1  0  0  0  0
  1 20  1  0  0  0  0
  2 15  1  6  0  0  0
  2  3  1  0  0  0  0
  2 11  1  0  0  0  0
  3  5  1  0  0  0  0
  4 16  1  6  0  0  0
  4 21  1  0  0  0  0
  4 22  2  0  0  0  0
  4 14  1  0  0  0  0
  5  1  1  1  0  0  0
  5  8  1  0  0  0  0
  6 17  2  0  0  0  0
  6 12  1  0  0  0  0
  8  7  1  6  0  0  0
  8 11  1  0  0  0  0
  9 19  1  0  0  0  0
 11 10  1  1  0  0  0
 12 20  2  0  0  0  0
 12 19  1  0  0  0  0
 13 20  1  0  0  0  0
 14 15  1  0  0  0  0
 18 19  2  0  0  0  0
M  CHG  1  21  -1
M  END
>  <CHROM.1>
40.73409729,174.26559883,-174.81371794,-177.70750320,-0.33724508,-28.43157706
5.12752673,-10.39487486,-2.52556712,0.33033725,0.40901688

>  <Name>
ligand

>  <RI>
0

>  <Rbt.Current_Directory>
/home/itssahil/PROJECTS/Mol_Feturizer/New_Systems/rnas/4XWF

>  <Rbt.Executable>
rbdock ($Id: //depot/dev/client3/rdock/2013.1/src/exe/rbdock.cxx#4 $)

>  <Rbt.Library>
libRbt.so (2013.1, Build901 2013/11/27)

>  <Rbt.Parameter_File>
/export/apps/rDock/src/rDock_2013.1_src/data/scripts/dock_solv.prm

>  <Rbt.Receptor>
prm/pocket_docking_2.prm

>  <SCORE>
-1.99837

>  <SCORE.INTER>
-1.20266

>  <SCORE.INTER.CONST>
1

>  <SCORE.INTER.POLAR>
0

>  <SCORE.INTER.ROT>
5

>  <SCORE.INTER.SOLV>
11.7411

>  <SCORE.INTER.VDW>
-11.6488

>  <SCORE.INTER.norm>
-0.0546663

>  <SCORE.INTRA>
-0.79585

>  <SCORE.INTRA.DIHEDRAL>
-1.85646

>  <SCORE.INTRA.DIHEDRAL.0>
3.49807

>  <SCORE.INTRA.POLAR>
0

>  <SCORE.INTRA.POLAR.0>
0

>  <SCORE.INTRA.REPUL>
0

>  <SCORE.INTRA.REPUL.0>
0

>  <SCORE.INTRA.SOLV>
0.337328

>  <SCORE.INTRA.SOLV.lig_0>
-73.062

>  <SCORE.INTRA.VDW>
-0.0362826

>  <SCORE.INTRA.VDW.0>
-1.83782

>  <SCORE.INTRA.norm>
-0.036175

>  <SCORE.RESTR>
0.000136792

>  <SCORE.RESTR.CAVITY>
0.000136792

>  <SCORE.RESTR.norm>
6.2178e-06

>  <SCORE.SYSTEM>
0

>  <SCORE.SYSTEM.CONST>
0

>  <SCORE.SYSTEM.DIHEDRAL>
0

>  <SCORE.SYSTEM.SOLV>
0

>  <SCORE.SYSTEM.norm>
0

>  <SCORE.heavy>
22

>  <SCORE.norm>
-0.0908351

>  <RMSD>
1.016

$$$$
ligand
 OpenBabel11021811513D
libRbt.so/2013.1/901 2013/11/27
 22 23  0  0  0  0  0  0  0  0999 V2000
  -29.6728    3.7147  -10.0941 N   0  0  0  0  0  0  0  0  0  0  0  0
  -26.4819    4.8087   -9.8220 C   0  0  1  0  0  0  0  0  0  0  0  0
  -27.5105    3.9113   -9.3156 O   0  0  0  0  0  0  0  0  0  0  0  0
  -25.6876    8.4710   -9.2627 P   0  0  1  0  0  0  0  0  0  0  0  0
  -28.3456    3.5242  -10.4189 C   0  0  2  0  0  0  0  0  0  0  0  0
  -31.5055    4.6622   -9.4200 N   0  0  0  0  0  0  0  0  0  0  0  0
  -28.3412    3.9389  -12.7692 O   0  0  0  0  0  0  0  0  0  0  0  0
  -28.0325    4.4992  -11.4876 C   0  0  2  0  0  0  0  0  0  0  0  0
  -34.2573    3.6000   -9.5104 N   0  0  0  0  0  0  0  0  0  0  0  0
  -25.8216    3.6724  -11.7630 O   0  0  0  0  0  0  0  0  0  0  0  0
  -26.6143    4.7765  -11.2950 C   0  0  2  0  0  0  0  0  0  0  0  0
  -31.8059    3.4268   -9.8492 C   0  0  0  0  0  0  0  0  0  0  0  0
  -30.5411    1.5273  -10.8269 N   0  0  0  0  0  0  0  0  0  0  0  0
  -25.7255    6.9675   -9.7061 O   0  0  0  0  0  0  0  0  0  0  0  0
  -26.7758    6.1638   -9.2766 C   0  0  0  0  0  0  0  0  0  0  0  0
  -24.3994    9.0229   -9.9743 O   0  0  0  0  0  0  0  0  0  0  0  0
  -30.1783    4.8362   -9.5676 C   0  0  0  0  0  0  0  0  0  0  0  0
  -33.3004    1.6335  -10.1450 O   0  0  0  0  0  0  0  0  0  0  0  0
  -33.1500    2.8202   -9.8548 C   0  0  0  0  0  0  0  0  0  0  0  0
  -30.6573    2.8250  -10.2781 C   0  0  0  0  0  0  0  0  0  0  0  0
  -26.9562    9.1459   -9.6665 O   0  5  0  0  0  0  0  0  0  0  0  0
  -25.7478    8.5842   -7.7943 O   0  0  0  0  0  0  0  0  0  0  0  0
  1 17  1  0  0  0  0
  1 20  1  0  0  0  0
  2 15  1  1  0  0  0
  2  3  1  0  0  0  0
  2 11  1  0  0  0  0
  3  5  1  0  0  0  0
  4 16  1  6  0  0  0
  4 21  1  0  0  0  0
  4 22  2  0  0  0  0
  4 14  1  0  0  0  0
  5  1  1  1  0  0  0
  5  8  1  0  0  0  0
  6 17  2  0  0  0  0
  6 12  1  0  0  0  0
  8  7  1  6  0  0  0
  8 11  1  0  0  0  0
  9 19  1  0  0  0  0
 11 10  1  1  0  0  0
 12 20  2  0  0  0  0
 12 19  1  0  0  0  0
 13 20  1  0  0  0  0
 14 15  1  0  0  0  0
 18 19  2  0  0  0  0
M  CHG  1  21  -1
M  END
>  <CHROM.1>
49.25179059,176.05181187,-178.48546386,-177.84344442,6.46254803,-28.42711521
5.11719207,-10.05174647,-2.51983972,0.29515322,0.51221418

>  <Name>
ligand

>  <RI>
0

>  <Rbt.Current_Directory>
/home/itssahil/PROJECTS/Mol_Feturizer/New_Systems/rnas/4XWF

>  <Rbt.Executable>
rbdock ($Id: //depot/dev/client3/rdock/2013.1/src/exe/rbdock.cxx#4 $)

>  <Rbt.Library>
libRbt.so (2013.1, Build901 2013/11/27)

>  <Rbt.Parameter_File>
/export/apps/rDock/src/rDock_2013.1_src/data/scripts/dock_solv.prm

>  <Rbt.Receptor>
prm/pocket_docking_2.prm

>  <SCORE>
-2.02439

>  <SCORE.INTER>
-1.21027

>  <SCORE.INTER.CONST>
1

>  <SCORE.INTER.POLAR>
0

>  <SCORE.INTER.ROT>
5

>  <SCORE.INTER.SOLV>
11.6447

>  <SCORE.INTER.VDW>
-11.6217

>  <SCORE.INTER.norm>
-0.0550124

>  <SCORE.INTRA>
-0.814168

>  <SCORE.INTRA.DIHEDRAL>
-1.87549

>  <SCORE.INTRA.DIHEDRAL.0>
3.49807

>  <SCORE.INTRA.POLAR>
0

>  <SCORE.INTRA.POLAR.0>
0

>  <SCORE.INTRA.REPUL>
0

>  <SCORE.INTRA.REPUL.0>
0

>  <SCORE.INTRA.SOLV>
0.0896816

>  <SCORE.INTRA.SOLV.lig_0>
-73.062

>  <SCORE.INTRA.VDW>
0.0787381

>  <SCORE.INTRA.VDW.0>
-1.83782

>  <SCORE.INTRA.norm>
-0.0370076

>  <SCORE.RESTR>
4.77173e-05

>  <SCORE.RESTR.CAVITY>
4.77173e-05

>  <SCORE.RESTR.norm>
2.16897e-06

>  <SCORE.SYSTEM>
0

>  <SCORE.SYSTEM.CONST>
0

>  <SCORE.SYSTEM.DIHEDRAL>
0

>  <SCORE.SYSTEM.SOLV>
0

>  <SCORE.SYSTEM.norm>
0

>  <SCORE.heavy>
22

>  <SCORE.norm>
-0.0920178

>  <RMSD>
1.040

$$$$
ligand
 OpenBabel11021811513D
libRbt.so/2013.1/901 2013/11/27
 22 23  0  0  0  0  0  0  0  0999 V2000
  -29.6639    3.6817  -10.0734 N   0  0  0  0  0  0  0  0  0  0  0  0
  -26.4765    4.7697   -9.7424 C   0  0  1  0  0  0  0  0  0  0  0  0
  -27.5228    3.8897   -9.2415 O   0  0  0  0  0  0  0  0  0  0  0  0
  -25.6722    8.4380   -9.2393 P   0  0  1  0  0  0  0  0  0  0  0  0
  -28.3293    3.4776  -10.3568 C   0  0  2  0  0  0  0  0  0  0  0  0
  -31.5099    4.6537   -9.4747 N   0  0  0  0  0  0  0  0  0  0  0  0
  -28.2590    3.8314  -12.7160 O   0  0  0  0  0  0  0  0  0  0  0  0
  -27.9826    4.4234  -11.4413 C   0  0  2  0  0  0  0  0  0  0  0  0
  -34.2575    3.5854   -9.5571 N   0  0  0  0  0  0  0  0  0  0  0  0
  -25.7690    3.5810  -11.6348 O   0  0  0  0  0  0  0  0  0  0  0  0
  -26.5690    4.7000  -11.2172 C   0  0  2  0  0  0  0  0  0  0  0  0
  -31.8041    3.4085   -9.8791 C   0  0  0  0  0  0  0  0  0  0  0  0
  -30.5220    1.4790  -10.7715 N   0  0  0  0  0  0  0  0  0  0  0  0
  -25.7038    6.9236   -9.6444 O   0  0  0  0  0  0  0  0  0  0  0  0
  -26.7788    6.1396   -9.2403 C   0  0  0  0  0  0  0  0  0  0  0  0
  -24.3671    8.9689   -9.9361 O   0  0  0  0  0  0  0  0  0  0  0  0
  -30.1784    4.8187   -9.5907 C   0  0  0  0  0  0  0  0  0  0  0  0
  -33.3027    1.6258  -10.2159 O   0  0  0  0  0  0  0  0  0  0  0  0
  -33.1503    2.8071   -9.9053 C   0  0  0  0  0  0  0  0  0  0  0  0
  -30.6471    2.7912  -10.2606 C   0  0  0  0  0  0  0  0  0  0  0  0
  -26.9298    9.1046   -9.6886 O   0  5  0  0  0  0  0  0  0  0  0  0
  -25.7647    8.5894   -7.7760 O   0  0  0  0  0  0  0  0  0  0  0  0
  1 17  1  0  0  0  0
  1 20  1  0  0  0  0
  2 15  1  1  0  0  0
  2  3  1  0  0  0  0
  2 11  1  0  0  0  0
  3  5  1  0  0  0  0
  4 16  1  6  0  0  0
  4 21  1  0  0  0  0
  4 22  2  0  0  0  0
  4 14  1  0  0  0  0
  5  1  1  1  0  0  0
  5  8  1  0  0  0  0
  6 17  2  0  0  0  0
  6 12  1  0  0  0  0
  8  7  1  6  0  0  0
  8 11  1  0  0  0  0
  9 19  1  0  0  0  0
 11 10  1  1  0  0  0
 12 20  2  0  0  0  0
 12 19  1  0  0  0  0
 13 20  1  0  0  0  0
 14 15  1  0  0  0  0
 18 19  2  0  0  0  0
M  CHG  1  21  -1
M  END
>  <CHROM.1>
49.29278674,175.19544313,-177.21062074,-178.11607364,3.78204658,-28.41082615
5.07857967,-10.02805475,-2.51143683,0.27082386,0.48961812

>  <Name>
ligand

>  <RI>
0

>  <Rbt.Current_Directory>
/home/itssahil/PROJECTS/Mol_Feturizer/New_Systems/rnas/4XWF

>  <Rbt.Executable>
rbdock ($Id: //depot/dev/client3/rdock/2013.1/src/exe/rbdock.cxx#4 $)

>  <Rbt.Library>
libRbt.so (2013.1, Build901 2013/11/27)

>  <Rbt.Parameter_File>
/export/apps/rDock/src/rDock_2013.1_src/data/scripts/dock_solv.prm

>  <Rbt.Receptor>
prm/pocket_docking_2.prm

>  <SCORE>
-1.94733

>  <SCORE.INTER>
-1.1214

>  <SCORE.INTER.CONST>
1

>  <SCORE.INTER.POLAR>
0

>  <SCORE.INTER.ROT>
5

>  <SCORE.INTER.SOLV>
11.4982

>  <SCORE.INTER.VDW>
-11.5137

>  <SCORE.INTER.norm>
-0.0509725

>  <SCORE.INTRA>
-0.82593

>  <SCORE.INTRA.DIHEDRAL>
-1.8856

>  <SCORE.INTRA.DIHEDRAL.0>
3.49807

>  <SCORE.INTRA.POLAR>
0

>  <SCORE.INTRA.POLAR.0>
0

>  <SCORE.INTRA.REPUL>
0

>  <SCORE.INTRA.REPUL.0>
0

>  <SCORE.INTRA.SOLV>
0.0903374

>  <SCORE.INTRA.SOLV.lig_0>
-73.062

>  <SCORE.INTRA.VDW>
0.0717001

>  <SCORE.INTRA.VDW.0>
-1.83782

>  <SCORE.INTRA.norm>
-0.0375423

>  <SCORE.RESTR>
0

>  <SCORE.RESTR.CAVITY>
0

>  <SCORE.RESTR.norm>
0

>  <SCORE.SYSTEM>
0

>  <SCORE.SYSTEM.CONST>
0

>  <SCORE.SYSTEM.DIHEDRAL>
0

>  <SCORE.SYSTEM.SOLV>
0

>  <SCORE.SYSTEM.norm>
0

>  <SCORE.heavy>
22

>  <SCORE.norm>
-0.0885148

>  <RMSD>
1.046

$$$$
ligand
 OpenBabel11021811513D
libRbt.so/2013.1/901 2013/11/27
 22 23  0  0  0  0  0  0  0  0999 V2000
  -29.6831    3.6321  -10.1123 N   0  0  0  0  0  0  0  0  0  0  0  0
  -26.5115    4.8123  -10.0891 C   0  0  1  0  0  0  0  0  0  0  0  0
  -27.5185    4.0088   -9.4106 O   0  0  0  0  0  0  0  0  0  0  0  0
  -25.7411    8.5199  -10.1716 P   0  0  1  0  0  0  0  0  0  0  0  0
  -28.3554    3.4066  -10.4113 C   0  0  2  0  0  0  0  0  0  0  0  0
  -31.5065    4.6341   -9.4940 N   0  0  0  0  0  0  0  0  0  0  0  0
  -28.3788    3.3711  -12.7975 O   0  0  0  0  0  0  0  0  0  0  0  0
  -28.0700    4.1680  -11.6481 C   0  0  2  0  0  0  0  0  0  0  0  0
  -34.2686    3.6021   -9.5194 N   0  0  0  0  0  0  0  0  0  0  0  0
  -25.8462    3.3423  -11.7893 O   0  0  0  0  0  0  0  0  0  0  0  0
  -26.6558    4.5009  -11.5280 C   0  0  2  0  0  0  0  0  0  0  0  0
  -31.8248    3.3926   -9.8914 C   0  0  0  0  0  0  0  0  0  0  0  0
  -30.5835    1.4411  -10.7939 N   0  0  0  0  0  0  0  0  0  0  0  0
  -25.7874    6.9661  -10.3772 O   0  0  0  0  0  0  0  0  0  0  0  0
  -26.8266    6.2406   -9.8050 C   0  0  0  0  0  0  0  0  0  0  0  0
  -24.4965    8.9581  -11.0257 O   0  0  0  0  0  0  0  0  0  0  0  0
  -30.1741    4.7781   -9.6266 C   0  0  0  0  0  0  0  0  0  0  0  0
  -33.3569    1.6376  -10.2232 O   0  0  0  0  0  0  0  0  0  0  0  0
  -33.1804    2.8120   -9.8996 C   0  0  0  0  0  0  0  0  0  0  0  0
  -30.6822    2.7564  -10.2851 C   0  0  0  0  0  0  0  0  0  0  0  0
  -27.0351    9.1230  -10.6070 O   0  5  0  0  0  0  0  0  0  0  0  0
  -25.7267    8.8567   -8.7367 O   0  0  0  0  0  0  0  0  0  0  0  0
  1 17  1  0  0  0  0
  1 20  1  0  0  0  0
  2 15  1  6  0  0  0
  2  3  1  0  0  0  0
  2 11  1  0  0  0  0
  3  5  1  0  0  0  0
  4 16  1  6  0  0  0
  4 21  1  0  0  0  0
  4 22  2  0  0  0  0
  4 14  1  0  0  0  0
  5  1  1  1  0  0  0
  5  8  1  0  0  0  0
  6 17  2  0  0  0  0
  6 12  1  0  0  0  0
  8  7  1  6  0  0  0
  8 11  1  0  0  0  0
  9 19  1  0  0  0  0
 11 10  1  1  0  0  0
 12 20  2  0  0  0  0
 12 19  1  0  0  0  0
 13 20  1  0  0  0  0
 14 15  1  0  0  0  0
 18 19  2  0  0  0  0
M  CHG  1  21  -1
M  END
>  <CHROM.1>
39.72300741,175.38226420,-176.78731505,-175.37365578,2.75328835,-28.46102285
5.05229462,-10.38044553,-2.51263875,0.29526343,0.35443871

>  <Name>
ligand

>  <RI>
0

>  <Rbt.Current_Directory>
/home/itssahil/PROJECTS/Mol_Feturizer/New_Systems/rnas/4XWF

>  <Rbt.Executable>
rbdock ($Id: //depot/dev/client3/rdock/2013.1/src/exe/rbdock.cxx#4 $)

>  <Rbt.Library>
libRbt.so (2013.1, Build901 2013/11/27)

>  <Rbt.Parameter_File>
/export/apps/rDock/src/rDock_2013.1_src/data/scripts/dock_solv.prm

>  <Rbt.Receptor>
prm/pocket_docking_2.prm

>  <SCORE>
-2.04609

>  <SCORE.INTER>
-1.28768

>  <SCORE.INTER.CONST>
1

>  <SCORE.INTER.POLAR>
0

>  <SCORE.INTER.ROT>
5

>  <SCORE.INTER.SOLV>
11.9262

>  <SCORE.INTER.VDW>
-11.7672

>  <SCORE.INTER.norm>
-0.0585311

>  <SCORE.INTRA>
-0.760477

>  <SCORE.INTRA.DIHEDRAL>
-1.82402

>  <SCORE.INTRA.DIHEDRAL.0>
3.49807

>  <SCORE.INTRA.POLAR>
0

>  <SCORE.INTRA.POLAR.0>
0

>  <SCORE.INTRA.REPUL>
0

>  <SCORE.INTRA.REPUL.0>
0

>  <SCORE.INTRA.SOLV>
0.363732

>  <SCORE.INTRA.SOLV.lig_0>
-73.062

>  <SCORE.INTRA.VDW>
-0.0303325

>  <SCORE.INTRA.VDW.0>
-1.83782

>  <SCORE.INTRA.norm>
-0.0345671

>  <SCORE.RESTR>
0.00206748

>  <SCORE.RESTR.CAVITY>
0.00206748

>  <SCORE.RESTR.norm>
9.39763e-05

>  <SCORE.SYSTEM>
0

>  <SCORE.SYSTEM.CONST>
0

>  <SCORE.SYSTEM.DIHEDRAL>
0

>  <SCORE.SYSTEM.SOLV>
0

>  <SCORE.SYSTEM.norm>
0

>  <SCORE.heavy>
22

>  <SCORE.norm>
-0.0930043

>  <RMSD>
1.047

$$$$
ligand
 OpenBabel11021811513D
libRbt.so/2013.1/901 2013/11/27
 22 23  0  0  0  0  0  0  0  0999 V2000
  -29.7454    3.6645  -10.0388 N   0  0  0  0  0  0  0  0  0  0  0  0
  -26.5558    4.7501   -9.7214 C   0  0  1  0  0  0  0  0  0  0  0  0
  -27.6029    3.8764   -9.2114 O   0  0  0  0  0  0  0  0  0  0  0  0
  -25.7588    8.4277   -9.2788 P   0  0  1  0  0  0  0  0  0  0  0  0
  -28.4114    3.4557  -10.3221 C   0  0  2  0  0  0  0  0  0  0  0  0
  -31.5836    4.6340   -9.4125 N   0  0  0  0  0  0  0  0  0  0  0  0
  -28.3435    3.7886  -12.6844 O   0  0  0  0  0  0  0  0  0  0  0  0
  -28.0646    4.3914  -11.4153 C   0  0  2  0  0  0  0  0  0  0  0  0
  -34.3413    3.5976   -9.5377 N   0  0  0  0  0  0  0  0  0  0  0  0
  -25.8526    3.5437  -11.6041 O   0  0  0  0  0  0  0  0  0  0  0  0
  -26.6502    4.6676  -11.1954 C   0  0  2  0  0  0  0  0  0  0  0  0
  -31.8900    3.4099   -9.8690 C   0  0  0  0  0  0  0  0  0  0  0  0
  -30.6251    1.5025  -10.8310 N   0  0  0  0  0  0  0  0  0  0  0  0
  -25.7950    6.9099   -9.6706 O   0  0  0  0  0  0  0  0  0  0  0  0
  -26.8553    6.1249   -9.2310 C   0  0  0  0  0  0  0  0  0  0  0  0
  -24.4297    8.9387   -9.9443 O   0  0  0  0  0  0  0  0  0  0  0  0
  -30.2494    4.7872   -9.5135 C   0  0  0  0  0  0  0  0  0  0  0  0
  -33.4090    1.6658  -10.3022 O   0  0  0  0  0  0  0  0  0  0  0  0
  -33.2431    2.8265   -9.9278 C   0  0  0  0  0  0  0  0  0  0  0  0
  -30.7379    2.7944  -10.2680 C   0  0  0  0  0  0  0  0  0  0  0  0
  -26.9967    9.1026   -9.7687 O   0  5  0  0  0  0  0  0  0  0  0  0
  -25.8899    8.5940   -7.8201 O   0  0  0  0  0  0  0  0  0  0  0  0
  1 17  1  0  0  0  0
  1 20  1  0  0  0  0
  2 15  1  6  0  0  0
  2  3  1  0  0  0  0
  2 11  1  0  0  0  0
  3  5  1  0  0  0  0
  4 16  1  6  0  0  0
  4 21  1  0  0  0  0
  4 22  2  0  0  0  0
  4 14  1  0  0  0  0
  5  1  1  1  0  0  0
  5  8  1  0  0  0  0
  6 17  2  0  0  0  0
  6 12  1  0  0  0  0
  8  7  1  6  0  0  0
  8 11  1  0  0  0  0
  9 19  1  0  0  0  0
 11 10  1  1  0  0  0
 12 20  2  0  0  0  0
 12 19  1  0  0  0  0
 13 20  1  0  0  0  0
 14 15  1  0  0  0  0
 18 19  2  0  0  0  0
M  CHG  1  21  -1
M  END
>  <CHROM.1>
46.36749907,176.56084421,179.54924289,-177.70978498,2.91166320,-28.49610488
5.06786675,-10.03018611,-2.51244267,0.26482652,0.48053314

>  <Name>
ligand

>  <RI>
0

>  <Rbt.Current_Directory>
/home/itssahil/PROJECTS/Mol_Feturizer/New_Systems/rnas/4XWF

>  <Rbt.Executable>
rbdock ($Id: //depot/dev/client3/rdock/2013.1/src/exe/rbdock.cxx#4 $)

>  <Rbt.Library>
libRbt.so (2013.1, Build901 2013/11/27)

>  <Rbt.Parameter_File>
/export/apps/rDock/src/rDock_2013.1_src/data/scripts/dock_solv.prm

>  <Rbt.Receptor>
prm/pocket_docking_2.prm

>  <SCORE>
-1.96588

>  <SCORE.INTER>
-1.14128

>  <SCORE.INTER.CONST>
1

>  <SCORE.INTER.POLAR>
0

>  <SCORE.INTER.ROT>
5

>  <SCORE.INTER.SOLV>
12.201

>  <SCORE.INTER.VDW>
-11.7612

>  <SCORE.INTER.norm>
-0.0518764

>  <SCORE.INTRA>
-0.824603

>  <SCORE.INTRA.DIHEDRAL>
-1.92629

>  <SCORE.INTRA.DIHEDRAL.0>
3.49807

>  <SCORE.INTRA.POLAR>
0

>  <SCORE.INTRA.POLAR.0>
0

>  <SCORE.INTRA.REPUL>
0

>  <SCORE.INTRA.REPUL.0>
0

>  <SCORE.INTRA.SOLV>
0.181291

>  <SCORE.INTRA.SOLV.lig_0>
-73.062

>  <SCORE.INTRA.VDW>
0.0478976

>  <SCORE.INTRA.VDW.0>
-1.83782

>  <SCORE.INTRA.norm>
-0.037482

>  <SCORE.RESTR>
0

>  <SCORE.RESTR.CAVITY>
0

>  <SCORE.RESTR.norm>
0

>  <SCORE.SYSTEM>
0

>  <SCORE.SYSTEM.CONST>
0

>  <SCORE.SYSTEM.DIHEDRAL>
0

>  <SCORE.SYSTEM.SOLV>
0

>  <SCORE.SYSTEM.norm>
0

>  <SCORE.heavy>
22

>  <SCORE.norm>
-0.0893583

>  <RMSD>
1.093

$$$$
ligand
 OpenBabel11021811513D
libRbt.so/2013.1/901 2013/11/27
 22 23  0  0  0  0  0  0  0  0999 V2000
  -29.4839    3.1852  -10.5827 N   0  0  0  0  0  0  0  0  0  0  0  0
  -26.2325    4.0168  -11.0176 C   0  0  1  0  0  0  0  0  0  0  0  0
  -27.2102    3.2984  -10.2127 O   0  0  0  0  0  0  0  0  0  0  0  0
  -25.6033    6.9693   -8.7347 P   0  0  1  0  0  0  0  0  0  0  0  0
  -28.2498    2.8313  -11.0876 C   0  0  2  0  0  0  0  0  0  0  0  0
  -31.0727    4.3535   -9.6762 N   0  0  0  0  0  0  0  0  0  0  0  0
  -28.6344    2.8976  -13.4420 O   0  0  0  0  0  0  0  0  0  0  0  0
  -28.0694    3.6085  -12.3343 C   0  0  2  0  0  0  0  0  0  0  0  0
  -33.8836    3.5906   -9.2196 N   0  0  0  0  0  0  0  0  0  0  0  0
  -25.9987    2.5558  -12.8356 O   0  0  0  0  0  0  0  0  0  0  0  0
  -26.6249    3.7827  -12.4246 C   0  0  2  0  0  0  0  0  0  0  0  0
  -31.5794    3.1637  -10.0339 C   0  0  0  0  0  0  0  0  0  0  0  0
  -30.7079    1.1200  -11.1417 N   0  0  0  0  0  0  0  0  0  0  0  0
  -25.8137    5.5510   -9.3692 O   0  0  0  0  0  0  0  0  0  0  0  0
  -26.3392    5.4576  -10.6533 C   0  0  0  0  0  0  0  0  0  0  0  0
  -27.0715    7.4848   -8.5130 O   0  0  0  0  0  0  0  0  0  0  0  0
  -29.7688    4.3619  -10.0129 C   0  0  0  0  0  0  0  0  0  0  0  0
  -33.3379    1.6088  -10.1996 O   0  0  0  0  0  0  0  0  0  0  0  0
  -32.9745    2.7277   -9.8377 C   0  0  0  0  0  0  0  0  0  0  0  0
  -30.5857    2.4235  -10.6082 C   0  0  0  0  0  0  0  0  0  0  0  0
  -24.7943    6.8462   -7.4864 O   0  5  0  0  0  0  0  0  0  0  0  0
  -24.7195    7.7933   -9.5788 O   0  0  0  0  0  0  0  0  0  0  0  0
  1 17  1  0  0  0  0
  1 20  1  0  0  0  0
  2 15  1  1  0  0  0
  2  3  1  0  0  0  0
  2 11  1  0  0  0  0
  3  5  1  0  0  0  0
  4 16  1  1  0  0  0
  4 21  1  0  0  0  0
  4 22  2  0  0  0  0
  4 14  1  0  0  0  0
  5  1  1  1  0  0  0
  5  8  1  0  0  0  0
  6 17  2  0  0  0  0
  6 12  1  0  0  0  0
  8  7  1  6  0  0  0
  8 11  1  0  0  0  0
  9 19  1  0  0  0  0
 11 10  1  1  0  0  0
 12 20  2  0  0  0  0
 12 19  1  0  0  0  0
 13 20  1  0  0  0  0
 14 15  1  0  0  0  0
 18 19  2  0  0  0  0
M  CHG  1  21  -1
M  END
>  <CHROM.1>
40.52398385,70.93704237,68.53725344,172.42524519,-0.56675198,-28.31050130
4.28442319,-10.30424382,-2.64179967,0.31334975,0.81322462

>  <Name>
ligand

>  <RI>
0

>  <Rbt.Current_Directory>
/home/itssahil/PROJECTS/Mol_Feturizer/New_Systems/rnas/4XWF

>  <Rbt.Executable>
rbdock ($Id: //depot/dev/client3/rdock/2013.1/src/exe/rbdock.cxx#4 $)

>  <Rbt.Library>
libRbt.so (2013.1, Build901 2013/11/27)

>  <Rbt.Parameter_File>
/export/apps/rDock/src/rDock_2013.1_src/data/scripts/dock_solv.prm

>  <Rbt.Receptor>
prm/pocket_docking_2.prm

>  <SCORE>
-1.18236

>  <SCORE.INTER>
-0.117565

>  <SCORE.INTER.CONST>
1

>  <SCORE.INTER.POLAR>
0

>  <SCORE.INTER.ROT>
5

>  <SCORE.INTER.SOLV>
12.0345

>  <SCORE.INTER.VDW>
-11.0232

>  <SCORE.INTER.norm>
-0.00534389

>  <SCORE.INTRA>
-1.06479

>  <SCORE.INTRA.DIHEDRAL>
-1.22161

>  <SCORE.INTRA.DIHEDRAL.0>
3.49807

>  <SCORE.INTRA.POLAR>
0

>  <SCORE.INTRA.POLAR.0>
0

>  <SCORE.INTRA.REPUL>
0

>  <SCORE.INTRA.REPUL.0>
0

>  <SCORE.INTRA.SOLV>
-0.349515

>  <SCORE.INTRA.SOLV.lig_0>
-73.062

>  <SCORE.INTRA.VDW>
-0.27923

>  <SCORE.INTRA.VDW.0>
-1.83782

>  <SCORE.INTRA.norm>
-0.0483997

>  <SCORE.RESTR>
0

>  <SCORE.RESTR.CAVITY>
0

>  <SCORE.RESTR.norm>
0

>  <SCORE.SYSTEM>
0

>  <SCORE.SYSTEM.CONST>
0

>  <SCORE.SYSTEM.DIHEDRAL>
0

>  <SCORE.SYSTEM.SOLV>
0

>  <SCORE.SYSTEM.norm>
0

>  <SCORE.heavy>
22

>  <SCORE.norm>
-0.0537436

>  <RMSD>
1.103

$$$$
ligand
 OpenBabel11021811513D
libRbt.so/2013.1/901 2013/11/27
 22 23  0  0  0  0  0  0  0  0999 V2000
  -29.4120    3.3940  -10.5195 N   0  0  0  0  0  0  0  0  0  0  0  0
  -26.3160    4.5033  -11.3178 C   0  0  1  0  0  0  0  0  0  0  0  0
  -27.1676    3.8835  -10.3125 O   0  0  0  0  0  0  0  0  0  0  0  0
  -26.0646    7.9566   -9.8063 P   0  0  1  0  0  0  0  0  0  0  0  0
  -28.1525    3.0887  -10.9925 C   0  0  2  0  0  0  0  0  0  0  0  0
  -31.0765    4.5090   -9.6846 N   0  0  0  0  0  0  0  0  0  0  0  0
  -28.5951    2.5302  -13.2703 O   0  0  0  0  0  0  0  0  0  0  0  0
  -28.1084    3.5555  -12.3964 C   0  0  2  0  0  0  0  0  0  0  0  0
  -33.8306    3.5867   -9.1728 N   0  0  0  0  0  0  0  0  0  0  0  0
  -25.9246    2.6859  -12.7455 O   0  0  0  0  0  0  0  0  0  0  0  0
  -26.7039    3.8856  -12.6047 C   0  0  2  0  0  0  0  0  0  0  0  0
  -31.5114    3.2788   -9.9979 C   0  0  0  0  0  0  0  0  0  0  0  0
  -30.5116    1.2423  -11.0061 N   0  0  0  0  0  0  0  0  0  0  0  0
  -26.1706    6.4132  -10.0620 O   0  0  0  0  0  0  0  0  0  0  0  0
  -26.6113    5.9636  -11.3019 C   0  0  0  0  0  0  0  0  0  0  0  0
  -27.5411    8.4562  -10.0083 O   0  0  0  0  0  0  0  0  0  0  0  0
  -29.7700    4.5758  -10.0041 C   0  0  0  0  0  0  0  0  0  0  0  0
  -33.1936    1.6427  -10.1733 O   0  0  0  0  0  0  0  0  0  0  0  0
  -32.8832    2.7745   -9.8018 C   0  0  0  0  0  0  0  0  0  0  0  0
  -30.4696    2.5717  -10.5271 C   0  0  0  0  0  0  0  0  0  0  0  0
  -25.5077    8.2030   -8.4435 O   0  5  0  0  0  0  0  0  0  0  0  0
  -25.0261    8.5579  -10.6623 O   0  0  0  0  0  0  0  0  0  0  0  0
  1 17  1  0  0  0  0
  1 20  1  0  0  0  0
  2 15  1  6  0  0  0
  2  3  1  0  0  0  0
  2 11  1  0  0  0  0
  3  5  1  0  0  0  0
  4 16  1  6  0  0  0
  4 21  1  0  0  0  0
  4 22  2  0  0  0  0
  4 14  1  0  0  0  0
  5  1  1  1  0  0  0
  5  8  1  0  0  0  0
  6 17  2  0  0  0  0
  6 12  1  0  0  0  0
  8  7  1  6  0  0  0
  8 11  1  0  0  0  0
  9 19  1  0  0  0  0
 11 10  1  1  0  0  0
 12 20  2  0  0  0  0
 12 19  1  0  0  0  0
 13 20  1  0  0  0  0
 14 15  1  0  0  0  0
 18 19  2  0  0  0  0
M  CHG  1  21  -1
M  END
>  <CHROM.1>
27.74099221,66.33513488,60.41176465,168.02645046,-3.72238433,-28.42127864
4.68076689,-10.63080555,-2.54488777,0.38861553,0.55407402

>  <Name>
ligand

>  <RI>
0

>  <Rbt.Current_Directory>
/home/itssahil/PROJECTS/Mol_Feturizer/New_Systems/rnas/4XWF

>  <Rbt.Executable>
rbdock ($Id: //depot/dev/client3/rdock/2013.1/src/exe/rbdock.cxx#4 $)

>  <Rbt.Library>
libRbt.so (2013.1, Build901 2013/11/27)

>  <Rbt.Parameter_File>
/export/apps/rDock/src/rDock_2013.1_src/data/scripts/dock_solv.prm

>  <Rbt.Receptor>
prm/pocket_docking_2.prm

>  <SCORE>
-1.57525

>  <SCORE.INTER>
-0.789175

>  <SCORE.INTER.CONST>
1

>  <SCORE.INTER.POLAR>
0

>  <SCORE.INTER.ROT>
5

>  <SCORE.INTER.SOLV>
10.7908

>  <SCORE.INTER.VDW>
-11.0564

>  <SCORE.INTER.norm>
-0.0358716

>  <SCORE.INTRA>
-0.78607

>  <SCORE.INTRA.DIHEDRAL>
-1.17064

>  <SCORE.INTRA.DIHEDRAL.0>
3.49807

>  <SCORE.INTRA.POLAR>
0

>  <SCORE.INTRA.POLAR.0>
0

>  <SCORE.INTRA.REPUL>
0

>  <SCORE.INTRA.REPUL.0>
0

>  <SCORE.INTRA.SOLV>
0.0598411

>  <SCORE.INTRA.SOLV.lig_0>
-73.062

>  <SCORE.INTRA.VDW>
-0.230671

>  <SCORE.INTRA.VDW.0>
-1.83782

>  <SCORE.INTRA.norm>
-0.0357304

>  <SCORE.RESTR>
0

>  <SCORE.RESTR.CAVITY>
0

>  <SCORE.RESTR.norm>
0

>  <SCORE.SYSTEM>
0

>  <SCORE.SYSTEM.CONST>
0

>  <SCORE.SYSTEM.DIHEDRAL>
0

>  <SCORE.SYSTEM.SOLV>
0

>  <SCORE.SYSTEM.norm>
0

>  <SCORE.heavy>
22

>  <SCORE.norm>
-0.071602

>  <RMSD>
1.143

$$$$
ligand
 OpenBabel11021811513D
libRbt.so/2013.1/901 2013/11/27
 22 23  0  0  0  0  0  0  0  0999 V2000
  -29.6029    3.2617  -10.4519 N   0  0  0  0  0  0  0  0  0  0  0  0
  -26.4344    4.0708  -11.3231 C   0  0  1  0  0  0  0  0  0  0  0  0
  -27.3138    3.5060  -10.3094 O   0  0  0  0  0  0  0  0  0  0  0  0
  -25.7845    7.4336   -9.7150 P   0  0  1  0  0  0  0  0  0  0  0  0
  -28.3986    2.8445  -10.9802 C   0  0  2  0  0  0  0  0  0  0  0  0
  -31.1482    4.5421   -9.6252 N   0  0  0  0  0  0  0  0  0  0  0  0
  -28.9711    2.4214  -13.2581 O   0  0  0  0  0  0  0  0  0  0  0  0
  -28.3508    3.3567  -12.3680 C   0  0  2  0  0  0  0  0  0  0  0  0
  -33.2217    1.8122   -8.5547 N   0  0  0  0  0  0  0  0  0  0  0  0
  -26.2835    2.2775  -12.8250 O   0  0  0  0  0  0  0  0  0  0  0  0
  -26.9267    3.5459  -12.6156 C   0  0  2  0  0  0  0  0  0  0  0  0
  -31.6572    3.3086   -9.7662 C   0  0  0  0  0  0  0  0  0  0  0  0
  -30.8259    1.1277  -10.6125 N   0  0  0  0  0  0  0  0  0  0  0  0
  -25.9931    5.9130  -10.0356 O   0  0  0  0  0  0  0  0  0  0  0  0
  -26.5731    5.5524  -11.2469 C   0  0  0  0  0  0  0  0  0  0  0  0
  -24.8374    7.9178  -10.8722 O   0  0  0  0  0  0  0  0  0  0  0  0
  -29.8695    4.5087  -10.0464 C   0  0  0  0  0  0  0  0  0  0  0  0
  -34.0005    3.4918   -9.8807 O   0  0  0  0  0  0  0  0  0  0  0  0
  -33.0289    2.8976   -9.4137 C   0  0  0  0  0  0  0  0  0  0  0  0
  -30.6909    2.4973  -10.2892 C   0  0  0  0  0  0  0  0  0  0  0  0
  -27.1075    8.1230   -9.6673 O   0  5  0  0  0  0  0  0  0  0  0  0
  -25.3072    7.6153   -8.3323 O   0  0  0  0  0  0  0  0  0  0  0  0
  1 17  1  0  0  0  0
  1 20  1  0  0  0  0
  2 15  1  6  0  0  0
  2  3  1  0  0  0  0
  2 11  1  0  0  0  0
  3  5  1  0  0  0  0
  4 16  1  6  0  0  0
  4 21  1  0  0  0  0
  4 22  2  0  0  0  0
  4 14  1  0  0  0  0
  5  1  1  1  0  0  0
  5  8  1  0  0  0  0
  6 17  2  0  0  0  0
  6 12  1  0  0  0  0
  8  7  1  6  0  0  0
  8 11  1  0  0  0  0
  9 19  1  0  0  0  0
 11 10  1  1  0  0  0
 12 20  2  0  0  0  0
 12 19  1  0  0  0  0
 13 20  1  0  0  0  0
 14 15  1  0  0  0  0
 18 19  2  0  0  0  0
M  CHG  1  21  -1
M  END
>  <CHROM.1>
37.09727729,68.93290426,-60.37329829,171.61215881,-125.90430742,-28.48053362
4.42796637,-10.51653968,-2.67208929,0.39518101,0.62834769

>  <Name>
ligand

>  <RI>
0

>  <Rbt.Current_Directory>
/home/itssahil/PROJECTS/Mol_Feturizer/New_Systems/rnas/4XWF

>  <Rbt.Executable>
rbdock ($Id: //depot/dev/client3/rdock/2013.1/src/exe/rbdock.cxx#4 $)

>  <Rbt.Library>
libRbt.so (2013.1, Build901 2013/11/27)

>  <Rbt.Parameter_File>
/export/apps/rDock/src/rDock_2013.1_src/data/scripts/dock_solv.prm

>  <Rbt.Receptor>
prm/pocket_docking_2.prm

>  <SCORE>
-1.42219

>  <SCORE.INTER>
-0.274245

>  <SCORE.INTER.CONST>
1

>  <SCORE.INTER.POLAR>
0

>  <SCORE.INTER.ROT>
5

>  <SCORE.INTER.SOLV>
10.2017

>  <SCORE.INTER.VDW>
-10.5167

>  <SCORE.INTER.norm>
-0.0124657

>  <SCORE.INTRA>
-1.14795

>  <SCORE.INTRA.DIHEDRAL>
-1.34703

>  <SCORE.INTRA.DIHEDRAL.0>
3.49807

>  <SCORE.INTRA.POLAR>
0

>  <SCORE.INTRA.POLAR.0>
0

>  <SCORE.INTRA.REPUL>
0

>  <SCORE.INTRA.REPUL.0>
0

>  <SCORE.INTRA.SOLV>
-0.20749

>  <SCORE.INTRA.SOLV.lig_0>
-73.062

>  <SCORE.INTRA.VDW>
-0.370688

>  <SCORE.INTRA.VDW.0>
-1.83782

>  <SCORE.INTRA.norm>
-0.0521794

>  <SCORE.RESTR>
0

>  <SCORE.RESTR.CAVITY>
0

>  <SCORE.RESTR.norm>
0

>  <SCORE.SYSTEM>
0

>  <SCORE.SYSTEM.CONST>
0

>  <SCORE.SYSTEM.DIHEDRAL>
0

>  <SCORE.SYSTEM.SOLV>
0

>  <SCORE.SYSTEM.norm>
0

>  <SCORE.heavy>
22

>  <SCORE.norm>
-0.0646451

>  <RMSD>
1.146

$$$$
ligand
 OpenBabel11021811513D
libRbt.so/2013.1/901 2013/11/27
 22 23  0  0  0  0  0  0  0  0999 V2000
  -29.6248    3.7609  -10.0934 N   0  0  0  0  0  0  0  0  0  0  0  0
  -26.4305    4.8684   -9.9449 C   0  0  1  0  0  0  0  0  0  0  0  0
  -27.4345    3.9655   -9.4004 O   0  0  0  0  0  0  0  0  0  0  0  0
  -25.5780    8.5071   -9.3231 P   0  0  1  0  0  0  0  0  0  0  0  0
  -28.3107    3.5769  -10.4707 C   0  0  2  0  0  0  0  0  0  0  0  0
  -31.4483    4.7159   -9.4049 N   0  0  0  0  0  0  0  0  0  0  0  0
  -28.4007    3.9964  -12.8185 O   0  0  0  0  0  0  0  0  0  0  0  0
  -28.0441    4.5555  -11.5488 C   0  0  2  0  0  0  0  0  0  0  0  0
  -33.1526    1.5042   -9.0911 N   0  0  0  0  0  0  0  0  0  0  0  0
  -25.8423    3.7389  -11.9129 O   0  0  0  0  0  0  0  0  0  0  0  0
  -26.6207    4.8386  -11.4116 C   0  0  2  0  0  0  0  0  0  0  0  0
  -31.7335    3.4415   -9.7135 C   0  0  0  0  0  0  0  0  0  0  0  0
  -30.4644    1.4984  -10.5950 N   0  0  0  0  0  0  0  0  0  0  0  0
  -25.6459    7.0155   -9.8019 O   0  0  0  0  0  0  0  0  0  0  0  0
  -26.7085    6.2211   -9.3854 C   0  0  0  0  0  0  0  0  0  0  0  0
  -24.2996    9.0601  -10.0514 O   0  0  0  0  0  0  0  0  0  0  0  0
  -30.1359    4.9099   -9.6362 C   0  0  0  0  0  0  0  0  0  0  0  0
  -34.0736    3.3983   -9.9570 O   0  0  0  0  0  0  0  0  0  0  0  0
  -33.0578    2.8031   -9.5979 C   0  0  0  0  0  0  0  0  0  0  0  0
  -30.5908    2.8345  -10.1507 C   0  0  0  0  0  0  0  0  0  0  0  0
  -26.8467    9.2076   -9.6804 O   0  5  0  0  0  0  0  0  0  0  0  0
  -25.6025    8.5849   -7.8514 O   0  0  0  0  0  0  0  0  0  0  0  0
  1 17  1  0  0  0  0
  1 20  1  0  0  0  0
  2 15  1  1  0  0  0
  2  3  1  0  0  0  0
  2 11  1  0  0  0  0
  3  5  1  0  0  0  0
  4 16  1  6  0  0  0
  4 21  1  0  0  0  0
  4 22  2  0  0  0  0
  4 14  1  0  0  0  0
  5  1  1  1  0  0  0
  5  8  1  0  0  0  0
  6 17  2  0  0  0  0
  6 12  1  0  0  0  0
  8  7  1  6  0  0  0
  8 11  1  0  0  0  0
  9 19  1  0  0  0  0
 11 10  1  6  0  0  0
 12 20  2  0  0  0  0
 12 19  1  0  0  0  0
 13 20  1  0  0  0  0
 14 15  1  0  0  0  0
 18 19  2  0  0  0  0
M  CHG  1  21  -1
M  END
>  <CHROM.1>
54.40388674,173.32454106,-177.41577832,-176.89834249,-138.15631522,-28.36319039
5.15055417,-10.04767202,-2.54094145,0.33996225,0.52615537

>  <Name>
ligand

>  <RI>
0

>  <Rbt.Current_Directory>
/home/itssahil/PROJECTS/Mol_Feturizer/New_Systems/rnas/4XWF

>  <Rbt.Executable>
rbdock ($Id: //depot/dev/client3/rdock/2013.1/src/exe/rbdock.cxx#4 $)

>  <Rbt.Library>
libRbt.so (2013.1, Build901 2013/11/27)

>  <Rbt.Parameter_File>
/export/apps/rDock/src/rDock_2013.1_src/data/scripts/dock_solv.prm

>  <Rbt.Receptor>
prm/pocket_docking_2.prm

>  <SCORE>
-1.33367

>  <SCORE.INTER>
-0.697431

>  <SCORE.INTER.CONST>
1

>  <SCORE.INTER.POLAR>
0

>  <SCORE.INTER.ROT>
5

>  <SCORE.INTER.SOLV>
9.1804

>  <SCORE.INTER.VDW>
-10.4584

>  <SCORE.INTER.norm>
-0.0317014

>  <SCORE.INTRA>
-0.636241

>  <SCORE.INTRA.DIHEDRAL>
-1.46532

>  <SCORE.INTRA.DIHEDRAL.0>
3.49807

>  <SCORE.INTRA.POLAR>
0

>  <SCORE.INTRA.POLAR.0>
0

>  <SCORE.INTRA.REPUL>
0

>  <SCORE.INTRA.REPUL.0>
0

>  <SCORE.INTRA.SOLV>
0.115884

>  <SCORE.INTRA.SOLV.lig_0>
-73.062

>  <SCORE.INTRA.VDW>
0.0384791

>  <SCORE.INTRA.VDW.0>
-1.83782

>  <SCORE.INTRA.norm>
-0.02892

>  <SCORE.RESTR>
0

>  <SCORE.RESTR.CAVITY>
0

>  <SCORE.RESTR.norm>
0

>  <SCORE.SYSTEM>
0

>  <SCORE.SYSTEM.CONST>
0

>  <SCORE.SYSTEM.DIHEDRAL>
0

>  <SCORE.SYSTEM.SOLV>
0

>  <SCORE.SYSTEM.norm>
0

>  <SCORE.heavy>
22

>  <SCORE.norm>
-0.0606214

>  <RMSD>
1.176

$$$$
ligand
 OpenBabel11021811513D
libRbt.so/2013.1/901 2013/11/27
 22 23  0  0  0  0  0  0  0  0999 V2000
  -29.6008    3.7549  -10.1216 N   0  0  0  0  0  0  0  0  0  0  0  0
  -26.4238    4.9143  -10.2440 C   0  0  1  0  0  0  0  0  0  0  0  0
  -27.3899    4.0759   -9.5485 O   0  0  0  0  0  0  0  0  0  0  0  0
  -25.6140    8.6139  -10.1241 P   0  0  1  0  0  0  0  0  0  0  0  0
  -28.2988    3.5412  -10.5243 C   0  0  2  0  0  0  0  0  0  0  0  0
  -31.3885    4.7511   -9.3983 N   0  0  0  0  0  0  0  0  0  0  0  0
  -28.4853    3.6531  -12.9010 O   0  0  0  0  0  0  0  0  0  0  0  0
  -28.0911    4.3759  -11.7288 C   0  0  2  0  0  0  0  0  0  0  0  0
  -33.1595    1.5834   -9.0383 N   0  0  0  0  0  0  0  0  0  0  0  0
  -25.8902    3.5483  -12.0727 O   0  0  0  0  0  0  0  0  0  0  0  0
  -26.6689    4.6931  -11.6860 C   0  0  2  0  0  0  0  0  0  0  0  0
  -31.7084    3.4834   -9.7005 C   0  0  0  0  0  0  0  0  0  0  0  0
  -30.5010    1.5119  -10.6055 N   0  0  0  0  0  0  0  0  0  0  0  0
  -25.6585    7.0684  -10.3854 O   0  0  0  0  0  0  0  0  0  0  0  0
  -26.7050    6.3240   -9.8521 C   0  0  0  0  0  0  0  0  0  0  0  0
  -24.3287    9.0729  -10.9038 O   0  0  0  0  0  0  0  0  0  0  0  0
  -30.0767    4.9153   -9.6552 C   0  0  0  0  0  0  0  0  0  0  0  0
  -34.0524    3.4892   -9.9080 O   0  0  0  0  0  0  0  0  0  0  0  0
  -33.0443    2.8752   -9.5588 C   0  0  0  0  0  0  0  0  0  0  0  0
  -30.5885    2.8506  -10.1596 C   0  0  0  0  0  0  0  0  0  0  0  0
  -26.8833    9.2402  -10.5979 O   0  5  0  0  0  0  0  0  0  0  0  0
  -25.6648    8.9010   -8.6792 O   0  0  0  0  0  0  0  0  0  0  0  0
  1 17  1  0  0  0  0
  1 20  1  0  0  0  0
  2 15  1  6  0  0  0
  2  3  1  0  0  0  0
  2 11  1  0  0  0  0
  3  5  1  0  0  0  0
  4 16  1  6  0  0  0
  4 21  1  0  0  0  0
  4 22  2  0  0  0  0
  4 14  1  0  0  0  0
  5  1  1  1  0  0  0
  5  8  1  0  0  0  0
  6 17  2  0  0  0  0
  6 12  1  0  0  0  0
  8  7  1  6  0  0  0
  8 11  1  0  0  0  0
  9 19  1  0  0  0  0
 11 10  1  1  0  0  0
 12 20  2  0  0  0  0
 12 19  1  0  0  0  0
 13 20  1  0  0  0  0
 14 15  1  0  0  0  0
 18 19  2  0  0  0  0
M  CHG  1  21  -1
M  END
>  <CHROM.1>
46.62994018,172.11295233,-178.77657960,-178.23041825,-137.58778156,-28.37415566
5.16665755,-10.34434250,-2.54081085,0.35954539,0.40249543

>  <Name>
ligand

>  <RI>
0

>  <Rbt.Current_Directory>
/home/itssahil/PROJECTS/Mol_Feturizer/New_Systems/rnas/4XWF

>  <Rbt.Executable>
rbdock ($Id: //depot/dev/client3/rdock/2013.1/src/exe/rbdock.cxx#4 $)

>  <Rbt.Library>
libRbt.so (2013.1, Build901 2013/11/27)

>  <Rbt.Parameter_File>
/export/apps/rDock/src/rDock_2013.1_src/data/scripts/dock_solv.prm

>  <Rbt.Receptor>
prm/pocket_docking_2.prm

>  <SCORE>
-1.45332

>  <SCORE.INTER>
-0.757067

>  <SCORE.INTER.CONST>
1

>  <SCORE.INTER.POLAR>
0

>  <SCORE.INTER.ROT>
5

>  <SCORE.INTER.SOLV>
9.2242

>  <SCORE.INTER.VDW>
-10.5128

>  <SCORE.INTER.norm>
-0.0344121

>  <SCORE.INTRA>
-0.696249

>  <SCORE.INTRA.DIHEDRAL>
-1.47516

>  <SCORE.INTRA.DIHEDRAL.0>
3.49807

>  <SCORE.INTRA.POLAR>
0

>  <SCORE.INTRA.POLAR.0>
0

>  <SCORE.INTRA.REPUL>
0

>  <SCORE.INTRA.REPUL.0>
0

>  <SCORE.INTRA.SOLV>
0.334593

>  <SCORE.INTRA.SOLV.lig_0>
-73.062

>  <SCORE.INTRA.VDW>
-0.125967

>  <SCORE.INTRA.VDW.0>
-1.83782

>  <SCORE.INTRA.norm>
-0.0316477

>  <SCORE.RESTR>
0

>  <SCORE.RESTR.CAVITY>
0

>  <SCORE.RESTR.norm>
0

>  <SCORE.SYSTEM>
0

>  <SCORE.SYSTEM.CONST>
0

>  <SCORE.SYSTEM.DIHEDRAL>
0

>  <SCORE.SYSTEM.SOLV>
0

>  <SCORE.SYSTEM.norm>
0

>  <SCORE.heavy>
22

>  <SCORE.norm>
-0.0660598

>  <RMSD>
1.183

$$$$
ligand
 OpenBabel11021811513D
libRbt.so/2013.1/901 2013/11/27
 22 23  0  0  0  0  0  0  0  0999 V2000
  -29.5280    3.2873  -10.5443 N   0  0  0  0  0  0  0  0  0  0  0  0
  -26.4206    4.3946  -11.2993 C   0  0  1  0  0  0  0  0  0  0  0  0
  -27.2780    3.7421  -10.3201 O   0  0  0  0  0  0  0  0  0  0  0  0
  -26.2532    7.7690   -9.5928 P   0  0  1  0  0  0  0  0  0  0  0  0
  -28.2726    2.9882  -11.0319 C   0  0  2  0  0  0  0  0  0  0  0  0
  -31.1762    4.3811   -9.6509 N   0  0  0  0  0  0  0  0  0  0  0  0
  -28.7241    2.5325  -13.3306 O   0  0  0  0  0  0  0  0  0  0  0  0
  -28.2248    3.5140  -12.4146 C   0  0  2  0  0  0  0  0  0  0  0  0
  -33.9991    3.5565   -9.4010 N   0  0  0  0  0  0  0  0  0  0  0  0
  -26.0513    2.6355  -12.8039 O   0  0  0  0  0  0  0  0  0  0  0  0
  -26.8168    3.8368  -12.6109 C   0  0  2  0  0  0  0  0  0  0  0  0
  -31.6302    3.1775  -10.0325 C   0  0  0  0  0  0  0  0  0  0  0  0
  -30.6612    1.1840  -11.1510 N   0  0  0  0  0  0  0  0  0  0  0  0
  -26.2685    6.2439   -9.9565 O   0  0  0  0  0  0  0  0  0  0  0  0
  -26.6992    5.8561  -11.2206 C   0  0  0  0  0  0  0  0  0  0  0  0
  -25.9160    7.7686   -8.0576 O   0  0  0  0  0  0  0  0  0  0  0  0
  -29.8681    4.4443   -9.9645 C   0  0  0  0  0  0  0  0  0  0  0  0
  -33.2927    1.5144  -10.1197 O   0  0  0  0  0  0  0  0  0  0  0  0
  -33.0104    2.6854   -9.8665 C   0  0  0  0  0  0  0  0  0  0  0  0
  -30.5988    2.4840  -10.5988 C   0  0  0  0  0  0  0  0  0  0  0  0
  -25.2556    8.4790  -10.4465 O   0  5  0  0  0  0  0  0  0  0  0  0
  -27.5103    8.4175  -10.0071 O   0  0  0  0  0  0  0  0  0  0  0  0
  1 17  1  0  0  0  0
  1 20  1  0  0  0  0
  2 15  1  6  0  0  0
  2  3  1  0  0  0  0
  2 11  1  0  0  0  0
  3  5  1  0  0  0  0
  4 16  1  1  0  0  0
  4 21  1  0  0  0  0
  4 22  2  0  0  0  0
  4 14  1  0  0  0  0
  5  1  1  1  0  0  0
  5  8  1  0  0  0  0
  6 17  2  0  0  0  0
  6 12  1  0  0  0  0
  8  7  1  6  0  0  0
  8 11  1  0  0  0  0
  9 19  1  0  0  0  0
 11 10  1  1  0  0  0
 12 20  2  0  0  0  0
 12 19  1  0  0  0  0
 13 20  1  0  0  0  0
 14 15  1  0  0  0  0
 18 19  2  0  0  0  0
M  CHG  1  21  -1
M  END
>  <CHROM.1>
26.93595554,65.55696598,172.18064150,172.69070823,7.00779144,-28.55759016
4.56747152,-10.59844756,-2.54363064,0.38330170,0.59425431

>  <Name>
ligand

>  <RI>
0

>  <Rbt.Current_Directory>
/home/itssahil/PROJECTS/Mol_Feturizer/New_Systems/rnas/4XWF

>  <Rbt.Executable>
rbdock ($Id: //depot/dev/client3/rdock/2013.1/src/exe/rbdock.cxx#4 $)

>  <Rbt.Library>
libRbt.so (2013.1, Build901 2013/11/27)

>  <Rbt.Parameter_File>
/export/apps/rDock/src/rDock_2013.1_src/data/scripts/dock_solv.prm

>  <Rbt.Receptor>
prm/pocket_docking_2.prm

>  <SCORE>
-1.41541

>  <SCORE.INTER>
-0.821719

>  <SCORE.INTER.CONST>
1

>  <SCORE.INTER.POLAR>
0

>  <SCORE.INTER.ROT>
5

>  <SCORE.INTER.SOLV>
12.7209

>  <SCORE.INTER.VDW>
-11.7214

>  <SCORE.INTER.norm>
-0.0373509

>  <SCORE.INTRA>
-0.593687

>  <SCORE.INTRA.DIHEDRAL>
-1.44813

>  <SCORE.INTRA.DIHEDRAL.0>
3.49807

>  <SCORE.INTRA.POLAR>
0

>  <SCORE.INTRA.POLAR.0>
0

>  <SCORE.INTRA.REPUL>
0

>  <SCORE.INTRA.REPUL.0>
0

>  <SCORE.INTRA.SOLV>
0.735079

>  <SCORE.INTRA.SOLV.lig_0>
-73.062

>  <SCORE.INTRA.VDW>
-0.23716

>  <SCORE.INTRA.VDW.0>
-1.83782

>  <SCORE.INTRA.norm>
-0.0269858

>  <SCORE.RESTR>
0

>  <SCORE.RESTR.CAVITY>
0

>  <SCORE.RESTR.norm>
0

>  <SCORE.SYSTEM>
0

>  <SCORE.SYSTEM.CONST>
0

>  <SCORE.SYSTEM.DIHEDRAL>
0

>  <SCORE.SYSTEM.SOLV>
0

>  <SCORE.SYSTEM.norm>
0

>  <SCORE.heavy>
22

>  <SCORE.norm>
-0.0643366

>  <RMSD>
1.192

$$$$
ligand
 OpenBabel11021811513D
libRbt.so/2013.1/901 2013/11/27
 22 23  0  0  0  0  0  0  0  0999 V2000
  -29.3313    3.3635  -10.6172 N   0  0  0  0  0  0  0  0  0  0  0  0
  -26.1260    4.2697  -11.2148 C   0  0  1  0  0  0  0  0  0  0  0  0
  -27.0415    3.5052  -10.3797 O   0  0  0  0  0  0  0  0  0  0  0  0
  -25.5482    7.1292   -8.7975 P   0  0  1  0  0  0  0  0  0  0  0  0
  -28.1243    3.0506  -11.2075 C   0  0  2  0  0  0  0  0  0  0  0  0
  -30.8895    4.4778   -9.5967 N   0  0  0  0  0  0  0  0  0  0  0  0
  -28.6515    3.1937  -13.5307 O   0  0  0  0  0  0  0  0  0  0  0  0
  -28.0321    3.8749  -12.4334 C   0  0  2  0  0  0  0  0  0  0  0  0
  -32.9266    1.5142   -9.1060 N   0  0  0  0  0  0  0  0  0  0  0  0
  -25.9788    2.8789  -13.0959 O   0  0  0  0  0  0  0  0  0  0  0  0
  -26.5987    4.0786  -12.6034 C   0  0  2  0  0  0  0  0  0  0  0  0
  -31.3826    3.2741   -9.9263 C   0  0  0  0  0  0  0  0  0  0  0  0
  -30.5262    1.2633  -11.1040 N   0  0  0  0  0  0  0  0  0  0  0  0
  -25.6635    5.7450   -9.5249 O   0  0  0  0  0  0  0  0  0  0  0  0
  -26.2337    5.6944  -10.7922 C   0  0  0  0  0  0  0  0  0  0  0  0
  -27.0462    7.5120   -8.5146 O   0  0  0  0  0  0  0  0  0  0  0  0
  -29.6127    4.5284  -10.0218 C   0  0  0  0  0  0  0  0  0  0  0  0
  -33.7239    3.5036   -9.8754 O   0  0  0  0  0  0  0  0  0  0  0  0
  -32.7467    2.7939   -9.6379 C   0  0  0  0  0  0  0  0  0  0  0  0
  -30.4081    2.5678  -10.5720 C   0  0  0  0  0  0  0  0  0  0  0  0
  -24.7037    6.9856   -7.5751 O   0  5  0  0  0  0  0  0  0  0  0  0
  -24.7500    8.0752   -9.5979 O   0  0  0  0  0  0  0  0  0  0  0  0
  1 17  1  0  0  0  0
  1 20  1  0  0  0  0
  2 15  1  1  0  0  0
  2  3  1  0  0  0  0
  2 11  1  0  0  0  0
  3  5  1  0  0  0  0
  4 16  1  1  0  0  0
  4 21  1  0  0  0  0
  4 22  2  0  0  0  0
  4 14  1  0  0  0  0
  5  1  1  1  0  0  0
  5  8  1  0  0  0  0
  6 17  2  0  0  0  0
  6 12  1  0  0  0  0
  8  7  1  6  0  0  0
  8 11  1  0  0  0  0
  9 19  1  0  0  0  0
 11 10  1  1  0  0  0
 12 20  2  0  0  0  0
 12 19  1  0  0  0  0
 13 20  1  0  0  0  0
 14 15  1  0  0  0  0
 18 19  2  0  0  0  0
M  CHG  1  21  -1
M  END
>  <CHROM.1>
42.52901868,69.48185369,67.28181061,177.21150845,-133.66938236,-28.19769181
4.46236754,-10.34123517,-2.67419052,0.37402036,0.86653397

>  <Name>
ligand

>  <RI>
0

>  <Rbt.Current_Directory>
/home/itssahil/PROJECTS/Mol_Feturizer/New_Systems/rnas/4XWF

>  <Rbt.Executable>
rbdock ($Id: //depot/dev/client3/rdock/2013.1/src/exe/rbdock.cxx#4 $)

>  <Rbt.Library>
libRbt.so (2013.1, Build901 2013/11/27)

>  <Rbt.Parameter_File>
/export/apps/rDock/src/rDock_2013.1_src/data/scripts/dock_solv.prm

>  <Rbt.Receptor>
prm/pocket_docking_2.prm

>  <SCORE>
-0.830546

>  <SCORE.INTER>
0.448581

>  <SCORE.INTER.CONST>
1

>  <SCORE.INTER.POLAR>
0

>  <SCORE.INTER.ROT>
5

>  <SCORE.INTER.SOLV>
9.94866

>  <SCORE.INTER.VDW>
-9.9505

>  <SCORE.INTER.norm>
0.02039

>  <SCORE.INTRA>
-1.27913

>  <SCORE.INTRA.DIHEDRAL>
-1.39941

>  <SCORE.INTRA.DIHEDRAL.0>
3.49807

>  <SCORE.INTRA.POLAR>
0

>  <SCORE.INTRA.POLAR.0>
0

>  <SCORE.INTRA.REPUL>
0

>  <SCORE.INTRA.REPUL.0>
0

>  <SCORE.INTRA.SOLV>
-0.264693

>  <SCORE.INTRA.SOLV.lig_0>
-73.062

>  <SCORE.INTRA.VDW>
-0.447075

>  <SCORE.INTRA.VDW.0>
-1.83782

>  <SCORE.INTRA.norm>
-0.0581421

>  <SCORE.RESTR>
0

>  <SCORE.RESTR.CAVITY>
0

>  <SCORE.RESTR.norm>
0

>  <SCORE.SYSTEM>
0

>  <SCORE.SYSTEM.CONST>
0

>  <SCORE.SYSTEM.DIHEDRAL>
0

>  <SCORE.SYSTEM.SOLV>
0

>  <SCORE.SYSTEM.norm>
0

>  <SCORE.heavy>
22

>  <SCORE.norm>
-0.0377521

>  <RMSD>
1.206

$$$$
ligand
 OpenBabel11021811513D
libRbt.so/2013.1/901 2013/11/27
 22 23  0  0  0  0  0  0  0  0999 V2000
  -29.6175    3.8684  -10.0861 N   0  0  0  0  0  0  0  0  0  0  0  0
  -26.6134    5.3606  -10.5347 C   0  0  1  0  0  0  0  0  0  0  0  0
  -27.4982    4.6512   -9.6216 O   0  0  0  0  0  0  0  0  0  0  0  0
  -25.5626    7.7248   -8.7989 P   0  0  1  0  0  0  0  0  0  0  0  0
  -28.2799    3.7230  -10.3910 C   0  0  2  0  0  0  0  0  0  0  0  0
  -31.4929    4.7559   -9.4487 N   0  0  0  0  0  0  0  0  0  0  0  0
  -28.3574    3.0740  -12.6863 O   0  0  0  0  0  0  0  0  0  0  0  0
  -28.1197    4.1685  -11.7934 C   0  0  2  0  0  0  0  0  0  0  0  0
  -34.2024    3.5921   -9.5630 N   0  0  0  0  0  0  0  0  0  0  0  0
  -25.8161    3.5870  -11.8436 O   0  0  0  0  0  0  0  0  0  0  0  0
  -26.7540    4.6764  -11.8386 C   0  0  2  0  0  0  0  0  0  0  0  0
  -31.7417    3.5049   -9.8656 C   0  0  0  0  0  0  0  0  0  0  0  0
  -30.3947    1.6413  -10.8015 N   0  0  0  0  0  0  0  0  0  0  0  0
  -26.9715    7.2612   -9.3075 O   0  0  0  0  0  0  0  0  0  0  0  0
  -27.0928    6.7697  -10.6027 C   0  0  0  0  0  0  0  0  0  0  0  0
  -24.7561    6.3794   -8.6998 O   0  0  0  0  0  0  0  0  0  0  0  0
  -30.1711    4.9770   -9.5812 C   0  0  0  0  0  0  0  0  0  0  0  0
  -33.1649    1.6536  -10.1559 O   0  0  0  0  0  0  0  0  0  0  0  0
  -33.0624    2.8490   -9.8809 C   0  0  0  0  0  0  0  0  0  0  0  0
  -30.5660    2.9406  -10.2714 C   0  0  0  0  0  0  0  0  0  0  0  0
  -24.9890    8.7230   -9.7489 O   0  5  0  0  0  0  0  0  0  0  0  0
  -25.6894    8.5273   -7.5690 O   0  0  0  0  0  0  0  0  0  0  0  0
  1 17  1  0  0  0  0
  1 20  1  0  0  0  0
  2 15  1  6  0  0  0
  2  3  1  0  0  0  0
  2 11  1  0  0  0  0
  3  5  1  0  0  0  0
  4 16  1  1  0  0  0
  4 21  1  0  0  0  0
  4 22  2  0  0  0  0
  4 14  1  0  0  0  0
  5  1  1  1  0  0  0
  5  8  1  0  0  0  0
  6 17  2  0  0  0  0
  6 12  1  0  0  0  0
  8  7  1  6  0  0  0
  8 11  1  0  0  0  0
  9 19  1  0  0  0  0
 11 10  1  1  0  0  0
 12 20  2  0  0  0  0
 12 19  1  0  0  0  0
 13 20  1  0  0  0  0
 14 15  1  0  0  0  0
 18 19  2  0  0  0  0
M  CHG  1  21  -1
M  END
>  <CHROM.1>
23.49464893,61.75725507,-68.66134418,79.61011496,6.54530794,-28.39264235
4.96695273,-10.05615422,-2.59376624,0.31513636,0.68428125

>  <Name>
ligand

>  <RI>
0

>  <Rbt.Current_Directory>
/home/itssahil/PROJECTS/Mol_Feturizer/New_Systems/rnas/4XWF

>  <Rbt.Executable>
rbdock ($Id: //depot/dev/client3/rdock/2013.1/src/exe/rbdock.cxx#4 $)

>  <Rbt.Library>
libRbt.so (2013.1, Build901 2013/11/27)

>  <Rbt.Parameter_File>
/export/apps/rDock/src/rDock_2013.1_src/data/scripts/dock_solv.prm

>  <Rbt.Receptor>
prm/pocket_docking_2.prm

>  <SCORE>
-1.24269

>  <SCORE.INTER>
-1.88449

>  <SCORE.INTER.CONST>
1

>  <SCORE.INTER.POLAR>
0

>  <SCORE.INTER.ROT>
5

>  <SCORE.INTER.SOLV>
11.0523

>  <SCORE.INTER.VDW>
-11.8738

>  <SCORE.INTER.norm>
-0.0856584

>  <SCORE.INTRA>
0.641796

>  <SCORE.INTRA.DIHEDRAL>
-0.0558282

>  <SCORE.INTRA.DIHEDRAL.0>
3.49807

>  <SCORE.INTRA.POLAR>
0

>  <SCORE.INTRA.POLAR.0>
0

>  <SCORE.INTRA.REPUL>
0

>  <SCORE.INTRA.REPUL.0>
0

>  <SCORE.INTRA.SOLV>
1.21192

>  <SCORE.INTRA.SOLV.lig_0>
-73.062

>  <SCORE.INTRA.VDW>
0.0637479

>  <SCORE.INTRA.VDW.0>
-1.83782

>  <SCORE.INTRA.norm>
0.0291725

>  <SCORE.RESTR>
0

>  <SCORE.RESTR.CAVITY>
0

>  <SCORE.RESTR.norm>
0

>  <SCORE.SYSTEM>
0

>  <SCORE.SYSTEM.CONST>
0

>  <SCORE.SYSTEM.DIHEDRAL>
0

>  <SCORE.SYSTEM.SOLV>
0

>  <SCORE.SYSTEM.norm>
0

>  <SCORE.heavy>
22

>  <SCORE.norm>
-0.0564859

>  <RMSD>
1.211

$$$$
ligand
 OpenBabel11021811513D
libRbt.so/2013.1/901 2013/11/27
 22 23  0  0  0  0  0  0  0  0999 V2000
  -29.5869    3.4159  -10.3630 N   0  0  0  0  0  0  0  0  0  0  0  0
  -26.4802    4.3930  -11.2829 C   0  0  1  0  0  0  0  0  0  0  0  0
  -27.3217    3.8313  -10.2359 O   0  0  0  0  0  0  0  0  0  0  0  0
  -26.2114    7.8670   -9.8070 P   0  0  1  0  0  0  0  0  0  0  0  0
  -28.3536    3.0535  -10.8640 C   0  0  2  0  0  0  0  0  0  0  0  0
  -31.1948    4.6183   -9.5383 N   0  0  0  0  0  0  0  0  0  0  0  0
  -28.8843    2.4494  -13.1111 O   0  0  0  0  0  0  0  0  0  0  0  0
  -28.3362    3.4802  -12.2812 C   0  0  2  0  0  0  0  0  0  0  0  0
  -33.2302    1.7407   -8.7439 N   0  0  0  0  0  0  0  0  0  0  0  0
  -26.1953    2.5248  -12.6697 O   0  0  0  0  0  0  0  0  0  0  0  0
  -26.9281    3.7547  -12.5400 C   0  0  2  0  0  0  0  0  0  0  0  0
  -31.6651    3.3799   -9.7527 C   0  0  0  0  0  0  0  0  0  0  0  0
  -30.7457    1.2612  -10.6633 N   0  0  0  0  0  0  0  0  0  0  0  0
  -26.2820    6.3218  -10.0636 O   0  0  0  0  0  0  0  0  0  0  0  0
  -26.7243    5.8628  -11.2995 C   0  0  0  0  0  0  0  0  0  0  0  0
  -25.1300    8.3533  -10.8387 O   0  0  0  0  0  0  0  0  0  0  0  0
  -29.9013    4.6361   -9.9127 C   0  0  0  0  0  0  0  0  0  0  0  0
  -34.0084    3.5542   -9.8803 O   0  0  0  0  0  0  0  0  0  0  0  0
  -33.0371    2.9190   -9.4700 C   0  0  0  0  0  0  0  0  0  0  0  0
  -30.6592    2.6178  -10.2748 C   0  0  0  0  0  0  0  0  0  0  0  0
  -27.5637    8.4699   -9.9959 O   0  5  0  0  0  0  0  0  0  0  0  0
  -25.9592    8.1490   -8.3824 O   0  0  0  0  0  0  0  0  0  0  0  0
  1 17  1  0  0  0  0
  1 20  1  0  0  0  0
  2 15  1  6  0  0  0
  2  3  1  0  0  0  0
  2 11  1  0  0  0  0
  3  5  1  0  0  0  0
  4 16  1  6  0  0  0
  4 21  1  0  0  0  0
  4 22  2  0  0  0  0
  4 14  1  0  0  0  0
  5  1  1  1  0  0  0
  5  8  1  0  0  0  0
  6 17  2  0  0  0  0
  6 12  1  0  0  0  0
  8  7  1  6  0  0  0
  8 11  1  0  0  0  0
  9 19  1  0  0  0  0
 11 10  1  1  0  0  0
 12 20  2  0  0  0  0
 12 19  1  0  0  0  0
 13 20  1  0  0  0  0
 14 15  1  0  0  0  0
 18 19  2  0  0  0  0
M  CHG  1  21  -1
M  END
>  <CHROM.1>
30.13460898,63.91569567,-63.99870529,171.86127564,-130.21470007,-28.59988240
4.65706030,-10.51357803,-2.58639669,0.40662843,0.53662022

>  <Name>
ligand

>  <RI>
0

>  <Rbt.Current_Directory>
/home/itssahil/PROJECTS/Mol_Feturizer/New_Systems/rnas/4XWF

>  <Rbt.Executable>
rbdock ($Id: //depot/dev/client3/rdock/2013.1/src/exe/rbdock.cxx#4 $)

>  <Rbt.Library>
libRbt.so (2013.1, Build901 2013/11/27)

>  <Rbt.Parameter_File>
/export/apps/rDock/src/rDock_2013.1_src/data/scripts/dock_solv.prm

>  <Rbt.Receptor>
prm/pocket_docking_2.prm

>  <SCORE>
-1.65627

>  <SCORE.INTER>
-0.565515

>  <SCORE.INTER.CONST>
1

>  <SCORE.INTER.POLAR>
0

>  <SCORE.INTER.ROT>
5

>  <SCORE.INTER.SOLV>
10.2414

>  <SCORE.INTER.VDW>
-10.7241

>  <SCORE.INTER.norm>
-0.0257052

>  <SCORE.INTRA>
-1.09076

>  <SCORE.INTRA.DIHEDRAL>
-1.48776

>  <SCORE.INTRA.DIHEDRAL.0>
3.49807

>  <SCORE.INTRA.POLAR>
0

>  <SCORE.INTRA.POLAR.0>
0

>  <SCORE.INTRA.REPUL>
0

>  <SCORE.INTRA.REPUL.0>
0

>  <SCORE.INTRA.SOLV>
0.115422

>  <SCORE.INTRA.SOLV.lig_0>
-73.062

>  <SCORE.INTRA.VDW>
-0.404591

>  <SCORE.INTRA.VDW.0>
-1.83782

>  <SCORE.INTRA.norm>
-0.0495799

>  <SCORE.RESTR>
0

>  <SCORE.RESTR.CAVITY>
0

>  <SCORE.RESTR.norm>
0

>  <SCORE.SYSTEM>
0

>  <SCORE.SYSTEM.CONST>
0

>  <SCORE.SYSTEM.DIHEDRAL>
0

>  <SCORE.SYSTEM.SOLV>
0

>  <SCORE.SYSTEM.norm>
0

>  <SCORE.heavy>
22

>  <SCORE.norm>
-0.0752851

>  <RMSD>
1.231

$$$$
ligand
 OpenBabel11021811513D
libRbt.so/2013.1/901 2013/11/27
 22 23  0  0  0  0  0  0  0  0999 V2000
  -29.6033    3.4753  -10.3039 N   0  0  0  0  0  0  0  0  0  0  0  0
  -26.4958    4.4441  -11.2301 C   0  0  1  0  0  0  0  0  0  0  0  0
  -27.3368    3.8848  -10.1813 O   0  0  0  0  0  0  0  0  0  0  0  0
  -26.1723    7.9273   -9.7844 P   0  0  1  0  0  0  0  0  0  0  0  0
  -28.3719    3.1096  -10.8072 C   0  0  2  0  0  0  0  0  0  0  0  0
  -31.2069    4.6823   -9.4776 N   0  0  0  0  0  0  0  0  0  0  0  0
  -28.9085    2.5061  -13.0531 O   0  0  0  0  0  0  0  0  0  0  0  0
  -28.3561    3.5358  -12.2246 C   0  0  2  0  0  0  0  0  0  0  0  0
  -33.2470    1.8587   -8.6005 N   0  0  0  0  0  0  0  0  0  0  0  0
  -26.2184    2.5747  -12.6169 O   0  0  0  0  0  0  0  0  0  0  0  0
  -26.9478    3.8065  -12.4861 C   0  0  2  0  0  0  0  0  0  0  0  0
  -31.6802    3.4446   -9.6887 C   0  0  0  0  0  0  0  0  0  0  0  0
  -30.7671    1.3224  -10.5977 N   0  0  0  0  0  0  0  0  0  0  0  0
  -26.2389    6.3808  -10.0347 O   0  0  0  0  0  0  0  0  0  0  0  0
  -26.7362    5.9144  -11.2467 C   0  0  0  0  0  0  0  0  0  0  0  0
  -25.0878    8.4112  -10.8141 O   0  0  0  0  0  0  0  0  0  0  0  0
  -29.9143    4.6970   -9.8551 C   0  0  0  0  0  0  0  0  0  0  0  0
  -34.0221    3.5801   -9.8739 O   0  0  0  0  0  0  0  0  0  0  0  0
  -33.0524    2.9868   -9.4020 C   0  0  0  0  0  0  0  0  0  0  0  0
  -30.6770    2.6795  -10.2118 C   0  0  0  0  0  0  0  0  0  0  0  0
  -27.5250    8.5267   -9.9811 O   0  5  0  0  0  0  0  0  0  0  0  0
  -25.9261    8.2158   -8.3601 O   0  0  0  0  0  0  0  0  0  0  0  0
  1 17  1  0  0  0  0
  1 20  1  0  0  0  0
  2 15  1  6  0  0  0
  2  3  1  0  0  0  0
  2 11  1  0  0  0  0
  3  5  1  0  0  0  0
  4 16  1  6  0  0  0
  4 21  1  0  0  0  0
  4 22  2  0  0  0  0
  4 14  1  0  0  0  0
  5  1  1  1  0  0  0
  5  8  1  0  0  0  0
  6 17  2  0  0  0  0
  6 12  1  0  0  0  0
  8  7  1  6  0  0  0
  8 11  1  0  0  0  0
  9 19  1  0  0  0  0
 11 10  1  1  0  0  0
 12 20  2  0  0  0  0
 12 19  1  0  0  0  0
 13 20  1  0  0  0  0
 14 15  1  0  0  0  0
 18 19  2  0  0  0  0
M  CHG  1  21  -1
M  END
>  <CHROM.1>
30.22986259,66.34671963,-67.06544855,172.75111680,-126.09406622,-28.60074381
4.71635781,-10.46451937,-2.59366609,0.40851490,0.53778558

>  <Name>
ligand

>  <RI>
0

>  <Rbt.Current_Directory>
/home/itssahil/PROJECTS/Mol_Feturizer/New_Systems/rnas/4XWF

>  <Rbt.Executable>
rbdock ($Id: //depot/dev/client3/rdock/2013.1/src/exe/rbdock.cxx#4 $)

>  <Rbt.Library>
libRbt.so (2013.1, Build901 2013/11/27)

>  <Rbt.Parameter_File>
/export/apps/rDock/src/rDock_2013.1_src/data/scripts/dock_solv.prm

>  <Rbt.Receptor>
prm/pocket_docking_2.prm

>  <SCORE>
-1.67126

>  <SCORE.INTER>
-0.559934

>  <SCORE.INTER.CONST>
1

>  <SCORE.INTER.POLAR>
0

>  <SCORE.INTER.ROT>
5

>  <SCORE.INTER.SOLV>
9.96639

>  <SCORE.INTER.VDW>
-10.6288

>  <SCORE.INTER.norm>
-0.0254515

>  <SCORE.INTRA>
-1.11133

>  <SCORE.INTRA.DIHEDRAL>
-1.46657

>  <SCORE.INTRA.DIHEDRAL.0>
3.49807

>  <SCORE.INTRA.POLAR>
0

>  <SCORE.INTRA.POLAR.0>
0

>  <SCORE.INTRA.REPUL>
0

>  <SCORE.INTRA.REPUL.0>
0

>  <SCORE.INTRA.SOLV>
0.104499

>  <SCORE.INTRA.SOLV.lig_0>
-73.062

>  <SCORE.INTRA.VDW>
-0.430294

>  <SCORE.INTRA.VDW.0>
-1.83782

>  <SCORE.INTRA.norm>
-0.050515

>  <SCORE.RESTR>
0

>  <SCORE.RESTR.CAVITY>
0

>  <SCORE.RESTR.norm>
0

>  <SCORE.SYSTEM>
0

>  <SCORE.SYSTEM.CONST>
0

>  <SCORE.SYSTEM.DIHEDRAL>
0

>  <SCORE.SYSTEM.SOLV>
0

>  <SCORE.SYSTEM.norm>
0

>  <SCORE.heavy>
22

>  <SCORE.norm>
-0.0759666

>  <RMSD>
1.233

$$$$
ligand
 OpenBabel11021811513D
libRbt.so/2013.1/901 2013/11/27
 22 23  0  0  0  0  0  0  0  0999 V2000
  -29.7788    3.9057   -9.9325 N   0  0  0  0  0  0  0  0  0  0  0  0
  -26.6786    5.2566   -9.8042 C   0  0  1  0  0  0  0  0  0  0  0  0
  -27.6654    4.4049   -9.1554 O   0  0  0  0  0  0  0  0  0  0  0  0
  -24.6756    7.4894   -9.3260 P   0  0  1  0  0  0  0  0  0  0  0  0
  -28.4306    3.7503  -10.1802 C   0  0  2  0  0  0  0  0  0  0  0  0
  -31.6776    4.8159   -9.4060 N   0  0  0  0  0  0  0  0  0  0  0  0
  -28.3631    3.6949  -12.5653 O   0  0  0  0  0  0  0  0  0  0  0  0
  -28.1408    4.5164  -11.4131 C   0  0  2  0  0  0  0  0  0  0  0  0
  -34.3630    3.5992   -9.4131 N   0  0  0  0  0  0  0  0  0  0  0  0
  -25.8720    3.8115  -11.4642 O   0  0  0  0  0  0  0  0  0  0  0  0
  -26.7521    4.9265  -11.2443 C   0  0  2  0  0  0  0  0  0  0  0  0
  -31.9095    3.5470   -9.7758 C   0  0  0  0  0  0  0  0  0  0  0  0
  -30.5267    1.6471  -10.5767 N   0  0  0  0  0  0  0  0  0  0  0  0
  -26.0538    7.4437  -10.0725 O   0  0  0  0  0  0  0  0  0  0  0  0
  -27.0807    6.6678   -9.5460 C   0  0  0  0  0  0  0  0  0  0  0  0
  -24.0079    6.1224   -9.7213 O   0  0  0  0  0  0  0  0  0  0  0  0
  -30.3519    5.0343   -9.4985 C   0  0  0  0  0  0  0  0  0  0  0  0
  -33.3330    1.7161  -10.1737 O   0  0  0  0  0  0  0  0  0  0  0  0
  -33.2281    2.8877   -9.8114 C   0  0  0  0  0  0  0  0  0  0  0  0
  -30.7189    2.9682  -10.1118 C   0  0  0  0  0  0  0  0  0  0  0  0
  -23.9124    8.6987   -9.7537 O   0  5  0  0  0  0  0  0  0  0  0  0
  -24.8683    7.7552   -7.8891 O   0  0  0  0  0  0  0  0  0  0  0  0
  1 17  1  0  0  0  0
  1 20  1  0  0  0  0
  2 15  1  6  0  0  0
  2  3  1  0  0  0  0
  2 11  1  0  0  0  0
  3  5  1  0  0  0  0
  4 16  1  6  0  0  0
  4 21  1  0  0  0  0
  4 22  2  0  0  0  0
  4 14  1  0  0  0  0
  5  1  1  1  0  0  0
  5  8  1  0  0  0  0
  6 17  2  0  0  0  0
  6 12  1  0  0  0  0
  8  7  1  6  0  0  0
  8 11  1  0  0  0  0
  9 19  1  0  0  0  0
 11 10  1  1  0  0  0
 12 20  2  0  0  0  0
 12 19  1  0  0  0  0
 13 20  1  0  0  0  0
 14 15  1  0  0  0  0
 18 19  2  0  0  0  0
M  CHG  1  21  -1
M  END
>  <CHROM.1>
40.93830868,174.69195410,77.30508852,-72.40452867,-1.14499047,-28.21553169
4.96163895,-10.00250786,-2.70164537,0.28430091,0.64902186

>  <Name>
ligand

>  <RI>
0

>  <Rbt.Current_Directory>
/home/itssahil/PROJECTS/Mol_Feturizer/New_Systems/rnas/4XWF

>  <Rbt.Executable>
rbdock ($Id: //depot/dev/client3/rdock/2013.1/src/exe/rbdock.cxx#4 $)

>  <Rbt.Library>
libRbt.so (2013.1, Build901 2013/11/27)

>  <Rbt.Parameter_File>
/export/apps/rDock/src/rDock_2013.1_src/data/scripts/dock_solv.prm

>  <Rbt.Receptor>
prm/pocket_docking_2.prm

>  <SCORE>
-1.4247

>  <SCORE.INTER>
-1.65113

>  <SCORE.INTER.CONST>
1

>  <SCORE.INTER.POLAR>
0

>  <SCORE.INTER.ROT>
5

>  <SCORE.INTER.SOLV>
11.0922

>  <SCORE.INTER.VDW>
-11.7315

>  <SCORE.INTER.norm>
-0.0750514

>  <SCORE.INTRA>
0.226426

>  <SCORE.INTRA.DIHEDRAL>
-0.797178

>  <SCORE.INTRA.DIHEDRAL.0>
3.49807

>  <SCORE.INTRA.POLAR>
0

>  <SCORE.INTRA.POLAR.0>
0

>  <SCORE.INTRA.REPUL>
0

>  <SCORE.INTRA.REPUL.0>
0

>  <SCORE.INTRA.SOLV>
0.816664

>  <SCORE.INTRA.SOLV.lig_0>
-73.062

>  <SCORE.INTRA.VDW>
0.216684

>  <SCORE.INTRA.VDW.0>
-1.83782

>  <SCORE.INTRA.norm>
0.0102921

>  <SCORE.RESTR>
0

>  <SCORE.RESTR.CAVITY>
0

>  <SCORE.RESTR.norm>
0

>  <SCORE.SYSTEM>
0

>  <SCORE.SYSTEM.CONST>
0

>  <SCORE.SYSTEM.DIHEDRAL>
0

>  <SCORE.SYSTEM.SOLV>
0

>  <SCORE.SYSTEM.norm>
0

>  <SCORE.heavy>
22

>  <SCORE.norm>
-0.0647593

>  <RMSD>
1.236

$$$$
ligand
 OpenBabel11021811513D
libRbt.so/2013.1/901 2013/11/27
 22 23  0  0  0  0  0  0  0  0999 V2000
  -29.4172    3.5472  -10.3321 N   0  0  0  0  0  0  0  0  0  0  0  0
  -26.3089    4.5061  -11.2658 C   0  0  1  0  0  0  0  0  0  0  0  0
  -27.1536    3.9718  -10.2071 O   0  0  0  0  0  0  0  0  0  0  0  0
  -26.1398    8.0180   -9.8561 P   0  0  1  0  0  0  0  0  0  0  0  0
  -28.1809    3.1740  -10.8175 C   0  0  2  0  0  0  0  0  0  0  0  0
  -31.0331    4.7690   -9.5530 N   0  0  0  0  0  0  0  0  0  0  0  0
  -28.7002    2.5057  -13.0490 O   0  0  0  0  0  0  0  0  0  0  0  0
  -28.1583    3.5608  -12.2460 C   0  0  2  0  0  0  0  0  0  0  0  0
  -33.4699    2.1176  -10.2647 N   0  0  0  0  0  0  0  0  0  0  0  0
  -26.0133    2.6004  -12.5983 O   0  0  0  0  0  0  0  0  0  0  0  0
  -26.7497    3.8315  -12.5064 C   0  0  2  0  0  0  0  0  0  0  0  0
  -31.4969    3.5217   -9.7262 C   0  0  0  0  0  0  0  0  0  0  0  0
  -30.5647    1.3778  -10.5617 N   0  0  0  0  0  0  0  0  0  0  0  0
  -26.1147    6.4697  -10.1029 O   0  0  0  0  0  0  0  0  0  0  0  0
  -26.5565    5.9741  -11.3247 C   0  0  0  0  0  0  0  0  0  0  0  0
  -25.1402    8.5699  -10.9362 O   0  0  0  0  0  0  0  0  0  0  0  0
  -29.7388    4.7805   -9.9246 C   0  0  0  0  0  0  0  0  0  0  0  0
  -33.4863    3.5185   -8.4694 O   0  0  0  0  0  0  0  0  0  0  0  0
  -32.8673    3.0639   -9.4313 C   0  0  0  0  0  0  0  0  0  0  0  0
  -30.4859    2.7472  -10.2194 C   0  0  0  0  0  0  0  0  0  0  0  0
  -27.5374    8.5251   -9.9883 O   0  5  0  0  0  0  0  0  0  0  0  0
  -25.8462    8.3269   -8.4451 O   0  0  0  0  0  0  0  0  0  0  0  0
  1 17  1  0  0  0  0
  1 20  1  0  0  0  0
  2 15  1  6  0  0  0
  2  3  1  0  0  0  0
  2 11  1  0  0  0  0
  3  5  1  0  0  0  0
  4 16  1  6  0  0  0
  4 21  1  0  0  0  0
  4 22  2  0  0  0  0
  4 14  1  0  0  0  0
  5  1  1  1  0  0  0
  5  8  1  0  0  0  0
  6 17  2  0  0  0  0
  6 12  1  0  0  0  0
  8  7  1  6  0  0  0
  8 11  1  0  0  0  0
  9 19  1  0  0  0  0
 11 10  1  1  0  0  0
 12 20  2  0  0  0  0
 12 19  1  0  0  0  0
 13 20  1  0  0  0  0
 14 15  1  0  0  0  0
 18 19  2  0  0  0  0
M  CHG  1  21  -1
M  END
>  <CHROM.1>
30.52146611,64.20189629,-62.93736714,175.98374417,143.49243079,-28.45636179
4.78549927,-10.50260841,-2.58252612,0.41523335,0.53165173

>  <Name>
ligand

>  <RI>
0

>  <Rbt.Current_Directory>
/home/itssahil/PROJECTS/Mol_Feturizer/New_Systems/rnas/4XWF

>  <Rbt.Executable>
rbdock ($Id: //depot/dev/client3/rdock/2013.1/src/exe/rbdock.cxx#4 $)

>  <Rbt.Library>
libRbt.so (2013.1, Build901 2013/11/27)

>  <Rbt.Parameter_File>
/export/apps/rDock/src/rDock_2013.1_src/data/scripts/dock_solv.prm

>  <Rbt.Receptor>
prm/pocket_docking_2.prm

>  <SCORE>
-1.04374

>  <SCORE.INTER>
-0.123544

>  <SCORE.INTER.CONST>
1

>  <SCORE.INTER.POLAR>
0

>  <SCORE.INTER.ROT>
5

>  <SCORE.INTER.SOLV>
9.15891

>  <SCORE.INTER.VDW>
-10.0687

>  <SCORE.INTER.norm>
-0.00561566

>  <SCORE.INTRA>
-0.920198

>  <SCORE.INTRA.DIHEDRAL>
-1.27407

>  <SCORE.INTRA.DIHEDRAL.0>
3.49807

>  <SCORE.INTRA.POLAR>
0

>  <SCORE.INTRA.POLAR.0>
0

>  <SCORE.INTRA.REPUL>
0

>  <SCORE.INTRA.REPUL.0>
0

>  <SCORE.INTRA.SOLV>
0.191194

>  <SCORE.INTRA.SOLV.lig_0>
-73.062

>  <SCORE.INTRA.VDW>
-0.378762

>  <SCORE.INTRA.VDW.0>
-1.83782

>  <SCORE.INTRA.norm>
-0.0418272

>  <SCORE.RESTR>
0

>  <SCORE.RESTR.CAVITY>
0

>  <SCORE.RESTR.norm>
0

>  <SCORE.SYSTEM>
0

>  <SCORE.SYSTEM.CONST>
0

>  <SCORE.SYSTEM.DIHEDRAL>
0

>  <SCORE.SYSTEM.SOLV>
0

>  <SCORE.SYSTEM.norm>
0

>  <SCORE.heavy>
22

>  <SCORE.norm>
-0.0474428

>  <RMSD>
1.239

$$$$
ligand
 OpenBabel11021811513D
libRbt.so/2013.1/901 2013/11/27
 22 23  0  0  0  0  0  0  0  0999 V2000
  -29.6611    3.6308  -10.1748 N   0  0  0  0  0  0  0  0  0  0  0  0
  -26.4891    4.8098  -10.2053 C   0  0  1  0  0  0  0  0  0  0  0  0
  -27.4799    3.9934   -9.5185 O   0  0  0  0  0  0  0  0  0  0  0  0
  -25.7498    8.5256  -10.2779 P   0  0  1  0  0  0  0  0  0  0  0  0
  -28.3412    3.4110  -10.5102 C   0  0  2  0  0  0  0  0  0  0  0  0
  -31.4714    4.6256   -9.5080 N   0  0  0  0  0  0  0  0  0  0  0  0
  -28.4224    3.4221  -12.8954 O   0  0  0  0  0  0  0  0  0  0  0  0
  -28.0853    4.1964  -11.7384 C   0  0  2  0  0  0  0  0  0  0  0  0
  -34.2365    3.5969   -9.5126 N   0  0  0  0  0  0  0  0  0  0  0  0
  -25.8661    3.3731  -11.9495 O   0  0  0  0  0  0  0  0  0  0  0  0
  -26.6684    4.5266  -11.6462 C   0  0  2  0  0  0  0  0  0  0  0  0
  -31.7947    3.3817   -9.8939 C   0  0  0  0  0  0  0  0  0  0  0  0
  -30.5697    1.4342  -10.8266 N   0  0  0  0  0  0  0  0  0  0  0  0
  -25.7534    6.9660  -10.4406 O   0  0  0  0  0  0  0  0  0  0  0  0
  -26.7963    6.2323   -9.8859 C   0  0  0  0  0  0  0  0  0  0  0  0
  -27.0753    8.9649  -10.9994 O   0  0  0  0  0  0  0  0  0  0  0  0
  -30.1439    4.7756   -9.6779 C   0  0  0  0  0  0  0  0  0  0  0  0
  -33.3199    1.6053  -10.1284 O   0  0  0  0  0  0  0  0  0  0  0  0
  -33.1471    2.7948   -9.8632 C   0  0  0  0  0  0  0  0  0  0  0  0
  -30.6604    2.7501  -10.3180 C   0  0  0  0  0  0  0  0  0  0  0  0
  -25.6860    8.8793   -8.8292 O   0  5  0  0  0  0  0  0  0  0  0  0
  -24.4877    9.1000  -10.7775 O   0  0  0  0  0  0  0  0  0  0  0  0
  1 17  1  0  0  0  0
  1 20  1  0  0  0  0
  2 15  1  6  0  0  0
  2  3  1  0  0  0  0
  2 11  1  0  0  0  0
  3  5  1  0  0  0  0
  4 16  1  6  0  0  0
  4 21  1  0  0  0  0
  4 22  2  0  0  0  0
  4 14  1  0  0  0  0
  5  1  1  1  0  0  0
  5  8  1  0  0  0  0
  6 17  2  0  0  0  0
  6 12  1  0  0  0  0
  8  7  1  6  0  0  0
  8 11  1  0  0  0  0
  9 19  1  0  0  0  0
 11 10  1  1  0  0  0
 12 20  2  0  0  0  0
 12 19  1  0  0  0  0
 13 20  1  0  0  0  0
 14 15  1  0  0  0  0
 18 19  2  0  0  0  0
M  CHG  1  21  -1
M  END
>  <CHROM.1>
41.01295734,173.96350038,-61.00631989,-179.41483718,5.63097668,-28.44892106
5.05437635,-10.44461537,-2.51601008,0.31193365,0.36155170

>  <Name>
ligand

>  <RI>
0

>  <Rbt.Current_Directory>
/home/itssahil/PROJECTS/Mol_Feturizer/New_Systems/rnas/4XWF

>  <Rbt.Executable>
rbdock ($Id: //depot/dev/client3/rdock/2013.1/src/exe/rbdock.cxx#4 $)

>  <Rbt.Library>
libRbt.so (2013.1, Build901 2013/11/27)

>  <Rbt.Parameter_File>
/export/apps/rDock/src/rDock_2013.1_src/data/scripts/dock_solv.prm

>  <Rbt.Receptor>
prm/pocket_docking_2.prm

>  <SCORE>
-2.48053

>  <SCORE.INTER>
-1.36211

>  <SCORE.INTER.CONST>
1

>  <SCORE.INTER.POLAR>
0

>  <SCORE.INTER.ROT>
5

>  <SCORE.INTER.SOLV>
11.7719

>  <SCORE.INTER.VDW>
-11.7654

>  <SCORE.INTER.norm>
-0.0619143

>  <SCORE.INTRA>
-1.11846

>  <SCORE.INTRA.DIHEDRAL>
-1.84337

>  <SCORE.INTRA.DIHEDRAL.0>
3.49807

>  <SCORE.INTRA.POLAR>
0

>  <SCORE.INTRA.POLAR.0>
0

>  <SCORE.INTRA.REPUL>
0

>  <SCORE.INTRA.REPUL.0>
0

>  <SCORE.INTRA.SOLV>
-0.320835

>  <SCORE.INTRA.SOLV.lig_0>
-73.062

>  <SCORE.INTRA.VDW>
-0.0363537

>  <SCORE.INTRA.VDW.0>
-1.83782

>  <SCORE.INTRA.norm>
-0.050839

>  <SCORE.RESTR>
3.76599e-05

>  <SCORE.RESTR.CAVITY>
3.76599e-05

>  <SCORE.RESTR.norm>
1.71181e-06

>  <SCORE.SYSTEM>
0

>  <SCORE.SYSTEM.CONST>
0

>  <SCORE.SYSTEM.DIHEDRAL>
0

>  <SCORE.SYSTEM.SOLV>
0

>  <SCORE.SYSTEM.norm>
0

>  <SCORE.heavy>
22

>  <SCORE.norm>
-0.112752

>  <RMSD>
1.250

$$$$
ligand
 OpenBabel11021811513D
libRbt.so/2013.1/901 2013/11/27
 22 23  0  0  0  0  0  0  0  0999 V2000
  -29.6831    3.6965  -10.0989 N   0  0  0  0  0  0  0  0  0  0  0  0
  -26.4933    4.7968   -9.8402 C   0  0  1  0  0  0  0  0  0  0  0  0
  -27.5223    3.9075   -9.3204 O   0  0  0  0  0  0  0  0  0  0  0  0
  -25.7075    8.4711   -9.3492 P   0  0  1  0  0  0  0  0  0  0  0  0
  -28.3553    3.5013  -10.4183 C   0  0  2  0  0  0  0  0  0  0  0  0
  -31.5153    4.6506   -9.4327 N   0  0  0  0  0  0  0  0  0  0  0  0
  -28.3472    3.8760  -12.7753 O   0  0  0  0  0  0  0  0  0  0  0  0
  -28.0410    4.4582  -11.5029 C   0  0  2  0  0  0  0  0  0  0  0  0
  -34.2692    3.5952   -9.5239 N   0  0  0  0  0  0  0  0  0  0  0  0
  -25.8292    3.6282  -11.7605 O   0  0  0  0  0  0  0  0  0  0  0  0
  -26.6233    4.7395  -11.3126 C   0  0  2  0  0  0  0  0  0  0  0  0
  -31.8181    3.4161   -9.8625 C   0  0  0  0  0  0  0  0  0  0  0  0
  -30.5560    1.5117  -10.8341 N   0  0  0  0  0  0  0  0  0  0  0  0
  -25.7302    6.9544   -9.7465 O   0  0  0  0  0  0  0  0  0  0  0  0
  -26.7889    6.1608   -9.3184 C   0  0  0  0  0  0  0  0  0  0  0  0
  -27.0133    9.0366  -10.0166 O   0  0  0  0  0  0  0  0  0  0  0  0
  -30.1869    4.8200   -9.5750 C   0  0  0  0  0  0  0  0  0  0  0  0
  -33.3186    1.6299  -10.1719 O   0  0  0  0  0  0  0  0  0  0  0  0
  -33.1643    2.8140   -9.8733 C   0  0  0  0  0  0  0  0  0  0  0  0
  -30.6699    2.8101  -10.2865 C   0  0  0  0  0  0  0  0  0  0  0  0
  -25.6649    8.6004   -7.8628 O   0  5  0  0  0  0  0  0  0  0  0  0
  -24.4285    9.0933   -9.7361 O   0  0  0  0  0  0  0  0  0  0  0  0
  1 17  1  0  0  0  0
  1 20  1  0  0  0  0
  2 15  1  1  0  0  0
  2  3  1  0  0  0  0
  2 11  1  0  0  0  0
  3  5  1  0  0  0  0
  4 16  1  6  0  0  0
  4 21  1  0  0  0  0
  4 22  2  0  0  0  0
  4 14  1  0  0  0  0
  5  1  1  1  0  0  0
  5  8  1  0  0  0  0
  6 17  2  0  0  0  0
  6 12  1  0  0  0  0
  8  7  1  6  0  0  0
  8 11  1  0  0  0  0
  9 19  1  0  0  0  0
 11 10  1  1  0  0  0
 12 20  2  0  0  0  0
 12 19  1  0  0  0  0
 13 20  1  0  0  0  0
 14 15  1  0  0  0  0
 18 19  2  0  0  0  0
M  CHG  1  21  -1
M  END
>  <CHROM.1>
48.27101494,175.37584956,-61.42772104,-179.08686577,5.98484109,-28.43731298
5.10142105,-10.07949177,-2.51624338,0.28625426,0.49587433

>  <Name>
ligand

>  <RI>
0

>  <Rbt.Current_Directory>
/home/itssahil/PROJECTS/Mol_Feturizer/New_Systems/rnas/4XWF

>  <Rbt.Executable>
rbdock ($Id: //depot/dev/client3/rdock/2013.1/src/exe/rbdock.cxx#4 $)

>  <Rbt.Library>
libRbt.so (2013.1, Build901 2013/11/27)

>  <Rbt.Parameter_File>
/export/apps/rDock/src/rDock_2013.1_src/data/scripts/dock_solv.prm

>  <Rbt.Receptor>
prm/pocket_docking_2.prm

>  <SCORE>
-2.34497

>  <SCORE.INTER>
-1.20927

>  <SCORE.INTER.CONST>
1

>  <SCORE.INTER.POLAR>
0

>  <SCORE.INTER.ROT>
5

>  <SCORE.INTER.SOLV>
11.7844

>  <SCORE.INTER.VDW>
-11.6676

>  <SCORE.INTER.norm>
-0.0549668

>  <SCORE.INTRA>
-1.13613

>  <SCORE.INTRA.DIHEDRAL>
-1.8724

>  <SCORE.INTRA.DIHEDRAL.0>
3.49807

>  <SCORE.INTRA.POLAR>
0

>  <SCORE.INTRA.POLAR.0>
0

>  <SCORE.INTRA.REPUL>
0

>  <SCORE.INTRA.REPUL.0>
0

>  <SCORE.INTRA.SOLV>
-0.530247

>  <SCORE.INTRA.SOLV.lig_0>
-73.062

>  <SCORE.INTRA.VDW>
0.0651924

>  <SCORE.INTRA.VDW.0>
-1.83782

>  <SCORE.INTRA.norm>
-0.0516424

>  <SCORE.RESTR>
0.000430189

>  <SCORE.RESTR.CAVITY>
0.000430189

>  <SCORE.RESTR.norm>
1.9554e-05

>  <SCORE.SYSTEM>
0

>  <SCORE.SYSTEM.CONST>
0

>  <SCORE.SYSTEM.DIHEDRAL>
0

>  <SCORE.SYSTEM.SOLV>
0

>  <SCORE.SYSTEM.norm>
0

>  <SCORE.heavy>
22

>  <SCORE.norm>
-0.10659

>  <RMSD>
1.264

$$$$
ligand
 OpenBabel11021811513D
libRbt.so/2013.1/901 2013/11/27
 22 23  0  0  0  0  0  0  0  0999 V2000
  -29.6513    3.7356  -10.0851 N   0  0  0  0  0  0  0  0  0  0  0  0
  -26.4829    4.9083   -9.8889 C   0  0  1  0  0  0  0  0  0  0  0  0
  -27.4944    4.0277   -9.3221 O   0  0  0  0  0  0  0  0  0  0  0  0
  -25.7162    8.5982   -9.4980 P   0  0  1  0  0  0  0  0  0  0  0  0
  -28.3202    3.5494  -10.3962 C   0  0  2  0  0  0  0  0  0  0  0  0
  -31.4947    4.6784   -9.4339 N   0  0  0  0  0  0  0  0  0  0  0  0
  -28.3208    3.8018  -12.7694 O   0  0  0  0  0  0  0  0  0  0  0  0
  -28.0249    4.4548  -11.5293 C   0  0  2  0  0  0  0  0  0  0  0  0
  -34.2360    3.5921   -9.5055 N   0  0  0  0  0  0  0  0  0  0  0  0
  -25.7979    3.6547  -11.7474 O   0  0  0  0  0  0  0  0  0  0  0  0
  -26.6127    4.7725  -11.3562 C   0  0  2  0  0  0  0  0  0  0  0  0
  -31.7853    3.4393   -9.8591 C   0  0  0  0  0  0  0  0  0  0  0  0
  -30.5026    1.5403  -10.8141 N   0  0  0  0  0  0  0  0  0  0  0  0
  -25.7324    7.0721   -9.8575 O   0  0  0  0  0  0  0  0  0  0  0  0
  -26.8040    6.2916   -9.4378 C   0  0  0  0  0  0  0  0  0  0  0  0
  -25.6500    8.5964   -7.9276 O   0  0  0  0  0  0  0  0  0  0  0  0
  -30.1669    4.8577   -9.5698 C   0  0  0  0  0  0  0  0  0  0  0  0
  -33.2727    1.6468  -10.1935 O   0  0  0  0  0  0  0  0  0  0  0  0
  -33.1265    2.8265   -9.8743 C   0  0  0  0  0  0  0  0  0  0  0  0
  -30.6299    2.8404  -10.2737 C   0  0  0  0  0  0  0  0  0  0  0  0
  -24.5570    9.2595  -10.1665 O   0  5  0  0  0  0  0  0  0  0  0  0
  -26.8544    9.2946  -10.1242 O   0  0  0  0  0  0  0  0  0  0  0  0
  1 17  1  0  0  0  0
  1 20  1  0  0  0  0
  2 15  1  6  0  0  0
  2  3  1  0  0  0  0
  2 11  1  0  0  0  0
  3  5  1  0  0  0  0
  4 16  1  1  0  0  0
  4 21  1  0  0  0  0
  4 22  2  0  0  0  0
  4 14  1  0  0  0  0
  5  1  1  1  0  0  0
  5  8  1  0  0  0  0
  6 17  2  0  0  0  0
  6 12  1  0  0  0  0
  8  7  1  6  0  0  0
  8 11  1  0  0  0  0
  9 19  1  0  0  0  0
 11 10  1  1  0  0  0
 12 20  2  0  0  0  0
 12 19  1  0  0  0  0
 13 20  1  0  0  0  0
 14 15  1  0  0  0  0
 18 19  2  0  0  0  0
M  CHG  1  21  -1
M  END
>  <CHROM.1>
45.49520118,172.85649453,63.44827793,-177.77704676,4.53106047,-28.41674321
5.16462954,-10.13439281,-2.50488173,0.29722304,0.46476434

>  <Name>
ligand

>  <RI>
0

>  <Rbt.Current_Directory>
/home/itssahil/PROJECTS/Mol_Feturizer/New_Systems/rnas/4XWF

>  <Rbt.Executable>
rbdock ($Id: //depot/dev/client3/rdock/2013.1/src/exe/rbdock.cxx#4 $)

>  <Rbt.Library>
libRbt.so (2013.1, Build901 2013/11/27)

>  <Rbt.Parameter_File>
/export/apps/rDock/src/rDock_2013.1_src/data/scripts/dock_solv.prm

>  <Rbt.Receptor>
prm/pocket_docking_2.prm

>  <SCORE>
-2.39729

>  <SCORE.INTER>
-1.23993

>  <SCORE.INTER.CONST>
1

>  <SCORE.INTER.POLAR>
0

>  <SCORE.INTER.ROT>
5

>  <SCORE.INTER.SOLV>
11.4448

>  <SCORE.INTER.VDW>
-11.5749

>  <SCORE.INTER.norm>
-0.0563605

>  <SCORE.INTRA>
-1.15736

>  <SCORE.INTRA.DIHEDRAL>
-1.77978

>  <SCORE.INTRA.DIHEDRAL.0>
3.49807

>  <SCORE.INTRA.POLAR>
0

>  <SCORE.INTRA.POLAR.0>
0

>  <SCORE.INTRA.REPUL>
0

>  <SCORE.INTRA.REPUL.0>
0

>  <SCORE.INTRA.SOLV>
-0.490492

>  <SCORE.INTRA.SOLV.lig_0>
-73.062

>  <SCORE.INTRA.VDW>
-0.0222237

>  <SCORE.INTRA.VDW.0>
-1.83782

>  <SCORE.INTRA.norm>
-0.0526073

>  <SCORE.RESTR>
0

>  <SCORE.RESTR.CAVITY>
0

>  <SCORE.RESTR.norm>
0

>  <SCORE.SYSTEM>
0

>  <SCORE.SYSTEM.CONST>
0

>  <SCORE.SYSTEM.DIHEDRAL>
0

>  <SCORE.SYSTEM.SOLV>
0

>  <SCORE.SYSTEM.norm>
0

>  <SCORE.heavy>
22

>  <SCORE.norm>
-0.108968

>  <RMSD>
1.273

$$$$
ligand
 OpenBabel11021811513D
libRbt.so/2013.1/901 2013/11/27
 22 23  0  0  0  0  0  0  0  0999 V2000
  -29.6654    3.7362  -10.1082 N   0  0  0  0  0  0  0  0  0  0  0  0
  -26.4759    4.8320   -9.8276 C   0  0  1  0  0  0  0  0  0  0  0  0
  -27.5035    3.9297   -9.3280 O   0  0  0  0  0  0  0  0  0  0  0  0
  -25.6722    8.4839   -9.2138 P   0  0  1  0  0  0  0  0  0  0  0  0
  -28.3379    3.5497  -10.4342 C   0  0  2  0  0  0  0  0  0  0  0  0
  -31.4999    4.6773   -9.4298 N   0  0  0  0  0  0  0  0  0  0  0  0
  -28.3337    3.9817  -12.7814 O   0  0  0  0  0  0  0  0  0  0  0  0
  -28.0258    4.5329  -11.4957 C   0  0  2  0  0  0  0  0  0  0  0  0
  -34.2455    3.6007   -9.4919 N   0  0  0  0  0  0  0  0  0  0  0  0
  -25.8140    3.7109  -11.7768 O   0  0  0  0  0  0  0  0  0  0  0  0
  -26.6081    4.8105  -11.3008 C   0  0  2  0  0  0  0  0  0  0  0  0
  -31.7978    3.4430   -9.8639 C   0  0  0  0  0  0  0  0  0  0  0  0
  -30.5295    1.5500  -10.8495 N   0  0  0  0  0  0  0  0  0  0  0  0
  -25.6900    6.9753   -9.6408 O   0  0  0  0  0  0  0  0  0  0  0  0
  -26.7715    6.1827   -9.2723 C   0  0  0  0  0  0  0  0  0  0  0  0
  -26.9517    9.0702   -9.9134 O   0  0  0  0  0  0  0  0  0  0  0  0
  -30.1731    4.8546   -9.5771 C   0  0  0  0  0  0  0  0  0  0  0  0
  -33.2922    1.6555  -10.1940 O   0  0  0  0  0  0  0  0  0  0  0  0
  -33.1407    2.8337   -9.8715 C   0  0  0  0  0  0  0  0  0  0  0  0
  -30.6482    2.8452  -10.2955 C   0  0  0  0  0  0  0  0  0  0  0  0
  -25.6787    8.5846   -7.7246 O   0  5  0  0  0  0  0  0  0  0  0  0
  -24.3775    9.1055   -9.5457 O   0  0  0  0  0  0  0  0  0  0  0  0
  1 17  1  0  0  0  0
  1 20  1  0  0  0  0
  2 15  1  1  0  0  0
  2  3  1  0  0  0  0
  2 11  1  0  0  0  0
  3  5  1  0  0  0  0
  4 16  1  6  0  0  0
  4 21  1  0  0  0  0
  4 22  2  0  0  0  0
  4 14  1  0  0  0  0
  5  1  1  1  0  0  0
  5  8  1  0  0  0  0
  6 17  2  0  0  0  0
  6 12  1  0  0  0  0
  8  7  1  6  0  0  0
  8 11  1  0  0  0  0
  9 19  1  0  0  0  0
 11 10  1  6  0  0  0
 12 20  2  0  0  0  0
 12 19  1  0  0  0  0
 13 20  1  0  0  0  0
 14 15  1  0  0  0  0
 18 19  2  0  0  0  0
M  CHG  1  21  -1
M  END
>  <CHROM.1>
49.45224687,173.25508434,-60.94857471,179.97696110,4.89772173,-28.41388543
5.13551290,-10.04050988,-2.51832647,0.29150264,0.52752869

>  <Name>
ligand

>  <RI>
0

>  <Rbt.Current_Directory>
/home/itssahil/PROJECTS/Mol_Feturizer/New_Systems/rnas/4XWF

>  <Rbt.Executable>
rbdock ($Id: //depot/dev/client3/rdock/2013.1/src/exe/rbdock.cxx#4 $)

>  <Rbt.Library>
libRbt.so (2013.1, Build901 2013/11/27)

>  <Rbt.Parameter_File>
/export/apps/rDock/src/rDock_2013.1_src/data/scripts/dock_solv.prm

>  <Rbt.Receptor>
prm/pocket_docking_2.prm

>  <SCORE>
-2.34149

>  <SCORE.INTER>
-1.20774

>  <SCORE.INTER.CONST>
1

>  <SCORE.INTER.POLAR>
0

>  <SCORE.INTER.ROT>
5

>  <SCORE.INTER.SOLV>
11.6934

>  <SCORE.INTER.VDW>
-11.6363

>  <SCORE.INTER.norm>
-0.0548973

>  <SCORE.INTRA>
-1.13446

>  <SCORE.INTRA.DIHEDRAL>
-1.81167

>  <SCORE.INTRA.DIHEDRAL.0>
3.49807

>  <SCORE.INTRA.POLAR>
0

>  <SCORE.INTRA.POLAR.0>
0

>  <SCORE.INTRA.REPUL>
0

>  <SCORE.INTRA.REPUL.0>
0

>  <SCORE.INTRA.SOLV>
-0.575682

>  <SCORE.INTRA.SOLV.lig_0>
-73.062

>  <SCORE.INTRA.VDW>
0.0592161

>  <SCORE.INTRA.VDW.0>
-1.83782

>  <SCORE.INTRA.norm>
-0.0515664

>  <SCORE.RESTR>
0.000711171

>  <SCORE.RESTR.CAVITY>
0.000711171

>  <SCORE.RESTR.norm>
3.23259e-05

>  <SCORE.SYSTEM>
0

>  <SCORE.SYSTEM.CONST>
0

>  <SCORE.SYSTEM.DIHEDRAL>
0

>  <SCORE.SYSTEM.SOLV>
0

>  <SCORE.SYSTEM.norm>
0

>  <SCORE.heavy>
22

>  <SCORE.norm>
-0.106431

>  <RMSD>
1.273

$$$$
ligand
 OpenBabel11021811513D
libRbt.so/2013.1/901 2013/11/27
 22 23  0  0  0  0  0  0  0  0999 V2000
  -29.6631    3.6244  -10.1155 N   0  0  0  0  0  0  0  0  0  0  0  0
  -26.4972    4.8200  -10.1324 C   0  0  1  0  0  0  0  0  0  0  0  0
  -27.4963    4.0243   -9.4335 O   0  0  0  0  0  0  0  0  0  0  0  0
  -25.7537    8.5317  -10.2945 P   0  0  1  0  0  0  0  0  0  0  0  0
  -28.3360    3.3998  -10.4181 C   0  0  2  0  0  0  0  0  0  0  0  0
  -31.4859    4.6259   -9.4949 N   0  0  0  0  0  0  0  0  0  0  0  0
  -28.3729    3.3202  -12.8031 O   0  0  0  0  0  0  0  0  0  0  0  0
  -28.0614    4.1397  -11.6702 C   0  0  2  0  0  0  0  0  0  0  0  0
  -34.2480    3.5934   -9.5197 N   0  0  0  0  0  0  0  0  0  0  0  0
  -25.8345    3.3220  -11.8092 O   0  0  0  0  0  0  0  0  0  0  0  0
  -26.6482    4.4814  -11.5645 C   0  0  2  0  0  0  0  0  0  0  0  0
  -31.8037    3.3826   -9.8868 C   0  0  0  0  0  0  0  0  0  0  0  0
  -30.5625    1.4296  -10.7863 N   0  0  0  0  0  0  0  0  0  0  0  0
  -25.7679    6.9700  -10.4348 O   0  0  0  0  0  0  0  0  0  0  0  0
  -26.8176    6.2517   -9.8728 C   0  0  0  0  0  0  0  0  0  0  0  0
  -27.0809    8.9688  -11.0143 O   0  0  0  0  0  0  0  0  0  0  0  0
  -30.1542    4.7715   -9.6323 C   0  0  0  0  0  0  0  0  0  0  0  0
  -33.3330    1.6212  -10.1968 O   0  0  0  0  0  0  0  0  0  0  0  0
  -33.1584    2.8000   -9.8886 C   0  0  0  0  0  0  0  0  0  0  0  0
  -30.6614    2.7466  -10.2820 C   0  0  0  0  0  0  0  0  0  0  0  0
  -25.6790    8.9057   -8.8514 O   0  5  0  0  0  0  0  0  0  0  0  0
  -24.4912    9.0911  -10.8099 O   0  0  0  0  0  0  0  0  0  0  0  0
  1 17  1  0  0  0  0
  1 20  1  0  0  0  0
  2 15  1  6  0  0  0
  2  3  1  0  0  0  0
  2 11  1  0  0  0  0
  3  5  1  0  0  0  0
  4 16  1  6  0  0  0
  4 21  1  0  0  0  0
  4 22  2  0  0  0  0
  4 14  1  0  0  0  0
  5  1  1  1  0  0  0
  5  8  1  0  0  0  0
  6 17  2  0  0  0  0
  6 12  1  0  0  0  0
  8  7  1  6  0  0  0
  8 11  1  0  0  0  0
  9 19  1  0  0  0  0
 11 10  1  1  0  0  0
 12 20  2  0  0  0  0
 12 19  1  0  0  0  0
 13 20  1  0  0  0  0
 14 15  1  0  0  0  0
 18 19  2  0  0  0  0
M  CHG  1  21  -1
M  END
>  <CHROM.1>
38.83981059,173.91913628,-60.48154115,-177.63932995,3.35190716,-28.44888764
5.04712122,-10.41734232,-2.50725054,0.29342421,0.33404078

>  <Name>
ligand

>  <RI>
0

>  <Rbt.Current_Directory>
/home/itssahil/PROJECTS/Mol_Feturizer/New_Systems/rnas/4XWF

>  <Rbt.Executable>
rbdock ($Id: //depot/dev/client3/rdock/2013.1/src/exe/rbdock.cxx#4 $)

>  <Rbt.Library>
libRbt.so (2013.1, Build901 2013/11/27)

>  <Rbt.Parameter_File>
/export/apps/rDock/src/rDock_2013.1_src/data/scripts/dock_solv.prm

>  <Rbt.Receptor>
prm/pocket_docking_2.prm

>  <SCORE>
-2.50826

>  <SCORE.INTER>
-1.40264

>  <SCORE.INTER.CONST>
1

>  <SCORE.INTER.POLAR>
0

>  <SCORE.INTER.ROT>
5

>  <SCORE.INTER.SOLV>
11.598

>  <SCORE.INTER.VDW>
-11.7344

>  <SCORE.INTER.norm>
-0.0637565

>  <SCORE.INTRA>
-1.10562

>  <SCORE.INTRA.DIHEDRAL>
-1.84669

>  <SCORE.INTRA.DIHEDRAL.0>
3.49807

>  <SCORE.INTRA.POLAR>
0

>  <SCORE.INTRA.POLAR.0>
0

>  <SCORE.INTRA.REPUL>
0

>  <SCORE.INTRA.REPUL.0>
0

>  <SCORE.INTRA.SOLV>
-0.25071

>  <SCORE.INTRA.SOLV.lig_0>
-73.062

>  <SCORE.INTRA.VDW>
-0.0569155

>  <SCORE.INTRA.VDW.0>
-1.83782

>  <SCORE.INTRA.norm>
-0.0502554

>  <SCORE.RESTR>
0

>  <SCORE.RESTR.CAVITY>
0

>  <SCORE.RESTR.norm>
0

>  <SCORE.SYSTEM>
0

>  <SCORE.SYSTEM.CONST>
0

>  <SCORE.SYSTEM.DIHEDRAL>
0

>  <SCORE.SYSTEM.SOLV>
0

>  <SCORE.SYSTEM.norm>
0

>  <SCORE.heavy>
22

>  <SCORE.norm>
-0.114012

>  <RMSD>
1.278

$$$$
ligand
 OpenBabel11021811513D
libRbt.so/2013.1/901 2013/11/27
 22 23  0  0  0  0  0  0  0  0999 V2000
  -29.7032    3.6489  -10.1114 N   0  0  0  0  0  0  0  0  0  0  0  0
  -26.5269    4.8165  -10.1025 C   0  0  1  0  0  0  0  0  0  0  0  0
  -27.5305    4.0076   -9.4256 O   0  0  0  0  0  0  0  0  0  0  0  0
  -25.7723    8.5291  -10.1838 P   0  0  1  0  0  0  0  0  0  0  0  0
  -28.3793    3.4225  -10.4263 C   0  0  2  0  0  0  0  0  0  0  0  0
  -31.5184    4.6523   -9.4717 N   0  0  0  0  0  0  0  0  0  0  0  0
  -28.4258    3.4202  -12.8125 O   0  0  0  0  0  0  0  0  0  0  0  0
  -28.1028    4.1999  -11.6552 C   0  0  2  0  0  0  0  0  0  0  0  0
  -34.2681    3.5927   -9.3787 N   0  0  0  0  0  0  0  0  0  0  0  0
  -25.8838    3.3676  -11.8292 O   0  0  0  0  0  0  0  0  0  0  0  0
  -26.6862    4.5257  -11.5442 C   0  0  2  0  0  0  0  0  0  0  0  0
  -31.8422    3.4108   -9.8646 C   0  0  0  0  0  0  0  0  0  0  0  0
  -30.6131    1.4581  -10.7810 N   0  0  0  0  0  0  0  0  0  0  0  0
  -25.7789    6.9686  -10.3374 O   0  0  0  0  0  0  0  0  0  0  0  0
  -26.8336    6.2420   -9.7957 C   0  0  0  0  0  0  0  0  0  0  0  0
  -27.0853    8.9686  -10.9276 O   0  0  0  0  0  0  0  0  0  0  0  0
  -30.1877    4.7955   -9.6204 C   0  0  0  0  0  0  0  0  0  0  0  0
  -33.3902    1.6811  -10.2510 O   0  0  0  0  0  0  0  0  0  0  0  0
  -33.1981    2.8311   -9.8562 C   0  0  0  0  0  0  0  0  0  0  0  0
  -30.7048    2.7738  -10.2717 C   0  0  0  0  0  0  0  0  0  0  0  0
  -25.7288    8.8912   -8.7364 O   0  5  0  0  0  0  0  0  0  0  0  0
  -24.5009    9.0962  -10.6680 O   0  0  0  0  0  0  0  0  0  0  0  0
  1 17  1  0  0  0  0
  1 20  1  0  0  0  0
  2 15  1  6  0  0  0
  2  3  1  0  0  0  0
  2 11  1  0  0  0  0
  3  5  1  0  0  0  0
  4 16  1  6  0  0  0
  4 21  1  0  0  0  0
  4 22  2  0  0  0  0
  4 14  1  0  0  0  0
  5  1  1  1  0  0  0
  5  8  1  0  0  0  0
  6 17  2  0  0  0  0
  6 12  1  0  0  0  0
  8  7  1  6  0  0  0
  8 11  1  0  0  0  0
  9 19  1  0  0  0  0
 11 10  1  1  0  0  0
 12 20  2  0  0  0  0
 12 19  1  0  0  0  0
 13 20  1  0  0  0  0
 14 15  1  0  0  0  0
 18 19  2  0  0  0  0
M  CHG  1  21  -1
M  END
>  <CHROM.1>
40.57715315,173.86588214,-60.91067652,-179.45377753,-1.50521234,-28.48215777
5.06738480,-10.37343863,-2.51640054,0.30054183,0.36323100

>  <Name>
ligand

>  <RI>
0

>  <Rbt.Current_Directory>
/home/itssahil/PROJECTS/Mol_Feturizer/New_Systems/rnas/4XWF

>  <Rbt.Executable>
rbdock ($Id: //depot/dev/client3/rdock/2013.1/src/exe/rbdock.cxx#4 $)

>  <Rbt.Library>
libRbt.so (2013.1, Build901 2013/11/27)

>  <Rbt.Parameter_File>
/export/apps/rDock/src/rDock_2013.1_src/data/scripts/dock_solv.prm

>  <Rbt.Receptor>
prm/pocket_docking_2.prm

>  <SCORE>
-2.48599

>  <SCORE.INTER>
-1.35947

>  <SCORE.INTER.CONST>
1

>  <SCORE.INTER.POLAR>
0

>  <SCORE.INTER.ROT>
5

>  <SCORE.INTER.SOLV>
11.6827

>  <SCORE.INTER.VDW>
-11.7339

>  <SCORE.INTER.norm>
-0.0617939

>  <SCORE.INTRA>
-1.12653

>  <SCORE.INTRA.DIHEDRAL>
-1.8813

>  <SCORE.INTRA.DIHEDRAL.0>
3.49807

>  <SCORE.INTRA.POLAR>
0

>  <SCORE.INTRA.POLAR.0>
0

>  <SCORE.INTRA.REPUL>
0

>  <SCORE.INTRA.REPUL.0>
0

>  <SCORE.INTRA.SOLV>
-0.301881

>  <SCORE.INTRA.SOLV.lig_0>
-73.062

>  <SCORE.INTRA.VDW>
-0.0349377

>  <SCORE.INTRA.VDW.0>
-1.83782

>  <SCORE.INTRA.norm>
-0.0512058

>  <SCORE.RESTR>
0

>  <SCORE.RESTR.CAVITY>
0

>  <SCORE.RESTR.norm>
0

>  <SCORE.SYSTEM>
0

>  <SCORE.SYSTEM.CONST>
0

>  <SCORE.SYSTEM.DIHEDRAL>
0

>  <SCORE.SYSTEM.SOLV>
0

>  <SCORE.SYSTEM.norm>
0

>  <SCORE.heavy>
22

>  <SCORE.norm>
-0.113

>  <RMSD>
1.283

$$$$
ligand
 OpenBabel11021811513D
libRbt.so/2013.1/901 2013/11/27
 22 23  0  0  0  0  0  0  0  0999 V2000
  -29.6717    3.8030   -9.9829 N   0  0  0  0  0  0  0  0  0  0  0  0
  -26.4879    4.9436  -10.1054 C   0  0  1  0  0  0  0  0  0  0  0  0
  -27.4722    4.1511   -9.3822 O   0  0  0  0  0  0  0  0  0  0  0  0
  -25.6655    8.6411  -10.1913 P   0  0  1  0  0  0  0  0  0  0  0  0
  -28.3623    3.5617  -10.3439 C   0  0  2  0  0  0  0  0  0  0  0  0
  -31.4721    4.8471   -9.3670 N   0  0  0  0  0  0  0  0  0  0  0  0
  -28.4973    3.5322  -12.7265 O   0  0  0  0  0  0  0  0  0  0  0  0
  -28.1253    4.3225  -11.5912 C   0  0  2  0  0  0  0  0  0  0  0  0
  -33.2604    1.7446   -8.7577 N   0  0  0  0  0  0  0  0  0  0  0  0
  -25.9211    3.4694  -11.8374 O   0  0  0  0  0  0  0  0  0  0  0  0
  -26.7030    4.6374  -11.5366 C   0  0  2  0  0  0  0  0  0  0  0  0
  -31.7874    3.5612   -9.5850 C   0  0  0  0  0  0  0  0  0  0  0  0
  -30.5646    1.5310  -10.3245 N   0  0  0  0  0  0  0  0  0  0  0  0
  -25.7196    7.0846  -10.3734 O   0  0  0  0  0  0  0  0  0  0  0  0
  -26.7715    6.3750   -9.8044 C   0  0  0  0  0  0  0  0  0  0  0  0
  -24.3871    9.0538  -11.0072 O   0  0  0  0  0  0  0  0  0  0  0  0
  -30.1555    4.9933   -9.6091 C   0  0  0  0  0  0  0  0  0  0  0  0
  -34.1203    3.5227   -9.8911 O   0  0  0  0  0  0  0  0  0  0  0  0
  -33.1265    2.9641   -9.4269 C   0  0  0  0  0  0  0  0  0  0  0  0
  -30.6594    2.8979   -9.9762 C   0  0  0  0  0  0  0  0  0  0  0  0
  -26.9373    9.2487  -10.6825 O   0  5  0  0  0  0  0  0  0  0  0  0
  -25.6991    9.0014   -8.7624 O   0  0  0  0  0  0  0  0  0  0  0  0
  1 17  1  0  0  0  0
  1 20  1  0  0  0  0
  2 15  1  6  0  0  0
  2  3  1  0  0  0  0
  2 11  1  0  0  0  0
  3  5  1  0  0  0  0
  4 16  1  6  0  0  0
  4 21  1  0  0  0  0
  4 22  2  0  0  0  0
  4 14  1  0  0  0  0
  5  1  1  1  0  0  0
  5  8  1  0  0  0  0
  6 17  2  0  0  0  0
  6 12  1  0  0  0  0
  8  7  1  6  0  0  0
  8 11  1  0  0  0  0
  9 19  1  0  0  0  0
 11 10  1  1  0  0  0
 12 20  2  0  0  0  0
 12 19  1  0  0  0  0
 13 20  1  0  0  0  0
 14 15  1  0  0  0  0
 18 19  2  0  0  0  0
M  CHG  1  21  -1
M  END
>  <CHROM.1>
47.30017027,172.85972190,-178.05379408,-177.39475586,-134.32175890,-28.43400676
5.19421775,-10.25988840,-2.53692044,0.34124085,0.34198993

>  <Name>
ligand

>  <RI>
0

>  <Rbt.Current_Directory>
/home/itssahil/PROJECTS/Mol_Feturizer/New_Systems/rnas/4XWF

>  <Rbt.Executable>
rbdock ($Id: //depot/dev/client3/rdock/2013.1/src/exe/rbdock.cxx#4 $)

>  <Rbt.Library>
libRbt.so (2013.1, Build901 2013/11/27)

>  <Rbt.Parameter_File>
/export/apps/rDock/src/rDock_2013.1_src/data/scripts/dock_solv.prm

>  <Rbt.Receptor>
prm/pocket_docking_2.prm

>  <SCORE>
-1.52354

>  <SCORE.INTER>
-0.757409

>  <SCORE.INTER.CONST>
1

>  <SCORE.INTER.POLAR>
0

>  <SCORE.INTER.ROT>
5

>  <SCORE.INTER.SOLV>
8.60317

>  <SCORE.INTER.VDW>
-10.306

>  <SCORE.INTER.norm>
-0.0344277

>  <SCORE.INTRA>
-0.766132

>  <SCORE.INTRA.DIHEDRAL>
-1.59511

>  <SCORE.INTRA.DIHEDRAL.0>
3.49807

>  <SCORE.INTRA.POLAR>
0

>  <SCORE.INTRA.POLAR.0>
0

>  <SCORE.INTRA.REPUL>
0

>  <SCORE.INTRA.REPUL.0>
0

>  <SCORE.INTRA.SOLV>
0.289349

>  <SCORE.INTRA.SOLV.lig_0>
-73.062

>  <SCORE.INTRA.VDW>
-0.113251

>  <SCORE.INTRA.VDW.0>
-1.83782

>  <SCORE.INTRA.norm>
-0.0348242

>  <SCORE.RESTR>
0

>  <SCORE.RESTR.CAVITY>
0

>  <SCORE.RESTR.norm>
0

>  <SCORE.SYSTEM>
0

>  <SCORE.SYSTEM.CONST>
0

>  <SCORE.SYSTEM.DIHEDRAL>
0

>  <SCORE.SYSTEM.SOLV>
0

>  <SCORE.SYSTEM.norm>
0

>  <SCORE.heavy>
22

>  <SCORE.norm>
-0.0692518

>  <RMSD>
1.290

$$$$
ligand
 OpenBabel11021811513D
libRbt.so/2013.1/901 2013/11/27
 22 23  0  0  0  0  0  0  0  0999 V2000
  -29.6898    3.7270  -10.0658 N   0  0  0  0  0  0  0  0  0  0  0  0
  -26.5031    4.8239   -9.7579 C   0  0  1  0  0  0  0  0  0  0  0  0
  -27.5370    3.9264   -9.2623 O   0  0  0  0  0  0  0  0  0  0  0  0
  -25.6922    8.4742   -9.1448 P   0  0  1  0  0  0  0  0  0  0  0  0
  -28.3587    3.5371  -10.3747 C   0  0  2  0  0  0  0  0  0  0  0  0
  -31.5318    4.6755   -9.4191 N   0  0  0  0  0  0  0  0  0  0  0  0
  -28.3270    3.9482  -12.7255 O   0  0  0  0  0  0  0  0  0  0  0  0
  -28.0338    4.5107  -11.4412 C   0  0  2  0  0  0  0  0  0  0  0  0
  -34.2736    3.5908   -9.4766 N   0  0  0  0  0  0  0  0  0  0  0  0
  -25.8193    3.6852  -11.6893 O   0  0  0  0  0  0  0  0  0  0  0  0
  -26.6183    4.7893  -11.2323 C   0  0  2  0  0  0  0  0  0  0  0  0
  -31.8247    3.4361   -9.8417 C   0  0  0  0  0  0  0  0  0  0  0  0
  -30.5452    1.5319  -10.7906 N   0  0  0  0  0  0  0  0  0  0  0  0
  -25.7193    6.9689   -9.5830 O   0  0  0  0  0  0  0  0  0  0  0  0
  -26.8044    6.1795   -9.2181 C   0  0  0  0  0  0  0  0  0  0  0  0
  -26.9680    9.0734   -9.8403 O   0  0  0  0  0  0  0  0  0  0  0  0
  -30.2035    4.8515   -9.5537 C   0  0  0  0  0  0  0  0  0  0  0  0
  -33.3174    1.6500  -10.1868 O   0  0  0  0  0  0  0  0  0  0  0  0
  -33.1673    2.8263   -9.8571 C   0  0  0  0  0  0  0  0  0  0  0  0
  -30.6703    2.8336  -10.2534 C   0  0  0  0  0  0  0  0  0  0  0  0
  -25.6985    8.5639   -7.6549 O   0  5  0  0  0  0  0  0  0  0  0  0
  -24.3937    9.0902   -9.4719 O   0  0  0  0  0  0  0  0  0  0  0  0
  1 17  1  0  0  0  0
  1 20  1  0  0  0  0
  2 15  1  1  0  0  0
  2  3  1  0  0  0  0
  2 11  1  0  0  0  0
  3  5  1  0  0  0  0
  4 16  1  6  0  0  0
  4 21  1  0  0  0  0
  4 22  2  0  0  0  0
  4 14  1  0  0  0  0
  5  1  1  1  0  0  0
  5  8  1  0  0  0  0
  6 17  2  0  0  0  0
  6 12  1  0  0  0  0
  8  7  1  6  0  0  0
  8 11  1  0  0  0  0
  9 19  1  0  0  0  0
 11 10  1  1  0  0  0
 12 20  2  0  0  0  0
 12 19  1  0  0  0  0
 13 20  1  0  0  0  0
 14 15  1  0  0  0  0
 18 19  2  0  0  0  0
M  CHG  1  21  -1
M  END
>  <CHROM.1>
49.63183311,173.34933211,-61.08087626,-178.80167051,3.79116029,-28.43467164
5.12398876,-9.98874046,-2.51409154,0.28230688,0.52263346

>  <Name>
ligand

>  <RI>
0

>  <Rbt.Current_Directory>
/home/itssahil/PROJECTS/Mol_Feturizer/New_Systems/rnas/4XWF

>  <Rbt.Executable>
rbdock ($Id: //depot/dev/client3/rdock/2013.1/src/exe/rbdock.cxx#4 $)

>  <Rbt.Library>
libRbt.so (2013.1, Build901 2013/11/27)

>  <Rbt.Parameter_File>
/export/apps/rDock/src/rDock_2013.1_src/data/scripts/dock_solv.prm

>  <Rbt.Receptor>
prm/pocket_docking_2.prm

>  <SCORE>
-2.33923

>  <SCORE.INTER>
-1.20897

>  <SCORE.INTER.CONST>
1

>  <SCORE.INTER.POLAR>
0

>  <SCORE.INTER.ROT>
5

>  <SCORE.INTER.SOLV>
11.5637

>  <SCORE.INTER.VDW>
-11.5939

>  <SCORE.INTER.norm>
-0.0549532

>  <SCORE.INTRA>
-1.13026

>  <SCORE.INTRA.DIHEDRAL>
-1.81945

>  <SCORE.INTRA.DIHEDRAL.0>
3.49807

>  <SCORE.INTRA.POLAR>
0

>  <SCORE.INTRA.POLAR.0>
0

>  <SCORE.INTRA.REPUL>
0

>  <SCORE.INTRA.REPUL.0>
0

>  <SCORE.INTRA.SOLV>
-0.575488

>  <SCORE.INTRA.SOLV.lig_0>
-73.062

>  <SCORE.INTRA.VDW>
0.0672112

>  <SCORE.INTRA.VDW.0>
-1.83782

>  <SCORE.INTRA.norm>
-0.0513754

>  <SCORE.RESTR>
0

>  <SCORE.RESTR.CAVITY>
0

>  <SCORE.RESTR.norm>
0

>  <SCORE.SYSTEM>
0

>  <SCORE.SYSTEM.CONST>
0

>  <SCORE.SYSTEM.DIHEDRAL>
0

>  <SCORE.SYSTEM.SOLV>
0

>  <SCORE.SYSTEM.norm>
0

>  <SCORE.heavy>
22

>  <SCORE.norm>
-0.106329

>  <RMSD>
1.304

$$$$
ligand
 OpenBabel11021811513D
libRbt.so/2013.1/901 2013/11/27
 22 23  0  0  0  0  0  0  0  0999 V2000
  -29.6878    3.7510  -10.0619 N   0  0  0  0  0  0  0  0  0  0  0  0
  -26.5195    4.9151   -9.8187 C   0  0  1  0  0  0  0  0  0  0  0  0
  -27.5375    4.0275   -9.2749 O   0  0  0  0  0  0  0  0  0  0  0  0
  -25.7687    8.6050   -9.4038 P   0  0  1  0  0  0  0  0  0  0  0  0
  -28.3543    3.5675  -10.3638 C   0  0  2  0  0  0  0  0  0  0  0  0
  -31.5380    4.6909   -9.4260 N   0  0  0  0  0  0  0  0  0  0  0  0
  -28.3329    3.8568  -12.7327 O   0  0  0  0  0  0  0  0  0  0  0  0
  -28.0472    4.4898  -11.4799 C   0  0  2  0  0  0  0  0  0  0  0  0
  -34.2776    3.6013   -9.5273 N   0  0  0  0  0  0  0  0  0  0  0  0
  -25.8196    3.6895  -11.6901 O   0  0  0  0  0  0  0  0  0  0  0  0
  -26.6362    4.8024  -11.2891 C   0  0  2  0  0  0  0  0  0  0  0  0
  -31.8224    3.4495   -9.8486 C   0  0  0  0  0  0  0  0  0  0  0  0
  -30.5284    1.5507  -10.7884 N   0  0  0  0  0  0  0  0  0  0  0  0
  -25.7952    7.0879   -9.7992 O   0  0  0  0  0  0  0  0  0  0  0  0
  -26.8427    6.2917   -9.3490 C   0  0  0  0  0  0  0  0  0  0  0  0
  -25.6700    8.5656   -7.8356 O   0  0  0  0  0  0  0  0  0  0  0  0
  -30.2099    4.8735   -9.5540 C   0  0  0  0  0  0  0  0  0  0  0  0
  -33.3011    1.6478  -10.1721 O   0  0  0  0  0  0  0  0  0  0  0  0
  -33.1618    2.8329   -9.8701 C   0  0  0  0  0  0  0  0  0  0  0  0
  -30.6628    2.8524  -10.2535 C   0  0  0  0  0  0  0  0  0  0  0  0
  -24.6223    9.2805  -10.0803 O   0  5  0  0  0  0  0  0  0  0  0  0
  -26.9183    9.3177   -9.9895 O   0  0  0  0  0  0  0  0  0  0  0  0
  1 17  1  0  0  0  0
  1 20  1  0  0  0  0
  2 15  1  6  0  0  0
  2  3  1  0  0  0  0
  2 11  1  0  0  0  0
  3  5  1  0  0  0  0
  4 16  1  1  0  0  0
  4 21  1  0  0  0  0
  4 22  2  0  0  0  0
  4 14  1  0  0  0  0
  5  1  1  1  0  0  0
  5  8  1  0  0  0  0
  6 17  2  0  0  0  0
  6 12  1  0  0  0  0
  8  7  1  6  0  0  0
  8 11  1  0  0  0  0
  9 19  1  0  0  0  0
 11 10  1  1  0  0  0
 12 20  2  0  0  0  0
 12 19  1  0  0  0  0
 13 20  1  0  0  0  0
 14 15  1  0  0  0  0
 18 19  2  0  0  0  0
M  CHG  1  21  -1
M  END
>  <CHROM.1>
46.63395028,175.46200122,61.91062023,-176.38887783,5.31921044,-28.45505370
5.17829196,-10.08377614,-2.50027580,0.28959749,0.46773061

>  <Name>
ligand

>  <RI>
0

>  <Rbt.Current_Directory>
/home/itssahil/PROJECTS/Mol_Feturizer/New_Systems/rnas/4XWF

>  <Rbt.Executable>
rbdock ($Id: //depot/dev/client3/rdock/2013.1/src/exe/rbdock.cxx#4 $)

>  <Rbt.Library>
libRbt.so (2013.1, Build901 2013/11/27)

>  <Rbt.Parameter_File>
/export/apps/rDock/src/rDock_2013.1_src/data/scripts/dock_solv.prm

>  <Rbt.Receptor>
prm/pocket_docking_2.prm

>  <SCORE>
-2.44132

>  <SCORE.INTER>
-1.29412

>  <SCORE.INTER.CONST>
1

>  <SCORE.INTER.POLAR>
0

>  <SCORE.INTER.ROT>
5

>  <SCORE.INTER.SOLV>
11.5941

>  <SCORE.INTER.VDW>
-11.6608

>  <SCORE.INTER.norm>
-0.0588237

>  <SCORE.INTRA>
-1.14852

>  <SCORE.INTRA.DIHEDRAL>
-1.83773

>  <SCORE.INTRA.DIHEDRAL.0>
3.49807

>  <SCORE.INTRA.POLAR>
0

>  <SCORE.INTRA.POLAR.0>
0

>  <SCORE.INTRA.REPUL>
0

>  <SCORE.INTRA.REPUL.0>
0

>  <SCORE.INTRA.SOLV>
-0.538105

>  <SCORE.INTRA.SOLV.lig_0>
-73.062

>  <SCORE.INTRA.VDW>
0.0393985

>  <SCORE.INTRA.VDW.0>
-1.83782

>  <SCORE.INTRA.norm>
-0.0522055

>  <SCORE.RESTR>
0.00131802

>  <SCORE.RESTR.CAVITY>
0.00131802

>  <SCORE.RESTR.norm>
5.99099e-05

>  <SCORE.SYSTEM>
0

>  <SCORE.SYSTEM.CONST>
0

>  <SCORE.SYSTEM.DIHEDRAL>
0

>  <SCORE.SYSTEM.SOLV>
0

>  <SCORE.SYSTEM.norm>
0

>  <SCORE.heavy>
22

>  <SCORE.norm>
-0.110969

>  <RMSD>
1.314

$$$$
ligand
 OpenBabel11021811513D
libRbt.so/2013.1/901 2013/11/27
 22 23  0  0  0  0  0  0  0  0999 V2000
  -29.5125    3.1853  -10.4682 N   0  0  0  0  0  0  0  0  0  0  0  0
  -26.2901    3.8281  -11.2780 C   0  0  1  0  0  0  0  0  0  0  0  0
  -27.2139    3.2735  -10.2988 O   0  0  0  0  0  0  0  0  0  0  0  0
  -25.6237    7.0574   -9.4131 P   0  0  1  0  0  0  0  0  0  0  0  0
  -28.3325    2.7167  -11.0080 C   0  0  2  0  0  0  0  0  0  0  0  0
  -30.9936    4.5311   -9.6279 N   0  0  0  0  0  0  0  0  0  0  0  0
  -28.9088    2.4414  -13.3076 O   0  0  0  0  0  0  0  0  0  0  0  0
  -28.2383    3.2907  -12.3690 C   0  0  2  0  0  0  0  0  0  0  0  0
  -33.1705    1.8824   -8.5448 N   0  0  0  0  0  0  0  0  0  0  0  0
  -26.2405    2.1029  -12.8641 O   0  0  0  0  0  0  0  0  0  0  0  0
  -26.8026    3.3988  -12.5976 C   0  0  2  0  0  0  0  0  0  0  0  0
  -31.5558    3.3201   -9.7614 C   0  0  0  0  0  0  0  0  0  0  0  0
  -30.8264    1.1047  -10.6122 N   0  0  0  0  0  0  0  0  0  0  0  0
  -25.8117    5.5687   -9.8682 O   0  0  0  0  0  0  0  0  0  0  0  0
  -26.3338    5.3102  -11.1309 C   0  0  0  0  0  0  0  0  0  0  0  0
  -27.0823    7.6394   -9.4775 O   0  0  0  0  0  0  0  0  0  0  0  0
  -29.7219    4.4430  -10.0622 C   0  0  0  0  0  0  0  0  0  0  0  0
  -33.8895    3.6117   -9.8402 O   0  0  0  0  0  0  0  0  0  0  0  0
  -32.9399    2.9680   -9.3940 C   0  0  0  0  0  0  0  0  0  0  0  0
  -30.6302    2.4679  -10.2928 C   0  0  0  0  0  0  0  0  0  0  0  0
  -25.0012    7.0933   -8.0570 O   0  5  0  0  0  0  0  0  0  0  0  0
  -24.5939    7.7267  -10.2281 O   0  0  0  0  0  0  0  0  0  0  0  0
  1 17  1  0  0  0  0
  1 20  1  0  0  0  0
  2 15  1  6  0  0  0
  2  3  1  0  0  0  0
  2 11  1  0  0  0  0
  3  5  1  0  0  0  0
  4 16  1  6  0  0  0
  4 21  1  0  0  0  0
  4 22  2  0  0  0  0
  4 14  1  0  0  0  0
  5  1  1  1  0  0  0
  5  8  1  0  0  0  0
  6 17  2  0  0  0  0
  6 12  1  0  0  0  0
  8  7  1  6  0  0  0
  8 11  1  0  0  0  0
  9 19  1  0  0  0  0
 11 10  1  1  0  0  0
 12 20  2  0  0  0  0
 12 19  1  0  0  0  0
 13 20  1  0  0  0  0
 14 15  1  0  0  0  0
 18 19  2  0  0  0  0
M  CHG  1  21  -1
M  END
>  <CHROM.1>
40.40727057,65.71946582,59.85593785,176.15549407,-126.72449718,-28.35824886
4.26905570,-10.42177763,-2.71242975,0.35341026,0.69693020

>  <Name>
ligand

>  <RI>
0

>  <Rbt.Current_Directory>
/home/itssahil/PROJECTS/Mol_Feturizer/New_Systems/rnas/4XWF

>  <Rbt.Executable>
rbdock ($Id: //depot/dev/client3/rdock/2013.1/src/exe/rbdock.cxx#4 $)

>  <Rbt.Library>
libRbt.so (2013.1, Build901 2013/11/27)

>  <Rbt.Parameter_File>
/export/apps/rDock/src/rDock_2013.1_src/data/scripts/dock_solv.prm

>  <Rbt.Receptor>
prm/pocket_docking_2.prm

>  <SCORE>
-1.34845

>  <SCORE.INTER>
0.089651

>  <SCORE.INTER.CONST>
1

>  <SCORE.INTER.POLAR>
0

>  <SCORE.INTER.ROT>
5

>  <SCORE.INTER.SOLV>
9.61917

>  <SCORE.INTER.VDW>
-10.08

>  <SCORE.INTER.norm>
0.00407505

>  <SCORE.INTRA>
-1.44192

>  <SCORE.INTRA.DIHEDRAL>
-1.77051

>  <SCORE.INTRA.DIHEDRAL.0>
3.49807

>  <SCORE.INTRA.POLAR>
0

>  <SCORE.INTRA.POLAR.0>
0

>  <SCORE.INTRA.REPUL>
0

>  <SCORE.INTRA.REPUL.0>
0

>  <SCORE.INTRA.SOLV>
-0.280369

>  <SCORE.INTRA.SOLV.lig_0>
-73.062

>  <SCORE.INTRA.VDW>
-0.416486

>  <SCORE.INTRA.VDW.0>
-1.83782

>  <SCORE.INTRA.norm>
-0.065542

>  <SCORE.RESTR>
0.00382494

>  <SCORE.RESTR.CAVITY>
0.00382494

>  <SCORE.RESTR.norm>
0.000173861

>  <SCORE.SYSTEM>
0

>  <SCORE.SYSTEM.CONST>
0

>  <SCORE.SYSTEM.DIHEDRAL>
0

>  <SCORE.SYSTEM.SOLV>
0

>  <SCORE.SYSTEM.norm>
0

>  <SCORE.heavy>
22

>  <SCORE.norm>
-0.0612931

>  <RMSD>
1.321

$$$$
ligand
 OpenBabel11021811513D
libRbt.so/2013.1/901 2013/11/27
 22 23  0  0  0  0  0  0  0  0999 V2000
  -29.4486    3.5263  -10.3859 N   0  0  0  0  0  0  0  0  0  0  0  0
  -26.3526    4.5376  -11.3052 C   0  0  1  0  0  0  0  0  0  0  0  0
  -27.1831    3.9427  -10.2677 O   0  0  0  0  0  0  0  0  0  0  0  0
  -26.0258    7.9749   -9.7575 P   0  0  1  0  0  0  0  0  0  0  0  0
  -28.2194    3.1819  -10.9091 C   0  0  2  0  0  0  0  0  0  0  0  0
  -31.0565    4.7037   -9.5260 N   0  0  0  0  0  0  0  0  0  0  0  0
  -28.7701    2.6443  -13.1683 O   0  0  0  0  0  0  0  0  0  0  0  0
  -28.2162    3.6510  -12.3130 C   0  0  2  0  0  0  0  0  0  0  0  0
  -33.0478    1.8342   -8.6671 N   0  0  0  0  0  0  0  0  0  0  0  0
  -26.0772    2.7125  -12.7501 O   0  0  0  0  0  0  0  0  0  0  0  0
  -26.8111    3.9362  -12.5766 C   0  0  2  0  0  0  0  0  0  0  0  0
  -31.5165    3.4621   -9.7437 C   0  0  0  0  0  0  0  0  0  0  0  0
  -30.5883    1.3616  -10.6868 N   0  0  0  0  0  0  0  0  0  0  0  0
  -26.1074    6.4362  -10.0478 O   0  0  0  0  0  0  0  0  0  0  0  0
  -26.5997    6.0066  -11.2753 C   0  0  0  0  0  0  0  0  0  0  0  0
  -27.5054    8.4598   -9.9722 O   0  0  0  0  0  0  0  0  0  0  0  0
  -29.7693    4.7391   -9.9203 C   0  0  0  0  0  0  0  0  0  0  0  0
  -33.8626    3.5785   -9.8834 O   0  0  0  0  0  0  0  0  0  0  0  0
  -32.8788    2.9836   -9.4438 C   0  0  0  0  0  0  0  0  0  0  0  0
  -30.5106    2.7156  -10.2880 C   0  0  0  0  0  0  0  0  0  0  0  0
  -25.4937    8.1989   -8.3810 O   0  5  0  0  0  0  0  0  0  0  0  0
  -24.9821    8.6078  -10.5838 O   0  0  0  0  0  0  0  0  0  0  0  0
  1 17  1  0  0  0  0
  1 20  1  0  0  0  0
  2 15  1  6  0  0  0
  2  3  1  0  0  0  0
  2 11  1  0  0  0  0
  3  5  1  0  0  0  0
  4 16  1  6  0  0  0
  4 21  1  0  0  0  0
  4 22  2  0  0  0  0
  4 14  1  0  0  0  0
  5  1  1  1  0  0  0
  5  8  1  0  0  0  0
  6 17  2  0  0  0  0
  6 12  1  0  0  0  0
  8  7  1  6  0  0  0
  8 11  1  0  0  0  0
  9 19  1  0  0  0  0
 11 10  1  1  0  0  0
 12 20  2  0  0  0  0
 12 19  1  0  0  0  0
 13 20  1  0  0  0  0
 14 15  1  0  0  0  0
 18 19  2  0  0  0  0
M  CHG  1  21  -1
M  END
>  <CHROM.1>
31.51303248,65.77334023,56.54253723,171.71827273,-126.97482092,-28.44345923
4.77242602,-10.50491120,-2.59413163,0.41555432,0.56956120

>  <Name>
ligand

>  <RI>
0

>  <Rbt.Current_Directory>
/home/itssahil/PROJECTS/Mol_Feturizer/New_Systems/rnas/4XWF

>  <Rbt.Executable>
rbdock ($Id: //depot/dev/client3/rdock/2013.1/src/exe/rbdock.cxx#4 $)

>  <Rbt.Library>
libRbt.so (2013.1, Build901 2013/11/27)

>  <Rbt.Parameter_File>
/export/apps/rDock/src/rDock_2013.1_src/data/scripts/dock_solv.prm

>  <Rbt.Receptor>
prm/pocket_docking_2.prm

>  <SCORE>
-1.61446

>  <SCORE.INTER>
-0.469308

>  <SCORE.INTER.CONST>
1

>  <SCORE.INTER.POLAR>
0

>  <SCORE.INTER.ROT>
5

>  <SCORE.INTER.SOLV>
8.89887

>  <SCORE.INTER.VDW>
-10.2125

>  <SCORE.INTER.norm>
-0.0213322

>  <SCORE.INTRA>
-1.14515

>  <SCORE.INTRA.DIHEDRAL>
-1.47703

>  <SCORE.INTRA.DIHEDRAL.0>
3.49807

>  <SCORE.INTRA.POLAR>
0

>  <SCORE.INTRA.POLAR.0>
0

>  <SCORE.INTRA.REPUL>
0

>  <SCORE.INTRA.REPUL.0>
0

>  <SCORE.INTRA.SOLV>
0.00449614

>  <SCORE.INTRA.SOLV.lig_0>
-73.062

>  <SCORE.INTRA.VDW>
-0.408884

>  <SCORE.INTRA.VDW.0>
-1.83782

>  <SCORE.INTRA.norm>
-0.0520524

>  <SCORE.RESTR>
0

>  <SCORE.RESTR.CAVITY>
0

>  <SCORE.RESTR.norm>
0

>  <SCORE.SYSTEM>
0

>  <SCORE.SYSTEM.CONST>
0

>  <SCORE.SYSTEM.DIHEDRAL>
0

>  <SCORE.SYSTEM.SOLV>
0

>  <SCORE.SYSTEM.norm>
0

>  <SCORE.heavy>
22

>  <SCORE.norm>
-0.0733846

>  <RMSD>
1.329

$$$$
ligand
 OpenBabel11021811513D
libRbt.so/2013.1/901 2013/11/27
 22 23  0  0  0  0  0  0  0  0999 V2000
  -29.6150    3.7024  -10.1585 N   0  0  0  0  0  0  0  0  0  0  0  0
  -26.4307    4.8480  -10.1486 C   0  0  1  0  0  0  0  0  0  0  0  0
  -27.4165    3.9811   -9.5191 O   0  0  0  0  0  0  0  0  0  0  0  0
  -25.6340    8.5420   -9.8674 P   0  0  1  0  0  0  0  0  0  0  0  0
  -28.3049    3.5018  -10.5415 C   0  0  2  0  0  0  0  0  0  0  0  0
  -31.4155    4.6722   -9.4314 N   0  0  0  0  0  0  0  0  0  0  0  0
  -28.4356    3.7353  -12.9131 O   0  0  0  0  0  0  0  0  0  0  0  0
  -28.0654    4.3954  -11.6969 C   0  0  2  0  0  0  0  0  0  0  0  0
  -33.1943    1.4653   -9.3552 N   0  0  0  0  0  0  0  0  0  0  0  0
  -25.8610    3.5736  -12.0317 O   0  0  0  0  0  0  0  0  0  0  0  0
  -26.6432    4.7017  -11.6053 C   0  0  2  0  0  0  0  0  0  0  0  0
  -31.7321    3.4203   -9.7962 C   0  0  0  0  0  0  0  0  0  0  0  0
  -30.5103    1.4861  -10.7604 N   0  0  0  0  0  0  0  0  0  0  0  0
  -25.6631    7.0058  -10.1804 O   0  0  0  0  0  0  0  0  0  0  0  0
  -26.7144    6.2377   -9.6921 C   0  0  0  0  0  0  0  0  0  0  0  0
  -26.9466    9.0724  -10.5503 O   0  0  0  0  0  0  0  0  0  0  0  0
  -30.0980    4.8428   -9.6519 C   0  0  0  0  0  0  0  0  0  0  0  0
  -34.0786    3.4735   -9.9640 O   0  0  0  0  0  0  0  0  0  0  0  0
  -33.0724    2.8113   -9.7108 C   0  0  0  0  0  0  0  0  0  0  0  0
  -30.6040    2.8042  -10.2580 C   0  0  0  0  0  0  0  0  0  0  0  0
  -25.5746    8.7527   -8.3909 O   0  5  0  0  0  0  0  0  0  0  0  0
  -24.3587    9.1396  -10.3021 O   0  0  0  0  0  0  0  0  0  0  0  0
  1 17  1  0  0  0  0
  1 20  1  0  0  0  0
  2 15  1  1  0  0  0
  2  3  1  0  0  0  0
  2 11  1  0  0  0  0
  3  5  1  0  0  0  0
  4 16  1  6  0  0  0
  4 21  1  0  0  0  0
  4 22  2  0  0  0  0
  4 14  1  0  0  0  0
  5  1  1  1  0  0  0
  5  8  1  0  0  0  0
  6 17  2  0  0  0  0
  6 12  1  0  0  0  0
  8  7  1  6  0  0  0
  8 11  1  0  0  0  0
  9 19  1  0  0  0  0
 11 10  1  1  0  0  0
 12 20  2  0  0  0  0
 12 19  1  0  0  0  0
 13 20  1  0  0  0  0
 14 15  1  0  0  0  0
 18 19  2  0  0  0  0
M  CHG  1  21  -1
M  END
>  <CHROM.1>
47.04049085,173.01526991,-61.73632953,-179.35278564,-142.77280589,-28.38089683
5.11714188,-10.28571694,-2.53081151,0.33150451,0.44164303

>  <Name>
ligand

>  <RI>
0

>  <Rbt.Current_Directory>
/home/itssahil/PROJECTS/Mol_Feturizer/New_Systems/rnas/4XWF

>  <Rbt.Executable>
rbdock ($Id: //depot/dev/client3/rdock/2013.1/src/exe/rbdock.cxx#4 $)

>  <Rbt.Library>
libRbt.so (2013.1, Build901 2013/11/27)

>  <Rbt.Parameter_File>
/export/apps/rDock/src/rDock_2013.1_src/data/scripts/dock_solv.prm

>  <Rbt.Receptor>
prm/pocket_docking_2.prm

>  <SCORE>
-1.70403

>  <SCORE.INTER>
-0.795496

>  <SCORE.INTER.CONST>
1

>  <SCORE.INTER.POLAR>
0

>  <SCORE.INTER.ROT>
5

>  <SCORE.INTER.SOLV>
10.0379

>  <SCORE.INTER.VDW>
-10.8096

>  <SCORE.INTER.norm>
-0.0361589

>  <SCORE.INTRA>
-0.908531

>  <SCORE.INTRA.DIHEDRAL>
-1.32654

>  <SCORE.INTRA.DIHEDRAL.0>
3.49807

>  <SCORE.INTRA.POLAR>
0

>  <SCORE.INTRA.POLAR.0>
0

>  <SCORE.INTRA.REPUL>
0

>  <SCORE.INTRA.REPUL.0>
0

>  <SCORE.INTRA.SOLV>
-0.28504

>  <SCORE.INTRA.SOLV.lig_0>
-73.062

>  <SCORE.INTRA.VDW>
-0.102742

>  <SCORE.INTRA.VDW.0>
-1.83782

>  <SCORE.INTRA.norm>
-0.0412969

>  <SCORE.RESTR>
0

>  <SCORE.RESTR.CAVITY>
0

>  <SCORE.RESTR.norm>
0

>  <SCORE.SYSTEM>
0

>  <SCORE.SYSTEM.CONST>
0

>  <SCORE.SYSTEM.DIHEDRAL>
0

>  <SCORE.SYSTEM.SOLV>
0

>  <SCORE.SYSTEM.norm>
0

>  <SCORE.heavy>
22

>  <SCORE.norm>
-0.0774558

>  <RMSD>
1.352

$$$$
ligand
 OpenBabel11021811513D
libRbt.so/2013.1/901 2013/11/27
 22 23  0  0  0  0  0  0  0  0999 V2000
  -29.6235    3.7804  -10.0587 N   0  0  0  0  0  0  0  0  0  0  0  0
  -26.4200    4.8682  -10.1423 C   0  0  1  0  0  0  0  0  0  0  0  0
  -27.4091    4.0396   -9.4678 O   0  0  0  0  0  0  0  0  0  0  0  0
  -25.5374    8.5491   -9.9665 P   0  0  1  0  0  0  0  0  0  0  0  0
  -28.3244    3.5442  -10.4584 C   0  0  2  0  0  0  0  0  0  0  0  0
  -31.4034    4.8140   -9.3698 N   0  0  0  0  0  0  0  0  0  0  0  0
  -28.4944    3.7047  -12.8335 O   0  0  0  0  0  0  0  0  0  0  0  0
  -28.0906    4.3962  -11.6459 C   0  0  2  0  0  0  0  0  0  0  0  0
  -33.1989    1.7406   -8.7369 N   0  0  0  0  0  0  0  0  0  0  0  0
  -25.9073    3.5246  -11.9933 O   0  0  0  0  0  0  0  0  0  0  0  0
  -26.6617    4.6796  -11.5895 C   0  0  2  0  0  0  0  0  0  0  0  0
  -31.7300    3.5360   -9.6161 C   0  0  0  0  0  0  0  0  0  0  0  0
  -30.5351    1.5226  -10.4420 N   0  0  0  0  0  0  0  0  0  0  0  0
  -25.6046    7.0064  -10.2391 O   0  0  0  0  0  0  0  0  0  0  0  0
  -26.6711    6.2766   -9.7255 C   0  0  0  0  0  0  0  0  0  0  0  0
  -26.8316    9.0949  -10.6718 O   0  0  0  0  0  0  0  0  0  0  0  0
  -30.0924    4.9616   -9.6399 C   0  0  0  0  0  0  0  0  0  0  0  0
  -34.0623    3.4817   -9.9238 O   0  0  0  0  0  0  0  0  0  0  0  0
  -33.0676    2.9400   -9.4419 C   0  0  0  0  0  0  0  0  0  0  0  0
  -30.6150    2.8795  -10.0532 C   0  0  0  0  0  0  0  0  0  0  0  0
  -25.4812    8.7974   -8.4958 O   0  5  0  0  0  0  0  0  0  0  0  0
  -24.2444    9.1018  -10.4086 O   0  0  0  0  0  0  0  0  0  0  0  0
  1 17  1  0  0  0  0
  1 20  1  0  0  0  0
  2 15  1  1  0  0  0
  2  3  1  0  0  0  0
  2 11  1  0  0  0  0
  3  5  1  0  0  0  0
  4 16  1  6  0  0  0
  4 21  1  0  0  0  0
  4 22  2  0  0  0  0
  4 14  1  0  0  0  0
  5  1  1  1  0  0  0
  5  8  1  0  0  0  0
  6 17  2  0  0  0  0
  6 12  1  0  0  0  0
  8  7  1  6  0  0  0
  8 11  1  0  0  0  0
  9 19  1  0  0  0  0
 11 10  1  1  0  0  0
 12 20  2  0  0  0  0
 12 19  1  0  0  0  0
 13 20  1  0  0  0  0
 14 15  1  0  0  0  0
 18 19  2  0  0  0  0
M  CHG  1  21  -1
M  END
>  <CHROM.1>
50.35994837,172.10824601,-62.40650580,-179.13218020,-130.66618680,-28.35849976
5.16055454,-10.22812742,-2.56105452,0.35276538,0.42736743

>  <Name>
ligand

>  <RI>
0

>  <Rbt.Current_Directory>
/home/itssahil/PROJECTS/Mol_Feturizer/New_Systems/rnas/4XWF

>  <Rbt.Executable>
rbdock ($Id: //depot/dev/client3/rdock/2013.1/src/exe/rbdock.cxx#4 $)

>  <Rbt.Library>
libRbt.so (2013.1, Build901 2013/11/27)

>  <Rbt.Parameter_File>
/export/apps/rDock/src/rDock_2013.1_src/data/scripts/dock_solv.prm

>  <Rbt.Receptor>
prm/pocket_docking_2.prm

>  <SCORE>
-1.73975

>  <SCORE.INTER>
-0.59523

>  <SCORE.INTER.CONST>
1

>  <SCORE.INTER.POLAR>
0

>  <SCORE.INTER.ROT>
5

>  <SCORE.INTER.SOLV>
8.66453

>  <SCORE.INTER.VDW>
-10.2183

>  <SCORE.INTER.norm>
-0.0270559

>  <SCORE.INTRA>
-1.14452

>  <SCORE.INTRA.DIHEDRAL>
-1.65366

>  <SCORE.INTRA.DIHEDRAL.0>
3.49807

>  <SCORE.INTRA.POLAR>
0

>  <SCORE.INTRA.POLAR.0>
0

>  <SCORE.INTRA.REPUL>
0

>  <SCORE.INTRA.REPUL.0>
0

>  <SCORE.INTRA.SOLV>
-0.452198

>  <SCORE.INTRA.SOLV.lig_0>
-73.062

>  <SCORE.INTRA.VDW>
-0.0915915

>  <SCORE.INTRA.VDW.0>
-1.83782

>  <SCORE.INTRA.norm>
-0.0520236

>  <SCORE.RESTR>
0

>  <SCORE.RESTR.CAVITY>
0

>  <SCORE.RESTR.norm>
0

>  <SCORE.SYSTEM>
0

>  <SCORE.SYSTEM.CONST>
0

>  <SCORE.SYSTEM.DIHEDRAL>
0

>  <SCORE.SYSTEM.SOLV>
0

>  <SCORE.SYSTEM.norm>
0

>  <SCORE.heavy>
22

>  <SCORE.norm>
-0.0790795

>  <RMSD>
1.380

$$$$
ligand
 OpenBabel11021811513D
libRbt.so/2013.1/901 2013/11/27
 22 23  0  0  0  0  0  0  0  0999 V2000
  -29.4837    3.4575  -10.3563 N   0  0  0  0  0  0  0  0  0  0  0  0
  -26.3757    4.4553  -11.2491 C   0  0  1  0  0  0  0  0  0  0  0  0
  -27.2198    3.8751  -10.2143 O   0  0  0  0  0  0  0  0  0  0  0  0
  -26.2331    7.8965   -9.6720 P   0  0  1  0  0  0  0  0  0  0  0  0
  -28.2480    3.1056  -10.8586 C   0  0  2  0  0  0  0  0  0  0  0  0
  -31.1055    4.6491   -9.5433 N   0  0  0  0  0  0  0  0  0  0  0  0
  -28.7693    2.5367  -13.1170 O   0  0  0  0  0  0  0  0  0  0  0  0
  -28.2262    3.5551  -12.2687 C   0  0  2  0  0  0  0  0  0  0  0  0
  -33.0898    1.7418   -8.7041 N   0  0  0  0  0  0  0  0  0  0  0  0
  -26.0820    2.6102  -12.6647 O   0  0  0  0  0  0  0  0  0  0  0  0
  -26.8177    3.8364  -12.5179 C   0  0  2  0  0  0  0  0  0  0  0  0
  -31.5574    3.3998   -9.7322 C   0  0  0  0  0  0  0  0  0  0  0  0
  -30.6098    1.2796  -10.6100 N   0  0  0  0  0  0  0  0  0  0  0  0
  -26.2021    6.3617   -9.9916 O   0  0  0  0  0  0  0  0  0  0  0  0
  -26.6226    5.9246  -11.2429 C   0  0  0  0  0  0  0  0  0  0  0  0
  -25.7587    7.9612   -8.1749 O   0  0  0  0  0  0  0  0  0  0  0  0
  -29.8148    4.6806   -9.9263 C   0  0  0  0  0  0  0  0  0  0  0  0
  -33.9039    3.5459   -9.8302 O   0  0  0  0  0  0  0  0  0  0  0  0
  -32.9200    2.9224   -9.4323 C   0  0  0  0  0  0  0  0  0  0  0  0
  -30.5426    2.6442  -10.2468 C   0  0  0  0  0  0  0  0  0  0  0  0
  -25.3551    8.6275  -10.6326 O   0  5  0  0  0  0  0  0  0  0  0  0
  -27.5546    8.4689   -9.9861 O   0  0  0  0  0  0  0  0  0  0  0  0
  1 17  1  0  0  0  0
  1 20  1  0  0  0  0
  2 15  1  6  0  0  0
  2  3  1  0  0  0  0
  2 11  1  0  0  0  0
  3  5  1  0  0  0  0
  4 16  1  1  0  0  0
  4 21  1  0  0  0  0
  4 22  2  0  0  0  0
  4 14  1  0  0  0  0
  5  1  1  1  0  0  0
  5  8  1  0  0  0  0
  6 17  2  0  0  0  0
  6 12  1  0  0  0  0
  8  7  1  6  0  0  0
  8 11  1  0  0  0  0
  9 19  1  0  0  0  0
 11 10  1  1  0  0  0
 12 20  2  0  0  0  0
 12 19  1  0  0  0  0
 13 20  1  0  0  0  0
 14 15  1  0  0  0  0
 18 19  2  0  0  0  0
M  CHG  1  21  -1
M  END
>  <CHROM.1>
32.33238998,63.15261030,177.43408211,176.03612801,-131.34756231,-28.52073921
4.69676734,-10.46133654,-2.57503666,0.41043695,0.54890901

>  <Name>
ligand

>  <RI>
0

>  <Rbt.Current_Directory>
/home/itssahil/PROJECTS/Mol_Feturizer/New_Systems/rnas/4XWF

>  <Rbt.Executable>
rbdock ($Id: //depot/dev/client3/rdock/2013.1/src/exe/rbdock.cxx#4 $)

>  <Rbt.Library>
libRbt.so (2013.1, Build901 2013/11/27)

>  <Rbt.Parameter_File>
/export/apps/rDock/src/rDock_2013.1_src/data/scripts/dock_solv.prm

>  <Rbt.Receptor>
prm/pocket_docking_2.prm

>  <SCORE>
-1.34682

>  <SCORE.INTER>
-0.414511

>  <SCORE.INTER.CONST>
1

>  <SCORE.INTER.POLAR>
0

>  <SCORE.INTER.ROT>
5

>  <SCORE.INTER.SOLV>
9.2256

>  <SCORE.INTER.VDW>
-10.2849

>  <SCORE.INTER.norm>
-0.0188414

>  <SCORE.INTRA>
-0.932308

>  <SCORE.INTRA.DIHEDRAL>
-1.74809

>  <SCORE.INTRA.DIHEDRAL.0>
3.49807

>  <SCORE.INTRA.POLAR>
0

>  <SCORE.INTRA.POLAR.0>
0

>  <SCORE.INTRA.REPUL>
0

>  <SCORE.INTRA.REPUL.0>
0

>  <SCORE.INTRA.SOLV>
0.709094

>  <SCORE.INTRA.SOLV.lig_0>
-73.062

>  <SCORE.INTRA.VDW>
-0.412811

>  <SCORE.INTRA.VDW.0>
-1.83782

>  <SCORE.INTRA.norm>
-0.0423776

>  <SCORE.RESTR>
0

>  <SCORE.RESTR.CAVITY>
0

>  <SCORE.RESTR.norm>
0

>  <SCORE.SYSTEM>
0

>  <SCORE.SYSTEM.CONST>
0

>  <SCORE.SYSTEM.DIHEDRAL>
0

>  <SCORE.SYSTEM.SOLV>
0

>  <SCORE.SYSTEM.norm>
0

>  <SCORE.heavy>
22

>  <SCORE.norm>
-0.0612191

>  <RMSD>
1.381

$$$$
ligand
 OpenBabel11021811513D
libRbt.so/2013.1/901 2013/11/27
 22 23  0  0  0  0  0  0  0  0999 V2000
  -29.6449    3.6971  -10.1029 N   0  0  0  0  0  0  0  0  0  0  0  0
  -26.4564    4.8241  -10.2266 C   0  0  1  0  0  0  0  0  0  0  0  0
  -27.4397    4.0235   -9.5111 O   0  0  0  0  0  0  0  0  0  0  0  0
  -25.6158    8.5187  -10.2496 P   0  0  1  0  0  0  0  0  0  0  0  0
  -28.3392    3.4560  -10.4771 C   0  0  2  0  0  0  0  0  0  0  0  0
  -31.4317    4.7353   -9.4391 N   0  0  0  0  0  0  0  0  0  0  0  0
  -28.4904    3.4701  -12.8589 O   0  0  0  0  0  0  0  0  0  0  0  0
  -28.1068    4.2380  -11.7121 C   0  0  2  0  0  0  0  0  0  0  0  0
  -33.2450    1.5862   -9.0524 N   0  0  0  0  0  0  0  0  0  0  0  0
  -25.9086    3.3787  -11.9887 O   0  0  0  0  0  0  0  0  0  0  0  0
  -26.6826    4.5449  -11.6616 C   0  0  2  0  0  0  0  0  0  0  0  0
  -31.7624    3.4633   -9.7099 C   0  0  0  0  0  0  0  0  0  0  0  0
  -30.5650    1.4519  -10.5367 N   0  0  0  0  0  0  0  0  0  0  0  0
  -25.6731    6.9647  -10.4512 O   0  0  0  0  0  0  0  0  0  0  0  0
  -26.7307    6.2513   -9.8979 C   0  0  0  0  0  0  0  0  0  0  0  0
  -25.5007    8.6743   -8.6898 O   0  0  0  0  0  0  0  0  0  0  0  0
  -30.1140    4.8762   -9.6784 C   0  0  0  0  0  0  0  0  0  0  0  0
  -34.1052    3.5047   -9.9271 O   0  0  0  0  0  0  0  0  0  0  0  0
  -33.1081    2.8757   -9.5732 C   0  0  0  0  0  0  0  0  0  0  0  0
  -30.6431    2.8040  -10.1314 C   0  0  0  0  0  0  0  0  0  0  0  0
  -24.4654    9.0825  -11.0154 O   0  5  0  0  0  0  0  0  0  0  0  0
  -26.7592    9.1736  -10.9101 O   0  0  0  0  0  0  0  0  0  0  0  0
  1 17  1  0  0  0  0
  1 20  1  0  0  0  0
  2 15  1  6  0  0  0
  2  3  1  0  0  0  0
  2 11  1  0  0  0  0
  3  5  1  0  0  0  0
  4 16  1  1  0  0  0
  4 21  1  0  0  0  0
  4 22  2  0  0  0  0
  4 14  1  0  0  0  0
  5  1  1  1  0  0  0
  5  8  1  0  0  0  0
  6 17  2  0  0  0  0
  6 12  1  0  0  0  0
  8  7  1  6  0  0  0
  8 11  1  0  0  0  0
  9 19  1  0  0  0  0
 11 10  1  1  0  0  0
 12 20  2  0  0  0  0
 12 19  1  0  0  0  0
 13 20  1  0  0  0  0
 14 15  1  0  0  0  0
 18 19  2  0  0  0  0
M  CHG  1  21  -1
M  END
>  <CHROM.1>
45.86457555,172.36010370,62.04355014,-177.95061068,-139.37618977,-28.39669778
5.08916242,-10.37050481,-2.54276965,0.34143653,0.36351687

>  <Name>
ligand

>  <RI>
0

>  <Rbt.Current_Directory>
/home/itssahil/PROJECTS/Mol_Feturizer/New_Systems/rnas/4XWF

>  <Rbt.Executable>
rbdock ($Id: //depot/dev/client3/rdock/2013.1/src/exe/rbdock.cxx#4 $)

>  <Rbt.Library>
libRbt.so (2013.1, Build901 2013/11/27)

>  <Rbt.Parameter_File>
/export/apps/rDock/src/rDock_2013.1_src/data/scripts/dock_solv.prm

>  <Rbt.Receptor>
prm/pocket_docking_2.prm

>  <SCORE>
-1.72246

>  <SCORE.INTER>
-0.711648

>  <SCORE.INTER.CONST>
1

>  <SCORE.INTER.POLAR>
0

>  <SCORE.INTER.ROT>
5

>  <SCORE.INTER.SOLV>
9.46908

>  <SCORE.INTER.VDW>
-10.5641

>  <SCORE.INTER.norm>
-0.0323476

>  <SCORE.INTRA>
-1.01081

>  <SCORE.INTRA.DIHEDRAL>
-1.42039

>  <SCORE.INTRA.DIHEDRAL.0>
3.49807

>  <SCORE.INTRA.POLAR>
0

>  <SCORE.INTRA.POLAR.0>
0

>  <SCORE.INTRA.REPUL>
0

>  <SCORE.INTRA.REPUL.0>
0

>  <SCORE.INTRA.SOLV>
-0.317212

>  <SCORE.INTRA.SOLV.lig_0>
-73.062

>  <SCORE.INTRA.VDW>
-0.142011

>  <SCORE.INTRA.VDW.0>
-1.83782

>  <SCORE.INTRA.norm>
-0.0459459

>  <SCORE.RESTR>
0

>  <SCORE.RESTR.CAVITY>
0

>  <SCORE.RESTR.norm>
0

>  <SCORE.SYSTEM>
0

>  <SCORE.SYSTEM.CONST>
0

>  <SCORE.SYSTEM.DIHEDRAL>
0

>  <SCORE.SYSTEM.SOLV>
0

>  <SCORE.SYSTEM.norm>
0

>  <SCORE.heavy>
22

>  <SCORE.norm>
-0.0782935

>  <RMSD>
1.382

$$$$
ligand
 OpenBabel11021811513D
libRbt.so/2013.1/901 2013/11/27
 22 23  0  0  0  0  0  0  0  0999 V2000
  -29.6296    3.7537  -10.0901 N   0  0  0  0  0  0  0  0  0  0  0  0
  -26.4325    4.8523   -9.9334 C   0  0  1  0  0  0  0  0  0  0  0  0
  -27.4413    3.9545   -9.3893 O   0  0  0  0  0  0  0  0  0  0  0  0
  -25.5987    8.5048   -9.3662 P   0  0  1  0  0  0  0  0  0  0  0  0
  -28.3145    3.5644  -10.4616 C   0  0  2  0  0  0  0  0  0  0  0  0
  -31.4501    4.7140   -9.4013 N   0  0  0  0  0  0  0  0  0  0  0  0
  -28.3942    3.9750  -12.8113 O   0  0  0  0  0  0  0  0  0  0  0  0
  -28.0409    4.5380  -11.5424 C   0  0  2  0  0  0  0  0  0  0  0  0
  -33.1766    1.4987   -9.1717 N   0  0  0  0  0  0  0  0  0  0  0  0
  -25.8401    3.7136  -11.8947 O   0  0  0  0  0  0  0  0  0  0  0  0
  -26.6172    4.8174  -11.4007 C   0  0  2  0  0  0  0  0  0  0  0  0
  -31.7429    3.4455   -9.7269 C   0  0  0  0  0  0  0  0  0  0  0  0
  -30.4828    1.5037  -10.6240 N   0  0  0  0  0  0  0  0  0  0  0  0
  -25.6503    7.0015   -9.8091 O   0  0  0  0  0  0  0  0  0  0  0  0
  -26.7087    6.2080   -9.3802 C   0  0  0  0  0  0  0  0  0  0  0  0
  -26.9204    9.1028   -9.9710 O   0  0  0  0  0  0  0  0  0  0  0  0
  -30.1349    4.9010   -9.6222 C   0  0  0  0  0  0  0  0  0  0  0  0
  -34.0849    3.4345   -9.9547 O   0  0  0  0  0  0  0  0  0  0  0  0
  -33.0725    2.8158   -9.6270 C   0  0  0  0  0  0  0  0  0  0  0  0
  -30.6020    2.8353  -10.1644 C   0  0  0  0  0  0  0  0  0  0  0  0
  -25.5046    8.5874   -7.8789 O   0  5  0  0  0  0  0  0  0  0  0  0
  -24.3272    9.1270   -9.7771 O   0  0  0  0  0  0  0  0  0  0  0  0
  1 17  1  0  0  0  0
  1 20  1  0  0  0  0
  2 15  1  1  0  0  0
  2  3  1  0  0  0  0
  2 11  1  0  0  0  0
  3  5  1  0  0  0  0
  4 16  1  6  0  0  0
  4 21  1  0  0  0  0
  4 22  2  0  0  0  0
  4 14  1  0  0  0  0
  5  1  1  1  0  0  0
  5  8  1  0  0  0  0
  6 17  2  0  0  0  0
  6 12  1  0  0  0  0
  8  7  1  6  0  0  0
  8 11  1  0  0  0  0
  9 19  1  0  0  0  0
 11 10  1  6  0  0  0
 12 20  2  0  0  0  0
 12 19  1  0  0  0  0
 13 20  1  0  0  0  0
 14 15  1  0  0  0  0
 18 19  2  0  0  0  0
M  CHG  1  21  -1
M  END
>  <CHROM.1>
53.45098126,174.01491596,-60.82119621,-178.26356244,-139.93090692,-28.36927645
5.14358413,-10.05651562,-2.53596874,0.32568469,0.51190819

>  <Name>
ligand

>  <RI>
0

>  <Rbt.Current_Directory>
/home/itssahil/PROJECTS/Mol_Feturizer/New_Systems/rnas/4XWF

>  <Rbt.Executable>
rbdock ($Id: //depot/dev/client3/rdock/2013.1/src/exe/rbdock.cxx#4 $)

>  <Rbt.Library>
libRbt.so (2013.1, Build901 2013/11/27)

>  <Rbt.Parameter_File>
/export/apps/rDock/src/rDock_2013.1_src/data/scripts/dock_solv.prm

>  <Rbt.Receptor>
prm/pocket_docking_2.prm

>  <SCORE>
-1.69105

>  <SCORE.INTER>
-0.746708

>  <SCORE.INTER.CONST>
1

>  <SCORE.INTER.POLAR>
0

>  <SCORE.INTER.ROT>
5

>  <SCORE.INTER.SOLV>
9.39083

>  <SCORE.INTER.VDW>
-10.5614

>  <SCORE.INTER.norm>
-0.0339413

>  <SCORE.INTRA>
-0.944342

>  <SCORE.INTRA.DIHEDRAL>
-1.46166

>  <SCORE.INTRA.DIHEDRAL.0>
3.49807

>  <SCORE.INTRA.POLAR>
0

>  <SCORE.INTRA.POLAR.0>
0

>  <SCORE.INTRA.REPUL>
0

>  <SCORE.INTRA.REPUL.0>
0

>  <SCORE.INTRA.SOLV>
-0.481835

>  <SCORE.INTRA.SOLV.lig_0>
-73.062

>  <SCORE.INTRA.VDW>
0.027406

>  <SCORE.INTRA.VDW.0>
-1.83782

>  <SCORE.INTRA.norm>
-0.0429246

>  <SCORE.RESTR>
0

>  <SCORE.RESTR.CAVITY>
0

>  <SCORE.RESTR.norm>
0

>  <SCORE.SYSTEM>
0

>  <SCORE.SYSTEM.CONST>
0

>  <SCORE.SYSTEM.DIHEDRAL>
0

>  <SCORE.SYSTEM.SOLV>
0

>  <SCORE.SYSTEM.norm>
0

>  <SCORE.heavy>
22

>  <SCORE.norm>
-0.0768659

>  <RMSD>
1.385

$$$$
ligand
 OpenBabel11021811513D
libRbt.so/2013.1/901 2013/11/27
 22 23  0  0  0  0  0  0  0  0999 V2000
  -29.7638    3.9253   -9.9216 N   0  0  0  0  0  0  0  0  0  0  0  0
  -26.6712    5.2894   -9.7551 C   0  0  1  0  0  0  0  0  0  0  0  0
  -27.6540    4.4162   -9.1294 O   0  0  0  0  0  0  0  0  0  0  0  0
  -24.6881    7.5354   -9.2015 P   0  0  1  0  0  0  0  0  0  0  0  0
  -28.4145    3.7836  -10.1714 C   0  0  2  0  0  0  0  0  0  0  0  0
  -31.6687    4.8125   -9.3783 N   0  0  0  0  0  0  0  0  0  0  0  0
  -28.3438    3.7889  -12.5570 O   0  0  0  0  0  0  0  0  0  0  0  0
  -28.1274    4.5822  -11.3841 C   0  0  2  0  0  0  0  0  0  0  0  0
  -34.3543    3.5995   -9.4742 N   0  0  0  0  0  0  0  0  0  0  0  0
  -25.8547    3.8912  -11.4500 O   0  0  0  0  0  0  0  0  0  0  0  0
  -26.7412    4.9955  -11.2032 C   0  0  2  0  0  0  0  0  0  0  0  0
  -31.8922    3.5499   -9.7738 C   0  0  0  0  0  0  0  0  0  0  0  0
  -30.4967    1.6754  -10.6119 N   0  0  0  0  0  0  0  0  0  0  0  0
  -26.0568    7.4859   -9.9648 O   0  0  0  0  0  0  0  0  0  0  0  0
  -27.0814    6.6915   -9.4618 C   0  0  0  0  0  0  0  0  0  0  0  0
  -25.1166    7.8036   -7.7132 O   0  0  0  0  0  0  0  0  0  0  0  0
  -30.3445    5.0412   -9.4653 C   0  0  0  0  0  0  0  0  0  0  0  0
  -33.2971    1.7010  -10.1552 O   0  0  0  0  0  0  0  0  0  0  0  0
  -33.2065    2.8830   -9.8237 C   0  0  0  0  0  0  0  0  0  0  0  0
  -30.6977    2.9856  -10.1205 C   0  0  0  0  0  0  0  0  0  0  0  0
  -23.9485    6.2563   -9.4127 O   0  5  0  0  0  0  0  0  0  0  0  0
  -23.7762    8.5101   -9.8268 O   0  0  0  0  0  0  0  0  0  0  0  0
  1 17  1  0  0  0  0
  1 20  1  0  0  0  0
  2 15  1  6  0  0  0
  2  3  1  0  0  0  0
  2 11  1  0  0  0  0
  3  5  1  0  0  0  0
  4 16  1  1  0  0  0
  4 21  1  0  0  0  0
  4 22  2  0  0  0  0
  4 14  1  0  0  0  0
  5  1  1  1  0  0  0
  5  8  1  0  0  0  0
  6 17  2  0  0  0  0
  6 12  1  0  0  0  0
  8  7  1  6  0  0  0
  8 11  1  0  0  0  0
  9 19  1  0  0  0  0
 11 10  1  1  0  0  0
 12 20  2  0  0  0  0
 12 19  1  0  0  0  0
 13 20  1  0  0  0  0
 14 15  1  0  0  0  0
 18 19  2  0  0  0  0
M  CHG  1  21  -1
M  END
>  <CHROM.1>
41.23664074,174.57766660,-49.16801036,-73.28602899,1.96438711,-28.20836033
4.98763980,-9.95558646,-2.70257150,0.29069410,0.68421343

>  <Name>
ligand

>  <RI>
0

>  <Rbt.Current_Directory>
/home/itssahil/PROJECTS/Mol_Feturizer/New_Systems/rnas/4XWF

>  <Rbt.Executable>
rbdock ($Id: //depot/dev/client3/rdock/2013.1/src/exe/rbdock.cxx#4 $)

>  <Rbt.Library>
libRbt.so (2013.1, Build901 2013/11/27)

>  <Rbt.Parameter_File>
/export/apps/rDock/src/rDock_2013.1_src/data/scripts/dock_solv.prm

>  <Rbt.Receptor>
prm/pocket_docking_2.prm

>  <SCORE>
-0.810608

>  <SCORE.INTER>
-1.63943

>  <SCORE.INTER.CONST>
1

>  <SCORE.INTER.POLAR>
0

>  <SCORE.INTER.ROT>
5

>  <SCORE.INTER.SOLV>
11.1435

>  <SCORE.INTER.VDW>
-11.7408

>  <SCORE.INTER.norm>
-0.0745197

>  <SCORE.INTRA>
0.828825

>  <SCORE.INTRA.DIHEDRAL>
-0.930097

>  <SCORE.INTRA.DIHEDRAL.0>
3.49807

>  <SCORE.INTRA.POLAR>
0

>  <SCORE.INTRA.POLAR.0>
0

>  <SCORE.INTRA.REPUL>
0

>  <SCORE.INTRA.REPUL.0>
0

>  <SCORE.INTRA.SOLV>
2.07847

>  <SCORE.INTRA.SOLV.lig_0>
-73.062

>  <SCORE.INTRA.VDW>
0.254637

>  <SCORE.INTRA.VDW.0>
-1.83782

>  <SCORE.INTRA.norm>
0.0376738

>  <SCORE.RESTR>
0

>  <SCORE.RESTR.CAVITY>
0

>  <SCORE.RESTR.norm>
0

>  <SCORE.SYSTEM>
0

>  <SCORE.SYSTEM.CONST>
0

>  <SCORE.SYSTEM.DIHEDRAL>
0

>  <SCORE.SYSTEM.SOLV>
0

>  <SCORE.SYSTEM.norm>
0

>  <SCORE.heavy>
22

>  <SCORE.norm>
-0.0368458

>  <RMSD>
1.393

$$$$
ligand
 OpenBabel11021811513D
libRbt.so/2013.1/901 2013/11/27
 22 23  0  0  0  0  0  0  0  0999 V2000
  -29.3813    3.5882  -10.2759 N   0  0  0  0  0  0  0  0  0  0  0  0
  -26.2834    4.5874  -11.2018 C   0  0  1  0  0  0  0  0  0  0  0  0
  -27.1240    4.0434  -10.1447 O   0  0  0  0  0  0  0  0  0  0  0  0
  -26.0782    8.1148   -9.8393 P   0  0  1  0  0  0  0  0  0  0  0  0
  -28.1387    3.2310  -10.7569 C   0  0  2  0  0  0  0  0  0  0  0  0
  -31.0128    4.7875   -9.4942 N   0  0  0  0  0  0  0  0  0  0  0  0
  -28.6423    2.5523  -12.9889 O   0  0  0  0  0  0  0  0  0  0  0  0
  -28.1169    3.6158  -12.1860 C   0  0  2  0  0  0  0  0  0  0  0  0
  -33.4351    2.1501  -10.2710 N   0  0  0  0  0  0  0  0  0  0  0  0
  -25.9582    2.6838  -12.5304 O   0  0  0  0  0  0  0  0  0  0  0  0
  -26.7114    3.9050  -12.4426 C   0  0  2  0  0  0  0  0  0  0  0  0
  -31.4647    3.5384   -9.6843 C   0  0  0  0  0  0  0  0  0  0  0  0
  -30.5086    1.4119  -10.5371 N   0  0  0  0  0  0  0  0  0  0  0  0
  -26.0743    6.5626  -10.0612 O   0  0  0  0  0  0  0  0  0  0  0  0
  -26.5506    6.0519  -11.2637 C   0  0  0  0  0  0  0  0  0  0  0  0
  -27.5948    8.4962   -9.9970 O   0  0  0  0  0  0  0  0  0  0  0  0
  -29.7162    4.8142   -9.8569 C   0  0  0  0  0  0  0  0  0  0  0  0
  -33.4510    3.4817   -8.4238 O   0  0  0  0  0  0  0  0  0  0  0  0
  -32.8331    3.0657   -9.4038 C   0  0  0  0  0  0  0  0  0  0  0  0
  -30.4438    2.7780  -10.1792 C   0  0  0  0  0  0  0  0  0  0  0  0
  -25.4947    8.4326   -8.5028 O   0  5  0  0  0  0  0  0  0  0  0  0
  -25.1194    8.7742  -10.7440 O   0  0  0  0  0  0  0  0  0  0  0  0
  1 17  1  0  0  0  0
  1 20  1  0  0  0  0
  2 15  1  6  0  0  0
  2  3  1  0  0  0  0
  2 11  1  0  0  0  0
  3  5  1  0  0  0  0
  4 16  1  6  0  0  0
  4 21  1  0  0  0  0
  4 22  2  0  0  0  0
  4 14  1  0  0  0  0
  5  1  1  1  0  0  0
  5  8  1  0  0  0  0
  6 17  2  0  0  0  0
  6 12  1  0  0  0  0
  8  7  1  6  0  0  0
  8 11  1  0  0  0  0
  9 19  1  0  0  0  0
 11 10  1  1  0  0  0
 12 20  2  0  0  0  0
 12 19  1  0  0  0  0
 13 20  1  0  0  0  0
 14 15  1  0  0  0  0
 18 19  2  0  0  0  0
M  CHG  1  21  -1
M  END
>  <CHROM.1>
29.71616559,66.31611404,58.96841210,174.53672292,141.83127045,-28.40749977
4.84305713,-10.45685204,-2.57251629,0.41200745,0.52589193

>  <Name>
ligand

>  <RI>
0

>  <Rbt.Current_Directory>
/home/itssahil/PROJECTS/Mol_Feturizer/New_Systems/rnas/4XWF

>  <Rbt.Executable>
rbdock ($Id: //depot/dev/client3/rdock/2013.1/src/exe/rbdock.cxx#4 $)

>  <Rbt.Library>
libRbt.so (2013.1, Build901 2013/11/27)

>  <Rbt.Parameter_File>
/export/apps/rDock/src/rDock_2013.1_src/data/scripts/dock_solv.prm

>  <Rbt.Receptor>
prm/pocket_docking_2.prm

>  <SCORE>
-1.21991

>  <SCORE.INTER>
-0.283717

>  <SCORE.INTER.CONST>
1

>  <SCORE.INTER.POLAR>
0

>  <SCORE.INTER.ROT>
5

>  <SCORE.INTER.SOLV>
8.4028

>  <SCORE.INTER.VDW>
-9.92341

>  <SCORE.INTER.norm>
-0.0128962

>  <SCORE.INTRA>
-0.937051

>  <SCORE.INTRA.DIHEDRAL>
-1.21317

>  <SCORE.INTRA.DIHEDRAL.0>
3.49807

>  <SCORE.INTRA.POLAR>
0

>  <SCORE.INTRA.POLAR.0>
0

>  <SCORE.INTRA.REPUL>
0

>  <SCORE.INTRA.REPUL.0>
0

>  <SCORE.INTRA.SOLV>
0.164629

>  <SCORE.INTRA.SOLV.lig_0>
-73.062

>  <SCORE.INTRA.VDW>
-0.41278

>  <SCORE.INTRA.VDW.0>
-1.83782

>  <SCORE.INTRA.norm>
-0.0425932

>  <SCORE.RESTR>
0.000857526

>  <SCORE.RESTR.CAVITY>
0.000857526

>  <SCORE.RESTR.norm>
3.89785e-05

>  <SCORE.SYSTEM>
0

>  <SCORE.SYSTEM.CONST>
0

>  <SCORE.SYSTEM.DIHEDRAL>
0

>  <SCORE.SYSTEM.SOLV>
0

>  <SCORE.SYSTEM.norm>
0

>  <SCORE.heavy>
22

>  <SCORE.norm>
-0.0554505

>  <RMSD>
1.396

$$$$
ligand
 OpenBabel11021811513D
libRbt.so/2013.1/901 2013/11/27
 22 23  0  0  0  0  0  0  0  0999 V2000
  -29.6599    3.7215  -10.1181 N   0  0  0  0  0  0  0  0  0  0  0  0
  -26.4519    4.7631   -9.8423 C   0  0  1  0  0  0  0  0  0  0  0  0
  -27.4874    3.8624   -9.3564 O   0  0  0  0  0  0  0  0  0  0  0  0
  -25.6162    8.4004   -9.1866 P   0  0  1  0  0  0  0  0  0  0  0  0
  -28.3388    3.5249  -10.4634 C   0  0  2  0  0  0  0  0  0  0  0  0
  -31.4742    4.6719   -9.3997 N   0  0  0  0  0  0  0  0  0  0  0  0
  -28.3527    4.0208  -12.7979 O   0  0  0  0  0  0  0  0  0  0  0  0
  -28.0234    4.5322  -11.5011 C   0  0  2  0  0  0  0  0  0  0  0  0
  -33.2879    1.4775  -10.0196 N   0  0  0  0  0  0  0  0  0  0  0  0
  -25.8269    3.6863  -11.8283 O   0  0  0  0  0  0  0  0  0  0  0  0
  -26.5997    4.7838  -11.3140 C   0  0  2  0  0  0  0  0  0  0  0  0
  -31.7929    3.4502   -9.8542 C   0  0  0  0  0  0  0  0  0  0  0  0
  -30.5604    1.5613  -10.8917 N   0  0  0  0  0  0  0  0  0  0  0  0
  -25.6429    6.8948   -9.6237 O   0  0  0  0  0  0  0  0  0  0  0  0
  -26.7218    6.1022   -9.2473 C   0  0  0  0  0  0  0  0  0  0  0  0
  -26.9143    8.9895   -9.8487 O   0  0  0  0  0  0  0  0  0  0  0  0
  -30.1471    4.8355   -9.5593 C   0  0  0  0  0  0  0  0  0  0  0  0
  -34.1400    3.5700   -9.7349 O   0  0  0  0  0  0  0  0  0  0  0  0
  -33.1434    2.8580   -9.8578 C   0  0  0  0  0  0  0  0  0  0  0  0
  -30.6561    2.8468  -10.3111 C   0  0  0  0  0  0  0  0  0  0  0  0
  -25.5843    8.4906   -7.6971 O   0  5  0  0  0  0  0  0  0  0  0  0
  -24.3314    9.0264   -9.5476 O   0  0  0  0  0  0  0  0  0  0  0  0
  1 17  1  0  0  0  0
  1 20  1  0  0  0  0
  2 15  1  1  0  0  0
  2  3  1  0  0  0  0
  2 11  1  0  0  0  0
  3  5  1  0  0  0  0
  4 16  1  6  0  0  0
  4 21  1  0  0  0  0
  4 22  2  0  0  0  0
  4 14  1  0  0  0  0
  5  1  1  1  0  0  0
  5  8  1  0  0  0  0
  6 17  2  0  0  0  0
  6 12  1  0  0  0  0
  8  7  1  6  0  0  0
  8 11  1  0  0  0  0
  9 19  1  0  0  0  0
 11 10  1  6  0  0  0
 12 20  2  0  0  0  0
 12 19  1  0  0  0  0
 13 20  1  0  0  0  0
 14 15  1  0  0  0  0
 18 19  2  0  0  0  0
M  CHG  1  21  -1
M  END
>  <CHROM.1>
49.90905716,174.17006667,-60.13534275,178.69382279,-163.00736846,-28.39469651
5.10345740,-10.03897043,-2.53143132,0.28806020,0.53941637

>  <Name>
ligand

>  <RI>
0

>  <Rbt.Current_Directory>
/home/itssahil/PROJECTS/Mol_Feturizer/New_Systems/rnas/4XWF

>  <Rbt.Executable>
rbdock ($Id: //depot/dev/client3/rdock/2013.1/src/exe/rbdock.cxx#4 $)

>  <Rbt.Library>
libRbt.so (2013.1, Build901 2013/11/27)

>  <Rbt.Parameter_File>
/export/apps/rDock/src/rDock_2013.1_src/data/scripts/dock_solv.prm

>  <Rbt.Receptor>
prm/pocket_docking_2.prm

>  <SCORE>
-1.4407

>  <SCORE.INTER>
-1.0706

>  <SCORE.INTER.CONST>
1

>  <SCORE.INTER.POLAR>
0

>  <SCORE.INTER.ROT>
5

>  <SCORE.INTER.SOLV>
11.3122

>  <SCORE.INTER.VDW>
-11.4178

>  <SCORE.INTER.norm>
-0.0486638

>  <SCORE.INTRA>
-0.370092

>  <SCORE.INTRA.DIHEDRAL>
-0.548087

>  <SCORE.INTRA.DIHEDRAL.0>
3.49807

>  <SCORE.INTRA.POLAR>
0

>  <SCORE.INTRA.POLAR.0>
0

>  <SCORE.INTRA.REPUL>
0

>  <SCORE.INTRA.REPUL.0>
0

>  <SCORE.INTRA.SOLV>
-0.282848

>  <SCORE.INTRA.SOLV.lig_0>
-73.062

>  <SCORE.INTRA.VDW>
0.0453758

>  <SCORE.INTRA.VDW.0>
-1.83782

>  <SCORE.INTRA.norm>
-0.0168224

>  <SCORE.RESTR>
0

>  <SCORE.RESTR.CAVITY>
0

>  <SCORE.RESTR.norm>
0

>  <SCORE.SYSTEM>
0

>  <SCORE.SYSTEM.CONST>
0

>  <SCORE.SYSTEM.DIHEDRAL>
0

>  <SCORE.SYSTEM.SOLV>
0

>  <SCORE.SYSTEM.norm>
0

>  <SCORE.heavy>
22

>  <SCORE.norm>
-0.0654862

>  <RMSD>
1.410

$$$$
ligand
 OpenBabel11021811513D
libRbt.so/2013.1/901 2013/11/27
 22 23  0  0  0  0  0  0  0  0999 V2000
  -29.6118    3.4412  -10.3444 N   0  0  0  0  0  0  0  0  0  0  0  0
  -26.5004    4.3881  -11.2798 C   0  0  1  0  0  0  0  0  0  0  0  0
  -27.3408    3.8276  -10.2312 O   0  0  0  0  0  0  0  0  0  0  0  0
  -26.2070    7.8495   -9.7709 P   0  0  1  0  0  0  0  0  0  0  0  0
  -28.3870    3.0681  -10.8580 C   0  0  2  0  0  0  0  0  0  0  0  0
  -31.1984    4.6558   -9.4968 N   0  0  0  0  0  0  0  0  0  0  0  0
  -28.9421    2.4901  -13.1061 O   0  0  0  0  0  0  0  0  0  0  0  0
  -28.3750    3.5068  -12.2716 C   0  0  2  0  0  0  0  0  0  0  0  0
  -33.2636    1.8455   -8.6378 N   0  0  0  0  0  0  0  0  0  0  0  0
  -26.2491    2.5287  -12.6848 O   0  0  0  0  0  0  0  0  0  0  0  0
  -26.9656    3.7663  -12.5388 C   0  0  2  0  0  0  0  0  0  0  0  0
  -31.6857    3.4254   -9.7187 C   0  0  0  0  0  0  0  0  0  0  0  0
  -30.7996    1.3038  -10.6553 N   0  0  0  0  0  0  0  0  0  0  0  0
  -26.2352    6.3088  -10.0604 O   0  0  0  0  0  0  0  0  0  0  0  0
  -26.7265    5.8608  -11.2818 C   0  0  0  0  0  0  0  0  0  0  0  0
  -25.6288    7.9300   -8.3115 O   0  0  0  0  0  0  0  0  0  0  0  0
  -29.9077    4.6611   -9.8808 C   0  0  0  0  0  0  0  0  0  0  0  0
  -34.0270    3.5864   -9.8918 O   0  0  0  0  0  0  0  0  0  0  0  0
  -33.0612    2.9790   -9.4298 C   0  0  0  0  0  0  0  0  0  0  0  0
  -30.6934    2.6556  -10.2553 C   0  0  0  0  0  0  0  0  0  0  0  0
  -25.3802    8.5399  -10.8042 O   0  5  0  0  0  0  0  0  0  0  0  0
  -27.5329    8.4494  -10.0050 O   0  0  0  0  0  0  0  0  0  0  0  0
  1 17  1  0  0  0  0
  1 20  1  0  0  0  0
  2 15  1  6  0  0  0
  2  3  1  0  0  0  0
  2 11  1  0  0  0  0
  3  5  1  0  0  0  0
  4 16  1  1  0  0  0
  4 21  1  0  0  0  0
  4 22  2  0  0  0  0
  4 14  1  0  0  0  0
  5  1  1  1  0  0  0
  5  8  1  0  0  0  0
  6 17  2  0  0  0  0
  6 12  1  0  0  0  0
  8  7  1  6  0  0  0
  8 11  1  0  0  0  0
  9 19  1  0  0  0  0
 11 10  1  1  0  0  0
 12 20  2  0  0  0  0
 12 19  1  0  0  0  0
 13 20  1  0  0  0  0
 14 15  1  0  0  0  0
 18 19  2  0  0  0  0
M  CHG  1  21  -1
M  END
>  <CHROM.1>
30.11181552,65.52032341,178.73162185,175.06533237,-125.99232912,-28.61233454
4.67267521,-10.49261596,-2.59885308,0.40616708,0.55061312

>  <Name>
ligand

>  <RI>
0

>  <Rbt.Current_Directory>
/home/itssahil/PROJECTS/Mol_Feturizer/New_Systems/rnas/4XWF

>  <Rbt.Executable>
rbdock ($Id: //depot/dev/client3/rdock/2013.1/src/exe/rbdock.cxx#4 $)

>  <Rbt.Library>
libRbt.so (2013.1, Build901 2013/11/27)

>  <Rbt.Parameter_File>
/export/apps/rDock/src/rDock_2013.1_src/data/scripts/dock_solv.prm

>  <Rbt.Receptor>
prm/pocket_docking_2.prm

>  <SCORE>
-1.45676

>  <SCORE.INTER>
-0.528981

>  <SCORE.INTER.CONST>
1

>  <SCORE.INTER.POLAR>
0

>  <SCORE.INTER.ROT>
5

>  <SCORE.INTER.SOLV>
10.3388

>  <SCORE.INTER.VDW>
-10.7323

>  <SCORE.INTER.norm>
-0.0240446

>  <SCORE.INTRA>
-0.927778

>  <SCORE.INTRA.DIHEDRAL>
-1.73965

>  <SCORE.INTRA.DIHEDRAL.0>
3.49807

>  <SCORE.INTRA.POLAR>
0

>  <SCORE.INTRA.POLAR.0>
0

>  <SCORE.INTRA.REPUL>
0

>  <SCORE.INTRA.REPUL.0>
0

>  <SCORE.INTRA.SOLV>
0.741971

>  <SCORE.INTRA.SOLV.lig_0>
-73.062

>  <SCORE.INTRA.VDW>
-0.428939

>  <SCORE.INTRA.VDW.0>
-1.83782

>  <SCORE.INTRA.norm>
-0.0421717

>  <SCORE.RESTR>
0

>  <SCORE.RESTR.CAVITY>
0

>  <SCORE.RESTR.norm>
0

>  <SCORE.SYSTEM>
0

>  <SCORE.SYSTEM.CONST>
0

>  <SCORE.SYSTEM.DIHEDRAL>
0

>  <SCORE.SYSTEM.SOLV>
0

>  <SCORE.SYSTEM.norm>
0

>  <SCORE.heavy>
22

>  <SCORE.norm>
-0.0662163

>  <RMSD>
1.411

$$$$
ligand
 OpenBabel11021811513D
libRbt.so/2013.1/901 2013/11/27
 22 23  0  0  0  0  0  0  0  0999 V2000
  -29.6875    3.6584  -10.1179 N   0  0  0  0  0  0  0  0  0  0  0  0
  -26.5068    4.8142  -10.1205 C   0  0  1  0  0  0  0  0  0  0  0  0
  -27.5094    4.0048   -9.4426 O   0  0  0  0  0  0  0  0  0  0  0  0
  -25.7330    8.5230  -10.1743 P   0  0  1  0  0  0  0  0  0  0  0  0
  -28.3663    3.4290  -10.4420 C   0  0  2  0  0  0  0  0  0  0  0  0
  -31.4947    4.6639   -9.4591 N   0  0  0  0  0  0  0  0  0  0  0  0
  -28.4268    3.4417  -12.8278 O   0  0  0  0  0  0  0  0  0  0  0  0
  -28.0941    4.2130  -11.6676 C   0  0  2  0  0  0  0  0  0  0  0  0
  -33.3528    1.4822  -10.0606 N   0  0  0  0  0  0  0  0  0  0  0  0
  -25.8793    3.3736  -11.8599 O   0  0  0  0  0  0  0  0  0  0  0  0
  -26.6757    4.5329  -11.5629 C   0  0  2  0  0  0  0  0  0  0  0  0
  -31.8261    3.4275   -9.8617 C   0  0  0  0  0  0  0  0  0  0  0  0
  -30.6107    1.4779  -10.8026 N   0  0  0  0  0  0  0  0  0  0  0  0
  -25.7584    6.9659  -10.3570 O   0  0  0  0  0  0  0  0  0  0  0  0
  -26.8063    6.2388   -9.8031 C   0  0  0  0  0  0  0  0  0  0  0  0
  -25.6150    8.6999   -8.6170 O   0  0  0  0  0  0  0  0  0  0  0  0
  -30.1641    4.8026   -9.6137 C   0  0  0  0  0  0  0  0  0  0  0  0
  -34.1673    3.5735   -9.6752 O   0  0  0  0  0  0  0  0  0  0  0  0
  -33.1845    2.8536   -9.8513 C   0  0  0  0  0  0  0  0  0  0  0  0
  -30.6938    2.7892  -10.2808 C   0  0  0  0  0  0  0  0  0  0  0  0
  -24.5976    9.1016  -10.9516 O   0  5  0  0  0  0  0  0  0  0  0  0
  -26.8924    9.1459  -10.8379 O   0  0  0  0  0  0  0  0  0  0  0  0
  1 17  1  0  0  0  0
  1 20  1  0  0  0  0
  2 15  1  6  0  0  0
  2  3  1  0  0  0  0
  2 11  1  0  0  0  0
  3  5  1  0  0  0  0
  4 16  1  1  0  0  0
  4 21  1  0  0  0  0
  4 22  2  0  0  0  0
  4 14  1  0  0  0  0
  5  1  1  1  0  0  0
  5  8  1  0  0  0  0
  6 17  2  0  0  0  0
  6 12  1  0  0  0  0
  8  7  1  6  0  0  0
  8 11  1  0  0  0  0
  9 19  1  0  0  0  0
 11 10  1  1  0  0  0
 12 20  2  0  0  0  0
 12 19  1  0  0  0  0
 13 20  1  0  0  0  0
 14 15  1  0  0  0  0
 18 19  2  0  0  0  0
M  CHG  1  21  -1
M  END
>  <CHROM.1>
40.39745102,174.39017247,62.72725644,-178.34959608,-168.13452106,-28.45753833
5.07446502,-10.38454944,-2.51912384,0.30140954,0.36038073

>  <Name>
ligand

>  <RI>
0

>  <Rbt.Current_Directory>
/home/itssahil/PROJECTS/Mol_Feturizer/New_Systems/rnas/4XWF

>  <Rbt.Executable>
rbdock ($Id: //depot/dev/client3/rdock/2013.1/src/exe/rbdock.cxx#4 $)

>  <Rbt.Library>
libRbt.so (2013.1, Build901 2013/11/27)

>  <Rbt.Parameter_File>
/export/apps/rDock/src/rDock_2013.1_src/data/scripts/dock_solv.prm

>  <Rbt.Receptor>
prm/pocket_docking_2.prm

>  <SCORE>
-1.51975

>  <SCORE.INTER>
-1.2494

>  <SCORE.INTER.CONST>
1

>  <SCORE.INTER.POLAR>
0

>  <SCORE.INTER.ROT>
5

>  <SCORE.INTER.SOLV>
11.4036

>  <SCORE.INTER.VDW>
-11.5675

>  <SCORE.INTER.norm>
-0.0567907

>  <SCORE.INTRA>
-0.270355

>  <SCORE.INTRA.DIHEDRAL>
-0.409991

>  <SCORE.INTRA.DIHEDRAL.0>
3.49807

>  <SCORE.INTRA.POLAR>
0

>  <SCORE.INTRA.POLAR.0>
0

>  <SCORE.INTRA.REPUL>
0

>  <SCORE.INTRA.REPUL.0>
0

>  <SCORE.INTRA.SOLV>
0.00135674

>  <SCORE.INTRA.SOLV.lig_0>
-73.062

>  <SCORE.INTRA.VDW>
-0.0660376

>  <SCORE.INTRA.VDW.0>
-1.83782

>  <SCORE.INTRA.norm>
-0.0122889

>  <SCORE.RESTR>
0

>  <SCORE.RESTR.CAVITY>
0

>  <SCORE.RESTR.norm>
0

>  <SCORE.SYSTEM>
0

>  <SCORE.SYSTEM.CONST>
0

>  <SCORE.SYSTEM.DIHEDRAL>
0

>  <SCORE.SYSTEM.SOLV>
0

>  <SCORE.SYSTEM.norm>
0

>  <SCORE.heavy>
22

>  <SCORE.norm>
-0.0690796

>  <RMSD>
1.421

$$$$
ligand
 OpenBabel11021811513D
libRbt.so/2013.1/901 2013/11/27
 22 23  0  0  0  0  0  0  0  0999 V2000
  -29.6664    3.8192   -9.9901 N   0  0  0  0  0  0  0  0  0  0  0  0
  -26.4545    4.8800   -9.8851 C   0  0  1  0  0  0  0  0  0  0  0  0
  -27.4745    4.0208   -9.3010 O   0  0  0  0  0  0  0  0  0  0  0  0
  -25.5878    8.5496   -9.5088 P   0  0  1  0  0  0  0  0  0  0  0  0
  -28.3546    3.5958  -10.3542 C   0  0  2  0  0  0  0  0  0  0  0  0
  -31.4758    4.8361   -9.3553 N   0  0  0  0  0  0  0  0  0  0  0  0
  -28.4323    3.9034  -12.7196 O   0  0  0  0  0  0  0  0  0  0  0  0
  -28.0695    4.5169  -11.4771 C   0  0  2  0  0  0  0  0  0  0  0  0
  -33.2418    1.7138   -8.8015 N   0  0  0  0  0  0  0  0  0  0  0  0
  -25.8806    3.6479  -11.7948 O   0  0  0  0  0  0  0  0  0  0  0  0
  -26.6419    4.7829  -11.3493 C   0  0  2  0  0  0  0  0  0  0  0  0
  -31.7806    3.5525   -9.6005 C   0  0  0  0  0  0  0  0  0  0  0  0
  -30.5408    1.5478  -10.3801 N   0  0  0  0  0  0  0  0  0  0  0  0
  -25.6491    7.0241   -9.8662 O   0  0  0  0  0  0  0  0  0  0  0  0
  -26.7115    6.2624   -9.3920 C   0  0  0  0  0  0  0  0  0  0  0  0
  -25.4738    8.5468   -7.9412 O   0  0  0  0  0  0  0  0  0  0  0  0
  -30.1600    4.9976   -9.5924 C   0  0  0  0  0  0  0  0  0  0  0  0
  -34.1112    3.4963   -9.9207 O   0  0  0  0  0  0  0  0  0  0  0  0
  -33.1151    2.9417   -9.4567 C   0  0  0  0  0  0  0  0  0  0  0  0
  -30.6469    2.9064  -10.0036 C   0  0  0  0  0  0  0  0  0  0  0  0
  -24.4351    9.1846  -10.2131 O   0  5  0  0  0  0  0  0  0  0  0  0
  -26.7287    9.2710  -10.1008 O   0  0  0  0  0  0  0  0  0  0  0  0
  1 17  1  0  0  0  0
  1 20  1  0  0  0  0
  2 15  1  1  0  0  0
  2  3  1  0  0  0  0
  2 11  1  0  0  0  0
  3  5  1  0  0  0  0
  4 16  1  1  0  0  0
  4 21  1  0  0  0  0
  4 22  2  0  0  0  0
  4 14  1  0  0  0  0
  5  1  1  1  0  0  0
  5  8  1  0  0  0  0
  6 17  2  0  0  0  0
  6 12  1  0  0  0  0
  8  7  1  6  0  0  0
  8 11  1  0  0  0  0
  9 19  1  0  0  0  0
 11 10  1  1  0  0  0
 12 20  2  0  0  0  0
 12 19  1  0  0  0  0
 13 20  1  0  0  0  0
 14 15  1  0  0  0  0
 18 19  2  0  0  0  0
M  CHG  1  21  -1
M  END
>  <CHROM.1>
54.53143448,174.51442117,62.24619401,-179.06793418,-133.68965239,-28.38740327
5.19356545,-10.02758902,-2.55050099,0.33089977,0.46731706

>  <Name>
ligand

>  <RI>
0

>  <Rbt.Current_Directory>
/home/itssahil/PROJECTS/Mol_Feturizer/New_Systems/rnas/4XWF

>  <Rbt.Executable>
rbdock ($Id: //depot/dev/client3/rdock/2013.1/src/exe/rbdock.cxx#4 $)

>  <Rbt.Library>
libRbt.so (2013.1, Build901 2013/11/27)

>  <Rbt.Parameter_File>
/export/apps/rDock/src/rDock_2013.1_src/data/scripts/dock_solv.prm

>  <Rbt.Receptor>
prm/pocket_docking_2.prm

>  <SCORE>
-1.7332

>  <SCORE.INTER>
-0.630089

>  <SCORE.INTER.CONST>
1

>  <SCORE.INTER.POLAR>
0

>  <SCORE.INTER.ROT>
5

>  <SCORE.INTER.SOLV>
8.63649

>  <SCORE.INTER.VDW>
-10.2322

>  <SCORE.INTER.norm>
-0.0286404

>  <SCORE.INTRA>
-1.10311

>  <SCORE.INTRA.DIHEDRAL>
-1.69742

>  <SCORE.INTRA.DIHEDRAL.0>
3.49807

>  <SCORE.INTRA.POLAR>
0

>  <SCORE.INTRA.POLAR.0>
0

>  <SCORE.INTRA.REPUL>
0

>  <SCORE.INTRA.REPUL.0>
0

>  <SCORE.INTRA.SOLV>
-0.562384

>  <SCORE.INTRA.SOLV.lig_0>
-73.062

>  <SCORE.INTRA.VDW>
0.0267938

>  <SCORE.INTRA.VDW.0>
-1.83782

>  <SCORE.INTRA.norm>
-0.0501413

>  <SCORE.RESTR>
0

>  <SCORE.RESTR.CAVITY>
0

>  <SCORE.RESTR.norm>
0

>  <SCORE.SYSTEM>
0

>  <SCORE.SYSTEM.CONST>
0

>  <SCORE.SYSTEM.DIHEDRAL>
0

>  <SCORE.SYSTEM.SOLV>
0

>  <SCORE.SYSTEM.norm>
0

>  <SCORE.heavy>
22

>  <SCORE.norm>
-0.0787817

>  <RMSD>
1.431

$$$$
ligand
 OpenBabel11021811513D
libRbt.so/2013.1/901 2013/11/27
 22 23  0  0  0  0  0  0  0  0999 V2000
  -29.6609    3.7141  -10.0596 N   0  0  0  0  0  0  0  0  0  0  0  0
  -26.4756    4.8479  -10.2042 C   0  0  1  0  0  0  0  0  0  0  0  0
  -27.4561    4.0560   -9.4751 O   0  0  0  0  0  0  0  0  0  0  0  0
  -25.6778    8.5497  -10.3403 P   0  0  1  0  0  0  0  0  0  0  0  0
  -28.3548    3.4707  -10.4311 C   0  0  2  0  0  0  0  0  0  0  0  0
  -31.4560    4.7621   -9.4348 N   0  0  0  0  0  0  0  0  0  0  0  0
  -28.5083    3.4465  -12.8127 O   0  0  0  0  0  0  0  0  0  0  0  0
  -28.1258    4.2335  -11.6787 C   0  0  2  0  0  0  0  0  0  0  0  0
  -33.2393    1.6762   -8.7622 N   0  0  0  0  0  0  0  0  0  0  0  0
  -25.9254    3.3761  -11.9436 O   0  0  0  0  0  0  0  0  0  0  0  0
  -26.7024    4.5452  -11.6343 C   0  0  2  0  0  0  0  0  0  0  0  0
  -31.7726    3.4743   -9.6397 C   0  0  0  0  0  0  0  0  0  0  0  0
  -30.5557    1.4390  -10.3748 N   0  0  0  0  0  0  0  0  0  0  0  0
  -25.6934    6.9859  -10.4550 O   0  0  0  0  0  0  0  0  0  0  0  0
  -26.7537    6.2793   -9.8980 C   0  0  0  0  0  0  0  0  0  0  0  0
  -27.0092    8.9756  -11.0591 O   0  0  0  0  0  0  0  0  0  0  0  0
  -30.1418    4.9070   -9.6905 C   0  0  0  0  0  0  0  0  0  0  0  0
  -34.1056    3.4208   -9.9420 O   0  0  0  0  0  0  0  0  0  0  0  0
  -33.1097    2.8778   -9.4640 C   0  0  0  0  0  0  0  0  0  0  0  0
  -30.6480    2.8085  -10.0363 C   0  0  0  0  0  0  0  0  0  0  0  0
  -25.5941    8.9473   -8.9041 O   0  5  0  0  0  0  0  0  0  0  0  0
  -24.4182    9.0999  -10.8726 O   0  0  0  0  0  0  0  0  0  0  0  0
  1 17  1  0  0  0  0
  1 20  1  0  0  0  0
  2 15  1  6  0  0  0
  2  3  1  0  0  0  0
  2 11  1  0  0  0  0
  3  5  1  0  0  0  0
  4 16  1  6  0  0  0
  4 21  1  0  0  0  0
  4 22  2  0  0  0  0
  4 14  1  0  0  0  0
  5  1  1  1  0  0  0
  5  8  1  0  0  0  0
  6 17  2  0  0  0  0
  6 12  1  0  0  0  0
  8  7  1  6  0  0  0
  8 11  1  0  0  0  0
  9 19  1  0  0  0  0
 11 10  1  1  0  0  0
 12 20  2  0  0  0  0
 12 19  1  0  0  0  0
 13 20  1  0  0  0  0
 14 15  1  0  0  0  0
 18 19  2  0  0  0  0
M  CHG  1  21  -1
M  END
>  <CHROM.1>
47.90382221,171.93120914,-59.21284282,178.88787437,-133.12079440,-28.42699882
5.10329410,-10.34854106,-2.53712920,0.34388419,0.33482490

>  <Name>
ligand

>  <RI>
0

>  <Rbt.Current_Directory>
/home/itssahil/PROJECTS/Mol_Feturizer/New_Systems/rnas/4XWF

>  <Rbt.Executable>
rbdock ($Id: //depot/dev/client3/rdock/2013.1/src/exe/rbdock.cxx#4 $)

>  <Rbt.Library>
libRbt.so (2013.1, Build901 2013/11/27)

>  <Rbt.Parameter_File>
/export/apps/rDock/src/rDock_2013.1_src/data/scripts/dock_solv.prm

>  <Rbt.Receptor>
prm/pocket_docking_2.prm

>  <SCORE>
-1.93422

>  <SCORE.INTER>
-0.819827

>  <SCORE.INTER.CONST>
1

>  <SCORE.INTER.POLAR>
0

>  <SCORE.INTER.ROT>
5

>  <SCORE.INTER.SOLV>
8.72789

>  <SCORE.INTER.VDW>
-10.3892

>  <SCORE.INTER.norm>
-0.0372649

>  <SCORE.INTRA>
-1.11439

>  <SCORE.INTRA.DIHEDRAL>
-1.60776

>  <SCORE.INTRA.DIHEDRAL.0>
3.49807

>  <SCORE.INTRA.POLAR>
0

>  <SCORE.INTRA.POLAR.0>
0

>  <SCORE.INTRA.REPUL>
0

>  <SCORE.INTRA.REPUL.0>
0

>  <SCORE.INTRA.SOLV>
-0.395134

>  <SCORE.INTRA.SOLV.lig_0>
-73.062

>  <SCORE.INTRA.VDW>
-0.112944

>  <SCORE.INTRA.VDW.0>
-1.83782

>  <SCORE.INTRA.norm>
-0.0506541

>  <SCORE.RESTR>
0

>  <SCORE.RESTR.CAVITY>
0

>  <SCORE.RESTR.norm>
0

>  <SCORE.SYSTEM>
0

>  <SCORE.SYSTEM.CONST>
0

>  <SCORE.SYSTEM.DIHEDRAL>
0

>  <SCORE.SYSTEM.SOLV>
0

>  <SCORE.SYSTEM.norm>
0

>  <SCORE.heavy>
22

>  <SCORE.norm>
-0.087919

>  <RMSD>
1.433

$$$$
ligand
 OpenBabel11021811513D
libRbt.so/2013.1/901 2013/11/27
 22 23  0  0  0  0  0  0  0  0999 V2000
  -29.6690    3.7212  -10.1046 N   0  0  0  0  0  0  0  0  0  0  0  0
  -26.4729    4.7921   -9.8036 C   0  0  1  0  0  0  0  0  0  0  0  0
  -27.5053    3.8850   -9.3227 O   0  0  0  0  0  0  0  0  0  0  0  0
  -25.6595    8.4318   -9.1332 P   0  0  1  0  0  0  0  0  0  0  0  0
  -28.3430    3.5342  -10.4360 C   0  0  2  0  0  0  0  0  0  0  0  0
  -31.4994    4.6617   -9.4145 N   0  0  0  0  0  0  0  0  0  0  0  0
  -28.3384    4.0171  -12.7733 O   0  0  0  0  0  0  0  0  0  0  0  0
  -28.0261    4.5384  -11.4762 C   0  0  2  0  0  0  0  0  0  0  0  0
  -33.2772    1.4484  -10.0692 N   0  0  0  0  0  0  0  0  0  0  0  0
  -25.8194    3.7098  -11.7774 O   0  0  0  0  0  0  0  0  0  0  0  0
  -26.6066    4.8034  -11.2768 C   0  0  2  0  0  0  0  0  0  0  0  0
  -31.8012    3.4307   -9.8552 C   0  0  0  0  0  0  0  0  0  0  0  0
  -30.5399    1.5414  -10.8566 N   0  0  0  0  0  0  0  0  0  0  0  0
  -25.6799    6.9293   -9.5811 O   0  0  0  0  0  0  0  0  0  0  0  0
  -26.7601    6.1320   -9.2187 C   0  0  0  0  0  0  0  0  0  0  0  0
  -26.9315    9.0327   -9.8342 O   0  0  0  0  0  0  0  0  0  0  0  0
  -30.1727    4.8373   -9.5650 C   0  0  0  0  0  0  0  0  0  0  0  0
  -34.1477    3.5205   -9.7029 O   0  0  0  0  0  0  0  0  0  0  0  0
  -33.1453    2.8241   -9.8623 C   0  0  0  0  0  0  0  0  0  0  0  0
  -30.6542    2.8334  -10.2943 C   0  0  0  0  0  0  0  0  0  0  0  0
  -25.6769    8.5120   -7.6428 O   0  5  0  0  0  0  0  0  0  0  0  0
  -24.3600    9.0528   -9.4468 O   0  0  0  0  0  0  0  0  0  0  0  0
  1 17  1  0  0  0  0
  1 20  1  0  0  0  0
  2 15  1  1  0  0  0
  2  3  1  0  0  0  0
  2 11  1  0  0  0  0
  3  5  1  0  0  0  0
  4 16  1  6  0  0  0
  4 21  1  0  0  0  0
  4 22  2  0  0  0  0
  4 14  1  0  0  0  0
  5  1  1  1  0  0  0
  5  8  1  0  0  0  0
  6 17  2  0  0  0  0
  6 12  1  0  0  0  0
  8  7  1  6  0  0  0
  8 11  1  0  0  0  0
  9 19  1  0  0  0  0
 11 10  1  6  0  0  0
 12 20  2  0  0  0  0
 12 19  1  0  0  0  0
 13 20  1  0  0  0  0
 14 15  1  0  0  0  0
 18 19  2  0  0  0  0
M  CHG  1  21  -1
M  END
>  <CHROM.1>
50.38004662,173.76657155,-61.66882272,179.52733569,-165.98182180,-28.41186126
5.11107890,-10.01093797,-2.52034210,0.28660662,0.53776029

>  <Name>
ligand

>  <RI>
0

>  <Rbt.Current_Directory>
/home/itssahil/PROJECTS/Mol_Feturizer/New_Systems/rnas/4XWF

>  <Rbt.Executable>
rbdock ($Id: //depot/dev/client3/rdock/2013.1/src/exe/rbdock.cxx#4 $)

>  <Rbt.Library>
libRbt.so (2013.1, Build901 2013/11/27)

>  <Rbt.Parameter_File>
/export/apps/rDock/src/rDock_2013.1_src/data/scripts/dock_solv.prm

>  <Rbt.Receptor>
prm/pocket_docking_2.prm

>  <SCORE>
-1.44841

>  <SCORE.INTER>
-1.1461

>  <SCORE.INTER.CONST>
1

>  <SCORE.INTER.POLAR>
0

>  <SCORE.INTER.ROT>
5

>  <SCORE.INTER.SOLV>
11.1823

>  <SCORE.INTER.VDW>
-11.4248

>  <SCORE.INTER.norm>
-0.0520953

>  <SCORE.INTRA>
-0.302317

>  <SCORE.INTRA.DIHEDRAL>
-0.432172

>  <SCORE.INTRA.DIHEDRAL.0>
3.49807

>  <SCORE.INTRA.POLAR>
0

>  <SCORE.INTRA.POLAR.0>
0

>  <SCORE.INTRA.REPUL>
0

>  <SCORE.INTRA.REPUL.0>
0

>  <SCORE.INTRA.SOLV>
-0.2759

>  <SCORE.INTRA.SOLV.lig_0>
-73.062

>  <SCORE.INTRA.VDW>
0.051719

>  <SCORE.INTRA.VDW.0>
-1.83782

>  <SCORE.INTRA.norm>
-0.0137417

>  <SCORE.RESTR>
0

>  <SCORE.RESTR.CAVITY>
0

>  <SCORE.RESTR.norm>
0

>  <SCORE.SYSTEM>
0

>  <SCORE.SYSTEM.CONST>
0

>  <SCORE.SYSTEM.DIHEDRAL>
0

>  <SCORE.SYSTEM.SOLV>
0

>  <SCORE.SYSTEM.norm>
0

>  <SCORE.heavy>
22

>  <SCORE.norm>
-0.0658369

>  <RMSD>
1.435

$$$$
ligand
 OpenBabel11021811513D
libRbt.so/2013.1/901 2013/11/27
 22 23  0  0  0  0  0  0  0  0999 V2000
  -29.6844    3.7932   -9.9708 N   0  0  0  0  0  0  0  0  0  0  0  0
  -26.4806    4.8758  -10.0977 C   0  0  1  0  0  0  0  0  0  0  0  0
  -27.4784    4.1021   -9.3727 O   0  0  0  0  0  0  0  0  0  0  0  0
  -25.5927    8.5578  -10.1912 P   0  0  1  0  0  0  0  0  0  0  0  0
  -28.3799    3.5278  -10.3328 C   0  0  2  0  0  0  0  0  0  0  0  0
  -31.4669    4.8717   -9.3618 N   0  0  0  0  0  0  0  0  0  0  0  0
  -28.5178    3.4981  -12.7152 O   0  0  0  0  0  0  0  0  0  0  0  0
  -28.1304    4.2828  -11.5812 C   0  0  2  0  0  0  0  0  0  0  0  0
  -33.3106    1.8496   -8.6389 N   0  0  0  0  0  0  0  0  0  0  0  0
  -25.9422    3.3896  -11.8285 O   0  0  0  0  0  0  0  0  0  0  0  0
  -26.7026    4.5720  -11.5283 C   0  0  2  0  0  0  0  0  0  0  0  0
  -31.8024    3.5883   -9.5642 C   0  0  0  0  0  0  0  0  0  0  0  0
  -30.6129    1.5314  -10.2838 N   0  0  0  0  0  0  0  0  0  0  0  0
  -25.6767    7.0027  -10.3734 O   0  0  0  0  0  0  0  0  0  0  0  0
  -26.7379    6.3125   -9.7980 C   0  0  0  0  0  0  0  0  0  0  0  0
  -25.4938    8.7318   -8.6322 O   0  0  0  0  0  0  0  0  0  0  0  0
  -30.1489    4.9949   -9.6093 C   0  0  0  0  0  0  0  0  0  0  0  0
  -34.1271    3.5414   -9.9260 O   0  0  0  0  0  0  0  0  0  0  0  0
  -33.1499    3.0136   -9.3953 C   0  0  0  0  0  0  0  0  0  0  0  0
  -30.6858    2.9034   -9.9509 C   0  0  0  0  0  0  0  0  0  0  0  0
  -24.4226    9.0900  -10.9498 O   0  5  0  0  0  0  0  0  0  0  0  0
  -26.7154    9.2252  -10.8744 O   0  0  0  0  0  0  0  0  0  0  0  0
  1 17  1  0  0  0  0
  1 20  1  0  0  0  0
  2 15  1  6  0  0  0
  2  3  1  0  0  0  0
  2 11  1  0  0  0  0
  3  5  1  0  0  0  0
  4 16  1  1  0  0  0
  4 21  1  0  0  0  0
  4 22  2  0  0  0  0
  4 14  1  0  0  0  0
  5  1  1  1  0  0  0
  5  8  1  0  0  0  0
  6 17  2  0  0  0  0
  6 12  1  0  0  0  0
  8  7  1  6  0  0  0
  8 11  1  0  0  0  0
  9 19  1  0  0  0  0
 11 10  1  1  0  0  0
 12 20  2  0  0  0  0
 12 19  1  0  0  0  0
 13 20  1  0  0  0  0
 14 15  1  0  0  0  0
 18 19  2  0  0  0  0
M  CHG  1  21  -1
M  END
>  <CHROM.1>
47.92550391,173.09287812,60.57480171,-177.22572831,-130.24005433,-28.41447023
5.16023051,-10.24826329,-2.55600957,0.33960867,0.34935408

>  <Name>
ligand

>  <RI>
0

>  <Rbt.Current_Directory>
/home/itssahil/PROJECTS/Mol_Feturizer/New_Systems/rnas/4XWF

>  <Rbt.Executable>
rbdock ($Id: //depot/dev/client3/rdock/2013.1/src/exe/rbdock.cxx#4 $)

>  <Rbt.Library>
libRbt.so (2013.1, Build901 2013/11/27)

>  <Rbt.Parameter_File>
/export/apps/rDock/src/rDock_2013.1_src/data/scripts/dock_solv.prm

>  <Rbt.Receptor>
prm/pocket_docking_2.prm

>  <SCORE>
-1.82687

>  <SCORE.INTER>
-0.639452

>  <SCORE.INTER.CONST>
1

>  <SCORE.INTER.POLAR>
0

>  <SCORE.INTER.ROT>
5

>  <SCORE.INTER.SOLV>
8.60354

>  <SCORE.INTER.VDW>
-10.2275

>  <SCORE.INTER.norm>
-0.029066

>  <SCORE.INTRA>
-1.18742

>  <SCORE.INTRA.DIHEDRAL>
-1.70273

>  <SCORE.INTRA.DIHEDRAL.0>
3.49807

>  <SCORE.INTRA.POLAR>
0

>  <SCORE.INTRA.POLAR.0>
0

>  <SCORE.INTRA.REPUL>
0

>  <SCORE.INTRA.REPUL.0>
0

>  <SCORE.INTRA.SOLV>
-0.451085

>  <SCORE.INTRA.SOLV.lig_0>
-73.062

>  <SCORE.INTRA.VDW>
-0.110506

>  <SCORE.INTRA.VDW.0>
-1.83782

>  <SCORE.INTRA.norm>
-0.0539734

>  <SCORE.RESTR>
0

>  <SCORE.RESTR.CAVITY>
0

>  <SCORE.RESTR.norm>
0

>  <SCORE.SYSTEM>
0

>  <SCORE.SYSTEM.CONST>
0

>  <SCORE.SYSTEM.DIHEDRAL>
0

>  <SCORE.SYSTEM.SOLV>
0

>  <SCORE.SYSTEM.norm>
0

>  <SCORE.heavy>
22

>  <SCORE.norm>
-0.0830394

>  <RMSD>
1.448

$$$$
ligand
 OpenBabel11021811513D
libRbt.so/2013.1/901 2013/11/27
 22 23  0  0  0  0  0  0  0  0999 V2000
  -29.7788    3.7961   -9.9022 N   0  0  0  0  0  0  0  0  0  0  0  0
  -26.5725    4.8786   -9.9299 C   0  0  1  0  0  0  0  0  0  0  0  0
  -27.6000    4.1282   -9.2221 O   0  0  0  0  0  0  0  0  0  0  0  0
  -25.7277    8.5633  -10.1913 P   0  0  1  0  0  0  0  0  0  0  0  0
  -28.4601    3.5207  -10.1996 C   0  0  2  0  0  0  0  0  0  0  0  0
  -31.5900    4.8943   -9.4282 N   0  0  0  0  0  0  0  0  0  0  0  0
  -28.4972    3.4108  -12.5834 O   0  0  0  0  0  0  0  0  0  0  0  0
  -28.1581    4.2337  -11.4611 C   0  0  2  0  0  0  0  0  0  0  0  0
  -33.4247    1.8652   -8.6338 N   0  0  0  0  0  0  0  0  0  0  0  0
  -25.9614    3.3360  -11.5856 O   0  0  0  0  0  0  0  0  0  0  0  0
  -26.7338    4.5267  -11.3576 C   0  0  2  0  0  0  0  0  0  0  0  0
  -31.9084    3.5973   -9.5585 C   0  0  0  0  0  0  0  0  0  0  0  0
  -30.6784    1.5098  -10.1001 N   0  0  0  0  0  0  0  0  0  0  0  0
  -25.7676    6.9973  -10.2603 O   0  0  0  0  0  0  0  0  0  0  0  0
  -26.8424    6.3242   -9.6898 C   0  0  0  0  0  0  0  0  0  0  0  0
  -25.6549    8.8529   -8.6481 O   0  0  0  0  0  0  0  0  0  0  0  0
  -30.2649    5.0141   -9.6363 C   0  0  0  0  0  0  0  0  0  0  0  0
  -34.2282    3.5416   -9.9490 O   0  0  0  0  0  0  0  0  0  0  0  0
  -33.2568    3.0215   -9.4005 C   0  0  0  0  0  0  0  0  0  0  0  0
  -30.7735    2.8998   -9.8600 C   0  0  0  0  0  0  0  0  0  0  0  0
  -24.5619    9.0711  -10.9729 O   0  5  0  0  0  0  0  0  0  0  0  0
  -26.8583    9.1479  -10.9346 O   0  0  0  0  0  0  0  0  0  0  0  0
  1 17  1  0  0  0  0
  1 20  1  0  0  0  0
  2 15  1  6  0  0  0
  2  3  1  0  0  0  0
  2 11  1  0  0  0  0
  3  5  1  0  0  0  0
  4 16  1  1  0  0  0
  4 21  1  0  0  0  0
  4 22  2  0  0  0  0
  4 14  1  0  0  0  0
  5  1  1  1  0  0  0
  5  8  1  0  0  0  0
  6 17  2  0  0  0  0
  6 12  1  0  0  0  0
  8  7  1  6  0  0  0
  8 11  1  0  0  0  0
  9 19  1  0  0  0  0
 11 10  1  1  0  0  0
 12 20  2  0  0  0  0
 12 19  1  0  0  0  0
 13 20  1  0  0  0  0
 14 15  1  0  0  0  0
 18 19  2  0  0  0  0
M  CHG  1  21  -1
M  END
>  <CHROM.1>
49.81456860,173.95049128,62.84594142,179.91596061,-133.64617946,-28.50959054
5.15474523,-10.18467278,-2.53630574,0.30287255,0.28881128

>  <Name>
ligand

>  <RI>
0

>  <Rbt.Current_Directory>
/home/itssahil/PROJECTS/Mol_Feturizer/New_Systems/rnas/4XWF

>  <Rbt.Executable>
rbdock ($Id: //depot/dev/client3/rdock/2013.1/src/exe/rbdock.cxx#4 $)

>  <Rbt.Library>
libRbt.so (2013.1, Build901 2013/11/27)

>  <Rbt.Parameter_File>
/export/apps/rDock/src/rDock_2013.1_src/data/scripts/dock_solv.prm

>  <Rbt.Receptor>
prm/pocket_docking_2.prm

>  <SCORE>
-1.78127

>  <SCORE.INTER>
-0.643639

>  <SCORE.INTER.CONST>
1

>  <SCORE.INTER.POLAR>
0

>  <SCORE.INTER.ROT>
5

>  <SCORE.INTER.SOLV>
8.69227

>  <SCORE.INTER.VDW>
-10.2599

>  <SCORE.INTER.norm>
-0.0292563

>  <SCORE.INTRA>
-1.13763

>  <SCORE.INTRA.DIHEDRAL>
-1.68797

>  <SCORE.INTRA.DIHEDRAL.0>
3.49807

>  <SCORE.INTRA.POLAR>
0

>  <SCORE.INTRA.POLAR.0>
0

>  <SCORE.INTRA.REPUL>
0

>  <SCORE.INTRA.REPUL.0>
0

>  <SCORE.INTRA.SOLV>
-0.418135

>  <SCORE.INTRA.SOLV.lig_0>
-73.062

>  <SCORE.INTRA.VDW>
-0.0845764

>  <SCORE.INTRA.VDW.0>
-1.83782

>  <SCORE.INTRA.norm>
-0.0517104

>  <SCORE.RESTR>
0

>  <SCORE.RESTR.CAVITY>
0

>  <SCORE.RESTR.norm>
0

>  <SCORE.SYSTEM>
0

>  <SCORE.SYSTEM.CONST>
0

>  <SCORE.SYSTEM.DIHEDRAL>
0

>  <SCORE.SYSTEM.SOLV>
0

>  <SCORE.SYSTEM.norm>
0

>  <SCORE.heavy>
22

>  <SCORE.norm>
-0.0809667

>  <RMSD>
1.533

$$$$
ligand
 OpenBabel11021811513D
libRbt.so/2013.1/901 2013/11/27
 22 23  0  0  0  0  0  0  0  0999 V2000
  -29.8014    3.8347   -9.9401 N   0  0  0  0  0  0  0  0  0  0  0  0
  -26.6151    4.9066   -9.5520 C   0  0  1  0  0  0  0  0  0  0  0  0
  -27.6752    4.0335   -9.0687 O   0  0  0  0  0  0  0  0  0  0  0  0
  -25.8501    8.5942   -9.1333 P   0  0  1  0  0  0  0  0  0  0  0  0
  -28.4628    3.6229  -10.1980 C   0  0  2  0  0  0  0  0  0  0  0  0
  -31.6596    4.8292   -9.4211 N   0  0  0  0  0  0  0  0  0  0  0  0
  -28.3464    3.9703  -12.5563 O   0  0  0  0  0  0  0  0  0  0  0  0
  -28.0909    4.5641  -11.2780 C   0  0  2  0  0  0  0  0  0  0  0  0
  -33.4652    1.6897  -10.3308 N   0  0  0  0  0  0  0  0  0  0  0  0
  -25.8785    3.7095  -11.4279 O   0  0  0  0  0  0  0  0  0  0  0  0
  -26.6802    4.8337  -11.0281 C   0  0  2  0  0  0  0  0  0  0  0  0
  -31.9415    3.5588   -9.7484 C   0  0  0  0  0  0  0  0  0  0  0  0
  -30.6380    1.5860  -10.5050 N   0  0  0  0  0  0  0  0  0  0  0  0
  -25.8583    7.0676   -9.4908 O   0  0  0  0  0  0  0  0  0  0  0  0
  -26.9194    6.2794   -9.0590 C   0  0  0  0  0  0  0  0  0  0  0  0
  -25.7703    8.5949   -7.5636 O   0  0  0  0  0  0  0  0  0  0  0  0
  -30.3282    4.9962   -9.5352 C   0  0  0  0  0  0  0  0  0  0  0  0
  -34.2423    3.5403   -9.2552 O   0  0  0  0  0  0  0  0  0  0  0  0
  -33.2834    2.9471   -9.7486 C   0  0  0  0  0  0  0  0  0  0  0  0
  -30.7768    2.9270  -10.0794 C   0  0  0  0  0  0  0  0  0  0  0  0
  -24.7016    9.2631   -9.8127 O   0  5  0  0  0  0  0  0  0  0  0  0
  -26.9987    9.2815   -9.7505 O   0  0  0  0  0  0  0  0  0  0  0  0
  1 17  1  0  0  0  0
  1 20  1  0  0  0  0
  2 15  1  6  0  0  0
  2  3  1  0  0  0  0
  2 11  1  0  0  0  0
  3  5  1  0  0  0  0
  4 16  1  1  0  0  0
  4 21  1  0  0  0  0
  4 22  2  0  0  0  0
  4 14  1  0  0  0  0
  5  1  1  1  0  0  0
  5  8  1  0  0  0  0
  6 17  2  0  0  0  0
  6 12  1  0  0  0  0
  8  7  1  6  0  0  0
  8 11  1  0  0  0  0
  9 19  1  0  0  0  0
 11 10  1  1  0  0  0
 12 20  2  0  0  0  0
 12 19  1  0  0  0  0
 13 20  1  0  0  0  0
 14 15  1  0  0  0  0
 18 19  2  0  0  0  0
M  CHG  1  21  -1
M  END
>  <CHROM.1>
52.89529033,177.49355094,63.34332293,-179.65242444,168.90797564,-28.54656565
5.22434473,-9.88340827,-2.50564817,0.26603530,0.47356149

>  <Name>
ligand

>  <RI>
0

>  <Rbt.Current_Directory>
/home/itssahil/PROJECTS/Mol_Feturizer/New_Systems/rnas/4XWF

>  <Rbt.Executable>
rbdock ($Id: //depot/dev/client3/rdock/2013.1/src/exe/rbdock.cxx#4 $)

>  <Rbt.Library>
libRbt.so (2013.1, Build901 2013/11/27)

>  <Rbt.Parameter_File>
/export/apps/rDock/src/rDock_2013.1_src/data/scripts/dock_solv.prm

>  <Rbt.Receptor>
prm/pocket_docking_2.prm

>  <SCORE>
-1.47652

>  <SCORE.INTER>
-1.25161

>  <SCORE.INTER.CONST>
1

>  <SCORE.INTER.POLAR>
0

>  <SCORE.INTER.ROT>
5

>  <SCORE.INTER.SOLV>
10.6176

>  <SCORE.INTER.VDW>
-11.3069

>  <SCORE.INTER.norm>
-0.0568912

>  <SCORE.INTRA>
-0.224911

>  <SCORE.INTRA.DIHEDRAL>
-0.440883

>  <SCORE.INTRA.DIHEDRAL.0>
3.49807

>  <SCORE.INTRA.POLAR>
0

>  <SCORE.INTRA.POLAR.0>
0

>  <SCORE.INTRA.REPUL>
0

>  <SCORE.INTRA.REPUL.0>
0

>  <SCORE.INTRA.SOLV>
-0.320015

>  <SCORE.INTRA.SOLV.lig_0>
-73.062

>  <SCORE.INTRA.VDW>
0.155539

>  <SCORE.INTRA.VDW.0>
-1.83782

>  <SCORE.INTRA.norm>
-0.0102232

>  <SCORE.RESTR>
0

>  <SCORE.RESTR.CAVITY>
0

>  <SCORE.RESTR.norm>
0

>  <SCORE.SYSTEM>
0

>  <SCORE.SYSTEM.CONST>
0

>  <SCORE.SYSTEM.DIHEDRAL>
0

>  <SCORE.SYSTEM.SOLV>
0

>  <SCORE.SYSTEM.norm>
0

>  <SCORE.heavy>
22

>  <SCORE.norm>
-0.0671144

>  <RMSD>
1.613

$$$$
ligand
 OpenBabel11021811513D
libRbt.so/2013.1/901 2013/11/27
 22 23  0  0  0  0  0  0  0  0999 V2000
  -29.8282    4.0522   -9.8188 N   0  0  0  0  0  0  0  0  0  0  0  0
  -26.8015    5.5629   -9.9144 C   0  0  1  0  0  0  0  0  0  0  0  0
  -27.7502    4.7818   -9.1336 O   0  0  0  0  0  0  0  0  0  0  0  0
  -26.4602    9.2541  -10.7000 P   0  0  1  0  0  0  0  0  0  0  0  0
  -28.4715    3.9271  -10.0356 C   0  0  2  0  0  0  0  0  0  0  0  0
  -31.7570    4.9167   -9.3256 N   0  0  0  0  0  0  0  0  0  0  0  0
  -28.3783    3.4785  -12.3778 O   0  0  0  0  0  0  0  0  0  0  0  0
  -28.2089    4.4909  -11.3788 C   0  0  2  0  0  0  0  0  0  0  0  0
  -34.4207    3.6597   -9.4527 N   0  0  0  0  0  0  0  0  0  0  0  0
  -25.9070    3.9048  -11.3090 O   0  0  0  0  0  0  0  0  0  0  0  0
  -26.8443    4.9942  -11.2793 C   0  0  2  0  0  0  0  0  0  0  0  0
  -31.9544    3.6494   -9.7199 C   0  0  0  0  0  0  0  0  0  0  0  0
  -30.5148    1.7895  -10.5148 N   0  0  0  0  0  0  0  0  0  0  0  0
  -26.2929    7.7016  -10.5576 O   0  0  0  0  0  0  0  0  0  0  0  0
  -27.2767    6.9750   -9.8958 C   0  0  0  0  0  0  0  0  0  0  0  0
  -25.1865    9.6790  -11.5169 O   0  0  0  0  0  0  0  0  0  0  0  0
  -30.4342    5.1624   -9.3822 C   0  0  0  0  0  0  0  0  0  0  0  0
  -33.3276    1.7871  -10.1485 O   0  0  0  0  0  0  0  0  0  0  0  0
  -33.2583    2.9649   -9.7977 C   0  0  0  0  0  0  0  0  0  0  0  0
  -30.7447    3.0993  -10.0351 C   0  0  0  0  0  0  0  0  0  0  0  0
  -27.7578    9.5601  -11.3712 O   0  5  0  0  0  0  0  0  0  0  0  0
  -26.6555    9.8816   -9.3806 O   0  0  0  0  0  0  0  0  0  0  0  0
  1 17  1  0  0  0  0
  1 20  1  0  0  0  0
  2 15  1  6  0  0  0
  2  3  1  0  0  0  0
  2 11  1  0  0  0  0
  3  5  1  0  0  0  0
  4 16  1  6  0  0  0
  4 21  1  0  0  0  0
  4 22  2  0  0  0  0
  4 14  1  0  0  0  0
  5  1  1  1  0  0  0
  5  8  1  0  0  0  0
  6 17  2  0  0  0  0
  6 12  1  0  0  0  0
  8  7  1  6  0  0  0
  8 11  1  0  0  0  0
  9 19  1  0  0  0  0
 11 10  1  1  0  0  0
 12 20  2  0  0  0  0
 12 19  1  0  0  0  0
 13 20  1  0  0  0  0
 14 15  1  0  0  0  0
 18 19  2  0  0  0  0
M  CHG  1  21  -1
M  END
>  <CHROM.1>
30.25556540,175.39146432,-178.74859134,-178.86109959,0.64671734,-28.76777403
5.54318486,-10.36963662,-2.39536443,0.26629170,0.14881239

>  <Name>
ligand

>  <RI>
0

>  <Rbt.Current_Directory>
/home/itssahil/PROJECTS/Mol_Feturizer/New_Systems/rnas/4XWF

>  <Rbt.Executable>
rbdock ($Id: //depot/dev/client3/rdock/2013.1/src/exe/rbdock.cxx#4 $)

>  <Rbt.Library>
libRbt.so (2013.1, Build901 2013/11/27)

>  <Rbt.Parameter_File>
/export/apps/rDock/src/rDock_2013.1_src/data/scripts/dock_solv.prm

>  <Rbt.Receptor>
prm/pocket_docking_3.prm

>  <SCORE>
-2.78692

>  <SCORE.INTER>
-2.09965

>  <SCORE.INTER.CONST>
1

>  <SCORE.INTER.POLAR>
0

>  <SCORE.INTER.ROT>
5

>  <SCORE.INTER.SOLV>
11.6798

>  <SCORE.INTER.VDW>
-12.2264

>  <SCORE.INTER.norm>
-0.0954385

>  <SCORE.INTRA>
-0.687272

>  <SCORE.INTRA.DIHEDRAL>
-1.94414

>  <SCORE.INTRA.DIHEDRAL.0>
3.49807

>  <SCORE.INTRA.POLAR>
0

>  <SCORE.INTRA.POLAR.0>
0

>  <SCORE.INTRA.REPUL>
0

>  <SCORE.INTRA.REPUL.0>
0

>  <SCORE.INTRA.SOLV>
0.715424

>  <SCORE.INTRA.SOLV.lig_0>
-73.062

>  <SCORE.INTRA.VDW>
-0.0729147

>  <SCORE.INTRA.VDW.0>
-1.83782

>  <SCORE.INTRA.norm>
-0.0312396

>  <SCORE.RESTR>
0

>  <SCORE.RESTR.CAVITY>
0

>  <SCORE.RESTR.norm>
0

>  <SCORE.SYSTEM>
0

>  <SCORE.SYSTEM.CONST>
0

>  <SCORE.SYSTEM.DIHEDRAL>
0

>  <SCORE.SYSTEM.SOLV>
0

>  <SCORE.SYSTEM.norm>
0

>  <SCORE.heavy>
22

>  <SCORE.norm>
-0.126678

>  <RMSD>
1.728

$$$$
ligand
 OpenBabel11021811513D
libRbt.so/2013.1/901 2013/11/27
 22 23  0  0  0  0  0  0  0  0999 V2000
  -29.7832    3.9488   -9.9180 N   0  0  0  0  0  0  0  0  0  0  0  0
  -26.7545    5.4509  -10.0708 C   0  0  1  0  0  0  0  0  0  0  0  0
  -27.6886    4.6683   -9.2740 O   0  0  0  0  0  0  0  0  0  0  0  0
  -26.3701    9.1580  -10.7524 P   0  0  1  0  0  0  0  0  0  0  0  0
  -28.4320    3.8208  -10.1648 C   0  0  2  0  0  0  0  0  0  0  0  0
  -31.6984    4.8169   -9.3800 N   0  0  0  0  0  0  0  0  0  0  0  0
  -28.3909    3.3849  -12.5109 O   0  0  0  0  0  0  0  0  0  0  0  0
  -28.1967    4.3912  -11.5102 C   0  0  2  0  0  0  0  0  0  0  0  0
  -34.3716    3.5774   -9.4850 N   0  0  0  0  0  0  0  0  0  0  0  0
  -25.8957    3.7977  -11.4935 O   0  0  0  0  0  0  0  0  0  0  0  0
  -26.8287    4.8898  -11.4376 C   0  0  2  0  0  0  0  0  0  0  0  0
  -31.9079    3.5513   -9.7736 C   0  0  0  0  0  0  0  0  0  0  0  0
  -30.4911    1.6900  -10.6054 N   0  0  0  0  0  0  0  0  0  0  0  0
  -26.2270    7.5990  -10.6653 O   0  0  0  0  0  0  0  0  0  0  0  0
  -27.2248    6.8642  -10.0343 C   0  0  0  0  0  0  0  0  0  0  0  0
  -26.3547    9.6047   -9.2455 O   0  0  0  0  0  0  0  0  0  0  0  0
  -30.3765    5.0594   -9.4649 C   0  0  0  0  0  0  0  0  0  0  0  0
  -33.2919    1.6856  -10.1491 O   0  0  0  0  0  0  0  0  0  0  0  0
  -33.2150    2.8706   -9.8249 C   0  0  0  0  0  0  0  0  0  0  0  0
  -30.7068    2.9990  -10.1169 C   0  0  0  0  0  0  0  0  0  0  0  0
  -25.2595    9.7191  -11.5768 O   0  5  0  0  0  0  0  0  0  0  0  0
  -27.5496    9.5303  -11.5542 O   0  0  0  0  0  0  0  0  0  0  0  0
  1 17  1  0  0  0  0
  1 20  1  0  0  0  0
  2 15  1  6  0  0  0
  2  3  1  0  0  0  0
  2 11  1  0  0  0  0
  3  5  1  0  0  0  0
  4 16  1  1  0  0  0
  4 21  1  0  0  0  0
  4 22  2  0  0  0  0
  4 14  1  0  0  0  0
  5  1  1  1  0  0  0
  5  8  1  0  0  0  0
  6 17  2  0  0  0  0
  6 12  1  0  0  0  0
  8  7  1  6  0  0  0
  8 11  1  0  0  0  0
  9 19  1  0  0  0  0
 11 10  1  1  0  0  0
 12 20  2  0  0  0  0
 12 19  1  0  0  0  0
 13 20  1  0  0  0  0
 14 15  1  0  0  0  0
 18 19  2  0  0  0  0
M  CHG  1  21  -1
M  END
>  <CHROM.1>
30.40296616,173.03517936,62.83900572,-177.46173159,2.26041845,-28.70921647
5.44373053,-10.45671771,-2.40446384,0.28918021,0.17432772

>  <Name>
ligand

>  <RI>
0

>  <Rbt.Current_Directory>
/home/itssahil/PROJECTS/Mol_Feturizer/New_Systems/rnas/4XWF

>  <Rbt.Executable>
rbdock ($Id: //depot/dev/client3/rdock/2013.1/src/exe/rbdock.cxx#4 $)

>  <Rbt.Library>
libRbt.so (2013.1, Build901 2013/11/27)

>  <Rbt.Parameter_File>
/export/apps/rDock/src/rDock_2013.1_src/data/scripts/dock_solv.prm

>  <Rbt.Receptor>
prm/pocket_docking_3.prm

>  <SCORE>
-3.10939

>  <SCORE.INTER>
-2.09698

>  <SCORE.INTER.CONST>
1

>  <SCORE.INTER.POLAR>
0

>  <SCORE.INTER.ROT>
5

>  <SCORE.INTER.SOLV>
11.6664

>  <SCORE.INTER.VDW>
-12.2201

>  <SCORE.INTER.norm>
-0.0953173

>  <SCORE.INTRA>
-1.01241

>  <SCORE.INTRA.DIHEDRAL>
-1.81635

>  <SCORE.INTRA.DIHEDRAL.0>
3.49807

>  <SCORE.INTRA.POLAR>
0

>  <SCORE.INTRA.POLAR.0>
0

>  <SCORE.INTRA.REPUL>
0

>  <SCORE.INTRA.REPUL.0>
0

>  <SCORE.INTRA.SOLV>
0.000201532

>  <SCORE.INTRA.SOLV.lig_0>
-73.062

>  <SCORE.INTRA.VDW>
-0.104334

>  <SCORE.INTRA.VDW.0>
-1.83782

>  <SCORE.INTRA.norm>
-0.0460185

>  <SCORE.RESTR>
0

>  <SCORE.RESTR.CAVITY>
0

>  <SCORE.RESTR.norm>
0

>  <SCORE.SYSTEM>
0

>  <SCORE.SYSTEM.CONST>
0

>  <SCORE.SYSTEM.DIHEDRAL>
0

>  <SCORE.SYSTEM.SOLV>
0

>  <SCORE.SYSTEM.norm>
0

>  <SCORE.heavy>
22

>  <SCORE.norm>
-0.141336

>  <RMSD>
1.739

$$$$
ligand
 OpenBabel11021811513D
libRbt.so/2013.1/901 2013/11/27
 22 23  0  0  0  0  0  0  0  0999 V2000
  -29.7907    4.0277   -9.8664 N   0  0  0  0  0  0  0  0  0  0  0  0
  -26.8087    5.5760  -10.2700 C   0  0  1  0  0  0  0  0  0  0  0  0
  -27.6938    4.8503   -9.3702 O   0  0  0  0  0  0  0  0  0  0  0  0
  -27.5990    8.9689   -8.7796 P   0  0  1  0  0  0  0  0  0  0  0  0
  -28.4461    3.9074  -10.1508 C   0  0  2  0  0  0  0  0  0  0  0  0
  -31.7038    4.8958   -9.3209 N   0  0  0  0  0  0  0  0  0  0  0  0
  -28.4766    3.2566  -12.4468 O   0  0  0  0  0  0  0  0  0  0  0  0
  -28.2731    4.3555  -11.5508 C   0  0  2  0  0  0  0  0  0  0  0  0
  -33.2414    1.5698   -9.1510 N   0  0  0  0  0  0  0  0  0  0  0  0
  -25.9585    3.8174  -11.5658 O   0  0  0  0  0  0  0  0  0  0  0  0
  -26.9166    4.8889  -11.5756 C   0  0  2  0  0  0  0  0  0  0  0  0
  -31.9010    3.6033   -9.6229 C   0  0  0  0  0  0  0  0  0  0  0  0
  -30.4761    1.7161  -10.3788 N   0  0  0  0  0  0  0  0  0  0  0  0
  -27.1853    7.4822   -9.0573 O   0  0  0  0  0  0  0  0  0  0  0  0
  -27.3134    6.9758  -10.3461 C   0  0  0  0  0  0  0  0  0  0  0  0
  -27.2433    9.1629   -7.2609 O   0  0  0  0  0  0  0  0  0  0  0  0
  -30.3905    5.1553   -9.4672 C   0  0  0  0  0  0  0  0  0  0  0  0
  -34.2281    3.4633   -9.9428 O   0  0  0  0  0  0  0  0  0  0  0  0
  -33.1954    2.8978   -9.5840 C   0  0  0  0  0  0  0  0  0  0  0  0
  -30.7014    3.0507   -9.9703 C   0  0  0  0  0  0  0  0  0  0  0  0
  -26.8643    9.8767   -9.7092 O   0  5  0  0  0  0  0  0  0  0  0  0
  -28.9976    9.2056   -9.1803 O   0  0  0  0  0  0  0  0  0  0  0  0
  1 17  1  0  0  0  0
  1 20  1  0  0  0  0
  2 15  1  6  0  0  0
  2  3  1  0  0  0  0
  2 11  1  0  0  0  0
  3  5  1  0  0  0  0
  4 16  1  1  0  0  0
  4 21  1  0  0  0  0
  4 22  2  0  0  0  0
  4 14  1  0  0  0  0
  5  1  1  1  0  0  0
  5  8  1  0  0  0  0
  6 17  2  0  0  0  0
  6 12  1  0  0  0  0
  8  7  1  6  0  0  0
  8 11  1  0  0  0  0
  9 19  1  0  0  0  0
 11 10  1  1  0  0  0
 12 20  2  0  0  0  0
 12 19  1  0  0  0  0
 13 20  1  0  0  0  0
 14 15  1  0  0  0  0
 18 19  2  0  0  0  0
M  CHG  1  21  -1
M  END
>  <CHROM.1>
28.85688694,63.40313862,-177.35775414,178.54286281,-142.82683407,-29.08016311
5.42299991,-9.86486019,-2.30832601,0.33536680,0.43803504

>  <Name>
ligand

>  <RI>
0

>  <Rbt.Current_Directory>
/home/itssahil/PROJECTS/Mol_Feturizer/New_Systems/rnas/4XWF

>  <Rbt.Executable>
rbdock ($Id: //depot/dev/client3/rdock/2013.1/src/exe/rbdock.cxx#4 $)

>  <Rbt.Library>
libRbt.so (2013.1, Build901 2013/11/27)

>  <Rbt.Parameter_File>
/export/apps/rDock/src/rDock_2013.1_src/data/scripts/dock_solv.prm

>  <Rbt.Receptor>
prm/pocket_docking_4.prm

>  <SCORE>
-2.5456

>  <SCORE.INTER>
-1.85986

>  <SCORE.INTER.CONST>
1

>  <SCORE.INTER.POLAR>
0

>  <SCORE.INTER.ROT>
5

>  <SCORE.INTER.SOLV>
9.25043

>  <SCORE.INTER.VDW>
-11.2567

>  <SCORE.INTER.norm>
-0.0845389

>  <SCORE.INTRA>
-0.68574

>  <SCORE.INTRA.DIHEDRAL>
-1.45522

>  <SCORE.INTRA.DIHEDRAL.0>
3.49807

>  <SCORE.INTRA.POLAR>
0

>  <SCORE.INTRA.POLAR.0>
0

>  <SCORE.INTRA.REPUL>
0

>  <SCORE.INTRA.REPUL.0>
0

>  <SCORE.INTRA.SOLV>
0.907501

>  <SCORE.INTRA.SOLV.lig_0>
-73.062

>  <SCORE.INTRA.VDW>
-0.411882

>  <SCORE.INTRA.VDW.0>
-1.83782

>  <SCORE.INTRA.norm>
-0.03117

>  <SCORE.RESTR>
0

>  <SCORE.RESTR.CAVITY>
0

>  <SCORE.RESTR.norm>
0

>  <SCORE.SYSTEM>
0

>  <SCORE.SYSTEM.CONST>
0

>  <SCORE.SYSTEM.DIHEDRAL>
0

>  <SCORE.SYSTEM.SOLV>
0

>  <SCORE.SYSTEM.norm>
0

>  <SCORE.heavy>
22

>  <SCORE.norm>
-0.115709

>  <RMSD>
2.128

$$$$
ligand
 OpenBabel11021811513D
libRbt.so/2013.1/901 2013/11/27
 22 23  0  0  0  0  0  0  0  0999 V2000
  -29.9343    4.0918   -9.7094 N   0  0  0  0  0  0  0  0  0  0  0  0
  -26.9558    5.6981   -9.7439 C   0  0  1  0  0  0  0  0  0  0  0  0
  -27.9173    4.9287   -8.9670 O   0  0  0  0  0  0  0  0  0  0  0  0
  -26.6972    9.3480  -10.7285 P   0  0  1  0  0  0  0  0  0  0  0  0
  -28.5652    4.0018   -9.8532 C   0  0  2  0  0  0  0  0  0  0  0  0
  -31.9083    4.9065   -9.3212 N   0  0  0  0  0  0  0  0  0  0  0  0
  -28.3408    3.4293  -12.1593 O   0  0  0  0  0  0  0  0  0  0  0  0
  -28.2537    4.5000  -11.2117 C   0  0  2  0  0  0  0  0  0  0  0  0
  -33.3292    1.5908  -10.3118 N   0  0  0  0  0  0  0  0  0  0  0  0
  -25.9408    3.9978  -10.9983 O   0  0  0  0  0  0  0  0  0  0  0  0
  -26.9124    5.0544  -11.0751 C   0  0  2  0  0  0  0  0  0  0  0  0
  -32.0517    3.6344   -9.7236 C   0  0  0  0  0  0  0  0  0  0  0  0
  -30.5244    1.8122  -10.4378 N   0  0  0  0  0  0  0  0  0  0  0  0
  -26.4862    7.8132  -10.4867 O   0  0  0  0  0  0  0  0  0  0  0  0
  -27.4757    7.0919   -9.8277 C   0  0  0  0  0  0  0  0  0  0  0  0
  -28.0383    9.4015  -11.5465 O   0  0  0  0  0  0  0  0  0  0  0  0
  -30.5911    5.1862   -9.3074 C   0  0  0  0  0  0  0  0  0  0  0  0
  -34.3975    3.4796   -9.6212 O   0  0  0  0  0  0  0  0  0  0  0  0
  -33.3316    2.9167   -9.8700 C   0  0  0  0  0  0  0  0  0  0  0  0
  -30.8131    3.1157   -9.9729 C   0  0  0  0  0  0  0  0  0  0  0  0
  -26.7414   10.0616   -9.4183 O   0  5  0  0  0  0  0  0  0  0  0  0
  -25.5032    9.9478  -11.3509 O   0  0  0  0  0  0  0  0  0  0  0  0
  1 17  1  0  0  0  0
  1 20  1  0  0  0  0
  2 15  1  6  0  0  0
  2  3  1  0  0  0  0
  2 11  1  0  0  0  0
  3  5  1  0  0  0  0
  4 16  1  6  0  0  0
  4 21  1  0  0  0  0
  4 22  2  0  0  0  0
  4 14  1  0  0  0  0
  5  1  1  1  0  0  0
  5  8  1  0  0  0  0
  6 17  2  0  0  0  0
  6 12  1  0  0  0  0
  8  7  1  6  0  0  0
  8 11  1  0  0  0  0
  9 19  1  0  0  0  0
 11 10  1  1  0  0  0
 12 20  2  0  0  0  0
 12 19  1  0  0  0  0
 13 20  1  0  0  0  0
 14 15  1  0  0  0  0
 18 19  2  0  0  0  0
M  CHG  1  21  -1
M  END
>  <CHROM.1>
27.08290303,175.65949144,-57.79819413,-178.99967892,179.45982576,-28.89473973
5.59244495,-10.30636687,-2.35534786,0.20996752,0.09076364

>  <Name>
ligand

>  <RI>
0

>  <Rbt.Current_Directory>
/home/itssahil/PROJECTS/Mol_Feturizer/New_Systems/rnas/4XWF

>  <Rbt.Executable>
rbdock ($Id: //depot/dev/client3/rdock/2013.1/src/exe/rbdock.cxx#4 $)

>  <Rbt.Library>
libRbt.so (2013.1, Build901 2013/11/27)

>  <Rbt.Parameter_File>
/export/apps/rDock/src/rDock_2013.1_src/data/scripts/dock_solv.prm

>  <Rbt.Receptor>
prm/pocket_docking_3.prm

>  <SCORE>
-2.7176

>  <SCORE.INTER>
-2.79359

>  <SCORE.INTER.CONST>
1

>  <SCORE.INTER.POLAR>
0

>  <SCORE.INTER.ROT>
5

>  <SCORE.INTER.SOLV>
10.6115

>  <SCORE.INTER.VDW>
-12.3329

>  <SCORE.INTER.norm>
-0.126981

>  <SCORE.INTRA>
0.0759839

>  <SCORE.INTRA.DIHEDRAL>
-0.301062

>  <SCORE.INTRA.DIHEDRAL.0>
3.49807

>  <SCORE.INTRA.POLAR>
0

>  <SCORE.INTRA.POLAR.0>
0

>  <SCORE.INTRA.REPUL>
0

>  <SCORE.INTRA.REPUL.0>
0

>  <SCORE.INTRA.SOLV>
0.477071

>  <SCORE.INTRA.SOLV.lig_0>
-73.062

>  <SCORE.INTRA.VDW>
-0.0120207

>  <SCORE.INTRA.VDW.0>
-1.83782

>  <SCORE.INTRA.norm>
0.00345382

>  <SCORE.RESTR>
0

>  <SCORE.RESTR.CAVITY>
0

>  <SCORE.RESTR.norm>
0

>  <SCORE.SYSTEM>
0

>  <SCORE.SYSTEM.CONST>
0

>  <SCORE.SYSTEM.DIHEDRAL>
0

>  <SCORE.SYSTEM.SOLV>
0

>  <SCORE.SYSTEM.norm>
0

>  <SCORE.heavy>
22

>  <SCORE.norm>
-0.123527

>  <RMSD>
2.147

$$$$
ligand
 OpenBabel11021811513D
libRbt.so/2013.1/901 2013/11/27
 22 23  0  0  0  0  0  0  0  0999 V2000
  -30.1798    4.2139   -9.3845 N   0  0  0  0  0  0  0  0  0  0  0  0
  -26.9787    5.2793   -9.6495 C   0  0  1  0  0  0  0  0  0  0  0  0
  -28.0032    4.6973   -8.7942 O   0  0  0  0  0  0  0  0  0  0  0  0
  -26.1709    8.8156  -10.7456 P   0  0  1  0  0  0  0  0  0  0  0  0
  -28.8596    3.8863   -9.6147 C   0  0  2  0  0  0  0  0  0  0  0  0
  -31.9803    5.3865   -9.0776 N   0  0  0  0  0  0  0  0  0  0  0  0
  -28.8943    3.2567  -11.9165 O   0  0  0  0  0  0  0  0  0  0  0  0
  -28.5600    4.3071  -11.0018 C   0  0  2  0  0  0  0  0  0  0  0  0
  -33.9634    2.7352   -7.8068 N   0  0  0  0  0  0  0  0  0  0  0  0
  -26.3589    3.4144  -10.9272 O   0  0  0  0  0  0  0  0  0  0  0  0
  -27.1372    4.6224  -10.9654 C   0  0  2  0  0  0  0  0  0  0  0  0
  -32.3212    4.0886   -9.0819 C   0  0  0  0  0  0  0  0  0  0  0  0
  -31.1197    1.9353   -9.3701 N   0  0  0  0  0  0  0  0  0  0  0  0
  -26.2034    7.2724  -10.4698 O   0  0  0  0  0  0  0  0  0  0  0  0
  -27.2555    6.7410   -9.7318 C   0  0  0  0  0  0  0  0  0  0  0  0
  -27.5046    9.0667  -11.5385 O   0  0  0  0  0  0  0  0  0  0  0  0
  -30.6481    5.4611   -9.2597 C   0  0  0  0  0  0  0  0  0  0  0  0
  -34.5704    3.8156   -9.7173 O   0  0  0  0  0  0  0  0  0  0  0  0
  -33.6846    3.5558   -8.9032 C   0  0  0  0  0  0  0  0  0  0  0  0
  -31.1931    3.3441   -9.2777 C   0  0  0  0  0  0  0  0  0  0  0  0
  -26.0697    9.5549   -9.4529 O   0  5  0  0  0  0  0  0  0  0  0  0
  -24.9109    9.2019  -11.4057 O   0  0  0  0  0  0  0  0  0  0  0  0
  1 17  1  0  0  0  0
  1 20  1  0  0  0  0
  2 15  1  6  0  0  0
  2  3  1  0  0  0  0
  2 11  1  0  0  0  0
  3  5  1  0  0  0  0
  4 16  1  6  0  0  0
  4 21  1  0  0  0  0
  4 22  2  0  0  0  0
  4 14  1  0  0  0  0
  5  1  1  1  0  0  0
  5  8  1  0  0  0  0
  6 17  2  0  0  0  0
  6 12  1  0  0  0  0
  8  7  1  6  0  0  0
  8 11  1  0  0  0  0
  9 19  1  0  0  0  0
 11 10  1  1  0  0  0
 12 20  2  0  0  0  0
 12 19  1  0  0  0  0
 13 20  1  0  0  0  0
 14 15  1  0  0  0  0
 18 19  2  0  0  0  0
M  CHG  1  21  -1
M  END
>  <CHROM.1>
42.80628851,175.63760822,-60.12942516,-179.62711921,-117.73144691,-28.93257356
5.48425499,-10.00019583,-2.52983545,0.28362536,0.07149161

>  <Name>
ligand

>  <RI>
0

>  <Rbt.Current_Directory>
/home/itssahil/PROJECTS/Mol_Feturizer/New_Systems/rnas/4XWF

>  <Rbt.Executable>
rbdock ($Id: //depot/dev/client3/rdock/2013.1/src/exe/rbdock.cxx#4 $)

>  <Rbt.Library>
libRbt.so (2013.1, Build901 2013/11/27)

>  <Rbt.Parameter_File>
/export/apps/rDock/src/rDock_2013.1_src/data/scripts/dock_solv.prm

>  <Rbt.Receptor>
prm/pocket_docking_3.prm

>  <SCORE>
-2.69364

>  <SCORE.INTER>
-1.4157

>  <SCORE.INTER.CONST>
1

>  <SCORE.INTER.POLAR>
0

>  <SCORE.INTER.ROT>
5

>  <SCORE.INTER.SOLV>
8.06222

>  <SCORE.INTER.VDW>
-10.5645

>  <SCORE.INTER.norm>
-0.0643501

>  <SCORE.INTRA>
-1.27794

>  <SCORE.INTRA.DIHEDRAL>
-1.93886

>  <SCORE.INTRA.DIHEDRAL.0>
3.49807

>  <SCORE.INTRA.POLAR>
0

>  <SCORE.INTRA.POLAR.0>
0

>  <SCORE.INTRA.REPUL>
0

>  <SCORE.INTRA.REPUL.0>
0

>  <SCORE.INTRA.SOLV>
-0.315407

>  <SCORE.INTRA.SOLV.lig_0>
-73.062

>  <SCORE.INTRA.VDW>
-0.1508

>  <SCORE.INTRA.VDW.0>
-1.83782

>  <SCORE.INTRA.norm>
-0.058088

>  <SCORE.RESTR>
0

>  <SCORE.RESTR.CAVITY>
0

>  <SCORE.RESTR.norm>
0

>  <SCORE.SYSTEM>
0

>  <SCORE.SYSTEM.CONST>
0

>  <SCORE.SYSTEM.DIHEDRAL>
0

>  <SCORE.SYSTEM.SOLV>
0

>  <SCORE.SYSTEM.norm>
0

>  <SCORE.heavy>
22

>  <SCORE.norm>
-0.122438

>  <RMSD>
2.155

$$$$
ligand
 OpenBabel11021811513D
libRbt.so/2013.1/901 2013/11/27
 22 23  0  0  0  0  0  0  0  0999 V2000
  -30.1326    4.1043   -9.5358 N   0  0  0  0  0  0  0  0  0  0  0  0
  -26.9624    5.1672  -10.0574 C   0  0  1  0  0  0  0  0  0  0  0  0
  -27.9410    4.6745   -9.0985 O   0  0  0  0  0  0  0  0  0  0  0  0
  -27.3531    8.7645   -8.9325 P   0  0  1  0  0  0  0  0  0  0  0  0
  -28.8183    3.7670   -9.7848 C   0  0  2  0  0  0  0  0  0  0  0  0
  -31.9132    5.2894   -9.1668 N   0  0  0  0  0  0  0  0  0  0  0  0
  -28.9395    2.8813  -11.9977 O   0  0  0  0  0  0  0  0  0  0  0  0
  -28.5836    4.0317  -11.2221 C   0  0  2  0  0  0  0  0  0  0  0  0
  -33.9719    2.7207   -7.9545 N   0  0  0  0  0  0  0  0  0  0  0  0
  -26.3678    3.1768  -11.1432 O   0  0  0  0  0  0  0  0  0  0  0  0
  -27.1656    4.3643  -11.2831 C   0  0  2  0  0  0  0  0  0  0  0  0
  -32.2755    3.9992   -9.2359 C   0  0  0  0  0  0  0  0  0  0  0  0
  -31.1102    1.8436   -9.6345 N   0  0  0  0  0  0  0  0  0  0  0  0
  -27.0911    7.2236   -9.0569 O   0  0  0  0  0  0  0  0  0  0  0  0
  -27.2651    6.6073  -10.2913 C   0  0  0  0  0  0  0  0  0  0  0  0
  -27.0145    9.0659   -7.4275 O   0  0  0  0  0  0  0  0  0  0  0  0
  -30.5801    5.3512   -9.3475 C   0  0  0  0  0  0  0  0  0  0  0  0
  -34.5000    3.6990   -9.9419 O   0  0  0  0  0  0  0  0  0  0  0  0
  -33.6473    3.4806   -9.0815 C   0  0  0  0  0  0  0  0  0  0  0  0
  -31.1601    3.2470   -9.4711 C   0  0  0  0  0  0  0  0  0  0  0  0
  -26.5060    9.4992   -9.9176 O   0  5  0  0  0  0  0  0  0  0  0  0
  -28.7095    9.1032   -9.3995 O   0  0  0  0  0  0  0  0  0  0  0  0
  1 17  1  0  0  0  0
  1 20  1  0  0  0  0
  2 15  1  6  0  0  0
  2  3  1  0  0  0  0
  2 11  1  0  0  0  0
  3  5  1  0  0  0  0
  4 16  1  1  0  0  0
  4 21  1  0  0  0  0
  4 22  2  0  0  0  0
  4 14  1  0  0  0  0
  5  1  1  1  0  0  0
  5  8  1  0  0  0  0
  6 17  2  0  0  0  0
  6 12  1  0  0  0  0
  8  7  1  6  0  0  0
  8 11  1  0  0  0  0
  9 19  1  0  0  0  0
 11 10  1  1  0  0  0
 12 20  2  0  0  0  0
 12 19  1  0  0  0  0
 13 20  1  0  0  0  0
 14 15  1  0  0  0  0
 18 19  2  0  0  0  0
M  CHG  1  21  -1
M  END
>  <CHROM.1>
33.00865278,62.34461124,-178.51554922,-179.06554469,-111.30950288,-29.25375135
5.37013410,-9.64443082,-2.44728397,0.29616586,0.38081506

>  <Name>
ligand

>  <RI>
0

>  <Rbt.Current_Directory>
/home/itssahil/PROJECTS/Mol_Feturizer/New_Systems/rnas/4XWF

>  <Rbt.Executable>
rbdock ($Id: //depot/dev/client3/rdock/2013.1/src/exe/rbdock.cxx#4 $)

>  <Rbt.Library>
libRbt.so (2013.1, Build901 2013/11/27)

>  <Rbt.Parameter_File>
/export/apps/rDock/src/rDock_2013.1_src/data/scripts/dock_solv.prm

>  <Rbt.Receptor>
prm/pocket_docking_4.prm

>  <SCORE>
-2.99678

>  <SCORE.INTER>
-1.83921

>  <SCORE.INTER.CONST>
1

>  <SCORE.INTER.POLAR>
0

>  <SCORE.INTER.ROT>
5

>  <SCORE.INTER.SOLV>
9.17625

>  <SCORE.INTER.VDW>
-11.2182

>  <SCORE.INTER.norm>
-0.0836006

>  <SCORE.INTRA>
-1.15756

>  <SCORE.INTRA.DIHEDRAL>
-1.89849

>  <SCORE.INTRA.DIHEDRAL.0>
3.49807

>  <SCORE.INTRA.POLAR>
0

>  <SCORE.INTRA.POLAR.0>
0

>  <SCORE.INTRA.REPUL>
0

>  <SCORE.INTRA.REPUL.0>
0

>  <SCORE.INTRA.SOLV>
0.582404

>  <SCORE.INTRA.SOLV.lig_0>
-73.062

>  <SCORE.INTRA.VDW>
-0.499523

>  <SCORE.INTRA.VDW.0>
-1.83782

>  <SCORE.INTRA.norm>
-0.0526165

>  <SCORE.RESTR>
0

>  <SCORE.RESTR.CAVITY>
0

>  <SCORE.RESTR.norm>
0

>  <SCORE.SYSTEM>
0

>  <SCORE.SYSTEM.CONST>
0

>  <SCORE.SYSTEM.DIHEDRAL>
0

>  <SCORE.SYSTEM.SOLV>
0

>  <SCORE.SYSTEM.norm>
0

>  <SCORE.heavy>
22

>  <SCORE.norm>
-0.136217

>  <RMSD>
2.222

$$$$
ligand
 OpenBabel11021811513D
libRbt.so/2013.1/901 2013/11/27
 22 23  0  0  0  0  0  0  0  0999 V2000
  -30.4079    3.1312   -9.9062 N   0  0  0  0  0  0  0  0  0  0  0  0
  -27.3108    2.6134  -11.1680 C   0  0  1  0  0  0  0  0  0  0  0  0
  -28.1315    2.7664   -9.9752 O   0  0  0  0  0  0  0  0  0  0  0  0
  -26.0592    6.1823  -10.9493 P   0  0  1  0  0  0  0  0  0  0  0  0
  -29.4311    2.2222  -10.2566 C   0  0  2  0  0  0  0  0  0  0  0  0
  -31.4058    5.0126   -9.4871 N   0  0  0  0  0  0  0  0  0  0  0  0
  -30.4301    1.1052  -12.1141 O   0  0  0  0  0  0  0  0  0  0  0  0
  -29.4784    2.1050  -11.7313 C   0  0  2  0  0  0  0  0  0  0  0  0
  -34.0643    5.0302   -7.9307 N   0  0  0  0  0  0  0  0  0  0  0  0
  -27.8176    0.4059  -11.7719 O   0  0  0  0  0  0  0  0  0  0  0  0
  -28.1052    1.7769  -12.0941 C   0  0  2  0  0  0  0  0  0  0  0  0
  -32.3048    4.0243   -9.3613 C   0  0  0  0  0  0  0  0  0  0  0  0
  -32.2829    1.5559   -9.6260 N   0  0  0  0  0  0  0  0  0  0  0  0
  -26.3945    4.6664  -10.7302 O   0  0  0  0  0  0  0  0  0  0  0  0
  -27.0846    3.9779  -11.7219 C   0  0  0  0  0  0  0  0  0  0  0  0
  -27.4756    6.8633  -10.9745 O   0  0  0  0  0  0  0  0  0  0  0  0
  -30.2264    4.4541   -9.8198 C   0  0  0  0  0  0  0  0  0  0  0  0
  -34.6042    3.5904   -9.6104 O   0  0  0  0  0  0  0  0  0  0  0  0
  -33.7236    4.1922   -8.9959 C   0  0  0  0  0  0  0  0  0  0  0  0
  -31.6846    2.8368   -9.6267 C   0  0  0  0  0  0  0  0  0  0  0  0
  -25.1606    6.6610   -9.8579 O   0  5  0  0  0  0  0  0  0  0  0  0
  -25.2035    6.3618  -12.1359 O   0  0  0  0  0  0  0  0  0  0  0  0
  1 17  1  0  0  0  0
  1 20  1  0  0  0  0
  2 15  1  6  0  0  0
  2  3  1  0  0  0  0
  2 11  1  0  0  0  0
  3  5  1  0  0  0  0
  4 16  1  6  0  0  0
  4 21  1  0  0  0  0
  4 22  2  0  0  0  0
  4 14  1  0  0  0  0
  5  1  1  6  0  0  0
  5  8  1  0  0  0  0
  6 17  2  0  0  0  0
  6 12  1  0  0  0  0
  8  7  1  1  0  0  0
  8 11  1  0  0  0  0
  9 19  1  0  0  0  0
 11 10  1  1  0  0  0
 12 20  2  0  0  0  0
 12 19  1  0  0  0  0
 13 20  1  0  0  0  0
 14 15  1  0  0  0  0
 18 19  2  0  0  0  0
M  CHG  1  21  -1
M  END
>  <CHROM.1>
23.93540350,61.91363925,65.36408858,-176.53307481,-45.66932061,-29.19890575
3.86478545,-10.50896947,-2.93364928,0.31935254,0.32330273

>  <Name>
ligand

>  <RI>
0

>  <Rbt.Current_Directory>
/home/itssahil/PROJECTS/Mol_Feturizer/New_Systems/rnas/4XWF

>  <Rbt.Executable>
rbdock ($Id: //depot/dev/client3/rdock/2013.1/src/exe/rbdock.cxx#4 $)

>  <Rbt.Library>
libRbt.so (2013.1, Build901 2013/11/27)

>  <Rbt.Parameter_File>
/export/apps/rDock/src/rDock_2013.1_src/data/scripts/dock_solv.prm

>  <Rbt.Receptor>
prm/pocket_docking_3.prm

>  <SCORE>
-3.36774

>  <SCORE.INTER>
-2.65475

>  <SCORE.INTER.CONST>
1

>  <SCORE.INTER.POLAR>
0

>  <SCORE.INTER.ROT>
5

>  <SCORE.INTER.SOLV>
10.7263

>  <SCORE.INTER.VDW>
-12.2786

>  <SCORE.INTER.norm>
-0.12067

>  <SCORE.INTRA>
-0.712991

>  <SCORE.INTRA.DIHEDRAL>
-0.498527

>  <SCORE.INTRA.DIHEDRAL.0>
3.49807

>  <SCORE.INTRA.POLAR>
0

>  <SCORE.INTRA.POLAR.0>
0

>  <SCORE.INTRA.REPUL>
0

>  <SCORE.INTRA.REPUL.0>
0

>  <SCORE.INTRA.SOLV>
0.109471

>  <SCORE.INTRA.SOLV.lig_0>
-73.062

>  <SCORE.INTRA.VDW>
-0.518463

>  <SCORE.INTRA.VDW.0>
-1.83782

>  <SCORE.INTRA.norm>
-0.0324087

>  <SCORE.RESTR>
0

>  <SCORE.RESTR.CAVITY>
0

>  <SCORE.RESTR.norm>
0

>  <SCORE.SYSTEM>
0

>  <SCORE.SYSTEM.CONST>
0

>  <SCORE.SYSTEM.DIHEDRAL>
0

>  <SCORE.SYSTEM.SOLV>
0

>  <SCORE.SYSTEM.norm>
0

>  <SCORE.heavy>
22

>  <SCORE.norm>
-0.153079

>  <RMSD>
2.522

$$$$
ligand
 OpenBabel11021811513D
libRbt.so/2013.1/901 2013/11/27
 22 23  0  0  0  0  0  0  0  0999 V2000
  -30.5732    1.3925  -11.2538 N   0  0  0  0  0  0  0  0  0  0  0  0
  -27.2879    2.1913  -11.3999 C   0  0  1  0  0  0  0  0  0  0  0  0
  -28.3206    1.3901  -10.7583 O   0  0  0  0  0  0  0  0  0  0  0  0
  -26.0474    5.7369  -10.9032 P   0  0  1  0  0  0  0  0  0  0  0  0
  -29.3209    1.0827  -11.7427 C   0  0  2  0  0  0  0  0  0  0  0  0
  -32.7220    1.3662  -10.9488 N   0  0  0  0  0  0  0  0  0  0  0  0
  -29.5784    1.4998  -14.0785 O   0  0  0  0  0  0  0  0  0  0  0  0
  -29.0596    2.0273  -12.8520 C   0  0  2  0  0  0  0  0  0  0  0  0
  -32.8380    4.4448   -9.1456 N   0  0  0  0  0  0  0  0  0  0  0  0
  -26.9858    1.0033  -13.3979 O   0  0  0  0  0  0  0  0  0  0  0  0
  -27.6092    2.1740  -12.8437 C   0  0  2  0  0  0  0  0  0  0  0  0
  -32.1870    2.2432  -10.0855 C   0  0  0  0  0  0  0  0  0  0  0  0
  -29.8972    3.0361   -9.5457 N   0  0  0  0  0  0  0  0  0  0  0  0
  -26.2850    4.2496  -11.3393 O   0  0  0  0  0  0  0  0  0  0  0  0
  -27.3861    3.5664  -10.8347 C   0  0  0  0  0  0  0  0  0  0  0  0
  -24.8047    6.1690  -11.7631 O   0  0  0  0  0  0  0  0  0  0  0  0
  -31.7175    0.8435  -11.6777 C   0  0  0  0  0  0  0  0  0  0  0  0
  -33.6286    2.5086   -8.2446 O   0  0  0  0  0  0  0  0  0  0  0  0
  -32.9349    3.0513   -9.1045 C   0  0  0  0  0  0  0  0  0  0  0  0
  -30.8338    2.2631  -10.2694 C   0  0  0  0  0  0  0  0  0  0  0  0
  -27.2825    6.5370  -11.1529 O   0  5  0  0  0  0  0  0  0  0  0  0
  -25.9217    5.8379   -9.4381 O   0  0  0  0  0  0  0  0  0  0  0  0
  1 17  1  0  0  0  0
  1 20  1  0  0  0  0
  2 15  1  1  0  0  0
  2  3  1  0  0  0  0
  2 11  1  0  0  0  0
  3  5  1  0  0  0  0
  4 16  1  6  0  0  0
  4 21  1  0  0  0  0
  4 22  2  0  0  0  0
  4 14  1  0  0  0  0
  5  1  1  1  0  0  0
  5  8  1  0  0  0  0
  6 17  2  0  0  0  0
  6 12  1  0  0  0  0
  8  7  1  6  0  0  0
  8 11  1  0  0  0  0
  9 19  1  0  0  0  0
 11 10  1  6  0  0  0
 12 20  2  0  0  0  0
 12 19  1  0  0  0  0
 13 20  1  0  0  0  0
 14 15  1  0  0  0  0
 18 19  2  0  0  0  0
M  CHG  1  21  -1
M  END
>  <CHROM.1>
-156.12828566,172.60272179,-175.57377500,-178.02534263,-121.87812206,-28.95164636
3.14901623,-11.04418463,-2.88581828,0.41555662,0.65871168

>  <Name>
ligand

>  <RI>
0

>  <Rbt.Current_Directory>
/home/itssahil/PROJECTS/Mol_Feturizer/New_Systems/rnas/4XWF

>  <Rbt.Executable>
rbdock ($Id: //depot/dev/client3/rdock/2013.1/src/exe/rbdock.cxx#4 $)

>  <Rbt.Library>
libRbt.so (2013.1, Build901 2013/11/27)

>  <Rbt.Parameter_File>
/export/apps/rDock/src/rDock_2013.1_src/data/scripts/dock_solv.prm

>  <Rbt.Receptor>
prm/pocket_docking_3.prm

>  <SCORE>
-2.14477

>  <SCORE.INTER>
-3.68491

>  <SCORE.INTER.CONST>
1

>  <SCORE.INTER.POLAR>
0

>  <SCORE.INTER.ROT>
5

>  <SCORE.INTER.SOLV>
9.06067

>  <SCORE.INTER.VDW>
-12.4102

>  <SCORE.INTER.norm>
-0.167496

>  <SCORE.INTRA>
1.54014

>  <SCORE.INTRA.DIHEDRAL>
-1.72

>  <SCORE.INTRA.DIHEDRAL.0>
3.49807

>  <SCORE.INTRA.POLAR>
0

>  <SCORE.INTRA.POLAR.0>
0

>  <SCORE.INTRA.REPUL>
0

>  <SCORE.INTRA.REPUL.0>
0

>  <SCORE.INTRA.SOLV>
4.41603

>  <SCORE.INTRA.SOLV.lig_0>
-73.062

>  <SCORE.INTRA.VDW>
0.19212

>  <SCORE.INTRA.VDW.0>
-1.83782

>  <SCORE.INTRA.norm>
0.0700062

>  <SCORE.RESTR>
0

>  <SCORE.RESTR.CAVITY>
0

>  <SCORE.RESTR.norm>
0

>  <SCORE.SYSTEM>
0

>  <SCORE.SYSTEM.CONST>
0

>  <SCORE.SYSTEM.DIHEDRAL>
0

>  <SCORE.SYSTEM.SOLV>
0

>  <SCORE.SYSTEM.norm>
0

>  <SCORE.heavy>
22

>  <SCORE.norm>
-0.0974896

>  <RMSD>
2.581

$$$$
ligand
 OpenBabel11021811513D
libRbt.so/2013.1/901 2013/11/27
 22 23  0  0  0  0  0  0  0  0999 V2000
  -30.5479    1.3967  -11.2447 N   0  0  0  0  0  0  0  0  0  0  0  0
  -27.2678    2.2128  -11.4102 C   0  0  1  0  0  0  0  0  0  0  0  0
  -28.2940    1.4141  -10.7553 O   0  0  0  0  0  0  0  0  0  0  0  0
  -26.0246    5.7594  -10.9275 P   0  0  1  0  0  0  0  0  0  0  0  0
  -29.2951    1.0879  -11.7329 C   0  0  2  0  0  0  0  0  0  0  0  0
  -32.6954    1.3602  -10.9319 N   0  0  0  0  0  0  0  0  0  0  0  0
  -29.5612    1.4726  -14.0732 O   0  0  0  0  0  0  0  0  0  0  0  0
  -29.0423    2.0193  -12.8552 C   0  0  2  0  0  0  0  0  0  0  0  0
  -32.8171    4.4661   -9.1698 N   0  0  0  0  0  0  0  0  0  0  0  0
  -26.9639    1.0005  -13.3932 O   0  0  0  0  0  0  0  0  0  0  0  0
  -27.5928    2.1747  -12.8528 C   0  0  2  0  0  0  0  0  0  0  0  0
  -32.1638    2.2547  -10.0846 C   0  0  0  0  0  0  0  0  0  0  0  0
  -29.8778    3.0721   -9.5655 N   0  0  0  0  0  0  0  0  0  0  0  0
  -26.2571    4.2673  -11.3496 O   0  0  0  0  0  0  0  0  0  0  0  0
  -27.3727    3.5947  -10.8629 C   0  0  0  0  0  0  0  0  0  0  0  0
  -25.8848    5.6727   -9.3643 O   0  0  0  0  0  0  0  0  0  0  0  0
  -31.6897    0.8330  -11.6558 C   0  0  0  0  0  0  0  0  0  0  0  0
  -33.6099    2.5396   -8.2502 O   0  0  0  0  0  0  0  0  0  0  0  0
  -32.9141    3.0731   -9.1141 C   0  0  0  0  0  0  0  0  0  0  0  0
  -30.8114    2.2811  -10.2735 C   0  0  0  0  0  0  0  0  0  0  0  0
  -24.8220    6.2982  -11.6285 O   0  5  0  0  0  0  0  0  0  0  0  0
  -27.0905    6.6258  -11.4622 O   0  0  0  0  0  0  0  0  0  0  0  0
  1 17  1  0  0  0  0
  1 20  1  0  0  0  0
  2 15  1  1  0  0  0
  2  3  1  0  0  0  0
  2 11  1  0  0  0  0
  3  5  1  0  0  0  0
  4 16  1  1  0  0  0
  4 21  1  0  0  0  0
  4 22  2  0  0  0  0
  4 14  1  0  0  0  0
  5  1  1  1  0  0  0
  5  8  1  0  0  0  0
  6 17  2  0  0  0  0
  6 12  1  0  0  0  0
  8  7  1  6  0  0  0
  8 11  1  0  0  0  0
  9 19  1  0  0  0  0
 11 10  1  1  0  0  0
 12 20  2  0  0  0  0
 12 19  1  0  0  0  0
 13 20  1  0  0  0  0
 14 15  1  0  0  0  0
 18 19  2  0  0  0  0
M  CHG  1  21  -1
M  END
>  <CHROM.1>
-155.94651164,171.00885888,60.89215415,-178.16473433,-122.48656510,-28.92267283
3.16160754,-11.05365055,-2.88011226,0.41780909,0.65402769

>  <Name>
ligand

>  <RI>
0

>  <Rbt.Current_Directory>
/home/itssahil/PROJECTS/Mol_Feturizer/New_Systems/rnas/4XWF

>  <Rbt.Executable>
rbdock ($Id: //depot/dev/client3/rdock/2013.1/src/exe/rbdock.cxx#4 $)

>  <Rbt.Library>
libRbt.so (2013.1, Build901 2013/11/27)

>  <Rbt.Parameter_File>
/export/apps/rDock/src/rDock_2013.1_src/data/scripts/dock_solv.prm

>  <Rbt.Receptor>
prm/pocket_docking_3.prm

>  <SCORE>
-2.53405

>  <SCORE.INTER>
-3.74098

>  <SCORE.INTER.CONST>
1

>  <SCORE.INTER.POLAR>
0

>  <SCORE.INTER.ROT>
5

>  <SCORE.INTER.SOLV>
9.05623

>  <SCORE.INTER.VDW>
-12.4461

>  <SCORE.INTER.norm>
-0.170045

>  <SCORE.INTRA>
1.20694

>  <SCORE.INTRA.DIHEDRAL>
-1.64884

>  <SCORE.INTRA.DIHEDRAL.0>
3.49807

>  <SCORE.INTRA.POLAR>
0

>  <SCORE.INTRA.POLAR.0>
0

>  <SCORE.INTRA.REPUL>
0

>  <SCORE.INTRA.REPUL.0>
0

>  <SCORE.INTRA.SOLV>
3.73053

>  <SCORE.INTRA.SOLV.lig_0>
-73.062

>  <SCORE.INTRA.VDW>
0.166094

>  <SCORE.INTRA.VDW.0>
-1.83782

>  <SCORE.INTRA.norm>
0.0548608

>  <SCORE.RESTR>
0

>  <SCORE.RESTR.CAVITY>
0

>  <SCORE.RESTR.norm>
0

>  <SCORE.SYSTEM>
0

>  <SCORE.SYSTEM.CONST>
0

>  <SCORE.SYSTEM.DIHEDRAL>
0

>  <SCORE.SYSTEM.SOLV>
0

>  <SCORE.SYSTEM.norm>
0

>  <SCORE.heavy>
22

>  <SCORE.norm>
-0.115184

>  <RMSD>
2.668

$$$$
ligand
 OpenBabel11021811513D
libRbt.so/2013.1/901 2013/11/27
 22 23  0  0  0  0  0  0  0  0999 V2000
  -30.5711    1.4026  -11.2507 N   0  0  0  0  0  0  0  0  0  0  0  0
  -27.2827    2.1857  -11.4101 C   0  0  1  0  0  0  0  0  0  0  0  0
  -28.3169    1.3910  -10.7629 O   0  0  0  0  0  0  0  0  0  0  0  0
  -26.0217    5.7253  -10.9258 P   0  0  1  0  0  0  0  0  0  0  0  0
  -29.3220    1.0858  -11.7432 C   0  0  2  0  0  0  0  0  0  0  0  0
  -32.7183    1.3827  -10.9338 N   0  0  0  0  0  0  0  0  0  0  0  0
  -29.5856    1.4980  -14.0791 O   0  0  0  0  0  0  0  0  0  0  0  0
  -29.0601    2.0262  -12.8557 C   0  0  2  0  0  0  0  0  0  0  0  0
  -32.8390    4.4810   -9.1777 N   0  0  0  0  0  0  0  0  0  0  0  0
  -26.9929    0.9913  -13.4061 O   0  0  0  0  0  0  0  0  0  0  0  0
  -27.6091    2.1663  -12.8528 C   0  0  2  0  0  0  0  0  0  0  0  0
  -32.1773    2.2680  -10.0828 C   0  0  0  0  0  0  0  0  0  0  0  0
  -29.8834    3.0631   -9.5639 N   0  0  0  0  0  0  0  0  0  0  0  0
  -26.2798    4.2446  -11.3723 O   0  0  0  0  0  0  0  0  0  0  0  0
  -27.3726    3.5627  -10.8482 C   0  0  0  0  0  0  0  0  0  0  0  0
  -27.3047    6.4809  -11.4293 O   0  0  0  0  0  0  0  0  0  0  0  0
  -31.7185    0.8509  -11.6626 C   0  0  0  0  0  0  0  0  0  0  0  0
  -33.5917    2.5549   -8.2242 O   0  0  0  0  0  0  0  0  0  0  0  0
  -32.9186    3.0876   -9.1064 C   0  0  0  0  0  0  0  0  0  0  0  0
  -30.8251    2.2839  -10.2743 C   0  0  0  0  0  0  0  0  0  0  0  0
  -25.8124    5.7754   -9.4488 O   0  5  0  0  0  0  0  0  0  0  0  0
  -24.7191    6.2019  -11.4245 O   0  0  0  0  0  0  0  0  0  0  0  0
  1 17  1  0  0  0  0
  1 20  1  0  0  0  0
  2 15  1  1  0  0  0
  2  3  1  0  0  0  0
  2 11  1  0  0  0  0
  3  5  1  0  0  0  0
  4 16  1  6  0  0  0
  4 21  1  0  0  0  0
  4 22  2  0  0  0  0
  4 14  1  0  0  0  0
  5  1  1  1  0  0  0
  5  8  1  0  0  0  0
  6 17  2  0  0  0  0
  6 12  1  0  0  0  0
  8  7  1  6  0  0  0
  8 11  1  0  0  0  0
  9 19  1  0  0  0  0
 11 10  1  6  0  0  0
 12 20  2  0  0  0  0
 12 19  1  0  0  0  0
 13 20  1  0  0  0  0
 14 15  1  0  0  0  0
 18 19  2  0  0  0  0
M  CHG  1  21  -1
M  END
>  <CHROM.1>
-155.62114964,173.36077104,-62.29440390,-176.96734023,-120.73942394,-28.93656408
3.15162501,-11.04754763,-2.88683681,0.40806775,0.66163904

>  <Name>
ligand

>  <RI>
0

>  <Rbt.Current_Directory>
/home/itssahil/PROJECTS/Mol_Feturizer/New_Systems/rnas/4XWF

>  <Rbt.Executable>
rbdock ($Id: //depot/dev/client3/rdock/2013.1/src/exe/rbdock.cxx#4 $)

>  <Rbt.Library>
libRbt.so (2013.1, Build901 2013/11/27)

>  <Rbt.Parameter_File>
/export/apps/rDock/src/rDock_2013.1_src/data/scripts/dock_solv.prm

>  <Rbt.Receptor>
prm/pocket_docking_3.prm

>  <SCORE>
-2.89788

>  <SCORE.INTER>
-4.1469

>  <SCORE.INTER.CONST>
1

>  <SCORE.INTER.POLAR>
0

>  <SCORE.INTER.ROT>
5

>  <SCORE.INTER.SOLV>
8.11711

>  <SCORE.INTER.VDW>
-12.4036

>  <SCORE.INTER.norm>
-0.188495

>  <SCORE.INTRA>
1.24868

>  <SCORE.INTRA.DIHEDRAL>
-1.72737

>  <SCORE.INTRA.DIHEDRAL.0>
3.49807

>  <SCORE.INTRA.POLAR>
0

>  <SCORE.INTRA.POLAR.0>
0

>  <SCORE.INTRA.REPUL>
0

>  <SCORE.INTRA.REPUL.0>
0

>  <SCORE.INTRA.SOLV>
3.80424

>  <SCORE.INTRA.SOLV.lig_0>
-73.062

>  <SCORE.INTRA.VDW>
0.210241

>  <SCORE.INTRA.VDW.0>
-1.83782

>  <SCORE.INTRA.norm>
0.0567581

>  <SCORE.RESTR>
0.000339871

>  <SCORE.RESTR.CAVITY>
0.000339871

>  <SCORE.RESTR.norm>
1.54487e-05

>  <SCORE.SYSTEM>
0

>  <SCORE.SYSTEM.CONST>
0

>  <SCORE.SYSTEM.DIHEDRAL>
0

>  <SCORE.SYSTEM.SOLV>
0

>  <SCORE.SYSTEM.norm>
0

>  <SCORE.heavy>
22

>  <SCORE.norm>
-0.131722

>  <RMSD>
2.679

$$$$
ligand
 OpenBabel11021811513D
libRbt.so/2013.1/901 2013/11/27
 22 23  0  0  0  0  0  0  0  0999 V2000
  -30.5768    1.4003  -11.3043 N   0  0  0  0  0  0  0  0  0  0  0  0
  -27.2957    2.2203  -11.4250 C   0  0  1  0  0  0  0  0  0  0  0  0
  -28.3308    1.4247  -10.7803 O   0  0  0  0  0  0  0  0  0  0  0  0
  -26.0512    5.7639  -10.9266 P   0  0  1  0  0  0  0  0  0  0  0  0
  -29.3162    1.0900  -11.7709 C   0  0  2  0  0  0  0  0  0  0  0  0
  -32.7250    1.3407  -10.9993 N   0  0  0  0  0  0  0  0  0  0  0  0
  -29.5467    1.4576  -14.1178 O   0  0  0  0  0  0  0  0  0  0  0  0
  -29.0474    2.0137  -12.8958 C   0  0  2  0  0  0  0  0  0  0  0  0
  -32.6236    3.1898   -7.9224 N   0  0  0  0  0  0  0  0  0  0  0  0
  -26.9595    0.9943  -13.3943 O   0  0  0  0  0  0  0  0  0  0  0  0
  -27.5984    2.1713  -12.8721 C   0  0  2  0  0  0  0  0  0  0  0  0
  -32.2138    2.2865  -10.1962 C   0  0  0  0  0  0  0  0  0  0  0  0
  -29.9456    3.1706   -9.7095 N   0  0  0  0  0  0  0  0  0  0  0  0
  -26.2875    4.2759  -11.3609 O   0  0  0  0  0  0  0  0  0  0  0  0
  -27.4111    3.6059  -10.8893 C   0  0  0  0  0  0  0  0  0  0  0  0
  -25.8961    5.6620   -9.3658 O   0  0  0  0  0  0  0  0  0  0  0  0
  -31.7062    0.7958  -11.6912 C   0  0  0  0  0  0  0  0  0  0  0  0
  -33.9457    3.7921   -9.6759 O   0  0  0  0  0  0  0  0  0  0  0  0
  -32.9837    3.1393   -9.2717 C   0  0  0  0  0  0  0  0  0  0  0  0
  -30.8612    2.3279  -10.3804 C   0  0  0  0  0  0  0  0  0  0  0  0
  -24.8557    6.3099  -11.6341 O   0  5  0  0  0  0  0  0  0  0  0  0
  -27.1225    6.6350  -11.4425 O   0  0  0  0  0  0  0  0  0  0  0  0
  1 17  1  0  0  0  0
  1 20  1  0  0  0  0
  2 15  1  1  0  0  0
  2  3  1  0  0  0  0
  2 11  1  0  0  0  0
  3  5  1  0  0  0  0
  4 16  1  1  0  0  0
  4 21  1  0  0  0  0
  4 22  2  0  0  0  0
  4 14  1  0  0  0  0
  5  1  1  1  0  0  0
  5  8  1  0  0  0  0
  6 17  2  0  0  0  0
  6 12  1  0  0  0  0
  8  7  1  6  0  0  0
  8 11  1  0  0  0  0
  9 19  1  0  0  0  0
 11 10  1  1  0  0  0
 12 20  2  0  0  0  0
 12 19  1  0  0  0  0
 13 20  1  0  0  0  0
 14 15  1  0  0  0  0
 18 19  2  0  0  0  0
M  CHG  1  21  -1
M  END
>  <CHROM.1>
-153.20520588,170.87791990,62.04766020,-177.19040929,125.88035002,-28.95551761
3.17694743,-11.10530809,-2.87209091,0.38827187,0.65159266

>  <Name>
ligand

>  <RI>
0

>  <Rbt.Current_Directory>
/home/itssahil/PROJECTS/Mol_Feturizer/New_Systems/rnas/4XWF

>  <Rbt.Executable>
rbdock ($Id: //depot/dev/client3/rdock/2013.1/src/exe/rbdock.cxx#4 $)

>  <Rbt.Library>
libRbt.so (2013.1, Build901 2013/11/27)

>  <Rbt.Parameter_File>
/export/apps/rDock/src/rDock_2013.1_src/data/scripts/dock_solv.prm

>  <Rbt.Receptor>
prm/pocket_docking_3.prm

>  <SCORE>
-2.65993

>  <SCORE.INTER>
-3.9844

>  <SCORE.INTER.CONST>
1

>  <SCORE.INTER.POLAR>
0

>  <SCORE.INTER.ROT>
5

>  <SCORE.INTER.SOLV>
9.0909

>  <SCORE.INTER.VDW>
-12.6199

>  <SCORE.INTER.norm>
-0.181109

>  <SCORE.INTRA>
1.32232

>  <SCORE.INTRA.DIHEDRAL>
-1.57562

>  <SCORE.INTRA.DIHEDRAL.0>
3.49807

>  <SCORE.INTRA.POLAR>
0

>  <SCORE.INTRA.POLAR.0>
0

>  <SCORE.INTRA.REPUL>
0

>  <SCORE.INTRA.REPUL.0>
0

>  <SCORE.INTRA.SOLV>
3.85417

>  <SCORE.INTRA.SOLV.lig_0>
-73.062

>  <SCORE.INTRA.VDW>
0.183049

>  <SCORE.INTRA.VDW.0>
-1.83782

>  <SCORE.INTRA.norm>
0.0601057

>  <SCORE.RESTR>
0.00214122

>  <SCORE.RESTR.CAVITY>
0.00214122

>  <SCORE.RESTR.norm>
9.73282e-05

>  <SCORE.SYSTEM>
0

>  <SCORE.SYSTEM.CONST>
0

>  <SCORE.SYSTEM.DIHEDRAL>
0

>  <SCORE.SYSTEM.SOLV>
0

>  <SCORE.SYSTEM.norm>
0

>  <SCORE.heavy>
22

>  <SCORE.norm>
-0.120906

>  <RMSD>
2.701

$$$$
ligand
 OpenBabel11021811513D
libRbt.so/2013.1/901 2013/11/27
 22 23  0  0  0  0  0  0  0  0999 V2000
  -30.9238    1.7540  -10.5261 N   0  0  0  0  0  0  0  0  0  0  0  0
  -27.5722    2.2215  -10.5412 C   0  0  1  0  0  0  0  0  0  0  0  0
  -28.7304    1.7225   -9.8137 O   0  0  0  0  0  0  0  0  0  0  0  0
  -26.0431    5.6592  -10.9924 P   0  0  1  0  0  0  0  0  0  0  0  0
  -29.6756    1.2207  -10.7723 C   0  0  2  0  0  0  0  0  0  0  0  0
  -33.0811    1.9840  -10.4593 N   0  0  0  0  0  0  0  0  0  0  0  0
  -29.7014    0.9613  -13.1447 O   0  0  0  0  0  0  0  0  0  0  0  0
  -29.2299    1.7802  -12.0681 C   0  0  2  0  0  0  0  0  0  0  0  0
  -34.6280    3.9914   -8.9165 N   0  0  0  0  0  0  0  0  0  0  0  0
  -27.2369    0.4859  -12.0807 O   0  0  0  0  0  0  0  0  0  0  0  0
  -27.7775    1.8112  -11.9476 C   0  0  2  0  0  0  0  0  0  0  0  0
  -32.5287    3.0261   -9.8194 C   0  0  0  0  0  0  0  0  0  0  0  0
  -30.2196    3.7582   -9.2759 N   0  0  0  0  0  0  0  0  0  0  0  0
  -26.3789    4.1276  -10.9759 O   0  0  0  0  0  0  0  0  0  0  0  0
  -27.5716    3.7047  -10.3994 C   0  0  0  0  0  0  0  0  0  0  0  0
  -27.1582    6.2612  -11.9223 O   0  0  0  0  0  0  0  0  0  0  0  0
  -32.0813    1.1982  -10.9027 C   0  0  0  0  0  0  0  0  0  0  0  0
  -32.6917    5.1900   -8.9094 O   0  0  0  0  0  0  0  0  0  0  0  0
  -33.2645    4.1363   -9.1865 C   0  0  0  0  0  0  0  0  0  0  0  0
  -31.1705    2.8868   -9.8546 C   0  0  0  0  0  0  0  0  0  0  0  0
  -26.0468    6.1892   -9.5970 O   0  5  0  0  0  0  0  0  0  0  0  0
  -24.6412    5.8824  -11.3890 O   0  0  0  0  0  0  0  0  0  0  0  0
  1 17  1  0  0  0  0
  1 20  1  0  0  0  0
  2 15  1  6  0  0  0
  2  3  1  0  0  0  0
  2 11  1  0  0  0  0
  3  5  1  0  0  0  0
  4 16  1  6  0  0  0
  4 21  1  0  0  0  0
  4 22  2  0  0  0  0
  4 14  1  0  0  0  0
  5  1  1  1  0  0  0
  5  8  1  0  0  0  0
  6 17  2  0  0  0  0
  6 12  1  0  0  0  0
  8  7  1  6  0  0  0
  8 11  1  0  0  0  0
  9 19  1  0  0  0  0
 11 10  1  1  0  0  0
 12 20  2  0  0  0  0
 12 19  1  0  0  0  0
 13 20  1  0  0  0  0
 14 15  1  0  0  0  0
 18 19  2  0  0  0  0
M  CHG  1  21  -1
M  END
>  <CHROM.1>
-156.44427982,173.56604486,-65.17300994,-179.60846782,16.66859718,-29.15718599
3.36608930,-10.65832437,-2.91713414,0.28337151,0.38459646

>  <Name>
ligand

>  <RI>
0

>  <Rbt.Current_Directory>
/home/itssahil/PROJECTS/Mol_Feturizer/New_Systems/rnas/4XWF

>  <Rbt.Executable>
rbdock ($Id: //depot/dev/client3/rdock/2013.1/src/exe/rbdock.cxx#4 $)

>  <Rbt.Library>
libRbt.so (2013.1, Build901 2013/11/27)

>  <Rbt.Parameter_File>
/export/apps/rDock/src/rDock_2013.1_src/data/scripts/dock_solv.prm

>  <Rbt.Receptor>
prm/pocket_docking_3.prm

>  <SCORE>
-3.52538

>  <SCORE.INTER>
-4.94478

>  <SCORE.INTER.CONST>
1

>  <SCORE.INTER.POLAR>
0

>  <SCORE.INTER.ROT>
5

>  <SCORE.INTER.SOLV>
10.2927

>  <SCORE.INTER.VDW>
-13.6608

>  <SCORE.INTER.norm>
-0.224763

>  <SCORE.INTRA>
1.41939

>  <SCORE.INTRA.DIHEDRAL>
-1.42512

>  <SCORE.INTRA.DIHEDRAL.0>
3.49807

>  <SCORE.INTRA.POLAR>
0

>  <SCORE.INTRA.POLAR.0>
0

>  <SCORE.INTRA.REPUL>
0

>  <SCORE.INTRA.REPUL.0>
0

>  <SCORE.INTRA.SOLV>
3.66535

>  <SCORE.INTRA.SOLV.lig_0>
-73.062

>  <SCORE.INTRA.VDW>
0.299275

>  <SCORE.INTRA.VDW.0>
-1.83782

>  <SCORE.INTRA.norm>
0.0645179

>  <SCORE.RESTR>
0

>  <SCORE.RESTR.CAVITY>
0

>  <SCORE.RESTR.norm>
0

>  <SCORE.SYSTEM>
0

>  <SCORE.SYSTEM.CONST>
0

>  <SCORE.SYSTEM.DIHEDRAL>
0

>  <SCORE.SYSTEM.SOLV>
0

>  <SCORE.SYSTEM.norm>
0

>  <SCORE.heavy>
22

>  <SCORE.norm>
-0.160245

>  <RMSD>
2.897

$$$$
ligand
 OpenBabel11021811513D
libRbt.so/2013.1/901 2013/11/27
 22 23  0  0  0  0  0  0  0  0999 V2000
  -31.0542    1.6163  -10.5375 N   0  0  0  0  0  0  0  0  0  0  0  0
  -27.7071    2.1083  -10.4505 C   0  0  1  0  0  0  0  0  0  0  0  0
  -28.8781    1.5687   -9.7743 O   0  0  0  0  0  0  0  0  0  0  0  0
  -26.1850    5.5700  -10.6885 P   0  0  1  0  0  0  0  0  0  0  0  0
  -29.7960    1.1036  -10.7771 C   0  0  2  0  0  0  0  0  0  0  0  0
  -33.2130    1.8410  -10.5355 N   0  0  0  0  0  0  0  0  0  0  0  0
  -29.7630    0.9508  -13.1586 O   0  0  0  0  0  0  0  0  0  0  0  0
  -29.3242    1.7239  -12.0354 C   0  0  2  0  0  0  0  0  0  0  0  0
  -32.8525    5.1291   -8.8796 N   0  0  0  0  0  0  0  0  0  0  0  0
  -27.3208    0.4460  -12.0575 O   0  0  0  0  0  0  0  0  0  0  0  0
  -27.8753    1.7601  -11.8784 C   0  0  2  0  0  0  0  0  0  0  0  0
  -32.6882    2.8293   -9.7949 C   0  0  0  0  0  0  0  0  0  0  0  0
  -30.4035    3.5156   -9.1075 N   0  0  0  0  0  0  0  0  0  0  0  0
  -26.5243    4.0418  -10.7797 O   0  0  0  0  0  0  0  0  0  0  0  0
  -27.7223    3.5836  -10.2426 C   0  0  0  0  0  0  0  0  0  0  0  0
  -26.0852    5.8237   -9.1405 O   0  0  0  0  0  0  0  0  0  0  0  0
  -32.1949    1.0923  -11.0007 C   0  0  0  0  0  0  0  0  0  0  0  0
  -34.5994    3.6775   -8.7154 O   0  0  0  0  0  0  0  0  0  0  0  0
  -33.4506    3.8864   -9.1051 C   0  0  0  0  0  0  0  0  0  0  0  0
  -31.3293    2.6927   -9.7889 C   0  0  0  0  0  0  0  0  0  0  0  0
  -24.9297    5.8519  -11.4452 O   0  5  0  0  0  0  0  0  0  0  0  0
  -27.1688    6.3693  -11.4408 O   0  0  0  0  0  0  0  0  0  0  0  0
  1 17  1  0  0  0  0
  1 20  1  0  0  0  0
  2 15  1  6  0  0  0
  2  3  1  0  0  0  0
  2 11  1  0  0  0  0
  3  5  1  0  0  0  0
  4 16  1  1  0  0  0
  4 21  1  0  0  0  0
  4 22  2  0  0  0  0
  4 14  1  0  0  0  0
  5  1  1  1  0  0  0
  5  8  1  0  0  0  0
  6 17  2  0  0  0  0
  6 12  1  0  0  0  0
  8  7  1  6  0  0  0
  8 11  1  0  0  0  0
  9 19  1  0  0  0  0
 11 10  1  1  0  0  0
 12 20  2  0  0  0  0
 12 19  1  0  0  0  0
 13 20  1  0  0  0  0
 14 15  1  0  0  0  0
 18 19  2  0  0  0  0
M  CHG  1  21  -1
M  END
>  <CHROM.1>
-158.58755307,174.00780065,63.24566250,-178.01705951,-152.02549492,-29.29109583
3.23645896,-10.54370583,-2.90454989,0.27737814,0.43369884

>  <Name>
ligand

>  <RI>
0

>  <Rbt.Current_Directory>
/home/itssahil/PROJECTS/Mol_Feturizer/New_Systems/rnas/4XWF

>  <Rbt.Executable>
rbdock ($Id: //depot/dev/client3/rdock/2013.1/src/exe/rbdock.cxx#4 $)

>  <Rbt.Library>
libRbt.so (2013.1, Build901 2013/11/27)

>  <Rbt.Parameter_File>
/export/apps/rDock/src/rDock_2013.1_src/data/scripts/dock_solv.prm

>  <Rbt.Receptor>
prm/pocket_docking_3.prm

>  <SCORE>
-2.91093

>  <SCORE.INTER>
-4.64008

>  <SCORE.INTER.CONST>
1

>  <SCORE.INTER.POLAR>
0

>  <SCORE.INTER.ROT>
5

>  <SCORE.INTER.SOLV>
10.3007

>  <SCORE.INTER.VDW>
-13.4603

>  <SCORE.INTER.norm>
-0.210913

>  <SCORE.INTRA>
1.7211

>  <SCORE.INTRA.DIHEDRAL>
-0.904068

>  <SCORE.INTRA.DIHEDRAL.0>
3.49807

>  <SCORE.INTRA.POLAR>
0

>  <SCORE.INTRA.POLAR.0>
0

>  <SCORE.INTRA.REPUL>
0

>  <SCORE.INTRA.REPUL.0>
0

>  <SCORE.INTRA.SOLV>
3.79773

>  <SCORE.INTRA.SOLV.lig_0>
-73.062

>  <SCORE.INTRA.VDW>
0.27427

>  <SCORE.INTRA.VDW.0>
-1.83782

>  <SCORE.INTRA.norm>
0.0782318

>  <SCORE.RESTR>
0.00805514

>  <SCORE.RESTR.CAVITY>
0.00805514

>  <SCORE.RESTR.norm>
0.000366143

>  <SCORE.SYSTEM>
0

>  <SCORE.SYSTEM.CONST>
0

>  <SCORE.SYSTEM.DIHEDRAL>
0

>  <SCORE.SYSTEM.SOLV>
0

>  <SCORE.SYSTEM.norm>
0

>  <SCORE.heavy>
22

>  <SCORE.norm>
-0.132315

>  <RMSD>
2.944

$$$$
ligand
 OpenBabel11021811513D
libRbt.so/2013.1/901 2013/11/27
 22 23  0  0  0  0  0  0  0  0999 V2000
  -30.7221    1.5337  -10.9041 N   0  0  0  0  0  0  0  0  0  0  0  0
  -27.6944    3.0237  -11.1595 C   0  0  1  0  0  0  0  0  0  0  0  0
  -28.5976    2.2306  -10.3379 O   0  0  0  0  0  0  0  0  0  0  0  0
  -28.3172    6.2712   -9.3090 P   0  0  1  0  0  0  0  0  0  0  0  0
  -29.3835    1.4040  -11.2115 C   0  0  2  0  0  0  0  0  0  0  0  0
  -32.8721    1.2372  -10.9291 N   0  0  0  0  0  0  0  0  0  0  0  0
  -29.4463    1.0127  -13.5650 O   0  0  0  0  0  0  0  0  0  0  0  0
  -29.2033    1.9988  -12.5548 C   0  0  2  0  0  0  0  0  0  0  0  0
  -34.3097    3.8444   -9.5385 N   0  0  0  0  0  0  0  0  0  0  0  0
  -26.9071    1.3939  -12.6489 O   0  0  0  0  0  0  0  0  0  0  0  0
  -27.8307    2.4892  -12.5321 C   0  0  2  0  0  0  0  0  0  0  0  0
  -32.5814    2.1144   -9.9561 C   0  0  0  0  0  0  0  0  0  0  0  0
  -30.5109    3.1337   -9.0409 N   0  0  0  0  0  0  0  0  0  0  0  0
  -27.9184    4.8236   -9.7608 O   0  0  0  0  0  0  0  0  0  0  0  0
  -28.1546    4.4384  -11.0759 C   0  0  0  0  0  0  0  0  0  0  0  0
  -29.8883    6.2371   -9.3406 O   0  0  0  0  0  0  0  0  0  0  0  0
  -31.7154    0.8827  -11.5205 C   0  0  0  0  0  0  0  0  0  0  0  0
  -33.7048    2.3774   -7.9052 O   0  0  0  0  0  0  0  0  0  0  0  0
  -33.5583    2.7659   -9.0639 C   0  0  0  0  0  0  0  0  0  0  0  0
  -31.2291    2.3039   -9.9321 C   0  0  0  0  0  0  0  0  0  0  0  0
  -27.7302    6.5582   -7.9670 O   0  5  0  0  0  0  0  0  0  0  0  0
  -27.6477    7.2828  -10.1462 O   0  0  0  0  0  0  0  0  0  0  0  0
  1 17  1  0  0  0  0
  1 20  1  0  0  0  0
  2 15  1  6  0  0  0
  2  3  1  0  0  0  0
  2 11  1  0  0  0  0
  3  5  1  0  0  0  0
  4 16  1  1  0  0  0
  4 21  1  0  0  0  0
  4 22  2  0  0  0  0
  4 14  1  0  0  0  0
  5  1  1  1  0  0  0
  5  8  1  0  0  0  0
  6 17  2  0  0  0  0
  6 12  1  0  0  0  0
  8  7  1  6  0  0  0
  8 11  1  0  0  0  0
  9 19  1  0  0  0  0
 11 10  1  1  0  0  0
 12 20  2  0  0  0  0
 12 19  1  0  0  0  0
 13 20  1  0  0  0  0
 14 15  1  0  0  0  0
 18 19  2  0  0  0  0
M  CHG  1  21  -1
M  END
>  <CHROM.1>
-179.05437472,67.36255414,68.96699599,-178.84080015,-78.13445534,-29.82307106
3.39263117,-10.39186930,-2.48858116,0.38863941,0.61714989

>  <Name>
ligand

>  <RI>
0

>  <Rbt.Current_Directory>
/home/itssahil/PROJECTS/Mol_Feturizer/New_Systems/rnas/4XWF

>  <Rbt.Executable>
rbdock ($Id: //depot/dev/client3/rdock/2013.1/src/exe/rbdock.cxx#4 $)

>  <Rbt.Library>
libRbt.so (2013.1, Build901 2013/11/27)

>  <Rbt.Parameter_File>
/export/apps/rDock/src/rDock_2013.1_src/data/scripts/dock_solv.prm

>  <Rbt.Receptor>
prm/pocket_docking_3.prm

>  <SCORE>
-4.04261

>  <SCORE.INTER>
-6.23678

>  <SCORE.INTER.CONST>
1

>  <SCORE.INTER.POLAR>
0

>  <SCORE.INTER.ROT>
5

>  <SCORE.INTER.SOLV>
11.4048

>  <SCORE.INTER.VDW>
-14.8928

>  <SCORE.INTER.norm>
-0.28349

>  <SCORE.INTRA>
2.19394

>  <SCORE.INTRA.DIHEDRAL>
-0.351416

>  <SCORE.INTRA.DIHEDRAL.0>
3.49807

>  <SCORE.INTRA.POLAR>
0

>  <SCORE.INTRA.POLAR.0>
0

>  <SCORE.INTRA.REPUL>
0

>  <SCORE.INTRA.REPUL.0>
0

>  <SCORE.INTRA.SOLV>
4.70015

>  <SCORE.INTRA.SOLV.lig_0>
-73.062

>  <SCORE.INTRA.VDW>
0.01958

>  <SCORE.INTRA.VDW.0>
-1.83782

>  <SCORE.INTRA.norm>
0.0997248

>  <SCORE.RESTR>
0.00023071

>  <SCORE.RESTR.CAVITY>
0.00023071

>  <SCORE.RESTR.norm>
1.04868e-05

>  <SCORE.SYSTEM>
0

>  <SCORE.SYSTEM.CONST>
0

>  <SCORE.SYSTEM.DIHEDRAL>
0

>  <SCORE.SYSTEM.SOLV>
0

>  <SCORE.SYSTEM.norm>
0

>  <SCORE.heavy>
22

>  <SCORE.norm>
-0.183755

>  <RMSD>
2.979

$$$$
ligand
 OpenBabel11021811513D
libRbt.so/2013.1/901 2013/11/27
 22 23  0  0  0  0  0  0  0  0999 V2000
  -30.9311    1.5087  -10.7327 N   0  0  0  0  0  0  0  0  0  0  0  0
  -27.8154    2.7839  -11.0774 C   0  0  1  0  0  0  0  0  0  0  0  0
  -28.7593    2.0874  -10.2149 O   0  0  0  0  0  0  0  0  0  0  0  0
  -28.1093    6.1652   -9.3923 P   0  0  1  0  0  0  0  0  0  0  0  0
  -29.6074    1.2782  -11.0457 C   0  0  2  0  0  0  0  0  0  0  0  0
  -33.0969    1.3666  -10.7400 N   0  0  0  0  0  0  0  0  0  0  0  0
  -29.7221    0.7929  -13.3796 O   0  0  0  0  0  0  0  0  0  0  0  0
  -29.4038    1.8026  -12.4147 C   0  0  2  0  0  0  0  0  0  0  0  0
  -34.1871    4.1956   -9.3184 N   0  0  0  0  0  0  0  0  0  0  0  0
  -27.1533    1.0444  -12.5022 O   0  0  0  0  0  0  0  0  0  0  0  0
  -28.0019    2.2021  -12.4246 C   0  0  2  0  0  0  0  0  0  0  0  0
  -32.7374    2.2371   -9.7842 C   0  0  0  0  0  0  0  0  0  0  0  0
  -30.5929    3.1209   -8.8991 N   0  0  0  0  0  0  0  0  0  0  0  0
  -27.8403    4.6690   -9.7767 O   0  0  0  0  0  0  0  0  0  0  0  0
  -28.1811    4.2281  -11.0507 C   0  0  0  0  0  0  0  0  0  0  0  0
  -27.3913    6.9651  -10.5391 O   0  0  0  0  0  0  0  0  0  0  0  0
  -31.9727    0.9201  -11.3320 C   0  0  0  0  0  0  0  0  0  0  0  0
  -33.9526    2.5241   -7.7897 O   0  0  0  0  0  0  0  0  0  0  0  0
  -33.6589    2.9720   -8.8980 C   0  0  0  0  0  0  0  0  0  0  0  0
  -31.3748    2.3296   -9.7715 C   0  0  0  0  0  0  0  0  0  0  0  0
  -29.5798    6.4029   -9.2975 O   0  5  0  0  0  0  0  0  0  0  0  0
  -27.6771    6.4351   -8.0092 O   0  0  0  0  0  0  0  0  0  0  0  0
  1 17  1  0  0  0  0
  1 20  1  0  0  0  0
  2 15  1  6  0  0  0
  2  3  1  0  0  0  0
  2 11  1  0  0  0  0
  3  5  1  0  0  0  0
  4 16  1  6  0  0  0
  4 21  1  0  0  0  0
  4 22  2  0  0  0  0
  4 14  1  0  0  0  0
  5  1  1  1  0  0  0
  5  8  1  0  0  0  0
  6 17  2  0  0  0  0
  6 12  1  0  0  0  0
  8  7  1  6  0  0  0
  8 11  1  0  0  0  0
  9 19  1  0  0  0  0
 11 10  1  1  0  0  0
 12 20  2  0  0  0  0
 12 19  1  0  0  0  0
 13 20  1  0  0  0  0
 14 15  1  0  0  0  0
 18 19  2  0  0  0  0
M  CHG  1  21  -1
M  END
>  <CHROM.1>
179.44400595,70.37991959,-53.54033550,-179.32495560,-87.18801403,-29.88521625
3.32486367,-10.31532439,-2.57154381,0.37416760,0.59728765

>  <Name>
ligand

>  <RI>
0

>  <Rbt.Current_Directory>
/home/itssahil/PROJECTS/Mol_Feturizer/New_Systems/rnas/4XWF

>  <Rbt.Executable>
rbdock ($Id: //depot/dev/client3/rdock/2013.1/src/exe/rbdock.cxx#4 $)

>  <Rbt.Library>
libRbt.so (2013.1, Build901 2013/11/27)

>  <Rbt.Parameter_File>
/export/apps/rDock/src/rDock_2013.1_src/data/scripts/dock_solv.prm

>  <Rbt.Receptor>
prm/pocket_docking_5.prm

>  <SCORE>
-3.32972

>  <SCORE.INTER>
-5.7187

>  <SCORE.INTER.CONST>
1

>  <SCORE.INTER.POLAR>
0

>  <SCORE.INTER.ROT>
5

>  <SCORE.INTER.SOLV>
12.4338

>  <SCORE.INTER.VDW>
-14.8904

>  <SCORE.INTER.norm>
-0.259941

>  <SCORE.INTRA>
2.38899

>  <SCORE.INTRA.DIHEDRAL>
-0.579511

>  <SCORE.INTRA.DIHEDRAL.0>
3.49807

>  <SCORE.INTRA.POLAR>
0

>  <SCORE.INTRA.POLAR.0>
0

>  <SCORE.INTRA.REPUL>
0

>  <SCORE.INTRA.REPUL.0>
0

>  <SCORE.INTRA.SOLV>
4.84653

>  <SCORE.INTRA.SOLV.lig_0>
-73.062

>  <SCORE.INTRA.VDW>
0.255476

>  <SCORE.INTRA.VDW.0>
-1.83782

>  <SCORE.INTRA.norm>
0.10859

>  <SCORE.RESTR>
0

>  <SCORE.RESTR.CAVITY>
0

>  <SCORE.RESTR.norm>
0

>  <SCORE.SYSTEM>
0

>  <SCORE.SYSTEM.CONST>
0

>  <SCORE.SYSTEM.DIHEDRAL>
0

>  <SCORE.SYSTEM.SOLV>
0

>  <SCORE.SYSTEM.norm>
0

>  <SCORE.heavy>
22

>  <SCORE.norm>
-0.151351

>  <RMSD>
2.991

$$$$
ligand
 OpenBabel11021811513D
libRbt.so/2013.1/901 2013/11/27
 22 23  0  0  0  0  0  0  0  0999 V2000
  -31.3640    1.3082  -10.5684 N   0  0  0  0  0  0  0  0  0  0  0  0
  -28.0372    1.8173  -10.2136 C   0  0  1  0  0  0  0  0  0  0  0  0
  -29.2339    1.1705   -9.6945 O   0  0  0  0  0  0  0  0  0  0  0  0
  -26.5895    5.3037   -9.8890 P   0  0  1  0  0  0  0  0  0  0  0  0
  -30.0847    0.8503  -10.8072 C   0  0  2  0  0  0  0  0  0  0  0  0
  -33.5233    1.5085  -10.6611 N   0  0  0  0  0  0  0  0  0  0  0  0
  -29.9147    1.0547  -13.1789 O   0  0  0  0  0  0  0  0  0  0  0  0
  -29.5548    1.6563  -11.9298 C   0  0  2  0  0  0  0  0  0  0  0  0
  -33.9686    3.1403   -7.5707 N   0  0  0  0  0  0  0  0  0  0  0  0
  -27.5291    0.4174  -12.0238 O   0  0  0  0  0  0  0  0  0  0  0  0
  -28.1181    1.6841  -11.6846 C   0  0  2  0  0  0  0  0  0  0  0  0
  -33.0606    2.3780   -9.7498 C   0  0  0  0  0  0  0  0  0  0  0  0
  -30.8325    2.9747   -8.8317 N   0  0  0  0  0  0  0  0  0  0  0  0
  -26.8902    3.7998  -10.2151 O   0  0  0  0  0  0  0  0  0  0  0  0
  -28.0925    3.2448   -9.7905 C   0  0  0  0  0  0  0  0  0  0  0  0
  -25.2096    5.5559  -10.5980 O   0  0  0  0  0  0  0  0  0  0  0  0
  -32.4662    0.8493  -11.1726 C   0  0  0  0  0  0  0  0  0  0  0  0
  -34.4984    4.2242   -9.5020 O   0  0  0  0  0  0  0  0  0  0  0  0
  -33.8812    3.3105   -8.9550 C   0  0  0  0  0  0  0  0  0  0  0  0
  -31.7019    2.2556   -9.6835 C   0  0  0  0  0  0  0  0  0  0  0  0
  -27.7074    6.1588  -10.3862 O   0  5  0  0  0  0  0  0  0  0  0  0
  -26.6558    5.5467   -8.4367 O   0  0  0  0  0  0  0  0  0  0  0  0
  1 17  1  0  0  0  0
  1 20  1  0  0  0  0
  2 15  1  6  0  0  0
  2  3  1  0  0  0  0
  2 11  1  0  0  0  0
  3  5  1  0  0  0  0
  4 16  1  6  0  0  0
  4 21  1  0  0  0  0
  4 22  2  0  0  0  0
  4 14  1  0  0  0  0
  5  1  1  1  0  0  0
  5  8  1  0  0  0  0
  6 17  2  0  0  0  0
  6 12  1  0  0  0  0
  8  7  1  6  0  0  0
  8 11  1  0  0  0  0
  9 19  1  0  0  0  0
 11 10  1  1  0  0  0
 12 20  2  0  0  0  0
 12 19  1  0  0  0  0
 13 20  1  0  0  0  0
 14 15  1  0  0  0  0
 18 19  2  0  0  0  0
M  CHG  1  21  -1
M  END
>  <CHROM.1>
-158.76409810,175.58261425,-176.78075996,-178.05790548,113.78474507,-29.64827883
2.93357061,-10.24330969,-2.87528369,0.23705567,0.56689215

>  <Name>
ligand

>  <RI>
0

>  <Rbt.Current_Directory>
/home/itssahil/PROJECTS/Mol_Feturizer/New_Systems/rnas/4XWF

>  <Rbt.Executable>
rbdock ($Id: //depot/dev/client3/rdock/2013.1/src/exe/rbdock.cxx#4 $)

>  <Rbt.Library>
libRbt.so (2013.1, Build901 2013/11/27)

>  <Rbt.Parameter_File>
/export/apps/rDock/src/rDock_2013.1_src/data/scripts/dock_solv.prm

>  <Rbt.Receptor>
prm/pocket_docking_3.prm

>  <SCORE>
-4.13592

>  <SCORE.INTER>
-5.58563

>  <SCORE.INTER.CONST>
1

>  <SCORE.INTER.POLAR>
0

>  <SCORE.INTER.ROT>
5

>  <SCORE.INTER.SOLV>
10.1783

>  <SCORE.INTER.VDW>
-14.0498

>  <SCORE.INTER.norm>
-0.253892

>  <SCORE.INTRA>
1.44691

>  <SCORE.INTRA.DIHEDRAL>
-1.81612

>  <SCORE.INTRA.DIHEDRAL.0>
3.49807

>  <SCORE.INTRA.POLAR>
0

>  <SCORE.INTRA.POLAR.0>
0

>  <SCORE.INTRA.REPUL>
0

>  <SCORE.INTRA.REPUL.0>
0

>  <SCORE.INTRA.SOLV>
4.26242

>  <SCORE.INTRA.SOLV.lig_0>
-73.062

>  <SCORE.INTRA.VDW>
0.223756

>  <SCORE.INTRA.VDW.0>
-1.83782

>  <SCORE.INTRA.norm>
0.0657685

>  <SCORE.RESTR>
0.00280197

>  <SCORE.RESTR.CAVITY>
0.00280197

>  <SCORE.RESTR.norm>
0.000127362

>  <SCORE.SYSTEM>
0

>  <SCORE.SYSTEM.CONST>
0

>  <SCORE.SYSTEM.DIHEDRAL>
0

>  <SCORE.SYSTEM.SOLV>
0

>  <SCORE.SYSTEM.norm>
0

>  <SCORE.heavy>
22

>  <SCORE.norm>
-0.187996

>  <RMSD>
3.097

$$$$
ligand
 OpenBabel11021811513D
libRbt.so/2013.1/901 2013/11/27
 22 23  0  0  0  0  0  0  0  0999 V2000
  -31.3588    1.3621  -10.4719 N   0  0  0  0  0  0  0  0  0  0  0  0
  -28.0172    1.8253  -10.2049 C   0  0  1  0  0  0  0  0  0  0  0  0
  -29.2079    1.1914   -9.6570 O   0  0  0  0  0  0  0  0  0  0  0  0
  -26.5130    5.2894   -9.8965 P   0  0  1  0  0  0  0  0  0  0  0  0
  -30.0927    0.8888  -10.7478 C   0  0  2  0  0  0  0  0  0  0  0  0
  -33.5153    1.6040  -10.5191 N   0  0  0  0  0  0  0  0  0  0  0  0
  -29.9843    1.1045  -13.1222 O   0  0  0  0  0  0  0  0  0  0  0  0
  -29.5827    1.6942  -11.8801 C   0  0  2  0  0  0  0  0  0  0  0  0
  -33.9741    4.6858   -9.1591 N   0  0  0  0  0  0  0  0  0  0  0  0
  -27.5770    0.4293  -12.0357 O   0  0  0  0  0  0  0  0  0  0  0  0
  -28.1396    1.7017  -11.6739 C   0  0  2  0  0  0  0  0  0  0  0  0
  -33.0205    2.4367   -9.5903 C   0  0  0  0  0  0  0  0  0  0  0  0
  -30.7658    2.9646   -8.6953 N   0  0  0  0  0  0  0  0  0  0  0  0
  -26.8408    3.7905  -10.2200 O   0  0  0  0  0  0  0  0  0  0  0  0
  -28.0419    3.2511   -9.7728 C   0  0  0  0  0  0  0  0  0  0  0  0
  -27.7167    6.0674  -10.5416 O   0  0  0  0  0  0  0  0  0  0  0  0
  -32.4799    0.9419  -11.0696 C   0  0  0  0  0  0  0  0  0  0  0  0
  -34.3088    2.9734   -7.6957 O   0  0  0  0  0  0  0  0  0  0  0  0
  -33.8094    3.3589   -8.7527 C   0  0  0  0  0  0  0  0  0  0  0  0
  -31.6634    2.2879   -9.5526 C   0  0  0  0  0  0  0  0  0  0  0  0
  -26.3796    5.4672   -8.4205 O   0  5  0  0  0  0  0  0  0  0  0  0
  -25.1581    5.6394  -10.3594 O   0  0  0  0  0  0  0  0  0  0  0  0
  1 17  1  0  0  0  0
  1 20  1  0  0  0  0
  2 15  1  6  0  0  0
  2  3  1  0  0  0  0
  2 11  1  0  0  0  0
  3  5  1  0  0  0  0
  4 16  1  6  0  0  0
  4 21  1  0  0  0  0
  4 22  2  0  0  0  0
  4 14  1  0  0  0  0
  5  1  1  1  0  0  0
  5  8  1  0  0  0  0
  6 17  2  0  0  0  0
  6 12  1  0  0  0  0
  8  7  1  6  0  0  0
  8 11  1  0  0  0  0
  9 19  1  0  0  0  0
 11 10  1  1  0  0  0
 12 20  2  0  0  0  0
 12 19  1  0  0  0  0
 13 20  1  0  0  0  0
 14 15  1  0  0  0  0
 18 19  2  0  0  0  0
M  CHG  1  21  -1
M  END
>  <CHROM.1>
-160.31841014,175.23863753,-58.22942268,-178.27616812,-94.65194105,-29.60959323
2.95520295,-10.17168896,-2.89401514,0.25450414,0.57942859

>  <Name>
ligand

>  <RI>
0

>  <Rbt.Current_Directory>
/home/itssahil/PROJECTS/Mol_Feturizer/New_Systems/rnas/4XWF

>  <Rbt.Executable>
rbdock ($Id: //depot/dev/client3/rdock/2013.1/src/exe/rbdock.cxx#4 $)

>  <Rbt.Library>
libRbt.so (2013.1, Build901 2013/11/27)

>  <Rbt.Parameter_File>
/export/apps/rDock/src/rDock_2013.1_src/data/scripts/dock_solv.prm

>  <Rbt.Receptor>
prm/pocket_docking_3.prm

>  <SCORE>
-3.88101

>  <SCORE.INTER>
-5.25819

>  <SCORE.INTER.CONST>
1

>  <SCORE.INTER.POLAR>
0

>  <SCORE.INTER.ROT>
5

>  <SCORE.INTER.SOLV>
9.29755

>  <SCORE.INTER.VDW>
-13.538

>  <SCORE.INTER.norm>
-0.239009

>  <SCORE.INTRA>
1.37718

>  <SCORE.INTRA.DIHEDRAL>
-1.20785

>  <SCORE.INTRA.DIHEDRAL.0>
3.49807

>  <SCORE.INTRA.POLAR>
0

>  <SCORE.INTRA.POLAR.0>
0

>  <SCORE.INTRA.REPUL>
0

>  <SCORE.INTRA.REPUL.0>
0

>  <SCORE.INTRA.SOLV>
3.43463

>  <SCORE.INTRA.SOLV.lig_0>
-73.062

>  <SCORE.INTRA.VDW>
0.263791

>  <SCORE.INTRA.VDW.0>
-1.83782

>  <SCORE.INTRA.norm>
0.0625991

>  <SCORE.RESTR>
0

>  <SCORE.RESTR.CAVITY>
0

>  <SCORE.RESTR.norm>
0

>  <SCORE.SYSTEM>
0

>  <SCORE.SYSTEM.CONST>
0

>  <SCORE.SYSTEM.DIHEDRAL>
0

>  <SCORE.SYSTEM.SOLV>
0

>  <SCORE.SYSTEM.norm>
0

>  <SCORE.heavy>
22

>  <SCORE.norm>
-0.17641

>  <RMSD>
3.155

$$$$
ligand
 OpenBabel11021811513D
libRbt.so/2013.1/901 2013/11/27
 22 23  0  0  0  0  0  0  0  0999 V2000
  -31.3608    1.3667  -10.4529 N   0  0  0  0  0  0  0  0  0  0  0  0
  -28.0184    1.8363  -10.2068 C   0  0  1  0  0  0  0  0  0  0  0  0
  -29.2063    1.2094   -9.6447 O   0  0  0  0  0  0  0  0  0  0  0  0
  -26.5220    5.3092   -9.9679 P   0  0  1  0  0  0  0  0  0  0  0  0
  -30.0954    0.8905  -10.7273 C   0  0  2  0  0  0  0  0  0  0  0  0
  -33.5172    1.6095  -10.4981 N   0  0  0  0  0  0  0  0  0  0  0  0
  -29.9971    1.0718  -13.1050 O   0  0  0  0  0  0  0  0  0  0  0  0
  -29.5908    1.6797  -11.8733 C   0  0  2  0  0  0  0  0  0  0  0  0
  -33.9904    4.6966   -9.1734 N   0  0  0  0  0  0  0  0  0  0  0  0
  -27.5847    0.4142  -12.0190 O   0  0  0  0  0  0  0  0  0  0  0  0
  -28.1469    1.6913  -11.6733 C   0  0  2  0  0  0  0  0  0  0  0  0
  -33.0202    2.4494   -9.5771 C   0  0  0  0  0  0  0  0  0  0  0  0
  -30.7635    2.9832   -8.6905 N   0  0  0  0  0  0  0  0  0  0  0  0
  -26.8489    3.8048  -10.2654 O   0  0  0  0  0  0  0  0  0  0  0  0
  -28.0425    3.2681   -9.7952 C   0  0  0  0  0  0  0  0  0  0  0  0
  -27.7311    6.0747  -10.6179 O   0  0  0  0  0  0  0  0  0  0  0  0
  -32.4831    0.9424  -11.0451 C   0  0  0  0  0  0  0  0  0  0  0  0
  -34.2883    3.0077   -7.6752 O   0  0  0  0  0  0  0  0  0  0  0  0
  -33.8070    3.3789   -8.7455 C   0  0  0  0  0  0  0  0  0  0  0  0
  -31.6631    2.3001   -9.5407 C   0  0  0  0  0  0  0  0  0  0  0  0
  -26.3800    5.5107   -8.4957 O   0  5  0  0  0  0  0  0  0  0  0  0
  -25.1706    5.6543  -10.4445 O   0  0  0  0  0  0  0  0  0  0  0  0
  1 17  1  0  0  0  0
  1 20  1  0  0  0  0
  2 15  1  6  0  0  0
  2  3  1  0  0  0  0
  2 11  1  0  0  0  0
  3  5  1  0  0  0  0
  4 16  1  6  0  0  0
  4 21  1  0  0  0  0
  4 22  2  0  0  0  0
  4 14  1  0  0  0  0
  5  1  1  1  0  0  0
  5  8  1  0  0  0  0
  6 17  2  0  0  0  0
  6 12  1  0  0  0  0
  8  7  1  6  0  0  0
  8 11  1  0  0  0  0
  9 19  1  0  0  0  0
 11 10  1  1  0  0  0
 12 20  2  0  0  0  0
 12 19  1  0  0  0  0
 13 20  1  0  0  0  0
 14 15  1  0  0  0  0
 18 19  2  0  0  0  0
M  CHG  1  21  -1
M  END
>  <CHROM.1>
-160.71585103,175.74075776,-58.62163022,-178.26871510,-93.59140969,-29.61365236
2.96475271,-10.18543332,-2.89668095,0.26090672,0.56472654

>  <Name>
ligand

>  <RI>
0

>  <Rbt.Current_Directory>
/home/itssahil/PROJECTS/Mol_Feturizer/New_Systems/rnas/4XWF

>  <Rbt.Executable>
rbdock ($Id: //depot/dev/client3/rdock/2013.1/src/exe/rbdock.cxx#4 $)

>  <Rbt.Library>
libRbt.so (2013.1, Build901 2013/11/27)

>  <Rbt.Parameter_File>
/export/apps/rDock/src/rDock_2013.1_src/data/scripts/dock_solv.prm

>  <Rbt.Receptor>
prm/pocket_docking_3.prm

>  <SCORE>
-3.86776

>  <SCORE.INTER>
-5.25672

>  <SCORE.INTER.CONST>
1

>  <SCORE.INTER.POLAR>
0

>  <SCORE.INTER.ROT>
5

>  <SCORE.INTER.SOLV>
9.32976

>  <SCORE.INTER.VDW>
-13.5477

>  <SCORE.INTER.norm>
-0.238942

>  <SCORE.INTRA>
1.38896

>  <SCORE.INTRA.DIHEDRAL>
-1.17871

>  <SCORE.INTRA.DIHEDRAL.0>
3.49807

>  <SCORE.INTRA.POLAR>
0

>  <SCORE.INTRA.POLAR.0>
0

>  <SCORE.INTRA.REPUL>
0

>  <SCORE.INTRA.REPUL.0>
0

>  <SCORE.INTRA.SOLV>
3.41576

>  <SCORE.INTRA.SOLV.lig_0>
-73.062

>  <SCORE.INTRA.VDW>
0.270433

>  <SCORE.INTRA.VDW.0>
-1.83782

>  <SCORE.INTRA.norm>
0.0631346

>  <SCORE.RESTR>
0

>  <SCORE.RESTR.CAVITY>
0

>  <SCORE.RESTR.norm>
0

>  <SCORE.SYSTEM>
0

>  <SCORE.SYSTEM.CONST>
0

>  <SCORE.SYSTEM.DIHEDRAL>
0

>  <SCORE.SYSTEM.SOLV>
0

>  <SCORE.SYSTEM.norm>
0

>  <SCORE.heavy>
22

>  <SCORE.norm>
-0.175807

>  <RMSD>
3.159

$$$$
ligand
 OpenBabel11021811513D
libRbt.so/2013.1/901 2013/11/27
 22 23  0  0  0  0  0  0  0  0999 V2000
  -31.3655    1.3118  -10.5642 N   0  0  0  0  0  0  0  0  0  0  0  0
  -28.0405    1.8439  -10.2267 C   0  0  1  0  0  0  0  0  0  0  0  0
  -29.2315    1.1953   -9.6968 O   0  0  0  0  0  0  0  0  0  0  0  0
  -26.6167    5.3441   -9.9581 P   0  0  1  0  0  0  0  0  0  0  0  0
  -30.0844    0.8591  -10.8031 C   0  0  2  0  0  0  0  0  0  0  0  0
  -33.5260    1.4995  -10.6522 N   0  0  0  0  0  0  0  0  0  0  0  0
  -29.9241    1.0407  -13.1774 O   0  0  0  0  0  0  0  0  0  0  0  0
  -29.5633    1.6569  -11.9357 C   0  0  2  0  0  0  0  0  0  0  0  0
  -33.9757    3.1503   -7.5742 N   0  0  0  0  0  0  0  0  0  0  0  0
  -27.5307    0.4290  -12.0247 O   0  0  0  0  0  0  0  0  0  0  0  0
  -28.1258    1.6955  -11.6961 C   0  0  2  0  0  0  0  0  0  0  0  0
  -33.0655    2.3788   -9.7492 C   0  0  0  0  0  0  0  0  0  0  0  0
  -30.8381    2.9950   -8.8424 N   0  0  0  0  0  0  0  0  0  0  0  0
  -26.9256    3.8436  -10.2923 O   0  0  0  0  0  0  0  0  0  0  0  0
  -28.1026    3.2753   -9.8177 C   0  0  0  0  0  0  0  0  0  0  0  0
  -26.4378    5.3346   -8.3966 O   0  0  0  0  0  0  0  0  0  0  0  0
  -32.4669    0.8420  -11.1615 C   0  0  0  0  0  0  0  0  0  0  0  0
  -34.5091    4.2219   -9.5114 O   0  0  0  0  0  0  0  0  0  0  0  0
  -33.8889    3.3131   -8.9594 C   0  0  0  0  0  0  0  0  0  0  0  0
  -31.7060    2.2644   -9.6860 C   0  0  0  0  0  0  0  0  0  0  0  0
  -25.4115    5.7901  -10.7175 O   0  5  0  0  0  0  0  0  0  0  0  0
  -27.6581    6.2278  -10.5123 O   0  0  0  0  0  0  0  0  0  0  0  0
  1 17  1  0  0  0  0
  1 20  1  0  0  0  0
  2 15  1  6  0  0  0
  2  3  1  0  0  0  0
  2 11  1  0  0  0  0
  3  5  1  0  0  0  0
  4 16  1  1  0  0  0
  4 21  1  0  0  0  0
  4 22  2  0  0  0  0
  4 14  1  0  0  0  0
  5  1  1  1  0  0  0
  5  8  1  0  0  0  0
  6 17  2  0  0  0  0
  6 12  1  0  0  0  0
  8  7  1  6  0  0  0
  8 11  1  0  0  0  0
  9 19  1  0  0  0  0
 11 10  1  1  0  0  0
 12 20  2  0  0  0  0
 12 19  1  0  0  0  0
 13 20  1  0  0  0  0
 14 15  1  0  0  0  0
 18 19  2  0  0  0  0
M  CHG  1  21  -1
M  END
>  <CHROM.1>
-158.88764301,177.55797085,65.27802392,-176.26850265,113.53266096,-29.65286220
2.94931451,-10.26618047,-2.86968551,0.24563958,0.55611088

>  <Name>
ligand

>  <RI>
0

>  <Rbt.Current_Directory>
/home/itssahil/PROJECTS/Mol_Feturizer/New_Systems/rnas/4XWF

>  <Rbt.Executable>
rbdock ($Id: //depot/dev/client3/rdock/2013.1/src/exe/rbdock.cxx#4 $)

>  <Rbt.Library>
libRbt.so (2013.1, Build901 2013/11/27)

>  <Rbt.Parameter_File>
/export/apps/rDock/src/rDock_2013.1_src/data/scripts/dock_solv.prm

>  <Rbt.Receptor>
prm/pocket_docking_3.prm

>  <SCORE>
-4.42479

>  <SCORE.INTER>
-5.56626

>  <SCORE.INTER.CONST>
1

>  <SCORE.INTER.POLAR>
0

>  <SCORE.INTER.ROT>
5

>  <SCORE.INTER.SOLV>
10.3114

>  <SCORE.INTER.VDW>
-14.0813

>  <SCORE.INTER.norm>
-0.253012

>  <SCORE.INTRA>
1.14146

>  <SCORE.INTRA.DIHEDRAL>
-1.7878

>  <SCORE.INTRA.DIHEDRAL.0>
3.49807

>  <SCORE.INTRA.POLAR>
0

>  <SCORE.INTRA.POLAR.0>
0

>  <SCORE.INTRA.REPUL>
0

>  <SCORE.INTRA.REPUL.0>
0

>  <SCORE.INTRA.SOLV>
3.5877

>  <SCORE.INTRA.SOLV.lig_0>
-73.062

>  <SCORE.INTRA.VDW>
0.241517

>  <SCORE.INTRA.VDW.0>
-1.83782

>  <SCORE.INTRA.norm>
0.0518847

>  <SCORE.RESTR>
0

>  <SCORE.RESTR.CAVITY>
0

>  <SCORE.RESTR.norm>
0

>  <SCORE.SYSTEM>
0

>  <SCORE.SYSTEM.CONST>
0

>  <SCORE.SYSTEM.DIHEDRAL>
0

>  <SCORE.SYSTEM.SOLV>
0

>  <SCORE.SYSTEM.norm>
0

>  <SCORE.heavy>
22

>  <SCORE.norm>
-0.201127

>  <RMSD>
3.175

$$$$
ligand
 OpenBabel11021811513D
libRbt.so/2013.1/901 2013/11/27
 22 23  0  0  0  0  0  0  0  0999 V2000
  -30.7198    2.5165   -9.9450 N   0  0  0  0  0  0  0  0  0  0  0  0
  -27.7616    1.4359  -11.1835 C   0  0  1  0  0  0  0  0  0  0  0  0
  -28.5740    1.6723   -9.9986 O   0  0  0  0  0  0  0  0  0  0  0  0
  -25.7430    4.6009  -10.6676 P   0  0  1  0  0  0  0  0  0  0  0  0
  -29.9488    1.4463  -10.3495 C   0  0  2  0  0  0  0  0  0  0  0  0
  -31.3771    4.5538   -9.5868 N   0  0  0  0  0  0  0  0  0  0  0  0
  -31.0948    0.7176  -12.3121 O   0  0  0  0  0  0  0  0  0  0  0  0
  -29.9654    1.4547  -11.8295 C   0  0  2  0  0  0  0  0  0  0  0  0
  -34.0797    3.5254   -7.4177 N   0  0  0  0  0  0  0  0  0  0  0  0
  -28.7081   -0.5564  -11.9769 O   0  0  0  0  0  0  0  0  0  0  0  0
  -28.6822    0.8648  -12.1908 C   0  0  2  0  0  0  0  0  0  0  0  0
  -32.3516    3.7227   -9.1866 C   0  0  0  0  0  0  0  0  0  0  0  0
  -32.6884    1.2633   -9.1512 N   0  0  0  0  0  0  0  0  0  0  0  0
  -26.4519    3.2068  -10.5555 O   0  0  0  0  0  0  0  0  0  0  0  0
  -27.2270    2.7568  -11.6186 C   0  0  0  0  0  0  0  0  0  0  0  0
  -24.8182    4.4331  -11.9274 O   0  0  0  0  0  0  0  0  0  0  0  0
  -30.3618    3.8013  -10.0520 C   0  0  0  0  0  0  0  0  0  0  0  0
  -34.3406    4.9796   -9.1505 O   0  0  0  0  0  0  0  0  0  0  0  0
  -33.6424    4.1284   -8.6001 C   0  0  0  0  0  0  0  0  0  0  0  0
  -31.9463    2.4381   -9.4117 C   0  0  0  0  0  0  0  0  0  0  0  0
  -26.7691    5.6778  -10.7909 O   0  5  0  0  0  0  0  0  0  0  0  0
  -25.0908    4.9592   -9.3952 O   0  0  0  0  0  0  0  0  0  0  0  0
  1 17  1  0  0  0  0
  1 20  1  0  0  0  0
  2 15  1  6  0  0  0
  2  3  1  0  0  0  0
  2 11  1  0  0  0  0
  3  5  1  0  0  0  0
  4 16  1  6  0  0  0
  4 21  1  0  0  0  0
  4 22  2  0  0  0  0
  4 14  1  0  0  0  0
  5  1  1  1  0  0  0
  5  8  1  0  0  0  0
  6 17  2  0  0  0  0
  6 12  1  0  0  0  0
  8  7  1  6  0  0  0
  8 11  1  0  0  0  0
  9 19  1  0  0  0  0
 11 10  1  1  0  0  0
 12 20  2  0  0  0  0
 12 19  1  0  0  0  0
 13 20  1  0  0  0  0
 14 15  1  0  0  0  0
 18 19  2  0  0  0  0
M  CHG  1  21  -1
M  END
>  <CHROM.1>
40.93655363,61.41126246,-59.64772544,-179.15798736,-130.57337383,-29.32942010
2.99466640,-10.38204724,3.12303195,0.26827589,0.45677852

>  <Name>
ligand

>  <RI>
0

>  <Rbt.Current_Directory>
/home/itssahil/PROJECTS/Mol_Feturizer/New_Systems/rnas/4XWF

>  <Rbt.Executable>
rbdock ($Id: //depot/dev/client3/rdock/2013.1/src/exe/rbdock.cxx#4 $)

>  <Rbt.Library>
libRbt.so (2013.1, Build901 2013/11/27)

>  <Rbt.Parameter_File>
/export/apps/rDock/src/rDock_2013.1_src/data/scripts/dock_solv.prm

>  <Rbt.Receptor>
prm/pocket_docking_3.prm

>  <SCORE>
-4.06004

>  <SCORE.INTER>
-2.61276

>  <SCORE.INTER.CONST>
1

>  <SCORE.INTER.POLAR>
0

>  <SCORE.INTER.ROT>
5

>  <SCORE.INTER.SOLV>
11.7006

>  <SCORE.INTER.VDW>
-12.5754

>  <SCORE.INTER.norm>
-0.118762

>  <SCORE.INTRA>
-1.44728

>  <SCORE.INTRA.DIHEDRAL>
-1.8865

>  <SCORE.INTRA.DIHEDRAL.0>
3.49807

>  <SCORE.INTRA.POLAR>
0

>  <SCORE.INTRA.POLAR.0>
0

>  <SCORE.INTRA.REPUL>
0

>  <SCORE.INTRA.REPUL.0>
0

>  <SCORE.INTRA.SOLV>
-0.21424

>  <SCORE.INTRA.SOLV.lig_0>
-73.062

>  <SCORE.INTRA.VDW>
-0.396909

>  <SCORE.INTRA.VDW.0>
-1.83782

>  <SCORE.INTRA.norm>
-0.0657855

>  <SCORE.RESTR>
0

>  <SCORE.RESTR.CAVITY>
0

>  <SCORE.RESTR.norm>
0

>  <SCORE.SYSTEM>
0

>  <SCORE.SYSTEM.CONST>
0

>  <SCORE.SYSTEM.DIHEDRAL>
0

>  <SCORE.SYSTEM.SOLV>
0

>  <SCORE.SYSTEM.norm>
0

>  <SCORE.heavy>
22

>  <SCORE.norm>
-0.184547

>  <RMSD>
3.175

$$$$
ligand
 OpenBabel11021811513D
libRbt.so/2013.1/901 2013/11/27
 22 23  0  0  0  0  0  0  0  0999 V2000
  -30.6386    2.4740  -10.0278 N   0  0  0  0  0  0  0  0  0  0  0  0
  -27.6745    1.2509  -11.1098 C   0  0  1  0  0  0  0  0  0  0  0  0
  -28.5412    1.5161   -9.9704 O   0  0  0  0  0  0  0  0  0  0  0  0
  -25.6189    4.3511  -10.3907 P   0  0  1  0  0  0  0  0  0  0  0  0
  -29.9032    1.3690  -10.4037 C   0  0  2  0  0  0  0  0  0  0  0  0
  -31.1986    4.5381   -9.6577 N   0  0  0  0  0  0  0  0  0  0  0  0
  -30.9692    0.7275  -12.4403 O   0  0  0  0  0  0  0  0  0  0  0  0
  -29.8325    1.3966  -11.8819 C   0  0  2  0  0  0  0  0  0  0  0  0
  -34.7192    3.8962   -9.5742 N   0  0  0  0  0  0  0  0  0  0  0  0
  -28.6773   -0.6774  -11.9875 O   0  0  0  0  0  0  0  0  0  0  0  0
  -28.5635    0.7429  -12.1775 C   0  0  2  0  0  0  0  0  0  0  0  0
  -32.2511    3.7593   -9.3641 C   0  0  0  0  0  0  0  0  0  0  0  0
  -32.7379    1.3259   -9.4357 N   0  0  0  0  0  0  0  0  0  0  0  0
  -26.3508    2.9646  -10.3633 O   0  0  0  0  0  0  0  0  0  0  0  0
  -27.0459    2.5464  -11.4928 C   0  0  0  0  0  0  0  0  0  0  0  0
  -24.5816    4.1865  -11.5601 O   0  0  0  0  0  0  0  0  0  0  0  0
  -30.1959    3.7362  -10.0641 C   0  0  0  0  0  0  0  0  0  0  0  0
  -33.6332    4.9218   -7.8555 O   0  0  0  0  0  0  0  0  0  0  0  0
  -33.5588    4.2292   -8.8703 C   0  0  0  0  0  0  0  0  0  0  0  0
  -31.9072    2.4583   -9.5975 C   0  0  0  0  0  0  0  0  0  0  0  0
  -26.6168    5.4419  -10.5961 O   0  5  0  0  0  0  0  0  0  0  0  0
  -25.0854    4.6865   -9.0582 O   0  0  0  0  0  0  0  0  0  0  0  0
  1 17  1  0  0  0  0
  1 20  1  0  0  0  0
  2 15  1  6  0  0  0
  2  3  1  0  0  0  0
  2 11  1  0  0  0  0
  3  5  1  0  0  0  0
  4 16  1  6  0  0  0
  4 21  1  0  0  0  0
  4 22  2  0  0  0  0
  4 14  1  0  0  0  0
  5  1  1  1  0  0  0
  5  8  1  0  0  0  0
  6 17  2  0  0  0  0
  6 12  1  0  0  0  0
  8  7  1  6  0  0  0
  8 11  1  0  0  0  0
  9 19  1  0  0  0  0
 11 10  1  1  0  0  0
 12 20  2  0  0  0  0
 12 19  1  0  0  0  0
 13 20  1  0  0  0  0
 14 15  1  0  0  0  0
 18 19  2  0  0  0  0
M  CHG  1  21  -1
M  END
>  <CHROM.1>
39.26047696,59.33229788,-60.69791506,-176.90714653,123.70545908,-29.23122425
2.89974804,-10.37474674,3.10839294,0.18278319,0.49630754

>  <Name>
ligand

>  <RI>
0

>  <Rbt.Current_Directory>
/home/itssahil/PROJECTS/Mol_Feturizer/New_Systems/rnas/4XWF

>  <Rbt.Executable>
rbdock ($Id: //depot/dev/client3/rdock/2013.1/src/exe/rbdock.cxx#4 $)

>  <Rbt.Library>
libRbt.so (2013.1, Build901 2013/11/27)

>  <Rbt.Parameter_File>
/export/apps/rDock/src/rDock_2013.1_src/data/scripts/dock_solv.prm

>  <Rbt.Receptor>
prm/pocket_docking_3.prm

>  <SCORE>
-4.05072

>  <SCORE.INTER>
-2.59521

>  <SCORE.INTER.CONST>
1

>  <SCORE.INTER.POLAR>
0

>  <SCORE.INTER.ROT>
5

>  <SCORE.INTER.SOLV>
13.7609

>  <SCORE.INTER.VDW>
-13.2504

>  <SCORE.INTER.norm>
-0.117964

>  <SCORE.INTRA>
-1.46712

>  <SCORE.INTRA.DIHEDRAL>
-1.94191

>  <SCORE.INTRA.DIHEDRAL.0>
3.49807

>  <SCORE.INTRA.POLAR>
0

>  <SCORE.INTRA.POLAR.0>
0

>  <SCORE.INTRA.REPUL>
0

>  <SCORE.INTRA.REPUL.0>
0

>  <SCORE.INTRA.SOLV>
-0.142238

>  <SCORE.INTRA.SOLV.lig_0>
-73.062

>  <SCORE.INTRA.VDW>
-0.425048

>  <SCORE.INTRA.VDW.0>
-1.83782

>  <SCORE.INTRA.norm>
-0.0666873

>  <SCORE.RESTR>
0.0116145

>  <SCORE.RESTR.CAVITY>
0.0116145

>  <SCORE.RESTR.norm>
0.000527931

>  <SCORE.SYSTEM>
0

>  <SCORE.SYSTEM.CONST>
0

>  <SCORE.SYSTEM.DIHEDRAL>
0

>  <SCORE.SYSTEM.SOLV>
0

>  <SCORE.SYSTEM.norm>
0

>  <SCORE.heavy>
22

>  <SCORE.norm>
-0.184124

>  <RMSD>
3.192

$$$$
ligand
 OpenBabel11021811513D
libRbt.so/2013.1/901 2013/11/27
 22 23  0  0  0  0  0  0  0  0999 V2000
  -31.3814    1.3075  -10.5581 N   0  0  0  0  0  0  0  0  0  0  0  0
  -28.0542    1.8108  -10.1992 C   0  0  1  0  0  0  0  0  0  0  0  0
  -29.2536    1.1702   -9.6787 O   0  0  0  0  0  0  0  0  0  0  0  0
  -26.5909    5.2909   -9.8731 P   0  0  1  0  0  0  0  0  0  0  0  0
  -30.1027    0.8450  -10.7912 C   0  0  2  0  0  0  0  0  0  0  0  0
  -33.5396    1.5148  -10.6598 N   0  0  0  0  0  0  0  0  0  0  0  0
  -29.9269    1.0340  -13.1638 O   0  0  0  0  0  0  0  0  0  0  0  0
  -29.5684    1.6427  -11.9178 C   0  0  2  0  0  0  0  0  0  0  0  0
  -34.0081    3.1402   -7.5760 N   0  0  0  0  0  0  0  0  0  0  0  0
  -27.5455    0.3983  -11.9994 O   0  0  0  0  0  0  0  0  0  0  0  0
  -28.1321    1.6685  -11.6696 C   0  0  2  0  0  0  0  0  0  0  0  0
  -33.0777    2.3840   -9.7478 C   0  0  0  0  0  0  0  0  0  0  0  0
  -30.8513    2.9745   -8.8215 N   0  0  0  0  0  0  0  0  0  0  0  0
  -26.8860    3.7808  -10.1749 O   0  0  0  0  0  0  0  0  0  0  0  0
  -28.1069    3.2411   -9.7852 C   0  0  0  0  0  0  0  0  0  0  0  0
  -27.7425    6.0411  -10.6357 O   0  0  0  0  0  0  0  0  0  0  0  0
  -32.4827    0.8514  -11.1662 C   0  0  0  0  0  0  0  0  0  0  0  0
  -34.4963    4.2458   -9.5060 O   0  0  0  0  0  0  0  0  0  0  0  0
  -33.8983    3.3203   -8.9575 C   0  0  0  0  0  0  0  0  0  0  0  0
  -31.7197    2.2572   -9.6759 C   0  0  0  0  0  0  0  0  0  0  0  0
  -26.5761    5.5147   -8.3975 O   0  5  0  0  0  0  0  0  0  0  0  0
  -25.2048    5.6352  -10.2375 O   0  0  0  0  0  0  0  0  0  0  0  0
  1 17  1  0  0  0  0
  1 20  1  0  0  0  0
  2 15  1  6  0  0  0
  2  3  1  0  0  0  0
  2 11  1  0  0  0  0
  3  5  1  0  0  0  0
  4 16  1  6  0  0  0
  4 21  1  0  0  0  0
  4 22  2  0  0  0  0
  4 14  1  0  0  0  0
  5  1  1  1  0  0  0
  5  8  1  0  0  0  0
  6 17  2  0  0  0  0
  6 12  1  0  0  0  0
  8  7  1  6  0  0  0
  8 11  1  0  0  0  0
  9 19  1  0  0  0  0
 11 10  1  1  0  0  0
 12 20  2  0  0  0  0
 12 19  1  0  0  0  0
 13 20  1  0  0  0  0
 14 15  1  0  0  0  0
 18 19  2  0  0  0  0
M  CHG  1  21  -1
M  END
>  <CHROM.1>
-159.07236945,173.85162191,-59.43853167,-179.29165245,112.82583981,-29.65754064
2.92627975,-10.22638969,-2.87007286,0.22736075,0.56963508

>  <Name>
ligand

>  <RI>
0

>  <Rbt.Current_Directory>
/home/itssahil/PROJECTS/Mol_Feturizer/New_Systems/rnas/4XWF

>  <Rbt.Executable>
rbdock ($Id: //depot/dev/client3/rdock/2013.1/src/exe/rbdock.cxx#4 $)

>  <Rbt.Library>
libRbt.so (2013.1, Build901 2013/11/27)

>  <Rbt.Parameter_File>
/export/apps/rDock/src/rDock_2013.1_src/data/scripts/dock_solv.prm

>  <Rbt.Receptor>
prm/pocket_docking_3.prm

>  <SCORE>
-4.91861

>  <SCORE.INTER>
-6.05065

>  <SCORE.INTER.CONST>
1

>  <SCORE.INTER.POLAR>
0

>  <SCORE.INTER.ROT>
5

>  <SCORE.INTER.SOLV>
9.19162

>  <SCORE.INTER.VDW>
-14.031

>  <SCORE.INTER.norm>
-0.27503

>  <SCORE.INTRA>
1.13038

>  <SCORE.INTRA.DIHEDRAL>
-1.76354

>  <SCORE.INTRA.DIHEDRAL.0>
3.49807

>  <SCORE.INTRA.POLAR>
0

>  <SCORE.INTRA.POLAR.0>
0

>  <SCORE.INTRA.REPUL>
0

>  <SCORE.INTRA.REPUL.0>
0

>  <SCORE.INTRA.SOLV>
3.5726

>  <SCORE.INTRA.SOLV.lig_0>
-73.062

>  <SCORE.INTRA.VDW>
0.225854

>  <SCORE.INTRA.VDW.0>
-1.83782

>  <SCORE.INTRA.norm>
0.051381

>  <SCORE.RESTR>
0.00165467

>  <SCORE.RESTR.CAVITY>
0.00165467

>  <SCORE.RESTR.norm>
7.52122e-05

>  <SCORE.SYSTEM>
0

>  <SCORE.SYSTEM.CONST>
0

>  <SCORE.SYSTEM.DIHEDRAL>
0

>  <SCORE.SYSTEM.SOLV>
0

>  <SCORE.SYSTEM.norm>
0

>  <SCORE.heavy>
22

>  <SCORE.norm>
-0.223573

>  <RMSD>
3.195

$$$$
ligand
 OpenBabel11021811513D
libRbt.so/2013.1/901 2013/11/27
 22 23  0  0  0  0  0  0  0  0999 V2000
  -31.3504    1.2344  -10.6988 N   0  0  0  0  0  0  0  0  0  0  0  0
  -27.9874    1.5644  -10.5154 C   0  0  1  0  0  0  0  0  0  0  0  0
  -29.1866    0.9656   -9.9468 O   0  0  0  0  0  0  0  0  0  0  0  0
  -26.3923    4.9931  -10.2753 P   0  0  1  0  0  0  0  0  0  0  0  0
  -30.1114    0.7187  -11.0183 C   0  0  2  0  0  0  0  0  0  0  0  0
  -33.5000    1.5305  -10.6496 N   0  0  0  0  0  0  0  0  0  0  0  0
  -30.0585    0.9770  -13.3903 O   0  0  0  0  0  0  0  0  0  0  0  0
  -29.6012    1.5262  -12.1490 C   0  0  2  0  0  0  0  0  0  0  0  0
  -33.5420    3.2859   -7.5472 N   0  0  0  0  0  0  0  0  0  0  0  0
  -27.6508    0.1890  -12.3835 O   0  0  0  0  0  0  0  0  0  0  0  0
  -28.1539    1.4745  -11.9826 C   0  0  2  0  0  0  0  0  0  0  0  0
  -32.9397    2.3829   -9.7778 C   0  0  0  0  0  0  0  0  0  0  0  0
  -30.6311    2.8839   -9.0142 N   0  0  0  0  0  0  0  0  0  0  0  0
  -26.7498    3.4914  -10.5502 O   0  0  0  0  0  0  0  0  0  0  0  0
  -27.9453    2.9812  -10.0562 C   0  0  0  0  0  0  0  0  0  0  0  0
  -27.6039    5.7716  -10.9050 O   0  0  0  0  0  0  0  0  0  0  0  0
  -32.5096    0.8223  -11.2249 C   0  0  0  0  0  0  0  0  0  0  0  0
  -34.3820    4.2131   -9.4499 O   0  0  0  0  0  0  0  0  0  0  0  0
  -33.6634    3.3550   -8.9376 C   0  0  0  0  0  0  0  0  0  0  0  0
  -31.5864    2.2003   -9.8009 C   0  0  0  0  0  0  0  0  0  0  0  0
  -26.2131    5.2065   -8.8089 O   0  5  0  0  0  0  0  0  0  0  0  0
  -25.0470    5.3119  -10.7862 O   0  0  0  0  0  0  0  0  0  0  0  0
  1 17  1  0  0  0  0
  1 20  1  0  0  0  0
  2 15  1  6  0  0  0
  2  3  1  0  0  0  0
  2 11  1  0  0  0  0
  3  5  1  0  0  0  0
  4 16  1  6  0  0  0
  4 21  1  0  0  0  0
  4 22  2  0  0  0  0
  4 14  1  0  0  0  0
  5  1  1  1  0  0  0
  5  8  1  0  0  0  0
  6 17  2  0  0  0  0
  6 12  1  0  0  0  0
  8  7  1  6  0  0  0
  8 11  1  0  0  0  0
  9 19  1  0  0  0  0
 11 10  1  1  0  0  0
 12 20  2  0  0  0  0
 12 19  1  0  0  0  0
 13 20  1  0  0  0  0
 14 15  1  0  0  0  0
 18 19  2  0  0  0  0
M  CHG  1  21  -1
M  END
>  <CHROM.1>
-156.79034494,176.45963426,-58.13380167,178.70641492,121.01273413,-29.54615472
2.77580360,-10.45639059,-2.94397332,0.25077800,0.59396676

>  <Name>
ligand

>  <RI>
0

>  <Rbt.Current_Directory>
/home/itssahil/PROJECTS/Mol_Feturizer/New_Systems/rnas/4XWF

>  <Rbt.Executable>
rbdock ($Id: //depot/dev/client3/rdock/2013.1/src/exe/rbdock.cxx#4 $)

>  <Rbt.Library>
libRbt.so (2013.1, Build901 2013/11/27)

>  <Rbt.Parameter_File>
/export/apps/rDock/src/rDock_2013.1_src/data/scripts/dock_solv.prm

>  <Rbt.Receptor>
prm/pocket_docking_4.prm

>  <SCORE>
-5.62484

>  <SCORE.INTER>
-6.7777

>  <SCORE.INTER.CONST>
1

>  <SCORE.INTER.POLAR>
0

>  <SCORE.INTER.ROT>
5

>  <SCORE.INTER.SOLV>
8.78004

>  <SCORE.INTER.VDW>
-14.3785

>  <SCORE.INTER.norm>
-0.308077

>  <SCORE.INTRA>
1.15286

>  <SCORE.INTRA.DIHEDRAL>
-1.888

>  <SCORE.INTRA.DIHEDRAL.0>
3.49807

>  <SCORE.INTRA.POLAR>
0

>  <SCORE.INTRA.POLAR.0>
0

>  <SCORE.INTRA.REPUL>
0

>  <SCORE.INTRA.REPUL.0>
0

>  <SCORE.INTRA.SOLV>
3.72537

>  <SCORE.INTRA.SOLV.lig_0>
-73.062

>  <SCORE.INTRA.VDW>
0.234175

>  <SCORE.INTRA.VDW.0>
-1.83782

>  <SCORE.INTRA.norm>
0.0524027

>  <SCORE.RESTR>
0

>  <SCORE.RESTR.CAVITY>
0

>  <SCORE.RESTR.norm>
0

>  <SCORE.SYSTEM>
0

>  <SCORE.SYSTEM.CONST>
0

>  <SCORE.SYSTEM.DIHEDRAL>
0

>  <SCORE.SYSTEM.SOLV>
0

>  <SCORE.SYSTEM.norm>
0

>  <SCORE.heavy>
22

>  <SCORE.norm>
-0.255675

>  <RMSD>
3.252

$$$$
ligand
 OpenBabel11021811513D
libRbt.so/2013.1/901 2013/11/27
 22 23  0  0  0  0  0  0  0  0999 V2000
  -31.3933    1.1648  -10.7277 N   0  0  0  0  0  0  0  0  0  0  0  0
  -28.0314    1.4640  -10.4809 C   0  0  1  0  0  0  0  0  0  0  0  0
  -29.2451    0.8664   -9.9427 O   0  0  0  0  0  0  0  0  0  0  0  0
  -26.4496    4.8969  -10.2246 P   0  0  1  0  0  0  0  0  0  0  0  0
  -30.1530    0.6439  -11.0338 C   0  0  2  0  0  0  0  0  0  0  0  0
  -33.5416    1.4737  -10.7063 N   0  0  0  0  0  0  0  0  0  0  0  0
  -30.0566    0.9387  -13.4002 O   0  0  0  0  0  0  0  0  0  0  0  0
  -29.6167    1.4647  -12.1426 C   0  0  2  0  0  0  0  0  0  0  0  0
  -33.6193    3.2041   -7.5916 N   0  0  0  0  0  0  0  0  0  0  0  0
  -27.6733    0.1152  -12.3643 O   0  0  0  0  0  0  0  0  0  0  0  0
  -28.1730    1.3984  -11.9520 C   0  0  2  0  0  0  0  0  0  0  0  0
  -32.9883    2.3162   -9.8205 C   0  0  0  0  0  0  0  0  0  0  0  0
  -30.6876    2.7974   -9.0211 N   0  0  0  0  0  0  0  0  0  0  0  0
  -26.7896    3.3886  -10.4851 O   0  0  0  0  0  0  0  0  0  0  0  0
  -27.9860    2.8731   -9.9988 C   0  0  0  0  0  0  0  0  0  0  0  0
  -27.6524    5.6567  -10.8930 O   0  0  0  0  0  0  0  0  0  0  0  0
  -32.5475    0.7637  -11.2730 C   0  0  0  0  0  0  0  0  0  0  0  0
  -34.4214    4.1548   -9.4991 O   0  0  0  0  0  0  0  0  0  0  0  0
  -33.7178    3.2865   -8.9832 C   0  0  0  0  0  0  0  0  0  0  0  0
  -31.6359    2.1255   -9.8260 C   0  0  0  0  0  0  0  0  0  0  0  0
  -26.3052    5.1333   -8.7579 O   0  5  0  0  0  0  0  0  0  0  0  0
  -25.0955    5.2185  -10.7099 O   0  0  0  0  0  0  0  0  0  0  0  0
  1 17  1  0  0  0  0
  1 20  1  0  0  0  0
  2 15  1  1  0  0  0
  2  3  1  0  0  0  0
  2 11  1  0  0  0  0
  3  5  1  0  0  0  0
  4 16  1  6  0  0  0
  4 21  1  0  0  0  0
  4 22  2  0  0  0  0
  4 14  1  0  0  0  0
  5  1  1  1  0  0  0
  5  8  1  0  0  0  0
  6 17  2  0  0  0  0
  6 12  1  0  0  0  0
  8  7  1  6  0  0  0
  8 11  1  0  0  0  0
  9 19  1  0  0  0  0
 11 10  1  1  0  0  0
 12 20  2  0  0  0  0
 12 19  1  0  0  0  0
 13 20  1  0  0  0  0
 14 15  1  0  0  0  0
 18 19  2  0  0  0  0
M  CHG  1  21  -1
M  END
>  <CHROM.1>
-156.26200962,177.54320135,-58.78079595,176.80372210,120.83221987,-29.59116463
2.69564559,-10.45047939,-2.94173923,0.23790102,0.59560536

>  <Name>
ligand

>  <RI>
0

>  <Rbt.Current_Directory>
/home/itssahil/PROJECTS/Mol_Feturizer/New_Systems/rnas/4XWF

>  <Rbt.Executable>
rbdock ($Id: //depot/dev/client3/rdock/2013.1/src/exe/rbdock.cxx#4 $)

>  <Rbt.Library>
libRbt.so (2013.1, Build901 2013/11/27)

>  <Rbt.Parameter_File>
/export/apps/rDock/src/rDock_2013.1_src/data/scripts/dock_solv.prm

>  <Rbt.Receptor>
prm/pocket_docking_4.prm

>  <SCORE>
-5.67125

>  <SCORE.INTER>
-6.85533

>  <SCORE.INTER.CONST>
1

>  <SCORE.INTER.POLAR>
0

>  <SCORE.INTER.ROT>
5

>  <SCORE.INTER.SOLV>
9.20714

>  <SCORE.INTER.VDW>
-14.5726

>  <SCORE.INTER.norm>
-0.311606

>  <SCORE.INTRA>
1.18408

>  <SCORE.INTRA.DIHEDRAL>
-1.86789

>  <SCORE.INTRA.DIHEDRAL.0>
3.49807

>  <SCORE.INTRA.POLAR>
0

>  <SCORE.INTRA.POLAR.0>
0

>  <SCORE.INTRA.REPUL>
0

>  <SCORE.INTRA.REPUL.0>
0

>  <SCORE.INTRA.SOLV>
3.7566

>  <SCORE.INTRA.SOLV.lig_0>
-73.062

>  <SCORE.INTRA.VDW>
0.239728

>  <SCORE.INTRA.VDW.0>
-1.83782

>  <SCORE.INTRA.norm>
0.0538219

>  <SCORE.RESTR>
0

>  <SCORE.RESTR.CAVITY>
0

>  <SCORE.RESTR.norm>
0

>  <SCORE.SYSTEM>
0

>  <SCORE.SYSTEM.CONST>
0

>  <SCORE.SYSTEM.DIHEDRAL>
0

>  <SCORE.SYSTEM.SOLV>
0

>  <SCORE.SYSTEM.norm>
0

>  <SCORE.heavy>
22

>  <SCORE.norm>
-0.257784

>  <RMSD>
3.315

$$$$
ligand
 OpenBabel11021811513D
libRbt.so/2013.1/901 2013/11/27
 22 23  0  0  0  0  0  0  0  0999 V2000
  -30.6748    2.4523  -10.0932 N   0  0  0  0  0  0  0  0  0  0  0  0
  -27.7170    1.1059  -11.0371 C   0  0  1  0  0  0  0  0  0  0  0  0
  -28.6328    1.3907   -9.9416 O   0  0  0  0  0  0  0  0  0  0  0  0
  -25.4451    4.0138  -10.1763 P   0  0  1  0  0  0  0  0  0  0  0  0
  -29.9737    1.3200  -10.4529 C   0  0  2  0  0  0  0  0  0  0  0  0
  -31.1609    4.5355   -9.7259 N   0  0  0  0  0  0  0  0  0  0  0  0
  -30.9529    0.7732  -12.5596 O   0  0  0  0  0  0  0  0  0  0  0  0
  -29.8185    1.3738  -11.9239 C   0  0  2  0  0  0  0  0  0  0  0  0
  -33.5959    5.4303   -8.1719 N   0  0  0  0  0  0  0  0  0  0  0  0
  -28.7608   -0.7524  -12.0128 O   0  0  0  0  0  0  0  0  0  0  0  0
  -28.5679    0.6641  -12.1636 C   0  0  2  0  0  0  0  0  0  0  0  0
  -32.2541    3.7995   -9.4737 C   0  0  0  0  0  0  0  0  0  0  0  0
  -32.8387    1.3890   -9.5804 N   0  0  0  0  0  0  0  0  0  0  0  0
  -26.3282    2.7183  -10.1899 O   0  0  0  0  0  0  0  0  0  0  0  0
  -27.0060    2.3761  -11.3550 C   0  0  0  0  0  0  0  0  0  0  0  0
  -24.8338    4.0165   -8.7283 O   0  0  0  0  0  0  0  0  0  0  0  0
  -30.1792    3.6952  -10.1048 C   0  0  0  0  0  0  0  0  0  0  0  0
  -34.6049    3.7774   -9.3700 O   0  0  0  0  0  0  0  0  0  0  0  0
  -33.5571    4.3203   -9.0201 C   0  0  0  0  0  0  0  0  0  0  0  0
  -31.9568    2.4868   -9.7057 C   0  0  0  0  0  0  0  0  0  0  0  0
  -24.4367    3.9460  -11.2747 O   0  5  0  0  0  0  0  0  0  0  0  0
  -26.2377    5.1906  -10.5759 O   0  0  0  0  0  0  0  0  0  0  0  0
  1 17  1  0  0  0  0
  1 20  1  0  0  0  0
  2 15  1  6  0  0  0
  2  3  1  0  0  0  0
  2 11  1  0  0  0  0
  3  5  1  0  0  0  0
  4 16  1  1  0  0  0
  4 21  1  0  0  0  0
  4 22  2  0  0  0  0
  4 14  1  0  0  0  0
  5  1  1  1  0  0  0
  5  8  1  0  0  0  0
  6 17  2  0  0  0  0
  6 12  1  0  0  0  0
  8  7  1  6  0  0  0
  8 11  1  0  0  0  0
  9 19  1  0  0  0  0
 11 10  1  1  0  0  0
 12 20  2  0  0  0  0
 12 19  1  0  0  0  0
 13 20  1  0  0  0  0
 14 15  1  0  0  0  0
 18 19  2  0  0  0  0
M  CHG  1  21  -1
M  END
>  <CHROM.1>
40.84261747,60.82999350,-178.36799141,179.11741909,-33.98966001,-29.19107945
2.78872152,-10.35589659,3.08888291,0.11522394,0.51295109

>  <Name>
ligand

>  <RI>
0

>  <Rbt.Current_Directory>
/home/itssahil/PROJECTS/Mol_Feturizer/New_Systems/rnas/4XWF

>  <Rbt.Executable>
rbdock ($Id: //depot/dev/client3/rdock/2013.1/src/exe/rbdock.cxx#4 $)

>  <Rbt.Library>
libRbt.so (2013.1, Build901 2013/11/27)

>  <Rbt.Parameter_File>
/export/apps/rDock/src/rDock_2013.1_src/data/scripts/dock_solv.prm

>  <Rbt.Receptor>
prm/pocket_docking_4.prm

>  <SCORE>
-4.49669

>  <SCORE.INTER>
-3.70728

>  <SCORE.INTER.CONST>
1

>  <SCORE.INTER.POLAR>
0

>  <SCORE.INTER.ROT>
5

>  <SCORE.INTER.SOLV>
13.598

>  <SCORE.INTER.VDW>
-13.9375

>  <SCORE.INTER.norm>
-0.168513

>  <SCORE.INTRA>
-0.789411

>  <SCORE.INTRA.DIHEDRAL>
-1.0285

>  <SCORE.INTRA.DIHEDRAL.0>
3.49807

>  <SCORE.INTRA.POLAR>
0

>  <SCORE.INTRA.POLAR.0>
0

>  <SCORE.INTRA.REPUL>
0

>  <SCORE.INTRA.REPUL.0>
0

>  <SCORE.INTRA.SOLV>
0.167436

>  <SCORE.INTRA.SOLV.lig_0>
-73.062

>  <SCORE.INTRA.VDW>
-0.35888

>  <SCORE.INTRA.VDW.0>
-1.83782

>  <SCORE.INTRA.norm>
-0.0358823

>  <SCORE.RESTR>
0

>  <SCORE.RESTR.CAVITY>
0

>  <SCORE.RESTR.norm>
0

>  <SCORE.SYSTEM>
0

>  <SCORE.SYSTEM.CONST>
0

>  <SCORE.SYSTEM.DIHEDRAL>
0

>  <SCORE.SYSTEM.SOLV>
0

>  <SCORE.SYSTEM.norm>
0

>  <SCORE.heavy>
22

>  <SCORE.norm>
-0.204395

>  <RMSD>
3.330

$$$$
ligand
 OpenBabel11021811513D
libRbt.so/2013.1/901 2013/11/27
 22 23  0  0  0  0  0  0  0  0999 V2000
  -31.4053    1.3301  -10.5948 N   0  0  0  0  0  0  0  0  0  0  0  0
  -28.0252    1.2642  -10.4432 C   0  0  1  0  0  0  0  0  0  0  0  0
  -29.2810    0.8202   -9.8552 O   0  0  0  0  0  0  0  0  0  0  0  0
  -26.1264    4.5418  -10.4266 P   0  0  1  0  0  0  0  0  0  0  0  0
  -30.2388    0.6668  -10.9151 C   0  0  2  0  0  0  0  0  0  0  0  0
  -33.5111    1.8456  -10.4903 N   0  0  0  0  0  0  0  0  0  0  0  0
  -30.1789    0.8788  -13.2915 O   0  0  0  0  0  0  0  0  0  0  0  0
  -29.6481    1.3902  -12.0633 C   0  0  2  0  0  0  0  0  0  0  0  0
  -32.8594    5.0906   -9.0346 N   0  0  0  0  0  0  0  0  0  0  0  0
  -27.8710   -0.1712  -12.2900 O   0  0  0  0  0  0  0  0  0  0  0  0
  -28.2153    1.1710  -11.9073 C   0  0  2  0  0  0  0  0  0  0  0  0
  -32.8303    2.7058   -9.7176 C   0  0  0  0  0  0  0  0  0  0  0  0
  -30.4510    3.0315   -9.0881 N   0  0  0  0  0  0  0  0  0  0  0  0
  -26.6131    3.0610  -10.5967 O   0  0  0  0  0  0  0  0  0  0  0  0
  -27.8122    2.6734  -10.0087 C   0  0  0  0  0  0  0  0  0  0  0  0
  -27.2632    5.3755  -11.1216 O   0  0  0  0  0  0  0  0  0  0  0  0
  -32.6224    0.9956  -11.0391 C   0  0  0  0  0  0  0  0  0  0  0  0
  -34.3773    3.6150   -8.1952 O   0  0  0  0  0  0  0  0  0  0  0  0
  -33.4158    3.8123   -8.9381 C   0  0  0  0  0  0  0  0  0  0  0  0
  -31.5039    2.3857   -9.7758 C   0  0  0  0  0  0  0  0  0  0  0  0
  -25.9335    4.8439   -8.9776 O   0  5  0  0  0  0  0  0  0  0  0  0
  -24.7568    4.7045  -10.9466 O   0  0  0  0  0  0  0  0  0  0  0  0
  1 17  1  0  0  0  0
  1 20  1  0  0  0  0
  2 15  1  6  0  0  0
  2  3  1  0  0  0  0
  2 11  1  0  0  0  0
  3  5  1  0  0  0  0
  4 16  1  6  0  0  0
  4 21  1  0  0  0  0
  4 22  2  0  0  0  0
  4 14  1  0  0  0  0
  5  1  1  1  0  0  0
  5  8  1  0  0  0  0
  6 17  2  0  0  0  0
  6 12  1  0  0  0  0
  8  7  1  6  0  0  0
  8 11  1  0  0  0  0
  9 19  1  0  0  0  0
 11 10  1  1  0  0  0
 12 20  2  0  0  0  0
 12 19  1  0  0  0  0
 13 20  1  0  0  0  0
 14 15  1  0  0  0  0
 18 19  2  0  0  0  0
M  CHG  1  21  -1
M  END
>  <CHROM.1>
-152.31668723,-179.58490145,-62.00394561,175.85079948,-130.75574062,-29.45046906
2.68526804,-10.45464416,-3.03979245,0.20904485,0.54523842

>  <Name>
ligand

>  <RI>
0

>  <Rbt.Current_Directory>
/home/itssahil/PROJECTS/Mol_Feturizer/New_Systems/rnas/4XWF

>  <Rbt.Executable>
rbdock ($Id: //depot/dev/client3/rdock/2013.1/src/exe/rbdock.cxx#4 $)

>  <Rbt.Library>
libRbt.so (2013.1, Build901 2013/11/27)

>  <Rbt.Parameter_File>
/export/apps/rDock/src/rDock_2013.1_src/data/scripts/dock_solv.prm

>  <Rbt.Receptor>
prm/pocket_docking_4.prm

>  <SCORE>
-5.05293

>  <SCORE.INTER>
-6.51117

>  <SCORE.INTER.CONST>
1

>  <SCORE.INTER.POLAR>
0

>  <SCORE.INTER.ROT>
5

>  <SCORE.INTER.SOLV>
9.5948

>  <SCORE.INTER.VDW>
-14.4724

>  <SCORE.INTER.norm>
-0.295962

>  <SCORE.INTRA>
1.45824

>  <SCORE.INTRA.DIHEDRAL>
-1.71534

>  <SCORE.INTRA.DIHEDRAL.0>
3.49807

>  <SCORE.INTRA.POLAR>
0

>  <SCORE.INTRA.POLAR.0>
0

>  <SCORE.INTRA.REPUL>
0

>  <SCORE.INTRA.REPUL.0>
0

>  <SCORE.INTRA.SOLV>
4.02443

>  <SCORE.INTRA.SOLV.lig_0>
-73.062

>  <SCORE.INTRA.VDW>
0.303688

>  <SCORE.INTRA.VDW.0>
-1.83782

>  <SCORE.INTRA.norm>
0.0662835

>  <SCORE.RESTR>
0

>  <SCORE.RESTR.CAVITY>
0

>  <SCORE.RESTR.norm>
0

>  <SCORE.SYSTEM>
0

>  <SCORE.SYSTEM.CONST>
0

>  <SCORE.SYSTEM.DIHEDRAL>
0

>  <SCORE.SYSTEM.SOLV>
0

>  <SCORE.SYSTEM.norm>
0

>  <SCORE.heavy>
22

>  <SCORE.norm>
-0.229679

>  <RMSD>
3.401

$$$$
ligand
 OpenBabel11021811513D
libRbt.so/2013.1/901 2013/11/27
 22 23  0  0  0  0  0  0  0  0999 V2000
  -30.8588    2.7317   -9.8300 N   0  0  0  0  0  0  0  0  0  0  0  0
  -28.0120    1.3631  -11.0448 C   0  0  1  0  0  0  0  0  0  0  0  0
  -28.7653    1.7643   -9.8651 O   0  0  0  0  0  0  0  0  0  0  0  0
  -25.8045    4.4405  -10.9230 P   0  0  1  0  0  0  0  0  0  0  0  0
  -30.1625    1.5836  -10.1468 C   0  0  2  0  0  0  0  0  0  0  0  0
  -31.3494    4.8308   -9.5766 N   0  0  0  0  0  0  0  0  0  0  0  0
  -31.4193    0.7278  -11.9864 O   0  0  0  0  0  0  0  0  0  0  0  0
  -30.2344    1.4436  -11.6185 C   0  0  2  0  0  0  0  0  0  0  0  0
  -33.7799    5.9701   -8.3162 N   0  0  0  0  0  0  0  0  0  0  0  0
  -29.0941   -0.6412  -11.5985 O   0  0  0  0  0  0  0  0  0  0  0  0
  -28.9995    0.7473  -11.9581 C   0  0  2  0  0  0  0  0  0  0  0  0
  -32.4229    4.1046   -9.2288 C   0  0  0  0  0  0  0  0  0  0  0  0
  -32.9869    1.6880   -9.1535 N   0  0  0  0  0  0  0  0  0  0  0  0
  -26.5782    3.1046  -10.6481 O   0  0  0  0  0  0  0  0  0  0  0  0
  -27.4236    2.6004  -11.6303 C   0  0  0  0  0  0  0  0  0  0  0  0
  -24.9316    4.6226   -9.6286 O   0  0  0  0  0  0  0  0  0  0  0  0
  -30.3769    3.9748   -9.9439 C   0  0  0  0  0  0  0  0  0  0  0  0
  -34.7144    3.9335   -8.7217 O   0  0  0  0  0  0  0  0  0  0  0  0
  -33.7099    4.6442   -8.7521 C   0  0  0  0  0  0  0  0  0  0  0  0
  -32.1226    2.7819   -9.3886 C   0  0  0  0  0  0  0  0  0  0  0  0
  -25.0206    4.3160  -12.1870 O   0  5  0  0  0  0  0  0  0  0  0  0
  -26.7415    5.5264  -11.2628 O   0  0  0  0  0  0  0  0  0  0  0  0
  1 17  1  0  0  0  0
  1 20  1  0  0  0  0
  2 15  1  6  0  0  0
  2  3  1  0  0  0  0
  2 11  1  0  0  0  0
  3  5  1  0  0  0  0
  4 16  1  1  0  0  0
  4 21  1  0  0  0  0
  4 22  2  0  0  0  0
  4 14  1  0  0  0  0
  5  1  1  6  0  0  0
  5  8  1  0  0  0  0
  6 17  2  0  0  0  0
  6 12  1  0  0  0  0
  8  7  1  1  0  0  0
  8 11  1  0  0  0  0
  9 19  1  0  0  0  0
 11 10  1  1  0  0  0
 12 20  2  0  0  0  0
 12 19  1  0  0  0  0
 13 20  1  0  0  0  0
 14 15  1  0  0  0  0
 18 19  2  0  0  0  0
M  CHG  1  21  -1
M  END
>  <CHROM.1>
33.18472834,61.83919226,-177.47026740,-178.77287738,-15.95766407,-29.47077337
3.08065512,-10.40068469,3.07622662,0.25305829,0.36238834

>  <Name>
ligand

>  <RI>
0

>  <Rbt.Current_Directory>
/home/itssahil/PROJECTS/Mol_Feturizer/New_Systems/rnas/4XWF

>  <Rbt.Executable>
rbdock ($Id: //depot/dev/client3/rdock/2013.1/src/exe/rbdock.cxx#4 $)

>  <Rbt.Library>
libRbt.so (2013.1, Build901 2013/11/27)

>  <Rbt.Parameter_File>
/export/apps/rDock/src/rDock_2013.1_src/data/scripts/dock_solv.prm

>  <Rbt.Receptor>
prm/pocket_docking_4.prm

>  <SCORE>
-4.56488

>  <SCORE.INTER>
-3.60438

>  <SCORE.INTER.CONST>
1

>  <SCORE.INTER.POLAR>
0

>  <SCORE.INTER.ROT>
5

>  <SCORE.INTER.SOLV>
13.1153

>  <SCORE.INTER.VDW>
-13.708

>  <SCORE.INTER.norm>
-0.163835

>  <SCORE.INTRA>
-0.960504

>  <SCORE.INTRA.DIHEDRAL>
-1.73711

>  <SCORE.INTRA.DIHEDRAL.0>
3.49807

>  <SCORE.INTRA.POLAR>
0

>  <SCORE.INTRA.POLAR.0>
0

>  <SCORE.INTRA.REPUL>
0

>  <SCORE.INTRA.REPUL.0>
0

>  <SCORE.INTRA.SOLV>
0.532579

>  <SCORE.INTRA.SOLV.lig_0>
-73.062

>  <SCORE.INTRA.VDW>
-0.35824

>  <SCORE.INTRA.VDW.0>
-1.83782

>  <SCORE.INTRA.norm>
-0.0436593

>  <SCORE.RESTR>
0

>  <SCORE.RESTR.CAVITY>
0

>  <SCORE.RESTR.norm>
0

>  <SCORE.SYSTEM>
0

>  <SCORE.SYSTEM.CONST>
0

>  <SCORE.SYSTEM.DIHEDRAL>
0

>  <SCORE.SYSTEM.SOLV>
0

>  <SCORE.SYSTEM.norm>
0

>  <SCORE.heavy>
22

>  <SCORE.norm>
-0.207495

>  <RMSD>
3.457

$$$$
ligand
 OpenBabel11021811513D
libRbt.so/2013.1/901 2013/11/27
 22 23  0  0  0  0  0  0  0  0999 V2000
  -31.3442    1.2457  -10.6812 N   0  0  0  0  0  0  0  0  0  0  0  0
  -27.9831    1.5956  -10.4984 C   0  0  1  0  0  0  0  0  0  0  0  0
  -29.1808    1.0048   -9.9185 O   0  0  0  0  0  0  0  0  0  0  0  0
  -27.4965    4.3407   -7.9356 P   0  0  1  0  0  0  0  0  0  0  0  0
  -30.1021    0.7284  -10.9859 C   0  0  2  0  0  0  0  0  0  0  0  0
  -33.4940    1.5433  -10.6563 N   0  0  0  0  0  0  0  0  0  0  0  0
  -30.0450    0.9311  -13.3632 O   0  0  0  0  0  0  0  0  0  0  0  0
  -29.5930    1.5115  -12.1341 C   0  0  2  0  0  0  0  0  0  0  0  0
  -33.5677    3.3075   -7.5591 N   0  0  0  0  0  0  0  0  0  0  0  0
  -27.6360    0.1783  -12.3329 O   0  0  0  0  0  0  0  0  0  0  0  0
  -28.1459    1.4705  -11.9634 C   0  0  2  0  0  0  0  0  0  0  0  0
  -32.9427    2.3976   -9.7807 C   0  0  0  0  0  0  0  0  0  0  0  0
  -30.6422    2.8991   -8.9932 N   0  0  0  0  0  0  0  0  0  0  0  0
  -27.7219    2.9909   -8.7010 O   0  0  0  0  0  0  0  0  0  0  0  0
  -27.9487    3.0230  -10.0726 C   0  0  0  0  0  0  0  0  0  0  0  0
  -27.3098    3.8809   -6.4442 O   0  0  0  0  0  0  0  0  0  0  0  0
  -32.4978    0.8329  -11.2190 C   0  0  0  0  0  0  0  0  0  0  0  0
  -34.3881    4.2288   -9.4732 O   0  0  0  0  0  0  0  0  0  0  0  0
  -33.6749    3.3723   -8.9510 C   0  0  0  0  0  0  0  0  0  0  0  0
  -31.5893    2.2141   -9.7885 C   0  0  0  0  0  0  0  0  0  0  0  0
  -26.3220    5.0568   -8.5151 O   0  5  0  0  0  0  0  0  0  0  0  0
  -28.5887    5.2896   -8.2171 O   0  0  0  0  0  0  0  0  0  0  0  0
  1 17  1  0  0  0  0
  1 20  1  0  0  0  0
  2 15  1  6  0  0  0
  2  3  1  0  0  0  0
  2 11  1  0  0  0  0
  3  5  1  0  0  0  0
  4 16  1  1  0  0  0
  4 21  1  0  0  0  0
  4 22  2  0  0  0  0
  4 14  1  0  0  0  0
  5  1  1  1  0  0  0
  5  8  1  0  0  0  0
  6 17  2  0  0  0  0
  6 12  1  0  0  0  0
  8  7  1  6  0  0  0
  8 11  1  0  0  0  0
  9 19  1  0  0  0  0
 11 10  1  1  0  0  0
 12 20  2  0  0  0  0
 12 19  1  0  0  0  0
 13 20  1  0  0  0  0
 14 15  1  0  0  0  0
 18 19  2  0  0  0  0
M  CHG  1  21  -1
M  END
>  <CHROM.1>
-158.12389577,67.99049530,178.92296352,174.50479286,121.07301425,-29.85933946
2.59703529,-9.78275894,-2.66956711,0.02714385,0.87139061

>  <Name>
ligand

>  <RI>
0

>  <Rbt.Current_Directory>
/home/itssahil/PROJECTS/Mol_Feturizer/New_Systems/rnas/4XWF

>  <Rbt.Executable>
rbdock ($Id: //depot/dev/client3/rdock/2013.1/src/exe/rbdock.cxx#4 $)

>  <Rbt.Library>
libRbt.so (2013.1, Build901 2013/11/27)

>  <Rbt.Parameter_File>
/export/apps/rDock/src/rDock_2013.1_src/data/scripts/dock_solv.prm

>  <Rbt.Receptor>
prm/pocket_docking_6.prm

>  <SCORE>
-3.6817

>  <SCORE.INTER>
-6.30906

>  <SCORE.INTER.CONST>
1

>  <SCORE.INTER.POLAR>
0

>  <SCORE.INTER.ROT>
5

>  <SCORE.INTER.SOLV>
8.75953

>  <SCORE.INTER.VDW>
-14.0592

>  <SCORE.INTER.norm>
-0.286775

>  <SCORE.INTRA>
2.62736

>  <SCORE.INTRA.DIHEDRAL>
-1.54477

>  <SCORE.INTRA.DIHEDRAL.0>
3.49807

>  <SCORE.INTRA.POLAR>
0

>  <SCORE.INTRA.POLAR.0>
0

>  <SCORE.INTRA.REPUL>
0

>  <SCORE.INTRA.REPUL.0>
0

>  <SCORE.INTRA.SOLV>
7.37839

>  <SCORE.INTRA.SOLV.lig_0>
-73.062

>  <SCORE.INTRA.VDW>
-0.289448

>  <SCORE.INTRA.VDW.0>
-1.83782

>  <SCORE.INTRA.norm>
0.119426

>  <SCORE.RESTR>
0

>  <SCORE.RESTR.CAVITY>
0

>  <SCORE.RESTR.norm>
0

>  <SCORE.SYSTEM>
0

>  <SCORE.SYSTEM.CONST>
0

>  <SCORE.SYSTEM.DIHEDRAL>
0

>  <SCORE.SYSTEM.SOLV>
0

>  <SCORE.SYSTEM.norm>
0

>  <SCORE.heavy>
22

>  <SCORE.norm>
-0.16735

>  <RMSD>
3.612

$$$$
ligand
 OpenBabel11021811513D
libRbt.so/2013.1/901 2013/11/27
 22 23  0  0  0  0  0  0  0  0999 V2000
  -31.8294    2.3816   -9.7402 N   0  0  0  0  0  0  0  0  0  0  0  0
  -28.4751    2.6426  -10.1048 C   0  0  1  0  0  0  0  0  0  0  0  0
  -29.5909    2.4537   -9.1889 O   0  0  0  0  0  0  0  0  0  0  0  0
  -28.0745    6.2937   -9.1823 P   0  0  1  0  0  0  0  0  0  0  0  0
  -30.6206    1.7326   -9.8848 C   0  0  2  0  0  0  0  0  0  0  0  0
  -33.9359    2.8656   -9.9385 N   0  0  0  0  0  0  0  0  0  0  0  0
  -30.8317    0.7586  -12.0533 O   0  0  0  0  0  0  0  0  0  0  0  0
  -30.2554    1.8423  -11.3150 C   0  0  2  0  0  0  0  0  0  0  0  0
  -35.2381    4.5819   -7.6729 N   0  0  0  0  0  0  0  0  0  0  0  0
  -28.3110    0.5027  -11.0474 O   0  0  0  0  0  0  0  0  0  0  0  0
  -28.7978    1.8316  -11.2992 C   0  0  2  0  0  0  0  0  0  0  0  0
  -33.3819    3.7455   -9.0903 C   0  0  0  0  0  0  0  0  0  0  0  0
  -31.1188    4.1155   -8.1389 N   0  0  0  0  0  0  0  0  0  0  0  0
  -28.0954    4.7267   -9.2339 O   0  0  0  0  0  0  0  0  0  0  0  0
  -28.4169    4.0954  -10.4305 C   0  0  0  0  0  0  0  0  0  0  0  0
  -29.5844    6.6797   -9.3868 O   0  0  0  0  0  0  0  0  0  0  0  0
  -32.9676    2.0229  -10.3456 C   0  0  0  0  0  0  0  0  0  0  0  0
  -33.6757    6.0083   -8.5154 O   0  0  0  0  0  0  0  0  0  0  0  0
  -34.0858    4.8520   -8.4161 C   0  0  0  0  0  0  0  0  0  0  0  0
  -32.0561    3.4453   -8.9580 C   0  0  0  0  0  0  0  0  0  0  0  0
  -27.4892    6.7459   -7.8859 O   0  5  0  0  0  0  0  0  0  0  0  0
  -27.1030    6.8353  -10.1495 O   0  0  0  0  0  0  0  0  0  0  0  0
  1 17  1  0  0  0  0
  1 20  1  0  0  0  0
  2 15  1  6  0  0  0
  2  3  1  0  0  0  0
  2 11  1  0  0  0  0
  3  5  1  0  0  0  0
  4 16  1  6  0  0  0
  4 21  1  0  0  0  0
  4 22  2  0  0  0  0
  4 14  1  0  0  0  0
  5  1  1  6  0  0  0
  5  8  1  0  0  0  0
  6 17  2  0  0  0  0
  6 12  1  0  0  0  0
  8  7  1  6  0  0  0
  8 11  1  0  0  0  0
  9 19  1  0  0  0  0
 11 10  1  1  0  0  0
 12 20  2  0  0  0  0
 12 19  1  0  0  0  0
 13 20  1  0  0  0  0
 14 15  1  0  0  0  0
 18 19  2  0  0  0  0
M  CHG  1  21  -1
M  END
>  <CHROM.1>
174.90337074,65.47597343,66.94885469,-174.66618476,53.73226347,-30.39125935
3.87914553,-9.61266245,-2.79264203,0.19731424,0.43521418

>  <Name>
ligand

>  <RI>
0

>  <Rbt.Current_Directory>
/home/itssahil/PROJECTS/Mol_Feturizer/New_Systems/rnas/4XWF

>  <Rbt.Executable>
rbdock ($Id: //depot/dev/client3/rdock/2013.1/src/exe/rbdock.cxx#4 $)

>  <Rbt.Library>
libRbt.so (2013.1, Build901 2013/11/27)

>  <Rbt.Parameter_File>
/export/apps/rDock/src/rDock_2013.1_src/data/scripts/dock_solv.prm

>  <Rbt.Receptor>
prm/pocket_docking_4.prm

>  <SCORE>
-4.01385

>  <SCORE.INTER>
-6.1761

>  <SCORE.INTER.CONST>
1

>  <SCORE.INTER.POLAR>
0

>  <SCORE.INTER.ROT>
5

>  <SCORE.INTER.SOLV>
9.61174

>  <SCORE.INTER.VDW>
-14.2546

>  <SCORE.INTER.norm>
-0.280732

>  <SCORE.INTRA>
2.16226

>  <SCORE.INTRA.DIHEDRAL>
-0.0703851

>  <SCORE.INTRA.DIHEDRAL.0>
3.49807

>  <SCORE.INTRA.POLAR>
0

>  <SCORE.INTRA.POLAR.0>
0

>  <SCORE.INTRA.REPUL>
0

>  <SCORE.INTRA.REPUL.0>
0

>  <SCORE.INTRA.SOLV>
4.21753

>  <SCORE.INTRA.SOLV.lig_0>
-73.062

>  <SCORE.INTRA.VDW>
0.088685

>  <SCORE.INTRA.VDW.0>
-1.83782

>  <SCORE.INTRA.norm>
0.0982845

>  <SCORE.RESTR>
0

>  <SCORE.RESTR.CAVITY>
0

>  <SCORE.RESTR.norm>
0

>  <SCORE.SYSTEM>
0

>  <SCORE.SYSTEM.CONST>
0

>  <SCORE.SYSTEM.DIHEDRAL>
0

>  <SCORE.SYSTEM.SOLV>
0

>  <SCORE.SYSTEM.norm>
0

>  <SCORE.heavy>
22

>  <SCORE.norm>
-0.182448

>  <RMSD>
3.641

$$$$
ligand
 OpenBabel11021811513D
libRbt.so/2013.1/901 2013/11/27
 22 23  0  0  0  0  0  0  0  0999 V2000
  -30.5719    1.7691  -10.7227 N   0  0  0  0  0  0  0  0  0  0  0  0
  -27.6405    3.1510  -11.6972 C   0  0  1  0  0  0  0  0  0  0  0  0
  -28.5267    2.8269  -10.5884 O   0  0  0  0  0  0  0  0  0  0  0  0
  -27.6590    5.8235  -14.3836 P   0  0  1  0  0  0  0  0  0  0  0  0
  -29.2148    1.6075  -10.9107 C   0  0  2  0  0  0  0  0  0  0  0  0
  -32.7148    1.4498  -10.8539 N   0  0  0  0  0  0  0  0  0  0  0  0
  -29.1419    0.0527  -12.7199 O   0  0  0  0  0  0  0  0  0  0  0  0
  -29.0119    1.4347  -12.3667 C   0  0  2  0  0  0  0  0  0  0  0  0
  -33.4311    3.4190   -7.9185 N   0  0  0  0  0  0  0  0  0  0  0  0
  -26.6789    1.0556  -12.1205 O   0  0  0  0  0  0  0  0  0  0  0  0
  -27.6772    1.9751  -12.5940 C   0  0  2  0  0  0  0  0  0  0  0  0
  -32.4940    2.4695  -10.0101 C   0  0  0  0  0  0  0  0  0  0  0  0
  -30.4937    3.6394   -9.1190 N   0  0  0  0  0  0  0  0  0  0  0  0
  -27.3631    4.5988  -13.4503 O   0  0  0  0  0  0  0  0  0  0  0  0
  -28.1965    4.3628  -12.3624 C   0  0  0  0  0  0  0  0  0  0  0  0
  -29.1528    5.5935  -14.8149 O   0  0  0  0  0  0  0  0  0  0  0  0
  -31.5189    1.0204  -11.3000 C   0  0  0  0  0  0  0  0  0  0  0  0
  -34.4895    3.7129   -9.9133 O   0  0  0  0  0  0  0  0  0  0  0  0
  -33.5319    3.2406   -9.3009 C   0  0  0  0  0  0  0  0  0  0  0  0
  -31.1467    2.6746   -9.9199 C   0  0  0  0  0  0  0  0  0  0  0  0
  -27.4177    7.0935  -13.6375 O   0  5  0  0  0  0  0  0  0  0  0  0
  -26.6537    5.9168  -15.4575 O   0  0  0  0  0  0  0  0  0  0  0  0
  1 17  1  0  0  0  0
  1 20  1  0  0  0  0
  2 15  1  6  0  0  0
  2  3  1  0  0  0  0
  2 11  1  0  0  0  0
  3  5  1  0  0  0  0
  4 16  1  6  0  0  0
  4 21  1  0  0  0  0
  4 22  2  0  0  0  0
  4 14  1  0  0  0  0
  5  1  1  6  0  0  0
  5  8  1  0  0  0  0
  6 17  2  0  0  0  0
  6 12  1  0  0  0  0
  8  7  1  1  0  0  0
  8 11  1  0  0  0  0
  9 19  1  0  0  0  0
 11 10  1  1  0  0  0
 12 20  2  0  0  0  0
 12 19  1  0  0  0  0
 13 20  1  0  0  0  0
 14 15  1  0  0  0  0
 18 19  2  0  0  0  0
M  CHG  1  21  -1
M  END
>  <CHROM.1>
158.09756916,-177.12239409,-54.81555982,-179.76904328,128.89128211,-29.55746207
3.33723356,-11.87652170,-2.55245817,0.55461436,-0.35008278

>  <Name>
ligand

>  <RI>
0

>  <Rbt.Current_Directory>
/home/itssahil/PROJECTS/Mol_Feturizer/New_Systems/rnas/4XWF

>  <Rbt.Executable>
rbdock ($Id: //depot/dev/client3/rdock/2013.1/src/exe/rbdock.cxx#4 $)

>  <Rbt.Library>
libRbt.so (2013.1, Build901 2013/11/27)

>  <Rbt.Parameter_File>
/export/apps/rDock/src/rDock_2013.1_src/data/scripts/dock_solv.prm

>  <Rbt.Receptor>
prm/pocket_docking_4.prm

>  <SCORE>
-5.54061

>  <SCORE.INTER>
-6.56959

>  <SCORE.INTER.CONST>
1

>  <SCORE.INTER.POLAR>
0

>  <SCORE.INTER.ROT>
5

>  <SCORE.INTER.SOLV>
11.3623

>  <SCORE.INTER.VDW>
-15.1005

>  <SCORE.INTER.norm>
-0.298618

>  <SCORE.INTRA>
1.02898

>  <SCORE.INTRA.DIHEDRAL>
-1.86022

>  <SCORE.INTRA.DIHEDRAL.0>
3.49807

>  <SCORE.INTRA.POLAR>
0

>  <SCORE.INTRA.POLAR.0>
0

>  <SCORE.INTRA.REPUL>
0

>  <SCORE.INTRA.REPUL.0>
0

>  <SCORE.INTRA.SOLV>
1.44136

>  <SCORE.INTRA.SOLV.lig_0>
-73.062

>  <SCORE.INTRA.VDW>
1.23841

>  <SCORE.INTRA.VDW.0>
-1.83782

>  <SCORE.INTRA.norm>
0.0467719

>  <SCORE.RESTR>
0

>  <SCORE.RESTR.CAVITY>
0

>  <SCORE.RESTR.norm>
0

>  <SCORE.SYSTEM>
0

>  <SCORE.SYSTEM.CONST>
0

>  <SCORE.SYSTEM.DIHEDRAL>
0

>  <SCORE.SYSTEM.SOLV>
0

>  <SCORE.SYSTEM.norm>
0

>  <SCORE.heavy>
22

>  <SCORE.norm>
-0.251846

>  <RMSD>
3.744

$$$$
ligand
 OpenBabel11021811513D
libRbt.so/2013.1/901 2013/11/27
 22 23  0  0  0  0  0  0  0  0999 V2000
  -31.5044    1.5305  -10.4648 N   0  0  0  0  0  0  0  0  0  0  0  0
  -28.2719    0.5509  -10.2546 C   0  0  1  0  0  0  0  0  0  0  0  0
  -29.6207    0.4272   -9.7203 O   0  0  0  0  0  0  0  0  0  0  0  0
  -25.5116    3.1166   -9.8652 P   0  0  1  0  0  0  0  0  0  0  0  0
  -30.5465    0.5980  -10.8057 C   0  0  2  0  0  0  0  0  0  0  0  0
  -33.4369    2.4676  -10.1513 N   0  0  0  0  0  0  0  0  0  0  0  0
  -30.3480    0.9228  -13.1617 O   0  0  0  0  0  0  0  0  0  0  0  0
  -29.7439    1.2013  -11.8932 C   0  0  2  0  0  0  0  0  0  0  0  0
  -34.0196    5.0096   -8.7563 N   0  0  0  0  0  0  0  0  0  0  0  0
  -28.4410   -0.7641  -12.1877 O   0  0  0  0  0  0  0  0  0  0  0  0
  -28.4281    0.5968  -11.7249 C   0  0  2  0  0  0  0  0  0  0  0  0
  -32.4877    3.3064   -9.7084 C   0  0  0  0  0  0  0  0  0  0  0  0
  -30.0106    3.2638   -9.5483 N   0  0  0  0  0  0  0  0  0  0  0  0
  -26.3942    1.8605  -10.1846 O   0  0  0  0  0  0  0  0  0  0  0  0
  -27.7062    1.8237   -9.7254 C   0  0  0  0  0  0  0  0  0  0  0  0
  -26.2578    4.2795  -10.6143 O   0  0  0  0  0  0  0  0  0  0  0  0
  -32.8227    1.3674  -10.6264 C   0  0  0  0  0  0  0  0  0  0  0  0
  -31.7888    5.4224   -8.9524 O   0  0  0  0  0  0  0  0  0  0  0  0
  -32.7219    4.6366   -9.1165 C   0  0  0  0  0  0  0  0  0  0  0  0
  -31.2682    2.7219   -9.8996 C   0  0  0  0  0  0  0  0  0  0  0  0
  -25.4097    3.2963   -8.3869 O   0  5  0  0  0  0  0  0  0  0  0  0
  -24.1045    2.8728  -10.2303 O   0  0  0  0  0  0  0  0  0  0  0  0
  1 17  1  0  0  0  0
  1 20  1  0  0  0  0
  2 15  1  1  0  0  0
  2  3  1  0  0  0  0
  2 11  1  0  0  0  0
  3  5  1  0  0  0  0
  4 16  1  6  0  0  0
  4 21  1  0  0  0  0
  4 22  2  0  0  0  0
  4 14  1  0  0  0  0
  5  1  1  1  0  0  0
  5  8  1  0  0  0  0
  6 17  2  0  0  0  0
  6 12  1  0  0  0  0
  8  7  1  6  0  0  0
  8 11  1  0  0  0  0
  9 19  1  0  0  0  0
 11 10  1  1  0  0  0
 12 20  2  0  0  0  0
 12 19  1  0  0  0  0
 13 20  1  0  0  0  0
 14 15  1  0  0  0  0
 18 19  2  0  0  0  0
M  CHG  1  21  -1
M  END
>  <CHROM.1>
-132.05135894,176.19373799,-63.35682502,177.09766972,11.74201691,-29.22474117
2.33926000,-10.25817489,3.04976648,-0.01975575,0.55051069

>  <Name>
ligand

>  <RI>
0

>  <Rbt.Current_Directory>
/home/itssahil/PROJECTS/Mol_Feturizer/New_Systems/rnas/4XWF

>  <Rbt.Executable>
rbdock ($Id: //depot/dev/client3/rdock/2013.1/src/exe/rbdock.cxx#4 $)

>  <Rbt.Library>
libRbt.so (2013.1, Build901 2013/11/27)

>  <Rbt.Parameter_File>
/export/apps/rDock/src/rDock_2013.1_src/data/scripts/dock_solv.prm

>  <Rbt.Receptor>
prm/pocket_docking_4.prm

>  <SCORE>
-5.44755

>  <SCORE.INTER>
-7.36989

>  <SCORE.INTER.CONST>
1

>  <SCORE.INTER.POLAR>
0

>  <SCORE.INTER.ROT>
5

>  <SCORE.INTER.SOLV>
11.5176

>  <SCORE.INTER.VDW>
-15.6858

>  <SCORE.INTER.norm>
-0.334995

>  <SCORE.INTRA>
1.92235

>  <SCORE.INTRA.DIHEDRAL>
-1.66707

>  <SCORE.INTRA.DIHEDRAL.0>
3.49807

>  <SCORE.INTRA.POLAR>
0

>  <SCORE.INTRA.POLAR.0>
0

>  <SCORE.INTRA.REPUL>
0

>  <SCORE.INTRA.REPUL.0>
0

>  <SCORE.INTRA.SOLV>
4.54926

>  <SCORE.INTRA.SOLV.lig_0>
-73.062

>  <SCORE.INTRA.VDW>
0.481253

>  <SCORE.INTRA.VDW.0>
-1.83782

>  <SCORE.INTRA.norm>
0.0873794

>  <SCORE.RESTR>
0

>  <SCORE.RESTR.CAVITY>
0

>  <SCORE.RESTR.norm>
0

>  <SCORE.SYSTEM>
0

>  <SCORE.SYSTEM.CONST>
0

>  <SCORE.SYSTEM.DIHEDRAL>
0

>  <SCORE.SYSTEM.SOLV>
0

>  <SCORE.SYSTEM.norm>
0

>  <SCORE.heavy>
22

>  <SCORE.norm>
-0.247616

>  <RMSD>
3.894

$$$$
ligand
 OpenBabel11021811513D
libRbt.so/2013.1/901 2013/11/27
 22 23  0  0  0  0  0  0  0  0999 V2000
  -30.7874    2.0315  -10.2746 N   0  0  0  0  0  0  0  0  0  0  0  0
  -27.9063    0.2611  -10.4055 C   0  0  1  0  0  0  0  0  0  0  0  0
  -29.1499    0.5152   -9.6922 O   0  0  0  0  0  0  0  0  0  0  0  0
  -24.5650    2.0395  -10.5832 P   0  0  1  0  0  0  0  0  0  0  0  0
  -30.1528    0.8683  -10.6586 C   0  0  2  0  0  0  0  0  0  0  0  0
  -31.1216    4.1122   -9.7548 N   0  0  0  0  0  0  0  0  0  0  0  0
  -30.2272    1.0202  -13.0392 O   0  0  0  0  0  0  0  0  0  0  0  0
  -29.3935    1.1922  -11.8872 C   0  0  2  0  0  0  0  0  0  0  0  0
  -33.6327    5.2623   -8.6277 N   0  0  0  0  0  0  0  0  0  0  0  0
  -28.6792   -1.0546  -12.1848 O   0  0  0  0  0  0  0  0  0  0  0  0
  -28.2599    0.2769  -11.8418 C   0  0  2  0  0  0  0  0  0  0  0  0
  -32.3036    3.4778   -9.7248 C   0  0  0  0  0  0  0  0  0  0  0  0
  -33.0919    1.1643  -10.1603 N   0  0  0  0  0  0  0  0  0  0  0  0
  -25.7819    1.0594  -10.7145 O   0  0  0  0  0  0  0  0  0  0  0  0
  -26.9700    1.3678  -10.0612 C   0  0  0  0  0  0  0  0  0  0  0  0
  -23.4700    1.3766  -11.4953 O   0  0  0  0  0  0  0  0  0  0  0  0
  -30.1802    3.2096  -10.0907 C   0  0  0  0  0  0  0  0  0  0  0  0
  -34.6545    3.5742   -9.7644 O   0  0  0  0  0  0  0  0  0  0  0  0
  -33.6021    4.0917   -9.3905 C   0  0  0  0  0  0  0  0  0  0  0  0
  -32.1018    2.1678  -10.0540 C   0  0  0  0  0  0  0  0  0  0  0  0
  -24.9766    3.4107  -11.0055 O   0  5  0  0  0  0  0  0  0  0  0  0
  -24.2209    2.2581   -9.1667 O   0  0  0  0  0  0  0  0  0  0  0  0
  1 17  1  0  0  0  0
  1 20  1  0  0  0  0
  2 15  1  6  0  0  0
  2  3  1  0  0  0  0
  2 11  1  0  0  0  0
  3  5  1  0  0  0  0
  4 16  1  6  0  0  0
  4 21  1  0  0  0  0
  4 22  2  0  0  0  0
  4 14  1  0  0  0  0
  5  1  1  1  0  0  0
  5  8  1  0  0  0  0
  6 17  2  0  0  0  0
  6 12  1  0  0  0  0
  8  7  1  6  0  0  0
  8 11  1  0  0  0  0
  9 19  1  0  0  0  0
 11 10  1  1  0  0  0
 12 20  2  0  0  0  0
 12 19  1  0  0  0  0
 13 20  1  0  0  0  0
 14 15  1  0  0  0  0
 18 19  2  0  0  0  0
M  CHG  1  21  -1
M  END
>  <CHROM.1>
59.81173939,177.58284165,-177.69651795,179.18132295,-22.80414752,-28.94022049
1.95147024,-10.51305936,2.91484436,0.00003230,0.52743963

>  <Name>
ligand

>  <RI>
0

>  <Rbt.Current_Directory>
/home/itssahil/PROJECTS/Mol_Feturizer/New_Systems/rnas/4XWF

>  <Rbt.Executable>
rbdock ($Id: //depot/dev/client3/rdock/2013.1/src/exe/rbdock.cxx#4 $)

>  <Rbt.Library>
libRbt.so (2013.1, Build901 2013/11/27)

>  <Rbt.Parameter_File>
/export/apps/rDock/src/rDock_2013.1_src/data/scripts/dock_solv.prm

>  <Rbt.Receptor>
prm/pocket_docking_5.prm

>  <SCORE>
-4.68339

>  <SCORE.INTER>
-4.14341

>  <SCORE.INTER.CONST>
1

>  <SCORE.INTER.POLAR>
0

>  <SCORE.INTER.ROT>
5

>  <SCORE.INTER.SOLV>
17.8445

>  <SCORE.INTER.VDW>
-15.6438

>  <SCORE.INTER.norm>
-0.188337

>  <SCORE.INTRA>
-0.539982

>  <SCORE.INTRA.DIHEDRAL>
-1.45389

>  <SCORE.INTRA.DIHEDRAL.0>
3.49807

>  <SCORE.INTRA.POLAR>
0

>  <SCORE.INTRA.POLAR.0>
0

>  <SCORE.INTRA.REPUL>
0

>  <SCORE.INTRA.REPUL.0>
0

>  <SCORE.INTRA.SOLV>
-0.19741

>  <SCORE.INTRA.SOLV.lig_0>
-73.062

>  <SCORE.INTRA.VDW>
0.285666

>  <SCORE.INTRA.VDW.0>
-1.83782

>  <SCORE.INTRA.norm>
-0.0245446

>  <SCORE.RESTR>
0

>  <SCORE.RESTR.CAVITY>
0

>  <SCORE.RESTR.norm>
0

>  <SCORE.SYSTEM>
0

>  <SCORE.SYSTEM.CONST>
0

>  <SCORE.SYSTEM.DIHEDRAL>
0

>  <SCORE.SYSTEM.SOLV>
0

>  <SCORE.SYSTEM.norm>
0

>  <SCORE.heavy>
22

>  <SCORE.norm>
-0.212881

>  <RMSD>
3.935

$$$$
ligand
 OpenBabel11021811513D
libRbt.so/2013.1/901 2013/11/27
 22 23  0  0  0  0  0  0  0  0999 V2000
  -32.5734    3.0221   -9.2948 N   0  0  0  0  0  0  0  0  0  0  0  0
  -29.3606    2.3822  -10.1438 C   0  0  1  0  0  0  0  0  0  0  0  0
  -30.2981    2.7118   -9.0797 O   0  0  0  0  0  0  0  0  0  0  0  0
  -27.0927    4.3730   -9.4946 P   0  0  1  0  0  0  0  0  0  0  0  0
  -31.5575    2.0935   -9.3891 C   0  0  2  0  0  0  0  0  0  0  0  0
  -34.4941    3.9974   -9.5607 N   0  0  0  0  0  0  0  0  0  0  0  0
  -32.3545    0.6538  -11.1177 O   0  0  0  0  0  0  0  0  0  0  0  0
  -31.4558    1.7287  -10.8200 C   0  0  2  0  0  0  0  0  0  0  0  0
  -33.2862    7.0867   -8.0537 N   0  0  0  0  0  0  0  0  0  0  0  0
  -29.7825    0.0919  -10.4099 O   0  0  0  0  0  0  0  0  0  0  0  0
  -30.0500    1.3811  -10.9868 C   0  0  2  0  0  0  0  0  0  0  0  0
  -33.7563    4.7454   -8.7260 C   0  0  0  0  0  0  0  0  0  0  0  0
  -31.4880    4.5865   -7.7296 N   0  0  0  0  0  0  0  0  0  0  0  0
  -28.5828    4.5285   -9.9574 O   0  0  0  0  0  0  0  0  0  0  0  0
  -29.0935    3.6397  -10.8971 C   0  0  0  0  0  0  0  0  0  0  0  0
  -27.1205    3.0607   -8.6300 O   0  0  0  0  0  0  0  0  0  0  0  0
  -33.7543    2.9302   -9.9174 C   0  0  0  0  0  0  0  0  0  0  0  0
  -35.3047    6.1273   -7.6168 O   0  0  0  0  0  0  0  0  0  0  0  0
  -34.1799    6.0134   -8.1036 C   0  0  0  0  0  0  0  0  0  0  0  0
  -32.5466    4.1361   -8.5513 C   0  0  0  0  0  0  0  0  0  0  0  0
  -26.1998    4.3097  -10.6889 O   0  5  0  0  0  0  0  0  0  0  0  0
  -26.6188    5.6040   -8.8369 O   0  0  0  0  0  0  0  0  0  0  0  0
  1 17  1  0  0  0  0
  1 20  1  0  0  0  0
  2 15  1  6  0  0  0
  2  3  1  0  0  0  0
  2 11  1  0  0  0  0
  3  5  1  0  0  0  0
  4 16  1  1  0  0  0
  4 21  1  0  0  0  0
  4 22  2  0  0  0  0
  4 14  1  0  0  0  0
  5  1  1  6  0  0  0
  5  8  1  0  0  0  0
  6 17  2  0  0  0  0
  6 12  1  0  0  0  0
  8  7  1  1  0  0  0
  8 11  1  0  0  0  0
  9 19  1  0  0  0  0
 11 10  1  1  0  0  0
 12 20  2  0  0  0  0
 12 19  1  0  0  0  0
 13 20  1  0  0  0  0
 14 15  1  0  0  0  0
 18 19  2  0  0  0  0
M  CHG  1  21  -1
M  END
>  <CHROM.1>
156.70111075,58.66244661,-70.85832558,76.95118152,-136.73833120,-30.62538680
3.62932471,-9.46589396,2.92991455,0.09217187,0.43726511

>  <Name>
ligand

>  <RI>
0

>  <Rbt.Current_Directory>
/home/itssahil/PROJECTS/Mol_Feturizer/New_Systems/rnas/4XWF

>  <Rbt.Executable>
rbdock ($Id: //depot/dev/client3/rdock/2013.1/src/exe/rbdock.cxx#4 $)

>  <Rbt.Library>
libRbt.so (2013.1, Build901 2013/11/27)

>  <Rbt.Parameter_File>
/export/apps/rDock/src/rDock_2013.1_src/data/scripts/dock_solv.prm

>  <Rbt.Receptor>
prm/pocket_docking_5.prm

>  <SCORE>
-5.83047

>  <SCORE.INTER>
-8.40033

>  <SCORE.INTER.CONST>
1

>  <SCORE.INTER.POLAR>
0

>  <SCORE.INTER.ROT>
5

>  <SCORE.INTER.SOLV>
9.10173

>  <SCORE.INTER.VDW>
-15.5675

>  <SCORE.INTER.norm>
-0.381833

>  <SCORE.INTRA>
2.56986

>  <SCORE.INTRA.DIHEDRAL>
-0.174891

>  <SCORE.INTRA.DIHEDRAL.0>
3.49807

>  <SCORE.INTRA.POLAR>
0

>  <SCORE.INTRA.POLAR.0>
0

>  <SCORE.INTRA.REPUL>
0

>  <SCORE.INTRA.REPUL.0>
0

>  <SCORE.INTRA.SOLV>
2.88792

>  <SCORE.INTRA.SOLV.lig_0>
-73.062

>  <SCORE.INTRA.VDW>
1.21335

>  <SCORE.INTRA.VDW.0>
-1.83782

>  <SCORE.INTRA.norm>
0.116812

>  <SCORE.RESTR>
0

>  <SCORE.RESTR.CAVITY>
0

>  <SCORE.RESTR.norm>
0

>  <SCORE.SYSTEM>
0

>  <SCORE.SYSTEM.CONST>
0

>  <SCORE.SYSTEM.DIHEDRAL>
0

>  <SCORE.SYSTEM.SOLV>
0

>  <SCORE.SYSTEM.norm>
0

>  <SCORE.heavy>
22

>  <SCORE.norm>
-0.265022

>  <RMSD>
4.465

$$$$
ligand
 OpenBabel11021811513D
libRbt.so/2013.1/901 2013/11/27
 22 23  0  0  0  0  0  0  0  0999 V2000
  -32.7947    2.9421   -9.0888 N   0  0  0  0  0  0  0  0  0  0  0  0
  -29.5976    2.1501   -9.8661 C   0  0  1  0  0  0  0  0  0  0  0  0
  -30.5649    2.4210   -8.8121 O   0  0  0  0  0  0  0  0  0  0  0  0
  -27.8852    5.5248   -9.6961 P   0  0  1  0  0  0  0  0  0  0  0  0
  -31.8487    1.9519   -9.2552 C   0  0  2  0  0  0  0  0  0  0  0  0
  -34.5890    4.1331   -9.3591 N   0  0  0  0  0  0  0  0  0  0  0  0
  -32.6556    0.8087  -11.1886 O   0  0  0  0  0  0  0  0  0  0  0  0
  -31.6957    1.7606  -10.7149 C   0  0  2  0  0  0  0  0  0  0  0  0
  -35.5831    6.3403   -7.6631 N   0  0  0  0  0  0  0  0  0  0  0  0
  -30.1771   -0.0468  -10.4426 O   0  0  0  0  0  0  0  0  0  0  0  0
  -30.3133    1.3217  -10.8609 C   0  0  2  0  0  0  0  0  0  0  0  0
  -33.9029    4.6385   -8.3225 C   0  0  0  0  0  0  0  0  0  0  0  0
  -31.7907    4.0772   -7.1448 N   0  0  0  0  0  0  0  0  0  0  0  0
  -28.4093    4.0658   -9.4609 O   0  0  0  0  0  0  0  0  0  0  0  0
  -29.1944    3.4651  -10.4389 C   0  0  0  0  0  0  0  0  0  0  0  0
  -26.7602    5.6817   -8.6097 O   0  0  0  0  0  0  0  0  0  0  0  0
  -33.8950    3.0827   -9.8372 C   0  0  0  0  0  0  0  0  0  0  0  0
  -33.5098    6.3176   -6.7215 O   0  0  0  0  0  0  0  0  0  0  0  0
  -34.3008    5.8053   -7.5133 C   0  0  0  0  0  0  0  0  0  0  0  0
  -32.7732    3.8919   -8.1442 C   0  0  0  0  0  0  0  0  0  0  0  0
  -27.4114    5.6674  -11.1043 O   0  5  0  0  0  0  0  0  0  0  0  0
  -28.9973    6.4915   -9.6599 O   0  0  0  0  0  0  0  0  0  0  0  0
  1 17  1  0  0  0  0
  1 20  1  0  0  0  0
  2 15  1  6  0  0  0
  2  3  1  0  0  0  0
  2 11  1  0  0  0  0
  3  5  1  0  0  0  0
  4 16  1  1  0  0  0
  4 21  1  0  0  0  0
  4 22  2  0  0  0  0
  4 14  1  0  0  0  0
  5  1  1  6  0  0  0
  5  8  1  0  0  0  0
  6 17  2  0  0  0  0
  6 12  1  0  0  0  0
  8  7  1  1  0  0  0
  8 11  1  0  0  0  0
  9 19  1  0  0  0  0
 11 10  1  1  0  0  0
 12 20  2  0  0  0  0
 12 19  1  0  0  0  0
 13 20  1  0  0  0  0
 14 15  1  0  0  0  0
 18 19  2  0  0  0  0
M  CHG  1  21  -1
M  END
>  <CHROM.1>
151.51010863,71.54516258,-165.05416377,-175.99623347,10.56879469,-31.00040897
3.85843377,-9.31060702,3.07712946,0.24600044,0.41801036

>  <Name>
ligand

>  <RI>
0

>  <Rbt.Current_Directory>
/home/itssahil/PROJECTS/Mol_Feturizer/New_Systems/rnas/4XWF

>  <Rbt.Executable>
rbdock ($Id: //depot/dev/client3/rdock/2013.1/src/exe/rbdock.cxx#4 $)

>  <Rbt.Library>
libRbt.so (2013.1, Build901 2013/11/27)

>  <Rbt.Parameter_File>
/export/apps/rDock/src/rDock_2013.1_src/data/scripts/dock_solv.prm

>  <Rbt.Receptor>
prm/pocket_docking_5.prm

>  <SCORE>
-5.35981

>  <SCORE.INTER>
-6.81821

>  <SCORE.INTER.CONST>
1

>  <SCORE.INTER.POLAR>
0

>  <SCORE.INTER.ROT>
5

>  <SCORE.INTER.SOLV>
12.7205

>  <SCORE.INTER.VDW>
-15.719

>  <SCORE.INTER.norm>
-0.309919

>  <SCORE.INTRA>
1.45841

>  <SCORE.INTRA.DIHEDRAL>
-1.04182

>  <SCORE.INTRA.DIHEDRAL.0>
3.49807

>  <SCORE.INTRA.POLAR>
0

>  <SCORE.INTRA.POLAR.0>
0

>  <SCORE.INTRA.REPUL>
0

>  <SCORE.INTRA.REPUL.0>
0

>  <SCORE.INTRA.SOLV>
1.71296

>  <SCORE.INTRA.SOLV.lig_0>
-73.062

>  <SCORE.INTRA.VDW>
1.12284

>  <SCORE.INTRA.VDW.0>
-1.83782

>  <SCORE.INTRA.norm>
0.0662912

>  <SCORE.RESTR>
0

>  <SCORE.RESTR.CAVITY>
0

>  <SCORE.RESTR.norm>
0

>  <SCORE.SYSTEM>
0

>  <SCORE.SYSTEM.CONST>
0

>  <SCORE.SYSTEM.DIHEDRAL>
0

>  <SCORE.SYSTEM.SOLV>
0

>  <SCORE.SYSTEM.norm>
0

>  <SCORE.heavy>
22

>  <SCORE.norm>
-0.243628

>  <RMSD>
4.555

$$$$
ligand
 OpenBabel11021811513D
libRbt.so/2013.1/901 2013/11/27
 22 23  0  0  0  0  0  0  0  0999 V2000
  -32.8533    2.9517   -9.1683 N   0  0  0  0  0  0  0  0  0  0  0  0
  -29.5896    2.2728   -9.7515 C   0  0  1  0  0  0  0  0  0  0  0  0
  -30.6215    2.5374   -8.7590 O   0  0  0  0  0  0  0  0  0  0  0  0
  -28.2219    5.7962   -9.5548 P   0  0  1  0  0  0  0  0  0  0  0  0
  -31.8596    1.9983   -9.2499 C   0  0  2  0  0  0  0  0  0  0  0  0
  -34.6803    4.0521   -9.5710 N   0  0  0  0  0  0  0  0  0  0  0  0
  -32.5154    0.7559  -11.1792 O   0  0  0  0  0  0  0  0  0  0  0  0
  -31.6221    1.7640  -10.6920 C   0  0  2  0  0  0  0  0  0  0  0  0
  -33.7366    6.9314   -7.6709 N   0  0  0  0  0  0  0  0  0  0  0  0
  -30.0463    0.0345  -10.2767 O   0  0  0  0  0  0  0  0  0  0  0  0
  -30.2169    1.3807  -10.7510 C   0  0  2  0  0  0  0  0  0  0  0  0
  -34.0681    4.6255   -8.5236 C   0  0  0  0  0  0  0  0  0  0  0  0
  -31.9951    4.2018   -7.2249 N   0  0  0  0  0  0  0  0  0  0  0  0
  -28.5911    4.2897   -9.3255 O   0  0  0  0  0  0  0  0  0  0  0  0
  -29.2117    3.5837  -10.3504 C   0  0  0  0  0  0  0  0  0  0  0  0
  -29.6156    6.5205   -9.4949 O   0  0  0  0  0  0  0  0  0  0  0  0
  -33.9201    3.0159   -9.9734 C   0  0  0  0  0  0  0  0  0  0  0  0
  -35.6634    5.7937   -7.2478 O   0  0  0  0  0  0  0  0  0  0  0  0
  -34.5541    5.8033   -7.7811 C   0  0  0  0  0  0  0  0  0  0  0  0
  -32.9183    3.9363   -8.2621 C   0  0  0  0  0  0  0  0  0  0  0  0
  -27.2480    6.2388   -8.5139 O   0  5  0  0  0  0  0  0  0  0  0  0
  -27.4301    5.9583  -10.7874 O   0  0  0  0  0  0  0  0  0  0  0  0
  1 17  1  0  0  0  0
  1 20  1  0  0  0  0
  2 15  1  6  0  0  0
  2  3  1  0  0  0  0
  2 11  1  0  0  0  0
  3  5  1  0  0  0  0
  4 16  1  6  0  0  0
  4 21  1  0  0  0  0
  4 22  2  0  0  0  0
  4 14  1  0  0  0  0
  5  1  1  6  0  0  0
  5  8  1  0  0  0  0
  6 17  2  0  0  0  0
  6 12  1  0  0  0  0
  8  7  1  1  0  0  0
  8 11  1  0  0  0  0
  9 19  1  0  0  0  0
 11 10  1  1  0  0  0
 12 20  2  0  0  0  0
 12 19  1  0  0  0  0
 13 20  1  0  0  0  0
 14 15  1  0  0  0  0
 18 19  2  0  0  0  0
M  CHG  1  21  -1
M  END
>  <CHROM.1>
151.77961710,67.29704911,73.31665547,-172.32503271,-123.12301857,-31.14198944
3.95934761,-9.30588448,-3.13195143,0.22416927,0.36324561

>  <Name>
ligand

>  <RI>
0

>  <Rbt.Current_Directory>
/home/itssahil/PROJECTS/Mol_Feturizer/New_Systems/rnas/4XWF

>  <Rbt.Executable>
rbdock ($Id: //depot/dev/client3/rdock/2013.1/src/exe/rbdock.cxx#4 $)

>  <Rbt.Library>
libRbt.so (2013.1, Build901 2013/11/27)

>  <Rbt.Parameter_File>
/export/apps/rDock/src/rDock_2013.1_src/data/scripts/dock_solv.prm

>  <Rbt.Receptor>
prm/pocket_docking_6.prm

>  <SCORE>
-7.83819

>  <SCORE.INTER>
-8.67042

>  <SCORE.INTER.CONST>
1

>  <SCORE.INTER.POLAR>
0

>  <SCORE.INTER.ROT>
5

>  <SCORE.INTER.SOLV>
10.3999

>  <SCORE.INTER.VDW>
-16.1802

>  <SCORE.INTER.norm>
-0.39411

>  <SCORE.INTRA>
0.832234

>  <SCORE.INTRA.DIHEDRAL>
-1.29991

>  <SCORE.INTRA.DIHEDRAL.0>
3.49807

>  <SCORE.INTRA.POLAR>
0

>  <SCORE.INTRA.POLAR.0>
0

>  <SCORE.INTRA.REPUL>
0

>  <SCORE.INTRA.REPUL.0>
0

>  <SCORE.INTRA.SOLV>
1.49108

>  <SCORE.INTRA.SOLV.lig_0>
-73.062

>  <SCORE.INTRA.VDW>
0.73665

>  <SCORE.INTRA.VDW.0>
-1.83782

>  <SCORE.INTRA.norm>
0.0378288

>  <SCORE.RESTR>
0

>  <SCORE.RESTR.CAVITY>
0

>  <SCORE.RESTR.norm>
0

>  <SCORE.SYSTEM>
0

>  <SCORE.SYSTEM.CONST>
0

>  <SCORE.SYSTEM.DIHEDRAL>
0

>  <SCORE.SYSTEM.SOLV>
0

>  <SCORE.SYSTEM.norm>
0

>  <SCORE.heavy>
22

>  <SCORE.norm>
-0.356281

>  <RMSD>
4.579

$$$$
ligand
 OpenBabel11021811513D
libRbt.so/2013.1/901 2013/11/27
 22 23  0  0  0  0  0  0  0  0999 V2000
  -30.5084    1.7150  -10.5974 N   0  0  0  0  0  0  0  0  0  0  0  0
  -27.6270    2.6056  -12.1326 C   0  0  1  0  0  0  0  0  0  0  0  0
  -28.4750    2.7425  -10.9570 O   0  0  0  0  0  0  0  0  0  0  0  0
  -27.8483    3.8988  -15.6866 P   0  0  1  0  0  0  0  0  0  0  0  0
  -29.1555    1.4938  -10.7515 C   0  0  2  0  0  0  0  0  0  0  0  0
  -32.6592    1.4588  -10.7369 N   0  0  0  0  0  0  0  0  0  0  0  0
  -29.1153   -0.6468  -11.8060 O   0  0  0  0  0  0  0  0  0  0  0  0
  -28.9939    0.7630  -12.0284 C   0  0  2  0  0  0  0  0  0  0  0  0
  -33.2302    3.8537   -8.0357 N   0  0  0  0  0  0  0  0  0  0  0  0
  -26.6495    0.5134  -11.7302 O   0  0  0  0  0  0  0  0  0  0  0  0
  -27.6742    1.1718  -12.4937 C   0  0  2  0  0  0  0  0  0  0  0  0
  -32.4140    2.5326   -9.9703 C   0  0  0  0  0  0  0  0  0  0  0  0
  -30.3859    3.6996   -9.1407 N   0  0  0  0  0  0  0  0  0  0  0  0
  -27.4495    3.2140  -14.3336 O   0  0  0  0  0  0  0  0  0  0  0  0
  -28.2194    3.4579  -13.2015 C   0  0  0  0  0  0  0  0  0  0  0  0
  -29.3651    3.5195  -15.8475 O   0  0  0  0  0  0  0  0  0  0  0  0
  -31.4733    0.9564  -11.1303 C   0  0  0  0  0  0  0  0  0  0  0  0
  -34.4642    3.6873   -9.9424 O   0  0  0  0  0  0  0  0  0  0  0  0
  -33.4335    3.3904   -9.3384 C   0  0  0  0  0  0  0  0  0  0  0  0
  -31.0617    2.6985   -9.8753 C   0  0  0  0  0  0  0  0  0  0  0  0
  -27.5812    5.3651  -15.6054 O   0  5  0  0  0  0  0  0  0  0  0  0
  -26.9330    3.4917  -16.7678 O   0  0  0  0  0  0  0  0  0  0  0  0
  1 17  1  0  0  0  0
  1 20  1  0  0  0  0
  2 15  1  6  0  0  0
  2  3  1  0  0  0  0
  2 11  1  0  0  0  0
  3  5  1  0  0  0  0
  4 16  1  6  0  0  0
  4 21  1  0  0  0  0
  4 22  2  0  0  0  0
  4 14  1  0  0  0  0
  5  1  1  6  0  0  0
  5  8  1  0  0  0  0
  6 17  2  0  0  0  0
  6 12  1  0  0  0  0
  8  7  1  1  0  0  0
  8 11  1  0  0  0  0
  9 19  1  0  0  0  0
 11 10  1  1  0  0  0
 12 20  2  0  0  0  0
 12 19  1  0  0  0  0
 13 20  1  0  0  0  0
 14 15  1  0  0  0  0
 18 19  2  0  0  0  0
M  CHG  1  21  -1
M  END
>  <CHROM.1>
139.02610736,-175.18990489,-52.40346802,176.68741118,139.46749194,-29.57264718
2.62284769,-12.22458125,-2.46594834,0.57895664,-0.83942836

>  <Name>
ligand

>  <RI>
0

>  <Rbt.Current_Directory>
/home/itssahil/PROJECTS/Mol_Feturizer/New_Systems/rnas/4XWF

>  <Rbt.Executable>
rbdock ($Id: //depot/dev/client3/rdock/2013.1/src/exe/rbdock.cxx#4 $)

>  <Rbt.Library>
libRbt.so (2013.1, Build901 2013/11/27)

>  <Rbt.Parameter_File>
/export/apps/rDock/src/rDock_2013.1_src/data/scripts/dock_solv.prm

>  <Rbt.Receptor>
prm/pocket_docking_5.prm

>  <SCORE>
-5.41252

>  <SCORE.INTER>
-6.82503

>  <SCORE.INTER.CONST>
1

>  <SCORE.INTER.POLAR>
0

>  <SCORE.INTER.ROT>
5

>  <SCORE.INTER.SOLV>
9.18711

>  <SCORE.INTER.VDW>
-14.5457

>  <SCORE.INTER.norm>
-0.310229

>  <SCORE.INTRA>
1.41252

>  <SCORE.INTRA.DIHEDRAL>
-1.39389

>  <SCORE.INTRA.DIHEDRAL.0>
3.49807

>  <SCORE.INTRA.POLAR>
0

>  <SCORE.INTRA.POLAR.0>
0

>  <SCORE.INTRA.REPUL>
0

>  <SCORE.INTRA.REPUL.0>
0

>  <SCORE.INTRA.SOLV>
0.398323

>  <SCORE.INTRA.SOLV.lig_0>
-73.062

>  <SCORE.INTRA.VDW>
1.9103

>  <SCORE.INTRA.VDW.0>
-1.83782

>  <SCORE.INTRA.norm>
0.0642053

>  <SCORE.RESTR>
0

>  <SCORE.RESTR.CAVITY>
0

>  <SCORE.RESTR.norm>
0

>  <SCORE.SYSTEM>
0

>  <SCORE.SYSTEM.CONST>
0

>  <SCORE.SYSTEM.DIHEDRAL>
0

>  <SCORE.SYSTEM.SOLV>
0

>  <SCORE.SYSTEM.norm>
0

>  <SCORE.heavy>
22

>  <SCORE.norm>
-0.246023

>  <RMSD>
4.615

$$$$
ligand
 OpenBabel11021811513D
libRbt.so/2013.1/901 2013/11/27
 22 23  0  0  0  0  0  0  0  0999 V2000
  -31.9303    3.4159   -8.8603 N   0  0  0  0  0  0  0  0  0  0  0  0
  -29.1435    2.2282  -10.3690 C   0  0  1  0  0  0  0  0  0  0  0  0
  -29.7696    2.6536   -9.1252 O   0  0  0  0  0  0  0  0  0  0  0  0
  -27.3369    4.0846  -13.1314 P   0  0  1  0  0  0  0  0  0  0  0  0
  -31.1648    2.3170   -9.1917 C   0  0  2  0  0  0  0  0  0  0  0  0
  -32.6831    5.4508   -8.8016 N   0  0  0  0  0  0  0  0  0  0  0  0
  -32.5593    1.1929  -10.7688 O   0  0  0  0  0  0  0  0  0  0  0  0
  -31.4187    2.0472  -10.6247 C   0  0  2  0  0  0  0  0  0  0  0  0
  -34.9152    4.6134   -6.0123 N   0  0  0  0  0  0  0  0  0  0  0  0
  -30.0706    0.0901  -10.6208 O   0  0  0  0  0  0  0  0  0  0  0  0
  -30.1736    1.4460  -11.0869 C   0  0  2  0  0  0  0  0  0  0  0  0
  -33.4737    4.6891   -8.0299 C   0  0  0  0  0  0  0  0  0  0  0  0
  -33.5692    2.2883   -7.4050 N   0  0  0  0  0  0  0  0  0  0  0  0
  -28.0102    3.0235  -12.1936 O   0  0  0  0  0  0  0  0  0  0  0  0
  -28.7743    3.4623  -11.1179 C   0  0  0  0  0  0  0  0  0  0  0  0
  -28.5634    4.8647  -13.7296 O   0  0  0  0  0  0  0  0  0  0  0  0
  -31.7212    4.6582   -9.3115 C   0  0  0  0  0  0  0  0  0  0  0  0
  -35.3967    6.0144   -7.7418 O   0  0  0  0  0  0  0  0  0  0  0  0
  -34.6471    5.1593   -7.2705 C   0  0  0  0  0  0  0  0  0  0  0  0
  -33.0077    3.4057   -8.0643 C   0  0  0  0  0  0  0  0  0  0  0  0
  -26.3925    4.9271  -12.3400 O   0  5  0  0  0  0  0  0  0  0  0  0
  -26.4219    3.4327  -14.0856 O   0  0  0  0  0  0  0  0  0  0  0  0
  1 17  1  0  0  0  0
  1 20  1  0  0  0  0
  2 15  1  6  0  0  0
  2  3  1  0  0  0  0
  2 11  1  0  0  0  0
  3  5  1  0  0  0  0
  4 16  1  6  0  0  0
  4 21  1  0  0  0  0
  4 22  2  0  0  0  0
  4 14  1  0  0  0  0
  5  1  1  6  0  0  0
  5  8  1  0  0  0  0
  6 17  2  0  0  0  0
  6 12  1  0  0  0  0
  8  7  1  1  0  0  0
  8 11  1  0  0  0  0
  9 19  1  0  0  0  0
 11 10  1  1  0  0  0
 12 20  2  0  0  0  0
 12 19  1  0  0  0  0
 13 20  1  0  0  0  0
 14 15  1  0  0  0  0
 18 19  2  0  0  0  0
M  CHG  1  21  -1
M  END
>  <CHROM.1>
44.64839104,171.48302054,-61.84207255,-174.45896769,-143.11423511,-30.66174435
3.44807395,-10.26129831,3.09101591,0.67709617,-0.04352769

>  <Name>
ligand

>  <RI>
0

>  <Rbt.Current_Directory>
/home/itssahil/PROJECTS/Mol_Feturizer/New_Systems/rnas/4XWF

>  <Rbt.Executable>
rbdock ($Id: //depot/dev/client3/rdock/2013.1/src/exe/rbdock.cxx#4 $)

>  <Rbt.Library>
libRbt.so (2013.1, Build901 2013/11/27)

>  <Rbt.Parameter_File>
/export/apps/rDock/src/rDock_2013.1_src/data/scripts/dock_solv.prm

>  <Rbt.Receptor>
prm/pocket_docking_5.prm

>  <SCORE>
-5.37705

>  <SCORE.INTER>
-4.60297

>  <SCORE.INTER.CONST>
1

>  <SCORE.INTER.POLAR>
0

>  <SCORE.INTER.ROT>
5

>  <SCORE.INTER.SOLV>
10.4159

>  <SCORE.INTER.VDW>
-13.4739

>  <SCORE.INTER.norm>
-0.209226

>  <SCORE.INTRA>
-0.774074

>  <SCORE.INTRA.DIHEDRAL>
-1.08776

>  <SCORE.INTRA.DIHEDRAL.0>
3.49807

>  <SCORE.INTRA.POLAR>
0

>  <SCORE.INTRA.POLAR.0>
0

>  <SCORE.INTRA.REPUL>
0

>  <SCORE.INTRA.REPUL.0>
0

>  <SCORE.INTRA.SOLV>
-0.21359

>  <SCORE.INTRA.SOLV.lig_0>
-73.062

>  <SCORE.INTRA.VDW>
-0.123396

>  <SCORE.INTRA.VDW.0>
-1.83782

>  <SCORE.INTRA.norm>
-0.0351852

>  <SCORE.RESTR>
0

>  <SCORE.RESTR.CAVITY>
0

>  <SCORE.RESTR.norm>
0

>  <SCORE.SYSTEM>
0

>  <SCORE.SYSTEM.CONST>
0

>  <SCORE.SYSTEM.DIHEDRAL>
0

>  <SCORE.SYSTEM.SOLV>
0

>  <SCORE.SYSTEM.norm>
0

>  <SCORE.heavy>
22

>  <SCORE.norm>
-0.244411

>  <RMSD>
4.679

$$$$
ligand
 OpenBabel11021811513D
libRbt.so/2013.1/901 2013/11/27
 22 23  0  0  0  0  0  0  0  0999 V2000
  -32.4975    2.9245   -9.3373 N   0  0  0  0  0  0  0  0  0  0  0  0
  -29.3052    2.2074  -10.2022 C   0  0  1  0  0  0  0  0  0  0  0  0
  -30.2344    2.5307   -9.1289 O   0  0  0  0  0  0  0  0  0  0  0  0
  -27.3658    4.2929  -12.6984 P   0  0  1  0  0  0  0  0  0  0  0  0
  -31.5129    1.9662   -9.4623 C   0  0  2  0  0  0  0  0  0  0  0  0
  -34.3950    3.9574   -9.5463 N   0  0  0  0  0  0  0  0  0  0  0  0
  -32.3523    0.6155  -11.2420 O   0  0  0  0  0  0  0  0  0  0  0  0
  -31.4191    1.6486  -10.9049 C   0  0  2  0  0  0  0  0  0  0  0  0
  -33.0724    7.0230   -8.1166 N   0  0  0  0  0  0  0  0  0  0  0  0
  -29.8028   -0.0567  -10.5494 O   0  0  0  0  0  0  0  0  0  0  0  0
  -30.0252    1.2601  -11.0812 C   0  0  2  0  0  0  0  0  0  0  0  0
  -33.6115    4.6810   -8.7320 C   0  0  0  0  0  0  0  0  0  0  0  0
  -31.3211    4.4521   -7.8016 N   0  0  0  0  0  0  0  0  0  0  0  0
  -28.0230    3.1503  -11.8493 O   0  0  0  0  0  0  0  0  0  0  0  0
  -28.9939    3.4809  -10.9103 C   0  0  0  0  0  0  0  0  0  0  0  0
  -28.5582    4.8182  -13.5775 O   0  0  0  0  0  0  0  0  0  0  0  0
  -33.6979    2.8694   -9.9258 C   0  0  0  0  0  0  0  0  0  0  0  0
  -35.0673    6.0909   -7.5361 O   0  0  0  0  0  0  0  0  0  0  0  0
  -33.9789    5.9596   -8.0957 C   0  0  0  0  0  0  0  0  0  0  0  0
  -32.4159    4.0355   -8.5931 C   0  0  0  0  0  0  0  0  0  0  0  0
  -26.7690    5.3149  -11.7888 O   0  5  0  0  0  0  0  0  0  0  0  0
  -26.1727    3.7966  -13.4075 O   0  0  0  0  0  0  0  0  0  0  0  0
  1 17  1  0  0  0  0
  1 20  1  0  0  0  0
  2 15  1  6  0  0  0
  2  3  1  0  0  0  0
  2 11  1  0  0  0  0
  3  5  1  0  0  0  0
  4 16  1  6  0  0  0
  4 21  1  0  0  0  0
  4 22  2  0  0  0  0
  4 14  1  0  0  0  0
  5  1  1  6  0  0  0
  5  8  1  0  0  0  0
  6 17  2  0  0  0  0
  6 12  1  0  0  0  0
  8  7  1  1  0  0  0
  8 11  1  0  0  0  0
  9 19  1  0  0  0  0
 11 10  1  1  0  0  0
 12 20  2  0  0  0  0
 12 19  1  0  0  0  0
 13 20  1  0  0  0  0
 14 15  1  0  0  0  0
 18 19  2  0  0  0  0
M  CHG  1  21  -1
M  END
>  <CHROM.1>
159.31969678,175.12023793,-66.29579434,-174.67955180,-134.21090636,-30.63225613
3.53041235,-10.40834972,2.92947748,0.54957849,0.14635990

>  <Name>
ligand

>  <RI>
0

>  <Rbt.Current_Directory>
/home/itssahil/PROJECTS/Mol_Feturizer/New_Systems/rnas/4XWF

>  <Rbt.Executable>
rbdock ($Id: //depot/dev/client3/rdock/2013.1/src/exe/rbdock.cxx#4 $)

>  <Rbt.Library>
libRbt.so (2013.1, Build901 2013/11/27)

>  <Rbt.Parameter_File>
/export/apps/rDock/src/rDock_2013.1_src/data/scripts/dock_solv.prm

>  <Rbt.Receptor>
prm/pocket_docking_4.prm

>  <SCORE>
-8.20564

>  <SCORE.INTER>
-9.2996

>  <SCORE.INTER.CONST>
1

>  <SCORE.INTER.POLAR>
0

>  <SCORE.INTER.ROT>
5

>  <SCORE.INTER.SOLV>
10.6443

>  <SCORE.INTER.VDW>
-16.6812

>  <SCORE.INTER.norm>
-0.422709

>  <SCORE.INTRA>
1.09396

>  <SCORE.INTRA.DIHEDRAL>
-1.50476

>  <SCORE.INTRA.DIHEDRAL.0>
3.49807

>  <SCORE.INTRA.POLAR>
0

>  <SCORE.INTRA.POLAR.0>
0

>  <SCORE.INTRA.REPUL>
0

>  <SCORE.INTRA.REPUL.0>
0

>  <SCORE.INTRA.SOLV>
1.60923

>  <SCORE.INTRA.SOLV.lig_0>
-73.062

>  <SCORE.INTRA.VDW>
1.04173

>  <SCORE.INTRA.VDW.0>
-1.83782

>  <SCORE.INTRA.norm>
0.0497256

>  <SCORE.RESTR>
0

>  <SCORE.RESTR.CAVITY>
0

>  <SCORE.RESTR.norm>
0

>  <SCORE.SYSTEM>
0

>  <SCORE.SYSTEM.CONST>
0

>  <SCORE.SYSTEM.DIHEDRAL>
0

>  <SCORE.SYSTEM.SOLV>
0

>  <SCORE.SYSTEM.norm>
0

>  <SCORE.heavy>
22

>  <SCORE.norm>
-0.372983

>  <RMSD>
4.688

$$$$
ligand
 OpenBabel11021811513D
libRbt.so/2013.1/901 2013/11/27
 22 23  0  0  0  0  0  0  0  0999 V2000
  -32.4577    2.8983   -9.3545 N   0  0  0  0  0  0  0  0  0  0  0  0
  -29.2925    2.1905  -10.3204 C   0  0  1  0  0  0  0  0  0  0  0  0
  -30.1874    2.5150   -9.2187 O   0  0  0  0  0  0  0  0  0  0  0  0
  -27.4398    4.2827  -12.8794 P   0  0  1  0  0  0  0  0  0  0  0  0
  -31.4737    1.9436   -9.5072 C   0  0  2  0  0  0  0  0  0  0  0  0
  -34.3648    3.9234   -9.5080 N   0  0  0  0  0  0  0  0  0  0  0  0
  -32.3651    0.5808  -11.2520 O   0  0  0  0  0  0  0  0  0  0  0  0
  -31.4259    1.6194  -10.9507 C   0  0  2  0  0  0  0  0  0  0  0  0
  -35.1937    6.1011   -7.5427 N   0  0  0  0  0  0  0  0  0  0  0  0
  -29.7914   -0.0774  -10.6404 O   0  0  0  0  0  0  0  0  0  0  0  0
  -30.0368    1.2359  -11.1708 C   0  0  2  0  0  0  0  0  0  0  0  0
  -33.5598    4.6519   -8.7194 C   0  0  0  0  0  0  0  0  0  0  0  0
  -31.2415    4.4339   -7.8584 N   0  0  0  0  0  0  0  0  0  0  0  0
  -27.9842    3.1578  -11.9324 O   0  0  0  0  0  0  0  0  0  0  0  0
  -29.0102    3.4618  -11.0443 C   0  0  0  0  0  0  0  0  0  0  0  0
  -26.9472    5.3886  -11.8770 O   0  0  0  0  0  0  0  0  0  0  0  0
  -33.6753    2.8373   -9.9062 C   0  0  0  0  0  0  0  0  0  0  0  0
  -33.0956    6.8490   -8.0163 O   0  0  0  0  0  0  0  0  0  0  0  0
  -33.9128    5.9304   -8.0749 C   0  0  0  0  0  0  0  0  0  0  0  0
  -32.3581    4.0113   -8.6155 C   0  0  0  0  0  0  0  0  0  0  0  0
  -26.3719    3.7245  -13.7603 O   0  5  0  0  0  0  0  0  0  0  0  0
  -28.4617    4.6743  -13.8667 O   0  0  0  0  0  0  0  0  0  0  0  0
  1 17  1  0  0  0  0
  1 20  1  0  0  0  0
  2 15  1  6  0  0  0
  2  3  1  0  0  0  0
  2 11  1  0  0  0  0
  3  5  1  0  0  0  0
  4 16  1  1  0  0  0
  4 21  1  0  0  0  0
  4 22  2  0  0  0  0
  4 14  1  0  0  0  0
  5  1  1  6  0  0  0
  5  8  1  0  0  0  0
  6 17  2  0  0  0  0
  6 12  1  0  0  0  0
  8  7  1  1  0  0  0
  8 11  1  0  0  0  0
  9 19  1  0  0  0  0
 11 10  1  1  0  0  0
 12 20  2  0  0  0  0
 12 19  1  0  0  0  0
 13 20  1  0  0  0  0
 14 15  1  0  0  0  0
 18 19  2  0  0  0  0
M  CHG  1  21  -1
M  END
>  <CHROM.1>
159.10985032,169.97908609,58.82610481,179.40458564,39.32512406,-30.62897960
3.50505494,-10.49102864,2.92275217,0.58452663,0.14789615

>  <Name>
ligand

>  <RI>
0

>  <Rbt.Current_Directory>
/home/itssahil/PROJECTS/Mol_Feturizer/New_Systems/rnas/4XWF

>  <Rbt.Executable>
rbdock ($Id: //depot/dev/client3/rdock/2013.1/src/exe/rbdock.cxx#4 $)

>  <Rbt.Library>
libRbt.so (2013.1, Build901 2013/11/27)

>  <Rbt.Parameter_File>
/export/apps/rDock/src/rDock_2013.1_src/data/scripts/dock_solv.prm

>  <Rbt.Receptor>
prm/pocket_docking_4.prm

>  <SCORE>
-7.00334

>  <SCORE.INTER>
-8.40712

>  <SCORE.INTER.CONST>
1

>  <SCORE.INTER.POLAR>
0

>  <SCORE.INTER.ROT>
5

>  <SCORE.INTER.SOLV>
13.1928

>  <SCORE.INTER.VDW>
-16.9357

>  <SCORE.INTER.norm>
-0.382142

>  <SCORE.INTRA>
1.40269

>  <SCORE.INTRA.DIHEDRAL>
-0.441168

>  <SCORE.INTRA.DIHEDRAL.0>
3.49807

>  <SCORE.INTRA.POLAR>
0

>  <SCORE.INTRA.POLAR.0>
0

>  <SCORE.INTRA.REPUL>
0

>  <SCORE.INTRA.REPUL.0>
0

>  <SCORE.INTRA.SOLV>
1.20363

>  <SCORE.INTRA.SOLV.lig_0>
-73.062

>  <SCORE.INTRA.VDW>
1.02146

>  <SCORE.INTRA.VDW.0>
-1.83782

>  <SCORE.INTRA.norm>
0.0637587

>  <SCORE.RESTR>
0.00108592

>  <SCORE.RESTR.CAVITY>
0.00108592

>  <SCORE.RESTR.norm>
4.93599e-05

>  <SCORE.SYSTEM>
0

>  <SCORE.SYSTEM.CONST>
0

>  <SCORE.SYSTEM.DIHEDRAL>
0

>  <SCORE.SYSTEM.SOLV>
0

>  <SCORE.SYSTEM.norm>
0

>  <SCORE.heavy>
22

>  <SCORE.norm>
-0.318333

>  <RMSD>
4.717

$$$$
ligand
 OpenBabel11021811513D
libRbt.so/2013.1/901 2013/11/27
 22 23  0  0  0  0  0  0  0  0999 V2000
  -32.5887    2.9968   -9.3094 N   0  0  0  0  0  0  0  0  0  0  0  0
  -29.4066    2.2228  -10.1623 C   0  0  1  0  0  0  0  0  0  0  0  0
  -30.3319    2.5725   -9.0939 O   0  0  0  0  0  0  0  0  0  0  0  0
  -27.3562    4.2854  -12.5900 P   0  0  1  0  0  0  0  0  0  0  0  0
  -31.6182    2.0228   -9.4218 C   0  0  2  0  0  0  0  0  0  0  0  0
  -34.4757    4.0483   -9.5203 N   0  0  0  0  0  0  0  0  0  0  0  0
  -32.4757    0.6633  -11.1860 O   0  0  0  0  0  0  0  0  0  0  0  0
  -31.5278    1.6866  -10.8604 C   0  0  2  0  0  0  0  0  0  0  0  0
  -35.3293    6.3276   -7.7254 N   0  0  0  0  0  0  0  0  0  0  0  0
  -29.9369   -0.0378  -10.4828 O   0  0  0  0  0  0  0  0  0  0  0  0
  -30.1395    1.2756  -11.0306 C   0  0  2  0  0  0  0  0  0  0  0  0
  -33.6719    4.7833   -8.7366 C   0  0  0  0  0  0  0  0  0  0  0  0
  -31.3718    4.5497   -7.8317 N   0  0  0  0  0  0  0  0  0  0  0  0
  -28.0180    3.1563  -11.7265 O   0  0  0  0  0  0  0  0  0  0  0  0
  -29.0761    3.4830  -10.8853 C   0  0  0  0  0  0  0  0  0  0  0  0
  -28.5096    4.7111  -13.5693 O   0  0  0  0  0  0  0  0  0  0  0  0
  -33.7979    2.9416   -9.8797 C   0  0  0  0  0  0  0  0  0  0  0  0
  -33.1567    6.9555   -7.9925 O   0  0  0  0  0  0  0  0  0  0  0  0
  -34.0142    6.0832   -8.1301 C   0  0  0  0  0  0  0  0  0  0  0  0
  -32.4828    4.1262   -8.5967 C   0  0  0  0  0  0  0  0  0  0  0  0
  -26.8655    5.3772  -11.6984 O   0  5  0  0  0  0  0  0  0  0  0  0
  -26.0986    3.8110  -13.1950 O   0  0  0  0  0  0  0  0  0  0  0  0
  1 17  1  0  0  0  0
  1 20  1  0  0  0  0
  2 15  1  6  0  0  0
  2  3  1  0  0  0  0
  2 11  1  0  0  0  0
  3  5  1  0  0  0  0
  4 16  1  6  0  0  0
  4 21  1  0  0  0  0
  4 22  2  0  0  0  0
  4 14  1  0  0  0  0
  5  1  1  6  0  0  0
  5  8  1  0  0  0  0
  6 17  2  0  0  0  0
  6 12  1  0  0  0  0
  8  7  1  1  0  0  0
  8 11  1  0  0  0  0
  9 19  1  0  0  0  0
 11 10  1  1  0  0  0
 12 20  2  0  0  0  0
 12 19  1  0  0  0  0
 13 20  1  0  0  0  0
 14 15  1  0  0  0  0
 18 19  2  0  0  0  0
M  CHG  1  21  -1
M  END
>  <CHROM.1>
160.52680444,169.42087781,-65.29070293,-176.58653099,34.01261593,-30.68981531
3.57657070,-10.36577313,2.91390100,0.52473806,0.15615228

>  <Name>
ligand

>  <RI>
0

>  <Rbt.Current_Directory>
/home/itssahil/PROJECTS/Mol_Feturizer/New_Systems/rnas/4XWF

>  <Rbt.Executable>
rbdock ($Id: //depot/dev/client3/rdock/2013.1/src/exe/rbdock.cxx#4 $)

>  <Rbt.Library>
libRbt.so (2013.1, Build901 2013/11/27)

>  <Rbt.Parameter_File>
/export/apps/rDock/src/rDock_2013.1_src/data/scripts/dock_solv.prm

>  <Rbt.Receptor>
prm/pocket_docking_7.prm

>  <SCORE>
-8.22483

>  <SCORE.INTER>
-9.643

>  <SCORE.INTER.CONST>
1

>  <SCORE.INTER.POLAR>
0

>  <SCORE.INTER.ROT>
5

>  <SCORE.INTER.SOLV>
11.7968

>  <SCORE.INTER.VDW>
-17.2943

>  <SCORE.INTER.norm>
-0.438318

>  <SCORE.INTRA>
1.41817

>  <SCORE.INTRA.DIHEDRAL>
-0.500369

>  <SCORE.INTRA.DIHEDRAL.0>
3.49807

>  <SCORE.INTRA.POLAR>
0

>  <SCORE.INTRA.POLAR.0>
0

>  <SCORE.INTRA.REPUL>
0

>  <SCORE.INTRA.REPUL.0>
0

>  <SCORE.INTRA.SOLV>
1.34347

>  <SCORE.INTRA.SOLV.lig_0>
-73.062

>  <SCORE.INTRA.VDW>
0.996623

>  <SCORE.INTRA.VDW.0>
-1.83782

>  <SCORE.INTRA.norm>
0.0644623

>  <SCORE.RESTR>
0

>  <SCORE.RESTR.CAVITY>
0

>  <SCORE.RESTR.norm>
0

>  <SCORE.SYSTEM>
0

>  <SCORE.SYSTEM.CONST>
0

>  <SCORE.SYSTEM.DIHEDRAL>
0

>  <SCORE.SYSTEM.SOLV>
0

>  <SCORE.SYSTEM.norm>
0

>  <SCORE.heavy>
22

>  <SCORE.norm>
-0.373856

>  <RMSD>
4.730

$$$$
ligand
 OpenBabel11021811513D
libRbt.so/2013.1/901 2013/11/27
 22 23  0  0  0  0  0  0  0  0999 V2000
  -32.6821    3.0181   -9.2960 N   0  0  0  0  0  0  0  0  0  0  0  0
  -29.4646    2.2911  -10.0522 C   0  0  1  0  0  0  0  0  0  0  0  0
  -30.4269    2.6264   -9.0122 O   0  0  0  0  0  0  0  0  0  0  0  0
  -27.3831    4.3813  -12.4297 P   0  0  1  0  0  0  0  0  0  0  0  0
  -31.6946    2.0584   -9.3794 C   0  0  2  0  0  0  0  0  0  0  0  0
  -34.5667    4.0548   -9.5868 N   0  0  0  0  0  0  0  0  0  0  0  0
  -32.4782    0.6881  -11.1694 O   0  0  0  0  0  0  0  0  0  0  0  0
  -31.5556    1.7248  -10.8147 C   0  0  2  0  0  0  0  0  0  0  0  0
  -33.2841    7.0946   -8.0380 N   0  0  0  0  0  0  0  0  0  0  0  0
  -29.9520    0.0233  -10.3897 O   0  0  0  0  0  0  0  0  0  0  0  0
  -30.1570    1.3342  -10.9428 C   0  0  2  0  0  0  0  0  0  0  0  0
  -33.8191    4.7751   -8.7365 C   0  0  0  0  0  0  0  0  0  0  0  0
  -31.5730    4.5399   -7.7055 N   0  0  0  0  0  0  0  0  0  0  0  0
  -28.0461    3.2448  -11.5767 O   0  0  0  0  0  0  0  0  0  0  0  0
  -29.1306    3.5566  -10.7642 C   0  0  0  0  0  0  0  0  0  0  0  0
  -28.5004    4.7448  -13.4737 O   0  0  0  0  0  0  0  0  0  0  0  0
  -33.8552    2.9665   -9.9376 C   0  0  0  0  0  0  0  0  0  0  0  0
  -35.3427    6.2017   -7.6499 O   0  0  0  0  0  0  0  0  0  0  0  0
  -34.2124    6.0528   -8.1140 C   0  0  0  0  0  0  0  0  0  0  0  0
  -32.6320    4.1271   -8.5461 C   0  0  0  0  0  0  0  0  0  0  0  0
  -26.9781    5.5075  -11.5378 O   0  5  0  0  0  0  0  0  0  0  0  0
  -26.0801    3.9430  -12.9614 O   0  0  0  0  0  0  0  0  0  0  0  0
  1 17  1  0  0  0  0
  1 20  1  0  0  0  0
  2 15  1  6  0  0  0
  2  3  1  0  0  0  0
  2 11  1  0  0  0  0
  3  5  1  0  0  0  0
  4 16  1  6  0  0  0
  4 21  1  0  0  0  0
  4 22  2  0  0  0  0
  4 14  1  0  0  0  0
  5  1  1  6  0  0  0
  5  8  1  0  0  0  0
  6 17  2  0  0  0  0
  6 12  1  0  0  0  0
  8  7  1  1  0  0  0
  8 11  1  0  0  0  0
  9 19  1  0  0  0  0
 11 10  1  1  0  0  0
 12 20  2  0  0  0  0
 12 19  1  0  0  0  0
 13 20  1  0  0  0  0
 14 15  1  0  0  0  0
 18 19  2  0  0  0  0
M  CHG  1  21  -1
M  END
>  <CHROM.1>
158.23232103,169.63594114,-67.27120015,-177.10061375,-137.07601920,-30.76853526
3.61844928,-10.28704267,2.93483006,0.50427946,0.15049850

>  <Name>
ligand

>  <RI>
0

>  <Rbt.Current_Directory>
/home/itssahil/PROJECTS/Mol_Feturizer/New_Systems/rnas/4XWF

>  <Rbt.Executable>
rbdock ($Id: //depot/dev/client3/rdock/2013.1/src/exe/rbdock.cxx#4 $)

>  <Rbt.Library>
libRbt.so (2013.1, Build901 2013/11/27)

>  <Rbt.Parameter_File>
/export/apps/rDock/src/rDock_2013.1_src/data/scripts/dock_solv.prm

>  <Rbt.Receptor>
prm/pocket_docking_6.prm

>  <SCORE>
-8.66435

>  <SCORE.INTER>
-9.83089

>  <SCORE.INTER.CONST>
1

>  <SCORE.INTER.POLAR>
0

>  <SCORE.INTER.ROT>
5

>  <SCORE.INTER.SOLV>
11.3764

>  <SCORE.INTER.VDW>
-17.2794

>  <SCORE.INTER.norm>
-0.446859

>  <SCORE.INTRA>
1.16654

>  <SCORE.INTRA.DIHEDRAL>
-1.21122

>  <SCORE.INTRA.DIHEDRAL.0>
3.49807

>  <SCORE.INTRA.POLAR>
0

>  <SCORE.INTRA.POLAR.0>
0

>  <SCORE.INTRA.REPUL>
0

>  <SCORE.INTRA.REPUL.0>
0

>  <SCORE.INTRA.SOLV>
1.54742

>  <SCORE.INTRA.SOLV.lig_0>
-73.062

>  <SCORE.INTRA.VDW>
0.99844

>  <SCORE.INTRA.VDW.0>
-1.83782

>  <SCORE.INTRA.norm>
0.0530246

>  <SCORE.RESTR>
0

>  <SCORE.RESTR.CAVITY>
0

>  <SCORE.RESTR.norm>
0

>  <SCORE.SYSTEM>
0

>  <SCORE.SYSTEM.CONST>
0

>  <SCORE.SYSTEM.DIHEDRAL>
0

>  <SCORE.SYSTEM.SOLV>
0

>  <SCORE.SYSTEM.norm>
0

>  <SCORE.heavy>
22

>  <SCORE.norm>
-0.393834

>  <RMSD>
4.738

$$$$
ligand
 OpenBabel11021811513D
libRbt.so/2013.1/901 2013/11/27
 22 23  0  0  0  0  0  0  0  0999 V2000
  -32.6742    3.0512   -9.2908 N   0  0  0  0  0  0  0  0  0  0  0  0
  -29.4752    2.2736  -10.0746 C   0  0  1  0  0  0  0  0  0  0  0  0
  -30.4221    2.6289   -9.0272 O   0  0  0  0  0  0  0  0  0  0  0  0
  -27.3353    4.3394  -12.4194 P   0  0  1  0  0  0  0  0  0  0  0  0
  -31.7014    2.0769   -9.3781 C   0  0  2  0  0  0  0  0  0  0  0  0
  -34.5554    4.1026   -9.5492 N   0  0  0  0  0  0  0  0  0  0  0  0
  -32.5225    0.7074  -11.1518 O   0  0  0  0  0  0  0  0  0  0  0  0
  -31.5817    1.7328  -10.8127 C   0  0  2  0  0  0  0  0  0  0  0  0
  -35.4487    6.3777   -7.7622 N   0  0  0  0  0  0  0  0  0  0  0  0
  -29.9983    0.0111  -10.3934 O   0  0  0  0  0  0  0  0  0  0  0  0
  -30.1901    1.3214  -10.9524 C   0  0  2  0  0  0  0  0  0  0  0  0
  -33.7708    4.8386   -8.7471 C   0  0  0  0  0  0  0  0  0  0  0  0
  -31.4937    4.6059   -7.7859 N   0  0  0  0  0  0  0  0  0  0  0  0
  -28.0391    3.2056  -11.5961 O   0  0  0  0  0  0  0  0  0  0  0  0
  -29.1304    3.5299  -10.7977 C   0  0  0  0  0  0  0  0  0  0  0  0
  -28.4447    4.7830  -13.4406 O   0  0  0  0  0  0  0  0  0  0  0  0
  -33.8691    2.9953   -9.8905 C   0  0  0  0  0  0  0  0  0  0  0  0
  -33.2770    7.0174   -8.0080 O   0  0  0  0  0  0  0  0  0  0  0  0
  -34.1277    6.1393   -8.1510 C   0  0  0  0  0  0  0  0  0  0  0  0
  -32.5856    4.1815   -8.5772 C   0  0  0  0  0  0  0  0  0  0  0  0
  -26.8749    5.4184  -11.4966 O   0  5  0  0  0  0  0  0  0  0  0  0
  -26.0568    3.8631  -12.9773 O   0  0  0  0  0  0  0  0  0  0  0  0
  1 17  1  0  0  0  0
  1 20  1  0  0  0  0
  2 15  1  6  0  0  0
  2  3  1  0  0  0  0
  2 11  1  0  0  0  0
  3  5  1  0  0  0  0
  4 16  1  6  0  0  0
  4 21  1  0  0  0  0
  4 22  2  0  0  0  0
  4 14  1  0  0  0  0
  5  1  1  6  0  0  0
  5  8  1  0  0  0  0
  6 17  2  0  0  0  0
  6 12  1  0  0  0  0
  8  7  1  1  0  0  0
  8 11  1  0  0  0  0
  9 19  1  0  0  0  0
 11 10  1  1  0  0  0
 12 20  2  0  0  0  0
 12 19  1  0  0  0  0
 13 20  1  0  0  0  0
 14 15  1  0  0  0  0
 18 19  2  0  0  0  0
M  CHG  1  21  -1
M  END
>  <CHROM.1>
160.18906543,168.30533214,-65.16871914,-175.12763881,34.87252198,-30.74348915
3.62931862,-10.29523091,2.91875879,0.49569976,0.15697750

>  <Name>
ligand

>  <RI>
0

>  <Rbt.Current_Directory>
/home/itssahil/PROJECTS/Mol_Feturizer/New_Systems/rnas/4XWF

>  <Rbt.Executable>
rbdock ($Id: //depot/dev/client3/rdock/2013.1/src/exe/rbdock.cxx#4 $)

>  <Rbt.Library>
libRbt.so (2013.1, Build901 2013/11/27)

>  <Rbt.Parameter_File>
/export/apps/rDock/src/rDock_2013.1_src/data/scripts/dock_solv.prm

>  <Rbt.Receptor>
prm/pocket_docking_6.prm

>  <SCORE>
-8.2634

>  <SCORE.INTER>
-9.75189

>  <SCORE.INTER.CONST>
1

>  <SCORE.INTER.POLAR>
0

>  <SCORE.INTER.ROT>
5

>  <SCORE.INTER.SOLV>
12.1358

>  <SCORE.INTER.VDW>
-17.4799

>  <SCORE.INTER.norm>
-0.443268

>  <SCORE.INTRA>
1.48849

>  <SCORE.INTRA.DIHEDRAL>
-0.326579

>  <SCORE.INTRA.DIHEDRAL.0>
3.49807

>  <SCORE.INTRA.POLAR>
0

>  <SCORE.INTRA.POLAR.0>
0

>  <SCORE.INTRA.REPUL>
0

>  <SCORE.INTRA.REPUL.0>
0

>  <SCORE.INTRA.SOLV>
1.31941

>  <SCORE.INTRA.SOLV.lig_0>
-73.062

>  <SCORE.INTRA.VDW>
0.992072

>  <SCORE.INTRA.VDW.0>
-1.83782

>  <SCORE.INTRA.norm>
0.0676585

>  <SCORE.RESTR>
0

>  <SCORE.RESTR.CAVITY>
0

>  <SCORE.RESTR.norm>
0

>  <SCORE.SYSTEM>
0

>  <SCORE.SYSTEM.CONST>
0

>  <SCORE.SYSTEM.DIHEDRAL>
0

>  <SCORE.SYSTEM.SOLV>
0

>  <SCORE.SYSTEM.norm>
0

>  <SCORE.heavy>
22

>  <SCORE.norm>
-0.375609

>  <RMSD>
4.740

$$$$
ligand
 OpenBabel11021811513D
libRbt.so/2013.1/901 2013/11/27
 22 23  0  0  0  0  0  0  0  0999 V2000
  -32.6588    2.9983   -9.3084 N   0  0  0  0  0  0  0  0  0  0  0  0
  -29.4744    2.1793  -10.1095 C   0  0  1  0  0  0  0  0  0  0  0  0
  -30.4122    2.5412   -9.0562 O   0  0  0  0  0  0  0  0  0  0  0  0
  -27.3420    4.2174  -12.4857 P   0  0  1  0  0  0  0  0  0  0  0  0
  -31.7007    2.0105   -9.4060 C   0  0  2  0  0  0  0  0  0  0  0  0
  -34.5263    4.0777   -9.5499 N   0  0  0  0  0  0  0  0  0  0  0  0
  -32.5484    0.6655  -11.1860 O   0  0  0  0  0  0  0  0  0  0  0  0
  -31.5913    1.6746  -10.8434 C   0  0  2  0  0  0  0  0  0  0  0  0
  -35.3821    6.3736   -7.7850 N   0  0  0  0  0  0  0  0  0  0  0  0
  -30.0320   -0.0731  -10.4418 O   0  0  0  0  0  0  0  0  0  0  0  0
  -30.2065    1.2438  -10.9911 C   0  0  2  0  0  0  0  0  0  0  0  0
  -33.7258    4.7992   -8.7505 C   0  0  0  0  0  0  0  0  0  0  0  0
  -31.4457    4.5302   -7.8058 N   0  0  0  0  0  0  0  0  0  0  0  0
  -28.0502    3.0931  -11.6531 O   0  0  0  0  0  0  0  0  0  0  0  0
  -29.1138    3.4354  -10.8253 C   0  0  0  0  0  0  0  0  0  0  0  0
  -28.4711    4.7043  -13.4647 O   0  0  0  0  0  0  0  0  0  0  0  0
  -33.8584    2.9620   -9.9000 C   0  0  0  0  0  0  0  0  0  0  0  0
  -33.1885    6.9549   -7.9748 O   0  0  0  0  0  0  0  0  0  0  0  0
  -34.0598    6.1027   -8.1470 C   0  0  0  0  0  0  0  0  0  0  0  0
  -32.5490    4.1246   -8.5912 C   0  0  0  0  0  0  0  0  0  0  0  0
  -26.8220    5.2716  -11.5658 O   0  5  0  0  0  0  0  0  0  0  0  0
  -26.0960    3.7131  -13.0906 O   0  0  0  0  0  0  0  0  0  0  0  0
  1 17  1  0  0  0  0
  1 20  1  0  0  0  0
  2 15  1  6  0  0  0
  2  3  1  0  0  0  0
  2 11  1  0  0  0  0
  3  5  1  0  0  0  0
  4 16  1  6  0  0  0
  4 21  1  0  0  0  0
  4 22  2  0  0  0  0
  4 14  1  0  0  0  0
  5  1  1  6  0  0  0
  5  8  1  0  0  0  0
  6 17  2  0  0  0  0
  6 12  1  0  0  0  0
  8  7  1  1  0  0  0
  8 11  1  0  0  0  0
  9 19  1  0  0  0  0
 11 10  1  1  0  0  0
 12 20  2  0  0  0  0
 12 19  1  0  0  0  0
 13 20  1  0  0  0  0
 14 15  1  0  0  0  0
 18 19  2  0  0  0  0
M  CHG  1  21  -1
M  END
>  <CHROM.1>
160.44177400,169.64113666,-64.56117781,-175.49810647,32.97312147,-30.73103278
3.55216548,-10.32791613,2.90034141,0.50313188,0.16636757

>  <Name>
ligand

>  <RI>
0

>  <Rbt.Current_Directory>
/home/itssahil/PROJECTS/Mol_Feturizer/New_Systems/rnas/4XWF

>  <Rbt.Executable>
rbdock ($Id: //depot/dev/client3/rdock/2013.1/src/exe/rbdock.cxx#4 $)

>  <Rbt.Library>
libRbt.so (2013.1, Build901 2013/11/27)

>  <Rbt.Parameter_File>
/export/apps/rDock/src/rDock_2013.1_src/data/scripts/dock_solv.prm

>  <Rbt.Receptor>
prm/pocket_docking_7.prm

>  <SCORE>
-8.21853

>  <SCORE.INTER>
-9.62844

>  <SCORE.INTER.CONST>
1

>  <SCORE.INTER.POLAR>
0

>  <SCORE.INTER.ROT>
5

>  <SCORE.INTER.SOLV>
12.088

>  <SCORE.INTER.VDW>
-17.3816

>  <SCORE.INTER.norm>
-0.437656

>  <SCORE.INTRA>
1.40992

>  <SCORE.INTRA.DIHEDRAL>
-0.531755

>  <SCORE.INTRA.DIHEDRAL.0>
3.49807

>  <SCORE.INTRA.POLAR>
0

>  <SCORE.INTRA.POLAR.0>
0

>  <SCORE.INTRA.REPUL>
0

>  <SCORE.INTRA.REPUL.0>
0

>  <SCORE.INTRA.SOLV>
1.33603

>  <SCORE.INTRA.SOLV.lig_0>
-73.062

>  <SCORE.INTRA.VDW>
1.00778

>  <SCORE.INTRA.VDW.0>
-1.83782

>  <SCORE.INTRA.norm>
0.0640871

>  <SCORE.RESTR>
0

>  <SCORE.RESTR.CAVITY>
0

>  <SCORE.RESTR.norm>
0

>  <SCORE.SYSTEM>
0

>  <SCORE.SYSTEM.CONST>
0

>  <SCORE.SYSTEM.DIHEDRAL>
0

>  <SCORE.SYSTEM.SOLV>
0

>  <SCORE.SYSTEM.norm>
0

>  <SCORE.heavy>
22

>  <SCORE.norm>
-0.373569

>  <RMSD>
4.765

$$$$
ligand
 OpenBabel11021811513D
libRbt.so/2013.1/901 2013/11/27
 22 23  0  0  0  0  0  0  0  0999 V2000
  -32.6961    3.0131   -9.2767 N   0  0  0  0  0  0  0  0  0  0  0  0
  -29.4838    2.2988  -10.0660 C   0  0  1  0  0  0  0  0  0  0  0  0
  -30.4346    2.6414   -9.0180 O   0  0  0  0  0  0  0  0  0  0  0  0
  -27.4884    4.3558  -12.5450 P   0  0  1  0  0  0  0  0  0  0  0  0
  -31.7028    2.0594   -9.3602 C   0  0  2  0  0  0  0  0  0  0  0  0
  -34.5905    4.0340   -9.5595 N   0  0  0  0  0  0  0  0  0  0  0  0
  -32.5002    0.6591  -11.1207 O   0  0  0  0  0  0  0  0  0  0  0  0
  -31.5806    1.7071  -10.7926 C   0  0  2  0  0  0  0  0  0  0  0  0
  -33.3152    7.0981   -8.0543 N   0  0  0  0  0  0  0  0  0  0  0  0
  -29.9590    0.0231  -10.3660 O   0  0  0  0  0  0  0  0  0  0  0  0
  -30.1809    1.3248  -10.9341 C   0  0  2  0  0  0  0  0  0  0  0  0
  -33.8400    4.7676   -8.7234 C   0  0  0  0  0  0  0  0  0  0  0  0
  -31.5826    4.5578   -7.7116 N   0  0  0  0  0  0  0  0  0  0  0  0
  -28.0741    3.2496  -11.6006 O   0  0  0  0  0  0  0  0  0  0  0  0
  -29.1686    3.5567  -10.7997 C   0  0  0  0  0  0  0  0  0  0  0  0
  -27.1907    5.5459  -11.5625 O   0  0  0  0  0  0  0  0  0  0  0  0
  -33.8749    2.9473   -9.9066 C   0  0  0  0  0  0  0  0  0  0  0  0
  -35.3624    6.1936   -7.6343 O   0  0  0  0  0  0  0  0  0  0  0  0
  -34.2362    6.0486   -8.1095 C   0  0  0  0  0  0  0  0  0  0  0  0
  -32.6467    4.1296   -8.5380 C   0  0  0  0  0  0  0  0  0  0  0  0
  -26.2888    3.8248  -13.2571 O   0  5  0  0  0  0  0  0  0  0  0  0
  -28.4045    4.6219  -13.6687 O   0  0  0  0  0  0  0  0  0  0  0  0
  1 17  1  0  0  0  0
  1 20  1  0  0  0  0
  2 15  1  6  0  0  0
  2  3  1  0  0  0  0
  2 11  1  0  0  0  0
  3  5  1  0  0  0  0
  4 16  1  1  0  0  0
  4 21  1  0  0  0  0
  4 22  2  0  0  0  0
  4 14  1  0  0  0  0
  5  1  1  6  0  0  0
  5  8  1  0  0  0  0
  6 17  2  0  0  0  0
  6 12  1  0  0  0  0
  8  7  1  1  0  0  0
  8 11  1  0  0  0  0
  9 19  1  0  0  0  0
 11 10  1  1  0  0  0
 12 20  2  0  0  0  0
 12 19  1  0  0  0  0
 13 20  1  0  0  0  0
 14 15  1  0  0  0  0
 18 19  2  0  0  0  0
M  CHG  1  21  -1
M  END
>  <CHROM.1>
157.91023204,168.36157836,54.94850134,178.72890999,-136.96855059,-30.80922483
3.60340411,-10.31709488,2.93406011,0.53240949,0.13040271

>  <Name>
ligand

>  <RI>
0

>  <Rbt.Current_Directory>
/home/itssahil/PROJECTS/Mol_Feturizer/New_Systems/rnas/4XWF

>  <Rbt.Executable>
rbdock ($Id: //depot/dev/client3/rdock/2013.1/src/exe/rbdock.cxx#4 $)

>  <Rbt.Library>
libRbt.so (2013.1, Build901 2013/11/27)

>  <Rbt.Parameter_File>
/export/apps/rDock/src/rDock_2013.1_src/data/scripts/dock_solv.prm

>  <Rbt.Receptor>
prm/pocket_docking_5.prm

>  <SCORE>
-7.97524

>  <SCORE.INTER>
-9.14205

>  <SCORE.INTER.CONST>
1

>  <SCORE.INTER.POLAR>
0

>  <SCORE.INTER.ROT>
5

>  <SCORE.INTER.SOLV>
13.5427

>  <SCORE.INTER.VDW>
-17.5423

>  <SCORE.INTER.norm>
-0.415548

>  <SCORE.INTRA>
1.16681

>  <SCORE.INTRA.DIHEDRAL>
-1.20815

>  <SCORE.INTRA.DIHEDRAL.0>
3.49807

>  <SCORE.INTRA.POLAR>
0

>  <SCORE.INTRA.POLAR.0>
0

>  <SCORE.INTRA.REPUL>
0

>  <SCORE.INTRA.REPUL.0>
0

>  <SCORE.INTRA.SOLV>
1.42876

>  <SCORE.INTRA.SOLV.lig_0>
-73.062

>  <SCORE.INTRA.VDW>
1.05651

>  <SCORE.INTRA.VDW.0>
-1.83782

>  <SCORE.INTRA.norm>
0.0530369

>  <SCORE.RESTR>
0

>  <SCORE.RESTR.CAVITY>
0

>  <SCORE.RESTR.norm>
0

>  <SCORE.SYSTEM>
0

>  <SCORE.SYSTEM.CONST>
0

>  <SCORE.SYSTEM.DIHEDRAL>
0

>  <SCORE.SYSTEM.SOLV>
0

>  <SCORE.SYSTEM.norm>
0

>  <SCORE.heavy>
22

>  <SCORE.norm>
-0.362511

>  <RMSD>
4.794

$$$$
ligand
 OpenBabel11021811513D
libRbt.so/2013.1/901 2013/11/27
 22 23  0  0  0  0  0  0  0  0999 V2000
  -30.1815    3.7558  -10.0028 N   0  0  0  0  0  0  0  0  0  0  0  0
  -27.2361    3.9147  -11.6617 C   0  0  1  0  0  0  0  0  0  0  0  0
  -28.5176    4.5497  -11.3888 O   0  0  0  0  0  0  0  0  0  0  0  0
  -28.5209    2.5478  -14.9540 P   0  0  1  0  0  0  0  0  0  0  0  0
  -28.8894    4.2381  -10.0364 C   0  0  2  0  0  0  0  0  0  0  0  0
  -31.9077    2.4850  -10.3439 N   0  0  0  0  0  0  0  0  0  0  0  0
  -27.8674    3.0574   -8.2316 O   0  0  0  0  0  0  0  0  0  0  0  0
  -28.0114    3.1089   -9.6558 C   0  0  2  0  0  0  0  0  0  0  0  0
  -33.8043    3.7755   -7.6007 N   0  0  0  0  0  0  0  0  0  0  0  0
  -26.0527    4.4533   -9.7113 O   0  0  0  0  0  0  0  0  0  0  0  0
  -26.7668    3.3884  -10.3613 C   0  0  2  0  0  0  0  0  0  0  0  0
  -32.2805    3.4906   -9.5375 C   0  0  0  0  0  0  0  0  0  0  0  0
  -31.1599    5.4495   -8.5029 N   0  0  0  0  0  0  0  0  0  0  0  0
  -28.0871    3.4295  -13.7321 O   0  0  0  0  0  0  0  0  0  0  0  0
  -27.4902    2.8164  -12.6359 C   0  0  0  0  0  0  0  0  0  0  0  0
  -29.5942    1.5803  -14.3355 O   0  0  0  0  0  0  0  0  0  0  0  0
  -30.6043    2.6557  -10.6364 C   0  0  0  0  0  0  0  0  0  0  0  0
  -34.6076    3.7813   -9.7315 O   0  0  0  0  0  0  0  0  0  0  0  0
  -33.6325    3.6956   -8.9852 C   0  0  0  0  0  0  0  0  0  0  0  0
  -31.1981    4.2934   -9.3157 C   0  0  0  0  0  0  0  0  0  0  0  0
  -29.0332    3.4235  -16.0487 O   0  5  0  0  0  0  0  0  0  0  0  0
  -27.3463    1.9302  -15.5956 O   0  0  0  0  0  0  0  0  0  0  0  0
  1 17  1  0  0  0  0
  1 20  1  0  0  0  0
  2 15  1  6  0  0  0
  2  3  1  0  0  0  0
  2 11  1  0  0  0  0
  3  5  1  0  0  0  0
  4 16  1  1  0  0  0
  4 21  1  0  0  0  0
  4 22  2  0  0  0  0
  4 14  1  0  0  0  0
  5  1  1  6  0  0  0
  5  8  1  0  0  0  0
  6 17  2  0  0  0  0
  6 12  1  0  0  0  0
  8  7  1  1  0  0  0
  8 11  1  0  0  0  0
  9 19  1  0  0  0  0
 11 10  1  1  0  0  0
 12 20  2  0  0  0  0
 12 19  1  0  0  0  0
 13 20  1  0  0  0  0
 14 15  1  0  0  0  0
 18 19  2  0  0  0  0
M  CHG  1  21  -1
M  END
>  <CHROM.1>
60.42012518,57.17890415,62.03275706,-178.80799654,123.03440685,-29.54343076
3.38704527,-11.35232037,-2.23201464,-0.05995580,-1.81398312

>  <Name>
ligand

>  <RI>
0

>  <Rbt.Current_Directory>
/home/itssahil/PROJECTS/Mol_Feturizer/New_Systems/rnas/4XWF

>  <Rbt.Executable>
rbdock ($Id: //depot/dev/client3/rdock/2013.1/src/exe/rbdock.cxx#4 $)

>  <Rbt.Library>
libRbt.so (2013.1, Build901 2013/11/27)

>  <Rbt.Parameter_File>
/export/apps/rDock/src/rDock_2013.1_src/data/scripts/dock_solv.prm

>  <Rbt.Receptor>
prm/pocket_docking_5.prm

>  <SCORE>
-6.96321

>  <SCORE.INTER>
-5.53384

>  <SCORE.INTER.CONST>
1

>  <SCORE.INTER.POLAR>
0

>  <SCORE.INTER.ROT>
5

>  <SCORE.INTER.SOLV>
13.9945

>  <SCORE.INTER.VDW>
-15.2874

>  <SCORE.INTER.norm>
-0.251538

>  <SCORE.INTRA>
-1.42938

>  <SCORE.INTRA.DIHEDRAL>
-1.93228

>  <SCORE.INTRA.DIHEDRAL.0>
3.49807

>  <SCORE.INTRA.POLAR>
0

>  <SCORE.INTRA.POLAR.0>
0

>  <SCORE.INTRA.REPUL>
0

>  <SCORE.INTRA.REPUL.0>
0

>  <SCORE.INTRA.SOLV>
-0.817113

>  <SCORE.INTRA.SOLV.lig_0>
-73.062

>  <SCORE.INTRA.VDW>
-0.0546822

>  <SCORE.INTRA.VDW.0>
-1.83782

>  <SCORE.INTRA.norm>
-0.0649717

>  <SCORE.RESTR>
0

>  <SCORE.RESTR.CAVITY>
0

>  <SCORE.RESTR.norm>
0

>  <SCORE.SYSTEM>
0

>  <SCORE.SYSTEM.CONST>
0

>  <SCORE.SYSTEM.DIHEDRAL>
0

>  <SCORE.SYSTEM.SOLV>
0

>  <SCORE.SYSTEM.norm>
0

>  <SCORE.heavy>
22

>  <SCORE.norm>
-0.31651

>  <RMSD>
4.809

$$$$
ligand
 OpenBabel11021811513D
libRbt.so/2013.1/901 2013/11/27
 22 23  0  0  0  0  0  0  0  0999 V2000
  -32.6786    3.0650   -9.2662 N   0  0  0  0  0  0  0  0  0  0  0  0
  -29.4910    2.2891  -10.0970 C   0  0  1  0  0  0  0  0  0  0  0  0
  -30.4211    2.6514   -9.0370 O   0  0  0  0  0  0  0  0  0  0  0  0
  -27.4798    4.3075  -12.5946 P   0  0  1  0  0  0  0  0  0  0  0  0
  -31.7045    2.0927   -9.3610 C   0  0  2  0  0  0  0  0  0  0  0  0
  -34.5582    4.1194   -9.5232 N   0  0  0  0  0  0  0  0  0  0  0  0
  -32.5515    0.7044  -11.1078 O   0  0  0  0  0  0  0  0  0  0  0  0
  -31.6081    1.7356  -10.7942 C   0  0  2  0  0  0  0  0  0  0  0  0
  -35.4573    6.3489   -7.6664 N   0  0  0  0  0  0  0  0  0  0  0  0
  -30.0128    0.0222  -10.3859 O   0  0  0  0  0  0  0  0  0  0  0  0
  -30.2179    1.3268  -10.9536 C   0  0  2  0  0  0  0  0  0  0  0  0
  -33.7805    4.8431   -8.7034 C   0  0  0  0  0  0  0  0  0  0  0  0
  -31.5110    4.5966   -7.7278 N   0  0  0  0  0  0  0  0  0  0  0  0
  -28.1149    3.1983  -11.6862 O   0  0  0  0  0  0  0  0  0  0  0  0
  -29.1622    3.5396  -10.8374 C   0  0  0  0  0  0  0  0  0  0  0  0
  -27.0966    5.4353  -11.5691 O   0  0  0  0  0  0  0  0  0  0  0  0
  -33.8686    3.0179   -9.8762 C   0  0  0  0  0  0  0  0  0  0  0  0
  -33.3030    7.0250   -7.9626 O   0  0  0  0  0  0  0  0  0  0  0  0
  -34.1429    6.1342   -8.0899 C   0  0  0  0  0  0  0  0  0  0  0  0
  -32.5963    4.1841   -8.5344 C   0  0  0  0  0  0  0  0  0  0  0  0
  -26.3252    3.7379  -13.3499 O   0  5  0  0  0  0  0  0  0  0  0  0
  -28.3962    4.6743  -13.6892 O   0  0  0  0  0  0  0  0  0  0  0  0
  1 17  1  0  0  0  0
  1 20  1  0  0  0  0
  2 15  1  6  0  0  0
  2  3  1  0  0  0  0
  2 11  1  0  0  0  0
  3  5  1  0  0  0  0
  4 16  1  1  0  0  0
  4 21  1  0  0  0  0
  4 22  2  0  0  0  0
  4 14  1  0  0  0  0
  5  1  1  6  0  0  0
  5  8  1  0  0  0  0
  6 17  2  0  0  0  0
  6 12  1  0  0  0  0
  8  7  1  1  0  0  0
  8 11  1  0  0  0  0
  9 19  1  0  0  0  0
 11 10  1  1  0  0  0
 12 20  2  0  0  0  0
 12 19  1  0  0  0  0
 13 20  1  0  0  0  0
 14 15  1  0  0  0  0
 18 19  2  0  0  0  0
M  CHG  1  21  -1
M  END
>  <CHROM.1>
158.16587135,170.38356316,53.90792075,-178.04061998,37.03914609,-30.79251537
3.61982344,-10.33217873,2.91024752,0.53901825,0.14074134

>  <Name>
ligand

>  <RI>
0

>  <Rbt.Current_Directory>
/home/itssahil/PROJECTS/Mol_Feturizer/New_Systems/rnas/4XWF

>  <Rbt.Executable>
rbdock ($Id: //depot/dev/client3/rdock/2013.1/src/exe/rbdock.cxx#4 $)

>  <Rbt.Library>
libRbt.so (2013.1, Build901 2013/11/27)

>  <Rbt.Parameter_File>
/export/apps/rDock/src/rDock_2013.1_src/data/scripts/dock_solv.prm

>  <Rbt.Receptor>
prm/pocket_docking_5.prm

>  <SCORE>
-7.69511

>  <SCORE.INTER>
-9.1223

>  <SCORE.INTER.CONST>
1

>  <SCORE.INTER.POLAR>
0

>  <SCORE.INTER.ROT>
5

>  <SCORE.INTER.SOLV>
14.1145

>  <SCORE.INTER.VDW>
-17.7197

>  <SCORE.INTER.norm>
-0.41465

>  <SCORE.INTRA>
1.42719

>  <SCORE.INTRA.DIHEDRAL>
-0.463449

>  <SCORE.INTRA.DIHEDRAL.0>
3.49807

>  <SCORE.INTRA.POLAR>
0

>  <SCORE.INTRA.POLAR.0>
0

>  <SCORE.INTRA.REPUL>
0

>  <SCORE.INTRA.REPUL.0>
0

>  <SCORE.INTRA.SOLV>
1.08021

>  <SCORE.INTRA.SOLV.lig_0>
-73.062

>  <SCORE.INTRA.VDW>
1.11881

>  <SCORE.INTRA.VDW.0>
-1.83782

>  <SCORE.INTRA.norm>
0.0648724

>  <SCORE.RESTR>
0

>  <SCORE.RESTR.CAVITY>
0

>  <SCORE.RESTR.norm>
0

>  <SCORE.SYSTEM>
0

>  <SCORE.SYSTEM.CONST>
0

>  <SCORE.SYSTEM.DIHEDRAL>
0

>  <SCORE.SYSTEM.SOLV>
0

>  <SCORE.SYSTEM.norm>
0

>  <SCORE.heavy>
22

>  <SCORE.norm>
-0.349778

>  <RMSD>
4.812

$$$$
ligand
 OpenBabel11021811513D
libRbt.so/2013.1/901 2013/11/27
 22 23  0  0  0  0  0  0  0  0999 V2000
  -32.6829    3.0181   -9.2891 N   0  0  0  0  0  0  0  0  0  0  0  0
  -29.4849    2.2900  -10.1232 C   0  0  1  0  0  0  0  0  0  0  0  0
  -30.4186    2.6415   -9.0627 O   0  0  0  0  0  0  0  0  0  0  0  0
  -27.5516    4.3151  -12.6767 P   0  0  1  0  0  0  0  0  0  0  0  0
  -31.6936    2.0611   -9.3821 C   0  0  2  0  0  0  0  0  0  0  0  0
  -34.5724    4.0505   -9.5628 N   0  0  0  0  0  0  0  0  0  0  0  0
  -32.5217    0.6527  -11.1218 O   0  0  0  0  0  0  0  0  0  0  0  0
  -31.5942    1.7000  -10.8141 C   0  0  2  0  0  0  0  0  0  0  0  0
  -33.2939    7.0998   -8.0426 N   0  0  0  0  0  0  0  0  0  0  0  0
  -29.9710    0.0139  -10.4023 O   0  0  0  0  0  0  0  0  0  0  0  0
  -30.1980    1.3129  -10.9747 C   0  0  2  0  0  0  0  0  0  0  0  0
  -33.8198    4.7712   -8.7173 C   0  0  0  0  0  0  0  0  0  0  0  0
  -31.5649    4.5399   -7.7048 N   0  0  0  0  0  0  0  0  0  0  0  0
  -28.1371    3.2108  -11.7299 O   0  0  0  0  0  0  0  0  0  0  0  0
  -29.1776    3.5427  -10.8691 C   0  0  0  0  0  0  0  0  0  0  0  0
  -27.2335    5.4993  -11.6933 O   0  0  0  0  0  0  0  0  0  0  0  0
  -33.8610    2.9647   -9.9213 C   0  0  0  0  0  0  0  0  0  0  0  0
  -35.3304    6.1842   -7.5953 O   0  0  0  0  0  0  0  0  0  0  0  0
  -34.2114    6.0467   -8.0894 C   0  0  0  0  0  0  0  0  0  0  0  0
  -32.6296    4.1259   -8.5376 C   0  0  0  0  0  0  0  0  0  0  0  0
  -26.3641    3.7762  -13.4028 O   0  5  0  0  0  0  0  0  0  0  0  0
  -28.4769    4.5929  -13.7899 O   0  0  0  0  0  0  0  0  0  0  0  0
  1 17  1  0  0  0  0
  1 20  1  0  0  0  0
  2 15  1  6  0  0  0
  2  3  1  0  0  0  0
  2 11  1  0  0  0  0
  3  5  1  0  0  0  0
  4 16  1  1  0  0  0
  4 21  1  0  0  0  0
  4 22  2  0  0  0  0
  4 14  1  0  0  0  0
  5  1  1  6  0  0  0
  5  8  1  0  0  0  0
  6 17  2  0  0  0  0
  6 12  1  0  0  0  0
  8  7  1  1  0  0  0
  8 11  1  0  0  0  0
  9 19  1  0  0  0  0
 11 10  1  1  0  0  0
 12 20  2  0  0  0  0
 12 19  1  0  0  0  0
 13 20  1  0  0  0  0
 14 15  1  0  0  0  0
 18 19  2  0  0  0  0
M  CHG  1  21  -1
M  END
>  <CHROM.1>
156.52487920,171.05932701,51.80438414,-179.78167680,-135.81111480,-30.82230374
3.58959183,-10.36518886,2.92775436,0.55524391,0.12450620

>  <Name>
ligand

>  <RI>
0

>  <Rbt.Current_Directory>
/home/itssahil/PROJECTS/Mol_Feturizer/New_Systems/rnas/4XWF

>  <Rbt.Executable>
rbdock ($Id: //depot/dev/client3/rdock/2013.1/src/exe/rbdock.cxx#4 $)

>  <Rbt.Library>
libRbt.so (2013.1, Build901 2013/11/27)

>  <Rbt.Parameter_File>
/export/apps/rDock/src/rDock_2013.1_src/data/scripts/dock_solv.prm

>  <Rbt.Receptor>
prm/pocket_docking_5.prm

>  <SCORE>
-7.97032

>  <SCORE.INTER>
-9.10943

>  <SCORE.INTER.CONST>
1

>  <SCORE.INTER.POLAR>
0

>  <SCORE.INTER.ROT>
5

>  <SCORE.INTER.SOLV>
13.629

>  <SCORE.INTER.VDW>
-17.5493

>  <SCORE.INTER.norm>
-0.414065

>  <SCORE.INTRA>
1.13911

>  <SCORE.INTRA.DIHEDRAL>
-1.35957

>  <SCORE.INTRA.DIHEDRAL.0>
3.49807

>  <SCORE.INTRA.POLAR>
0

>  <SCORE.INTRA.POLAR.0>
0

>  <SCORE.INTRA.REPUL>
0

>  <SCORE.INTRA.REPUL.0>
0

>  <SCORE.INTRA.SOLV>
1.31622

>  <SCORE.INTRA.SOLV.lig_0>
-73.062

>  <SCORE.INTRA.VDW>
1.16079

>  <SCORE.INTRA.VDW.0>
-1.83782

>  <SCORE.INTRA.norm>
0.0517778

>  <SCORE.RESTR>
0

>  <SCORE.RESTR.CAVITY>
0

>  <SCORE.RESTR.norm>
0

>  <SCORE.SYSTEM>
0

>  <SCORE.SYSTEM.CONST>
0

>  <SCORE.SYSTEM.DIHEDRAL>
0

>  <SCORE.SYSTEM.SOLV>
0

>  <SCORE.SYSTEM.norm>
0

>  <SCORE.heavy>
22

>  <SCORE.norm>
-0.362287

>  <RMSD>
4.824

$$$$
ligand
 OpenBabel11021811513D
libRbt.so/2013.1/901 2013/11/27
 22 23  0  0  0  0  0  0  0  0999 V2000
  -30.3940    1.8043  -10.9366 N   0  0  0  0  0  0  0  0  0  0  0  0
  -27.9165    1.9997  -13.2335 C   0  0  1  0  0  0  0  0  0  0  0  0
  -28.5005    2.5530  -12.0200 O   0  0  0  0  0  0  0  0  0  0  0  0
  -29.1499    4.7267  -15.5331 P   0  0  1  0  0  0  0  0  0  0  0  0
  -29.1000    1.4749  -11.2833 C   0  0  2  0  0  0  0  0  0  0  0  0
  -32.5493    1.6917  -10.7062 N   0  0  0  0  0  0  0  0  0  0  0  0
  -29.2441   -0.8906  -11.5652 O   0  0  0  0  0  0  0  0  0  0  0  0
  -29.1976    0.3634  -12.2558 C   0  0  2  0  0  0  0  0  0  0  0  0
  -34.3510    3.5754   -9.3288 N   0  0  0  0  0  0  0  0  0  0  0  0
  -26.8389    0.1016  -12.3787 O   0  0  0  0  0  0  0  0  0  0  0  0
  -28.0129    0.5306  -13.0887 C   0  0  2  0  0  0  0  0  0  0  0  0
  -32.1200    2.8052  -10.0927 C   0  0  0  0  0  0  0  0  0  0  0  0
  -29.9195    3.8894   -9.7107 N   0  0  0  0  0  0  0  0  0  0  0  0
  -28.6730    3.8779  -14.3039 O   0  0  0  0  0  0  0  0  0  0  0  0
  -28.7357    2.4907  -14.3771 C   0  0  0  0  0  0  0  0  0  0  0  0
  -30.5553    4.1099  -15.8718 O   0  0  0  0  0  0  0  0  0  0  0  0
  -31.4754    1.0748  -11.2350 C   0  0  0  0  0  0  0  0  0  0  0  0
  -32.4764    4.7844   -8.8708 O   0  0  0  0  0  0  0  0  0  0  0  0
  -32.9704    3.7834   -9.3894 C   0  0  0  0  0  0  0  0  0  0  0  0
  -30.7634    2.8815  -10.2309 C   0  0  0  0  0  0  0  0  0  0  0  0
  -29.1801    6.1726  -15.1637 O   0  5  0  0  0  0  0  0  0  0  0  0
  -28.1338    4.7163  -16.6008 O   0  0  0  0  0  0  0  0  0  0  0  0
  1 17  1  0  0  0  0
  1 20  1  0  0  0  0
  2 15  1  6  0  0  0
  2  3  1  0  0  0  0
  2 11  1  0  0  0  0
  3  5  1  0  0  0  0
  4 16  1  6  0  0  0
  4 21  1  0  0  0  0
  4 22  2  0  0  0  0
  4 14  1  0  0  0  0
  5  1  1  6  0  0  0
  5  8  1  0  0  0  0
  6 17  2  0  0  0  0
  6 12  1  0  0  0  0
  8  7  1  1  0  0  0
  8 11  1  0  0  0  0
  9 19  1  0  0  0  0
 11 10  1  1  0  0  0
 12 20  2  0  0  0  0
 12 19  1  0  0  0  0
 13 20  1  0  0  0  0
 14 15  1  0  0  0  0
 18 19  2  0  0  0  0
M  CHG  1  21  -1
M  END
>  <CHROM.1>
124.50307246,58.45531027,49.41213944,166.25447378,0.03663399,-29.90120674
2.81089888,-12.46243382,-2.36788193,0.75497381,-0.74060364

>  <Name>
ligand

>  <RI>
0

>  <Rbt.Current_Directory>
/home/itssahil/PROJECTS/Mol_Feturizer/New_Systems/rnas/4XWF

>  <Rbt.Executable>
rbdock ($Id: //depot/dev/client3/rdock/2013.1/src/exe/rbdock.cxx#4 $)

>  <Rbt.Library>
libRbt.so (2013.1, Build901 2013/11/27)

>  <Rbt.Parameter_File>
/export/apps/rDock/src/rDock_2013.1_src/data/scripts/dock_solv.prm

>  <Rbt.Receptor>
prm/pocket_docking_4.prm

>  <SCORE>
-7.22507

>  <SCORE.INTER>
-8.983

>  <SCORE.INTER.CONST>
1

>  <SCORE.INTER.POLAR>
0

>  <SCORE.INTER.ROT>
5

>  <SCORE.INTER.SOLV>
17.8843

>  <SCORE.INTER.VDW>
-18.8834

>  <SCORE.INTER.norm>
-0.408318

>  <SCORE.INTRA>
1.75708

>  <SCORE.INTRA.DIHEDRAL>
-0.867176

>  <SCORE.INTRA.DIHEDRAL.0>
3.49807

>  <SCORE.INTRA.POLAR>
0

>  <SCORE.INTRA.POLAR.0>
0

>  <SCORE.INTRA.REPUL>
0

>  <SCORE.INTRA.REPUL.0>
0

>  <SCORE.INTRA.SOLV>
-0.436635

>  <SCORE.INTRA.SOLV.lig_0>
-73.062

>  <SCORE.INTRA.VDW>
2.40899

>  <SCORE.INTRA.VDW.0>
-1.83782

>  <SCORE.INTRA.norm>
0.0798675

>  <SCORE.RESTR>
0.000841597

>  <SCORE.RESTR.CAVITY>
0.000841597

>  <SCORE.RESTR.norm>
3.82544e-05

>  <SCORE.SYSTEM>
0

>  <SCORE.SYSTEM.CONST>
0

>  <SCORE.SYSTEM.DIHEDRAL>
0

>  <SCORE.SYSTEM.SOLV>
0

>  <SCORE.SYSTEM.norm>
0

>  <SCORE.heavy>
22

>  <SCORE.norm>
-0.328412

>  <RMSD>
4.871

$$$$
ligand
 OpenBabel11021811513D
libRbt.so/2013.1/901 2013/11/27
 22 23  0  0  0  0  0  0  0  0999 V2000
  -30.9153    3.0769   -9.5964 N   0  0  0  0  0  0  0  0  0  0  0  0
  -28.5160    1.7411  -11.5741 C   0  0  1  0  0  0  0  0  0  0  0  0
  -28.8493    2.3085  -10.2754 O   0  0  0  0  0  0  0  0  0  0  0  0
  -27.8522    3.2189  -14.9996 P   0  0  1  0  0  0  0  0  0  0  0  0
  -30.2076    1.9532   -9.9700 C   0  0  2  0  0  0  0  0  0  0  0  0
  -31.4722    5.1578   -9.3304 N   0  0  0  0  0  0  0  0  0  0  0  0
  -31.8888    0.6325  -11.0307 O   0  0  0  0  0  0  0  0  0  0  0  0
  -30.7793    1.5087  -11.2609 C   0  0  2  0  0  0  0  0  0  0  0  0
  -34.0997    4.3935   -6.9791 N   0  0  0  0  0  0  0  0  0  0  0  0
  -29.3946   -0.4205  -11.3496 O   0  0  0  0  0  0  0  0  0  0  0  0
  -29.6551    0.8677  -11.9319 C   0  0  2  0  0  0  0  0  0  0  0  0
  -32.4610    4.3937   -8.8416 C   0  0  0  0  0  0  0  0  0  0  0  0
  -32.8961    1.9571   -8.6486 N   0  0  0  0  0  0  0  0  0  0  0  0
  -28.0499    2.2972  -13.7466 O   0  0  0  0  0  0  0  0  0  0  0  0
  -28.3794    2.8784  -12.5269 C   0  0  0  0  0  0  0  0  0  0  0  0
  -26.6438    4.1345  -14.5847 O   0  0  0  0  0  0  0  0  0  0  0  0
  -30.5102    4.3369   -9.7933 C   0  0  0  0  0  0  0  0  0  0  0  0
  -34.4069    5.7165   -8.8069 O   0  0  0  0  0  0  0  0  0  0  0  0
  -33.7067    4.8875   -8.2259 C   0  0  0  0  0  0  0  0  0  0  0  0
  -32.1190    3.0820   -9.0083 C   0  0  0  0  0  0  0  0  0  0  0  0
  -27.6065    2.3780  -16.2080 O   0  5  0  0  0  0  0  0  0  0  0  0
  -29.1145    3.8899  -15.3588 O   0  0  0  0  0  0  0  0  0  0  0  0
  1 17  1  0  0  0  0
  1 20  1  0  0  0  0
  2 15  1  6  0  0  0
  2  3  1  0  0  0  0
  2 11  1  0  0  0  0
  3  5  1  0  0  0  0
  4 16  1  1  0  0  0
  4 21  1  0  0  0  0
  4 22  2  0  0  0  0
  4 14  1  0  0  0  0
  5  1  1  6  0  0  0
  5  8  1  0  0  0  0
  6 17  2  0  0  0  0
  6 12  1  0  0  0  0
  8  7  1  1  0  0  0
  8 11  1  0  0  0  0
  9 19  1  0  0  0  0
 11 10  1  1  0  0  0
 12 20  2  0  0  0  0
 12 19  1  0  0  0  0
 13 20  1  0  0  0  0
 14 15  1  0  0  0  0
 18 19  2  0  0  0  0
M  CHG  1  21  -1
M  END
>  <CHROM.1>
14.84865780,179.45173391,61.70738768,178.96111965,-129.15790423,-30.21917468
2.91352461,-11.42139478,-3.02146037,0.87423114,-0.35209945

>  <Name>
ligand

>  <RI>
0

>  <Rbt.Current_Directory>
/home/itssahil/PROJECTS/Mol_Feturizer/New_Systems/rnas/4XWF

>  <Rbt.Executable>
rbdock ($Id: //depot/dev/client3/rdock/2013.1/src/exe/rbdock.cxx#4 $)

>  <Rbt.Library>
libRbt.so (2013.1, Build901 2013/11/27)

>  <Rbt.Parameter_File>
/export/apps/rDock/src/rDock_2013.1_src/data/scripts/dock_solv.prm

>  <Rbt.Receptor>
prm/pocket_docking_4.prm

>  <SCORE>
-5.78687

>  <SCORE.INTER>
-5.22762

>  <SCORE.INTER.CONST>
1

>  <SCORE.INTER.POLAR>
0

>  <SCORE.INTER.ROT>
5

>  <SCORE.INTER.SOLV>
13.1665

>  <SCORE.INTER.VDW>
-14.8073

>  <SCORE.INTER.norm>
-0.237619

>  <SCORE.INTRA>
-0.559248

>  <SCORE.INTRA.DIHEDRAL>
-1.91581

>  <SCORE.INTRA.DIHEDRAL.0>
3.49807

>  <SCORE.INTRA.POLAR>
0

>  <SCORE.INTRA.POLAR.0>
0

>  <SCORE.INTRA.REPUL>
0

>  <SCORE.INTRA.REPUL.0>
0

>  <SCORE.INTRA.SOLV>
0.828899

>  <SCORE.INTRA.SOLV.lig_0>
-73.062

>  <SCORE.INTRA.VDW>
-0.0157929

>  <SCORE.INTRA.VDW.0>
-1.83782

>  <SCORE.INTRA.norm>
-0.0254204

>  <SCORE.RESTR>
0

>  <SCORE.RESTR.CAVITY>
0

>  <SCORE.RESTR.norm>
0

>  <SCORE.SYSTEM>
0

>  <SCORE.SYSTEM.CONST>
0

>  <SCORE.SYSTEM.DIHEDRAL>
0

>  <SCORE.SYSTEM.SOLV>
0

>  <SCORE.SYSTEM.norm>
0

>  <SCORE.heavy>
22

>  <SCORE.norm>
-0.26304

>  <RMSD>
4.891

$$$$
ligand
 OpenBabel11021811513D
libRbt.so/2013.1/901 2013/11/27
 22 23  0  0  0  0  0  0  0  0999 V2000
  -30.8428    3.0030   -9.7719 N   0  0  0  0  0  0  0  0  0  0  0  0
  -28.4916    1.6454  -11.7921 C   0  0  1  0  0  0  0  0  0  0  0  0
  -28.7852    2.2651  -10.5077 O   0  0  0  0  0  0  0  0  0  0  0  0
  -28.0793    2.9690  -15.3185 P   0  0  1  0  0  0  0  0  0  0  0  0
  -30.1164    1.8843  -10.1240 C   0  0  2  0  0  0  0  0  0  0  0  0
  -31.3996    5.0801   -9.4774 N   0  0  0  0  0  0  0  0  0  0  0  0
  -31.7994    0.4635  -11.0431 O   0  0  0  0  0  0  0  0  0  0  0  0
  -30.7301    1.3606  -11.3649 C   0  0  2  0  0  0  0  0  0  0  0  0
  -33.8146    6.0987   -8.0769 N   0  0  0  0  0  0  0  0  0  0  0  0
  -29.2891   -0.5281  -11.4258 O   0  0  0  0  0  0  0  0  0  0  0  0
  -29.6166    0.7218  -12.0558 C   0  0  2  0  0  0  0  0  0  0  0  0
  -32.4355    4.3120   -9.1066 C   0  0  0  0  0  0  0  0  0  0  0  0
  -32.9109    1.8761   -9.0447 N   0  0  0  0  0  0  0  0  0  0  0  0
  -28.1696    2.1060  -14.0126 O   0  0  0  0  0  0  0  0  0  0  0  0
  -28.4340    2.7387  -12.8028 C   0  0  0  0  0  0  0  0  0  0  0  0
  -29.5402    3.5249  -15.4833 O   0  0  0  0  0  0  0  0  0  0  0  0
  -30.4090    4.2638   -9.8847 C   0  0  0  0  0  0  0  0  0  0  0  0
  -34.7158    4.0685   -8.5791 O   0  0  0  0  0  0  0  0  0  0  0  0
  -33.7256    4.7996   -8.5845 C   0  0  0  0  0  0  0  0  0  0  0  0
  -32.0936    3.0028   -9.2920 C   0  0  0  0  0  0  0  0  0  0  0  0
  -27.0312    4.0191  -15.1552 O   0  5  0  0  0  0  0  0  0  0  0  0
  -27.5302    2.1751  -16.4324 O   0  0  0  0  0  0  0  0  0  0  0  0
  1 17  1  0  0  0  0
  1 20  1  0  0  0  0
  2 15  1  6  0  0  0
  2  3  1  0  0  0  0
  2 11  1  0  0  0  0
  3  5  1  0  0  0  0
  4 16  1  6  0  0  0
  4 21  1  0  0  0  0
  4 22  2  0  0  0  0
  4 14  1  0  0  0  0
  5  1  1  6  0  0  0
  5  8  1  0  0  0  0
  6 17  2  0  0  0  0
  6 12  1  0  0  0  0
  8  7  1  1  0  0  0
  8 11  1  0  0  0  0
  9 19  1  0  0  0  0
 11 10  1  1  0  0  0
 12 20  2  0  0  0  0
 12 19  1  0  0  0  0
 13 20  1  0  0  0  0
 14 15  1  0  0  0  0
 18 19  2  0  0  0  0
M  CHG  1  21  -1
M  END
>  <CHROM.1>
5.45293230,-179.26927925,-65.18703417,178.38377676,-18.69122648,-30.25634594
2.77864976,-11.66279038,-3.01593358,0.88974223,-0.38755333

>  <Name>
ligand

>  <RI>
0

>  <Rbt.Current_Directory>
/home/itssahil/PROJECTS/Mol_Feturizer/New_Systems/rnas/4XWF

>  <Rbt.Executable>
rbdock ($Id: //depot/dev/client3/rdock/2013.1/src/exe/rbdock.cxx#4 $)

>  <Rbt.Library>
libRbt.so (2013.1, Build901 2013/11/27)

>  <Rbt.Parameter_File>
/export/apps/rDock/src/rDock_2013.1_src/data/scripts/dock_solv.prm

>  <Rbt.Receptor>
prm/pocket_docking_4.prm

>  <SCORE>
-7.04164

>  <SCORE.INTER>
-7.21702

>  <SCORE.INTER.CONST>
1

>  <SCORE.INTER.POLAR>
0

>  <SCORE.INTER.ROT>
5

>  <SCORE.INTER.SOLV>
14.0218

>  <SCORE.INTER.VDW>
-16.4186

>  <SCORE.INTER.norm>
-0.328046

>  <SCORE.INTRA>
0.17538

>  <SCORE.INTRA.DIHEDRAL>
-1.55697

>  <SCORE.INTRA.DIHEDRAL.0>
3.49807

>  <SCORE.INTRA.POLAR>
0

>  <SCORE.INTRA.POLAR.0>
0

>  <SCORE.INTRA.REPUL>
0

>  <SCORE.INTRA.REPUL.0>
0

>  <SCORE.INTRA.SOLV>
1.03416

>  <SCORE.INTRA.SOLV.lig_0>
-73.062

>  <SCORE.INTRA.VDW>
0.436786

>  <SCORE.INTRA.VDW.0>
-1.83782

>  <SCORE.INTRA.norm>
0.00797181

>  <SCORE.RESTR>
0

>  <SCORE.RESTR.CAVITY>
0

>  <SCORE.RESTR.norm>
0

>  <SCORE.SYSTEM>
0

>  <SCORE.SYSTEM.CONST>
0

>  <SCORE.SYSTEM.DIHEDRAL>
0

>  <SCORE.SYSTEM.SOLV>
0

>  <SCORE.SYSTEM.norm>
0

>  <SCORE.heavy>
22

>  <SCORE.norm>
-0.320075

>  <RMSD>
4.992

$$$$
ligand
 OpenBabel11021811513D
libRbt.so/2013.1/901 2013/11/27
 22 23  0  0  0  0  0  0  0  0999 V2000
  -30.9021    2.9823   -9.7399 N   0  0  0  0  0  0  0  0  0  0  0  0
  -28.5171    1.6476  -11.7357 C   0  0  1  0  0  0  0  0  0  0  0  0
  -28.8314    2.2569  -10.4512 O   0  0  0  0  0  0  0  0  0  0  0  0
  -28.1242    2.9921  -15.2561 P   0  0  1  0  0  0  0  0  0  0  0  0
  -30.1666    1.8687  -10.0895 C   0  0  2  0  0  0  0  0  0  0  0  0
  -31.4844    5.0556   -9.4690 N   0  0  0  0  0  0  0  0  0  0  0  0
  -31.8311    0.4488  -11.0430 O   0  0  0  0  0  0  0  0  0  0  0  0
  -30.7605    1.3519  -11.3429 C   0  0  2  0  0  0  0  0  0  0  0  0
  -33.9224    6.0998   -8.1593 N   0  0  0  0  0  0  0  0  0  0  0  0
  -29.3120   -0.5313  -11.3966 O   0  0  0  0  0  0  0  0  0  0  0  0
  -29.6349    0.7220  -12.0222 C   0  0  2  0  0  0  0  0  0  0  0  0
  -32.4990    4.2785   -9.0597 C   0  0  0  0  0  0  0  0  0  0  0  0
  -32.9341    1.8371   -8.9431 N   0  0  0  0  0  0  0  0  0  0  0  0
  -28.1982    2.1221  -13.9536 O   0  0  0  0  0  0  0  0  0  0  0  0
  -28.4489    2.7483  -12.7376 C   0  0  0  0  0  0  0  0  0  0  0  0
  -29.5926    3.5305  -15.4121 O   0  0  0  0  0  0  0  0  0  0  0  0
  -30.4910    4.2474   -9.8855 C   0  0  0  0  0  0  0  0  0  0  0  0
  -34.7253    3.9783   -8.3594 O   0  0  0  0  0  0  0  0  0  0  0  0
  -33.7838    4.7556   -8.5154 C   0  0  0  0  0  0  0  0  0  0  0  0
  -32.1409    2.9716   -9.2300 C   0  0  0  0  0  0  0  0  0  0  0  0
  -27.0885    4.0544  -15.0925 O   0  5  0  0  0  0  0  0  0  0  0  0
  -27.5701    2.2099  -16.3758 O   0  0  0  0  0  0  0  0  0  0  0  0
  1 17  1  0  0  0  0
  1 20  1  0  0  0  0
  2 15  1  6  0  0  0
  2  3  1  0  0  0  0
  2 11  1  0  0  0  0
  3  5  1  0  0  0  0
  4 16  1  6  0  0  0
  4 21  1  0  0  0  0
  4 22  2  0  0  0  0
  4 14  1  0  0  0  0
  5  1  1  6  0  0  0
  5  8  1  0  0  0  0
  6 17  2  0  0  0  0
  6 12  1  0  0  0  0
  8  7  1  1  0  0  0
  8 11  1  0  0  0  0
  9 19  1  0  0  0  0
 11 10  1  1  0  0  0
 12 20  2  0  0  0  0
 12 19  1  0  0  0  0
 13 20  1  0  0  0  0
 14 15  1  0  0  0  0
 18 19  2  0  0  0  0
M  CHG  1  21  -1
M  END
>  <CHROM.1>
8.17210385,-177.81667308,-65.97109673,177.42427126,-12.01122534,-30.30103724
2.77107591,-11.61234681,-3.00417238,0.88501900,-0.39366994

>  <Name>
ligand

>  <RI>
0

>  <Rbt.Current_Directory>
/home/itssahil/PROJECTS/Mol_Feturizer/New_Systems/rnas/4XWF

>  <Rbt.Executable>
rbdock ($Id: //depot/dev/client3/rdock/2013.1/src/exe/rbdock.cxx#4 $)

>  <Rbt.Library>
libRbt.so (2013.1, Build901 2013/11/27)

>  <Rbt.Parameter_File>
/export/apps/rDock/src/rDock_2013.1_src/data/scripts/dock_solv.prm

>  <Rbt.Receptor>
prm/pocket_docking_4.prm

>  <SCORE>
-7.03583

>  <SCORE.INTER>
-7.0301

>  <SCORE.INTER.CONST>
1

>  <SCORE.INTER.POLAR>
0

>  <SCORE.INTER.ROT>
5

>  <SCORE.INTER.SOLV>
14.1256

>  <SCORE.INTER.VDW>
-16.3286

>  <SCORE.INTER.norm>
-0.31955

>  <SCORE.INTRA>
-0.00573491

>  <SCORE.INTRA.DIHEDRAL>
-1.71067

>  <SCORE.INTRA.DIHEDRAL.0>
3.49807

>  <SCORE.INTRA.POLAR>
0

>  <SCORE.INTRA.POLAR.0>
0

>  <SCORE.INTRA.REPUL>
0

>  <SCORE.INTRA.REPUL.0>
0

>  <SCORE.INTRA.SOLV>
0.96688

>  <SCORE.INTRA.SOLV.lig_0>
-73.062

>  <SCORE.INTRA.VDW>
0.366158

>  <SCORE.INTRA.VDW.0>
-1.83782

>  <SCORE.INTRA.norm>
-0.000260678

>  <SCORE.RESTR>
0

>  <SCORE.RESTR.CAVITY>
0

>  <SCORE.RESTR.norm>
0

>  <SCORE.SYSTEM>
0

>  <SCORE.SYSTEM.CONST>
0

>  <SCORE.SYSTEM.DIHEDRAL>
0

>  <SCORE.SYSTEM.SOLV>
0

>  <SCORE.SYSTEM.norm>
0

>  <SCORE.heavy>
22

>  <SCORE.norm>
-0.319811

>  <RMSD>
4.992

$$$$
ligand
 OpenBabel11021811513D
libRbt.so/2013.1/901 2013/11/27
 22 23  0  0  0  0  0  0  0  0999 V2000
  -30.8985    3.0889   -9.6571 N   0  0  0  0  0  0  0  0  0  0  0  0
  -28.5401    1.6653  -11.6227 C   0  0  1  0  0  0  0  0  0  0  0  0
  -28.8416    2.3116  -10.3534 O   0  0  0  0  0  0  0  0  0  0  0  0
  -28.0322    2.9229  -15.1608 P   0  0  1  0  0  0  0  0  0  0  0  0
  -30.1824    1.9548   -9.9800 C   0  0  2  0  0  0  0  0  0  0  0  0
  -31.4384    5.1779   -9.4213 N   0  0  0  0  0  0  0  0  0  0  0  0
  -31.8722    0.5396  -10.8952 O   0  0  0  0  0  0  0  0  0  0  0  0
  -30.7873    1.4169  -11.2192 C   0  0  2  0  0  0  0  0  0  0  0  0
  -33.8706    6.2891   -8.1537 N   0  0  0  0  0  0  0  0  0  0  0  0
  -29.3704   -0.4909  -11.2282 O   0  0  0  0  0  0  0  0  0  0  0  0
  -29.6737    0.7516  -11.8843 C   0  0  2  0  0  0  0  0  0  0  0  0
  -32.4776    4.4289   -9.0217 C   0  0  0  0  0  0  0  0  0  0  0  0
  -32.9703    1.9995   -8.8847 N   0  0  0  0  0  0  0  0  0  0  0  0
  -28.2176    2.0791  -13.8523 O   0  0  0  0  0  0  0  0  0  0  0  0
  -28.4556    2.7395  -12.6519 C   0  0  0  0  0  0  0  0  0  0  0  0
  -27.8965    1.8265  -16.2788 O   0  0  0  0  0  0  0  0  0  0  0  0
  -30.4562    4.3425   -9.8099 C   0  0  0  0  0  0  0  0  0  0  0  0
  -34.7269    4.1904   -8.3728 O   0  0  0  0  0  0  0  0  0  0  0  0
  -33.7609    4.9414   -8.5069 C   0  0  0  0  0  0  0  0  0  0  0  0
  -32.1463    3.1123   -9.1701 C   0  0  0  0  0  0  0  0  0  0  0  0
  -29.1939    3.8440  -15.3334 O   0  5  0  0  0  0  0  0  0  0  0  0
  -26.9185    3.8773  -15.0135 O   0  0  0  0  0  0  0  0  0  0  0  0
  1 17  1  0  0  0  0
  1 20  1  0  0  0  0
  2 15  1  6  0  0  0
  2  3  1  0  0  0  0
  2 11  1  0  0  0  0
  3  5  1  0  0  0  0
  4 16  1  6  0  0  0
  4 21  1  0  0  0  0
  4 22  2  0  0  0  0
  4 14  1  0  0  0  0
  5  1  1  6  0  0  0
  5  8  1  0  0  0  0
  6 17  2  0  0  0  0
  6 12  1  0  0  0  0
  8  7  1  1  0  0  0
  8 11  1  0  0  0  0
  9 19  1  0  0  0  0
 11 10  1  1  0  0  0
 12 20  2  0  0  0  0
 12 19  1  0  0  0  0
 13 20  1  0  0  0  0
 14 15  1  0  0  0  0
 18 19  2  0  0  0  0
M  CHG  1  21  -1
M  END
>  <CHROM.1>
6.75653700,-177.82383804,-175.98295191,-178.35517083,-12.79143083,-30.28588851
2.82287044,-11.52888142,-3.05816450,0.88827671,-0.36409900

>  <Name>
ligand

>  <RI>
0

>  <Rbt.Current_Directory>
/home/itssahil/PROJECTS/Mol_Feturizer/New_Systems/rnas/4XWF

>  <Rbt.Executable>
rbdock ($Id: //depot/dev/client3/rdock/2013.1/src/exe/rbdock.cxx#4 $)

>  <Rbt.Library>
libRbt.so (2013.1, Build901 2013/11/27)

>  <Rbt.Parameter_File>
/export/apps/rDock/src/rDock_2013.1_src/data/scripts/dock_solv.prm

>  <Rbt.Receptor>
prm/pocket_docking_5.prm

>  <SCORE>
-6.63415

>  <SCORE.INTER>
-7.01041

>  <SCORE.INTER.CONST>
1

>  <SCORE.INTER.POLAR>
0

>  <SCORE.INTER.ROT>
5

>  <SCORE.INTER.SOLV>
14.996

>  <SCORE.INTER.VDW>
-16.6056

>  <SCORE.INTER.norm>
-0.318655

>  <SCORE.INTRA>
0.376266

>  <SCORE.INTRA.DIHEDRAL>
-1.7784

>  <SCORE.INTRA.DIHEDRAL.0>
3.49807

>  <SCORE.INTRA.POLAR>
0

>  <SCORE.INTRA.POLAR.0>
0

>  <SCORE.INTRA.REPUL>
0

>  <SCORE.INTRA.REPUL.0>
0

>  <SCORE.INTRA.SOLV>
1.64538

>  <SCORE.INTRA.SOLV.lig_0>
-73.062

>  <SCORE.INTRA.VDW>
0.442776

>  <SCORE.INTRA.VDW.0>
-1.83782

>  <SCORE.INTRA.norm>
0.017103

>  <SCORE.RESTR>
0

>  <SCORE.RESTR.CAVITY>
0

>  <SCORE.RESTR.norm>
0

>  <SCORE.SYSTEM>
0

>  <SCORE.SYSTEM.CONST>
0

>  <SCORE.SYSTEM.DIHEDRAL>
0

>  <SCORE.SYSTEM.SOLV>
0

>  <SCORE.SYSTEM.norm>
0

>  <SCORE.heavy>
22

>  <SCORE.norm>
-0.301552

>  <RMSD>
5.003

$$$$
ligand
 OpenBabel11021811513D
libRbt.so/2013.1/901 2013/11/27
 22 23  0  0  0  0  0  0  0  0999 V2000
  -32.1851    4.1655   -8.6850 N   0  0  0  0  0  0  0  0  0  0  0  0
  -29.5820    2.3933   -9.9243 C   0  0  1  0  0  0  0  0  0  0  0  0
  -30.1804    3.0274   -8.7581 O   0  0  0  0  0  0  0  0  0  0  0  0
  -27.4413    3.6614  -12.7792 P   0  0  1  0  0  0  0  0  0  0  0  0
  -31.6084    2.9277   -8.8813 C   0  0  2  0  0  0  0  0  0  0  0  0
  -32.4869    6.3149   -8.6986 N   0  0  0  0  0  0  0  0  0  0  0  0
  -33.1041    1.9210  -10.4450 O   0  0  0  0  0  0  0  0  0  0  0  0
  -31.8399    2.5788  -10.3009 C   0  0  2  0  0  0  0  0  0  0  0  0
  -34.8035    7.8496   -7.7117 N   0  0  0  0  0  0  0  0  0  0  0  0
  -30.8548    0.4297  -10.0604 O   0  0  0  0  0  0  0  0  0  0  0  0
  -30.6988    1.7366  -10.6382 C   0  0  2  0  0  0  0  0  0  0  0  0
  -33.5850    5.7408   -8.1835 C   0  0  0  0  0  0  0  0  0  0  0  0
  -34.3316    3.4165   -7.7326 N   0  0  0  0  0  0  0  0  0  0  0  0
  -28.3132    2.8220  -11.7823 O   0  0  0  0  0  0  0  0  0  0  0  0
  -28.9699    3.4755  -10.7454 C   0  0  0  0  0  0  0  0  0  0  0  0
  -28.4639    4.7040  -13.3603 O   0  0  0  0  0  0  0  0  0  0  0  0
  -31.6162    5.3340   -9.0037 C   0  0  0  0  0  0  0  0  0  0  0  0
  -35.7599    5.8267   -7.2893 O   0  0  0  0  0  0  0  0  0  0  0  0
  -34.7850    6.4523   -7.7055 C   0  0  0  0  0  0  0  0  0  0  0  0
  -33.4037    4.3872   -8.1746 C   0  0  0  0  0  0  0  0  0  0  0  0
  -26.2867    4.2652  -12.0510 O   0  5  0  0  0  0  0  0  0  0  0  0
  -26.7550    2.7812  -13.7419 O   0  0  0  0  0  0  0  0  0  0  0  0
  1 17  1  0  0  0  0
  1 20  1  0  0  0  0
  2 15  1  6  0  0  0
  2  3  1  0  0  0  0
  2 11  1  0  0  0  0
  3  5  1  0  0  0  0
  4 16  1  6  0  0  0
  4 21  1  0  0  0  0
  4 22  2  0  0  0  0
  4 14  1  0  0  0  0
  5  1  1  6  0  0  0
  5  8  1  0  0  0  0
  6 17  2  0  0  0  0
  6 12  1  0  0  0  0
  8  7  1  1  0  0  0
  8 11  1  0  0  0  0
  9 19  1  0  0  0  0
 11 10  1  1  0  0  0
 12 20  2  0  0  0  0
 12 19  1  0  0  0  0
 13 20  1  0  0  0  0
 14 15  1  0  0  0  0
 18 19  2  0  0  0  0
M  CHG  1  21  -1
M  END
>  <CHROM.1>
31.46544410,175.00538984,-57.76790194,-174.57678678,-3.20467840,-30.92528770
3.85195902,-10.08900867,2.86838576,0.60029384,0.01049303

>  <Name>
ligand

>  <RI>
0

>  <Rbt.Current_Directory>
/home/itssahil/PROJECTS/Mol_Feturizer/New_Systems/rnas/4XWF

>  <Rbt.Executable>
rbdock ($Id: //depot/dev/client3/rdock/2013.1/src/exe/rbdock.cxx#4 $)

>  <Rbt.Library>
libRbt.so (2013.1, Build901 2013/11/27)

>  <Rbt.Parameter_File>
/export/apps/rDock/src/rDock_2013.1_src/data/scripts/dock_solv.prm

>  <Rbt.Receptor>
prm/pocket_docking_8.prm

>  <SCORE>
-6.5993

>  <SCORE.INTER>
-5.69371

>  <SCORE.INTER.CONST>
1

>  <SCORE.INTER.POLAR>
0

>  <SCORE.INTER.ROT>
5

>  <SCORE.INTER.SOLV>
14.3865

>  <SCORE.INTER.VDW>
-15.5246

>  <SCORE.INTER.norm>
-0.258805

>  <SCORE.INTRA>
-0.905598

>  <SCORE.INTRA.DIHEDRAL>
-1.78535

>  <SCORE.INTRA.DIHEDRAL.0>
3.49807

>  <SCORE.INTRA.POLAR>
0

>  <SCORE.INTRA.POLAR.0>
0

>  <SCORE.INTRA.REPUL>
0

>  <SCORE.INTRA.REPUL.0>
0

>  <SCORE.INTRA.SOLV>
-0.00912778

>  <SCORE.INTRA.SOLV.lig_0>
-73.062

>  <SCORE.INTRA.VDW>
-0.00835676

>  <SCORE.INTRA.VDW.0>
-1.83782

>  <SCORE.INTRA.norm>
-0.0411635

>  <SCORE.RESTR>
0

>  <SCORE.RESTR.CAVITY>
0

>  <SCORE.RESTR.norm>
0

>  <SCORE.SYSTEM>
0

>  <SCORE.SYSTEM.CONST>
0

>  <SCORE.SYSTEM.DIHEDRAL>
0

>  <SCORE.SYSTEM.SOLV>
0

>  <SCORE.SYSTEM.norm>
0

>  <SCORE.heavy>
22

>  <SCORE.norm>
-0.299968

>  <RMSD>
5.053

$$$$
ligand
 OpenBabel11021811513D
libRbt.so/2013.1/901 2013/11/27
 22 23  0  0  0  0  0  0  0  0999 V2000
  -30.3031    1.7153  -11.3326 N   0  0  0  0  0  0  0  0  0  0  0  0
  -28.0699    2.4245  -13.7744 C   0  0  1  0  0  0  0  0  0  0  0  0
  -28.6791    2.8433  -12.5200 O   0  0  0  0  0  0  0  0  0  0  0  0
  -29.9511    4.8059  -16.0382 P   0  0  1  0  0  0  0  0  0  0  0  0
  -28.9932    1.6636  -11.7624 C   0  0  2  0  0  0  0  0  0  0  0  0
  -32.3992    1.2158  -11.0720 N   0  0  0  0  0  0  0  0  0  0  0  0
  -28.6585   -0.6798  -12.0665 O   0  0  0  0  0  0  0  0  0  0  0  0
  -28.9179    0.5565  -12.7419 C   0  0  2  0  0  0  0  0  0  0  0  0
  -32.8178    3.0334   -8.0337 N   0  0  0  0  0  0  0  0  0  0  0  0
  -26.5689    0.7931  -13.0128 O   0  0  0  0  0  0  0  0  0  0  0  0
  -27.8487    0.9677  -13.6435 C   0  0  2  0  0  0  0  0  0  0  0  0
  -32.1184    2.2674  -10.2873 C   0  0  0  0  0  0  0  0  0  0  0  0
  -30.0982    3.6179   -9.7790 N   0  0  0  0  0  0  0  0  0  0  0  0
  -29.1193    4.1218  -14.8986 O   0  0  0  0  0  0  0  0  0  0  0  0
  -29.0436    2.7339  -14.8589 C   0  0  0  0  0  0  0  0  0  0  0  0
  -29.8733    6.3326  -15.6725 O   0  0  0  0  0  0  0  0  0  0  0  0
  -31.2708    0.8786  -11.7251 C   0  0  0  0  0  0  0  0  0  0  0  0
  -34.0980    3.4680   -9.8662 O   0  0  0  0  0  0  0  0  0  0  0  0
  -33.0739    2.9636   -9.4058 C   0  0  0  0  0  0  0  0  0  0  0  0
  -30.7995    2.5859  -10.4436 C   0  0  0  0  0  0  0  0  0  0  0  0
  -29.3665    4.4559  -17.3662 O   0  5  0  0  0  0  0  0  0  0  0  0
  -31.2929    4.2041  -16.1388 O   0  0  0  0  0  0  0  0  0  0  0  0
  1 17  1  0  0  0  0
  1 20  1  0  0  0  0
  2 15  1  6  0  0  0
  2  3  1  0  0  0  0
  2 11  1  0  0  0  0
  3  5  1  0  0  0  0
  4 16  1  1  0  0  0
  4 21  1  0  0  0  0
  4 22  2  0  0  0  0
  4 14  1  0  0  0  0
  5  1  1  6  0  0  0
  5  8  1  0  0  0  0
  6 17  2  0  0  0  0
  6 12  1  0  0  0  0
  8  7  1  1  0  0  0
  8 11  1  0  0  0  0
  9 19  1  0  0  0  0
 11 10  1  1  0  0  0
 12 20  2  0  0  0  0
 12 19  1  0  0  0  0
 13 20  1  0  0  0  0
 14 15  1  0  0  0  0
 18 19  2  0  0  0  0
M  CHG  1  21  -1
M  END
>  <CHROM.1>
114.66062828,66.83204397,176.05225246,173.68640581,121.04761218,-30.10078381
2.75729950,-12.85728018,-2.07070213,0.63853279,-0.94545843

>  <Name>
ligand

>  <RI>
0

>  <Rbt.Current_Directory>
/home/itssahil/PROJECTS/Mol_Feturizer/New_Systems/rnas/4XWF

>  <Rbt.Executable>
rbdock ($Id: //depot/dev/client3/rdock/2013.1/src/exe/rbdock.cxx#4 $)

>  <Rbt.Library>
libRbt.so (2013.1, Build901 2013/11/27)

>  <Rbt.Parameter_File>
/export/apps/rDock/src/rDock_2013.1_src/data/scripts/dock_solv.prm

>  <Rbt.Receptor>
prm/pocket_docking_5.prm

>  <SCORE>
-8.73424

>  <SCORE.INTER>
-10.1561

>  <SCORE.INTER.CONST>
1

>  <SCORE.INTER.POLAR>
0

>  <SCORE.INTER.ROT>
5

>  <SCORE.INTER.SOLV>
17.7093

>  <SCORE.INTER.VDW>
-19.6071

>  <SCORE.INTER.norm>
-0.461639

>  <SCORE.INTRA>
1.42181

>  <SCORE.INTRA.DIHEDRAL>
-1.54895

>  <SCORE.INTRA.DIHEDRAL.0>
3.49807

>  <SCORE.INTRA.POLAR>
0

>  <SCORE.INTRA.POLAR.0>
0

>  <SCORE.INTRA.REPUL>
0

>  <SCORE.INTRA.REPUL.0>
0

>  <SCORE.INTRA.SOLV>
0.0401058

>  <SCORE.INTRA.SOLV.lig_0>
-73.062

>  <SCORE.INTRA.VDW>
2.17623

>  <SCORE.INTRA.VDW.0>
-1.83782

>  <SCORE.INTRA.norm>
0.0646276

>  <SCORE.RESTR>
0

>  <SCORE.RESTR.CAVITY>
0

>  <SCORE.RESTR.norm>
0

>  <SCORE.SYSTEM>
0

>  <SCORE.SYSTEM.CONST>
0

>  <SCORE.SYSTEM.DIHEDRAL>
0

>  <SCORE.SYSTEM.SOLV>
0

>  <SCORE.SYSTEM.norm>
0

>  <SCORE.heavy>
22

>  <SCORE.norm>
-0.397011

>  <RMSD>
5.106

$$$$
ligand
 OpenBabel11021811513D
libRbt.so/2013.1/901 2013/11/27
 22 23  0  0  0  0  0  0  0  0999 V2000
  -30.7894    3.0633   -9.7041 N   0  0  0  0  0  0  0  0  0  0  0  0
  -28.5659    1.6156  -11.8049 C   0  0  1  0  0  0  0  0  0  0  0  0
  -28.7869    2.2573  -10.5168 O   0  0  0  0  0  0  0  0  0  0  0  0
  -28.2681    2.8889  -15.3613 P   0  0  1  0  0  0  0  0  0  0  0  0
  -30.1112    1.9200  -10.0731 C   0  0  2  0  0  0  0  0  0  0  0  0
  -31.2965    5.1590   -9.4550 N   0  0  0  0  0  0  0  0  0  0  0  0
  -31.8721    0.5398  -10.9039 O   0  0  0  0  0  0  0  0  0  0  0  0
  -30.7917    1.4014  -11.2809 C   0  0  2  0  0  0  0  0  0  0  0  0
  -33.7280    4.7753   -6.9516 N   0  0  0  0  0  0  0  0  0  0  0  0
  -29.4100   -0.5295  -11.3797 O   0  0  0  0  0  0  0  0  0  0  0  0
  -29.7274    0.7228  -12.0102 C   0  0  2  0  0  0  0  0  0  0  0  0
  -32.2966    4.4226   -8.9468 C   0  0  0  0  0  0  0  0  0  0  0  0
  -32.7839    1.9987   -8.7222 N   0  0  0  0  0  0  0  0  0  0  0  0
  -28.3303    2.0424  -14.0428 O   0  0  0  0  0  0  0  0  0  0  0  0
  -28.5195    2.6959  -12.8300 C   0  0  0  0  0  0  0  0  0  0  0  0
  -28.1786    1.7949  -16.4863 O   0  0  0  0  0  0  0  0  0  0  0  0
  -30.3584    4.3117   -9.9194 C   0  0  0  0  0  0  0  0  0  0  0  0
  -34.3724    5.5295   -9.0013 O   0  0  0  0  0  0  0  0  0  0  0  0
  -33.5239    4.9509   -8.3229 C   0  0  0  0  0  0  0  0  0  0  0  0
  -31.9859    3.1018   -9.1028 C   0  0  0  0  0  0  0  0  0  0  0  0
  -29.4686    3.7714  -15.4488 O   0  5  0  0  0  0  0  0  0  0  0  0
  -27.1782    3.8791  -15.2953 O   0  0  0  0  0  0  0  0  0  0  0  0
  1 17  1  0  0  0  0
  1 20  1  0  0  0  0
  2 15  1  6  0  0  0
  2  3  1  0  0  0  0
  2 11  1  0  0  0  0
  3  5  1  0  0  0  0
  4 16  1  6  0  0  0
  4 21  1  0  0  0  0
  4 22  2  0  0  0  0
  4 14  1  0  0  0  0
  5  1  1  6  0  0  0
  5  8  1  0  0  0  0
  6 17  2  0  0  0  0
  6 12  1  0  0  0  0
  8  7  1  1  0  0  0
  8 11  1  0  0  0  0
  9 19  1  0  0  0  0
 11 10  1  1  0  0  0
 12 20  2  0  0  0  0
 12 19  1  0  0  0  0
 13 20  1  0  0  0  0
 14 15  1  0  0  0  0
 18 19  2  0  0  0  0
M  CHG  1  21  -1
M  END
>  <CHROM.1>
9.48967834,-179.03287207,-175.13774130,178.54223415,-111.77968086,-30.28914448
2.79879598,-11.59605324,-2.94766992,0.94727832,-0.48209806

>  <Name>
ligand

>  <RI>
0

>  <Rbt.Current_Directory>
/home/itssahil/PROJECTS/Mol_Feturizer/New_Systems/rnas/4XWF

>  <Rbt.Executable>
rbdock ($Id: //depot/dev/client3/rdock/2013.1/src/exe/rbdock.cxx#4 $)

>  <Rbt.Library>
libRbt.so (2013.1, Build901 2013/11/27)

>  <Rbt.Parameter_File>
/export/apps/rDock/src/rDock_2013.1_src/data/scripts/dock_solv.prm

>  <Rbt.Receptor>
prm/pocket_docking_5.prm

>  <SCORE>
-6.06317

>  <SCORE.INTER>
-6.07111

>  <SCORE.INTER.CONST>
1

>  <SCORE.INTER.POLAR>
0

>  <SCORE.INTER.ROT>
5

>  <SCORE.INTER.SOLV>
13.7277

>  <SCORE.INTER.VDW>
-15.5566

>  <SCORE.INTER.norm>
-0.27596

>  <SCORE.INTRA>
0.00794683

>  <SCORE.INTRA.DIHEDRAL>
-1.87563

>  <SCORE.INTRA.DIHEDRAL.0>
3.49807

>  <SCORE.INTRA.POLAR>
0

>  <SCORE.INTRA.POLAR.0>
0

>  <SCORE.INTRA.REPUL>
0

>  <SCORE.INTRA.REPUL.0>
0

>  <SCORE.INTRA.SOLV>
1.61315

>  <SCORE.INTRA.SOLV.lig_0>
-73.062

>  <SCORE.INTRA.VDW>
0.139185

>  <SCORE.INTRA.VDW.0>
-1.83782

>  <SCORE.INTRA.norm>
0.00036122

>  <SCORE.RESTR>
0

>  <SCORE.RESTR.CAVITY>
0

>  <SCORE.RESTR.norm>
0

>  <SCORE.SYSTEM>
0

>  <SCORE.SYSTEM.CONST>
0

>  <SCORE.SYSTEM.DIHEDRAL>
0

>  <SCORE.SYSTEM.SOLV>
0

>  <SCORE.SYSTEM.norm>
0

>  <SCORE.heavy>
22

>  <SCORE.norm>
-0.275599

>  <RMSD>
5.118

$$$$
ligand
 OpenBabel11021811513D
libRbt.so/2013.1/901 2013/11/27
 22 23  0  0  0  0  0  0  0  0999 V2000
  -30.2903    1.8168  -10.9423 N   0  0  0  0  0  0  0  0  0  0  0  0
  -27.7106    2.3378  -13.0697 C   0  0  1  0  0  0  0  0  0  0  0  0
  -28.3516    2.7095  -11.8164 O   0  0  0  0  0  0  0  0  0  0  0  0
  -28.1504    3.4258  -16.6582 P   0  0  1  0  0  0  0  0  0  0  0  0
  -28.9806    1.5373  -11.2737 C   0  0  2  0  0  0  0  0  0  0  0  0
  -32.4394    1.6119  -10.7176 N   0  0  0  0  0  0  0  0  0  0  0  0
  -29.1038   -0.7610  -11.9052 O   0  0  0  0  0  0  0  0  0  0  0  0
  -29.0298    0.5805  -12.4020 C   0  0  2  0  0  0  0  0  0  0  0  0
  -34.3458    3.5942   -9.6265 N   0  0  0  0  0  0  0  0  0  0  0  0
  -26.6670    0.3314  -12.4535 O   0  0  0  0  0  0  0  0  0  0  0  0
  -27.8086    0.8638  -13.1461 C   0  0  2  0  0  0  0  0  0  0  0  0
  -32.0650    2.7616  -10.1357 C   0  0  0  0  0  0  0  0  0  0  0  0
  -29.9188    3.9568   -9.7769 N   0  0  0  0  0  0  0  0  0  0  0  0
  -27.8071    2.6563  -15.3359 O   0  0  0  0  0  0  0  0  0  0  0  0
  -28.4781    2.9938  -14.1655 C   0  0  0  0  0  0  0  0  0  0  0  0
  -27.8798    2.3555  -17.7770 O   0  0  0  0  0  0  0  0  0  0  0  0
  -31.3354    1.0298  -11.2234 C   0  0  0  0  0  0  0  0  0  0  0  0
  -32.5051    4.6340   -8.7800 O   0  0  0  0  0  0  0  0  0  0  0  0
  -32.9633    3.7198   -9.4652 C   0  0  0  0  0  0  0  0  0  0  0  0
  -30.7126    2.8961  -10.2704 C   0  0  0  0  0  0  0  0  0  0  0  0
  -29.5575    3.9204  -16.6008 O   0  5  0  0  0  0  0  0  0  0  0  0
  -27.3965    4.6899  -16.7377 O   0  0  0  0  0  0  0  0  0  0  0  0
  1 17  1  0  0  0  0
  1 20  1  0  0  0  0
  2 15  1  6  0  0  0
  2  3  1  0  0  0  0
  2 11  1  0  0  0  0
  3  5  1  0  0  0  0
  4 16  1  6  0  0  0
  4 21  1  0  0  0  0
  4 22  2  0  0  0  0
  4 14  1  0  0  0  0
  5  1  1  6  0  0  0
  5  8  1  0  0  0  0
  6 17  2  0  0  0  0
  6 12  1  0  0  0  0
  8  7  1  1  0  0  0
  8 11  1  0  0  0  0
  9 19  1  0  0  0  0
 11 10  1  1  0  0  0
 12 20  2  0  0  0  0
 12 19  1  0  0  0  0
 13 20  1  0  0  0  0
 14 15  1  0  0  0  0
 18 19  2  0  0  0  0
M  CHG  1  21  -1
M  END
>  <CHROM.1>
135.22144281,177.83639471,-149.90337600,-166.77480360,-12.46513617,-29.53935967
2.50565277,-12.80719158,-2.38885495,0.72592841,-0.94602910

>  <Name>
ligand

>  <RI>
0

>  <Rbt.Current_Directory>
/home/itssahil/PROJECTS/Mol_Feturizer/New_Systems/rnas/4XWF

>  <Rbt.Executable>
rbdock ($Id: //depot/dev/client3/rdock/2013.1/src/exe/rbdock.cxx#4 $)

>  <Rbt.Library>
libRbt.so (2013.1, Build901 2013/11/27)

>  <Rbt.Parameter_File>
/export/apps/rDock/src/rDock_2013.1_src/data/scripts/dock_solv.prm

>  <Rbt.Receptor>
prm/pocket_docking_7.prm

>  <SCORE>
-4.76907

>  <SCORE.INTER>
-7.35129

>  <SCORE.INTER.CONST>
1

>  <SCORE.INTER.POLAR>
0

>  <SCORE.INTER.ROT>
5

>  <SCORE.INTER.SOLV>
15.1662

>  <SCORE.INTER.VDW>
-16.8896

>  <SCORE.INTER.norm>
-0.33415

>  <SCORE.INTRA>
2.58223

>  <SCORE.INTRA.DIHEDRAL>
0.100271

>  <SCORE.INTRA.DIHEDRAL.0>
3.49807

>  <SCORE.INTRA.POLAR>
0

>  <SCORE.INTRA.POLAR.0>
0

>  <SCORE.INTRA.REPUL>
0

>  <SCORE.INTRA.REPUL.0>
0

>  <SCORE.INTRA.SOLV>
0.642462

>  <SCORE.INTRA.SOLV.lig_0>
-73.062

>  <SCORE.INTRA.VDW>
2.21086

>  <SCORE.INTRA.VDW.0>
-1.83782

>  <SCORE.INTRA.norm>
0.117374

>  <SCORE.RESTR>
0

>  <SCORE.RESTR.CAVITY>
0

>  <SCORE.RESTR.norm>
0

>  <SCORE.SYSTEM>
0

>  <SCORE.SYSTEM.CONST>
0

>  <SCORE.SYSTEM.DIHEDRAL>
0

>  <SCORE.SYSTEM.SOLV>
0

>  <SCORE.SYSTEM.norm>
0

>  <SCORE.heavy>
22

>  <SCORE.norm>
-0.216776

>  <RMSD>
5.123

$$$$
ligand
 OpenBabel11021811513D
libRbt.so/2013.1/901 2013/11/27
 22 23  0  0  0  0  0  0  0  0999 V2000
  -30.3845    1.7058  -11.1699 N   0  0  0  0  0  0  0  0  0  0  0  0
  -28.1158    2.1401  -13.6432 C   0  0  1  0  0  0  0  0  0  0  0  0
  -28.6900    2.6598  -12.4103 O   0  0  0  0  0  0  0  0  0  0  0  0
  -29.6327    4.4942  -16.1801 P   0  0  1  0  0  0  0  0  0  0  0  0
  -29.0829    1.5424  -11.5970 C   0  0  2  0  0  0  0  0  0  0  0  0
  -32.5169    1.3897  -10.9172 N   0  0  0  0  0  0  0  0  0  0  0  0
  -28.9132   -0.8304  -11.7885 O   0  0  0  0  0  0  0  0  0  0  0  0
  -29.0882    0.3872  -12.5223 C   0  0  2  0  0  0  0  0  0  0  0  0
  -33.0206    4.5766   -9.2944 N   0  0  0  0  0  0  0  0  0  0  0  0
  -26.7294    0.4463  -12.8045 O   0  0  0  0  0  0  0  0  0  0  0  0
  -27.9961    0.6793  -13.4427 C   0  0  2  0  0  0  0  0  0  0  0  0
  -32.1477    2.4083  -10.1256 C   0  0  0  0  0  0  0  0  0  0  0  0
  -30.0188    3.5746   -9.6047 N   0  0  0  0  0  0  0  0  0  0  0  0
  -28.9703    3.8401  -14.9183 O   0  0  0  0  0  0  0  0  0  0  0  0
  -29.0694    2.4644  -14.7412 C   0  0  0  0  0  0  0  0  0  0  0  0
  -31.1625    4.1950  -15.9782 O   0  0  0  0  0  0  0  0  0  0  0  0
  -31.4204    0.9590  -11.5696 C   0  0  0  0  0  0  0  0  0  0  0  0
  -33.7909    2.6057   -8.4528 O   0  0  0  0  0  0  0  0  0  0  0  0
  -33.0413    3.1802   -9.2423 C   0  0  0  0  0  0  0  0  0  0  0  0
  -30.8056    2.6114  -10.2770 C   0  0  0  0  0  0  0  0  0  0  0  0
  -29.2866    5.9451  -16.2339 O   0  5  0  0  0  0  0  0  0  0  0  0
  -29.0054    3.9953  -17.4172 O   0  0  0  0  0  0  0  0  0  0  0  0
  1 17  1  0  0  0  0
  1 20  1  0  0  0  0
  2 15  1  6  0  0  0
  2  3  1  0  0  0  0
  2 11  1  0  0  0  0
  3  5  1  0  0  0  0
  4 16  1  6  0  0  0
  4 21  1  0  0  0  0
  4 22  2  0  0  0  0
  4 14  1  0  0  0  0
  5  1  1  6  0  0  0
  5  8  1  0  0  0  0
  6 17  2  0  0  0  0
  6 12  1  0  0  0  0
  8  7  1  1  0  0  0
  8 11  1  0  0  0  0
  9 19  1  0  0  0  0
 11 10  1  1  0  0  0
 12 20  2  0  0  0  0
 12 19  1  0  0  0  0
 13 20  1  0  0  0  0
 14 15  1  0  0  0  0
 18 19  2  0  0  0  0
M  CHG  1  21  -1
M  END
>  <CHROM.1>
111.41659550,71.36803065,63.12455827,168.38599243,-129.90810599,-30.05525159
2.63969664,-12.77160195,-2.14764205,0.70863059,-0.92570729

>  <Name>
ligand

>  <RI>
0

>  <Rbt.Current_Directory>
/home/itssahil/PROJECTS/Mol_Feturizer/New_Systems/rnas/4XWF

>  <Rbt.Executable>
rbdock ($Id: //depot/dev/client3/rdock/2013.1/src/exe/rbdock.cxx#4 $)

>  <Rbt.Library>
libRbt.so (2013.1, Build901 2013/11/27)

>  <Rbt.Parameter_File>
/export/apps/rDock/src/rDock_2013.1_src/data/scripts/dock_solv.prm

>  <Rbt.Receptor>
prm/pocket_docking_6.prm

>  <SCORE>
-9.26867

>  <SCORE.INTER>
-10.7479

>  <SCORE.INTER.CONST>
1

>  <SCORE.INTER.POLAR>
0

>  <SCORE.INTER.ROT>
5

>  <SCORE.INTER.SOLV>
14.8352

>  <SCORE.INTER.VDW>
-19.0437

>  <SCORE.INTER.norm>
-0.488542

>  <SCORE.INTRA>
1.47926

>  <SCORE.INTRA.DIHEDRAL>
-0.746448

>  <SCORE.INTRA.DIHEDRAL.0>
3.49807

>  <SCORE.INTRA.POLAR>
0

>  <SCORE.INTRA.POLAR.0>
0

>  <SCORE.INTRA.REPUL>
0

>  <SCORE.INTRA.REPUL.0>
0

>  <SCORE.INTRA.SOLV>
-0.599666

>  <SCORE.INTRA.SOLV.lig_0>
-73.062

>  <SCORE.INTRA.VDW>
2.15232

>  <SCORE.INTRA.VDW.0>
-1.83782

>  <SCORE.INTRA.norm>
0.0672392

>  <SCORE.RESTR>
0

>  <SCORE.RESTR.CAVITY>
0

>  <SCORE.RESTR.norm>
0

>  <SCORE.SYSTEM>
0

>  <SCORE.SYSTEM.CONST>
0

>  <SCORE.SYSTEM.DIHEDRAL>
0

>  <SCORE.SYSTEM.SOLV>
0

>  <SCORE.SYSTEM.norm>
0

>  <SCORE.heavy>
22

>  <SCORE.norm>
-0.421303

>  <RMSD>
5.173

$$$$
ligand
 OpenBabel11021811513D
libRbt.so/2013.1/901 2013/11/27
 22 23  0  0  0  0  0  0  0  0999 V2000
  -30.5228    1.6894  -11.1356 N   0  0  0  0  0  0  0  0  0  0  0  0
  -28.1437    2.1054  -13.5061 C   0  0  1  0  0  0  0  0  0  0  0  0
  -28.7806    2.6399  -12.3109 O   0  0  0  0  0  0  0  0  0  0  0  0
  -29.5893    4.4025  -16.1396 P   0  0  1  0  0  0  0  0  0  0  0  0
  -29.2009    1.5324  -11.4977 C   0  0  2  0  0  0  0  0  0  0  0  0
  -32.6590    1.3455  -10.9644 N   0  0  0  0  0  0  0  0  0  0  0  0
  -28.9996   -0.8415  -11.6398 O   0  0  0  0  0  0  0  0  0  0  0  0
  -29.1512    0.3617  -12.4021 C   0  0  2  0  0  0  0  0  0  0  0  0
  -32.9786    3.4746   -8.0554 N   0  0  0  0  0  0  0  0  0  0  0  0
  -26.7824    0.4406  -12.5736 O   0  0  0  0  0  0  0  0  0  0  0  0
  -28.0196    0.6496  -13.2748 C   0  0  2  0  0  0  0  0  0  0  0  0
  -32.3421    2.4016  -10.1996 C   0  0  0  0  0  0  0  0  0  0  0  0
  -30.2578    3.6257   -9.6335 N   0  0  0  0  0  0  0  0  0  0  0  0
  -28.9456    3.7733  -14.8557 O   0  0  0  0  0  0  0  0  0  0  0  0
  -29.0473    2.4013  -14.6533 C   0  0  0  0  0  0  0  0  0  0  0  0
  -28.9527    3.5652  -17.3075 O   0  0  0  0  0  0  0  0  0  0  0  0
  -31.5275    0.9087  -11.5497 C   0  0  0  0  0  0  0  0  0  0  0  0
  -34.3465    3.5901   -9.8723 O   0  0  0  0  0  0  0  0  0  0  0  0
  -33.2867    3.1921   -9.3889 C   0  0  0  0  0  0  0  0  0  0  0  0
  -30.9980    2.6224  -10.2998 C   0  0  0  0  0  0  0  0  0  0  0  0
  -31.0766    4.3126  -16.0515 O   0  5  0  0  0  0  0  0  0  0  0  0
  -29.3831    5.8618  -16.1658 O   0  0  0  0  0  0  0  0  0  0  0  0
  1 17  1  0  0  0  0
  1 20  1  0  0  0  0
  2 15  1  6  0  0  0
  2  3  1  0  0  0  0
  2 11  1  0  0  0  0
  3  5  1  0  0  0  0
  4 16  1  6  0  0  0
  4 21  1  0  0  0  0
  4 22  2  0  0  0  0
  4 14  1  0  0  0  0
  5  1  1  6  0  0  0
  5  8  1  0  0  0  0
  6 17  2  0  0  0  0
  6 12  1  0  0  0  0
  8  7  1  1  0  0  0
  8 11  1  0  0  0  0
  9 19  1  0  0  0  0
 11 10  1  1  0  0  0
 12 20  2  0  0  0  0
 12 19  1  0  0  0  0
 13 20  1  0  0  0  0
 14 15  1  0  0  0  0
 18 19  2  0  0  0  0
M  CHG  1  21  -1
M  END
>  <CHROM.1>
112.82558953,71.78652372,-54.14708402,170.18606366,131.44412733,-30.14164718
2.59945521,-12.73808924,-2.17270719,0.65959046,-0.95321031

>  <Name>
ligand

>  <RI>
0

>  <Rbt.Current_Directory>
/home/itssahil/PROJECTS/Mol_Feturizer/New_Systems/rnas/4XWF

>  <Rbt.Executable>
rbdock ($Id: //depot/dev/client3/rdock/2013.1/src/exe/rbdock.cxx#4 $)

>  <Rbt.Library>
libRbt.so (2013.1, Build901 2013/11/27)

>  <Rbt.Parameter_File>
/export/apps/rDock/src/rDock_2013.1_src/data/scripts/dock_solv.prm

>  <Rbt.Receptor>
prm/pocket_docking_8.prm

>  <SCORE>
-9.24418

>  <SCORE.INTER>
-10.7733

>  <SCORE.INTER.CONST>
1

>  <SCORE.INTER.POLAR>
0

>  <SCORE.INTER.ROT>
5

>  <SCORE.INTER.SOLV>
17.6751

>  <SCORE.INTER.VDW>
-20.0072

>  <SCORE.INTER.norm>
-0.489695

>  <SCORE.INTRA>
1.52911

>  <SCORE.INTRA.DIHEDRAL>
-0.811964

>  <SCORE.INTRA.DIHEDRAL.0>
3.49807

>  <SCORE.INTRA.POLAR>
0

>  <SCORE.INTRA.POLAR.0>
0

>  <SCORE.INTRA.REPUL>
0

>  <SCORE.INTRA.REPUL.0>
0

>  <SCORE.INTRA.SOLV>
-0.687194

>  <SCORE.INTRA.SOLV.lig_0>
-73.062

>  <SCORE.INTRA.VDW>
2.27869

>  <SCORE.INTRA.VDW.0>
-1.83782

>  <SCORE.INTRA.norm>
0.0695048

>  <SCORE.RESTR>
0

>  <SCORE.RESTR.CAVITY>
0

>  <SCORE.RESTR.norm>
0

>  <SCORE.SYSTEM>
0

>  <SCORE.SYSTEM.CONST>
0

>  <SCORE.SYSTEM.DIHEDRAL>
0

>  <SCORE.SYSTEM.SOLV>
0

>  <SCORE.SYSTEM.norm>
0

>  <SCORE.heavy>
22

>  <SCORE.norm>
-0.42019

>  <RMSD>
5.178

$$$$
ligand
 OpenBabel11021811513D
libRbt.so/2013.1/901 2013/11/27
 22 23  0  0  0  0  0  0  0  0999 V2000
  -30.8696    1.8945  -10.4871 N   0  0  0  0  0  0  0  0  0  0  0  0
  -28.3249    1.4016  -12.6628 C   0  0  1  0  0  0  0  0  0  0  0  0
  -29.1334    2.3658  -11.9304 O   0  0  0  0  0  0  0  0  0  0  0  0
  -28.3262    2.7599  -15.4244 P   0  0  1  0  0  0  0  0  0  0  0  0
  -29.5088    1.7710  -10.6776 C   0  0  2  0  0  0  0  0  0  0  0  0
  -33.0059    1.5511  -10.6590 N   0  0  0  0  0  0  0  0  0  0  0  0
  -29.0345   -0.2926   -9.5764 O   0  0  0  0  0  0  0  0  0  0  0  0
  -29.2403    0.3259  -10.8519 C   0  0  2  0  0  0  0  0  0  0  0  0
  -34.0236    2.9212   -7.6130 N   0  0  0  0  0  0  0  0  0  0  0  0
  -26.8893    0.6521  -10.9682 O   0  0  0  0  0  0  0  0  0  0  0  0
  -28.0653    0.2965  -11.7143 C   0  0  2  0  0  0  0  0  0  0  0  0
  -32.8076    2.5033   -9.7346 C   0  0  0  0  0  0  0  0  0  0  0  0
  -30.8330    3.6309   -8.7381 N   0  0  0  0  0  0  0  0  0  0  0  0
  -29.4386    2.0989  -14.5388 O   0  0  0  0  0  0  0  0  0  0  0  0
  -29.1357    0.9440  -13.8261 C   0  0  0  0  0  0  0  0  0  0  0  0
  -29.1025    3.8917  -16.1906 O   0  0  0  0  0  0  0  0  0  0  0  0
  -31.8002    1.1789  -11.1294 C   0  0  0  0  0  0  0  0  0  0  0  0
  -34.6087    4.0037   -9.5291 O   0  0  0  0  0  0  0  0  0  0  0  0
  -33.8628    3.1976   -8.9734 C   0  0  0  0  0  0  0  0  0  0  0  0
  -31.4646    2.7229   -9.6185 C   0  0  0  0  0  0  0  0  0  0  0  0
  -27.2163    3.2491  -14.5546 O   0  5  0  0  0  0  0  0  0  0  0  0
  -27.6360    1.7445  -16.2401 O   0  0  0  0  0  0  0  0  0  0  0  0
  1 17  1  0  0  0  0
  1 20  1  0  0  0  0
  2 15  1  6  0  0  0
  2  3  1  0  0  0  0
  2 11  1  0  0  0  0
  3  5  1  0  0  0  0
  4 16  1  6  0  0  0
  4 21  1  0  0  0  0
  4 22  2  0  0  0  0
  4 14  1  0  0  0  0
  5  1  1  6  0  0  0
  5  8  1  0  0  0  0
  6 17  2  0  0  0  0
  6 12  1  0  0  0  0
  8  7  1  1  0  0  0
  8 11  1  0  0  0  0
  9 19  1  0  0  0  0
 11 10  1  1  0  0  0
 12 20  2  0  0  0  0
 12 19  1  0  0  0  0
 13 20  1  0  0  0  0
 14 15  1  0  0  0  0
 18 19  2  0  0  0  0
M  CHG  1  21  -1
M  END
>  <CHROM.1>
74.15549451,57.85180297,172.81168245,76.11153912,108.66355497,-30.01015315
2.08695819,-11.92449312,-2.39937197,0.52274303,-1.14026318

>  <Name>
ligand

>  <RI>
0

>  <Rbt.Current_Directory>
/home/itssahil/PROJECTS/Mol_Feturizer/New_Systems/rnas/4XWF

>  <Rbt.Executable>
rbdock ($Id: //depot/dev/client3/rdock/2013.1/src/exe/rbdock.cxx#4 $)

>  <Rbt.Library>
libRbt.so (2013.1, Build901 2013/11/27)

>  <Rbt.Parameter_File>
/export/apps/rDock/src/rDock_2013.1_src/data/scripts/dock_solv.prm

>  <Rbt.Receptor>
prm/pocket_docking_4.prm

>  <SCORE>
-8.34501

>  <SCORE.INTER>
-9.88337

>  <SCORE.INTER.CONST>
1

>  <SCORE.INTER.POLAR>
0

>  <SCORE.INTER.ROT>
5

>  <SCORE.INTER.SOLV>
13.2263

>  <SCORE.INTER.VDW>
-17.931

>  <SCORE.INTER.norm>
-0.449244

>  <SCORE.INTRA>
1.53836

>  <SCORE.INTRA.DIHEDRAL>
-0.486636

>  <SCORE.INTRA.DIHEDRAL.0>
3.49807

>  <SCORE.INTRA.POLAR>
0

>  <SCORE.INTRA.POLAR.0>
0

>  <SCORE.INTRA.REPUL>
0

>  <SCORE.INTRA.REPUL.0>
0

>  <SCORE.INTRA.SOLV>
1.92167

>  <SCORE.INTRA.SOLV.lig_0>
-73.062

>  <SCORE.INTRA.VDW>
0.820836

>  <SCORE.INTRA.VDW.0>
-1.83782

>  <SCORE.INTRA.norm>
0.0699252

>  <SCORE.RESTR>
0

>  <SCORE.RESTR.CAVITY>
0

>  <SCORE.RESTR.norm>
0

>  <SCORE.SYSTEM>
0

>  <SCORE.SYSTEM.CONST>
0

>  <SCORE.SYSTEM.DIHEDRAL>
0

>  <SCORE.SYSTEM.SOLV>
0

>  <SCORE.SYSTEM.norm>
0

>  <SCORE.heavy>
22

>  <SCORE.norm>
-0.379319

>  <RMSD>
5.181

$$$$
ligand
 OpenBabel11021811513D
libRbt.so/2013.1/901 2013/11/27
 22 23  0  0  0  0  0  0  0  0999 V2000
  -30.3626    1.8813  -11.0741 N   0  0  0  0  0  0  0  0  0  0  0  0
  -28.1181    2.0330  -13.6023 C   0  0  1  0  0  0  0  0  0  0  0  0
  -28.6258    2.6477  -12.3840 O   0  0  0  0  0  0  0  0  0  0  0  0
  -29.5704    4.4211  -16.1456 P   0  0  1  0  0  0  0  0  0  0  0  0
  -29.0862    1.5999  -11.5155 C   0  0  2  0  0  0  0  0  0  0  0  0
  -32.4837    1.6766  -10.6614 N   0  0  0  0  0  0  0  0  0  0  0  0
  -29.1020   -0.7850  -11.6047 O   0  0  0  0  0  0  0  0  0  0  0  0
  -29.1984    0.4099  -12.3886 C   0  0  2  0  0  0  0  0  0  0  0  0
  -34.2720    3.5587   -9.2633 N   0  0  0  0  0  0  0  0  0  0  0  0
  -26.8482    0.2748  -12.7131 O   0  0  0  0  0  0  0  0  0  0  0  0
  -28.1062    0.5773  -13.3394 C   0  0  2  0  0  0  0  0  0  0  0  0
  -32.0621    2.8322  -10.1253 C   0  0  0  0  0  0  0  0  0  0  0  0
  -29.8950    4.0328   -9.9659 N   0  0  0  0  0  0  0  0  0  0  0  0
  -28.9200    3.7527  -14.8852 O   0  0  0  0  0  0  0  0  0  0  0  0
  -29.0662    2.3826  -14.6972 C   0  0  0  0  0  0  0  0  0  0  0  0
  -31.1049    4.1443  -15.9472 O   0  0  0  0  0  0  0  0  0  0  0  0
  -31.4268    1.0906  -11.2557 C   0  0  0  0  0  0  0  0  0  0  0  0
  -32.4051    4.8106   -8.8982 O   0  0  0  0  0  0  0  0  0  0  0  0
  -32.9005    3.7960   -9.3884 C   0  0  0  0  0  0  0  0  0  0  0  0
  -30.7268    2.9667  -10.3784 C   0  0  0  0  0  0  0  0  0  0  0  0
  -29.2025    5.8669  -16.1936 O   0  5  0  0  0  0  0  0  0  0  0  0
  -28.9488    3.9173  -17.3835 O   0  0  0  0  0  0  0  0  0  0  0  0
  1 17  1  0  0  0  0
  1 20  1  0  0  0  0
  2 15  1  6  0  0  0
  2  3  1  0  0  0  0
  2 11  1  0  0  0  0
  3  5  1  0  0  0  0
  4 16  1  6  0  0  0
  4 21  1  0  0  0  0
  4 22  2  0  0  0  0
  4 14  1  0  0  0  0
  5  1  1  6  0  0  0
  5  8  1  0  0  0  0
  6 17  2  0  0  0  0
  6 12  1  0  0  0  0
  8  7  1  1  0  0  0
  8 11  1  0  0  0  0
  9 19  1  0  0  0  0
 11 10  1  1  0  0  0
 12 20  2  0  0  0  0
 12 19  1  0  0  0  0
 13 20  1  0  0  0  0
 14 15  1  0  0  0  0
 18 19  2  0  0  0  0
M  CHG  1  21  -1
M  END
>  <CHROM.1>
122.00397490,68.11593358,61.66550391,168.58142188,-3.12867957,-30.02530154
2.76194658,-12.74918504,-2.21379319,0.77218437,-0.93388027

>  <Name>
ligand

>  <RI>
0

>  <Rbt.Current_Directory>
/home/itssahil/PROJECTS/Mol_Feturizer/New_Systems/rnas/4XWF

>  <Rbt.Executable>
rbdock ($Id: //depot/dev/client3/rdock/2013.1/src/exe/rbdock.cxx#4 $)

>  <Rbt.Library>
libRbt.so (2013.1, Build901 2013/11/27)

>  <Rbt.Parameter_File>
/export/apps/rDock/src/rDock_2013.1_src/data/scripts/dock_solv.prm

>  <Rbt.Receptor>
prm/pocket_docking_7.prm

>  <SCORE>
-9.34219

>  <SCORE.INTER>
-10.8041

>  <SCORE.INTER.CONST>
1

>  <SCORE.INTER.POLAR>
0

>  <SCORE.INTER.ROT>
5

>  <SCORE.INTER.SOLV>
17.9374

>  <SCORE.INTER.VDW>
-20.1152

>  <SCORE.INTER.norm>
-0.491097

>  <SCORE.INTRA>
1.46194

>  <SCORE.INTRA.DIHEDRAL>
-1.10511

>  <SCORE.INTRA.DIHEDRAL.0>
3.49807

>  <SCORE.INTRA.POLAR>
0

>  <SCORE.INTRA.POLAR.0>
0

>  <SCORE.INTRA.REPUL>
0

>  <SCORE.INTRA.REPUL.0>
0

>  <SCORE.INTRA.SOLV>
-0.481287

>  <SCORE.INTRA.SOLV.lig_0>
-73.062

>  <SCORE.INTRA.VDW>
2.25514

>  <SCORE.INTRA.VDW.0>
-1.83782

>  <SCORE.INTRA.norm>
0.0664519

>  <SCORE.RESTR>
0

>  <SCORE.RESTR.CAVITY>
0

>  <SCORE.RESTR.norm>
0

>  <SCORE.SYSTEM>
0

>  <SCORE.SYSTEM.CONST>
0

>  <SCORE.SYSTEM.DIHEDRAL>
0

>  <SCORE.SYSTEM.SOLV>
0

>  <SCORE.SYSTEM.norm>
0

>  <SCORE.heavy>
22

>  <SCORE.norm>
-0.424645

>  <RMSD>
5.191

$$$$
ligand
 OpenBabel11021811513D
libRbt.so/2013.1/901 2013/11/27
 22 23  0  0  0  0  0  0  0  0999 V2000
  -30.8982    2.1491  -10.2734 N   0  0  0  0  0  0  0  0  0  0  0  0
  -28.5244    1.2086  -12.4944 C   0  0  1  0  0  0  0  0  0  0  0  0
  -29.0572    2.2740  -11.6572 O   0  0  0  0  0  0  0  0  0  0  0  0
  -27.9324    2.7147  -15.0544 P   0  0  1  0  0  0  0  0  0  0  0  0
  -29.6191    1.6746  -10.4785 C   0  0  2  0  0  0  0  0  0  0  0  0
  -33.0622    2.3073  -10.3280 N   0  0  0  0  0  0  0  0  0  0  0  0
  -29.7649   -0.5462   -9.6166 O   0  0  0  0  0  0  0  0  0  0  0  0
  -29.7542    0.2394  -10.8143 C   0  0  2  0  0  0  0  0  0  0  0  0
  -34.7260    4.0682   -8.5721 N   0  0  0  0  0  0  0  0  0  0  0  0
  -27.4020   -0.0884  -10.8967 O   0  0  0  0  0  0  0  0  0  0  0  0
  -28.6078   -0.0211  -11.6763 C   0  0  2  0  0  0  0  0  0  0  0  0
  -32.5874    3.3132   -9.5775 C   0  0  0  0  0  0  0  0  0  0  0  0
  -30.3434    4.0713   -8.8336 N   0  0  0  0  0  0  0  0  0  0  0  0
  -29.2753    2.3576  -14.3279 O   0  0  0  0  0  0  0  0  0  0  0  0
  -29.3950    1.1224  -13.7005 C   0  0  0  0  0  0  0  0  0  0  0  0
  -26.9848    3.1327  -13.8721 O   0  0  0  0  0  0  0  0  0  0  0  0
  -32.0099    1.5890  -10.7642 C   0  0  0  0  0  0  0  0  0  0  0  0
  -32.9237    5.4569   -8.6671 O   0  0  0  0  0  0  0  0  0  0  0  0
  -33.3995    4.3483   -8.9114 C   0  0  0  0  0  0  0  0  0  0  0  0
  -31.2256    3.2185   -9.5359 C   0  0  0  0  0  0  0  0  0  0  0  0
  -27.4592    1.5385  -15.8420 O   0  5  0  0  0  0  0  0  0  0  0  0
  -28.1623    3.7088  -16.1182 O   0  0  0  0  0  0  0  0  0  0  0  0
  1 17  1  0  0  0  0
  1 20  1  0  0  0  0
  2 15  1  6  0  0  0
  2  3  1  0  0  0  0
  2 11  1  0  0  0  0
  3  5  1  0  0  0  0
  4 16  1  1  0  0  0
  4 21  1  0  0  0  0
  4 22  2  0  0  0  0
  4 14  1  0  0  0  0
  5  1  1  6  0  0  0
  5  8  1  0  0  0  0
  6 17  2  0  0  0  0
  6 12  1  0  0  0  0
  8  7  1  1  0  0  0
  8 11  1  0  0  0  0
  9 19  1  0  0  0  0
 11 10  1  1  0  0  0
 12 20  2  0  0  0  0
 12 19  1  0  0  0  0
 13 20  1  0  0  0  0
 14 15  1  0  0  0  0
 18 19  2  0  0  0  0
M  CHG  1  21  -1
M  END
>  <CHROM.1>
90.26508954,61.74621453,-79.02265646,71.58636774,25.60644586,-29.92617376
2.28390939,-11.74113903,-2.71952562,0.78417150,-0.81580190

>  <Name>
ligand

>  <RI>
0

>  <Rbt.Current_Directory>
/home/itssahil/PROJECTS/Mol_Feturizer/New_Systems/rnas/4XWF

>  <Rbt.Executable>
rbdock ($Id: //depot/dev/client3/rdock/2013.1/src/exe/rbdock.cxx#4 $)

>  <Rbt.Library>
libRbt.so (2013.1, Build901 2013/11/27)

>  <Rbt.Parameter_File>
/export/apps/rDock/src/rDock_2013.1_src/data/scripts/dock_solv.prm

>  <Rbt.Receptor>
prm/pocket_docking_8.prm

>  <SCORE>
-7.44193

>  <SCORE.INTER>
-9.47216

>  <SCORE.INTER.CONST>
1

>  <SCORE.INTER.POLAR>
0

>  <SCORE.INTER.ROT>
5

>  <SCORE.INTER.SOLV>
14.3415

>  <SCORE.INTER.VDW>
-18.0286

>  <SCORE.INTER.norm>
-0.430553

>  <SCORE.INTRA>
2.03023

>  <SCORE.INTRA.DIHEDRAL>
-0.0178047

>  <SCORE.INTRA.DIHEDRAL.0>
3.49807

>  <SCORE.INTRA.POLAR>
0

>  <SCORE.INTRA.POLAR.0>
0

>  <SCORE.INTRA.REPUL>
0

>  <SCORE.INTRA.REPUL.0>
0

>  <SCORE.INTRA.SOLV>
0.257308

>  <SCORE.INTRA.SOLV.lig_0>
-73.062

>  <SCORE.INTRA.VDW>
1.91047

>  <SCORE.INTRA.VDW.0>
-1.83782

>  <SCORE.INTRA.norm>
0.092283

>  <SCORE.RESTR>
0

>  <SCORE.RESTR.CAVITY>
0

>  <SCORE.RESTR.norm>
0

>  <SCORE.SYSTEM>
0

>  <SCORE.SYSTEM.CONST>
0

>  <SCORE.SYSTEM.DIHEDRAL>
0

>  <SCORE.SYSTEM.SOLV>
0

>  <SCORE.SYSTEM.norm>
0

>  <SCORE.heavy>
22

>  <SCORE.norm>
-0.33827

>  <RMSD>
5.195

$$$$
ligand
 OpenBabel11021811513D
libRbt.so/2013.1/901 2013/11/27
 22 23  0  0  0  0  0  0  0  0999 V2000
  -30.5190    1.7129  -11.1469 N   0  0  0  0  0  0  0  0  0  0  0  0
  -28.1514    2.1133  -13.5315 C   0  0  1  0  0  0  0  0  0  0  0  0
  -28.7855    2.6578  -12.3393 O   0  0  0  0  0  0  0  0  0  0  0  0
  -29.6235    4.3734  -16.1851 P   0  0  1  0  0  0  0  0  0  0  0  0
  -29.1980    1.5573  -11.5129 C   0  0  2  0  0  0  0  0  0  0  0  0
  -32.6546    1.3674  -10.9707 N   0  0  0  0  0  0  0  0  0  0  0  0
  -28.9877   -0.8171  -11.6309 O   0  0  0  0  0  0  0  0  0  0  0  0
  -29.1474    0.3774  -12.4051 C   0  0  2  0  0  0  0  0  0  0  0  0
  -32.9982    3.4366   -8.0398 N   0  0  0  0  0  0  0  0  0  0  0  0
  -26.7796    0.4638  -12.5872 O   0  0  0  0  0  0  0  0  0  0  0  0
  -28.0205    0.6605  -13.2855 C   0  0  2  0  0  0  0  0  0  0  0  0
  -32.3362    2.4222  -10.2047 C   0  0  0  0  0  0  0  0  0  0  0  0
  -30.2510    3.6464   -9.6418 N   0  0  0  0  0  0  0  0  0  0  0  0
  -28.9480    3.7600  -14.9099 O   0  0  0  0  0  0  0  0  0  0  0  0
  -29.0608    2.3935  -14.6780 C   0  0  0  0  0  0  0  0  0  0  0  0
  -28.9579    3.5742  -17.3635 O   0  0  0  0  0  0  0  0  0  0  0  0
  -31.5244    0.9324  -11.5598 C   0  0  0  0  0  0  0  0  0  0  0  0
  -34.3141    3.6562   -9.8852 O   0  0  0  0  0  0  0  0  0  0  0  0
  -33.2791    3.2107   -9.3900 C   0  0  0  0  0  0  0  0  0  0  0  0
  -30.9925    2.6440  -10.3081 C   0  0  0  0  0  0  0  0  0  0  0  0
  -31.1053    4.2204  -16.0914 O   0  5  0  0  0  0  0  0  0  0  0  0
  -29.4788    5.8402  -16.1985 O   0  0  0  0  0  0  0  0  0  0  0  0
  1 17  1  0  0  0  0
  1 20  1  0  0  0  0
  2 15  1  6  0  0  0
  2  3  1  0  0  0  0
  2 11  1  0  0  0  0
  3  5  1  0  0  0  0
  4 16  1  6  0  0  0
  4 21  1  0  0  0  0
  4 22  2  0  0  0  0
  4 14  1  0  0  0  0
  5  1  1  6  0  0  0
  5  8  1  0  0  0  0
  6 17  2  0  0  0  0
  6 12  1  0  0  0  0
  8  7  1  1  0  0  0
  8 11  1  0  0  0  0
  9 19  1  0  0  0  0
 11 10  1  1  0  0  0
 12 20  2  0  0  0  0
 12 19  1  0  0  0  0
 13 20  1  0  0  0  0
 14 15  1  0  0  0  0
 18 19  2  0  0  0  0
M  CHG  1  21  -1
M  END
>  <CHROM.1>
112.08422181,72.77335732,-58.00656079,171.56736210,128.40546962,-30.14927369
2.60365133,-12.75802425,-2.16163030,0.65757301,-0.97120790

>  <Name>
ligand

>  <RI>
0

>  <Rbt.Current_Directory>
/home/itssahil/PROJECTS/Mol_Feturizer/New_Systems/rnas/4XWF

>  <Rbt.Executable>
rbdock ($Id: //depot/dev/client3/rdock/2013.1/src/exe/rbdock.cxx#4 $)

>  <Rbt.Library>
libRbt.so (2013.1, Build901 2013/11/27)

>  <Rbt.Parameter_File>
/export/apps/rDock/src/rDock_2013.1_src/data/scripts/dock_solv.prm

>  <Rbt.Receptor>
prm/pocket_docking_8.prm

>  <SCORE>
-9.28318

>  <SCORE.INTER>
-10.6847

>  <SCORE.INTER.CONST>
1

>  <SCORE.INTER.POLAR>
0

>  <SCORE.INTER.ROT>
5

>  <SCORE.INTER.SOLV>
17.876

>  <SCORE.INTER.VDW>
-20.0152

>  <SCORE.INTER.norm>
-0.48567

>  <SCORE.INTRA>
1.40157

>  <SCORE.INTRA.DIHEDRAL>
-0.949994

>  <SCORE.INTRA.DIHEDRAL.0>
3.49807

>  <SCORE.INTRA.POLAR>
0

>  <SCORE.INTRA.POLAR.0>
0

>  <SCORE.INTRA.REPUL>
0

>  <SCORE.INTRA.REPUL.0>
0

>  <SCORE.INTRA.SOLV>
-0.686228

>  <SCORE.INTRA.SOLV.lig_0>
-73.062

>  <SCORE.INTRA.VDW>
2.21968

>  <SCORE.INTRA.VDW.0>
-1.83782

>  <SCORE.INTRA.norm>
0.0637077

>  <SCORE.RESTR>
0

>  <SCORE.RESTR.CAVITY>
0

>  <SCORE.RESTR.norm>
0

>  <SCORE.SYSTEM>
0

>  <SCORE.SYSTEM.CONST>
0

>  <SCORE.SYSTEM.DIHEDRAL>
0

>  <SCORE.SYSTEM.SOLV>
0

>  <SCORE.SYSTEM.norm>
0

>  <SCORE.heavy>
22

>  <SCORE.norm>
-0.421963

>  <RMSD>
5.201

$$$$
ligand
 OpenBabel11021811513D
libRbt.so/2013.1/901 2013/11/27
 22 23  0  0  0  0  0  0  0  0999 V2000
  -30.9153    2.0211  -10.3301 N   0  0  0  0  0  0  0  0  0  0  0  0
  -28.4540    1.4461  -12.5804 C   0  0  1  0  0  0  0  0  0  0  0  0
  -29.2228    2.4370  -11.8409 O   0  0  0  0  0  0  0  0  0  0  0  0
  -28.4991    2.7280  -15.3748 P   0  0  1  0  0  0  0  0  0  0  0  0
  -29.5638    1.8732  -10.5641 C   0  0  2  0  0  0  0  0  0  0  0  0
  -33.0617    1.7145  -10.4310 N   0  0  0  0  0  0  0  0  0  0  0  0
  -29.0822   -0.1750   -9.4376 O   0  0  0  0  0  0  0  0  0  0  0  0
  -29.3225    0.4209  -10.7178 C   0  0  2  0  0  0  0  0  0  0  0  0
  -34.2704    4.6425   -9.1457 N   0  0  0  0  0  0  0  0  0  0  0  0
  -26.9723    0.7087  -10.9204 O   0  0  0  0  0  0  0  0  0  0  0  0
  -28.1783    0.3563  -11.6188 C   0  0  2  0  0  0  0  0  0  0  0  0
  -32.8170    2.6669   -9.5180 C   0  0  0  0  0  0  0  0  0  0  0  0
  -30.7918    3.7641   -8.5915 N   0  0  0  0  0  0  0  0  0  0  0  0
  -29.6040    2.1197  -14.4431 O   0  0  0  0  0  0  0  0  0  0  0  0
  -29.3108    0.9777  -13.7058 C   0  0  0  0  0  0  0  0  0  0  0  0
  -29.2628    3.8693  -16.1395 O   0  0  0  0  0  0  0  0  0  0  0  0
  -31.8785    1.3192  -10.9384 C   0  0  0  0  0  0  0  0  0  0  0  0
  -34.2894    2.8867   -7.6957 O   0  0  0  0  0  0  0  0  0  0  0  0
  -33.8346    3.3827   -8.7263 C   0  0  0  0  0  0  0  0  0  0  0  0
  -31.4673    2.8635   -9.4466 C   0  0  0  0  0  0  0  0  0  0  0  0
  -27.3482    3.1979  -14.5487 O   0  5  0  0  0  0  0  0  0  0  0  0
  -27.8665    1.6759  -16.1906 O   0  0  0  0  0  0  0  0  0  0  0  0
  1 17  1  0  0  0  0
  1 20  1  0  0  0  0
  2 15  1  6  0  0  0
  2  3  1  0  0  0  0
  2 11  1  0  0  0  0
  3  5  1  0  0  0  0
  4 16  1  6  0  0  0
  4 21  1  0  0  0  0
  4 22  2  0  0  0  0
  4 14  1  0  0  0  0
  5  1  1  6  0  0  0
  5  8  1  0  0  0  0
  6 17  2  0  0  0  0
  6 12  1  0  0  0  0
  8  7  1  1  0  0  0
  8 11  1  0  0  0  0
  9 19  1  0  0  0  0
 11 10  1  1  0  0  0
 12 20  2  0  0  0  0
 12 19  1  0  0  0  0
 13 20  1  0  0  0  0
 14 15  1  0  0  0  0
 18 19  2  0  0  0  0
M  CHG  1  21  -1
M  END
>  <CHROM.1>
73.23845697,58.74463316,173.50977266,75.85367535,-97.45938848,-30.09285504
2.16328907,-11.79792736,-2.38092155,0.56256475,-1.15670882

>  <Name>
ligand

>  <RI>
0

>  <Rbt.Current_Directory>
/home/itssahil/PROJECTS/Mol_Feturizer/New_Systems/rnas/4XWF

>  <Rbt.Executable>
rbdock ($Id: //depot/dev/client3/rdock/2013.1/src/exe/rbdock.cxx#4 $)

>  <Rbt.Library>
libRbt.so (2013.1, Build901 2013/11/27)

>  <Rbt.Parameter_File>
/export/apps/rDock/src/rDock_2013.1_src/data/scripts/dock_solv.prm

>  <Rbt.Receptor>
prm/pocket_docking_6.prm

>  <SCORE>
-7.61642

>  <SCORE.INTER>
-9.26612

>  <SCORE.INTER.CONST>
1

>  <SCORE.INTER.POLAR>
0

>  <SCORE.INTER.ROT>
5

>  <SCORE.INTER.SOLV>
14.258

>  <SCORE.INTER.VDW>
-17.8634

>  <SCORE.INTER.norm>
-0.421187

>  <SCORE.INTRA>
1.6497

>  <SCORE.INTRA.DIHEDRAL>
-0.151269

>  <SCORE.INTRA.DIHEDRAL.0>
3.49807

>  <SCORE.INTRA.POLAR>
0

>  <SCORE.INTRA.POLAR.0>
0

>  <SCORE.INTRA.REPUL>
0

>  <SCORE.INTRA.REPUL.0>
0

>  <SCORE.INTRA.SOLV>
1.87822

>  <SCORE.INTRA.SOLV.lig_0>
-73.062

>  <SCORE.INTRA.VDW>
0.786224

>  <SCORE.INTRA.VDW.0>
-1.83782

>  <SCORE.INTRA.norm>
0.0749863

>  <SCORE.RESTR>
0

>  <SCORE.RESTR.CAVITY>
0

>  <SCORE.RESTR.norm>
0

>  <SCORE.SYSTEM>
0

>  <SCORE.SYSTEM.CONST>
0

>  <SCORE.SYSTEM.DIHEDRAL>
0

>  <SCORE.SYSTEM.SOLV>
0

>  <SCORE.SYSTEM.norm>
0

>  <SCORE.heavy>
22

>  <SCORE.norm>
-0.346201

>  <RMSD>
5.206

$$$$
ligand
 OpenBabel11021811513D
libRbt.so/2013.1/901 2013/11/27
 22 23  0  0  0  0  0  0  0  0999 V2000
  -28.6155    2.9771  -10.6247 N   0  0  0  0  0  0  0  0  0  0  0  0
  -27.7941    2.8194  -13.9039 C   0  0  1  0  0  0  0  0  0  0  0  0
  -27.3270    3.0052  -12.5375 O   0  0  0  0  0  0  0  0  0  0  0  0
  -29.6776    5.0023  -16.3595 P   0  0  1  0  0  0  0  0  0  0  0  0
  -28.1528    2.2085  -11.6728 C   0  0  2  0  0  0  0  0  0  0  0  0
  -29.4986    4.6235   -9.5199 N   0  0  0  0  0  0  0  0  0  0  0  0
  -29.9486    0.6702  -11.9962 O   0  0  0  0  0  0  0  0  0  0  0  0
  -29.3356    1.8654  -12.4938 C   0  0  2  0  0  0  0  0  0  0  0  0
  -30.3451    2.7992   -6.6166 N   0  0  0  0  0  0  0  0  0  0  0  0
  -28.0697    0.4923  -13.9633 O   0  0  0  0  0  0  0  0  0  0  0  0
  -28.7918    1.7290  -13.8395 C   0  0  2  0  0  0  0  0  0  0  0  0
  -29.2032    3.6456   -8.6497 C   0  0  0  0  0  0  0  0  0  0  0  0
  -28.2196    1.3709   -8.7973 N   0  0  0  0  0  0  0  0  0  0  0  0
  -29.0234    3.8278  -15.5525 O   0  0  0  0  0  0  0  0  0  0  0  0
  -28.4157    4.1039  -14.3327 C   0  0  0  0  0  0  0  0  0  0  0  0
  -30.6217    5.6819  -15.3024 O   0  0  0  0  0  0  0  0  0  0  0  0
  -29.1267    4.2077  -10.7456 C   0  0  0  0  0  0  0  0  0  0  0  0
  -28.8475    4.5100   -6.4902 O   0  0  0  0  0  0  0  0  0  0  0  0
  -29.4355    3.6891   -7.1941 C   0  0  0  0  0  0  0  0  0  0  0  0
  -28.6495    2.6042   -9.3384 C   0  0  0  0  0  0  0  0  0  0  0  0
  -28.6109    5.8943  -16.9021 O   0  5  0  0  0  0  0  0  0  0  0  0
  -30.3014    4.5017  -17.5976 O   0  0  0  0  0  0  0  0  0  0  0  0
  1 17  1  0  0  0  0
  1 20  1  0  0  0  0
  2 15  1  1  0  0  0
  2  3  1  0  0  0  0
  2 11  1  0  0  0  0
  3  5  1  0  0  0  0
  4 16  1  1  0  0  0
  4 21  1  0  0  0  0
  4 22  2  0  0  0  0
  4 14  1  0  0  0  0
  5  1  1  1  0  0  0
  5  8  1  0  0  0  0
  6 17  2  0  0  0  0
  6 12  1  0  0  0  0
  8  7  1  1  0  0  0
  8 11  1  0  0  0  0
  9 19  1  0  0  0  0
 11 10  1  1  0  0  0
 12 20  2  0  0  0  0
 12 19  1  0  0  0  0
 13 20  1  0  0  0  0
 14 15  1  0  0  0  0
 18 19  2  0  0  0  0
M  CHG  1  21  -1
M  END
>  <CHROM.1>
45.57537185,-171.28545623,-52.00825117,-174.75912745,115.26175072,-29.04319225
3.39324010,-12.39149302,-1.46416552,1.29003725,-1.50311868

>  <Name>
ligand

>  <RI>
0

>  <Rbt.Current_Directory>
/home/itssahil/PROJECTS/Mol_Feturizer/New_Systems/rnas/4XWF

>  <Rbt.Executable>
rbdock ($Id: //depot/dev/client3/rdock/2013.1/src/exe/rbdock.cxx#4 $)

>  <Rbt.Library>
libRbt.so (2013.1, Build901 2013/11/27)

>  <Rbt.Parameter_File>
/export/apps/rDock/src/rDock_2013.1_src/data/scripts/dock_solv.prm

>  <Rbt.Receptor>
prm/pocket_docking_5.prm

>  <SCORE>
-2.15586

>  <SCORE.INTER>
-1.44405

>  <SCORE.INTER.CONST>
1

>  <SCORE.INTER.POLAR>
0

>  <SCORE.INTER.ROT>
5

>  <SCORE.INTER.SOLV>
6.19596

>  <SCORE.INTER.VDW>
-9.96136

>  <SCORE.INTER.norm>
-0.0656388

>  <SCORE.INTRA>
-0.711812

>  <SCORE.INTRA.DIHEDRAL>
-1.50197

>  <SCORE.INTRA.DIHEDRAL.0>
3.49807

>  <SCORE.INTRA.POLAR>
0

>  <SCORE.INTRA.POLAR.0>
0

>  <SCORE.INTRA.REPUL>
0

>  <SCORE.INTRA.REPUL.0>
0

>  <SCORE.INTRA.SOLV>
-0.426694

>  <SCORE.INTRA.SOLV.lig_0>
-73.062

>  <SCORE.INTRA.VDW>
0.25252

>  <SCORE.INTRA.VDW.0>
-1.83782

>  <SCORE.INTRA.norm>
-0.0323551

>  <SCORE.RESTR>
0

>  <SCORE.RESTR.CAVITY>
0

>  <SCORE.RESTR.norm>
0

>  <SCORE.SYSTEM>
0

>  <SCORE.SYSTEM.CONST>
0

>  <SCORE.SYSTEM.DIHEDRAL>
0

>  <SCORE.SYSTEM.SOLV>
0

>  <SCORE.SYSTEM.norm>
0

>  <SCORE.heavy>
22

>  <SCORE.norm>
-0.0979938

>  <RMSD>
5.208

$$$$
ligand
 OpenBabel11021811513D
libRbt.so/2013.1/901 2013/11/27
 22 23  0  0  0  0  0  0  0  0999 V2000
  -31.0387    2.0230  -10.0705 N   0  0  0  0  0  0  0  0  0  0  0  0
  -28.3084    1.6153  -12.0280 C   0  0  1  0  0  0  0  0  0  0  0  0
  -29.0230    2.4759  -11.0960 O   0  0  0  0  0  0  0  0  0  0  0  0
  -28.6853    3.1596  -15.4527 P   0  0  1  0  0  0  0  0  0  0  0  0
  -29.7172    1.6369  -10.1586 C   0  0  2  0  0  0  0  0  0  0  0  0
  -33.1744    2.1322  -10.4417 N   0  0  0  0  0  0  0  0  0  0  0  0
  -29.8561   -0.7145   -9.7749 O   0  0  0  0  0  0  0  0  0  0  0  0
  -29.7143    0.2944  -10.7818 C   0  0  2  0  0  0  0  0  0  0  0  0
  -34.1533    3.5235   -7.3774 N   0  0  0  0  0  0  0  0  0  0  0  0
  -27.3607    0.0590  -10.5534 O   0  0  0  0  0  0  0  0  0  0  0  0
  -28.4388    0.2451  -11.4858 C   0  0  2  0  0  0  0  0  0  0  0  0
  -32.8812    2.9675   -9.4333 C   0  0  0  0  0  0  0  0  0  0  0  0
  -30.8270    3.6087   -8.1953 N   0  0  0  0  0  0  0  0  0  0  0  0
  -28.4376    2.8869  -13.9286 O   0  0  0  0  0  0  0  0  0  0  0  0
  -28.9829    1.7460  -13.3501 C   0  0  0  0  0  0  0  0  0  0  0  0
  -28.4311    1.7567  -16.1143 O   0  0  0  0  0  0  0  0  0  0  0  0
  -32.0267    1.5511  -10.8398 C   0  0  0  0  0  0  0  0  0  0  0  0
  -34.3917    4.7647   -9.2717 O   0  0  0  0  0  0  0  0  0  0  0  0
  -33.8463    3.8154   -8.7091 C   0  0  0  0  0  0  0  0  0  0  0  0
  -31.5386    2.9020   -9.1917 C   0  0  0  0  0  0  0  0  0  0  0  0
  -30.0639    3.6971  -15.6492 O   0  5  0  0  0  0  0  0  0  0  0  0
  -27.8596    4.2865  -15.9227 O   0  0  0  0  0  0  0  0  0  0  0  0
  1 17  1  0  0  0  0
  1 20  1  0  0  0  0
  2 15  1  6  0  0  0
  2  3  1  0  0  0  0
  2 11  1  0  0  0  0
  3  5  1  0  0  0  0
  4 16  1  6  0  0  0
  4 21  1  0  0  0  0
  4 22  2  0  0  0  0
  4 14  1  0  0  0  0
  5  1  1  6  0  0  0
  5  8  1  0  0  0  0
  6 17  2  0  0  0  0
  6 12  1  0  0  0  0
  8  7  1  1  0  0  0
  8 11  1  0  0  0  0
  9 19  1  0  0  0  0
 11 10  1  1  0  0  0
 12 20  2  0  0  0  0
 12 19  1  0  0  0  0
 13 20  1  0  0  0  0
 14 15  1  0  0  0  0
 18 19  2  0  0  0  0
M  CHG  1  21  -1
M  END
>  <CHROM.1>
89.44345019,83.54591543,-44.75901559,166.84636113,110.79695224,-30.22616341
2.34596658,-11.68334187,-2.39149812,0.65804902,-1.03967368

>  <Name>
ligand

>  <RI>
0

>  <Rbt.Current_Directory>
/home/itssahil/PROJECTS/Mol_Feturizer/New_Systems/rnas/4XWF

>  <Rbt.Executable>
rbdock ($Id: //depot/dev/client3/rdock/2013.1/src/exe/rbdock.cxx#4 $)

>  <Rbt.Library>
libRbt.so (2013.1, Build901 2013/11/27)

>  <Rbt.Parameter_File>
/export/apps/rDock/src/rDock_2013.1_src/data/scripts/dock_solv.prm

>  <Rbt.Receptor>
prm/pocket_docking_4.prm

>  <SCORE>
-6.32883

>  <SCORE.INTER>
-7.83557

>  <SCORE.INTER.CONST>
1

>  <SCORE.INTER.POLAR>
0

>  <SCORE.INTER.ROT>
5

>  <SCORE.INTER.SOLV>
15.3114

>  <SCORE.INTER.VDW>
-17.2608

>  <SCORE.INTER.norm>
-0.356162

>  <SCORE.INTRA>
1.50674

>  <SCORE.INTRA.DIHEDRAL>
1.02687

>  <SCORE.INTRA.DIHEDRAL.0>
3.49807

>  <SCORE.INTRA.POLAR>
0

>  <SCORE.INTRA.POLAR.0>
0

>  <SCORE.INTRA.REPUL>
0

>  <SCORE.INTRA.REPUL.0>
0

>  <SCORE.INTRA.SOLV>
-1.27076

>  <SCORE.INTRA.SOLV.lig_0>
-73.062

>  <SCORE.INTRA.VDW>
1.62869

>  <SCORE.INTRA.VDW.0>
-1.83782

>  <SCORE.INTRA.norm>
0.0684883

>  <SCORE.RESTR>
0

>  <SCORE.RESTR.CAVITY>
0

>  <SCORE.RESTR.norm>
0

>  <SCORE.SYSTEM>
0

>  <SCORE.SYSTEM.CONST>
0

>  <SCORE.SYSTEM.DIHEDRAL>
0

>  <SCORE.SYSTEM.SOLV>
0

>  <SCORE.SYSTEM.norm>
0

>  <SCORE.heavy>
22

>  <SCORE.norm>
-0.287674

>  <RMSD>
5.224

$$$$
ligand
 OpenBabel11021811513D
libRbt.so/2013.1/901 2013/11/27
 22 23  0  0  0  0  0  0  0  0999 V2000
  -30.4198    1.7636  -11.1573 N   0  0  0  0  0  0  0  0  0  0  0  0
  -28.1236    2.0631  -13.6251 C   0  0  1  0  0  0  0  0  0  0  0  0
  -28.7006    2.6413  -12.4199 O   0  0  0  0  0  0  0  0  0  0  0  0
  -29.6534    4.3586  -16.2097 P   0  0  1  0  0  0  0  0  0  0  0  0
  -29.1171    1.5640  -11.5652 C   0  0  2  0  0  0  0  0  0  0  0  0
  -32.5522    1.4682  -10.8804 N   0  0  0  0  0  0  0  0  0  0  0  0
  -28.9809   -0.8169  -11.6579 O   0  0  0  0  0  0  0  0  0  0  0  0
  -29.1315    0.3720  -12.4425 C   0  0  2  0  0  0  0  0  0  0  0  0
  -34.4282    3.5189   -9.7379 N   0  0  0  0  0  0  0  0  0  0  0  0
  -26.7697    0.3854  -12.7050 O   0  0  0  0  0  0  0  0  0  0  0  0
  -28.0273    0.6103  -13.3639 C   0  0  2  0  0  0  0  0  0  0  0  0
  -32.1861    2.5559  -10.1850 C   0  0  0  0  0  0  0  0  0  0  0  0
  -30.0602    3.7688   -9.7696 N   0  0  0  0  0  0  0  0  0  0  0  0
  -28.9847    3.7307  -14.9380 O   0  0  0  0  0  0  0  0  0  0  0  0
  -29.0627    2.3559  -14.7442 C   0  0  0  0  0  0  0  0  0  0  0  0
  -31.1850    4.0911  -15.9792 O   0  0  0  0  0  0  0  0  0  0  0  0
  -31.4537    0.9814  -11.4886 C   0  0  0  0  0  0  0  0  0  0  0  0
  -32.6527    4.0200   -8.4030 O   0  0  0  0  0  0  0  0  0  0  0  0
  -33.0828    3.4040   -9.3779 C   0  0  0  0  0  0  0  0  0  0  0  0
  -30.8441    2.7466  -10.3520 C   0  0  0  0  0  0  0  0  0  0  0  0
  -29.2844    5.8014  -16.3107 O   0  5  0  0  0  0  0  0  0  0  0  0
  -29.0512    3.8135  -17.4397 O   0  0  0  0  0  0  0  0  0  0  0  0
  1 17  1  0  0  0  0
  1 20  1  0  0  0  0
  2 15  1  6  0  0  0
  2  3  1  0  0  0  0
  2 11  1  0  0  0  0
  3  5  1  0  0  0  0
  4 16  1  1  0  0  0
  4 21  1  0  0  0  0
  4 22  2  0  0  0  0
  4 14  1  0  0  0  0
  5  1  1  6  0  0  0
  5  8  1  0  0  0  0
  6 17  2  0  0  0  0
  6 12  1  0  0  0  0
  8  7  1  1  0  0  0
  8 11  1  0  0  0  0
  9 19  1  0  0  0  0
 11 10  1  1  0  0  0
 12 20  2  0  0  0  0
 12 19  1  0  0  0  0
 13 20  1  0  0  0  0
 14 15  1  0  0  0  0
 18 19  2  0  0  0  0
M  CHG  1  21  -1
M  END
>  <CHROM.1>
114.50801911,68.86791066,65.41783433,169.25376161,-29.27889389,-30.08605579
2.64448420,-12.78963236,-2.16062719,0.69826097,-0.97665204

>  <Name>
ligand

>  <RI>
0

>  <Rbt.Current_Directory>
/home/itssahil/PROJECTS/Mol_Feturizer/New_Systems/rnas/4XWF

>  <Rbt.Executable>
rbdock ($Id: //depot/dev/client3/rdock/2013.1/src/exe/rbdock.cxx#4 $)

>  <Rbt.Library>
libRbt.so (2013.1, Build901 2013/11/27)

>  <Rbt.Parameter_File>
/export/apps/rDock/src/rDock_2013.1_src/data/scripts/dock_solv.prm

>  <Rbt.Receptor>
prm/pocket_docking_6.prm

>  <SCORE>
-9.41866

>  <SCORE.INTER>
-11.1176

>  <SCORE.INTER.CONST>
1

>  <SCORE.INTER.POLAR>
0

>  <SCORE.INTER.ROT>
5

>  <SCORE.INTER.SOLV>
17.2291

>  <SCORE.INTER.VDW>
-20.0881

>  <SCORE.INTER.norm>
-0.505347

>  <SCORE.INTRA>
1.69899

>  <SCORE.INTRA.DIHEDRAL>
-0.319284

>  <SCORE.INTRA.DIHEDRAL.0>
3.49807

>  <SCORE.INTRA.POLAR>
0

>  <SCORE.INTRA.POLAR.0>
0

>  <SCORE.INTRA.REPUL>
0

>  <SCORE.INTRA.REPUL.0>
0

>  <SCORE.INTRA.SOLV>
-0.760132

>  <SCORE.INTRA.SOLV.lig_0>
-73.062

>  <SCORE.INTRA.VDW>
2.23869

>  <SCORE.INTRA.VDW.0>
-1.83782

>  <SCORE.INTRA.norm>
0.0772267

>  <SCORE.RESTR>
0

>  <SCORE.RESTR.CAVITY>
0

>  <SCORE.RESTR.norm>
0

>  <SCORE.SYSTEM>
0

>  <SCORE.SYSTEM.CONST>
0

>  <SCORE.SYSTEM.DIHEDRAL>
0

>  <SCORE.SYSTEM.SOLV>
0

>  <SCORE.SYSTEM.norm>
0

>  <SCORE.heavy>
22

>  <SCORE.norm>
-0.428121

>  <RMSD>
5.232

$$$$
ligand
 OpenBabel11021811513D
libRbt.so/2013.1/901 2013/11/27
 22 23  0  0  0  0  0  0  0  0999 V2000
  -30.5333    1.7034  -11.1655 N   0  0  0  0  0  0  0  0  0  0  0  0
  -28.1713    2.1104  -13.5547 C   0  0  1  0  0  0  0  0  0  0  0  0
  -28.8073    2.6550  -12.3636 O   0  0  0  0  0  0  0  0  0  0  0  0
  -29.6606    4.3527  -16.2131 P   0  0  1  0  0  0  0  0  0  0  0  0
  -29.2118    1.5549  -11.5327 C   0  0  2  0  0  0  0  0  0  0  0  0
  -32.6679    1.3505  -10.9930 N   0  0  0  0  0  0  0  0  0  0  0  0
  -28.9867   -0.8186  -11.6426 O   0  0  0  0  0  0  0  0  0  0  0  0
  -29.1549    0.3722  -12.4208 C   0  0  2  0  0  0  0  0  0  0  0  0
  -33.0028    3.4170   -8.0503 N   0  0  0  0  0  0  0  0  0  0  0  0
  -26.7879    0.4729  -12.6064 O   0  0  0  0  0  0  0  0  0  0  0  0
  -28.0310    0.6593  -13.3037 C   0  0  2  0  0  0  0  0  0  0  0  0
  -32.3525    2.3989  -10.2171 C   0  0  0  0  0  0  0  0  0  0  0  0
  -30.2708    3.6235   -9.6423 N   0  0  0  0  0  0  0  0  0  0  0  0
  -28.9848    3.7481  -14.9339 O   0  0  0  0  0  0  0  0  0  0  0  0
  -29.0840    2.3807  -14.7010 C   0  0  0  0  0  0  0  0  0  0  0  0
  -31.1899    4.0795  -15.9744 O   0  0  0  0  0  0  0  0  0  0  0  0
  -31.5365    0.9241  -11.5859 C   0  0  0  0  0  0  0  0  0  0  0  0
  -34.3466    3.6019   -9.8795 O   0  0  0  0  0  0  0  0  0  0  0  0
  -33.2977    3.1771   -9.3951 C   0  0  0  0  0  0  0  0  0  0  0  0
  -31.0094    2.6253  -10.3181 C   0  0  0  0  0  0  0  0  0  0  0  0
  -29.3006    5.7960  -16.3368 O   0  5  0  0  0  0  0  0  0  0  0  0
  -29.0582    3.7926  -17.4363 O   0  0  0  0  0  0  0  0  0  0  0  0
  1 17  1  0  0  0  0
  1 20  1  0  0  0  0
  2 15  1  6  0  0  0
  2  3  1  0  0  0  0
  2 11  1  0  0  0  0
  3  5  1  0  0  0  0
  4 16  1  1  0  0  0
  4 21  1  0  0  0  0
  4 22  2  0  0  0  0
  4 14  1  0  0  0  0
  5  1  1  6  0  0  0
  5  8  1  0  0  0  0
  6 17  2  0  0  0  0
  6 12  1  0  0  0  0
  8  7  1  1  0  0  0
  8 11  1  0  0  0  0
  9 19  1  0  0  0  0
 11 10  1  1  0  0  0
 12 20  2  0  0  0  0
 12 19  1  0  0  0  0
 13 20  1  0  0  0  0
 14 15  1  0  0  0  0
 18 19  2  0  0  0  0
M  CHG  1  21  -1
M  END
>  <CHROM.1>
111.30894491,72.50802624,63.74960178,171.25001751,129.85561776,-30.16545272
2.59335365,-12.77700614,-2.15351547,0.64816400,-0.97350822

>  <Name>
ligand

>  <RI>
0

>  <Rbt.Current_Directory>
/home/itssahil/PROJECTS/Mol_Feturizer/New_Systems/rnas/4XWF

>  <Rbt.Executable>
rbdock ($Id: //depot/dev/client3/rdock/2013.1/src/exe/rbdock.cxx#4 $)

>  <Rbt.Library>
libRbt.so (2013.1, Build901 2013/11/27)

>  <Rbt.Parameter_File>
/export/apps/rDock/src/rDock_2013.1_src/data/scripts/dock_solv.prm

>  <Rbt.Receptor>
prm/pocket_docking_8.prm

>  <SCORE>
-10.3888

>  <SCORE.INTER>
-11.7523

>  <SCORE.INTER.CONST>
1

>  <SCORE.INTER.POLAR>
0

>  <SCORE.INTER.ROT>
5

>  <SCORE.INTER.SOLV>
15.2679

>  <SCORE.INTER.VDW>
-19.8575

>  <SCORE.INTER.norm>
-0.534197

>  <SCORE.INTRA>
1.36354

>  <SCORE.INTRA.DIHEDRAL>
-0.905463

>  <SCORE.INTRA.DIHEDRAL.0>
3.49807

>  <SCORE.INTRA.POLAR>
0

>  <SCORE.INTRA.POLAR.0>
0

>  <SCORE.INTRA.REPUL>
0

>  <SCORE.INTRA.REPUL.0>
0

>  <SCORE.INTRA.SOLV>
-0.616861

>  <SCORE.INTRA.SOLV.lig_0>
-73.062

>  <SCORE.INTRA.VDW>
2.12471

>  <SCORE.INTRA.VDW.0>
-1.83782

>  <SCORE.INTRA.norm>
0.0619792

>  <SCORE.RESTR>
0

>  <SCORE.RESTR.CAVITY>
0

>  <SCORE.RESTR.norm>
0

>  <SCORE.SYSTEM>
0

>  <SCORE.SYSTEM.CONST>
0

>  <SCORE.SYSTEM.DIHEDRAL>
0

>  <SCORE.SYSTEM.SOLV>
0

>  <SCORE.SYSTEM.norm>
0

>  <SCORE.heavy>
22

>  <SCORE.norm>
-0.472218

>  <RMSD>
5.234

$$$$
ligand
 OpenBabel11021811513D
libRbt.so/2013.1/901 2013/11/27
 22 23  0  0  0  0  0  0  0  0999 V2000
  -30.5389    1.5176  -11.0380 N   0  0  0  0  0  0  0  0  0  0  0  0
  -27.8786    2.1629  -13.0277 C   0  0  1  0  0  0  0  0  0  0  0  0
  -28.6412    2.5478  -11.8486 O   0  0  0  0  0  0  0  0  0  0  0  0
  -28.1382    3.2278  -16.6543 P   0  0  1  0  0  0  0  0  0  0  0  0
  -29.1877    1.3548  -11.2634 C   0  0  2  0  0  0  0  0  0  0  0  0
  -32.6876    1.2316  -11.1493 N   0  0  0  0  0  0  0  0  0  0  0  0
  -29.0362   -0.9804  -11.7320 O   0  0  0  0  0  0  0  0  0  0  0  0
  -29.0607    0.3257  -12.3196 C   0  0  2  0  0  0  0  0  0  0  0  0
  -33.4053    2.8786   -8.0632 N   0  0  0  0  0  0  0  0  0  0  0  0
  -26.6873    0.3213  -12.2009 O   0  0  0  0  0  0  0  0  0  0  0  0
  -27.8239    0.6849  -13.0024 C   0  0  2  0  0  0  0  0  0  0  0  0
  -32.4386    2.1872  -10.2408 C   0  0  0  0  0  0  0  0  0  0  0  0
  -30.4079    3.2698   -9.3094 N   0  0  0  0  0  0  0  0  0  0  0  0
  -27.7009    2.6783  -15.2523 O   0  0  0  0  0  0  0  0  0  0  0  0
  -28.6274    2.6616  -14.2154 C   0  0  0  0  0  0  0  0  0  0  0  0
  -28.4257    1.9207  -17.4785 O   0  0  0  0  0  0  0  0  0  0  0  0
  -31.5056    0.8216  -11.6476 C   0  0  0  0  0  0  0  0  0  0  0  0
  -34.3474    3.5465  -10.0258 O   0  0  0  0  0  0  0  0  0  0  0  0
  -33.4536    2.9178   -9.4593 C   0  0  0  0  0  0  0  0  0  0  0  0
  -31.0875    2.3707  -10.1628 C   0  0  0  0  0  0  0  0  0  0  0  0
  -29.3154    4.1315  -16.4947 O   0  5  0  0  0  0  0  0  0  0  0  0
  -27.1256    4.1546  -17.1911 O   0  0  0  0  0  0  0  0  0  0  0  0
  1 17  1  0  0  0  0
  1 20  1  0  0  0  0
  2 15  1  6  0  0  0
  2  3  1  0  0  0  0
  2 11  1  0  0  0  0
  3  5  1  0  0  0  0
  4 16  1  6  0  0  0
  4 21  1  0  0  0  0
  4 22  2  0  0  0  0
  4 14  1  0  0  0  0
  5  1  1  6  0  0  0
  5  8  1  0  0  0  0
  6 17  2  0  0  0  0
  6 12  1  0  0  0  0
  8  7  1  1  0  0  0
  8 11  1  0  0  0  0
  9 19  1  0  0  0  0
 11 10  1  1  0  0  0
 12 20  2  0  0  0  0
 12 19  1  0  0  0  0
 13 20  1  0  0  0  0
 14 15  1  0  0  0  0
 18 19  2  0  0  0  0
M  CHG  1  21  -1
M  END
>  <CHROM.1>
115.01136824,161.06297400,-100.03487521,-176.89005520,122.10956390,-29.71236072
2.16824981,-12.78886900,-2.32325755,0.57818058,-1.01258616

>  <Name>
ligand

>  <RI>
0

>  <Rbt.Current_Directory>
/home/itssahil/PROJECTS/Mol_Feturizer/New_Systems/rnas/4XWF

>  <Rbt.Executable>
rbdock ($Id: //depot/dev/client3/rdock/2013.1/src/exe/rbdock.cxx#4 $)

>  <Rbt.Library>
libRbt.so (2013.1, Build901 2013/11/27)

>  <Rbt.Parameter_File>
/export/apps/rDock/src/rDock_2013.1_src/data/scripts/dock_solv.prm

>  <Rbt.Receptor>
prm/pocket_docking_6.prm

>  <SCORE>
-5.55353

>  <SCORE.INTER>
-8.4133

>  <SCORE.INTER.CONST>
1

>  <SCORE.INTER.POLAR>
0

>  <SCORE.INTER.ROT>
5

>  <SCORE.INTER.SOLV>
12.5291

>  <SCORE.INTER.VDW>
-16.7186

>  <SCORE.INTER.norm>
-0.382423

>  <SCORE.INTRA>
2.85978

>  <SCORE.INTRA.DIHEDRAL>
1.06751

>  <SCORE.INTRA.DIHEDRAL.0>
3.49807

>  <SCORE.INTRA.POLAR>
0

>  <SCORE.INTRA.POLAR.0>
0

>  <SCORE.INTRA.REPUL>
0

>  <SCORE.INTRA.REPUL.0>
0

>  <SCORE.INTRA.SOLV>
-0.265862

>  <SCORE.INTRA.SOLV.lig_0>
-73.062

>  <SCORE.INTRA.VDW>
2.45895

>  <SCORE.INTRA.VDW.0>
-1.83782

>  <SCORE.INTRA.norm>
0.12999

>  <SCORE.RESTR>
0

>  <SCORE.RESTR.CAVITY>
0

>  <SCORE.RESTR.norm>
0

>  <SCORE.SYSTEM>
0

>  <SCORE.SYSTEM.CONST>
0

>  <SCORE.SYSTEM.DIHEDRAL>
0

>  <SCORE.SYSTEM.SOLV>
0

>  <SCORE.SYSTEM.norm>
0

>  <SCORE.heavy>
22

>  <SCORE.norm>
-0.252433

>  <RMSD>
5.235

$$$$
ligand
 OpenBabel11021811513D
libRbt.so/2013.1/901 2013/11/27
 22 23  0  0  0  0  0  0  0  0999 V2000
  -31.0487    2.0844  -10.2060 N   0  0  0  0  0  0  0  0  0  0  0  0
  -28.6019    1.3190  -12.4151 C   0  0  1  0  0  0  0  0  0  0  0  0
  -29.2521    2.3561  -11.6267 O   0  0  0  0  0  0  0  0  0  0  0  0
  -28.2237    2.5938  -15.2145 P   0  0  1  0  0  0  0  0  0  0  0  0
  -29.7234    1.7587  -10.4080 C   0  0  2  0  0  0  0  0  0  0  0  0
  -33.2125    2.0798  -10.3760 N   0  0  0  0  0  0  0  0  0  0  0  0
  -29.5864   -0.4123   -9.4263 O   0  0  0  0  0  0  0  0  0  0  0  0
  -29.6852    0.3014  -10.6642 C   0  0  2  0  0  0  0  0  0  0  0  0
  -33.9250    5.1488   -8.9211 N   0  0  0  0  0  0  0  0  0  0  0  0
  -27.3116    0.2585  -10.7704 O   0  0  0  0  0  0  0  0  0  0  0  0
  -28.5250    0.1353  -11.5311 C   0  0  2  0  0  0  0  0  0  0  0  0
  -32.8689    2.9612   -9.4243 C   0  0  0  0  0  0  0  0  0  0  0  0
  -30.7430    3.7400   -8.4056 N   0  0  0  0  0  0  0  0  0  0  0  0
  -29.4657    2.2493  -14.3214 O   0  0  0  0  0  0  0  0  0  0  0  0
  -29.4685    1.0610  -13.5993 C   0  0  0  0  0  0  0  0  0  0  0  0
  -28.1932    1.4171  -16.2561 O   0  0  0  0  0  0  0  0  0  0  0  0
  -32.0791    1.5409  -10.8643 C   0  0  0  0  0  0  0  0  0  0  0  0
  -34.4632    3.2875   -7.7246 O   0  0  0  0  0  0  0  0  0  0  0  0
  -33.8036    3.7860   -8.6365 C   0  0  0  0  0  0  0  0  0  0  0  0
  -31.5079    2.9675   -9.3094 C   0  0  0  0  0  0  0  0  0  0  0  0
  -28.3973    3.9491  -15.8151 O   0  5  0  0  0  0  0  0  0  0  0  0
  -27.0219    2.7909  -14.3842 O   0  0  0  0  0  0  0  0  0  0  0  0
  1 17  1  0  0  0  0
  1 20  1  0  0  0  0
  2 15  1  6  0  0  0
  2  3  1  0  0  0  0
  2 11  1  0  0  0  0
  3  5  1  0  0  0  0
  4 16  1  6  0  0  0
  4 21  1  0  0  0  0
  4 22  2  0  0  0  0
  4 14  1  0  0  0  0
  5  1  1  6  0  0  0
  5  8  1  0  0  0  0
  6 17  2  0  0  0  0
  6 12  1  0  0  0  0
  8  7  1  1  0  0  0
  8 11  1  0  0  0  0
  9 19  1  0  0  0  0
 11 10  1  1  0  0  0
 12 20  2  0  0  0  0
 12 19  1  0  0  0  0
 13 20  1  0  0  0  0
 14 15  1  0  0  0  0
 18 19  2  0  0  0  0
M  CHG  1  21  -1
M  END
>  <CHROM.1>
75.66841528,64.00468525,61.49020910,78.09866984,-105.31850327,-30.12086326
2.16722432,-11.67715791,-2.51001207,0.68347229,-1.02279121

>  <Name>
ligand

>  <RI>
0

>  <Rbt.Current_Directory>
/home/itssahil/PROJECTS/Mol_Feturizer/New_Systems/rnas/4XWF

>  <Rbt.Executable>
rbdock ($Id: //depot/dev/client3/rdock/2013.1/src/exe/rbdock.cxx#4 $)

>  <Rbt.Library>
libRbt.so (2013.1, Build901 2013/11/27)

>  <Rbt.Parameter_File>
/export/apps/rDock/src/rDock_2013.1_src/data/scripts/dock_solv.prm

>  <Rbt.Receptor>
prm/pocket_docking_6.prm

>  <SCORE>
-8.57794

>  <SCORE.INTER>
-9.73583

>  <SCORE.INTER.CONST>
1

>  <SCORE.INTER.POLAR>
0

>  <SCORE.INTER.ROT>
5

>  <SCORE.INTER.SOLV>
12.5329

>  <SCORE.INTER.VDW>
-17.6015

>  <SCORE.INTER.norm>
-0.442538

>  <SCORE.INTRA>
1.15788

>  <SCORE.INTRA.DIHEDRAL>
-0.138744

>  <SCORE.INTRA.DIHEDRAL.0>
3.49807

>  <SCORE.INTRA.POLAR>
0

>  <SCORE.INTRA.POLAR.0>
0

>  <SCORE.INTRA.REPUL>
0

>  <SCORE.INTRA.REPUL.0>
0

>  <SCORE.INTRA.SOLV>
0.953267

>  <SCORE.INTRA.SOLV.lig_0>
-73.062

>  <SCORE.INTRA.VDW>
0.750624

>  <SCORE.INTRA.VDW.0>
-1.83782

>  <SCORE.INTRA.norm>
0.0526311

>  <SCORE.RESTR>
0

>  <SCORE.RESTR.CAVITY>
0

>  <SCORE.RESTR.norm>
0

>  <SCORE.SYSTEM>
0

>  <SCORE.SYSTEM.CONST>
0

>  <SCORE.SYSTEM.DIHEDRAL>
0

>  <SCORE.SYSTEM.SOLV>
0

>  <SCORE.SYSTEM.norm>
0

>  <SCORE.heavy>
22

>  <SCORE.norm>
-0.389907

>  <RMSD>
5.243

$$$$
ligand
 OpenBabel11021811513D
libRbt.so/2013.1/901 2013/11/27
 22 23  0  0  0  0  0  0  0  0999 V2000
  -29.1749    0.6270  -11.6208 N   0  0  0  0  0  0  0  0  0  0  0  0
  -26.7399    1.0863  -13.9256 C   0  0  1  0  0  0  0  0  0  0  0  0
  -27.3459    1.5457  -12.6841 O   0  0  0  0  0  0  0  0  0  0  0  0
  -28.3674    3.8091  -15.9984 P   0  0  1  0  0  0  0  0  0  0  0  0
  -27.8658    0.3991  -11.9919 C   0  0  2  0  0  0  0  0  0  0  0  0
  -31.3156    0.9622  -11.7471 N   0  0  0  0  0  0  0  0  0  0  0  0
  -27.8581   -1.9560  -12.3786 O   0  0  0  0  0  0  0  0  0  0  0  0
  -27.9009   -0.6723  -13.0126 C   0  0  2  0  0  0  0  0  0  0  0  0
  -33.1482    1.6404   -9.5067 N   0  0  0  0  0  0  0  0  0  0  0  0
  -25.5316   -0.7728  -13.1652 O   0  0  0  0  0  0  0  0  0  0  0  0
  -26.7386   -0.3908  -13.8461 C   0  0  2  0  0  0  0  0  0  0  0  0
  -30.9775    0.8974  -10.4502 C   0  0  0  0  0  0  0  0  0  0  0  0
  -28.8787    0.5311   -9.1756 N   0  0  0  0  0  0  0  0  0  0  0  0
  -27.5603    2.9601  -14.9562 O   0  0  0  0  0  0  0  0  0  0  0  0
  -27.6015    1.5726  -15.0397 C   0  0  0  0  0  0  0  0  0  0  0  0
  -29.8623    3.5704  -15.5754 O   0  0  0  0  0  0  0  0  0  0  0  0
  -30.1925    0.7999  -12.4723 C   0  0  0  0  0  0  0  0  0  0  0  0
  -31.5827    0.6388   -8.1909 O   0  0  0  0  0  0  0  0  0  0  0  0
  -31.9034    1.0362   -9.3109 C   0  0  0  0  0  0  0  0  0  0  0  0
  -29.6314    0.6835  -10.3626 C   0  0  0  0  0  0  0  0  0  0  0  0
  -27.9254    5.2334  -15.9362 O   0  5  0  0  0  0  0  0  0  0  0  0
  -27.9895    3.4429  -17.3753 O   0  0  0  0  0  0  0  0  0  0  0  0
  1 17  1  0  0  0  0
  1 20  1  0  0  0  0
  2 15  1  6  0  0  0
  2  3  1  0  0  0  0
  2 11  1  0  0  0  0
  3  5  1  0  0  0  0
  4 16  1  1  0  0  0
  4 21  1  0  0  0  0
  4 22  2  0  0  0  0
  4 14  1  0  0  0  0
  5  1  1  6  0  0  0
  5  8  1  0  0  0  0
  6 17  2  0  0  0  0
  6 12  1  0  0  0  0
  8  7  1  1  0  0  0
  8 11  1  0  0  0  0
  9 19  1  0  0  0  0
 11 10  1  1  0  0  0
 12 20  2  0  0  0  0
 12 19  1  0  0  0  0
 13 20  1  0  0  0  0
 14 15  1  0  0  0  0
 18 19  2  0  0  0  0
M  CHG  1  21  -1
M  END
>  <CHROM.1>
64.70559271,62.11718679,71.20168898,179.81817683,-19.11271597,-28.82731886
1.43963340,-12.93760116,-2.08853249,0.60099091,-0.84486984

>  <Name>
ligand

>  <RI>
0

>  <Rbt.Current_Directory>
/home/itssahil/PROJECTS/Mol_Feturizer/New_Systems/rnas/4XWF

>  <Rbt.Executable>
rbdock ($Id: //depot/dev/client3/rdock/2013.1/src/exe/rbdock.cxx#4 $)

>  <Rbt.Library>
libRbt.so (2013.1, Build901 2013/11/27)

>  <Rbt.Parameter_File>
/export/apps/rDock/src/rDock_2013.1_src/data/scripts/dock_solv.prm

>  <Rbt.Receptor>
prm/pocket_docking_5.prm

>  <SCORE>
-6.22251

>  <SCORE.INTER>
-5.20403

>  <SCORE.INTER.CONST>
1

>  <SCORE.INTER.POLAR>
0

>  <SCORE.INTER.ROT>
5

>  <SCORE.INTER.SOLV>
8.95203

>  <SCORE.INTER.VDW>
-13.3867

>  <SCORE.INTER.norm>
-0.236547

>  <SCORE.INTRA>
-1.01848

>  <SCORE.INTRA.DIHEDRAL>
-1.42942

>  <SCORE.INTRA.DIHEDRAL.0>
3.49807

>  <SCORE.INTRA.POLAR>
0

>  <SCORE.INTRA.POLAR.0>
0

>  <SCORE.INTRA.REPUL>
0

>  <SCORE.INTRA.REPUL.0>
0

>  <SCORE.INTRA.SOLV>
-0.984023

>  <SCORE.INTRA.SOLV.lig_0>
-73.062

>  <SCORE.INTRA.VDW>
0.188239

>  <SCORE.INTRA.VDW.0>
-1.83782

>  <SCORE.INTRA.norm>
-0.0462946

>  <SCORE.RESTR>
0

>  <SCORE.RESTR.CAVITY>
0

>  <SCORE.RESTR.norm>
0

>  <SCORE.SYSTEM>
0

>  <SCORE.SYSTEM.CONST>
0

>  <SCORE.SYSTEM.DIHEDRAL>
0

>  <SCORE.SYSTEM.SOLV>
0

>  <SCORE.SYSTEM.norm>
0

>  <SCORE.heavy>
22

>  <SCORE.norm>
-0.282841

>  <RMSD>
5.244

$$$$
ligand
 OpenBabel11021811513D
libRbt.so/2013.1/901 2013/11/27
 22 23  0  0  0  0  0  0  0  0999 V2000
  -31.1348    2.2182  -10.0753 N   0  0  0  0  0  0  0  0  0  0  0  0
  -28.6859    1.1970  -12.1760 C   0  0  1  0  0  0  0  0  0  0  0  0
  -29.2492    2.2937  -11.4014 O   0  0  0  0  0  0  0  0  0  0  0  0
  -28.0397    2.5002  -14.9051 P   0  0  1  0  0  0  0  0  0  0  0  0
  -29.8483    1.7409  -10.2183 C   0  0  2  0  0  0  0  0  0  0  0  0
  -33.2867    2.4131  -10.2816 N   0  0  0  0  0  0  0  0  0  0  0  0
  -30.0167   -0.4431   -9.2710 O   0  0  0  0  0  0  0  0  0  0  0  0
  -29.9683    0.2926  -10.4990 C   0  0  2  0  0  0  0  0  0  0  0  0
  -33.2600    5.6633   -8.6129 N   0  0  0  0  0  0  0  0  0  0  0  0
  -27.6138   -0.0287  -10.4899 O   0  0  0  0  0  0  0  0  0  0  0  0
  -28.7932    0.0016  -11.3111 C   0  0  2  0  0  0  0  0  0  0  0  0
  -32.8612    3.3528   -9.4233 C   0  0  0  0  0  0  0  0  0  0  0  0
  -30.6738    4.0188   -8.4563 N   0  0  0  0  0  0  0  0  0  0  0  0
  -29.3581    2.2569  -14.0919 O   0  0  0  0  0  0  0  0  0  0  0  0
  -29.5158    1.0578  -13.4056 C   0  0  0  0  0  0  0  0  0  0  0  0
  -28.1239    1.4305  -16.0537 O   0  0  0  0  0  0  0  0  0  0  0  0
  -32.2109    1.7134  -10.6899 C   0  0  0  0  0  0  0  0  0  0  0  0
  -34.8060    4.0245   -8.2815 O   0  0  0  0  0  0  0  0  0  0  0  0
  -33.7121    4.3475   -8.7443 C   0  0  0  0  0  0  0  0  0  0  0  0
  -31.5075    3.2345   -9.2860 C   0  0  0  0  0  0  0  0  0  0  0  0
  -27.9950    3.9153  -15.3778 O   0  5  0  0  0  0  0  0  0  0  0  0
  -26.8626    2.4478  -14.0196 O   0  0  0  0  0  0  0  0  0  0  0  0
  1 17  1  0  0  0  0
  1 20  1  0  0  0  0
  2 15  1  6  0  0  0
  2  3  1  0  0  0  0
  2 11  1  0  0  0  0
  3  5  1  0  0  0  0
  4 16  1  6  0  0  0
  4 21  1  0  0  0  0
  4 22  2  0  0  0  0
  4 14  1  0  0  0  0
  5  1  1  6  0  0  0
  5  8  1  0  0  0  0
  6 17  2  0  0  0  0
  6 12  1  0  0  0  0
  8  7  1  1  0  0  0
  8 11  1  0  0  0  0
  9 19  1  0  0  0  0
 11 10  1  1  0  0  0
 12 20  2  0  0  0  0
 12 19  1  0  0  0  0
 13 20  1  0  0  0  0
 14 15  1  0  0  0  0
 18 19  2  0  0  0  0
M  CHG  1  21  -1
M  END
>  <CHROM.1>
83.09060191,62.85883810,66.23607361,77.49736583,-139.17623610,-30.12862820
2.25160792,-11.51869383,-2.69775760,0.76342271,-0.87563016

>  <Name>
ligand

>  <RI>
0

>  <Rbt.Current_Directory>
/home/itssahil/PROJECTS/Mol_Feturizer/New_Systems/rnas/4XWF

>  <Rbt.Executable>
rbdock ($Id: //depot/dev/client3/rdock/2013.1/src/exe/rbdock.cxx#4 $)

>  <Rbt.Library>
libRbt.so (2013.1, Build901 2013/11/27)

>  <Rbt.Parameter_File>
/export/apps/rDock/src/rDock_2013.1_src/data/scripts/dock_solv.prm

>  <Rbt.Receptor>
prm/pocket_docking_5.prm

>  <SCORE>
-8.40282

>  <SCORE.INTER>
-10.2397

>  <SCORE.INTER.CONST>
1

>  <SCORE.INTER.POLAR>
0

>  <SCORE.INTER.ROT>
5

>  <SCORE.INTER.SOLV>
12.6992

>  <SCORE.INTER.VDW>
-17.9929

>  <SCORE.INTER.norm>
-0.465442

>  <SCORE.INTRA>
1.83691

>  <SCORE.INTRA.DIHEDRAL>
-0.0911754

>  <SCORE.INTRA.DIHEDRAL.0>
3.49807

>  <SCORE.INTRA.POLAR>
0

>  <SCORE.INTRA.POLAR.0>
0

>  <SCORE.INTRA.REPUL>
0

>  <SCORE.INTRA.REPUL.0>
0

>  <SCORE.INTRA.SOLV>
1.34616

>  <SCORE.INTRA.SOLV.lig_0>
-73.062

>  <SCORE.INTRA.VDW>
1.20942

>  <SCORE.INTRA.VDW.0>
-1.83782

>  <SCORE.INTRA.norm>
0.0834959

>  <SCORE.RESTR>
0

>  <SCORE.RESTR.CAVITY>
0

>  <SCORE.RESTR.norm>
0

>  <SCORE.SYSTEM>
0

>  <SCORE.SYSTEM.CONST>
0

>  <SCORE.SYSTEM.DIHEDRAL>
0

>  <SCORE.SYSTEM.SOLV>
0

>  <SCORE.SYSTEM.norm>
0

>  <SCORE.heavy>
22

>  <SCORE.norm>
-0.381946

>  <RMSD>
5.245

$$$$
ligand
 OpenBabel11021811513D
libRbt.so/2013.1/901 2013/11/27
 22 23  0  0  0  0  0  0  0  0999 V2000
  -30.0372    1.5988  -11.6491 N   0  0  0  0  0  0  0  0  0  0  0  0
  -27.9965    2.6149  -14.1502 C   0  0  1  0  0  0  0  0  0  0  0  0
  -28.6038    2.9345  -12.8661 O   0  0  0  0  0  0  0  0  0  0  0  0
  -30.1007    4.8007  -16.4107 P   0  0  1  0  0  0  0  0  0  0  0  0
  -28.7474    1.7119  -12.1253 C   0  0  2  0  0  0  0  0  0  0  0  0
  -32.0962    0.9466  -11.4341 N   0  0  0  0  0  0  0  0  0  0  0  0
  -28.1487   -0.5687  -12.4947 O   0  0  0  0  0  0  0  0  0  0  0  0
  -28.5778    0.6401  -13.1320 C   0  0  2  0  0  0  0  0  0  0  0  0
  -33.2509    3.5524   -9.4029 N   0  0  0  0  0  0  0  0  0  0  0  0
  -26.2852    1.1604  -13.4790 O   0  0  0  0  0  0  0  0  0  0  0  0
  -27.5993    1.1928  -14.0606 C   0  0  2  0  0  0  0  0  0  0  0  0
  -31.8244    1.8096  -10.4432 C   0  0  0  0  0  0  0  0  0  0  0  0
  -29.8420    3.1148   -9.7153 N   0  0  0  0  0  0  0  0  0  0  0  0
  -29.2134    4.2040  -15.2638 O   0  0  0  0  0  0  0  0  0  0  0  0
  -29.0398    2.8261  -15.1928 C   0  0  0  0  0  0  0  0  0  0  0  0
  -31.5403    4.2757  -16.0609 O   0  0  0  0  0  0  0  0  0  0  0  0
  -30.9856    0.8222  -12.1856 C   0  0  0  0  0  0  0  0  0  0  0  0
  -33.1173    1.4627   -8.5078 O   0  0  0  0  0  0  0  0  0  0  0  0
  -32.7671    2.2413   -9.3946 C   0  0  0  0  0  0  0  0  0  0  0  0
  -30.5287    2.2224  -10.5701 C   0  0  0  0  0  0  0  0  0  0  0  0
  -29.9695    6.2875  -16.4254 O   0  5  0  0  0  0  0  0  0  0  0  0
  -29.5553    4.4434  -17.7327 O   0  0  0  0  0  0  0  0  0  0  0  0
  1 17  1  0  0  0  0
  1 20  1  0  0  0  0
  2 15  1  6  0  0  0
  2  3  1  0  0  0  0
  2 11  1  0  0  0  0
  3  5  1  0  0  0  0
  4 16  1  1  0  0  0
  4 21  1  0  0  0  0
  4 22  2  0  0  0  0
  4 14  1  0  0  0  0
  5  1  1  6  0  0  0
  5  8  1  0  0  0  0
  6 17  2  0  0  0  0
  6 12  1  0  0  0  0
  8  7  1  1  0  0  0
  8 11  1  0  0  0  0
  9 19  1  0  0  0  0
 11 10  1  1  0  0  0
 12 20  2  0  0  0  0
 12 19  1  0  0  0  0
 13 20  1  0  0  0  0
 14 15  1  0  0  0  0
 18 19  2  0  0  0  0
M  CHG  1  21  -1
M  END
>  <CHROM.1>
102.20112133,70.87999049,66.55497431,171.41251055,-109.99308106,-29.96040186
2.64314325,-13.14148954,-1.94057929,0.56272421,-0.97690155

>  <Name>
ligand

>  <RI>
0

>  <Rbt.Current_Directory>
/home/itssahil/PROJECTS/Mol_Feturizer/New_Systems/rnas/4XWF

>  <Rbt.Executable>
rbdock ($Id: //depot/dev/client3/rdock/2013.1/src/exe/rbdock.cxx#4 $)

>  <Rbt.Library>
libRbt.so (2013.1, Build901 2013/11/27)

>  <Rbt.Parameter_File>
/export/apps/rDock/src/rDock_2013.1_src/data/scripts/dock_solv.prm

>  <Rbt.Receptor>
prm/pocket_docking_6.prm

>  <SCORE>
-8.88642

>  <SCORE.INTER>
-9.89186

>  <SCORE.INTER.CONST>
1

>  <SCORE.INTER.POLAR>
0

>  <SCORE.INTER.ROT>
5

>  <SCORE.INTER.SOLV>
13.0636

>  <SCORE.INTER.VDW>
-17.8824

>  <SCORE.INTER.norm>
-0.44963

>  <SCORE.INTRA>
1.00544

>  <SCORE.INTRA.DIHEDRAL>
-0.994097

>  <SCORE.INTRA.DIHEDRAL.0>
3.49807

>  <SCORE.INTRA.POLAR>
0

>  <SCORE.INTRA.POLAR.0>
0

>  <SCORE.INTRA.REPUL>
0

>  <SCORE.INTRA.REPUL.0>
0

>  <SCORE.INTRA.SOLV>
-0.834845

>  <SCORE.INTRA.SOLV.lig_0>
-73.062

>  <SCORE.INTRA.VDW>
1.91992

>  <SCORE.INTRA.VDW.0>
-1.83782

>  <SCORE.INTRA.norm>
0.045702

>  <SCORE.RESTR>
0

>  <SCORE.RESTR.CAVITY>
0

>  <SCORE.RESTR.norm>
0

>  <SCORE.SYSTEM>
0

>  <SCORE.SYSTEM.CONST>
0

>  <SCORE.SYSTEM.DIHEDRAL>
0

>  <SCORE.SYSTEM.SOLV>
0

>  <SCORE.SYSTEM.norm>
0

>  <SCORE.heavy>
22

>  <SCORE.norm>
-0.403928

>  <RMSD>
5.256

$$$$
ligand
 OpenBabel11021811513D
libRbt.so/2013.1/901 2013/11/27
 22 23  0  0  0  0  0  0  0  0999 V2000
  -30.2913    1.5732  -11.4139 N   0  0  0  0  0  0  0  0  0  0  0  0
  -28.0785    2.3906  -13.8404 C   0  0  1  0  0  0  0  0  0  0  0  0
  -28.7434    2.7952  -12.6099 O   0  0  0  0  0  0  0  0  0  0  0  0
  -29.8636    4.5034  -16.4243 P   0  0  1  0  0  0  0  0  0  0  0  0
  -28.9738    1.6170  -11.8206 C   0  0  2  0  0  0  0  0  0  0  0  0
  -32.3864    1.0180  -11.2980 N   0  0  0  0  0  0  0  0  0  0  0  0
  -28.4422   -0.6988  -12.0451 O   0  0  0  0  0  0  0  0  0  0  0  0
  -28.7894    0.4909  -12.7633 C   0  0  2  0  0  0  0  0  0  0  0  0
  -33.7880    3.5872   -9.5818 N   0  0  0  0  0  0  0  0  0  0  0  0
  -26.4631    0.9126  -13.0034 O   0  0  0  0  0  0  0  0  0  0  0  0
  -27.7409    0.9617  -13.6600 C   0  0  2  0  0  0  0  0  0  0  0  0
  -32.1299    1.8934  -10.3138 C   0  0  0  0  0  0  0  0  0  0  0  0
  -30.1325    3.1282   -9.5080 N   0  0  0  0  0  0  0  0  0  0  0  0
  -29.0658    3.9552  -15.1907 O   0  0  0  0  0  0  0  0  0  0  0  0
  -29.0539    2.5857  -14.9497 C   0  0  0  0  0  0  0  0  0  0  0  0
  -31.3590    4.1972  -16.0496 O   0  0  0  0  0  0  0  0  0  0  0  0
  -31.2436    0.8255  -11.9838 C   0  0  0  0  0  0  0  0  0  0  0  0
  -33.3158    1.7759   -8.2848 O   0  0  0  0  0  0  0  0  0  0  0  0
  -33.1074    2.3930   -9.3292 C   0  0  0  0  0  0  0  0  0  0  0  0
  -30.8118    2.2453  -10.3785 C   0  0  0  0  0  0  0  0  0  0  0  0
  -29.5569    5.9513  -16.6177 O   0  5  0  0  0  0  0  0  0  0  0  0
  -29.3501    3.9232  -17.6782 O   0  0  0  0  0  0  0  0  0  0  0  0
  1 17  1  0  0  0  0
  1 20  1  0  0  0  0
  2 15  1  6  0  0  0
  2  3  1  0  0  0  0
  2 11  1  0  0  0  0
  3  5  1  0  0  0  0
  4 16  1  1  0  0  0
  4 21  1  0  0  0  0
  4 22  2  0  0  0  0
  4 14  1  0  0  0  0
  5  1  1  6  0  0  0
  5  8  1  0  0  0  0
  6 17  2  0  0  0  0
  6 12  1  0  0  0  0
  8  7  1  1  0  0  0
  8 11  1  0  0  0  0
  9 19  1  0  0  0  0
 11 10  1  1  0  0  0
 12 20  2  0  0  0  0
 12 19  1  0  0  0  0
 13 20  1  0  0  0  0
 14 15  1  0  0  0  0
 18 19  2  0  0  0  0
M  CHG  1  21  -1
M  END
>  <CHROM.1>
100.70711559,76.92371311,66.77336619,172.68862697,-93.62050334,-30.05988380
2.52334214,-12.97353710,-2.01848031,0.55485611,-0.99386516

>  <Name>
ligand

>  <RI>
0

>  <Rbt.Current_Directory>
/home/itssahil/PROJECTS/Mol_Feturizer/New_Systems/rnas/4XWF

>  <Rbt.Executable>
rbdock ($Id: //depot/dev/client3/rdock/2013.1/src/exe/rbdock.cxx#4 $)

>  <Rbt.Library>
libRbt.so (2013.1, Build901 2013/11/27)

>  <Rbt.Parameter_File>
/export/apps/rDock/src/rDock_2013.1_src/data/scripts/dock_solv.prm

>  <Rbt.Receptor>
prm/pocket_docking_8.prm

>  <SCORE>
-9.38104

>  <SCORE.INTER>
-10.7642

>  <SCORE.INTER.CONST>
1

>  <SCORE.INTER.POLAR>
0

>  <SCORE.INTER.ROT>
5

>  <SCORE.INTER.SOLV>
14.1363

>  <SCORE.INTER.VDW>
-18.8216

>  <SCORE.INTER.norm>
-0.489281

>  <SCORE.INTRA>
1.38314

>  <SCORE.INTRA.DIHEDRAL>
0.0315583

>  <SCORE.INTRA.DIHEDRAL.0>
3.49807

>  <SCORE.INTRA.POLAR>
0

>  <SCORE.INTRA.POLAR.0>
0

>  <SCORE.INTRA.REPUL>
0

>  <SCORE.INTRA.REPUL.0>
0

>  <SCORE.INTRA.SOLV>
-0.96572

>  <SCORE.INTRA.SOLV.lig_0>
-73.062

>  <SCORE.INTRA.VDW>
1.85022

>  <SCORE.INTRA.VDW.0>
-1.83782

>  <SCORE.INTRA.norm>
0.0628702

>  <SCORE.RESTR>
0

>  <SCORE.RESTR.CAVITY>
0

>  <SCORE.RESTR.norm>
0

>  <SCORE.SYSTEM>
0

>  <SCORE.SYSTEM.CONST>
0

>  <SCORE.SYSTEM.DIHEDRAL>
0

>  <SCORE.SYSTEM.SOLV>
0

>  <SCORE.SYSTEM.norm>
0

>  <SCORE.heavy>
22

>  <SCORE.norm>
-0.426411

>  <RMSD>
5.263

$$$$
ligand
 OpenBabel11021811513D
libRbt.so/2013.1/901 2013/11/27
 22 23  0  0  0  0  0  0  0  0999 V2000
  -30.3656    1.7118  -11.2927 N   0  0  0  0  0  0  0  0  0  0  0  0
  -28.1200    2.2263  -13.7716 C   0  0  1  0  0  0  0  0  0  0  0  0
  -28.7269    2.7373  -12.5508 O   0  0  0  0  0  0  0  0  0  0  0  0
  -29.7514    4.4212  -16.3820 P   0  0  1  0  0  0  0  0  0  0  0  0
  -29.0555    1.6162  -11.7144 C   0  0  2  0  0  0  0  0  0  0  0  0
  -32.4781    1.2809  -11.0426 N   0  0  0  0  0  0  0  0  0  0  0  0
  -28.7462   -0.7461  -11.8553 O   0  0  0  0  0  0  0  0  0  0  0  0
  -28.9905    0.4434  -12.6150 C   0  0  2  0  0  0  0  0  0  0  0  0
  -32.8258    3.1741   -8.0238 N   0  0  0  0  0  0  0  0  0  0  0  0
  -26.6385    0.6351  -12.8953 O   0  0  0  0  0  0  0  0  0  0  0  0
  -27.9152    0.7797  -13.5400 C   0  0  2  0  0  0  0  0  0  0  0  0
  -32.1683    2.3264  -10.2606 C   0  0  0  0  0  0  0  0  0  0  0  0
  -30.1088    3.6137   -9.7459 N   0  0  0  0  0  0  0  0  0  0  0  0
  -29.0390    3.8406  -15.1116 O   0  0  0  0  0  0  0  0  0  0  0  0
  -29.0881    2.4707  -14.8775 C   0  0  0  0  0  0  0  0  0  0  0  0
  -31.2756    4.1885  -16.0767 O   0  0  0  0  0  0  0  0  0  0  0  0
  -31.3573    0.9048  -11.6875 C   0  0  0  0  0  0  0  0  0  0  0  0
  -34.1366    3.5482   -9.8479 O   0  0  0  0  0  0  0  0  0  0  0  0
  -33.1062    3.0567   -9.3878 C   0  0  0  0  0  0  0  0  0  0  0  0
  -30.8390    2.6018  -10.4103 C   0  0  0  0  0  0  0  0  0  0  0  0
  -29.3669    5.8519  -16.5638 O   0  5  0  0  0  0  0  0  0  0  0  0
  -29.2087    3.8117  -17.6095 O   0  0  0  0  0  0  0  0  0  0  0  0
  1 17  1  0  0  0  0
  1 20  1  0  0  0  0
  2 15  1  6  0  0  0
  2  3  1  0  0  0  0
  2 11  1  0  0  0  0
  3  5  1  0  0  0  0
  4 16  1  1  0  0  0
  4 21  1  0  0  0  0
  4 22  2  0  0  0  0
  4 14  1  0  0  0  0
  5  1  1  6  0  0  0
  5  8  1  0  0  0  0
  6 17  2  0  0  0  0
  6 12  1  0  0  0  0
  8  7  1  1  0  0  0
  8 11  1  0  0  0  0
  9 19  1  0  0  0  0
 11 10  1  1  0  0  0
 12 20  2  0  0  0  0
 12 19  1  0  0  0  0
 13 20  1  0  0  0  0
 14 15  1  0  0  0  0
 18 19  2  0  0  0  0
M  CHG  1  21  -1
M  END
>  <CHROM.1>
110.75582326,73.14714316,67.66161912,169.51569168,123.82386920,-30.08304436
2.62249468,-12.91741842,-2.08732940,0.63983581,-1.00482046

>  <Name>
ligand

>  <RI>
0

>  <Rbt.Current_Directory>
/home/itssahil/PROJECTS/Mol_Feturizer/New_Systems/rnas/4XWF

>  <Rbt.Executable>
rbdock ($Id: //depot/dev/client3/rdock/2013.1/src/exe/rbdock.cxx#4 $)

>  <Rbt.Library>
libRbt.so (2013.1, Build901 2013/11/27)

>  <Rbt.Parameter_File>
/export/apps/rDock/src/rDock_2013.1_src/data/scripts/dock_solv.prm

>  <Rbt.Receptor>
prm/pocket_docking_7.prm

>  <SCORE>
-10.3159

>  <SCORE.INTER>
-11.744

>  <SCORE.INTER.CONST>
1

>  <SCORE.INTER.POLAR>
0

>  <SCORE.INTER.ROT>
5

>  <SCORE.INTER.SOLV>
14.5512

>  <SCORE.INTER.VDW>
-19.613

>  <SCORE.INTER.norm>
-0.533817

>  <SCORE.INTRA>
1.4281

>  <SCORE.INTRA.DIHEDRAL>
-0.733476

>  <SCORE.INTRA.DIHEDRAL.0>
3.49807

>  <SCORE.INTRA.POLAR>
0

>  <SCORE.INTRA.POLAR.0>
0

>  <SCORE.INTRA.REPUL>
0

>  <SCORE.INTRA.REPUL.0>
0

>  <SCORE.INTRA.SOLV>
-0.634846

>  <SCORE.INTRA.SOLV.lig_0>
-73.062

>  <SCORE.INTRA.VDW>
2.11226

>  <SCORE.INTRA.VDW.0>
-1.83782

>  <SCORE.INTRA.norm>
0.0649134

>  <SCORE.RESTR>
0

>  <SCORE.RESTR.CAVITY>
0

>  <SCORE.RESTR.norm>
0

>  <SCORE.SYSTEM>
0

>  <SCORE.SYSTEM.CONST>
0

>  <SCORE.SYSTEM.DIHEDRAL>
0

>  <SCORE.SYSTEM.SOLV>
0

>  <SCORE.SYSTEM.norm>
0

>  <SCORE.heavy>
22

>  <SCORE.norm>
-0.468904

>  <RMSD>
5.268

$$$$
ligand
 OpenBabel11021811513D
libRbt.so/2013.1/901 2013/11/27
 22 23  0  0  0  0  0  0  0  0999 V2000
  -30.2354    1.5352  -11.3891 N   0  0  0  0  0  0  0  0  0  0  0  0
  -28.0422    2.2887  -13.8537 C   0  0  1  0  0  0  0  0  0  0  0  0
  -28.6808    2.7163  -12.6171 O   0  0  0  0  0  0  0  0  0  0  0  0
  -29.8200    4.4238  -16.4208 P   0  0  1  0  0  0  0  0  0  0  0  0
  -28.9234    1.5491  -11.8151 C   0  0  2  0  0  0  0  0  0  0  0  0
  -32.3457    1.0450  -11.2573 N   0  0  0  0  0  0  0  0  0  0  0  0
  -28.4418   -0.7786  -12.0285 O   0  0  0  0  0  0  0  0  0  0  0  0
  -28.7755    0.4122  -12.7512 C   0  0  2  0  0  0  0  0  0  0  0  0
  -33.4478    3.6981   -9.3111 N   0  0  0  0  0  0  0  0  0  0  0  0
  -26.4449    0.7848  -13.0282 O   0  0  0  0  0  0  0  0  0  0  0  0
  -27.7309    0.8547  -13.6667 C   0  0  2  0  0  0  0  0  0  0  0  0
  -32.0459    1.8798  -10.2504 C   0  0  0  0  0  0  0  0  0  0  0  0
  -29.9972    3.0229   -9.4382 N   0  0  0  0  0  0  0  0  0  0  0  0
  -29.0446    3.8668  -15.1770 O   0  0  0  0  0  0  0  0  0  0  0  0
  -29.0295    2.4948  -14.9505 C   0  0  0  0  0  0  0  0  0  0  0  0
  -31.3237    4.1358  -16.0648 O   0  0  0  0  0  0  0  0  0  0  0  0
  -31.2202    0.8374  -11.9669 C   0  0  0  0  0  0  0  0  0  0  0  0
  -33.3686    1.6505   -8.3178 O   0  0  0  0  0  0  0  0  0  0  0  0
  -32.9917    2.3794   -9.2353 C   0  0  0  0  0  0  0  0  0  0  0  0
  -30.7180    2.1906  -10.3250 C   0  0  0  0  0  0  0  0  0  0  0  0
  -29.4936    5.8678  -16.6109 O   0  5  0  0  0  0  0  0  0  0  0  0
  -29.2979    3.8367  -17.6679 O   0  0  0  0  0  0  0  0  0  0  0  0
  1 17  1  0  0  0  0
  1 20  1  0  0  0  0
  2 15  1  6  0  0  0
  2  3  1  0  0  0  0
  2 11  1  0  0  0  0
  3  5  1  0  0  0  0
  4 16  1  1  0  0  0
  4 21  1  0  0  0  0
  4 22  2  0  0  0  0
  4 14  1  0  0  0  0
  5  1  1  6  0  0  0
  5  8  1  0  0  0  0
  6 17  2  0  0  0  0
  6 12  1  0  0  0  0
  8  7  1  1  0  0  0
  8 11  1  0  0  0  0
  9 19  1  0  0  0  0
 11 10  1  1  0  0  0
 12 20  2  0  0  0  0
 12 19  1  0  0  0  0
 13 20  1  0  0  0  0
 14 15  1  0  0  0  0
 18 19  2  0  0  0  0
M  CHG  1  21  -1
M  END
>  <CHROM.1>
98.33265361,75.32465180,68.06320372,170.87071055,-105.28397507,-30.00470612
2.45957726,-12.94933438,-2.01584772,0.57987315,-0.99807697

>  <Name>
ligand

>  <RI>
0

>  <Rbt.Current_Directory>
/home/itssahil/PROJECTS/Mol_Feturizer/New_Systems/rnas/4XWF

>  <Rbt.Executable>
rbdock ($Id: //depot/dev/client3/rdock/2013.1/src/exe/rbdock.cxx#4 $)

>  <Rbt.Library>
libRbt.so (2013.1, Build901 2013/11/27)

>  <Rbt.Parameter_File>
/export/apps/rDock/src/rDock_2013.1_src/data/scripts/dock_solv.prm

>  <Rbt.Receptor>
prm/pocket_docking_6.prm

>  <SCORE>
-9.48517

>  <SCORE.INTER>
-10.5726

>  <SCORE.INTER.CONST>
1

>  <SCORE.INTER.POLAR>
0

>  <SCORE.INTER.ROT>
5

>  <SCORE.INTER.SOLV>
12.6295

>  <SCORE.INTER.VDW>
-18.1916

>  <SCORE.INTER.norm>
-0.480575

>  <SCORE.INTRA>
1.08748

>  <SCORE.INTRA.DIHEDRAL>
-0.403747

>  <SCORE.INTRA.DIHEDRAL.0>
3.49807

>  <SCORE.INTRA.POLAR>
0

>  <SCORE.INTRA.POLAR.0>
0

>  <SCORE.INTRA.REPUL>
0

>  <SCORE.INTRA.REPUL.0>
0

>  <SCORE.INTRA.SOLV>
-0.920336

>  <SCORE.INTRA.SOLV.lig_0>
-73.062

>  <SCORE.INTRA.VDW>
1.74952

>  <SCORE.INTRA.VDW.0>
-1.83782

>  <SCORE.INTRA.norm>
0.0494308

>  <SCORE.RESTR>
0

>  <SCORE.RESTR.CAVITY>
0

>  <SCORE.RESTR.norm>
0

>  <SCORE.SYSTEM>
0

>  <SCORE.SYSTEM.CONST>
0

>  <SCORE.SYSTEM.DIHEDRAL>
0

>  <SCORE.SYSTEM.SOLV>
0

>  <SCORE.SYSTEM.norm>
0

>  <SCORE.heavy>
22

>  <SCORE.norm>
-0.431144

>  <RMSD>
5.272

$$$$
ligand
 OpenBabel11021811513D
libRbt.so/2013.1/901 2013/11/27
 22 23  0  0  0  0  0  0  0  0999 V2000
  -31.7127    3.4966   -8.9551 N   0  0  0  0  0  0  0  0  0  0  0  0
  -29.2808    1.7073  -10.4835 C   0  0  1  0  0  0  0  0  0  0  0  0
  -29.6647    2.5028   -9.3261 O   0  0  0  0  0  0  0  0  0  0  0  0
  -28.0572    2.5650  -13.9645 P   0  0  1  0  0  0  0  0  0  0  0  0
  -31.0638    2.2858   -9.0815 C   0  0  2  0  0  0  0  0  0  0  0  0
  -32.1681    5.6107   -9.1405 N   0  0  0  0  0  0  0  0  0  0  0  0
  -32.7560    0.9100  -10.0508 O   0  0  0  0  0  0  0  0  0  0  0  0
  -31.5717    1.6671  -10.3265 C   0  0  2  0  0  0  0  0  0  0  0  0
  -34.4487    7.0895   -7.9787 N   0  0  0  0  0  0  0  0  0  0  0  0
  -30.3288   -0.3296   -9.9861 O   0  0  0  0  0  0  0  0  0  0  0  0
  -30.4518    0.8565  -10.7889 C   0  0  2  0  0  0  0  0  0  0  0  0
  -33.1837    5.0186   -8.4936 C   0  0  0  0  0  0  0  0  0  0  0  0
  -33.7286    2.7045   -7.7784 N   0  0  0  0  0  0  0  0  0  0  0  0
  -28.4098    1.8897  -12.5940 O   0  0  0  0  0  0  0  0  0  0  0  0
  -28.9929    2.6591  -11.5931 C   0  0  0  0  0  0  0  0  0  0  0  0
  -29.4322    2.5709  -14.7260 O   0  0  0  0  0  0  0  0  0  0  0  0
  -31.2526    4.6637   -9.4207 C   0  0  0  0  0  0  0  0  0  0  0  0
  -35.3497    5.0377   -7.5742 O   0  0  0  0  0  0  0  0  0  0  0  0
  -34.3955    5.6931   -7.9924 C   0  0  0  0  0  0  0  0  0  0  0  0
  -32.9057    3.6866   -8.3757 C   0  0  0  0  0  0  0  0  0  0  0  0
  -27.4766    3.9187  -13.7228 O   0  5  0  0  0  0  0  0  0  0  0  0
  -26.9298    1.8721  -14.6136 O   0  0  0  0  0  0  0  0  0  0  0  0
  1 17  1  0  0  0  0
  1 20  1  0  0  0  0
  2 15  1  6  0  0  0
  2  3  1  0  0  0  0
  2 11  1  0  0  0  0
  3  5  1  0  0  0  0
  4 16  1  6  0  0  0
  4 21  1  0  0  0  0
  4 22  2  0  0  0  0
  4 14  1  0  0  0  0
  5  1  1  6  0  0  0
  5  8  1  0  0  0  0
  6 17  2  0  0  0  0
  6 12  1  0  0  0  0
  8  7  1  1  0  0  0
  8 11  1  0  0  0  0
  9 19  1  0  0  0  0
 11 10  1  1  0  0  0
 12 20  2  0  0  0  0
 12 19  1  0  0  0  0
 13 20  1  0  0  0  0
 14 15  1  0  0  0  0
 18 19  2  0  0  0  0
M  CHG  1  21  -1
M  END
>  <CHROM.1>
20.80702072,169.84052839,-81.15109057,176.12854628,-10.73046382,-30.82626665
3.00547292,-10.60981402,3.02155483,0.80490956,-0.26663153

>  <Name>
ligand

>  <RI>
0

>  <Rbt.Current_Directory>
/home/itssahil/PROJECTS/Mol_Feturizer/New_Systems/rnas/4XWF

>  <Rbt.Executable>
rbdock ($Id: //depot/dev/client3/rdock/2013.1/src/exe/rbdock.cxx#4 $)

>  <Rbt.Library>
libRbt.so (2013.1, Build901 2013/11/27)

>  <Rbt.Parameter_File>
/export/apps/rDock/src/rDock_2013.1_src/data/scripts/dock_solv.prm

>  <Rbt.Receptor>
prm/pocket_docking_7.prm

>  <SCORE>
-6.34694

>  <SCORE.INTER>
-6.20072

>  <SCORE.INTER.CONST>
1

>  <SCORE.INTER.POLAR>
0

>  <SCORE.INTER.ROT>
5

>  <SCORE.INTER.SOLV>
14.7749

>  <SCORE.INTER.VDW>
-15.9921

>  <SCORE.INTER.norm>
-0.281851

>  <SCORE.INTRA>
-0.146226

>  <SCORE.INTRA.DIHEDRAL>
-0.760888

>  <SCORE.INTRA.DIHEDRAL.0>
3.49807

>  <SCORE.INTRA.POLAR>
0

>  <SCORE.INTRA.POLAR.0>
0

>  <SCORE.INTRA.REPUL>
0

>  <SCORE.INTRA.REPUL.0>
0

>  <SCORE.INTRA.SOLV>
0.546841

>  <SCORE.INTRA.SOLV.lig_0>
-73.062

>  <SCORE.INTRA.VDW>
-0.0392028

>  <SCORE.INTRA.VDW.0>
-1.83782

>  <SCORE.INTRA.norm>
-0.00664666

>  <SCORE.RESTR>
0

>  <SCORE.RESTR.CAVITY>
0

>  <SCORE.RESTR.norm>
0

>  <SCORE.SYSTEM>
0

>  <SCORE.SYSTEM.CONST>
0

>  <SCORE.SYSTEM.DIHEDRAL>
0

>  <SCORE.SYSTEM.SOLV>
0

>  <SCORE.SYSTEM.norm>
0

>  <SCORE.heavy>
22

>  <SCORE.norm>
-0.288497

>  <RMSD>
5.327

$$$$
ligand
 OpenBabel11021811513D
libRbt.so/2013.1/901 2013/11/27
 22 23  0  0  0  0  0  0  0  0999 V2000
  -31.6278    2.7576   -9.1842 N   0  0  0  0  0  0  0  0  0  0  0  0
  -28.6063    2.0826  -10.5506 C   0  0  1  0  0  0  0  0  0  0  0  0
  -29.3870    2.9612   -9.6914 O   0  0  0  0  0  0  0  0  0  0  0  0
  -27.9853    2.0073  -14.2866 P   0  0  1  0  0  0  0  0  0  0  0  0
  -30.3897    2.1672   -9.0367 C   0  0  2  0  0  0  0  0  0  0  0  0
  -33.5915    3.2389   -9.9736 N   0  0  0  0  0  0  0  0  0  0  0  0
  -30.9442   -0.1536   -8.9909 O   0  0  0  0  0  0  0  0  0  0  0  0
  -30.4334    0.9053   -9.8091 C   0  0  2  0  0  0  0  0  0  0  0  0
  -35.1434    4.4914   -7.1625 N   0  0  0  0  0  0  0  0  0  0  0  0
  -28.2530    0.2627   -9.1162 O   0  0  0  0  0  0  0  0  0  0  0  0
  -29.0503    0.7094  -10.2258 C   0  0  2  0  0  0  0  0  0  0  0  0
  -33.4072    3.9467   -8.8486 C   0  0  0  0  0  0  0  0  0  0  0  0
  -31.6022    4.1603   -7.1575 N   0  0  0  0  0  0  0  0  0  0  0  0
  -27.9947    1.7737  -12.7362 O   0  0  0  0  0  0  0  0  0  0  0  0
  -28.9331    2.4436  -11.9588 C   0  0  0  0  0  0  0  0  0  0  0  0
  -29.4286    1.5653  -14.7250 O   0  0  0  0  0  0  0  0  0  0  0  0
  -32.4817    2.5054  -10.1830 C   0  0  0  0  0  0  0  0  0  0  0  0
  -34.5151    6.0193   -8.7297 O   0  0  0  0  0  0  0  0  0  0  0  0
  -34.3731    4.8915   -8.2576 C   0  0  0  0  0  0  0  0  0  0  0  0
  -32.1740    3.6467   -8.3440 C   0  0  0  0  0  0  0  0  0  0  0  0
  -27.6588    3.4343  -14.5777 O   0  5  0  0  0  0  0  0  0  0  0  0
  -26.8473    1.3107  -14.9130 O   0  0  0  0  0  0  0  0  0  0  0  0
  1 17  1  0  0  0  0
  1 20  1  0  0  0  0
  2 15  1  6  0  0  0
  2  3  1  0  0  0  0
  2 11  1  0  0  0  0
  3  5  1  0  0  0  0
  4 16  1  6  0  0  0
  4 21  1  0  0  0  0
  4 22  2  0  0  0  0
  4 14  1  0  0  0  0
  5  1  1  6  0  0  0
  5  8  1  0  0  0  0
  6 17  2  0  0  0  0
  6 12  1  0  0  0  0
  8  7  1  1  0  0  0
  8 11  1  0  0  0  0
  9 19  1  0  0  0  0
 11 10  1  1  0  0  0
 12 20  2  0  0  0  0
 12 19  1  0  0  0  0
 13 20  1  0  0  0  0
 14 15  1  0  0  0  0
 18 19  2  0  0  0  0
M  CHG  1  21  -1
M  END
>  <CHROM.1>
91.06619500,168.98489621,-58.95709611,-175.94444458,101.68279505,-30.42613671
2.53016912,-10.69028466,-2.65502113,0.68594997,-1.09329046

>  <Name>
ligand

>  <RI>
0

>  <Rbt.Current_Directory>
/home/itssahil/PROJECTS/Mol_Feturizer/New_Systems/rnas/4XWF

>  <Rbt.Executable>
rbdock ($Id: //depot/dev/client3/rdock/2013.1/src/exe/rbdock.cxx#4 $)

>  <Rbt.Library>
libRbt.so (2013.1, Build901 2013/11/27)

>  <Rbt.Parameter_File>
/export/apps/rDock/src/rDock_2013.1_src/data/scripts/dock_solv.prm

>  <Rbt.Receptor>
prm/pocket_docking_4.prm

>  <SCORE>
-5.06045

>  <SCORE.INTER>
-5.54723

>  <SCORE.INTER.CONST>
1

>  <SCORE.INTER.POLAR>
0

>  <SCORE.INTER.ROT>
5

>  <SCORE.INTER.SOLV>
10.8801

>  <SCORE.INTER.VDW>
-14.2582

>  <SCORE.INTER.norm>
-0.252147

>  <SCORE.INTRA>
0.486781

>  <SCORE.INTRA.DIHEDRAL>
-1.11765

>  <SCORE.INTRA.DIHEDRAL.0>
3.49807

>  <SCORE.INTRA.POLAR>
0

>  <SCORE.INTRA.POLAR.0>
0

>  <SCORE.INTRA.REPUL>
0

>  <SCORE.INTRA.REPUL.0>
0

>  <SCORE.INTRA.SOLV>
-0.998661

>  <SCORE.INTRA.SOLV.lig_0>
-73.062

>  <SCORE.INTRA.VDW>
1.54493

>  <SCORE.INTRA.VDW.0>
-1.83782

>  <SCORE.INTRA.norm>
0.0221264

>  <SCORE.RESTR>
0

>  <SCORE.RESTR.CAVITY>
0

>  <SCORE.RESTR.norm>
0

>  <SCORE.SYSTEM>
0

>  <SCORE.SYSTEM.CONST>
0

>  <SCORE.SYSTEM.DIHEDRAL>
0

>  <SCORE.SYSTEM.SOLV>
0

>  <SCORE.SYSTEM.norm>
0

>  <SCORE.heavy>
22

>  <SCORE.norm>
-0.23002

>  <RMSD>
5.361

$$$$
ligand
 OpenBabel11021811513D
libRbt.so/2013.1/901 2013/11/27
 22 23  0  0  0  0  0  0  0  0999 V2000
  -30.5434    1.7480  -11.0609 N   0  0  0  0  0  0  0  0  0  0  0  0
  -28.2741    1.9313  -13.5648 C   0  0  1  0  0  0  0  0  0  0  0  0
  -28.8498    2.5731  -12.3915 O   0  0  0  0  0  0  0  0  0  0  0  0
  -27.5344    2.3611  -16.5856 P   0  0  1  0  0  0  0  0  0  0  0  0
  -29.2414    1.5439  -11.4686 C   0  0  2  0  0  0  0  0  0  0  0  0
  -32.6800    1.4693  -10.7992 N   0  0  0  0  0  0  0  0  0  0  0  0
  -29.0679   -0.8358  -11.4171 O   0  0  0  0  0  0  0  0  0  0  0  0
  -29.2444    0.3004  -12.2713 C   0  0  2  0  0  0  0  0  0  0  0  0
  -34.4751    3.6845   -9.7219 N   0  0  0  0  0  0  0  0  0  0  0  0
  -26.8855    0.3341  -12.5572 O   0  0  0  0  0  0  0  0  0  0  0  0
  -28.1523    0.4988  -13.2163 C   0  0  2  0  0  0  0  0  0  0  0  0
  -32.3050    2.5361  -10.0768 C   0  0  0  0  0  0  0  0  0  0  0  0
  -30.1677    3.7156   -9.6246 N   0  0  0  0  0  0  0  0  0  0  0  0
  -28.6229    1.5540  -15.7968 O   0  0  0  0  0  0  0  0  0  0  0  0
  -29.2276    2.1405  -14.6904 C   0  0  0  0  0  0  0  0  0  0  0  0
  -27.1564    1.3948  -17.7663 O   0  0  0  0  0  0  0  0  0  0  0  0
  -31.5844    0.9851  -11.4146 C   0  0  0  0  0  0  0  0  0  0  0  0
  -32.8159    3.8134   -8.1676 O   0  0  0  0  0  0  0  0  0  0  0  0
  -33.1956    3.3746   -9.2531 C   0  0  0  0  0  0  0  0  0  0  0  0
  -30.9603    2.7161  -10.2341 C   0  0  0  0  0  0  0  0  0  0  0  0
  -28.0967    3.6751  -17.0158 O   0  5  0  0  0  0  0  0  0  0  0  0
  -26.4459    2.7861  -15.6872 O   0  0  0  0  0  0  0  0  0  0  0  0
  1 17  1  0  0  0  0
  1 20  1  0  0  0  0
  2 15  1  6  0  0  0
  2  3  1  0  0  0  0
  2 11  1  0  0  0  0
  3  5  1  0  0  0  0
  4 16  1  6  0  0  0
  4 21  1  0  0  0  0
  4 22  2  0  0  0  0
  4 14  1  0  0  0  0
  5  1  1  6  0  0  0
  5  8  1  0  0  0  0
  6 17  2  0  0  0  0
  6 12  1  0  0  0  0
  8  7  1  1  0  0  0
  8 11  1  0  0  0  0
  9 19  1  0  0  0  0
 11 10  1  1  0  0  0
 12 20  2  0  0  0  0
 12 19  1  0  0  0  0
 13 20  1  0  0  0  0
 14 15  1  0  0  0  0
 18 19  2  0  0  0  0
M  CHG  1  21  -1
M  END
>  <CHROM.1>
109.35390016,178.08393856,-177.74496050,-81.83555940,-39.26840797,-29.57596257
2.02854002,-12.81997756,-2.49819036,0.73024409,-0.95743715

>  <Name>
ligand

>  <RI>
0

>  <Rbt.Current_Directory>
/home/itssahil/PROJECTS/Mol_Feturizer/New_Systems/rnas/4XWF

>  <Rbt.Executable>
rbdock ($Id: //depot/dev/client3/rdock/2013.1/src/exe/rbdock.cxx#4 $)

>  <Rbt.Library>
libRbt.so (2013.1, Build901 2013/11/27)

>  <Rbt.Parameter_File>
/export/apps/rDock/src/rDock_2013.1_src/data/scripts/dock_solv.prm

>  <Rbt.Receptor>
prm/pocket_docking_8.prm

>  <SCORE>
-5.73099

>  <SCORE.INTER>
-9.72099

>  <SCORE.INTER.CONST>
1

>  <SCORE.INTER.POLAR>
0

>  <SCORE.INTER.ROT>
5

>  <SCORE.INTER.SOLV>
14.9289

>  <SCORE.INTER.VDW>
-18.3903

>  <SCORE.INTER.norm>
-0.441863

>  <SCORE.INTRA>
3.99001

>  <SCORE.INTRA.DIHEDRAL>
1.35878

>  <SCORE.INTRA.DIHEDRAL.0>
3.49807

>  <SCORE.INTRA.POLAR>
0

>  <SCORE.INTRA.POLAR.0>
0

>  <SCORE.INTRA.REPUL>
0

>  <SCORE.INTRA.REPUL.0>
0

>  <SCORE.INTRA.SOLV>
1.962

>  <SCORE.INTRA.SOLV.lig_0>
-73.062

>  <SCORE.INTRA.VDW>
2.32961

>  <SCORE.INTRA.VDW.0>
-1.83782

>  <SCORE.INTRA.norm>
0.181364

>  <SCORE.RESTR>
0

>  <SCORE.RESTR.CAVITY>
0

>  <SCORE.RESTR.norm>
0

>  <SCORE.SYSTEM>
0

>  <SCORE.SYSTEM.CONST>
0

>  <SCORE.SYSTEM.DIHEDRAL>
0

>  <SCORE.SYSTEM.SOLV>
0

>  <SCORE.SYSTEM.norm>
0

>  <SCORE.heavy>
22

>  <SCORE.norm>
-0.260499

>  <RMSD>
5.377

$$$$
ligand
 OpenBabel11021811513D
libRbt.so/2013.1/901 2013/11/27
 22 23  0  0  0  0  0  0  0  0999 V2000
  -31.1473    2.3269   -9.9963 N   0  0  0  0  0  0  0  0  0  0  0  0
  -28.6814    1.4040  -12.1223 C   0  0  1  0  0  0  0  0  0  0  0  0
  -29.2223    2.4460  -11.2611 O   0  0  0  0  0  0  0  0  0  0  0  0
  -27.4956    1.6804  -14.9616 P   0  0  1  0  0  0  0  0  0  0  0  0
  -29.8775    1.8104  -10.1516 C   0  0  2  0  0  0  0  0  0  0  0  0
  -33.2969    2.5755  -10.1646 N   0  0  0  0  0  0  0  0  0  0  0  0
  -30.1615   -0.4440   -9.4216 O   0  0  0  0  0  0  0  0  0  0  0  0
  -30.0476    0.4015  -10.5722 C   0  0  2  0  0  0  0  0  0  0  0  0
  -34.9177    4.2434   -8.2128 N   0  0  0  0  0  0  0  0  0  0  0  0
  -27.7092   -0.0201  -10.5344 O   0  0  0  0  0  0  0  0  0  0  0  0
  -28.8620    0.1382  -11.3785 C   0  0  2  0  0  0  0  0  0  0  0  0
  -32.8283    3.5263   -9.3418 C   0  0  0  0  0  0  0  0  0  0  0  0
  -30.6040    4.1578   -8.4379 N   0  0  0  0  0  0  0  0  0  0  0  0
  -28.6605    0.8342  -14.3406 O   0  0  0  0  0  0  0  0  0  0  0  0
  -29.4799    1.4172  -13.3801 C   0  0  0  0  0  0  0  0  0  0  0  0
  -26.4212    1.7082  -13.8147 O   0  0  0  0  0  0  0  0  0  0  0  0
  -32.2493    1.8354  -10.5747 C   0  0  0  0  0  0  0  0  0  0  0  0
  -33.2010    5.7048   -8.5339 O   0  0  0  0  0  0  0  0  0  0  0  0
  -33.6376    4.5625   -8.6739 C   0  0  0  0  0  0  0  0  0  0  0  0
  -31.4758    3.3743   -9.2284 C   0  0  0  0  0  0  0  0  0  0  0  0
  -27.0325    1.0432  -16.2295 O   0  5  0  0  0  0  0  0  0  0  0  0
  -27.9953    2.9785  -15.4493 O   0  0  0  0  0  0  0  0  0  0  0  0
  1 17  1  0  0  0  0
  1 20  1  0  0  0  0
  2 15  1  6  0  0  0
  2  3  1  0  0  0  0
  2 11  1  0  0  0  0
  3  5  1  0  0  0  0
  4 16  1  1  0  0  0
  4 21  1  0  0  0  0
  4 22  2  0  0  0  0
  4 14  1  0  0  0  0
  5  1  1  6  0  0  0
  5  8  1  0  0  0  0
  6 17  2  0  0  0  0
  6 12  1  0  0  0  0
  8  7  1  1  0  0  0
  8 11  1  0  0  0  0
  9 19  1  0  0  0  0
 11 10  1  1  0  0  0
 12 20  2  0  0  0  0
 12 19  1  0  0  0  0
 13 20  1  0  0  0  0
 14 15  1  0  0  0  0
 18 19  2  0  0  0  0
M  CHG  1  21  -1
M  END
>  <CHROM.1>
90.68235204,157.19784351,75.06376037,-77.19892098,36.74605129,-29.97153223
2.11115162,-11.51480481,-2.77922952,0.79190449,-0.89166177

>  <Name>
ligand

>  <RI>
0

>  <Rbt.Current_Directory>
/home/itssahil/PROJECTS/Mol_Feturizer/New_Systems/rnas/4XWF

>  <Rbt.Executable>
rbdock ($Id: //depot/dev/client3/rdock/2013.1/src/exe/rbdock.cxx#4 $)

>  <Rbt.Library>
libRbt.so (2013.1, Build901 2013/11/27)

>  <Rbt.Parameter_File>
/export/apps/rDock/src/rDock_2013.1_src/data/scripts/dock_solv.prm

>  <Rbt.Receptor>
prm/pocket_docking_7.prm

>  <SCORE>
-6.37925

>  <SCORE.INTER>
-9.17903

>  <SCORE.INTER.CONST>
1

>  <SCORE.INTER.POLAR>
0

>  <SCORE.INTER.ROT>
5

>  <SCORE.INTER.SOLV>
13.7684

>  <SCORE.INTER.VDW>
-17.6422

>  <SCORE.INTER.norm>
-0.417229

>  <SCORE.INTRA>
2.79978

>  <SCORE.INTRA.DIHEDRAL>
2.45725

>  <SCORE.INTRA.DIHEDRAL.0>
3.49807

>  <SCORE.INTRA.POLAR>
0

>  <SCORE.INTRA.POLAR.0>
0

>  <SCORE.INTRA.REPUL>
0

>  <SCORE.INTRA.REPUL.0>
0

>  <SCORE.INTRA.SOLV>
-0.1508

>  <SCORE.INTRA.SOLV.lig_0>
-73.062

>  <SCORE.INTRA.VDW>
1.64655

>  <SCORE.INTRA.VDW.0>
-1.83782

>  <SCORE.INTRA.norm>
0.127263

>  <SCORE.RESTR>
0

>  <SCORE.RESTR.CAVITY>
0

>  <SCORE.RESTR.norm>
0

>  <SCORE.SYSTEM>
0

>  <SCORE.SYSTEM.CONST>
0

>  <SCORE.SYSTEM.DIHEDRAL>
0

>  <SCORE.SYSTEM.SOLV>
0

>  <SCORE.SYSTEM.norm>
0

>  <SCORE.heavy>
22

>  <SCORE.norm>
-0.289966

>  <RMSD>
5.397

$$$$
ligand
 OpenBabel11021811513D
libRbt.so/2013.1/901 2013/11/27
 22 23  0  0  0  0  0  0  0  0999 V2000
  -30.6571    3.1935   -9.7843 N   0  0  0  0  0  0  0  0  0  0  0  0
  -28.4980    1.5969  -11.8438 C   0  0  1  0  0  0  0  0  0  0  0  0
  -28.6796    2.3300  -10.5991 O   0  0  0  0  0  0  0  0  0  0  0  0
  -28.2581    2.6145  -15.4860 P   0  0  1  0  0  0  0  0  0  0  0  0
  -29.9888    2.0262  -10.0909 C   0  0  2  0  0  0  0  0  0  0  0  0
  -32.2680    4.6081   -9.4451 N   0  0  0  0  0  0  0  0  0  0  0  0
  -31.7723    0.5904  -10.7642 O   0  0  0  0  0  0  0  0  0  0  0  0
  -30.7058    1.4221  -11.2361 C   0  0  2  0  0  0  0  0  0  0  0  0
  -32.0950    7.3286   -8.3040 N   0  0  0  0  0  0  0  0  0  0  0  0
  -29.3244   -0.5115  -11.2386 O   0  0  0  0  0  0  0  0  0  0  0  0
  -29.6637    0.6921  -11.9475 C   0  0  2  0  0  0  0  0  0  0  0  0
  -31.1086    5.2139   -9.1462 C   0  0  0  0  0  0  0  0  0  0  0  0
  -28.7128    4.5630   -9.1365 N   0  0  0  0  0  0  0  0  0  0  0  0
  -28.3262    1.8614  -14.1124 O   0  0  0  0  0  0  0  0  0  0  0  0
  -28.4856    2.6003  -12.9452 C   0  0  0  0  0  0  0  0  0  0  0  0
  -29.6123    3.4114  -15.5261 O   0  0  0  0  0  0  0  0  0  0  0  0
  -31.9840    3.3546   -9.8472 C   0  0  0  0  0  0  0  0  0  0  0  0
  -29.8484    7.1298   -8.6187 O   0  0  0  0  0  0  0  0  0  0  0  0
  -30.9594    6.6030   -8.6742 C   0  0  0  0  0  0  0  0  0  0  0  0
  -30.0898    4.3284   -9.3544 C   0  0  0  0  0  0  0  0  0  0  0  0
  -27.0347    3.4684  -15.5306 O   0  5  0  0  0  0  0  0  0  0  0  0
  -27.9986    1.6699  -16.5874 O   0  0  0  0  0  0  0  0  0  0  0  0
  1 17  1  0  0  0  0
  1 20  1  0  0  0  0
  2 15  1  6  0  0  0
  2  3  1  0  0  0  0
  2 11  1  0  0  0  0
  3  5  1  0  0  0  0
  4 16  1  6  0  0  0
  4 21  1  0  0  0  0
  4 22  2  0  0  0  0
  4 14  1  0  0  0  0
  5  1  1  6  0  0  0
  5  8  1  0  0  0  0
  6 17  2  0  0  0  0
  6 12  1  0  0  0  0
  8  7  1  1  0  0  0
  8 11  1  0  0  0  0
  9 19  1  0  0  0  0
 11 10  1  1  0  0  0
 12 20  2  0  0  0  0
 12 19  1  0  0  0  0
 13 20  1  0  0  0  0
 14 15  1  0  0  0  0
 18 19  2  0  0  0  0
M  CHG  1  21  -1
M  END
>  <CHROM.1>
149.78077772,-179.33949134,-57.49106206,-179.49030735,10.16177530,-29.67640817
3.10316235,-11.71074873,2.55531816,1.11834969,0.14804478

>  <Name>
ligand

>  <RI>
0

>  <Rbt.Current_Directory>
/home/itssahil/PROJECTS/Mol_Feturizer/New_Systems/rnas/4XWF

>  <Rbt.Executable>
rbdock ($Id: //depot/dev/client3/rdock/2013.1/src/exe/rbdock.cxx#4 $)

>  <Rbt.Library>
libRbt.so (2013.1, Build901 2013/11/27)

>  <Rbt.Parameter_File>
/export/apps/rDock/src/rDock_2013.1_src/data/scripts/dock_solv.prm

>  <Rbt.Receptor>
prm/pocket_docking_5.prm

>  <SCORE>
-5.91785

>  <SCORE.INTER>
-6.9099

>  <SCORE.INTER.CONST>
1

>  <SCORE.INTER.POLAR>
0

>  <SCORE.INTER.ROT>
5

>  <SCORE.INTER.SOLV>
12.7095

>  <SCORE.INTER.VDW>
-15.7764

>  <SCORE.INTER.norm>
-0.314087

>  <SCORE.INTRA>
0.992054

>  <SCORE.INTRA.DIHEDRAL>
-1.88837

>  <SCORE.INTRA.DIHEDRAL.0>
3.49807

>  <SCORE.INTRA.POLAR>
0

>  <SCORE.INTRA.POLAR.0>
0

>  <SCORE.INTRA.REPUL>
0

>  <SCORE.INTRA.REPUL.0>
0

>  <SCORE.INTRA.SOLV>
0.845171

>  <SCORE.INTRA.SOLV.lig_0>
-73.062

>  <SCORE.INTRA.VDW>
1.51365

>  <SCORE.INTRA.VDW.0>
-1.83782

>  <SCORE.INTRA.norm>
0.0450934

>  <SCORE.RESTR>
0

>  <SCORE.RESTR.CAVITY>
0

>  <SCORE.RESTR.norm>
0

>  <SCORE.SYSTEM>
0

>  <SCORE.SYSTEM.CONST>
0

>  <SCORE.SYSTEM.DIHEDRAL>
0

>  <SCORE.SYSTEM.SOLV>
0

>  <SCORE.SYSTEM.norm>
0

>  <SCORE.heavy>
22

>  <SCORE.norm>
-0.268993

>  <RMSD>
5.447

$$$$
ligand
 OpenBabel11021811513D
libRbt.so/2013.1/901 2013/11/27
 22 23  0  0  0  0  0  0  0  0999 V2000
  -31.5673    2.5982   -9.6835 N   0  0  0  0  0  0  0  0  0  0  0  0
  -29.1410    1.2768  -11.6378 C   0  0  1  0  0  0  0  0  0  0  0  0
  -29.6857    2.4730  -11.0115 O   0  0  0  0  0  0  0  0  0  0  0  0
  -28.2570    1.7936  -14.5418 P   0  0  1  0  0  0  0  0  0  0  0  0
  -30.2884    2.0875   -9.7654 C   0  0  2  0  0  0  0  0  0  0  0  0
  -33.6942    2.8707  -10.0198 N   0  0  0  0  0  0  0  0  0  0  0  0
  -30.4846    0.0478   -8.5420 O   0  0  0  0  0  0  0  0  0  0  0  0
  -30.4301    0.6170   -9.8553 C   0  0  2  0  0  0  0  0  0  0  0  0
  -33.8156    6.0961   -8.4513 N   0  0  0  0  0  0  0  0  0  0  0  0
  -28.0804    0.2649   -9.8087 O   0  0  0  0  0  0  0  0  0  0  0  0
  -29.2623    0.2056  -10.6248 C   0  0  2  0  0  0  0  0  0  0  0  0
  -33.3002    3.7552   -9.0908 C   0  0  0  0  0  0  0  0  0  0  0  0
  -31.1639    4.3054   -7.9519 N   0  0  0  0  0  0  0  0  0  0  0  0
  -29.0755    0.6544  -13.8411 O   0  0  0  0  0  0  0  0  0  0  0  0
  -29.9773    0.9912  -12.8375 C   0  0  0  0  0  0  0  0  0  0  0  0
  -29.3742    2.7577  -15.0830 O   0  0  0  0  0  0  0  0  0  0  0  0
  -32.6141    2.1571  -10.3908 C   0  0  0  0  0  0  0  0  0  0  0  0
  -35.1815    4.3850   -7.8253 O   0  0  0  0  0  0  0  0  0  0  0  0
  -34.1657    4.7435   -8.4208 C   0  0  0  0  0  0  0  0  0  0  0  0
  -31.9626    3.5877   -8.8714 C   0  0  0  0  0  0  0  0  0  0  0  0
  -27.3222    2.4175  -13.5595 O   0  5  0  0  0  0  0  0  0  0  0  0
  -27.3165    1.2307  -15.5273 O   0  0  0  0  0  0  0  0  0  0  0  0
  1 17  1  0  0  0  0
  1 20  1  0  0  0  0
  2 15  1  6  0  0  0
  2  3  1  0  0  0  0
  2 11  1  0  0  0  0
  3  5  1  0  0  0  0
  4 16  1  6  0  0  0
  4 21  1  0  0  0  0
  4 22  2  0  0  0  0
  4 14  1  0  0  0  0
  5  1  1  6  0  0  0
  5  8  1  0  0  0  0
  6 17  2  0  0  0  0
  6 12  1  0  0  0  0
  8  7  1  1  0  0  0
  8 11  1  0  0  0  0
  9 19  1  0  0  0  0
 11 10  1  1  0  0  0
 12 20  2  0  0  0  0
 12 19  1  0  0  0  0
 13 20  1  0  0  0  0
 14 15  1  0  0  0  0
 18 19  2  0  0  0  0
M  CHG  1  21  -1
M  END
>  <CHROM.1>
72.11176750,137.02036102,-56.35082226,-76.26442052,-125.38425695,-30.50640494
2.26353376,-11.07819444,-2.65407786,0.74853694,-1.09663204

>  <Name>
ligand

>  <RI>
0

>  <Rbt.Current_Directory>
/home/itssahil/PROJECTS/Mol_Feturizer/New_Systems/rnas/4XWF

>  <Rbt.Executable>
rbdock ($Id: //depot/dev/client3/rdock/2013.1/src/exe/rbdock.cxx#4 $)

>  <Rbt.Library>
libRbt.so (2013.1, Build901 2013/11/27)

>  <Rbt.Parameter_File>
/export/apps/rDock/src/rDock_2013.1_src/data/scripts/dock_solv.prm

>  <Rbt.Receptor>
prm/pocket_docking_8.prm

>  <SCORE>
-8.10153

>  <SCORE.INTER>
-11.0746

>  <SCORE.INTER.CONST>
1

>  <SCORE.INTER.POLAR>
0

>  <SCORE.INTER.ROT>
5

>  <SCORE.INTER.SOLV>
13.6696

>  <SCORE.INTER.VDW>
-18.8729

>  <SCORE.INTER.norm>
-0.503391

>  <SCORE.INTRA>
2.97308

>  <SCORE.INTRA.DIHEDRAL>
3.49157

>  <SCORE.INTRA.DIHEDRAL.0>
3.49807

>  <SCORE.INTRA.POLAR>
0

>  <SCORE.INTRA.POLAR.0>
0

>  <SCORE.INTRA.REPUL>
0

>  <SCORE.INTRA.REPUL.0>
0

>  <SCORE.INTRA.SOLV>
1.11668

>  <SCORE.INTRA.SOLV.lig_0>
-73.062

>  <SCORE.INTRA.VDW>
0.668963

>  <SCORE.INTRA.VDW.0>
-1.83782

>  <SCORE.INTRA.norm>
0.13514

>  <SCORE.RESTR>
0

>  <SCORE.RESTR.CAVITY>
0

>  <SCORE.RESTR.norm>
0

>  <SCORE.SYSTEM>
0

>  <SCORE.SYSTEM.CONST>
0

>  <SCORE.SYSTEM.DIHEDRAL>
0

>  <SCORE.SYSTEM.SOLV>
0

>  <SCORE.SYSTEM.norm>
0

>  <SCORE.heavy>
22

>  <SCORE.norm>
-0.368251

>  <RMSD>
5.544

$$$$
ligand
 OpenBabel11021811513D
libRbt.so/2013.1/901 2013/11/27
 22 23  0  0  0  0  0  0  0  0999 V2000
  -31.4682    4.4262   -8.7167 N   0  0  0  0  0  0  0  0  0  0  0  0
  -29.7238    1.9579  -10.2390 C   0  0  1  0  0  0  0  0  0  0  0  0
  -29.8607    2.8095   -9.0660 O   0  0  0  0  0  0  0  0  0  0  0  0
  -28.0142    2.3912  -13.5861 P   0  0  1  0  0  0  0  0  0  0  0  0
  -31.2594    3.0708   -8.8667 C   0  0  2  0  0  0  0  0  0  0  0  0
  -31.2117    6.5743   -8.8917 N   0  0  0  0  0  0  0  0  0  0  0  0
  -33.2784    2.3677   -9.9275 O   0  0  0  0  0  0  0  0  0  0  0  0
  -31.8993    2.6879  -10.1453 C   0  0  2  0  0  0  0  0  0  0  0  0
  -34.6056    7.2986   -7.9043 N   0  0  0  0  0  0  0  0  0  0  0  0
  -31.4126    0.3821   -9.8395 O   0  0  0  0  0  0  0  0  0  0  0  0
  -31.1004    1.5583  -10.6046 C   0  0  2  0  0  0  0  0  0  0  0  0
  -32.3354    6.3418   -8.1961 C   0  0  0  0  0  0  0  0  0  0  0  0
  -33.5776    4.3277   -7.4452 N   0  0  0  0  0  0  0  0  0  0  0  0
  -28.8619    1.9037  -12.3604 O   0  0  0  0  0  0  0  0  0  0  0  0
  -29.0924    2.7823  -11.3075 C   0  0  0  0  0  0  0  0  0  0  0  0
  -26.6823    2.8977  -12.9228 O   0  0  0  0  0  0  0  0  0  0  0  0
  -30.6716    5.3821   -9.2087 C   0  0  0  0  0  0  0  0  0  0  0  0
  -32.7859    8.2989   -6.9696 O   0  0  0  0  0  0  0  0  0  0  0  0
  -33.2347    7.3717   -7.6434 C   0  0  0  0  0  0  0  0  0  0  0  0
  -32.5053    4.9913   -8.0845 C   0  0  0  0  0  0  0  0  0  0  0  0
  -27.8371    1.2679  -14.5530 O   0  5  0  0  0  0  0  0  0  0  0  0
  -28.7754    3.3598  -14.3955 O   0  0  0  0  0  0  0  0  0  0  0  0
  1 17  1  0  0  0  0
  1 20  1  0  0  0  0
  2 15  1  6  0  0  0
  2  3  1  0  0  0  0
  2 11  1  0  0  0  0
  3  5  1  0  0  0  0
  4 16  1  1  0  0  0
  4 21  1  0  0  0  0
  4 22  2  0  0  0  0
  4 14  1  0  0  0  0
  5  1  1  6  0  0  0
  5  8  1  0  0  0  0
  6 17  2  0  0  0  0
  6 12  1  0  0  0  0
  8  7  1  1  0  0  0
  8 11  1  0  0  0  0
  9 19  1  0  0  0  0
 11 10  1  1  0  0  0
 12 20  2  0  0  0  0
 12 19  1  0  0  0  0
 13 20  1  0  0  0  0
 14 15  1  0  0  0  0
 18 19  2  0  0  0  0
M  CHG  1  21  -1
M  END
>  <CHROM.1>
25.55947720,174.42943970,54.57536063,-171.29969092,129.19299030,-30.68887597
3.68429043,-10.32496546,2.49059141,0.77343942,0.16864344

>  <Name>
ligand

>  <RI>
0

>  <Rbt.Current_Directory>
/home/itssahil/PROJECTS/Mol_Feturizer/New_Systems/rnas/4XWF

>  <Rbt.Executable>
rbdock ($Id: //depot/dev/client3/rdock/2013.1/src/exe/rbdock.cxx#4 $)

>  <Rbt.Library>
libRbt.so (2013.1, Build901 2013/11/27)

>  <Rbt.Parameter_File>
/export/apps/rDock/src/rDock_2013.1_src/data/scripts/dock_solv.prm

>  <Rbt.Receptor>
prm/pocket_docking_6.prm

>  <SCORE>
-4.93918

>  <SCORE.INTER>
-4.23653

>  <SCORE.INTER.CONST>
1

>  <SCORE.INTER.POLAR>
0

>  <SCORE.INTER.ROT>
5

>  <SCORE.INTER.SOLV>
12.37

>  <SCORE.INTER.VDW>
-13.881

>  <SCORE.INTER.norm>
-0.19257

>  <SCORE.INTRA>
-0.702649

>  <SCORE.INTRA.DIHEDRAL>
-1.37586

>  <SCORE.INTRA.DIHEDRAL.0>
3.49807

>  <SCORE.INTRA.POLAR>
0

>  <SCORE.INTRA.POLAR.0>
0

>  <SCORE.INTRA.REPUL>
0

>  <SCORE.INTRA.REPUL.0>
0

>  <SCORE.INTRA.SOLV>
0.210538

>  <SCORE.INTRA.SOLV.lig_0>
-73.062

>  <SCORE.INTRA.VDW>
-0.119988

>  <SCORE.INTRA.VDW.0>
-1.83782

>  <SCORE.INTRA.norm>
-0.0319386

>  <SCORE.RESTR>
0

>  <SCORE.RESTR.CAVITY>
0

>  <SCORE.RESTR.norm>
0

>  <SCORE.SYSTEM>
0

>  <SCORE.SYSTEM.CONST>
0

>  <SCORE.SYSTEM.DIHEDRAL>
0

>  <SCORE.SYSTEM.SOLV>
0

>  <SCORE.SYSTEM.norm>
0

>  <SCORE.heavy>
22

>  <SCORE.norm>
-0.224508

>  <RMSD>
5.663

$$$$
ligand
 OpenBabel11021811513D
libRbt.so/2013.1/901 2013/11/27
 22 23  0  0  0  0  0  0  0  0999 V2000
  -31.0089    0.8856   -9.7855 N   0  0  0  0  0  0  0  0  0  0  0  0
  -32.2072    4.0405   -9.5342 C   0  0  1  0  0  0  0  0  0  0  0  0
  -31.8657    2.9325  -10.4148 O   0  0  0  0  0  0  0  0  0  0  0  0
  -30.2023    6.8857   -8.0394 P   0  0  1  0  0  0  0  0  0  0  0  0
  -32.1138    1.7078   -9.7055 C   0  0  2  0  0  0  0  0  0  0  0  0
  -29.5831   -0.6867   -9.3316 N   0  0  0  0  0  0  0  0  0  0  0  0
  -33.0022    1.1454   -7.5630 O   0  0  0  0  0  0  0  0  0  0  0  0
  -32.2323    2.1125   -8.2867 C   0  0  2  0  0  0  0  0  0  0  0  0
  -26.8009    0.2527  -11.0266 N   0  0  0  0  0  0  0  0  0  0  0  0
  -34.2552    3.3000   -8.6671 O   0  0  0  0  0  0  0  0  0  0  0  0
  -32.8577    3.4274   -8.3556 C   0  0  2  0  0  0  0  0  0  0  0  0
  -29.1939   -0.0825  -10.4648 C   0  0  0  0  0  0  0  0  0  0  0  0
  -30.0554    1.7654  -11.8813 N   0  0  0  0  0  0  0  0  0  0  0  0
  -31.3099    5.8727   -8.4931 O   0  0  0  0  0  0  0  0  0  0  0  0
  -30.9313    4.7154   -9.1646 C   0  0  0  0  0  0  0  0  0  0  0  0
  -29.6372    7.4330   -9.4001 O   0  0  0  0  0  0  0  0  0  0  0  0
  -30.7079   -0.0791   -8.9084 C   0  0  0  0  0  0  0  0  0  0  0  0
  -28.0554   -1.2955  -12.1290 O   0  0  0  0  0  0  0  0  0  0  0  0
  -27.9996   -0.4274  -11.2582 C   0  0  0  0  0  0  0  0  0  0  0  0
  -30.0885    0.9068  -10.7587 C   0  0  0  0  0  0  0  0  0  0  0  0
  -30.8050    7.9262   -7.1551 O   0  5  0  0  0  0  0  0  0  0  0  0
  -29.2458    6.2383   -7.1236 O   0  0  0  0  0  0  0  0  0  0  0  0
  1 17  1  0  0  0  0
  1 20  1  0  0  0  0
  2 15  1  1  0  0  0
  2  3  1  0  0  0  0
  2 11  1  0  0  0  0
  3  5  1  0  0  0  0
  4 16  1  6  0  0  0
  4 21  1  0  0  0  0
  4 22  2  0  0  0  0
  4 14  1  0  0  0  0
  5  1  1  1  0  0  0
  5  8  1  0  0  0  0
  6 17  2  0  0  0  0
  6 12  1  0  0  0  0
  8  7  1  1  0  0  0
  8 11  1  0  0  0  0
  9 19  1  0  0  0  0
 11 10  1  6  0  0  0
 12 20  2  0  0  0  0
 12 19  1  0  0  0  0
 13 20  1  0  0  0  0
 14 15  1  0  0  0  0
 18 19  2  0  0  0  0
M  CHG  1  21  -1
M  END
>  <CHROM.1>
155.94390688,171.47750196,66.68734103,-175.90575457,-93.31408322,-30.64647287
3.03234531,-9.31380045,1.34524820,-0.35060908,-2.84504228

>  <Name>
ligand

>  <RI>
0

>  <Rbt.Current_Directory>
/home/itssahil/PROJECTS/Mol_Feturizer/New_Systems/rnas/4XWF

>  <Rbt.Executable>
rbdock ($Id: //depot/dev/client3/rdock/2013.1/src/exe/rbdock.cxx#4 $)

>  <Rbt.Library>
libRbt.so (2013.1, Build901 2013/11/27)

>  <Rbt.Parameter_File>
/export/apps/rDock/src/rDock_2013.1_src/data/scripts/dock_solv.prm

>  <Rbt.Receptor>
prm/pocket_docking_8.prm

>  <SCORE>
-3.88713

>  <SCORE.INTER>
-4.97764

>  <SCORE.INTER.CONST>
1

>  <SCORE.INTER.POLAR>
0

>  <SCORE.INTER.ROT>
5

>  <SCORE.INTER.SOLV>
12.6608

>  <SCORE.INTER.VDW>
-14.472

>  <SCORE.INTER.norm>
-0.226256

>  <SCORE.INTRA>
1.0905

>  <SCORE.INTRA.DIHEDRAL>
-0.945246

>  <SCORE.INTRA.DIHEDRAL.0>
3.49807

>  <SCORE.INTRA.POLAR>
0

>  <SCORE.INTRA.POLAR.0>
0

>  <SCORE.INTRA.REPUL>
0

>  <SCORE.INTRA.REPUL.0>
0

>  <SCORE.INTRA.SOLV>
1.11978

>  <SCORE.INTRA.SOLV.lig_0>
-73.062

>  <SCORE.INTRA.VDW>
1.00323

>  <SCORE.INTRA.VDW.0>
-1.83782

>  <SCORE.INTRA.norm>
0.0495683

>  <SCORE.RESTR>
0

>  <SCORE.RESTR.CAVITY>
0

>  <SCORE.RESTR.norm>
0

>  <SCORE.SYSTEM>
0

>  <SCORE.SYSTEM.CONST>
0

>  <SCORE.SYSTEM.DIHEDRAL>
0

>  <SCORE.SYSTEM.SOLV>
0

>  <SCORE.SYSTEM.norm>
0

>  <SCORE.heavy>
22

>  <SCORE.norm>
-0.176688

>  <RMSD>
5.754

$$$$
ligand
 OpenBabel11021811513D
libRbt.so/2013.1/901 2013/11/27
 22 23  0  0  0  0  0  0  0  0999 V2000
  -31.7663    3.4819   -9.2992 N   0  0  0  0  0  0  0  0  0  0  0  0
  -29.3359    1.7049  -10.8445 C   0  0  1  0  0  0  0  0  0  0  0  0
  -30.0121    2.9876  -10.7128 O   0  0  0  0  0  0  0  0  0  0  0  0
  -28.7074    1.1826  -13.6955 P   0  0  1  0  0  0  0  0  0  0  0  0
  -30.4331    3.1304   -9.3465 C   0  0  2  0  0  0  0  0  0  0  0  0
  -33.9022    3.4895   -9.6855 N   0  0  0  0  0  0  0  0  0  0  0  0
  -30.1863    1.8349   -7.3574 O   0  0  0  0  0  0  0  0  0  0  0  0
  -30.3399    1.7662   -8.7799 C   0  0  2  0  0  0  0  0  0  0  0  0
  -35.4521    4.8004   -7.1068 N   0  0  0  0  0  0  0  0  0  0  0  0
  -27.9693    1.7293   -8.9402 O   0  0  0  0  0  0  0  0  0  0  0  0
  -29.1919    1.1867   -9.4664 C   0  0  2  0  0  0  0  0  0  0  0  0
  -33.6406    4.4247   -8.7595 C   0  0  0  0  0  0  0  0  0  0  0  0
  -31.6143    5.2430   -7.5813 N   0  0  0  0  0  0  0  0  0  0  0  0
  -30.0917    1.3047  -12.9692 O   0  0  0  0  0  0  0  0  0  0  0  0
  -30.2153    0.8287  -11.6685 C   0  0  0  0  0  0  0  0  0  0  0  0
  -28.3236   -0.3270  -13.4853 O   0  0  0  0  0  0  0  0  0  0  0  0
  -32.7348    2.9093  -10.0236 C   0  0  0  0  0  0  0  0  0  0  0  0
  -34.7606    6.4760   -8.4852 O   0  0  0  0  0  0  0  0  0  0  0  0
  -34.6353    5.3067   -8.1215 C   0  0  0  0  0  0  0  0  0  0  0  0
  -32.2980    4.4239   -8.5088 C   0  0  0  0  0  0  0  0  0  0  0  0
  -28.8515    1.5926  -15.1235 O   0  5  0  0  0  0  0  0  0  0  0  0
  -27.7621    2.1952  -13.1919 O   0  0  0  0  0  0  0  0  0  0  0  0
  1 17  1  0  0  0  0
  1 20  1  0  0  0  0
  2 15  1  6  0  0  0
  2  3  1  0  0  0  0
  2 11  1  0  0  0  0
  3  5  1  0  0  0  0
  4 16  1  1  0  0  0
  4 21  1  0  0  0  0
  4 22  2  0  0  0  0
  4 14  1  0  0  0  0
  5  1  1  6  0  0  0
  5  8  1  0  0  0  0
  6 17  2  0  0  0  0
  6 12  1  0  0  0  0
  8  7  1  1  0  0  0
  8 11  1  0  0  0  0
  9 19  1  0  0  0  0
 11 10  1  1  0  0  0
 12 20  2  0  0  0  0
 12 19  1  0  0  0  0
 13 20  1  0  0  0  0
 14 15  1  0  0  0  0
 18 19  2  0  0  0  0
M  CHG  1  21  -1
M  END
>  <CHROM.1>
45.52590177,74.06280224,50.37464653,65.71543227,77.53355678,-30.78817197
2.66636612,-10.41943743,-2.41352093,0.56226060,-1.66445457

>  <Name>
ligand

>  <RI>
0

>  <Rbt.Current_Directory>
/home/itssahil/PROJECTS/Mol_Feturizer/New_Systems/rnas/4XWF

>  <Rbt.Executable>
rbdock ($Id: //depot/dev/client3/rdock/2013.1/src/exe/rbdock.cxx#4 $)

>  <Rbt.Library>
libRbt.so (2013.1, Build901 2013/11/27)

>  <Rbt.Parameter_File>
/export/apps/rDock/src/rDock_2013.1_src/data/scripts/dock_solv.prm

>  <Rbt.Receptor>
prm/pocket_docking_6.prm

>  <SCORE>
-8.53812

>  <SCORE.INTER>
-9.87525

>  <SCORE.INTER.CONST>
1

>  <SCORE.INTER.POLAR>
0

>  <SCORE.INTER.ROT>
5

>  <SCORE.INTER.SOLV>
14.5006

>  <SCORE.INTER.VDW>
-18.3504

>  <SCORE.INTER.norm>
-0.448875

>  <SCORE.INTRA>
1.33713

>  <SCORE.INTRA.DIHEDRAL>
0.338997

>  <SCORE.INTRA.DIHEDRAL.0>
3.49807

>  <SCORE.INTRA.POLAR>
0

>  <SCORE.INTRA.POLAR.0>
0

>  <SCORE.INTRA.REPUL>
0

>  <SCORE.INTRA.REPUL.0>
0

>  <SCORE.INTRA.SOLV>
1.65948

>  <SCORE.INTRA.SOLV.lig_0>
-73.062

>  <SCORE.INTRA.VDW>
0.337895

>  <SCORE.INTRA.VDW.0>
-1.83782

>  <SCORE.INTRA.norm>
0.0607787

>  <SCORE.RESTR>
0

>  <SCORE.RESTR.CAVITY>
0

>  <SCORE.RESTR.norm>
0

>  <SCORE.SYSTEM>
0

>  <SCORE.SYSTEM.CONST>
0

>  <SCORE.SYSTEM.DIHEDRAL>
0

>  <SCORE.SYSTEM.SOLV>
0

>  <SCORE.SYSTEM.norm>
0

>  <SCORE.heavy>
22

>  <SCORE.norm>
-0.388096

>  <RMSD>
5.771

$$$$
ligand
 OpenBabel11021811513D
libRbt.so/2013.1/901 2013/11/27
 22 23  0  0  0  0  0  0  0  0999 V2000
  -31.6612    4.9903   -8.8399 N   0  0  0  0  0  0  0  0  0  0  0  0
  -28.6864    3.7342   -9.8526 C   0  0  1  0  0  0  0  0  0  0  0  0
  -29.7895    4.6396  -10.1412 O   0  0  0  0  0  0  0  0  0  0  0  0
  -29.7013    1.0138  -12.2863 P   0  0  1  0  0  0  0  0  0  0  0  0
  -30.2910    5.1422   -8.8922 C   0  0  2  0  0  0  0  0  0  0  0  0
  -33.6540    4.2037   -9.1878 N   0  0  0  0  0  0  0  0  0  0  0  0
  -29.6724    4.8961   -6.6003 O   0  0  0  0  0  0  0  0  0  0  0  0
  -29.7299    4.2324   -7.8683 C   0  0  2  0  0  0  0  0  0  0  0  0
  -35.3499    7.0624   -7.8633 N   0  0  0  0  0  0  0  0  0  0  0  0
  -27.5052    4.9742   -8.2521 O   0  0  0  0  0  0  0  0  0  0  0  0
  -28.4216    3.8772   -8.4042 C   0  0  2  0  0  0  0  0  0  0  0  0
  -33.7510    5.2209   -8.3180 C   0  0  0  0  0  0  0  0  0  0  0  0
  -32.1612    6.7811   -7.2216 N   0  0  0  0  0  0  0  0  0  0  0  0
  -29.2912    2.3488  -11.5733 O   0  0  0  0  0  0  0  0  0  0  0  0
  -29.1492    2.3587  -10.1901 C   0  0  0  0  0  0  0  0  0  0  0  0
  -31.2023    0.8255  -11.8598 O   0  0  0  0  0  0  0  0  0  0  0  0
  -32.3549    4.0666   -9.5151 C   0  0  0  0  0  0  0  0  0  0  0  0
  -35.7230    4.9645   -7.0600 O   0  0  0  0  0  0  0  0  0  0  0  0
  -34.9992    5.7183   -7.7104 C   0  0  0  0  0  0  0  0  0  0  0  0
  -32.4998    5.7194   -8.0916 C   0  0  0  0  0  0  0  0  0  0  0  0
  -29.4864    1.1436  -13.7577 O   0  5  0  0  0  0  0  0  0  0  0  0
  -28.7623   -0.0702  -11.9456 O   0  0  0  0  0  0  0  0  0  0  0  0
  1 17  1  0  0  0  0
  1 20  1  0  0  0  0
  2 15  1  1  0  0  0
  2  3  1  0  0  0  0
  2 11  1  0  0  0  0
  3  5  1  0  0  0  0
  4 16  1  1  0  0  0
  4 21  1  0  0  0  0
  4 22  2  0  0  0  0
  4 14  1  0  0  0  0
  5  1  1  6  0  0  0
  5  8  1  0  0  0  0
  6 17  2  0  0  0  0
  6 12  1  0  0  0  0
  8  7  1  1  0  0  0
  8 11  1  0  0  0  0
  9 19  1  0  0  0  0
 11 10  1  6  0  0  0
 12 20  2  0  0  0  0
 12 19  1  0  0  0  0
 13 20  1  0  0  0  0
 14 15  1  0  0  0  0
 18 19  2  0  0  0  0
M  CHG  1  21  -1
M  END
>  <CHROM.1>
25.80654123,67.85067779,70.63403919,176.91311546,-123.40174326,-30.93397563
3.75755835,-9.55866168,-2.19884644,0.07016901,-2.32494645

>  <Name>
ligand

>  <RI>
0

>  <Rbt.Current_Directory>
/home/itssahil/PROJECTS/Mol_Feturizer/New_Systems/rnas/4XWF

>  <Rbt.Executable>
rbdock ($Id: //depot/dev/client3/rdock/2013.1/src/exe/rbdock.cxx#4 $)

>  <Rbt.Library>
libRbt.so (2013.1, Build901 2013/11/27)

>  <Rbt.Parameter_File>
/export/apps/rDock/src/rDock_2013.1_src/data/scripts/dock_solv.prm

>  <Rbt.Receptor>
prm/pocket_docking_5.prm

>  <SCORE>
-8.83943

>  <SCORE.INTER>
-7.67423

>  <SCORE.INTER.CONST>
1

>  <SCORE.INTER.POLAR>
0

>  <SCORE.INTER.ROT>
5

>  <SCORE.INTER.SOLV>
17.8111

>  <SCORE.INTER.VDW>
-17.9865

>  <SCORE.INTER.norm>
-0.348829

>  <SCORE.INTRA>
-1.1652

>  <SCORE.INTRA.DIHEDRAL>
-1.595

>  <SCORE.INTRA.DIHEDRAL.0>
3.49807

>  <SCORE.INTRA.POLAR>
0

>  <SCORE.INTRA.POLAR.0>
0

>  <SCORE.INTRA.REPUL>
0

>  <SCORE.INTRA.REPUL.0>
0

>  <SCORE.INTRA.SOLV>
0.283615

>  <SCORE.INTRA.SOLV.lig_0>
-73.062

>  <SCORE.INTRA.VDW>
-0.509506

>  <SCORE.INTRA.VDW.0>
-1.83782

>  <SCORE.INTRA.norm>
-0.0529637

>  <SCORE.RESTR>
0

>  <SCORE.RESTR.CAVITY>
0

>  <SCORE.RESTR.norm>
0

>  <SCORE.SYSTEM>
0

>  <SCORE.SYSTEM.CONST>
0

>  <SCORE.SYSTEM.DIHEDRAL>
0

>  <SCORE.SYSTEM.SOLV>
0

>  <SCORE.SYSTEM.norm>
0

>  <SCORE.heavy>
22

>  <SCORE.norm>
-0.401792

>  <RMSD>
5.882

$$$$
ligand
 OpenBabel11021811513D
libRbt.so/2013.1/901 2013/11/27
 22 23  0  0  0  0  0  0  0  0999 V2000
  -31.6426    5.0302   -8.8631 N   0  0  0  0  0  0  0  0  0  0  0  0
  -28.6904    3.7585   -9.9212 C   0  0  1  0  0  0  0  0  0  0  0  0
  -29.7858    4.6804  -10.1858 O   0  0  0  0  0  0  0  0  0  0  0  0
  -29.6222    1.0474  -12.3963 P   0  0  1  0  0  0  0  0  0  0  0  0
  -30.2714    5.1680   -8.9245 C   0  0  2  0  0  0  0  0  0  0  0  0
  -33.6398    4.2283   -9.1452 N   0  0  0  0  0  0  0  0  0  0  0  0
  -29.6366    4.8779   -6.6422 O   0  0  0  0  0  0  0  0  0  0  0  0
  -29.7119    4.2356   -7.9203 C   0  0  2  0  0  0  0  0  0  0  0  0
  -35.8277    5.0549   -7.0696 N   0  0  0  0  0  0  0  0  0  0  0  0
  -27.4823    4.9593   -8.3109 O   0  0  0  0  0  0  0  0  0  0  0  0
  -28.4120    3.8750   -8.4730 C   0  0  2  0  0  0  0  0  0  0  0  0
  -33.7322    5.3202   -8.3707 C   0  0  0  0  0  0  0  0  0  0  0  0
  -32.1349    6.9624   -7.4140 N   0  0  0  0  0  0  0  0  0  0  0  0
  -29.2545    2.3848  -11.6650 O   0  0  0  0  0  0  0  0  0  0  0  0
  -29.1710    2.3938  -10.2770 C   0  0  0  0  0  0  0  0  0  0  0  0
  -31.1274    0.8249  -12.0022 O   0  0  0  0  0  0  0  0  0  0  0  0
  -32.3408    4.0540   -9.4548 C   0  0  0  0  0  0  0  0  0  0  0  0
  -35.2819    7.0544   -8.0128 O   0  0  0  0  0  0  0  0  0  0  0  0
  -34.9787    5.8781   -7.8142 C   0  0  0  0  0  0  0  0  0  0  0  0
  -32.4783    5.8290   -8.1861 C   0  0  0  0  0  0  0  0  0  0  0  0
  -29.3800    1.1932  -13.8619 O   0  5  0  0  0  0  0  0  0  0  0  0
  -28.6681   -0.0197  -12.0445 O   0  0  0  0  0  0  0  0  0  0  0  0
  1 17  1  0  0  0  0
  1 20  1  0  0  0  0
  2 15  1  1  0  0  0
  2  3  1  0  0  0  0
  2 11  1  0  0  0  0
  3  5  1  0  0  0  0
  4 16  1  1  0  0  0
  4 21  1  0  0  0  0
  4 22  2  0  0  0  0
  4 14  1  0  0  0  0
  5  1  1  6  0  0  0
  5  8  1  0  0  0  0
  6 17  2  0  0  0  0
  6 12  1  0  0  0  0
  8  7  1  1  0  0  0
  8 11  1  0  0  0  0
  9 19  1  0  0  0  0
 11 10  1  6  0  0  0
 12 20  2  0  0  0  0
 12 19  1  0  0  0  0
 13 20  1  0  0  0  0
 14 15  1  0  0  0  0
 18 19  2  0  0  0  0
M  CHG  1  21  -1
M  END
>  <CHROM.1>
31.93566691,71.01598377,69.17528240,175.03161039,53.84256958,-30.90118753
3.81082419,-9.63664883,-2.20090083,0.08880275,-2.32079931

>  <Name>
ligand

>  <RI>
0

>  <Rbt.Current_Directory>
/home/itssahil/PROJECTS/Mol_Feturizer/New_Systems/rnas/4XWF

>  <Rbt.Executable>
rbdock ($Id: //depot/dev/client3/rdock/2013.1/src/exe/rbdock.cxx#4 $)

>  <Rbt.Library>
libRbt.so (2013.1, Build901 2013/11/27)

>  <Rbt.Parameter_File>
/export/apps/rDock/src/rDock_2013.1_src/data/scripts/dock_solv.prm

>  <Rbt.Receptor>
prm/pocket_docking_5.prm

>  <SCORE>
-8.30579

>  <SCORE.INTER>
-7.83658

>  <SCORE.INTER.CONST>
1

>  <SCORE.INTER.POLAR>
0

>  <SCORE.INTER.ROT>
5

>  <SCORE.INTER.SOLV>
17.8001

>  <SCORE.INTER.VDW>
-18.0911

>  <SCORE.INTER.norm>
-0.356208

>  <SCORE.INTRA>
-0.46921

>  <SCORE.INTRA.DIHEDRAL>
0.251189

>  <SCORE.INTRA.DIHEDRAL.0>
3.49807

>  <SCORE.INTRA.POLAR>
0

>  <SCORE.INTRA.POLAR.0>
0

>  <SCORE.INTRA.REPUL>
0

>  <SCORE.INTRA.REPUL.0>
0

>  <SCORE.INTRA.SOLV>
-0.22

>  <SCORE.INTRA.SOLV.lig_0>
-73.062

>  <SCORE.INTRA.VDW>
-0.484805

>  <SCORE.INTRA.VDW.0>
-1.83782

>  <SCORE.INTRA.norm>
-0.0213277

>  <SCORE.RESTR>
0

>  <SCORE.RESTR.CAVITY>
0

>  <SCORE.RESTR.norm>
0

>  <SCORE.SYSTEM>
0

>  <SCORE.SYSTEM.CONST>
0

>  <SCORE.SYSTEM.DIHEDRAL>
0

>  <SCORE.SYSTEM.SOLV>
0

>  <SCORE.SYSTEM.norm>
0

>  <SCORE.heavy>
22

>  <SCORE.norm>
-0.377536

>  <RMSD>
5.885

$$$$
ligand
 OpenBabel11021811513D
libRbt.so/2013.1/901 2013/11/27
 22 23  0  0  0  0  0  0  0  0999 V2000
  -32.3141    5.1233   -8.3672 N   0  0  0  0  0  0  0  0  0  0  0  0
  -31.1357    2.1485   -9.4692 C   0  0  1  0  0  0  0  0  0  0  0  0
  -31.1806    3.1146   -8.3809 O   0  0  0  0  0  0  0  0  0  0  0  0
  -27.7211    3.3697  -10.5679 P   0  0  1  0  0  0  0  0  0  0  0  0
  -32.4676    3.7528   -8.4054 C   0  0  2  0  0  0  0  0  0  0  0  0
  -31.4947    7.1069   -8.6913 N   0  0  0  0  0  0  0  0  0  0  0  0
  -34.4515    3.5076   -9.7093 O   0  0  0  0  0  0  0  0  0  0  0  0
  -33.0215    3.4311   -9.7398 C   0  0  2  0  0  0  0  0  0  0  0  0
  -33.7082    8.6436   -6.2805 N   0  0  0  0  0  0  0  0  0  0  0  0
  -33.2280    1.1188   -9.2317 O   0  0  0  0  0  0  0  0  0  0  0  0
  -32.5115    2.0923  -10.0097 C   0  0  2  0  0  0  0  0  0  0  0  0
  -32.6559    7.2359   -8.0313 C   0  0  0  0  0  0  0  0  0  0  0  0
  -34.4037    5.6876   -7.1878 N   0  0  0  0  0  0  0  0  0  0  0  0
  -28.9665    2.8048   -9.8008 O   0  0  0  0  0  0  0  0  0  0  0  0
  -30.1729    2.6711  -10.4792 C   0  0  0  0  0  0  0  0  0  0  0  0
  -28.1914    4.8029  -11.0098 O   0  0  0  0  0  0  0  0  0  0  0  0
  -31.2818    5.7926   -8.8933 C   0  0  0  0  0  0  0  0  0  0  0  0
  -33.3947    9.4411   -8.3903 O   0  0  0  0  0  0  0  0  0  0  0  0
  -33.2636    8.5079   -7.5984 C   0  0  0  0  0  0  0  0  0  0  0  0
  -33.1794    5.9913   -7.8263 C   0  0  0  0  0  0  0  0  0  0  0  0
  -26.5296    3.3580   -9.6689 O   0  5  0  0  0  0  0  0  0  0  0  0
  -27.2972    2.4413  -11.6314 O   0  0  0  0  0  0  0  0  0  0  0  0
  1 17  1  0  0  0  0
  1 20  1  0  0  0  0
  2 15  1  6  0  0  0
  2  3  1  0  0  0  0
  2 11  1  0  0  0  0
  3  5  1  0  0  0  0
  4 16  1  6  0  0  0
  4 21  1  0  0  0  0
  4 22  2  0  0  0  0
  4 14  1  0  0  0  0
  5  1  1  6  0  0  0
  5  8  1  0  0  0  0
  6 17  2  0  0  0  0
  6 12  1  0  0  0  0
  8  7  1  1  0  0  0
  8 11  1  0  0  0  0
  9 19  1  0  0  0  0
 11 10  1  1  0  0  0
 12 20  2  0  0  0  0
 12 19  1  0  0  0  0
 13 20  1  0  0  0  0
 14 15  1  0  0  0  0
 18 19  2  0  0  0  0
M  CHG  1  21  -1
M  END
>  <CHROM.1>
31.53684214,58.68910838,60.44669890,-178.68612401,-130.74201782,-31.19785128
4.50461458,-9.19175394,2.40577674,0.28247496,0.26100867

>  <Name>
ligand

>  <RI>
0

>  <Rbt.Current_Directory>
/home/itssahil/PROJECTS/Mol_Feturizer/New_Systems/rnas/4XWF

>  <Rbt.Executable>
rbdock ($Id: //depot/dev/client3/rdock/2013.1/src/exe/rbdock.cxx#4 $)

>  <Rbt.Library>
libRbt.so (2013.1, Build901 2013/11/27)

>  <Rbt.Parameter_File>
/export/apps/rDock/src/rDock_2013.1_src/data/scripts/dock_solv.prm

>  <Rbt.Receptor>
prm/pocket_docking_8.prm

>  <SCORE>
-7.32543

>  <SCORE.INTER>
-5.93349

>  <SCORE.INTER.CONST>
1

>  <SCORE.INTER.POLAR>
0

>  <SCORE.INTER.ROT>
5

>  <SCORE.INTER.SOLV>
8.3213

>  <SCORE.INTER.VDW>
-13.6628

>  <SCORE.INTER.norm>
-0.269704

>  <SCORE.INTRA>
-1.39194

>  <SCORE.INTRA.DIHEDRAL>
-1.88922

>  <SCORE.INTRA.DIHEDRAL.0>
3.49807

>  <SCORE.INTRA.POLAR>
0

>  <SCORE.INTRA.POLAR.0>
0

>  <SCORE.INTRA.REPUL>
0

>  <SCORE.INTRA.REPUL.0>
0

>  <SCORE.INTRA.SOLV>
0.0735344

>  <SCORE.INTRA.SOLV.lig_0>
-73.062

>  <SCORE.INTRA.VDW>
-0.484099

>  <SCORE.INTRA.VDW.0>
-1.83782

>  <SCORE.INTRA.norm>
-0.0632701

>  <SCORE.RESTR>
0

>  <SCORE.RESTR.CAVITY>
0

>  <SCORE.RESTR.norm>
0

>  <SCORE.SYSTEM>
0

>  <SCORE.SYSTEM.CONST>
0

>  <SCORE.SYSTEM.DIHEDRAL>
0

>  <SCORE.SYSTEM.SOLV>
0

>  <SCORE.SYSTEM.norm>
0

>  <SCORE.heavy>
22

>  <SCORE.norm>
-0.332974

>  <RMSD>
5.927

$$$$
ligand
 OpenBabel11021811513D
libRbt.so/2013.1/901 2013/11/27
 22 23  0  0  0  0  0  0  0  0999 V2000
  -31.8277    4.8055   -8.7964 N   0  0  0  0  0  0  0  0  0  0  0  0
  -28.9493    3.6261  -10.1293 C   0  0  1  0  0  0  0  0  0  0  0  0
  -29.9893    4.6438  -10.1799 O   0  0  0  0  0  0  0  0  0  0  0  0
  -28.6770    0.0889  -11.4607 P   0  0  1  0  0  0  0  0  0  0  0  0
  -30.4505    4.8756   -8.8391 C   0  0  2  0  0  0  0  0  0  0  0  0
  -33.8631    4.1589   -9.1838 N   0  0  0  0  0  0  0  0  0  0  0  0
  -29.8411    4.0664   -6.6781 O   0  0  0  0  0  0  0  0  0  0  0  0
  -29.9487    3.7190   -8.0636 C   0  0  2  0  0  0  0  0  0  0  0  0
  -35.4018    7.0479   -7.7563 N   0  0  0  0  0  0  0  0  0  0  0  0
  -27.6801    4.3826   -8.3095 O   0  0  0  0  0  0  0  0  0  0  0  0
  -28.6696    3.4128   -8.6924 C   0  0  2  0  0  0  0  0  0  0  0  0
  -33.9020    5.1394   -8.2686 C   0  0  0  0  0  0  0  0  0  0  0  0
  -32.2252    6.5479   -7.0988 N   0  0  0  0  0  0  0  0  0  0  0  0
  -28.4400    1.5091  -10.8398 O   0  0  0  0  0  0  0  0  0  0  0  0
  -29.5058    2.3992  -10.7655 C   0  0  0  0  0  0  0  0  0  0  0  0
  -29.7205   -0.5614  -10.4816 O   0  0  0  0  0  0  0  0  0  0  0  0
  -32.5733    3.9576   -9.5146 C   0  0  0  0  0  0  0  0  0  0  0  0
  -35.8796    4.9512   -7.0072 O   0  0  0  0  0  0  0  0  0  0  0  0
  -35.1204    5.6839   -7.6412 C   0  0  0  0  0  0  0  0  0  0  0  0
  -32.6238    5.5496   -8.0172 C   0  0  0  0  0  0  0  0  0  0  0  0
  -29.1518    0.2291  -12.8688 O   0  5  0  0  0  0  0  0  0  0  0  0
  -27.3978   -0.6186  -11.6499 O   0  0  0  0  0  0  0  0  0  0  0  0
  1 17  1  0  0  0  0
  1 20  1  0  0  0  0
  2 15  1  1  0  0  0
  2  3  1  0  0  0  0
  2 11  1  0  0  0  0
  3  5  1  0  0  0  0
  4 16  1  1  0  0  0
  4 21  1  0  0  0  0
  4 22  2  0  0  0  0
  4 14  1  0  0  0  0
  5  1  1  6  0  0  0
  5  8  1  0  0  0  0
  6 17  2  0  0  0  0
  6 12  1  0  0  0  0
  8  7  1  1  0  0  0
  8 11  1  0  0  0  0
  9 19  1  0  0  0  0
 11 10  1  1  0  0  0
 12 20  2  0  0  0  0
 12 19  1  0  0  0  0
 13 20  1  0  0  0  0
 14 15  1  0  0  0  0
 18 19  2  0  0  0  0
M  CHG  1  21  -1
M  END
>  <CHROM.1>
36.58216603,173.20123553,-62.88180332,179.69074305,-122.10495465,-30.76931647
3.33515796,-9.36025459,-2.29739833,0.05443903,-2.48856492

>  <Name>
ligand

>  <RI>
0

>  <Rbt.Current_Directory>
/home/itssahil/PROJECTS/Mol_Feturizer/New_Systems/rnas/4XWF

>  <Rbt.Executable>
rbdock ($Id: //depot/dev/client3/rdock/2013.1/src/exe/rbdock.cxx#4 $)

>  <Rbt.Library>
libRbt.so (2013.1, Build901 2013/11/27)

>  <Rbt.Parameter_File>
/export/apps/rDock/src/rDock_2013.1_src/data/scripts/dock_solv.prm

>  <Rbt.Receptor>
prm/pocket_docking_5.prm

>  <SCORE>
-7.44048

>  <SCORE.INTER>
-6.2266

>  <SCORE.INTER.CONST>
1

>  <SCORE.INTER.POLAR>
0

>  <SCORE.INTER.ROT>
5

>  <SCORE.INTER.SOLV>
14.8039

>  <SCORE.INTER.VDW>
-16.019

>  <SCORE.INTER.norm>
-0.283027

>  <SCORE.INTRA>
-1.21389

>  <SCORE.INTRA.DIHEDRAL>
-1.83525

>  <SCORE.INTRA.DIHEDRAL.0>
3.49807

>  <SCORE.INTRA.POLAR>
0

>  <SCORE.INTRA.POLAR.0>
0

>  <SCORE.INTRA.REPUL>
0

>  <SCORE.INTRA.REPUL.0>
0

>  <SCORE.INTRA.SOLV>
-0.0778196

>  <SCORE.INTRA.SOLV.lig_0>
-73.062

>  <SCORE.INTRA.VDW>
-0.257353

>  <SCORE.INTRA.VDW.0>
-1.83782

>  <SCORE.INTRA.norm>
-0.0551767

>  <SCORE.RESTR>
0

>  <SCORE.RESTR.CAVITY>
0

>  <SCORE.RESTR.norm>
0

>  <SCORE.SYSTEM>
0

>  <SCORE.SYSTEM.CONST>
0

>  <SCORE.SYSTEM.DIHEDRAL>
0

>  <SCORE.SYSTEM.SOLV>
0

>  <SCORE.SYSTEM.norm>
0

>  <SCORE.heavy>
22

>  <SCORE.norm>
-0.338204

>  <RMSD>
5.932

$$$$
ligand
 OpenBabel11021811513D
libRbt.so/2013.1/901 2013/11/27
 22 23  0  0  0  0  0  0  0  0999 V2000
  -32.8925    2.2919   -9.9673 N   0  0  0  0  0  0  0  0  0  0  0  0
  -33.0334    5.1123   -8.1024 C   0  0  1  0  0  0  0  0  0  0  0  0
  -33.2727    4.4947   -9.3990 O   0  0  0  0  0  0  0  0  0  0  0  0
  -29.8947    7.0983   -8.8373 P   0  0  1  0  0  0  0  0  0  0  0  0
  -33.6542    3.1274   -9.1768 C   0  0  2  0  0  0  0  0  0  0  0  0
  -32.3438    0.7150  -11.3541 N   0  0  0  0  0  0  0  0  0  0  0  0
  -34.0470    1.7735   -7.2510 O   0  0  0  0  0  0  0  0  0  0  0  0
  -33.2624    2.8505   -7.7766 C   0  0  2  0  0  0  0  0  0  0  0  0
  -28.8614    0.7868  -10.5986 N   0  0  0  0  0  0  0  0  0  0  0  0
  -34.8903    4.3416   -6.8972 O   0  0  0  0  0  0  0  0  0  0  0  0
  -33.4842    4.1224   -7.0998 C   0  0  2  0  0  0  0  0  0  0  0  0
  -31.2308    1.3872  -11.0223 C   0  0  0  0  0  0  0  0  0  0  0  0
  -30.6928    3.3342   -9.5790 N   0  0  0  0  0  0  0  0  0  0  0  0
  -31.3276    6.4617   -8.8203 O   0  0  0  0  0  0  0  0  0  0  0  0
  -31.5684    5.3642   -8.0010 C   0  0  0  0  0  0  0  0  0  0  0  0
  -30.0709    8.3543   -9.7657 O   0  0  0  0  0  0  0  0  0  0  0  0
  -33.3740    1.2755  -10.6923 C   0  0  0  0  0  0  0  0  0  0  0  0
  -29.6171    1.1411  -12.7173 O   0  0  0  0  0  0  0  0  0  0  0  0
  -29.8710    1.0972  -11.5136 C   0  0  0  0  0  0  0  0  0  0  0  0
  -31.5688    2.3837  -10.1517 C   0  0  0  0  0  0  0  0  0  0  0  0
  -29.4685    7.4136   -7.4420 O   0  5  0  0  0  0  0  0  0  0  0  0
  -28.8849    6.1013   -9.2359 O   0  0  0  0  0  0  0  0  0  0  0  0
  1 17  1  0  0  0  0
  1 20  1  0  0  0  0
  2 15  1  1  0  0  0
  2  3  1  0  0  0  0
  2 11  1  0  0  0  0
  3  5  1  0  0  0  0
  4 16  1  6  0  0  0
  4 21  1  0  0  0  0
  4 22  2  0  0  0  0
  4 14  1  0  0  0  0
  5  1  1  6  0  0  0
  5  8  1  0  0  0  0
  6 17  2  0  0  0  0
  6 12  1  0  0  0  0
  8  7  1  1  0  0  0
  8 11  1  0  0  0  0
  9 19  1  0  0  0  0
 11 10  1  6  0  0  0
 12 20  2  0  0  0  0
 12 19  1  0  0  0  0
 13 20  1  0  0  0  0
 14 15  1  0  0  0  0
 18 19  2  0  0  0  0
M  CHG  1  21  -1
M  END
>  <CHROM.1>
-134.39994351,74.98264536,-175.27512659,173.75330772,-120.87295477,-31.57558797
3.97418491,-9.27044501,1.81613180,-0.53332571,-2.66246502

>  <Name>
ligand

>  <RI>
0

>  <Rbt.Current_Directory>
/home/itssahil/PROJECTS/Mol_Feturizer/New_Systems/rnas/4XWF

>  <Rbt.Executable>
rbdock ($Id: //depot/dev/client3/rdock/2013.1/src/exe/rbdock.cxx#4 $)

>  <Rbt.Library>
libRbt.so (2013.1, Build901 2013/11/27)

>  <Rbt.Parameter_File>
/export/apps/rDock/src/rDock_2013.1_src/data/scripts/dock_solv.prm

>  <Rbt.Receptor>
prm/pocket_docking_7.prm

>  <SCORE>
-7.43964

>  <SCORE.INTER>
-10.5864

>  <SCORE.INTER.CONST>
1

>  <SCORE.INTER.POLAR>
0

>  <SCORE.INTER.ROT>
5

>  <SCORE.INTER.SOLV>
12.4826

>  <SCORE.INTER.VDW>
-18.1518

>  <SCORE.INTER.norm>
-0.4812

>  <SCORE.INTRA>
3.14675

>  <SCORE.INTRA.DIHEDRAL>
-0.960677

>  <SCORE.INTRA.DIHEDRAL.0>
3.49807

>  <SCORE.INTRA.POLAR>
0

>  <SCORE.INTRA.POLAR.0>
0

>  <SCORE.INTRA.REPUL>
0

>  <SCORE.INTRA.REPUL.0>
0

>  <SCORE.INTRA.SOLV>
7.20038

>  <SCORE.INTRA.SOLV.lig_0>
-73.062

>  <SCORE.INTRA.VDW>
0.0268985

>  <SCORE.INTRA.VDW.0>
-1.83782

>  <SCORE.INTRA.norm>
0.143034

>  <SCORE.RESTR>
0

>  <SCORE.RESTR.CAVITY>
0

>  <SCORE.RESTR.norm>
0

>  <SCORE.SYSTEM>
0

>  <SCORE.SYSTEM.CONST>
0

>  <SCORE.SYSTEM.DIHEDRAL>
0

>  <SCORE.SYSTEM.SOLV>
0

>  <SCORE.SYSTEM.norm>
0

>  <SCORE.heavy>
22

>  <SCORE.norm>
-0.338166

>  <RMSD>
5.935

$$$$
ligand
 OpenBabel11021811513D
libRbt.so/2013.1/901 2013/11/27
 22 23  0  0  0  0  0  0  0  0999 V2000
  -30.3698    0.1332   -9.6151 N   0  0  0  0  0  0  0  0  0  0  0  0
  -28.0756    0.1165  -12.1028 C   0  0  1  0  0  0  0  0  0  0  0  0
  -29.2004   -0.5638  -11.4770 O   0  0  0  0  0  0  0  0  0  0  0  0
  -25.5748   -2.2125  -10.4673 P   0  0  1  0  0  0  0  0  0  0  0  0
  -30.0754    0.4353  -10.9286 C   0  0  2  0  0  0  0  0  0  0  0  0
  -30.2216   -0.7061   -7.6190 N   0  0  0  0  0  0  0  0  0  0  0  0
  -30.1182    2.8215  -10.9151 O   0  0  0  0  0  0  0  0  0  0  0  0
  -29.2632    1.6723  -10.9014 C   0  0  2  0  0  0  0  0  0  0  0  0
  -32.3415    1.6415   -6.0258 N   0  0  0  0  0  0  0  0  0  0  0  0
  -29.1846    1.8188  -13.2720 O   0  0  0  0  0  0  0  0  0  0  0  0
  -28.4191    1.5553  -12.0842 C   0  0  2  0  0  0  0  0  0  0  0  0
  -31.2997    0.0918   -7.6590 C   0  0  0  0  0  0  0  0  0  0  0  0
  -32.3806    1.5366   -9.3642 N   0  0  0  0  0  0  0  0  0  0  0  0
  -26.7204   -1.5505  -11.3086 O   0  0  0  0  0  0  0  0  0  0  0  0
  -26.8731   -0.1688  -11.2706 C   0  0  0  0  0  0  0  0  0  0  0  0
  -25.7956   -3.7501  -10.7075 O   0  0  0  0  0  0  0  0  0  0  0  0
  -29.6491   -0.6833   -8.8377 C   0  0  0  0  0  0  0  0  0  0  0  0
  -32.8790   -0.5713   -6.0455 O   0  0  0  0  0  0  0  0  0  0  0  0
  -32.2243    0.3469   -6.5388 C   0  0  0  0  0  0  0  0  0  0  0  0
  -31.3979    0.6264   -8.9120 C   0  0  0  0  0  0  0  0  0  0  0  0
  -24.2516   -1.6970  -10.9271 O   0  5  0  0  0  0  0  0  0  0  0  0
  -25.6085   -1.7361   -9.0729 O   0  0  0  0  0  0  0  0  0  0  0  0
  1 17  1  0  0  0  0
  1 20  1  0  0  0  0
  2 15  1  1  0  0  0
  2  3  1  0  0  0  0
  2 11  1  0  0  0  0
  3  5  1  0  0  0  0
  4 16  1  6  0  0  0
  4 21  1  0  0  0  0
  4 22  2  0  0  0  0
  4 14  1  0  0  0  0
  5  1  1  1  0  0  0
  5  8  1  0  0  0  0
  6 17  2  0  0  0  0
  6 12  1  0  0  0  0
  8  7  1  6  0  0  0
  8 11  1  0  0  0  0
  9 19  1  0  0  0  0
 11 10  1  6  0  0  0
 12 20  2  0  0  0  0
 12 19  1  0  0  0  0
 13 20  1  0  0  0  0
 14 15  1  0  0  0  0
 18 19  2  0  0  0  0
M  CHG  1  21  -1
M  END
>  <CHROM.1>
19.79814854,61.13226438,176.64145578,-176.95276019,116.93144566,-28.88891364
-0.19526806,-9.90949292,2.96621669,-0.56728992,2.16515940

>  <Name>
ligand

>  <RI>
0

>  <Rbt.Current_Directory>
/home/itssahil/PROJECTS/Mol_Feturizer/New_Systems/rnas/4XWF

>  <Rbt.Executable>
rbdock ($Id: //depot/dev/client3/rdock/2013.1/src/exe/rbdock.cxx#4 $)

>  <Rbt.Library>
libRbt.so (2013.1, Build901 2013/11/27)

>  <Rbt.Parameter_File>
/export/apps/rDock/src/rDock_2013.1_src/data/scripts/dock_solv.prm

>  <Rbt.Receptor>
prm/pocket_docking_8.prm

>  <SCORE>
-4.17164

>  <SCORE.INTER>
-3.36179

>  <SCORE.INTER.CONST>
1

>  <SCORE.INTER.POLAR>
0

>  <SCORE.INTER.ROT>
5

>  <SCORE.INTER.SOLV>
10.7416

>  <SCORE.INTER.VDW>
-12.7551

>  <SCORE.INTER.norm>
-0.152809

>  <SCORE.INTRA>
-0.809845

>  <SCORE.INTRA.DIHEDRAL>
-1.91888

>  <SCORE.INTRA.DIHEDRAL.0>
3.49807

>  <SCORE.INTRA.POLAR>
0

>  <SCORE.INTRA.POLAR.0>
0

>  <SCORE.INTRA.REPUL>
0

>  <SCORE.INTRA.REPUL.0>
0

>  <SCORE.INTRA.SOLV>
1.12677

>  <SCORE.INTRA.SOLV.lig_0>
-73.062

>  <SCORE.INTRA.VDW>
-0.413793

>  <SCORE.INTRA.VDW.0>
-1.83782

>  <SCORE.INTRA.norm>
-0.0368111

>  <SCORE.RESTR>
0

>  <SCORE.RESTR.CAVITY>
0

>  <SCORE.RESTR.norm>
0

>  <SCORE.SYSTEM>
0

>  <SCORE.SYSTEM.CONST>
0

>  <SCORE.SYSTEM.DIHEDRAL>
0

>  <SCORE.SYSTEM.SOLV>
0

>  <SCORE.SYSTEM.norm>
0

>  <SCORE.heavy>
22

>  <SCORE.norm>
-0.18962

>  <RMSD>
5.996

$$$$
ligand
 OpenBabel11021811513D
libRbt.so/2013.1/901 2013/11/27
 22 23  0  0  0  0  0  0  0  0999 V2000
  -32.7596    5.4628   -8.1436 N   0  0  0  0  0  0  0  0  0  0  0  0
  -31.1532    2.6690   -9.1765 C   0  0  1  0  0  0  0  0  0  0  0  0
  -31.3944    3.6046   -8.0873 O   0  0  0  0  0  0  0  0  0  0  0  0
  -27.8095    4.2363  -10.0216 P   0  0  1  0  0  0  0  0  0  0  0  0
  -32.7436    4.0847   -8.2037 C   0  0  2  0  0  0  0  0  0  0  0  0
  -32.1662    7.5355   -8.3949 N   0  0  0  0  0  0  0  0  0  0  0  0
  -34.5819    3.6257   -9.6549 O   0  0  0  0  0  0  0  0  0  0  0  0
  -33.1547    3.7212   -9.5783 C   0  0  2  0  0  0  0  0  0  0  0  0
  -33.6351    9.9734   -7.6266 N   0  0  0  0  0  0  0  0  0  0  0  0
  -33.1180    1.3927   -9.1048 O   0  0  0  0  0  0  0  0  0  0  0  0
  -32.4687    2.4577   -9.8193 C   0  0  2  0  0  0  0  0  0  0  0  0
  -33.3754    7.5134   -7.8136 C   0  0  0  0  0  0  0  0  0  0  0  0
  -34.9751    5.7529   -7.1029 N   0  0  0  0  0  0  0  0  0  0  0  0
  -29.0237    3.4904   -9.3673 O   0  0  0  0  0  0  0  0  0  0  0  0
  -30.1887    3.3197  -10.1072 C   0  0  0  0  0  0  0  0  0  0  0  0
  -28.3363    5.7086  -10.1810 O   0  0  0  0  0  0  0  0  0  0  0  0
  -31.7832    6.2597   -8.5932 C   0  0  0  0  0  0  0  0  0  0  0  0
  -35.2607    8.5656   -6.8776 O   0  0  0  0  0  0  0  0  0  0  0  0
  -34.1595    8.6960   -7.4118 C   0  0  0  0  0  0  0  0  0  0  0  0
  -33.7572    6.2117   -7.6549 C   0  0  0  0  0  0  0  0  0  0  0  0
  -26.6064    4.0995   -9.1489 O   0  5  0  0  0  0  0  0  0  0  0  0
  -27.3674    3.5421  -11.2444 O   0  0  0  0  0  0  0  0  0  0  0  0
  1 17  1  0  0  0  0
  1 20  1  0  0  0  0
  2 15  1  6  0  0  0
  2  3  1  0  0  0  0
  2 11  1  0  0  0  0
  3  5  1  0  0  0  0
  4 16  1  6  0  0  0
  4 21  1  0  0  0  0
  4 22  2  0  0  0  0
  4 14  1  0  0  0  0
  5  1  1  6  0  0  0
  5  8  1  0  0  0  0
  6 17  2  0  0  0  0
  6 12  1  0  0  0  0
  8  7  1  1  0  0  0
  8 11  1  0  0  0  0
  9 19  1  0  0  0  0
 11 10  1  1  0  0  0
 12 20  2  0  0  0  0
 12 19  1  0  0  0  0
 13 20  1  0  0  0  0
 14 15  1  0  0  0  0
 18 19  2  0  0  0  0
M  CHG  1  21  -1
M  END
>  <CHROM.1>
31.98952353,63.20660186,67.15380525,-176.32924385,-0.46211857,-31.50816031
4.97478732,-8.88852214,2.54346334,0.23706194,0.24120022

>  <Name>
ligand

>  <RI>
0

>  <Rbt.Current_Directory>
/home/itssahil/PROJECTS/Mol_Feturizer/New_Systems/rnas/4XWF

>  <Rbt.Executable>
rbdock ($Id: //depot/dev/client3/rdock/2013.1/src/exe/rbdock.cxx#4 $)

>  <Rbt.Library>
libRbt.so (2013.1, Build901 2013/11/27)

>  <Rbt.Parameter_File>
/export/apps/rDock/src/rDock_2013.1_src/data/scripts/dock_solv.prm

>  <Rbt.Receptor>
prm/pocket_docking_8.prm

>  <SCORE>
-7.86526

>  <SCORE.INTER>
-6.4784

>  <SCORE.INTER.CONST>
1

>  <SCORE.INTER.POLAR>
0

>  <SCORE.INTER.ROT>
5

>  <SCORE.INTER.SOLV>
11.3786

>  <SCORE.INTER.VDW>
-15.0451

>  <SCORE.INTER.norm>
-0.294473

>  <SCORE.INTRA>
-1.38686

>  <SCORE.INTRA.DIHEDRAL>
-1.85594

>  <SCORE.INTRA.DIHEDRAL.0>
3.49807

>  <SCORE.INTRA.POLAR>
0

>  <SCORE.INTRA.POLAR.0>
0

>  <SCORE.INTRA.REPUL>
0

>  <SCORE.INTRA.REPUL.0>
0

>  <SCORE.INTRA.SOLV>
-0.0470645

>  <SCORE.INTRA.SOLV.lig_0>
-73.062

>  <SCORE.INTRA.VDW>
-0.435358

>  <SCORE.INTRA.VDW.0>
-1.83782

>  <SCORE.INTRA.norm>
-0.063039

>  <SCORE.RESTR>
0

>  <SCORE.RESTR.CAVITY>
0

>  <SCORE.RESTR.norm>
0

>  <SCORE.SYSTEM>
0

>  <SCORE.SYSTEM.CONST>
0

>  <SCORE.SYSTEM.DIHEDRAL>
0

>  <SCORE.SYSTEM.SOLV>
0

>  <SCORE.SYSTEM.norm>
0

>  <SCORE.heavy>
22

>  <SCORE.norm>
-0.357512

>  <RMSD>
5.997

$$$$
ligand
 OpenBabel11021811513D
libRbt.so/2013.1/901 2013/11/27
 22 23  0  0  0  0  0  0  0  0999 V2000
  -32.8171    2.2995   -9.9367 N   0  0  0  0  0  0  0  0  0  0  0  0
  -33.2276    5.1317   -8.1305 C   0  0  1  0  0  0  0  0  0  0  0  0
  -33.3608    4.4822   -9.4267 O   0  0  0  0  0  0  0  0  0  0  0  0
  -30.1693    7.2738   -8.7673 P   0  0  1  0  0  0  0  0  0  0  0  0
  -33.6687    3.0971   -9.2007 C   0  0  2  0  0  0  0  0  0  0  0  0
  -32.1040    0.7669  -11.2982 N   0  0  0  0  0  0  0  0  0  0  0  0
  -34.0773    1.7487   -7.2743 O   0  0  0  0  0  0  0  0  0  0  0  0
  -33.3340    2.8648   -7.7777 C   0  0  2  0  0  0  0  0  0  0  0  0
  -29.3413    0.2426  -12.1873 N   0  0  0  0  0  0  0  0  0  0  0  0
  -35.0939    4.2642   -7.0085 O   0  0  0  0  0  0  0  0  0  0  0  0
  -33.6683    4.1300   -7.1352 C   0  0  2  0  0  0  0  0  0  0  0  0
  -31.0443    1.4634  -10.8593 C   0  0  0  0  0  0  0  0  0  0  0  0
  -30.6912    3.3954   -9.3407 N   0  0  0  0  0  0  0  0  0  0  0  0
  -31.5734    6.5760   -8.7814 O   0  0  0  0  0  0  0  0  0  0  0  0
  -31.7881    5.4756   -7.9588 C   0  0  0  0  0  0  0  0  0  0  0  0
  -30.3771    8.5176   -9.7055 O   0  0  0  0  0  0  0  0  0  0  0  0
  -33.2037    1.2847  -10.7185 C   0  0  0  0  0  0  0  0  0  0  0  0
  -28.7303    1.8635  -10.7091 O   0  0  0  0  0  0  0  0  0  0  0  0
  -29.6391    1.2218  -11.2358 C   0  0  0  0  0  0  0  0  0  0  0  0
  -31.4857    2.4323  -10.0039 C   0  0  0  0  0  0  0  0  0  0  0  0
  -29.7906    7.6123   -7.3638 O   0  5  0  0  0  0  0  0  0  0  0  0
  -29.1082    6.3199   -9.1372 O   0  0  0  0  0  0  0  0  0  0  0  0
  1 17  1  0  0  0  0
  1 20  1  0  0  0  0
  2 15  1  1  0  0  0
  2  3  1  0  0  0  0
  2 11  1  0  0  0  0
  3  5  1  0  0  0  0
  4 16  1  6  0  0  0
  4 21  1  0  0  0  0
  4 22  2  0  0  0  0
  4 14  1  0  0  0  0
  5  1  1  6  0  0  0
  5  8  1  0  0  0  0
  6 17  2  0  0  0  0
  6 12  1  0  0  0  0
  8  7  1  1  0  0  0
  8 11  1  0  0  0  0
  9 19  1  0  0  0  0
 11 10  1  6  0  0  0
 12 20  2  0  0  0  0
 12 19  1  0  0  0  0
 13 20  1  0  0  0  0
 14 15  1  0  0  0  0
 18 19  2  0  0  0  0
M  CHG  1  21  -1
M  END
>  <CHROM.1>
-131.01191226,75.10785396,-175.00986434,175.58825028,3.92500604,-31.63748373
4.05061087,-9.19567712,1.72454549,-0.49676870,-2.73217903

>  <Name>
ligand

>  <RI>
0

>  <Rbt.Current_Directory>
/home/itssahil/PROJECTS/Mol_Feturizer/New_Systems/rnas/4XWF

>  <Rbt.Executable>
rbdock ($Id: //depot/dev/client3/rdock/2013.1/src/exe/rbdock.cxx#4 $)

>  <Rbt.Library>
libRbt.so (2013.1, Build901 2013/11/27)

>  <Rbt.Parameter_File>
/export/apps/rDock/src/rDock_2013.1_src/data/scripts/dock_solv.prm

>  <Rbt.Receptor>
prm/pocket_docking_6.prm

>  <SCORE>
-7.01479

>  <SCORE.INTER>
-10.1847

>  <SCORE.INTER.CONST>
1

>  <SCORE.INTER.POLAR>
0

>  <SCORE.INTER.ROT>
5

>  <SCORE.INTER.SOLV>
12.8777

>  <SCORE.INTER.VDW>
-18.0157

>  <SCORE.INTER.norm>
-0.462941

>  <SCORE.INTRA>
3.16992

>  <SCORE.INTRA.DIHEDRAL>
-1.02487

>  <SCORE.INTRA.DIHEDRAL.0>
3.49807

>  <SCORE.INTRA.POLAR>
0

>  <SCORE.INTRA.POLAR.0>
0

>  <SCORE.INTRA.REPUL>
0

>  <SCORE.INTRA.REPUL.0>
0

>  <SCORE.INTRA.SOLV>
7.05367

>  <SCORE.INTRA.SOLV.lig_0>
-73.062

>  <SCORE.INTRA.VDW>
0.155521

>  <SCORE.INTRA.VDW.0>
-1.83782

>  <SCORE.INTRA.norm>
0.144087

>  <SCORE.RESTR>
0

>  <SCORE.RESTR.CAVITY>
0

>  <SCORE.RESTR.norm>
0

>  <SCORE.SYSTEM>
0

>  <SCORE.SYSTEM.CONST>
0

>  <SCORE.SYSTEM.DIHEDRAL>
0

>  <SCORE.SYSTEM.SOLV>
0

>  <SCORE.SYSTEM.norm>
0

>  <SCORE.heavy>
22

>  <SCORE.norm>
-0.318854

>  <RMSD>
6.049

$$$$
ligand
 OpenBabel11021811513D
libRbt.so/2013.1/901 2013/11/27
 22 23  0  0  0  0  0  0  0  0999 V2000
  -32.2482    2.9144   -8.9500 N   0  0  0  0  0  0  0  0  0  0  0  0
  -29.7235    1.2251  -10.4416 C   0  0  1  0  0  0  0  0  0  0  0  0
  -30.1861    2.4919   -9.8929 O   0  0  0  0  0  0  0  0  0  0  0  0
  -28.2436    0.6385  -13.1700 P   0  0  1  0  0  0  0  0  0  0  0  0
  -31.0740    2.2057   -8.8002 C   0  0  2  0  0  0  0  0  0  0  0  0
  -34.1456    3.5970   -9.7529 N   0  0  0  0  0  0  0  0  0  0  0  0
  -31.8232    0.2215   -7.7060 O   0  0  0  0  0  0  0  0  0  0  0  0
  -31.4240    0.7770   -8.9645 C   0  0  2  0  0  0  0  0  0  0  0  0
  -35.6721    4.9138   -6.9898 N   0  0  0  0  0  0  0  0  0  0  0  0
  -29.2138    0.0532   -8.4766 O   0  0  0  0  0  0  0  0  0  0  0  0
  -30.2072    0.1853   -9.5071 C   0  0  2  0  0  0  0  0  0  0  0  0
  -33.9111    4.2605   -8.6104 C   0  0  0  0  0  0  0  0  0  0  0  0
  -32.1187    4.2659   -6.8927 N   0  0  0  0  0  0  0  0  0  0  0  0
  -29.5521    0.1506  -12.4571 O   0  0  0  0  0  0  0  0  0  0  0  0
  -30.3427    1.0792  -11.7890 C   0  0  0  0  0  0  0  0  0  0  0  0
  -28.7871    1.4625  -14.3932 O   0  0  0  0  0  0  0  0  0  0  0  0
  -33.1077    2.7655   -9.9647 C   0  0  0  0  0  0  0  0  0  0  0  0
  -34.7659    6.4440   -8.4121 O   0  0  0  0  0  0  0  0  0  0  0  0
  -34.7913    5.2806   -8.0109 C   0  0  0  0  0  0  0  0  0  0  0  0
  -32.7195    3.8339   -8.0973 C   0  0  0  0  0  0  0  0  0  0  0  0
  -27.4132    1.4261  -12.2118 O   0  5  0  0  0  0  0  0  0  0  0  0
  -27.3541   -0.4992  -13.4651 O   0  0  0  0  0  0  0  0  0  0  0  0
  1 17  1  0  0  0  0
  1 20  1  0  0  0  0
  2 15  1  6  0  0  0
  2  3  1  0  0  0  0
  2 11  1  0  0  0  0
  3  5  1  0  0  0  0
  4 16  1  6  0  0  0
  4 21  1  0  0  0  0
  4 22  2  0  0  0  0
  4 14  1  0  0  0  0
  5  1  1  6  0  0  0
  5  8  1  0  0  0  0
  6 17  2  0  0  0  0
  6 12  1  0  0  0  0
  8  7  1  1  0  0  0
  8 11  1  0  0  0  0
  9 19  1  0  0  0  0
 11 10  1  1  0  0  0
 12 20  2  0  0  0  0
 12 19  1  0  0  0  0
 13 20  1  0  0  0  0
 14 15  1  0  0  0  0
 18 19  2  0  0  0  0
M  CHG  1  21  -1
M  END
>  <CHROM.1>
62.78829688,159.78825674,-70.54204759,-83.60765408,97.72364844,-31.03524097
2.10776400,-10.11555539,-2.85659008,0.78525202,-1.09921200

>  <Name>
ligand

>  <RI>
0

>  <Rbt.Current_Directory>
/home/itssahil/PROJECTS/Mol_Feturizer/New_Systems/rnas/4XWF

>  <Rbt.Executable>
rbdock ($Id: //depot/dev/client3/rdock/2013.1/src/exe/rbdock.cxx#4 $)

>  <Rbt.Library>
libRbt.so (2013.1, Build901 2013/11/27)

>  <Rbt.Parameter_File>
/export/apps/rDock/src/rDock_2013.1_src/data/scripts/dock_solv.prm

>  <Rbt.Receptor>
prm/pocket_docking_7.prm

>  <SCORE>
-8.39377

>  <SCORE.INTER>
-10.2857

>  <SCORE.INTER.CONST>
1

>  <SCORE.INTER.POLAR>
0

>  <SCORE.INTER.ROT>
5

>  <SCORE.INTER.SOLV>
13.4843

>  <SCORE.INTER.VDW>
-18.2853

>  <SCORE.INTER.norm>
-0.467532

>  <SCORE.INTRA>
1.89194

>  <SCORE.INTRA.DIHEDRAL>
2.43396

>  <SCORE.INTRA.DIHEDRAL.0>
3.49807

>  <SCORE.INTRA.POLAR>
0

>  <SCORE.INTRA.POLAR.0>
0

>  <SCORE.INTRA.REPUL>
0

>  <SCORE.INTRA.REPUL.0>
0

>  <SCORE.INTRA.SOLV>
1.00142

>  <SCORE.INTRA.SOLV.lig_0>
-73.062

>  <SCORE.INTRA.VDW>
0.17425

>  <SCORE.INTRA.VDW.0>
-1.83782

>  <SCORE.INTRA.norm>
0.0859974

>  <SCORE.RESTR>
0

>  <SCORE.RESTR.CAVITY>
0

>  <SCORE.RESTR.norm>
0

>  <SCORE.SYSTEM>
0

>  <SCORE.SYSTEM.CONST>
0

>  <SCORE.SYSTEM.DIHEDRAL>
0

>  <SCORE.SYSTEM.SOLV>
0

>  <SCORE.SYSTEM.norm>
0

>  <SCORE.heavy>
22

>  <SCORE.norm>
-0.381535

>  <RMSD>
6.076

$$$$
ligand
 OpenBabel11021811513D
libRbt.so/2013.1/901 2013/11/27
 22 23  0  0  0  0  0  0  0  0999 V2000
  -32.9470    2.1402   -9.9612 N   0  0  0  0  0  0  0  0  0  0  0  0
  -33.3199    5.1317   -8.4236 C   0  0  1  0  0  0  0  0  0  0  0  0
  -33.6758    4.2910   -9.5578 O   0  0  0  0  0  0  0  0  0  0  0  0
  -30.4681    7.5525   -7.8228 P   0  0  1  0  0  0  0  0  0  0  0  0
  -33.6967    2.9258   -9.1104 C   0  0  2  0  0  0  0  0  0  0  0  0
  -32.4163    0.6329  -11.4301 N   0  0  0  0  0  0  0  0  0  0  0  0
  -33.3868    1.8292   -7.0134 O   0  0  0  0  0  0  0  0  0  0  0  0
  -32.9790    2.9433   -7.8160 C   0  0  2  0  0  0  0  0  0  0  0  0
  -28.8986    0.8112  -10.7933 N   0  0  0  0  0  0  0  0  0  0  0  0
  -34.6808    4.2141   -6.7501 O   0  0  0  0  0  0  0  0  0  0  0  0
  -33.3315    4.2375   -7.2452 C   0  0  2  0  0  0  0  0  0  0  0  0
  -31.3064    1.3165  -11.1114 C   0  0  0  0  0  0  0  0  0  0  0  0
  -30.7572    3.2160   -9.6101 N   0  0  0  0  0  0  0  0  0  0  0  0
  -31.7874    6.7063   -7.7769 O   0  0  0  0  0  0  0  0  0  0  0  0
  -31.9557    5.6693   -8.6880 C   0  0  0  0  0  0  0  0  0  0  0  0
  -30.5086    8.2032   -9.2530 O   0  0  0  0  0  0  0  0  0  0  0  0
  -33.4331    1.1429  -10.7093 C   0  0  0  0  0  0  0  0  0  0  0  0
  -29.7623    1.1255  -12.8767 O   0  0  0  0  0  0  0  0  0  0  0  0
  -29.9597    1.0774  -11.6627 C   0  0  0  0  0  0  0  0  0  0  0  0
  -31.6332    2.2694  -10.1892 C   0  0  0  0  0  0  0  0  0  0  0  0
  -30.4599    8.5317   -6.6963 O   0  5  0  0  0  0  0  0  0  0  0  0
  -29.2994    6.7162   -7.4951 O   0  0  0  0  0  0  0  0  0  0  0  0
  1 17  1  0  0  0  0
  1 20  1  0  0  0  0
  2 15  1  6  0  0  0
  2  3  1  0  0  0  0
  2 11  1  0  0  0  0
  3  5  1  0  0  0  0
  4 16  1  6  0  0  0
  4 21  1  0  0  0  0
  4 22  2  0  0  0  0
  4 14  1  0  0  0  0
  5  1  1  6  0  0  0
  5  8  1  0  0  0  0
  6 17  2  0  0  0  0
  6 12  1  0  0  0  0
  8  7  1  1  0  0  0
  8 11  1  0  0  0  0
  9 19  1  0  0  0  0
 11 10  1  6  0  0  0
 12 20  2  0  0  0  0
 12 19  1  0  0  0  0
 13 20  1  0  0  0  0
 14 15  1  0  0  0  0
 18 19  2  0  0  0  0
M  CHG  1  21  -1
M  END
>  <CHROM.1>
-116.51714591,165.60469542,61.87238965,-177.02332121,-123.64315440,-31.75839019
4.07933075,-9.04516495,1.64682351,-0.51782711,-2.60705109

>  <Name>
ligand

>  <RI>
0

>  <Rbt.Current_Directory>
/home/itssahil/PROJECTS/Mol_Feturizer/New_Systems/rnas/4XWF

>  <Rbt.Executable>
rbdock ($Id: //depot/dev/client3/rdock/2013.1/src/exe/rbdock.cxx#4 $)

>  <Rbt.Library>
libRbt.so (2013.1, Build901 2013/11/27)

>  <Rbt.Parameter_File>
/export/apps/rDock/src/rDock_2013.1_src/data/scripts/dock_solv.prm

>  <Rbt.Receptor>
prm/pocket_docking_7.prm

>  <SCORE>
-7.83712

>  <SCORE.INTER>
-9.64161

>  <SCORE.INTER.CONST>
1

>  <SCORE.INTER.POLAR>
0

>  <SCORE.INTER.ROT>
5

>  <SCORE.INTER.SOLV>
10.3799

>  <SCORE.INTER.VDW>
-16.821

>  <SCORE.INTER.norm>
-0.438255

>  <SCORE.INTRA>
1.80449

>  <SCORE.INTRA.DIHEDRAL>
-1.24922

>  <SCORE.INTRA.DIHEDRAL.0>
3.49807

>  <SCORE.INTRA.POLAR>
0

>  <SCORE.INTRA.POLAR.0>
0

>  <SCORE.INTRA.REPUL>
0

>  <SCORE.INTRA.REPUL.0>
0

>  <SCORE.INTRA.SOLV>
4.59487

>  <SCORE.INTRA.SOLV.lig_0>
-73.062

>  <SCORE.INTRA.VDW>
0.131669

>  <SCORE.INTRA.VDW.0>
-1.83782

>  <SCORE.INTRA.norm>
0.0820225

>  <SCORE.RESTR>
0

>  <SCORE.RESTR.CAVITY>
0

>  <SCORE.RESTR.norm>
0

>  <SCORE.SYSTEM>
0

>  <SCORE.SYSTEM.CONST>
0

>  <SCORE.SYSTEM.DIHEDRAL>
0

>  <SCORE.SYSTEM.SOLV>
0

>  <SCORE.SYSTEM.norm>
0

>  <SCORE.heavy>
22

>  <SCORE.norm>
-0.356233

>  <RMSD>
6.092

$$$$
ligand
 OpenBabel11021811513D
libRbt.so/2013.1/901 2013/11/27
 22 23  0  0  0  0  0  0  0  0999 V2000
  -32.9144    2.2293   -9.9334 N   0  0  0  0  0  0  0  0  0  0  0  0
  -33.3339    5.2001   -8.3680 C   0  0  1  0  0  0  0  0  0  0  0  0
  -33.6329    4.3848   -9.5365 O   0  0  0  0  0  0  0  0  0  0  0  0
  -30.4001    7.3897   -7.3895 P   0  0  1  0  0  0  0  0  0  0  0  0
  -33.7023    3.0127   -9.1157 C   0  0  2  0  0  0  0  0  0  0  0  0
  -32.3173    0.7280  -11.3828 N   0  0  0  0  0  0  0  0  0  0  0  0
  -33.5379    1.8758   -7.0237 O   0  0  0  0  0  0  0  0  0  0  0  0
  -33.0647    2.9964   -7.7800 C   0  0  2  0  0  0  0  0  0  0  0  0
  -29.1509    2.2039  -12.1152 N   0  0  0  0  0  0  0  0  0  0  0  0
  -34.8084    4.2771   -6.7969 O   0  0  0  0  0  0  0  0  0  0  0  0
  -33.4312    4.2865   -7.2086 C   0  0  2  0  0  0  0  0  0  0  0  0
  -31.2223    1.4066  -11.0071 C   0  0  0  0  0  0  0  0  0  0  0  0
  -30.7413    3.2966   -9.4709 N   0  0  0  0  0  0  0  0  0  0  0  0
  -31.7657    6.6275   -7.5021 O   0  0  0  0  0  0  0  0  0  0  0  0
  -31.9479    5.7194   -8.5394 C   0  0  0  0  0  0  0  0  0  0  0  0
  -29.3607    6.2326   -7.1631 O   0  0  0  0  0  0  0  0  0  0  0  0
  -33.3665    1.2373  -10.7094 C   0  0  0  0  0  0  0  0  0  0  0  0
  -29.3276    0.0592  -11.3702 O   0  0  0  0  0  0  0  0  0  0  0  0
  -29.8512    1.1663  -11.4938 C   0  0  0  0  0  0  0  0  0  0  0  0
  -31.5908    2.3557  -10.0967 C   0  0  0  0  0  0  0  0  0  0  0  0
  -30.1713    8.1956   -8.6249 O   0  5  0  0  0  0  0  0  0  0  0  0
  -30.4726    8.4422   -6.3601 O   0  0  0  0  0  0  0  0  0  0  0  0
  1 17  1  0  0  0  0
  1 20  1  0  0  0  0
  2 15  1  6  0  0  0
  2  3  1  0  0  0  0
  2 11  1  0  0  0  0
  3  5  1  0  0  0  0
  4 16  1  1  0  0  0
  4 21  1  0  0  0  0
  4 22  2  0  0  0  0
  4 14  1  0  0  0  0
  5  1  1  6  0  0  0
  5  8  1  0  0  0  0
  6 17  2  0  0  0  0
  6 12  1  0  0  0  0
  8  7  1  1  0  0  0
  8 11  1  0  0  0  0
  9 19  1  0  0  0  0
 11 10  1  6  0  0  0
 12 20  2  0  0  0  0
 12 19  1  0  0  0  0
 13 20  1  0  0  0  0
 14 15  1  0  0  0  0
 18 19  2  0  0  0  0
M  CHG  1  21  -1
M  END
>  <CHROM.1>
-117.76799614,172.35337929,-62.17244886,-179.15178948,121.81668183,-31.72969816
4.08599721,-8.87912533,1.63422321,-0.43898769,-2.58098764

>  <Name>
ligand

>  <RI>
0

>  <Rbt.Current_Directory>
/home/itssahil/PROJECTS/Mol_Feturizer/New_Systems/rnas/4XWF

>  <Rbt.Executable>
rbdock ($Id: //depot/dev/client3/rdock/2013.1/src/exe/rbdock.cxx#4 $)

>  <Rbt.Library>
libRbt.so (2013.1, Build901 2013/11/27)

>  <Rbt.Parameter_File>
/export/apps/rDock/src/rDock_2013.1_src/data/scripts/dock_solv.prm

>  <Rbt.Receptor>
prm/pocket_docking_7.prm

>  <SCORE>
-7.07377

>  <SCORE.INTER>
-8.70383

>  <SCORE.INTER.CONST>
1

>  <SCORE.INTER.POLAR>
0

>  <SCORE.INTER.ROT>
5

>  <SCORE.INTER.SOLV>
11.0811

>  <SCORE.INTER.VDW>
-16.4296

>  <SCORE.INTER.norm>
-0.395628

>  <SCORE.INTRA>
1.63006

>  <SCORE.INTRA.DIHEDRAL>
-1.75985

>  <SCORE.INTRA.DIHEDRAL.0>
3.49807

>  <SCORE.INTRA.POLAR>
0

>  <SCORE.INTRA.POLAR.0>
0

>  <SCORE.INTRA.REPUL>
0

>  <SCORE.INTRA.REPUL.0>
0

>  <SCORE.INTRA.SOLV>
4.71374

>  <SCORE.INTRA.SOLV.lig_0>
-73.062

>  <SCORE.INTRA.VDW>
0.153112

>  <SCORE.INTRA.VDW.0>
-1.83782

>  <SCORE.INTRA.norm>
0.0740935

>  <SCORE.RESTR>
0

>  <SCORE.RESTR.CAVITY>
0

>  <SCORE.RESTR.norm>
0

>  <SCORE.SYSTEM>
0

>  <SCORE.SYSTEM.CONST>
0

>  <SCORE.SYSTEM.DIHEDRAL>
0

>  <SCORE.SYSTEM.SOLV>
0

>  <SCORE.SYSTEM.norm>
0

>  <SCORE.heavy>
22

>  <SCORE.norm>
-0.321535

>  <RMSD>
6.097

$$$$
ligand
 OpenBabel11021811513D
libRbt.so/2013.1/901 2013/11/27
 22 23  0  0  0  0  0  0  0  0999 V2000
  -30.8800    4.3619   -8.9843 N   0  0  0  0  0  0  0  0  0  0  0  0
  -31.1107    1.1683  -10.0800 C   0  0  1  0  0  0  0  0  0  0  0  0
  -30.5131    2.0890   -9.1234 O   0  0  0  0  0  0  0  0  0  0  0  0
  -28.0616    0.8449  -12.3059 P   0  0  1  0  0  0  0  0  0  0  0  0
  -31.4705    3.1231   -8.8434 C   0  0  2  0  0  0  0  0  0  0  0  0
  -30.6228    6.5153   -9.0712 N   0  0  0  0  0  0  0  0  0  0  0  0
  -33.7223    3.5646   -9.4994 O   0  0  0  0  0  0  0  0  0  0  0  0
  -32.4722    3.0116   -9.9273 C   0  0  2  0  0  0  0  0  0  0  0  0
  -28.1367    8.0552   -9.4460 N   0  0  0  0  0  0  0  0  0  0  0  0
  -33.2494    0.9016   -9.1584 O   0  0  0  0  0  0  0  0  0  0  0  0
  -32.5265    1.5804  -10.1991 C   0  0  2  0  0  0  0  0  0  0  0  0
  -29.4197    5.9429   -9.2313 C   0  0  0  0  0  0  0  0  0  0  0  0
  -28.5479    3.6188   -9.2762 N   0  0  0  0  0  0  0  0  0  0  0  0
  -29.1224    0.7910  -11.1525 O   0  0  0  0  0  0  0  0  0  0  0  0
  -30.3815    1.3405  -11.3679 C   0  0  0  0  0  0  0  0  0  0  0  0
  -28.8110    0.1755  -13.5145 O   0  0  0  0  0  0  0  0  0  0  0  0
  -31.5292    5.5304   -8.9239 C   0  0  0  0  0  0  0  0  0  0  0  0
  -27.0995    6.0348   -9.6127 O   0  0  0  0  0  0  0  0  0  0  0  0
  -28.1463    6.6578   -9.4362 C   0  0  0  0  0  0  0  0  0  0  0  0
  -29.5731    4.5869   -9.1747 C   0  0  0  0  0  0  0  0  0  0  0  0
  -27.6462    2.2592  -12.5407 O   0  5  0  0  0  0  0  0  0  0  0  0
  -26.7917    0.2319  -11.8767 O   0  0  0  0  0  0  0  0  0  0  0  0
  1 17  1  0  0  0  0
  1 20  1  0  0  0  0
  2 15  1  6  0  0  0
  2  3  1  0  0  0  0
  2 11  1  0  0  0  0
  3  5  1  0  0  0  0
  4 16  1  6  0  0  0
  4 21  1  0  0  0  0
  4 22  2  0  0  0  0
  4 14  1  0  0  0  0
  5  1  1  6  0  0  0
  5  8  1  0  0  0  0
  6 17  2  0  0  0  0
  6 12  1  0  0  0  0
  8  7  1  1  0  0  0
  8 11  1  0  0  0  0
  9 19  1  0  0  0  0
 11 10  1  1  0  0  0
 12 20  2  0  0  0  0
 12 19  1  0  0  0  0
 13 20  1  0  0  0  0
 14 15  1  0  0  0  0
 18 19  2  0  0  0  0
M  CHG  1  21  -1
M  END
>  <CHROM.1>
173.06239208,70.94766027,-54.59401133,-178.01041492,1.35145913,-29.85994035
3.05676268,-10.29748492,1.76927632,0.36976879,0.42790775

>  <Name>
ligand

>  <RI>
0

>  <Rbt.Current_Directory>
/home/itssahil/PROJECTS/Mol_Feturizer/New_Systems/rnas/4XWF

>  <Rbt.Executable>
rbdock ($Id: //depot/dev/client3/rdock/2013.1/src/exe/rbdock.cxx#4 $)

>  <Rbt.Library>
libRbt.so (2013.1, Build901 2013/11/27)

>  <Rbt.Parameter_File>
/export/apps/rDock/src/rDock_2013.1_src/data/scripts/dock_solv.prm

>  <Rbt.Receptor>
prm/pocket_docking_4.prm

>  <SCORE>
-5.3462

>  <SCORE.INTER>
-7.22474

>  <SCORE.INTER.CONST>
1

>  <SCORE.INTER.POLAR>
0

>  <SCORE.INTER.ROT>
5

>  <SCORE.INTER.SOLV>
6.79763

>  <SCORE.INTER.VDW>
-14.0157

>  <SCORE.INTER.norm>
-0.328397

>  <SCORE.INTRA>
1.87855

>  <SCORE.INTRA.DIHEDRAL>
-1.51354

>  <SCORE.INTRA.DIHEDRAL.0>
3.49807

>  <SCORE.INTRA.POLAR>
0

>  <SCORE.INTRA.POLAR.0>
0

>  <SCORE.INTRA.REPUL>
0

>  <SCORE.INTRA.REPUL.0>
0

>  <SCORE.INTRA.SOLV>
4.08013

>  <SCORE.INTRA.SOLV.lig_0>
-73.062

>  <SCORE.INTRA.VDW>
0.595254

>  <SCORE.INTRA.VDW.0>
-1.83782

>  <SCORE.INTRA.norm>
0.0853885

>  <SCORE.RESTR>
0

>  <SCORE.RESTR.CAVITY>
0

>  <SCORE.RESTR.norm>
0

>  <SCORE.SYSTEM>
0

>  <SCORE.SYSTEM.CONST>
0

>  <SCORE.SYSTEM.DIHEDRAL>
0

>  <SCORE.SYSTEM.SOLV>
0

>  <SCORE.SYSTEM.norm>
0

>  <SCORE.heavy>
22

>  <SCORE.norm>
-0.243009

>  <RMSD>
6.210

$$$$
ligand
 OpenBabel11021811513D
libRbt.so/2013.1/901 2013/11/27
 22 23  0  0  0  0  0  0  0  0999 V2000
  -30.8238    4.3347   -9.0247 N   0  0  0  0  0  0  0  0  0  0  0  0
  -31.1245    1.1285  -10.0650 C   0  0  1  0  0  0  0  0  0  0  0  0
  -30.4975    2.0540   -9.1322 O   0  0  0  0  0  0  0  0  0  0  0  0
  -28.0639    0.8762  -12.2846 P   0  0  1  0  0  0  0  0  0  0  0  0
  -31.4331    3.1086   -8.8553 C   0  0  2  0  0  0  0  0  0  0  0  0
  -30.5315    6.4818   -9.1497 N   0  0  0  0  0  0  0  0  0  0  0  0
  -33.6865    3.5782   -9.4861 O   0  0  0  0  0  0  0  0  0  0  0  0
  -32.4523    2.9970   -9.9228 C   0  0  2  0  0  0  0  0  0  0  0  0
  -27.3596    6.3404  -10.7409 N   0  0  0  0  0  0  0  0  0  0  0  0
  -33.2538    0.9132   -9.1088 O   0  0  0  0  0  0  0  0  0  0  0  0
  -32.5347    1.5628  -10.1705 C   0  0  2  0  0  0  0  0  0  0  0  0
  -29.3409    5.8863   -9.3188 C   0  0  0  0  0  0  0  0  0  0  0  0
  -28.5095    3.5471   -9.3397 N   0  0  0  0  0  0  0  0  0  0  0  0
  -29.1152    0.8267  -11.1222 O   0  0  0  0  0  0  0  0  0  0  0  0
  -30.4114    1.2676  -11.3659 C   0  0  0  0  0  0  0  0  0  0  0  0
  -27.9289    2.4138  -12.5813 O   0  0  0  0  0  0  0  0  0  0  0  0
  -31.4522    5.5150   -8.9732 C   0  0  0  0  0  0  0  0  0  0  0  0
  -27.5955    7.3422   -8.7096 O   0  0  0  0  0  0  0  0  0  0  0  0
  -28.0588    6.5759   -9.5540 C   0  0  0  0  0  0  0  0  0  0  0  0
  -29.5164    4.5342   -9.2383 C   0  0  0  0  0  0  0  0  0  0  0  0
  -26.7990    0.2160  -11.8463 O   0  5  0  0  0  0  0  0  0  0  0  0
  -28.4784    0.0077  -13.4011 O   0  0  0  0  0  0  0  0  0  0  0  0
  1 17  1  0  0  0  0
  1 20  1  0  0  0  0
  2 15  1  6  0  0  0
  2  3  1  0  0  0  0
  2 11  1  0  0  0  0
  3  5  1  0  0  0  0
  4 16  1  6  0  0  0
  4 21  1  0  0  0  0
  4 22  2  0  0  0  0
  4 14  1  0  0  0  0
  5  1  1  6  0  0  0
  5  8  1  0  0  0  0
  6 17  2  0  0  0  0
  6 12  1  0  0  0  0
  8  7  1  1  0  0  0
  8 11  1  0  0  0  0
  9 19  1  0  0  0  0
 11 10  1  1  0  0  0
 12 20  2  0  0  0  0
 12 19  1  0  0  0  0
 13 20  1  0  0  0  0
 14 15  1  0  0  0  0
 18 19  2  0  0  0  0
M  CHG  1  21  -1
M  END
>  <CHROM.1>
173.10662218,65.00380341,63.94637713,-178.23732425,-118.61951517,-29.82751444
3.03040929,-10.31541252,1.76511961,0.38562540,0.42947784

>  <Name>
ligand

>  <RI>
0

>  <Rbt.Current_Directory>
/home/itssahil/PROJECTS/Mol_Feturizer/New_Systems/rnas/4XWF

>  <Rbt.Executable>
rbdock ($Id: //depot/dev/client3/rdock/2013.1/src/exe/rbdock.cxx#4 $)

>  <Rbt.Library>
libRbt.so (2013.1, Build901 2013/11/27)

>  <Rbt.Parameter_File>
/export/apps/rDock/src/rDock_2013.1_src/data/scripts/dock_solv.prm

>  <Rbt.Receptor>
prm/pocket_docking_4.prm

>  <SCORE>
-4.21059

>  <SCORE.INTER>
-5.51453

>  <SCORE.INTER.CONST>
1

>  <SCORE.INTER.POLAR>
0

>  <SCORE.INTER.ROT>
5

>  <SCORE.INTER.SOLV>
10.6352

>  <SCORE.INTER.VDW>
-14.1548

>  <SCORE.INTER.norm>
-0.25066

>  <SCORE.INTRA>
1.30394

>  <SCORE.INTRA.DIHEDRAL>
-1.86669

>  <SCORE.INTRA.DIHEDRAL.0>
3.49807

>  <SCORE.INTRA.POLAR>
0

>  <SCORE.INTRA.POLAR.0>
0

>  <SCORE.INTRA.REPUL>
0

>  <SCORE.INTRA.REPUL.0>
0

>  <SCORE.INTRA.SOLV>
4.00165

>  <SCORE.INTRA.SOLV.lig_0>
-73.062

>  <SCORE.INTRA.VDW>
0.236463

>  <SCORE.INTRA.VDW.0>
-1.83782

>  <SCORE.INTRA.norm>
0.0592702

>  <SCORE.RESTR>
0

>  <SCORE.RESTR.CAVITY>
0

>  <SCORE.RESTR.norm>
0

>  <SCORE.SYSTEM>
0

>  <SCORE.SYSTEM.CONST>
0

>  <SCORE.SYSTEM.DIHEDRAL>
0

>  <SCORE.SYSTEM.SOLV>
0

>  <SCORE.SYSTEM.norm>
0

>  <SCORE.heavy>
22

>  <SCORE.norm>
-0.19139

>  <RMSD>
6.232

$$$$
ligand
 OpenBabel11021811513D
libRbt.so/2013.1/901 2013/11/27
 22 23  0  0  0  0  0  0  0  0999 V2000
  -30.5553    4.0969   -9.1895 N   0  0  0  0  0  0  0  0  0  0  0  0
  -31.1528    0.9389  -10.2488 C   0  0  1  0  0  0  0  0  0  0  0  0
  -30.4297    1.7977   -9.3218 O   0  0  0  0  0  0  0  0  0  0  0  0
  -28.0514    0.8627  -12.3977 P   0  0  1  0  0  0  0  0  0  0  0  0
  -31.2649    2.9264   -9.0174 C   0  0  2  0  0  0  0  0  0  0  0  0
  -29.0921    5.5209   -9.9261 N   0  0  0  0  0  0  0  0  0  0  0  0
  -33.4812    3.5949   -9.5978 O   0  0  0  0  0  0  0  0  0  0  0  0
  -32.3109    2.9136  -10.0645 C   0  0  2  0  0  0  0  0  0  0  0  0
  -30.9145    8.4193   -8.8954 N   0  0  0  0  0  0  0  0  0  0  0  0
  -33.2733    0.8990   -9.2506 O   0  0  0  0  0  0  0  0  0  0  0  0
  -32.5219    1.4943  -10.3218 C   0  0  2  0  0  0  0  0  0  0  0  0
  -29.9051    6.1600   -9.0709 C   0  0  0  0  0  0  0  0  0  0  0  0
  -31.8830    5.5459   -7.7018 N   0  0  0  0  0  0  0  0  0  0  0  0
  -29.1580    0.5932  -11.3201 O   0  0  0  0  0  0  0  0  0  0  0  0
  -30.4562    1.0284  -11.5629 C   0  0  0  0  0  0  0  0  0  0  0  0
  -27.9123    2.4283  -12.3857 O   0  0  0  0  0  0  0  0  0  0  0  0
  -29.4947    4.2376   -9.9933 C   0  0  0  0  0  0  0  0  0  0  0  0
  -28.7720    8.0401   -8.2231 O   0  0  0  0  0  0  0  0  0  0  0  0
  -29.8128    7.5830   -8.6954 C   0  0  0  0  0  0  0  0  0  0  0  0
  -30.8310    5.2705   -8.6052 C   0  0  0  0  0  0  0  0  0  0  0  0
  -26.8051    0.1269  -12.0328 O   0  5  0  0  0  0  0  0  0  0  0  0
  -28.4047    0.2269  -13.6797 O   0  0  0  0  0  0  0  0  0  0  0  0
  1 17  1  0  0  0  0
  1 20  1  0  0  0  0
  2 15  1  6  0  0  0
  2  3  1  0  0  0  0
  2 11  1  0  0  0  0
  3  5  1  0  0  0  0
  4 16  1  6  0  0  0
  4 21  1  0  0  0  0
  4 22  2  0  0  0  0
  4 14  1  0  0  0  0
  5  1  1  6  0  0  0
  5  8  1  0  0  0  0
  6 17  2  0  0  0  0
  6 12  1  0  0  0  0
  8  7  1  1  0  0  0
  8 11  1  0  0  0  0
  9 19  1  0  0  0  0
 11 10  1  1  0  0  0
 12 20  2  0  0  0  0
 12 19  1  0  0  0  0
 13 20  1  0  0  0  0
 14 15  1  0  0  0  0
 18 19  2  0  0  0  0
M  CHG  1  21  -1
M  END
>  <CHROM.1>
24.72724893,59.51702466,66.56440448,-166.01596663,122.92188580,-30.14275206
3.16502073,-10.24589478,1.86100738,0.42837065,0.40368275

>  <Name>
ligand

>  <RI>
0

>  <Rbt.Current_Directory>
/home/itssahil/PROJECTS/Mol_Feturizer/New_Systems/rnas/4XWF

>  <Rbt.Executable>
rbdock ($Id: //depot/dev/client3/rdock/2013.1/src/exe/rbdock.cxx#4 $)

>  <Rbt.Library>
libRbt.so (2013.1, Build901 2013/11/27)

>  <Rbt.Parameter_File>
/export/apps/rDock/src/rDock_2013.1_src/data/scripts/dock_solv.prm

>  <Rbt.Receptor>
prm/pocket_docking_6.prm

>  <SCORE>
-6.9578

>  <SCORE.INTER>
-5.89381

>  <SCORE.INTER.CONST>
1

>  <SCORE.INTER.POLAR>
0

>  <SCORE.INTER.ROT>
5

>  <SCORE.INTER.SOLV>
12.0756

>  <SCORE.INTER.VDW>
-14.8877

>  <SCORE.INTER.norm>
-0.2679

>  <SCORE.INTRA>
-1.06399

>  <SCORE.INTRA.DIHEDRAL>
-1.03646

>  <SCORE.INTRA.DIHEDRAL.0>
3.49807

>  <SCORE.INTRA.POLAR>
0

>  <SCORE.INTRA.POLAR.0>
0

>  <SCORE.INTRA.REPUL>
0

>  <SCORE.INTRA.REPUL.0>
0

>  <SCORE.INTRA.SOLV>
0.296443

>  <SCORE.INTRA.SOLV.lig_0>
-73.062

>  <SCORE.INTRA.VDW>
-0.693982

>  <SCORE.INTRA.VDW.0>
-1.83782

>  <SCORE.INTRA.norm>
-0.0483633

>  <SCORE.RESTR>
0

>  <SCORE.RESTR.CAVITY>
0

>  <SCORE.RESTR.norm>
0

>  <SCORE.SYSTEM>
0

>  <SCORE.SYSTEM.CONST>
0

>  <SCORE.SYSTEM.DIHEDRAL>
0

>  <SCORE.SYSTEM.SOLV>
0

>  <SCORE.SYSTEM.norm>
0

>  <SCORE.heavy>
22

>  <SCORE.norm>
-0.316264

>  <RMSD>
6.246

$$$$
ligand
 OpenBabel11021811513D
libRbt.so/2013.1/901 2013/11/27
 22 23  0  0  0  0  0  0  0  0999 V2000
  -32.8281    2.2072   -9.9041 N   0  0  0  0  0  0  0  0  0  0  0  0
  -33.4918    5.1525   -8.3754 C   0  0  1  0  0  0  0  0  0  0  0  0
  -33.7208    4.3015   -9.5343 O   0  0  0  0  0  0  0  0  0  0  0  0
  -30.8359    7.7249   -7.5534 P   0  0  1  0  0  0  0  0  0  0  0  0
  -33.6790    2.9336   -9.0970 C   0  0  2  0  0  0  0  0  0  0  0  0
  -32.1114    0.7631  -11.3574 N   0  0  0  0  0  0  0  0  0  0  0  0
  -33.4272    1.8390   -6.9912 O   0  0  0  0  0  0  0  0  0  0  0  0
  -33.0452    2.9853   -7.7604 C   0  0  2  0  0  0  0  0  0  0  0  0
  -29.3840    0.4574  -12.4431 N   0  0  0  0  0  0  0  0  0  0  0  0
  -34.8896    4.1312   -6.7950 O   0  0  0  0  0  0  0  0  0  0  0  0
  -33.5169    4.2479   -7.2051 C   0  0  2  0  0  0  0  0  0  0  0  0
  -31.0659    1.4955  -10.9439 C   0  0  0  0  0  0  0  0  0  0  0  0
  -30.7303    3.3861   -9.3701 N   0  0  0  0  0  0  0  0  0  0  0  0
  -32.0851    6.7777   -7.5840 O   0  0  0  0  0  0  0  0  0  0  0  0
  -32.1523    5.7810   -8.5514 C   0  0  0  0  0  0  0  0  0  0  0  0
  -30.8341    8.3632   -8.9897 O   0  0  0  0  0  0  0  0  0  0  0  0
  -33.2042    1.2035  -10.7051 C   0  0  0  0  0  0  0  0  0  0  0  0
  -28.7618    1.9650  -10.8539 O   0  0  0  0  0  0  0  0  0  0  0  0
  -29.6715    1.3388  -11.3975 C   0  0  0  0  0  0  0  0  0  0  0  0
  -31.5098    2.4091  -10.0308 C   0  0  0  0  0  0  0  0  0  0  0  0
  -30.9776    8.7073   -6.4386 O   0  5  0  0  0  0  0  0  0  0  0  0
  -29.6291    6.9849   -7.1427 O   0  0  0  0  0  0  0  0  0  0  0  0
  1 17  1  0  0  0  0
  1 20  1  0  0  0  0
  2 15  1  6  0  0  0
  2  3  1  0  0  0  0
  2 11  1  0  0  0  0
  3  5  1  0  0  0  0
  4 16  1  6  0  0  0
  4 21  1  0  0  0  0
  4 22  2  0  0  0  0
  4 14  1  0  0  0  0
  5  1  1  6  0  0  0
  5  8  1  0  0  0  0
  6 17  2  0  0  0  0
  6 12  1  0  0  0  0
  8  7  1  1  0  0  0
  8 11  1  0  0  0  0
  9 19  1  0  0  0  0
 11 10  1  6  0  0  0
 12 20  2  0  0  0  0
 12 19  1  0  0  0  0
 13 20  1  0  0  0  0
 14 15  1  0  0  0  0
 18 19  2  0  0  0  0
M  CHG  1  21  -1
M  END
>  <CHROM.1>
-115.23282795,168.28262272,57.66155602,-175.38463313,6.93464278,-31.82391688
4.19808501,-8.89031210,1.54996127,-0.47780970,-2.64368767

>  <Name>
ligand

>  <RI>
0

>  <Rbt.Current_Directory>
/home/itssahil/PROJECTS/Mol_Feturizer/New_Systems/rnas/4XWF

>  <Rbt.Executable>
rbdock ($Id: //depot/dev/client3/rdock/2013.1/src/exe/rbdock.cxx#4 $)

>  <Rbt.Library>
libRbt.so (2013.1, Build901 2013/11/27)

>  <Rbt.Parameter_File>
/export/apps/rDock/src/rDock_2013.1_src/data/scripts/dock_solv.prm

>  <Rbt.Receptor>
prm/pocket_docking_7.prm

>  <SCORE>
-7.23919

>  <SCORE.INTER>
-9.13744

>  <SCORE.INTER.CONST>
1

>  <SCORE.INTER.POLAR>
0

>  <SCORE.INTER.ROT>
5

>  <SCORE.INTER.SOLV>
10.0278

>  <SCORE.INTER.VDW>
-16.3675

>  <SCORE.INTER.norm>
-0.415338

>  <SCORE.INTRA>
1.89824

>  <SCORE.INTRA.DIHEDRAL>
-1.34616

>  <SCORE.INTRA.DIHEDRAL.0>
3.49807

>  <SCORE.INTRA.POLAR>
0

>  <SCORE.INTRA.POLAR.0>
0

>  <SCORE.INTRA.REPUL>
0

>  <SCORE.INTRA.REPUL.0>
0

>  <SCORE.INTRA.SOLV>
4.42968

>  <SCORE.INTRA.SOLV.lig_0>
-73.062

>  <SCORE.INTRA.VDW>
0.356486

>  <SCORE.INTRA.VDW.0>
-1.83782

>  <SCORE.INTRA.norm>
0.0862838

>  <SCORE.RESTR>
0

>  <SCORE.RESTR.CAVITY>
0

>  <SCORE.RESTR.norm>
0

>  <SCORE.SYSTEM>
0

>  <SCORE.SYSTEM.CONST>
0

>  <SCORE.SYSTEM.DIHEDRAL>
0

>  <SCORE.SYSTEM.SOLV>
0

>  <SCORE.SYSTEM.norm>
0

>  <SCORE.heavy>
22

>  <SCORE.norm>
-0.329054

>  <RMSD>
6.247

$$$$
ligand
 OpenBabel11021811513D
libRbt.so/2013.1/901 2013/11/27
 22 23  0  0  0  0  0  0  0  0999 V2000
  -30.8885    4.3761   -8.9818 N   0  0  0  0  0  0  0  0  0  0  0  0
  -31.0963    1.1431   -9.9598 C   0  0  1  0  0  0  0  0  0  0  0  0
  -30.5400    2.0963   -9.0102 O   0  0  0  0  0  0  0  0  0  0  0  0
  -27.9661    0.5890  -12.0032 P   0  0  1  0  0  0  0  0  0  0  0  0
  -31.4994    3.1494   -8.8233 C   0  0  2  0  0  0  0  0  0  0  0  0
  -30.6012    6.5225   -9.1289 N   0  0  0  0  0  0  0  0  0  0  0  0
  -33.7082    3.5842   -9.6158 O   0  0  0  0  0  0  0  0  0  0  0  0
  -32.4434    3.0031   -9.9539 C   0  0  2  0  0  0  0  0  0  0  0  0
  -28.0819    8.0215   -9.4435 N   0  0  0  0  0  0  0  0  0  0  0  0
  -33.2837    0.9331   -9.1440 O   0  0  0  0  0  0  0  0  0  0  0  0
  -32.4991    1.5626  -10.1708 C   0  0  2  0  0  0  0  0  0  0  0  0
  -29.4003    5.9316   -9.2242 C   0  0  0  0  0  0  0  0  0  0  0  0
  -28.5566    3.5976   -9.1599 N   0  0  0  0  0  0  0  0  0  0  0  0
  -29.0127    0.8541  -10.8662 O   0  0  0  0  0  0  0  0  0  0  0  0
  -30.2979    1.2565  -11.2128 C   0  0  0  0  0  0  0  0  0  0  0  0
  -28.4293   -0.7878  -12.6035 O   0  0  0  0  0  0  0  0  0  0  0  0
  -31.5249    5.5532   -8.9844 C   0  0  0  0  0  0  0  0  0  0  0  0
  -27.0680    5.9844   -9.5324 O   0  0  0  0  0  0  0  0  0  0  0  0
  -28.1112    6.6249   -9.4034 C   0  0  0  0  0  0  0  0  0  0  0  0
  -29.5727    4.5801   -9.1294 C   0  0  0  0  0  0  0  0  0  0  0  0
  -27.9793    1.7238  -12.9727 O   0  5  0  0  0  0  0  0  0  0  0  0
  -26.5916    0.6669  -11.4766 O   0  0  0  0  0  0  0  0  0  0  0  0
  1 17  1  0  0  0  0
  1 20  1  0  0  0  0
  2 15  1  6  0  0  0
  2  3  1  0  0  0  0
  2 11  1  0  0  0  0
  3  5  1  0  0  0  0
  4 16  1  6  0  0  0
  4 21  1  0  0  0  0
  4 22  2  0  0  0  0
  4 14  1  0  0  0  0
  5  1  1  6  0  0  0
  5  8  1  0  0  0  0
  6 17  2  0  0  0  0
  6 12  1  0  0  0  0
  8  7  1  1  0  0  0
  8 11  1  0  0  0  0
  9 19  1  0  0  0  0
 11 10  1  1  0  0  0
 12 20  2  0  0  0  0
 12 19  1  0  0  0  0
 13 20  1  0  0  0  0
 14 15  1  0  0  0  0
 18 19  2  0  0  0  0
M  CHG  1  21  -1
M  END
>  <CHROM.1>
174.03838626,64.03315235,-74.68416303,168.53444033,2.05883948,-29.82439973
2.97739706,-10.19206319,1.77482287,0.32017717,0.37607337

>  <Name>
ligand

>  <RI>
0

>  <Rbt.Current_Directory>
/home/itssahil/PROJECTS/Mol_Feturizer/New_Systems/rnas/4XWF

>  <Rbt.Executable>
rbdock ($Id: //depot/dev/client3/rdock/2013.1/src/exe/rbdock.cxx#4 $)

>  <Rbt.Library>
libRbt.so (2013.1, Build901 2013/11/27)

>  <Rbt.Parameter_File>
/export/apps/rDock/src/rDock_2013.1_src/data/scripts/dock_solv.prm

>  <Rbt.Receptor>
prm/pocket_docking_4.prm

>  <SCORE>
-4.91165

>  <SCORE.INTER>
-7.00908

>  <SCORE.INTER.CONST>
1

>  <SCORE.INTER.POLAR>
0

>  <SCORE.INTER.ROT>
5

>  <SCORE.INTER.SOLV>
6.99839

>  <SCORE.INTER.VDW>
-13.9388

>  <SCORE.INTER.norm>
-0.318595

>  <SCORE.INTRA>
2.09743

>  <SCORE.INTRA.DIHEDRAL>
-0.904367

>  <SCORE.INTRA.DIHEDRAL.0>
3.49807

>  <SCORE.INTRA.POLAR>
0

>  <SCORE.INTRA.POLAR.0>
0

>  <SCORE.INTRA.REPUL>
0

>  <SCORE.INTRA.REPUL.0>
0

>  <SCORE.INTRA.SOLV>
3.91432

>  <SCORE.INTRA.SOLV.lig_0>
-73.062

>  <SCORE.INTRA.VDW>
0.592453

>  <SCORE.INTRA.VDW.0>
-1.83782

>  <SCORE.INTRA.norm>
0.0953377

>  <SCORE.RESTR>
0

>  <SCORE.RESTR.CAVITY>
0

>  <SCORE.RESTR.norm>
0

>  <SCORE.SYSTEM>
0

>  <SCORE.SYSTEM.CONST>
0

>  <SCORE.SYSTEM.DIHEDRAL>
0

>  <SCORE.SYSTEM.SOLV>
0

>  <SCORE.SYSTEM.norm>
0

>  <SCORE.heavy>
22

>  <SCORE.norm>
-0.223257

>  <RMSD>
6.248

$$$$
ligand
 OpenBabel11021811513D
libRbt.so/2013.1/901 2013/11/27
 22 23  0  0  0  0  0  0  0  0999 V2000
  -30.6565    4.1943   -9.1381 N   0  0  0  0  0  0  0  0  0  0  0  0
  -31.1243    1.0037  -10.1645 C   0  0  1  0  0  0  0  0  0  0  0  0
  -30.4569    1.8983   -9.2296 O   0  0  0  0  0  0  0  0  0  0  0  0
  -27.9922    0.8184  -12.2830 P   0  0  1  0  0  0  0  0  0  0  0  0
  -31.3352    3.0052   -8.9690 C   0  0  2  0  0  0  0  0  0  0  0  0
  -29.2381    5.6610   -9.8784 N   0  0  0  0  0  0  0  0  0  0  0  0
  -33.5517    3.5959   -9.6279 O   0  0  0  0  0  0  0  0  0  0  0  0
  -32.3471    2.9441  -10.0475 C   0  0  2  0  0  0  0  0  0  0  0  0
  -29.7910    8.0295   -7.2763 N   0  0  0  0  0  0  0  0  0  0  0  0
  -33.2727    0.9133   -9.2313 O   0  0  0  0  0  0  0  0  0  0  0  0
  -32.5068    1.5153  -10.2883 C   0  0  2  0  0  0  0  0  0  0  0  0
  -30.0552    6.2713   -9.0064 C   0  0  0  0  0  0  0  0  0  0  0  0
  -31.9997    5.5955   -7.6188 N   0  0  0  0  0  0  0  0  0  0  0  0
  -29.0900    0.6941  -11.1704 O   0  0  0  0  0  0  0  0  0  0  0  0
  -30.3902    1.0949  -11.4578 C   0  0  0  0  0  0  0  0  0  0  0  0
  -28.5351   -0.1111  -13.4284 O   0  0  0  0  0  0  0  0  0  0  0  0
  -29.6102    4.3689   -9.9537 C   0  0  0  0  0  0  0  0  0  0  0  0
  -30.1313    8.5791   -9.4598 O   0  0  0  0  0  0  0  0  0  0  0  0
  -29.9927    7.6924   -8.6174 C   0  0  0  0  0  0  0  0  0  0  0  0
  -30.9531    5.3549   -8.5382 C   0  0  0  0  0  0  0  0  0  0  0  0
  -27.8303    2.2505  -12.6712 O   0  5  0  0  0  0  0  0  0  0  0  0
  -26.6584    0.5080  -11.7379 O   0  0  0  0  0  0  0  0  0  0  0  0
  1 17  1  0  0  0  0
  1 20  1  0  0  0  0
  2 15  1  6  0  0  0
  2  3  1  0  0  0  0
  2 11  1  0  0  0  0
  3  5  1  0  0  0  0
  4 16  1  6  0  0  0
  4 21  1  0  0  0  0
  4 22  2  0  0  0  0
  4 14  1  0  0  0  0
  5  1  1  6  0  0  0
  5  8  1  0  0  0  0
  6 17  2  0  0  0  0
  6 12  1  0  0  0  0
  8  7  1  1  0  0  0
  8 11  1  0  0  0  0
  9 19  1  0  0  0  0
 11 10  1  1  0  0  0
 12 20  2  0  0  0  0
 12 19  1  0  0  0  0
 13 20  1  0  0  0  0
 14 15  1  0  0  0  0
 18 19  2  0  0  0  0
M  CHG  1  21  -1
M  END
>  <CHROM.1>
27.65722182,59.95310837,-60.90978220,-173.37490557,-120.45797508,-30.18795240
3.21314060,-10.17384940,1.88526238,0.43824017,0.38495945

>  <Name>
ligand

>  <RI>
0

>  <Rbt.Current_Directory>
/home/itssahil/PROJECTS/Mol_Feturizer/New_Systems/rnas/4XWF

>  <Rbt.Executable>
rbdock ($Id: //depot/dev/client3/rdock/2013.1/src/exe/rbdock.cxx#4 $)

>  <Rbt.Library>
libRbt.so (2013.1, Build901 2013/11/27)

>  <Rbt.Parameter_File>
/export/apps/rDock/src/rDock_2013.1_src/data/scripts/dock_solv.prm

>  <Rbt.Receptor>
prm/pocket_docking_5.prm

>  <SCORE>
-8.36503

>  <SCORE.INTER>
-7.15459

>  <SCORE.INTER.CONST>
1

>  <SCORE.INTER.POLAR>
0

>  <SCORE.INTER.ROT>
5

>  <SCORE.INTER.SOLV>
7.94769

>  <SCORE.INTER.VDW>
-14.3523

>  <SCORE.INTER.norm>
-0.325209

>  <SCORE.INTRA>
-1.21044

>  <SCORE.INTRA.DIHEDRAL>
-1.79703

>  <SCORE.INTRA.DIHEDRAL.0>
3.49807

>  <SCORE.INTRA.POLAR>
0

>  <SCORE.INTRA.POLAR.0>
0

>  <SCORE.INTRA.REPUL>
0

>  <SCORE.INTRA.REPUL.0>
0

>  <SCORE.INTRA.SOLV>
0.351611

>  <SCORE.INTRA.SOLV.lig_0>
-73.062

>  <SCORE.INTRA.VDW>
-0.487728

>  <SCORE.INTRA.VDW.0>
-1.83782

>  <SCORE.INTRA.norm>
-0.0550198

>  <SCORE.RESTR>
0

>  <SCORE.RESTR.CAVITY>
0

>  <SCORE.RESTR.norm>
0

>  <SCORE.SYSTEM>
0

>  <SCORE.SYSTEM.CONST>
0

>  <SCORE.SYSTEM.DIHEDRAL>
0

>  <SCORE.SYSTEM.SOLV>
0

>  <SCORE.SYSTEM.norm>
0

>  <SCORE.heavy>
22

>  <SCORE.norm>
-0.380229

>  <RMSD>
6.257

$$$$
ligand
 OpenBabel11021811513D
libRbt.so/2013.1/901 2013/11/27
 22 23  0  0  0  0  0  0  0  0999 V2000
  -30.6137    4.1749   -9.1386 N   0  0  0  0  0  0  0  0  0  0  0  0
  -31.1374    0.9946  -10.1700 C   0  0  1  0  0  0  0  0  0  0  0  0
  -30.4561    1.8757   -9.2323 O   0  0  0  0  0  0  0  0  0  0  0  0
  -27.9958    0.7993  -12.2735 P   0  0  1  0  0  0  0  0  0  0  0  0
  -31.3145    2.9982   -8.9727 C   0  0  2  0  0  0  0  0  0  0  0  0
  -29.1479    5.6079   -9.8520 N   0  0  0  0  0  0  0  0  0  0  0  0
  -33.5181    3.6304   -9.6365 O   0  0  0  0  0  0  0  0  0  0  0  0
  -32.3246    2.9571  -10.0538 C   0  0  2  0  0  0  0  0  0  0  0  0
  -29.6339    8.0345   -7.3423 N   0  0  0  0  0  0  0  0  0  0  0  0
  -33.2895    0.9427   -9.2424 O   0  0  0  0  0  0  0  0  0  0  0  0
  -32.5099    1.5317  -10.2967 C   0  0  2  0  0  0  0  0  0  0  0  0
  -29.9895    6.2462   -9.0244 C   0  0  0  0  0  0  0  0  0  0  0  0
  -31.9950    5.6235   -7.7002 N   0  0  0  0  0  0  0  0  0  0  0  0
  -29.0974    0.6834  -11.1637 O   0  0  0  0  0  0  0  0  0  0  0  0
  -30.3985    1.0737  -11.4614 C   0  0  0  0  0  0  0  0  0  0  0  0
  -28.5208   -0.1605  -13.4021 O   0  0  0  0  0  0  0  0  0  0  0  0
  -29.5344    4.3195   -9.9164 C   0  0  0  0  0  0  0  0  0  0  0  0
  -30.1330    8.5453   -9.5046 O   0  0  0  0  0  0  0  0  0  0  0  0
  -29.9226    7.6738   -8.6612 C   0  0  0  0  0  0  0  0  0  0  0  0
  -30.9172    5.3510   -8.5735 C   0  0  0  0  0  0  0  0  0  0  0  0
  -27.8507    2.2252  -12.6903 O   0  5  0  0  0  0  0  0  0  0  0  0
  -26.6608    0.5177  -11.7158 O   0  0  0  0  0  0  0  0  0  0  0  0
  1 17  1  0  0  0  0
  1 20  1  0  0  0  0
  2 15  1  6  0  0  0
  2  3  1  0  0  0  0
  2 11  1  0  0  0  0
  3  5  1  0  0  0  0
  4 16  1  6  0  0  0
  4 21  1  0  0  0  0
  4 22  2  0  0  0  0
  4 14  1  0  0  0  0
  5  1  1  6  0  0  0
  5  8  1  0  0  0  0
  6 17  2  0  0  0  0
  6 12  1  0  0  0  0
  8  7  1  1  0  0  0
  8 11  1  0  0  0  0
  9 19  1  0  0  0  0
 11 10  1  1  0  0  0
 12 20  2  0  0  0  0
 12 19  1  0  0  0  0
 13 20  1  0  0  0  0
 14 15  1  0  0  0  0
 18 19  2  0  0  0  0
M  CHG  1  21  -1
M  END
>  <CHROM.1>
25.24853583,58.38900890,-61.55077748,-173.39746741,-114.05668734,-30.16599757
3.20243332,-10.18291785,1.87449439,0.42861706,0.38566931

>  <Name>
ligand

>  <RI>
0

>  <Rbt.Current_Directory>
/home/itssahil/PROJECTS/Mol_Feturizer/New_Systems/rnas/4XWF

>  <Rbt.Executable>
rbdock ($Id: //depot/dev/client3/rdock/2013.1/src/exe/rbdock.cxx#4 $)

>  <Rbt.Library>
libRbt.so (2013.1, Build901 2013/11/27)

>  <Rbt.Parameter_File>
/export/apps/rDock/src/rDock_2013.1_src/data/scripts/dock_solv.prm

>  <Rbt.Receptor>
prm/pocket_docking_5.prm

>  <SCORE>
-8.41696

>  <SCORE.INTER>
-7.27189

>  <SCORE.INTER.CONST>
1

>  <SCORE.INTER.POLAR>
0

>  <SCORE.INTER.ROT>
5

>  <SCORE.INTER.SOLV>
8.19612

>  <SCORE.INTER.VDW>
-14.5133

>  <SCORE.INTER.norm>
-0.330541

>  <SCORE.INTRA>
-1.14507

>  <SCORE.INTRA.DIHEDRAL>
-1.73939

>  <SCORE.INTRA.DIHEDRAL.0>
3.49807

>  <SCORE.INTRA.POLAR>
0

>  <SCORE.INTRA.POLAR.0>
0

>  <SCORE.INTRA.REPUL>
0

>  <SCORE.INTRA.REPUL.0>
0

>  <SCORE.INTRA.SOLV>
0.425396

>  <SCORE.INTRA.SOLV.lig_0>
-73.062

>  <SCORE.INTRA.VDW>
-0.488068

>  <SCORE.INTRA.VDW.0>
-1.83782

>  <SCORE.INTRA.norm>
-0.0520484

>  <SCORE.RESTR>
0

>  <SCORE.RESTR.CAVITY>
0

>  <SCORE.RESTR.norm>
0

>  <SCORE.SYSTEM>
0

>  <SCORE.SYSTEM.CONST>
0

>  <SCORE.SYSTEM.DIHEDRAL>
0

>  <SCORE.SYSTEM.SOLV>
0

>  <SCORE.SYSTEM.norm>
0

>  <SCORE.heavy>
22

>  <SCORE.norm>
-0.382589

>  <RMSD>
6.260

$$$$
ligand
 OpenBabel11021811513D
libRbt.so/2013.1/901 2013/11/27
 22 23  0  0  0  0  0  0  0  0999 V2000
  -30.6289    4.1647   -9.1261 N   0  0  0  0  0  0  0  0  0  0  0  0
  -31.1791    0.9939  -10.1731 C   0  0  1  0  0  0  0  0  0  0  0  0
  -30.4511    1.8693   -9.2655 O   0  0  0  0  0  0  0  0  0  0  0  0
  -28.1424    1.0262  -12.4211 P   0  0  1  0  0  0  0  0  0  0  0  0
  -31.3046    2.9771   -8.9357 C   0  0  2  0  0  0  0  0  0  0  0  0
  -29.1894    5.6118   -9.8641 N   0  0  0  0  0  0  0  0  0  0  0  0
  -33.5521    3.5918   -9.4521 O   0  0  0  0  0  0  0  0  0  0  0  0
  -32.3792    2.9396   -9.9529 C   0  0  2  0  0  0  0  0  0  0  0  0
  -28.9964    8.4887   -9.2480 N   0  0  0  0  0  0  0  0  0  0  0  0
  -33.2689    0.9015   -9.1153 O   0  0  0  0  0  0  0  0  0  0  0  0
  -32.5629    1.5158  -10.2063 C   0  0  2  0  0  0  0  0  0  0  0  0
  -30.0523    6.2518   -9.0600 C   0  0  0  0  0  0  0  0  0  0  0  0
  -32.0547    5.6178   -7.7365 N   0  0  0  0  0  0  0  0  0  0  0  0
  -29.1932    0.7560  -11.2891 O   0  0  0  0  0  0  0  0  0  0  0  0
  -30.5225    1.1016  -11.5062 C   0  0  0  0  0  0  0  0  0  0  0  0
  -28.1559    2.5920  -12.5572 O   0  0  0  0  0  0  0  0  0  0  0  0
  -29.5465    4.3138   -9.8985 C   0  0  0  0  0  0  0  0  0  0  0  0
  -30.8773    8.1844   -8.0009 O   0  0  0  0  0  0  0  0  0  0  0  0
  -30.0205    7.6894   -8.7330 C   0  0  0  0  0  0  0  0  0  0  0  0
  -30.9636    5.3476   -8.5938 C   0  0  0  0  0  0  0  0  0  0  0  0
  -26.8226    0.4493  -12.0295 O   0  5  0  0  0  0  0  0  0  0  0  0
  -28.4609    0.2415  -13.6276 O   0  0  0  0  0  0  0  0  0  0  0  0
  1 17  1  0  0  0  0
  1 20  1  0  0  0  0
  2 15  1  6  0  0  0
  2  3  1  0  0  0  0
  2 11  1  0  0  0  0
  3  5  1  0  0  0  0
  4 16  1  6  0  0  0
  4 21  1  0  0  0  0
  4 22  2  0  0  0  0
  4 14  1  0  0  0  0
  5  1  1  6  0  0  0
  5  8  1  0  0  0  0
  6 17  2  0  0  0  0
  6 12  1  0  0  0  0
  8  7  1  1  0  0  0
  8 11  1  0  0  0  0
  9 19  1  0  0  0  0
 11 10  1  1  0  0  0
 12 20  2  0  0  0  0
 12 19  1  0  0  0  0
 13 20  1  0  0  0  0
 14 15  1  0  0  0  0
 18 19  2  0  0  0  0
M  CHG  1  21  -1
M  END
>  <CHROM.1>
20.55018761,56.91005828,63.48273147,-168.25532656,-2.17860577,-30.23745940
3.25789033,-10.21565889,1.89192536,0.48999749,0.38123773

>  <Name>
ligand

>  <RI>
0

>  <Rbt.Current_Directory>
/home/itssahil/PROJECTS/Mol_Feturizer/New_Systems/rnas/4XWF

>  <Rbt.Executable>
rbdock ($Id: //depot/dev/client3/rdock/2013.1/src/exe/rbdock.cxx#4 $)

>  <Rbt.Library>
libRbt.so (2013.1, Build901 2013/11/27)

>  <Rbt.Parameter_File>
/export/apps/rDock/src/rDock_2013.1_src/data/scripts/dock_solv.prm

>  <Rbt.Receptor>
prm/pocket_docking_6.prm

>  <SCORE>
-6.84754

>  <SCORE.INTER>
-5.92271

>  <SCORE.INTER.CONST>
1

>  <SCORE.INTER.POLAR>
0

>  <SCORE.INTER.ROT>
5

>  <SCORE.INTER.SOLV>
11.6985

>  <SCORE.INTER.VDW>
-14.7813

>  <SCORE.INTER.norm>
-0.269214

>  <SCORE.INTRA>
-0.92483

>  <SCORE.INTRA.DIHEDRAL>
-1.31397

>  <SCORE.INTRA.DIHEDRAL.0>
3.49807

>  <SCORE.INTRA.POLAR>
0

>  <SCORE.INTRA.POLAR.0>
0

>  <SCORE.INTRA.REPUL>
0

>  <SCORE.INTRA.REPUL.0>
0

>  <SCORE.INTRA.SOLV>
0.368433

>  <SCORE.INTRA.SOLV.lig_0>
-73.062

>  <SCORE.INTRA.VDW>
-0.452061

>  <SCORE.INTRA.VDW.0>
-1.83782

>  <SCORE.INTRA.norm>
-0.0420377

>  <SCORE.RESTR>
0

>  <SCORE.RESTR.CAVITY>
0

>  <SCORE.RESTR.norm>
0

>  <SCORE.SYSTEM>
0

>  <SCORE.SYSTEM.CONST>
0

>  <SCORE.SYSTEM.DIHEDRAL>
0

>  <SCORE.SYSTEM.SOLV>
0

>  <SCORE.SYSTEM.norm>
0

>  <SCORE.heavy>
22

>  <SCORE.norm>
-0.311252

>  <RMSD>
6.260

$$$$
ligand
 OpenBabel11021811513D
libRbt.so/2013.1/901 2013/11/27
 22 23  0  0  0  0  0  0  0  0999 V2000
  -30.6415    4.2019   -9.1204 N   0  0  0  0  0  0  0  0  0  0  0  0
  -31.1083    1.0231  -10.1832 C   0  0  1  0  0  0  0  0  0  0  0  0
  -30.4383    1.9076   -9.2405 O   0  0  0  0  0  0  0  0  0  0  0  0
  -28.0066    0.7689  -12.3405 P   0  0  1  0  0  0  0  0  0  0  0  0
  -31.3174    3.0096   -8.9627 C   0  0  2  0  0  0  0  0  0  0  0  0
  -29.1967    5.6666   -9.8120 N   0  0  0  0  0  0  0  0  0  0  0  0
  -33.5378    3.6043   -9.6047 O   0  0  0  0  0  0  0  0  0  0  0  0
  -32.3339    2.9598  -10.0374 C   0  0  2  0  0  0  0  0  0  0  0  0
  -29.8790    8.0887   -7.3076 N   0  0  0  0  0  0  0  0  0  0  0  0
  -33.2524    0.9176   -9.2418 O   0  0  0  0  0  0  0  0  0  0  0  0
  -32.4922    1.5337  -10.2948 C   0  0  2  0  0  0  0  0  0  0  0  0
  -30.0689    6.2879   -9.0033 C   0  0  0  0  0  0  0  0  0  0  0  0
  -32.0840    5.6229   -7.7148 N   0  0  0  0  0  0  0  0  0  0  0  0
  -29.0952    0.6684  -11.2165 O   0  0  0  0  0  0  0  0  0  0  0  0
  -30.3800    1.1313  -11.4786 C   0  0  0  0  0  0  0  0  0  0  0  0
  -28.7125    0.1152  -13.5834 O   0  0  0  0  0  0  0  0  0  0  0  0
  -29.5513    4.3691   -9.8781 C   0  0  0  0  0  0  0  0  0  0  0  0
  -30.1785    8.5832   -9.5102 O   0  0  0  0  0  0  0  0  0  0  0  0
  -30.0427    7.7182   -8.6451 C   0  0  0  0  0  0  0  0  0  0  0  0
  -30.9836    5.3727   -8.5663 C   0  0  0  0  0  0  0  0  0  0  0  0
  -27.6116    2.1956  -12.5313 O   0  5  0  0  0  0  0  0  0  0  0  0
  -26.7368    0.1686  -11.8931 O   0  0  0  0  0  0  0  0  0  0  0  0
  1 17  1  0  0  0  0
  1 20  1  0  0  0  0
  2 15  1  6  0  0  0
  2  3  1  0  0  0  0
  2 11  1  0  0  0  0
  3  5  1  0  0  0  0
  4 16  1  6  0  0  0
  4 21  1  0  0  0  0
  4 22  2  0  0  0  0
  4 14  1  0  0  0  0
  5  1  1  6  0  0  0
  5  8  1  0  0  0  0
  6 17  2  0  0  0  0
  6 12  1  0  0  0  0
  8  7  1  1  0  0  0
  8 11  1  0  0  0  0
  9 19  1  0  0  0  0
 11 10  1  1  0  0  0
 12 20  2  0  0  0  0
 12 19  1  0  0  0  0
 13 20  1  0  0  0  0
 14 15  1  0  0  0  0
 18 19  2  0  0  0  0
M  CHG  1  21  -1
M  END
>  <CHROM.1>
23.51902598,62.72835744,-50.94720355,-174.28209655,-118.40158130,-30.19444099
3.21063662,-10.19437960,1.89292365,0.44151547,0.38184542

>  <Name>
ligand

>  <RI>
0

>  <Rbt.Current_Directory>
/home/itssahil/PROJECTS/Mol_Feturizer/New_Systems/rnas/4XWF

>  <Rbt.Executable>
rbdock ($Id: //depot/dev/client3/rdock/2013.1/src/exe/rbdock.cxx#4 $)

>  <Rbt.Library>
libRbt.so (2013.1, Build901 2013/11/27)

>  <Rbt.Parameter_File>
/export/apps/rDock/src/rDock_2013.1_src/data/scripts/dock_solv.prm

>  <Rbt.Receptor>
prm/pocket_docking_7.prm

>  <SCORE>
-8.42792

>  <SCORE.INTER>
-7.41123

>  <SCORE.INTER.CONST>
1

>  <SCORE.INTER.POLAR>
0

>  <SCORE.INTER.ROT>
5

>  <SCORE.INTER.SOLV>
8.20902

>  <SCORE.INTER.VDW>
-14.6105

>  <SCORE.INTER.norm>
-0.336874

>  <SCORE.INTRA>
-1.01669

>  <SCORE.INTRA.DIHEDRAL>
-1.72405

>  <SCORE.INTRA.DIHEDRAL.0>
3.49807

>  <SCORE.INTRA.POLAR>
0

>  <SCORE.INTRA.POLAR.0>
0

>  <SCORE.INTRA.REPUL>
0

>  <SCORE.INTRA.REPUL.0>
0

>  <SCORE.INTRA.SOLV>
0.390499

>  <SCORE.INTRA.SOLV.lig_0>
-73.062

>  <SCORE.INTRA.VDW>
-0.349915

>  <SCORE.INTRA.VDW.0>
-1.83782

>  <SCORE.INTRA.norm>
-0.0462132

>  <SCORE.RESTR>
0

>  <SCORE.RESTR.CAVITY>
0

>  <SCORE.RESTR.norm>
0

>  <SCORE.SYSTEM>
0

>  <SCORE.SYSTEM.CONST>
0

>  <SCORE.SYSTEM.DIHEDRAL>
0

>  <SCORE.SYSTEM.SOLV>
0

>  <SCORE.SYSTEM.norm>
0

>  <SCORE.heavy>
22

>  <SCORE.norm>
-0.383087

>  <RMSD>
6.263

$$$$
ligand
 OpenBabel11021811513D
libRbt.so/2013.1/901 2013/11/27
 22 23  0  0  0  0  0  0  0  0999 V2000
  -30.6890    4.1990   -9.0794 N   0  0  0  0  0  0  0  0  0  0  0  0
  -31.1246    1.0312  -10.1873 C   0  0  1  0  0  0  0  0  0  0  0  0
  -30.4710    1.9076   -9.2257 O   0  0  0  0  0  0  0  0  0  0  0  0
  -27.9927    0.8461  -12.3106 P   0  0  1  0  0  0  0  0  0  0  0  0
  -31.3597    3.0010   -8.9447 C   0  0  2  0  0  0  0  0  0  0  0  0
  -29.2814    5.6963   -9.7780 N   0  0  0  0  0  0  0  0  0  0  0  0
  -33.5757    3.5911   -9.6057 O   0  0  0  0  0  0  0  0  0  0  0  0
  -32.3631    2.9590  -10.0320 C   0  0  2  0  0  0  0  0  0  0  0  0
  -29.0230    8.5091   -8.9299 N   0  0  0  0  0  0  0  0  0  0  0  0
  -33.2790    0.9017   -9.2730 O   0  0  0  0  0  0  0  0  0  0  0  0
  -32.5100    1.5353  -10.3091 C   0  0  2  0  0  0  0  0  0  0  0  0
  -30.1006    6.2750   -8.8867 C   0  0  0  0  0  0  0  0  0  0  0  0
  -32.0380    5.5454   -7.5163 N   0  0  0  0  0  0  0  0  0  0  0  0
  -29.0826    0.7539  -11.1870 O   0  0  0  0  0  0  0  0  0  0  0  0
  -30.3816    1.1598  -11.4725 C   0  0  0  0  0  0  0  0  0  0  0  0
  -28.5445   -0.1144  -13.4257 O   0  0  0  0  0  0  0  0  0  0  0  0
  -29.6454    4.4047   -9.8913 C   0  0  0  0  0  0  0  0  0  0  0  0
  -30.8838    8.1323   -7.6725 O   0  0  0  0  0  0  0  0  0  0  0  0
  -30.0464    7.6842   -8.4554 C   0  0  0  0  0  0  0  0  0  0  0  0
  -30.9918    5.3392   -8.4445 C   0  0  0  0  0  0  0  0  0  0  0  0
  -27.8325    2.2667  -12.7397 O   0  5  0  0  0  0  0  0  0  0  0  0
  -26.6552    0.5498  -11.7665 O   0  0  0  0  0  0  0  0  0  0  0  0
  1 17  1  0  0  0  0
  1 20  1  0  0  0  0
  2 15  1  6  0  0  0
  2  3  1  0  0  0  0
  2 11  1  0  0  0  0
  3  5  1  0  0  0  0
  4 16  1  6  0  0  0
  4 21  1  0  0  0  0
  4 22  2  0  0  0  0
  4 14  1  0  0  0  0
  5  1  1  6  0  0  0
  5  8  1  0  0  0  0
  6 17  2  0  0  0  0
  6 12  1  0  0  0  0
  8  7  1  1  0  0  0
  8 11  1  0  0  0  0
  9 19  1  0  0  0  0
 11 10  1  1  0  0  0
 12 20  2  0  0  0  0
 12 19  1  0  0  0  0
 13 20  1  0  0  0  0
 14 15  1  0  0  0  0
 18 19  2  0  0  0  0
M  CHG  1  21  -1
M  END
>  <CHROM.1>
28.28083092,60.30964894,-61.51840938,-176.32840932,-3.99443143,-30.20665482
3.22487986,-10.13975256,1.89714688,0.43160876,0.40650900

>  <Name>
ligand

>  <RI>
0

>  <Rbt.Current_Directory>
/home/itssahil/PROJECTS/Mol_Feturizer/New_Systems/rnas/4XWF

>  <Rbt.Executable>
rbdock ($Id: //depot/dev/client3/rdock/2013.1/src/exe/rbdock.cxx#4 $)

>  <Rbt.Library>
libRbt.so (2013.1, Build901 2013/11/27)

>  <Rbt.Parameter_File>
/export/apps/rDock/src/rDock_2013.1_src/data/scripts/dock_solv.prm

>  <Rbt.Receptor>
prm/pocket_docking_6.prm

>  <SCORE>
-8.20686

>  <SCORE.INTER>
-7.01072

>  <SCORE.INTER.CONST>
1

>  <SCORE.INTER.POLAR>
0

>  <SCORE.INTER.ROT>
5

>  <SCORE.INTER.SOLV>
7.29107

>  <SCORE.INTER.VDW>
-14.0375

>  <SCORE.INTER.norm>
-0.318669

>  <SCORE.INTRA>
-1.19614

>  <SCORE.INTRA.DIHEDRAL>
-1.92556

>  <SCORE.INTRA.DIHEDRAL.0>
3.49807

>  <SCORE.INTRA.POLAR>
0

>  <SCORE.INTRA.POLAR.0>
0

>  <SCORE.INTRA.REPUL>
0

>  <SCORE.INTRA.REPUL.0>
0

>  <SCORE.INTRA.SOLV>
0.163636

>  <SCORE.INTRA.SOLV.lig_0>
-73.062

>  <SCORE.INTRA.VDW>
-0.315175

>  <SCORE.INTRA.VDW.0>
-1.83782

>  <SCORE.INTRA.norm>
-0.05437

>  <SCORE.RESTR>
0

>  <SCORE.RESTR.CAVITY>
0

>  <SCORE.RESTR.norm>
0

>  <SCORE.SYSTEM>
0

>  <SCORE.SYSTEM.CONST>
0

>  <SCORE.SYSTEM.DIHEDRAL>
0

>  <SCORE.SYSTEM.SOLV>
0

>  <SCORE.SYSTEM.norm>
0

>  <SCORE.heavy>
22

>  <SCORE.norm>
-0.373039

>  <RMSD>
6.271

$$$$
ligand
 OpenBabel11021811513D
libRbt.so/2013.1/901 2013/11/27
 22 23  0  0  0  0  0  0  0  0999 V2000
  -30.6686    4.1276   -9.1509 N   0  0  0  0  0  0  0  0  0  0  0  0
  -31.1818    0.9699  -10.2546 C   0  0  1  0  0  0  0  0  0  0  0  0
  -30.4942    1.8329   -9.3047 O   0  0  0  0  0  0  0  0  0  0  0  0
  -28.0815    0.7625  -12.4117 P   0  0  1  0  0  0  0  0  0  0  0  0
  -31.3577    2.9414   -9.0049 C   0  0  2  0  0  0  0  0  0  0  0  0
  -29.2324    5.5936   -9.8574 N   0  0  0  0  0  0  0  0  0  0  0  0
  -33.5754    3.5717   -9.6215 O   0  0  0  0  0  0  0  0  0  0  0  0
  -32.3827    2.9190  -10.0723 C   0  0  2  0  0  0  0  0  0  0  0  0
  -31.1147    8.4230   -8.7080 N   0  0  0  0  0  0  0  0  0  0  0  0
  -33.3199    0.8769   -9.2985 O   0  0  0  0  0  0  0  0  0  0  0  0
  -32.5601    1.4986  -10.3485 C   0  0  2  0  0  0  0  0  0  0  0  0
  -30.0531    6.1980   -8.9845 C   0  0  0  0  0  0  0  0  0  0  0  0
  -32.0156    5.5175   -7.6246 N   0  0  0  0  0  0  0  0  0  0  0  0
  -29.1862    0.5894  -11.3125 O   0  0  0  0  0  0  0  0  0  0  0  0
  -30.4619    1.0876  -11.5538 C   0  0  0  0  0  0  0  0  0  0  0  0
  -28.8035    0.2864  -13.7243 O   0  0  0  0  0  0  0  0  0  0  0  0
  -29.6134    4.3056   -9.9542 C   0  0  0  0  0  0  0  0  0  0  0  0
  -28.9370    8.0866   -8.1332 O   0  0  0  0  0  0  0  0  0  0  0  0
  -29.9837    7.6129   -8.5751 C   0  0  0  0  0  0  0  0  0  0  0  0
  -30.9622    5.2819   -8.5376 C   0  0  0  0  0  0  0  0  0  0  0  0
  -27.6178    2.1809  -12.4389 O   0  5  0  0  0  0  0  0  0  0  0  0
  -26.8466    0.0557  -12.0271 O   0  0  0  0  0  0  0  0  0  0  0  0
  1 17  1  0  0  0  0
  1 20  1  0  0  0  0
  2 15  1  6  0  0  0
  2  3  1  0  0  0  0
  2 11  1  0  0  0  0
  3  5  1  0  0  0  0
  4 16  1  6  0  0  0
  4 21  1  0  0  0  0
  4 22  2  0  0  0  0
  4 14  1  0  0  0  0
  5  1  1  6  0  0  0
  5  8  1  0  0  0  0
  6 17  2  0  0  0  0
  6 12  1  0  0  0  0
  8  7  1  1  0  0  0
  8 11  1  0  0  0  0
  9 19  1  0  0  0  0
 11 10  1  1  0  0  0
 12 20  2  0  0  0  0
 12 19  1  0  0  0  0
 13 20  1  0  0  0  0
 14 15  1  0  0  0  0
 18 19  2  0  0  0  0
M  CHG  1  21  -1
M  END
>  <CHROM.1>
26.24872562,63.48794604,-48.10093718,-170.73199772,125.15580524,-30.22716732
3.15802896,-10.22305252,1.87428484,0.41315440,0.41426286

>  <Name>
ligand

>  <RI>
0

>  <Rbt.Current_Directory>
/home/itssahil/PROJECTS/Mol_Feturizer/New_Systems/rnas/4XWF

>  <Rbt.Executable>
rbdock ($Id: //depot/dev/client3/rdock/2013.1/src/exe/rbdock.cxx#4 $)

>  <Rbt.Library>
libRbt.so (2013.1, Build901 2013/11/27)

>  <Rbt.Parameter_File>
/export/apps/rDock/src/rDock_2013.1_src/data/scripts/dock_solv.prm

>  <Rbt.Receptor>
prm/pocket_docking_7.prm

>  <SCORE>
-8.27896

>  <SCORE.INTER>
-7.45168

>  <SCORE.INTER.CONST>
1

>  <SCORE.INTER.POLAR>
0

>  <SCORE.INTER.ROT>
5

>  <SCORE.INTER.SOLV>
8.74015

>  <SCORE.INTER.VDW>
-14.8145

>  <SCORE.INTER.norm>
-0.338713

>  <SCORE.INTRA>
-0.82728

>  <SCORE.INTRA.DIHEDRAL>
-1.3404

>  <SCORE.INTRA.DIHEDRAL.0>
3.49807

>  <SCORE.INTRA.POLAR>
0

>  <SCORE.INTRA.POLAR.0>
0

>  <SCORE.INTRA.REPUL>
0

>  <SCORE.INTRA.REPUL.0>
0

>  <SCORE.INTRA.SOLV>
0.394909

>  <SCORE.INTRA.SOLV.lig_0>
-73.062

>  <SCORE.INTRA.VDW>
-0.354533

>  <SCORE.INTRA.VDW.0>
-1.83782

>  <SCORE.INTRA.norm>
-0.0376036

>  <SCORE.RESTR>
0

>  <SCORE.RESTR.CAVITY>
0

>  <SCORE.RESTR.norm>
0

>  <SCORE.SYSTEM>
0

>  <SCORE.SYSTEM.CONST>
0

>  <SCORE.SYSTEM.DIHEDRAL>
0

>  <SCORE.SYSTEM.SOLV>
0

>  <SCORE.SYSTEM.norm>
0

>  <SCORE.heavy>
22

>  <SCORE.norm>
-0.376316

>  <RMSD>
6.277

$$$$
ligand
 OpenBabel11021811513D
libRbt.so/2013.1/901 2013/11/27
 22 23  0  0  0  0  0  0  0  0999 V2000
  -31.1217    3.2609  -10.0604 N   0  0  0  0  0  0  0  0  0  0  0  0
  -30.1409    0.0222  -10.0199 C   0  0  1  0  0  0  0  0  0  0  0  0
  -31.1431    0.9875  -10.4487 O   0  0  0  0  0  0  0  0  0  0  0  0
  -29.5399   -1.8752   -6.8006 P   0  0  1  0  0  0  0  0  0  0  0  0
  -30.4766    2.2321  -10.7151 C   0  0  2  0  0  0  0  0  0  0  0  0
  -31.5026    5.1906   -9.1426 N   0  0  0  0  0  0  0  0  0  0  0  0
  -28.2078    2.9724  -10.6973 O   0  0  0  0  0  0  0  0  0  0  0  0
  -29.1505    2.0936  -10.0723 C   0  0  2  0  0  0  0  0  0  0  0  0
  -34.0553    6.2488   -8.1027 N   0  0  0  0  0  0  0  0  0  0  0  0
  -28.4510    0.4107  -11.5972 O   0  0  0  0  0  0  0  0  0  0  0  0
  -28.8342    0.6803  -10.2382 C   0  0  2  0  0  0  0  0  0  0  0  0
  -32.6352    4.4726   -9.0941 C   0  0  0  0  0  0  0  0  0  0  0  0
  -33.3432    2.2147   -9.8451 N   0  0  0  0  0  0  0  0  0  0  0  0
  -29.4536   -1.2201   -8.2226 O   0  0  0  0  0  0  0  0  0  0  0  0
  -30.3823   -0.2468   -8.5744 C   0  0  0  0  0  0  0  0  0  0  0  0
  -30.8235   -2.7770   -6.8981 O   0  0  0  0  0  0  0  0  0  0  0  0
  -30.5620    4.4328   -9.7381 C   0  0  0  0  0  0  0  0  0  0  0  0
  -34.8481    4.1309   -8.3704 O   0  0  0  0  0  0  0  0  0  0  0  0
  -33.9140    4.9200   -8.5117 C   0  0  0  0  0  0  0  0  0  0  0  0
  -32.4041    3.2574   -9.6729 C   0  0  0  0  0  0  0  0  0  0  0  0
  -28.2789   -2.6205   -6.5135 O   0  5  0  0  0  0  0  0  0  0  0  0
  -29.5188   -0.8435   -5.7481 O   0  0  0  0  0  0  0  0  0  0  0  0
  1 17  1  0  0  0  0
  1 20  1  0  0  0  0
  2 15  1  1  0  0  0
  2  3  1  0  0  0  0
  2 11  1  0  0  0  0
  3  5  1  0  0  0  0
  4 16  1  1  0  0  0
  4 21  1  0  0  0  0
  4 22  2  0  0  0  0
  4 14  1  0  0  0  0
  5  1  1  1  0  0  0
  5  8  1  0  0  0  0
  6 17  2  0  0  0  0
  6 12  1  0  0  0  0
  8  7  1  6  0  0  0
  8 11  1  0  0  0  0
  9 19  1  0  0  0  0
 11 10  1  6  0  0  0
 12 20  2  0  0  0  0
 12 19  1  0  0  0  0
 13 20  1  0  0  0  0
 14 15  1  0  0  0  0
 18 19  2  0  0  0  0
M  CHG  1  21  -1
M  END
>  <CHROM.1>
157.60691323,177.00755641,71.48740916,-172.47639831,8.04280132,-30.72669161
1.40567097,-8.89019899,-2.21006118,-0.64995793,2.44306130

>  <Name>
ligand

>  <RI>
0

>  <Rbt.Current_Directory>
/home/itssahil/PROJECTS/Mol_Feturizer/New_Systems/rnas/4XWF

>  <Rbt.Executable>
rbdock ($Id: //depot/dev/client3/rdock/2013.1/src/exe/rbdock.cxx#4 $)

>  <Rbt.Library>
libRbt.so (2013.1, Build901 2013/11/27)

>  <Rbt.Parameter_File>
/export/apps/rDock/src/rDock_2013.1_src/data/scripts/dock_solv.prm

>  <Rbt.Receptor>
prm/pocket_docking_8.prm

>  <SCORE>
-7.09735

>  <SCORE.INTER>
-8.21444

>  <SCORE.INTER.CONST>
1

>  <SCORE.INTER.POLAR>
0

>  <SCORE.INTER.ROT>
5

>  <SCORE.INTER.SOLV>
17.3783

>  <SCORE.INTER.VDW>
-18.2024

>  <SCORE.INTER.norm>
-0.373383

>  <SCORE.INTRA>
1.11708

>  <SCORE.INTRA.DIHEDRAL>
-1.46837

>  <SCORE.INTRA.DIHEDRAL.0>
3.49807

>  <SCORE.INTRA.POLAR>
0

>  <SCORE.INTRA.POLAR.0>
0

>  <SCORE.INTRA.REPUL>
0

>  <SCORE.INTRA.REPUL.0>
0

>  <SCORE.INTRA.SOLV>
1.30535

>  <SCORE.INTRA.SOLV.lig_0>
-73.062

>  <SCORE.INTRA.VDW>
1.19859

>  <SCORE.INTRA.VDW.0>
-1.83782

>  <SCORE.INTRA.norm>
0.0507765

>  <SCORE.RESTR>
0

>  <SCORE.RESTR.CAVITY>
0

>  <SCORE.RESTR.norm>
0

>  <SCORE.SYSTEM>
0

>  <SCORE.SYSTEM.CONST>
0

>  <SCORE.SYSTEM.DIHEDRAL>
0

>  <SCORE.SYSTEM.SOLV>
0

>  <SCORE.SYSTEM.norm>
0

>  <SCORE.heavy>
22

>  <SCORE.norm>
-0.322607

>  <RMSD>
6.284

$$$$
ligand
 OpenBabel11021811513D
libRbt.so/2013.1/901 2013/11/27
 22 23  0  0  0  0  0  0  0  0999 V2000
  -30.6401    4.2066   -9.1157 N   0  0  0  0  0  0  0  0  0  0  0  0
  -31.1232    1.0289  -10.1749 C   0  0  1  0  0  0  0  0  0  0  0  0
  -30.4459    1.9114   -9.2355 O   0  0  0  0  0  0  0  0  0  0  0  0
  -28.0287    0.7673  -12.3394 P   0  0  1  0  0  0  0  0  0  0  0  0
  -31.3196    3.0169   -8.9545 C   0  0  2  0  0  0  0  0  0  0  0  0
  -29.1902    5.6645   -9.8111 N   0  0  0  0  0  0  0  0  0  0  0  0
  -33.5406    3.6195   -9.5872 O   0  0  0  0  0  0  0  0  0  0  0  0
  -32.3410    2.9703  -10.0248 C   0  0  2  0  0  0  0  0  0  0  0  0
  -28.9440    8.5057   -9.0494 N   0  0  0  0  0  0  0  0  0  0  0  0
  -33.2636    0.9319   -9.2242 O   0  0  0  0  0  0  0  0  0  0  0  0
  -32.5057    1.5446  -10.2808 C   0  0  2  0  0  0  0  0  0  0  0  0
  -30.0613    6.2912   -9.0054 C   0  0  0  0  0  0  0  0  0  0  0  0
  -32.0796    5.6368   -7.7165 N   0  0  0  0  0  0  0  0  0  0  0  0
  -29.1216    0.6486  -11.2212 O   0  0  0  0  0  0  0  0  0  0  0  0
  -30.4001    1.1338  -11.4734 C   0  0  0  0  0  0  0  0  0  0  0  0
  -28.7429    0.1672  -13.6045 O   0  0  0  0  0  0  0  0  0  0  0  0
  -29.5487    4.3679   -9.8730 C   0  0  0  0  0  0  0  0  0  0  0  0
  -30.9456    8.2263   -8.0001 O   0  0  0  0  0  0  0  0  0  0  0  0
  -30.0311    7.7226   -8.6522 C   0  0  0  0  0  0  0  0  0  0  0  0
  -30.9791    5.3803   -8.5660 C   0  0  0  0  0  0  0  0  0  0  0  0
  -27.6089    2.1925  -12.4822 O   0  5  0  0  0  0  0  0  0  0  0  0
  -26.7706    0.1308  -11.9098 O   0  0  0  0  0  0  0  0  0  0  0  0
  1 17  1  0  0  0  0
  1 20  1  0  0  0  0
  2 15  1  6  0  0  0
  2  3  1  0  0  0  0
  2 11  1  0  0  0  0
  3  5  1  0  0  0  0
  4 16  1  6  0  0  0
  4 21  1  0  0  0  0
  4 22  2  0  0  0  0
  4 14  1  0  0  0  0
  5  1  1  6  0  0  0
  5  8  1  0  0  0  0
  6 17  2  0  0  0  0
  6 12  1  0  0  0  0
  8  7  1  1  0  0  0
  8 11  1  0  0  0  0
  9 19  1  0  0  0  0
 11 10  1  1  0  0  0
 12 20  2  0  0  0  0
 12 19  1  0  0  0  0
 13 20  1  0  0  0  0
 14 15  1  0  0  0  0
 18 19  2  0  0  0  0
M  CHG  1  21  -1
M  END
>  <CHROM.1>
23.17085384,63.54892452,-50.52078571,-172.95208109,-7.35775445,-30.20021520
3.21475332,-10.19076350,1.89376725,0.43581571,0.38192134

>  <Name>
ligand

>  <RI>
0

>  <Rbt.Current_Directory>
/home/itssahil/PROJECTS/Mol_Feturizer/New_Systems/rnas/4XWF

>  <Rbt.Executable>
rbdock ($Id: //depot/dev/client3/rdock/2013.1/src/exe/rbdock.cxx#4 $)

>  <Rbt.Library>
libRbt.so (2013.1, Build901 2013/11/27)

>  <Rbt.Parameter_File>
/export/apps/rDock/src/rDock_2013.1_src/data/scripts/dock_solv.prm

>  <Rbt.Receptor>
prm/pocket_docking_5.prm

>  <SCORE>
-8.23955

>  <SCORE.INTER>
-7.4487

>  <SCORE.INTER.CONST>
1

>  <SCORE.INTER.POLAR>
0

>  <SCORE.INTER.ROT>
5

>  <SCORE.INTER.SOLV>
8.06073

>  <SCORE.INTER.VDW>
-14.586

>  <SCORE.INTER.norm>
-0.338577

>  <SCORE.INTRA>
-0.790848

>  <SCORE.INTRA.DIHEDRAL>
-1.56306

>  <SCORE.INTRA.DIHEDRAL.0>
3.49807

>  <SCORE.INTRA.POLAR>
0

>  <SCORE.INTRA.POLAR.0>
0

>  <SCORE.INTRA.REPUL>
0

>  <SCORE.INTRA.REPUL.0>
0

>  <SCORE.INTRA.SOLV>
0.365713

>  <SCORE.INTRA.SOLV.lig_0>
-73.062

>  <SCORE.INTRA.VDW>
-0.192177

>  <SCORE.INTRA.VDW.0>
-1.83782

>  <SCORE.INTRA.norm>
-0.0359476

>  <SCORE.RESTR>
0

>  <SCORE.RESTR.CAVITY>
0

>  <SCORE.RESTR.norm>
0

>  <SCORE.SYSTEM>
0

>  <SCORE.SYSTEM.CONST>
0

>  <SCORE.SYSTEM.DIHEDRAL>
0

>  <SCORE.SYSTEM.SOLV>
0

>  <SCORE.SYSTEM.norm>
0

>  <SCORE.heavy>
22

>  <SCORE.norm>
-0.374525

>  <RMSD>
6.285

$$$$
ligand
 OpenBabel11021811513D
libRbt.so/2013.1/901 2013/11/27
 22 23  0  0  0  0  0  0  0  0999 V2000
  -30.5901    4.1305   -9.1502 N   0  0  0  0  0  0  0  0  0  0  0  0
  -31.1759    0.9763  -10.2277 C   0  0  1  0  0  0  0  0  0  0  0  0
  -30.4598    1.8321   -9.2924 O   0  0  0  0  0  0  0  0  0  0  0  0
  -28.0756    0.8500  -12.3835 P   0  0  1  0  0  0  0  0  0  0  0  0
  -31.2987    2.9580   -8.9877 C   0  0  2  0  0  0  0  0  0  0  0  0
  -29.1269    5.5611   -9.8736 N   0  0  0  0  0  0  0  0  0  0  0  0
  -33.5127    3.6254   -9.5782 O   0  0  0  0  0  0  0  0  0  0  0  0
  -32.3384    2.9482  -10.0411 C   0  0  2  0  0  0  0  0  0  0  0  0
  -28.7428    8.3647   -9.0271 N   0  0  0  0  0  0  0  0  0  0  0  0
  -33.3022    0.9283   -9.2423 O   0  0  0  0  0  0  0  0  0  0  0  0
  -32.5455    1.5298  -10.3062 C   0  0  2  0  0  0  0  0  0  0  0  0
  -29.9426    6.1934   -9.0160 C   0  0  0  0  0  0  0  0  0  0  0  0
  -31.9230    5.5678   -7.6558 N   0  0  0  0  0  0  0  0  0  0  0  0
  -29.1784    0.6249  -11.2919 O   0  0  0  0  0  0  0  0  0  0  0  0
  -30.4717    1.0732  -11.5372 C   0  0  0  0  0  0  0  0  0  0  0  0
  -27.9035    2.4122  -12.4033 O   0  0  0  0  0  0  0  0  0  0  0  0
  -29.5278    4.2778   -9.9505 C   0  0  0  0  0  0  0  0  0  0  0  0
  -30.7377    8.1362   -7.9528 O   0  0  0  0  0  0  0  0  0  0  0  0
  -29.8529    7.6140   -8.6306 C   0  0  0  0  0  0  0  0  0  0  0  0
  -30.8685    5.2997   -8.5586 C   0  0  0  0  0  0  0  0  0  0  0  0
  -26.8420    0.0951  -12.0145 O   0  5  0  0  0  0  0  0  0  0  0  0
  -28.4532    0.1970  -13.6499 O   0  0  0  0  0  0  0  0  0  0  0  0
  1 17  1  0  0  0  0
  1 20  1  0  0  0  0
  2 15  1  6  0  0  0
  2  3  1  0  0  0  0
  2 11  1  0  0  0  0
  3  5  1  0  0  0  0
  4 16  1  6  0  0  0
  4 21  1  0  0  0  0
  4 22  2  0  0  0  0
  4 14  1  0  0  0  0
  5  1  1  6  0  0  0
  5  8  1  0  0  0  0
  6 17  2  0  0  0  0
  6 12  1  0  0  0  0
  8  7  1  1  0  0  0
  8 11  1  0  0  0  0
  9 19  1  0  0  0  0
 11 10  1  1  0  0  0
 12 20  2  0  0  0  0
 12 19  1  0  0  0  0
 13 20  1  0  0  0  0
 14 15  1  0  0  0  0
 18 19  2  0  0  0  0
M  CHG  1  21  -1
M  END
>  <CHROM.1>
24.96817448,60.15810792,67.08009108,-168.21175156,-9.01444227,-30.17227601
3.18487829,-10.21324994,1.86762251,0.44337728,0.40548191

>  <Name>
ligand

>  <RI>
0

>  <Rbt.Current_Directory>
/home/itssahil/PROJECTS/Mol_Feturizer/New_Systems/rnas/4XWF

>  <Rbt.Executable>
rbdock ($Id: //depot/dev/client3/rdock/2013.1/src/exe/rbdock.cxx#4 $)

>  <Rbt.Library>
libRbt.so (2013.1, Build901 2013/11/27)

>  <Rbt.Parameter_File>
/export/apps/rDock/src/rDock_2013.1_src/data/scripts/dock_solv.prm

>  <Rbt.Receptor>
prm/pocket_docking_5.prm

>  <SCORE>
-6.99362

>  <SCORE.INTER>
-5.96441

>  <SCORE.INTER.CONST>
1

>  <SCORE.INTER.POLAR>
0

>  <SCORE.INTER.ROT>
5

>  <SCORE.INTER.SOLV>
11.2754

>  <SCORE.INTER.VDW>
-14.6681

>  <SCORE.INTER.norm>
-0.271109

>  <SCORE.INTRA>
-1.02922

>  <SCORE.INTRA.DIHEDRAL>
-1.21725

>  <SCORE.INTRA.DIHEDRAL.0>
3.49807

>  <SCORE.INTRA.POLAR>
0

>  <SCORE.INTRA.POLAR.0>
0

>  <SCORE.INTRA.REPUL>
0

>  <SCORE.INTRA.REPUL.0>
0

>  <SCORE.INTRA.SOLV>
0.201788

>  <SCORE.INTRA.SOLV.lig_0>
-73.062

>  <SCORE.INTRA.VDW>
-0.521488

>  <SCORE.INTRA.VDW.0>
-1.83782

>  <SCORE.INTRA.norm>
-0.0467827

>  <SCORE.RESTR>
0

>  <SCORE.RESTR.CAVITY>
0

>  <SCORE.RESTR.norm>
0

>  <SCORE.SYSTEM>
0

>  <SCORE.SYSTEM.CONST>
0

>  <SCORE.SYSTEM.DIHEDRAL>
0

>  <SCORE.SYSTEM.SOLV>
0

>  <SCORE.SYSTEM.norm>
0

>  <SCORE.heavy>
22

>  <SCORE.norm>
-0.317892

>  <RMSD>
6.286

$$$$
ligand
 OpenBabel11021811513D
libRbt.so/2013.1/901 2013/11/27
 22 23  0  0  0  0  0  0  0  0999 V2000
  -30.6200    4.1429   -9.1477 N   0  0  0  0  0  0  0  0  0  0  0  0
  -31.1745    0.9878  -10.2390 C   0  0  1  0  0  0  0  0  0  0  0  0
  -30.4694    1.8462   -9.2978 O   0  0  0  0  0  0  0  0  0  0  0  0
  -28.0952    0.7449  -12.4193 P   0  0  1  0  0  0  0  0  0  0  0  0
  -31.3191    2.9638   -8.9923 C   0  0  2  0  0  0  0  0  0  0  0  0
  -29.1714    5.5910   -9.8658 N   0  0  0  0  0  0  0  0  0  0  0  0
  -33.5365    3.6143   -9.5890 O   0  0  0  0  0  0  0  0  0  0  0  0
  -32.3546    2.9489  -10.0498 C   0  0  2  0  0  0  0  0  0  0  0  0
  -30.9891    8.4735   -8.8474 N   0  0  0  0  0  0  0  0  0  0  0  0
  -33.3041    0.9178   -9.2621 O   0  0  0  0  0  0  0  0  0  0  0  0
  -32.5485    1.5298  -10.3209 C   0  0  2  0  0  0  0  0  0  0  0  0
  -29.9869    6.2092   -8.9978 C   0  0  0  0  0  0  0  0  0  0  0  0
  -31.9549    5.5563   -7.6325 N   0  0  0  0  0  0  0  0  0  0  0  0
  -29.1992    0.5683  -11.3200 O   0  0  0  0  0  0  0  0  0  0  0  0
  -30.4661    1.0955  -11.5454 C   0  0  0  0  0  0  0  0  0  0  0  0
  -28.8356    0.3288  -13.7418 O   0  0  0  0  0  0  0  0  0  0  0  0
  -29.5634    4.3055   -9.9525 C   0  0  0  0  0  0  0  0  0  0  0  0
  -28.8883    8.0701   -8.0665 O   0  0  0  0  0  0  0  0  0  0  0  0
  -29.9054    7.6267   -8.5996 C   0  0  0  0  0  0  0  0  0  0  0  0
  -30.9037    5.3044   -8.5436 C   0  0  0  0  0  0  0  0  0  0  0  0
  -27.5933    2.1506  -12.4058 O   0  5  0  0  0  0  0  0  0  0  0  0
  -26.8781   -0.0062  -12.0628 O   0  0  0  0  0  0  0  0  0  0  0  0
  1 17  1  0  0  0  0
  1 20  1  0  0  0  0
  2 15  1  6  0  0  0
  2  3  1  0  0  0  0
  2 11  1  0  0  0  0
  3  5  1  0  0  0  0
  4 16  1  6  0  0  0
  4 21  1  0  0  0  0
  4 22  2  0  0  0  0
  4 14  1  0  0  0  0
  5  1  1  6  0  0  0
  5  8  1  0  0  0  0
  6 17  2  0  0  0  0
  6 12  1  0  0  0  0
  8  7  1  1  0  0  0
  8 11  1  0  0  0  0
  9 19  1  0  0  0  0
 11 10  1  1  0  0  0
 12 20  2  0  0  0  0
 12 19  1  0  0  0  0
 13 20  1  0  0  0  0
 14 15  1  0  0  0  0
 18 19  2  0  0  0  0
M  CHG  1  21  -1
M  END
>  <CHROM.1>
25.60838841,64.29591120,-47.42820094,-169.62219677,119.54228323,-30.19972044
3.16725062,-10.22274966,1.86116424,0.41681024,0.41495351

>  <Name>
ligand

>  <RI>
0

>  <Rbt.Current_Directory>
/home/itssahil/PROJECTS/Mol_Feturizer/New_Systems/rnas/4XWF

>  <Rbt.Executable>
rbdock ($Id: //depot/dev/client3/rdock/2013.1/src/exe/rbdock.cxx#4 $)

>  <Rbt.Library>
libRbt.so (2013.1, Build901 2013/11/27)

>  <Rbt.Parameter_File>
/export/apps/rDock/src/rDock_2013.1_src/data/scripts/dock_solv.prm

>  <Rbt.Receptor>
prm/pocket_docking_6.prm

>  <SCORE>
-8.29647

>  <SCORE.INTER>
-7.53339

>  <SCORE.INTER.CONST>
1

>  <SCORE.INTER.POLAR>
0

>  <SCORE.INTER.ROT>
5

>  <SCORE.INTER.SOLV>
8.74814

>  <SCORE.INTER.VDW>
-14.8716

>  <SCORE.INTER.norm>
-0.342427

>  <SCORE.INTRA>
-0.763074

>  <SCORE.INTRA.DIHEDRAL>
-1.22677

>  <SCORE.INTRA.DIHEDRAL.0>
3.49807

>  <SCORE.INTRA.POLAR>
0

>  <SCORE.INTRA.POLAR.0>
0

>  <SCORE.INTRA.REPUL>
0

>  <SCORE.INTRA.REPUL.0>
0

>  <SCORE.INTRA.SOLV>
0.404076

>  <SCORE.INTRA.SOLV.lig_0>
-73.062

>  <SCORE.INTRA.VDW>
-0.351727

>  <SCORE.INTRA.VDW.0>
-1.83782

>  <SCORE.INTRA.norm>
-0.0346852

>  <SCORE.RESTR>
0

>  <SCORE.RESTR.CAVITY>
0

>  <SCORE.RESTR.norm>
0

>  <SCORE.SYSTEM>
0

>  <SCORE.SYSTEM.CONST>
0

>  <SCORE.SYSTEM.DIHEDRAL>
0

>  <SCORE.SYSTEM.SOLV>
0

>  <SCORE.SYSTEM.norm>
0

>  <SCORE.heavy>
22

>  <SCORE.norm>
-0.377112

>  <RMSD>
6.286

$$$$
ligand
 OpenBabel11021811513D
libRbt.so/2013.1/901 2013/11/27
 22 23  0  0  0  0  0  0  0  0999 V2000
  -30.6153    4.1369   -9.1505 N   0  0  0  0  0  0  0  0  0  0  0  0
  -31.1710    0.9814  -10.2395 C   0  0  1  0  0  0  0  0  0  0  0  0
  -30.4647    1.8402   -9.2996 O   0  0  0  0  0  0  0  0  0  0  0  0
  -28.0907    0.7587  -12.4217 P   0  0  1  0  0  0  0  0  0  0  0  0
  -31.3141    2.9579   -8.9935 C   0  0  2  0  0  0  0  0  0  0  0  0
  -29.1534    5.5785   -9.8547 N   0  0  0  0  0  0  0  0  0  0  0  0
  -33.5322    3.6080   -9.5878 O   0  0  0  0  0  0  0  0  0  0  0  0
  -32.3510    2.9425  -10.0497 C   0  0  2  0  0  0  0  0  0  0  0  0
  -29.6875    7.9805   -7.3103 N   0  0  0  0  0  0  0  0  0  0  0  0
  -33.2994    0.9118   -9.2599 O   0  0  0  0  0  0  0  0  0  0  0  0
  -32.5451    1.5232  -10.3199 C   0  0  2  0  0  0  0  0  0  0  0  0
  -29.9934    6.2079   -9.0187 C   0  0  0  0  0  0  0  0  0  0  0  0
  -31.9942    5.5702   -7.6945 N   0  0  0  0  0  0  0  0  0  0  0  0
  -29.1893    0.5832  -11.3167 O   0  0  0  0  0  0  0  0  0  0  0  0
  -30.4642    1.0885  -11.5468 C   0  0  0  0  0  0  0  0  0  0  0  0
  -28.8347    0.3315  -13.7387 O   0  0  0  0  0  0  0  0  0  0  0  0
  -29.5385    4.2903   -9.9300 C   0  0  0  0  0  0  0  0  0  0  0  0
  -30.0958    8.5117   -9.4867 O   0  0  0  0  0  0  0  0  0  0  0  0
  -29.9272    7.6322   -8.6423 C   0  0  0  0  0  0  0  0  0  0  0  0
  -30.9186    5.3073   -8.5735 C   0  0  0  0  0  0  0  0  0  0  0  0
  -27.5954    2.1668  -12.4184 O   0  5  0  0  0  0  0  0  0  0  0  0
  -26.8686    0.0154  -12.0661 O   0  0  0  0  0  0  0  0  0  0  0  0
  1 17  1  0  0  0  0
  1 20  1  0  0  0  0
  2 15  1  6  0  0  0
  2  3  1  0  0  0  0
  2 11  1  0  0  0  0
  3  5  1  0  0  0  0
  4 16  1  6  0  0  0
  4 21  1  0  0  0  0
  4 22  2  0  0  0  0
  4 14  1  0  0  0  0
  5  1  1  6  0  0  0
  5  8  1  0  0  0  0
  6 17  2  0  0  0  0
  6 12  1  0  0  0  0
  8  7  1  1  0  0  0
  8 11  1  0  0  0  0
  9 19  1  0  0  0  0
 11 10  1  1  0  0  0
 12 20  2  0  0  0  0
 12 19  1  0  0  0  0
 13 20  1  0  0  0  0
 14 15  1  0  0  0  0
 18 19  2  0  0  0  0
M  CHG  1  21  -1
M  END
>  <CHROM.1>
23.77180017,63.27425283,-46.63181869,-170.03233209,-116.57345896,-30.20173111
3.16905088,-10.23195174,1.86581119,0.44595172,0.40596772

>  <Name>
ligand

>  <RI>
0

>  <Rbt.Current_Directory>
/home/itssahil/PROJECTS/Mol_Feturizer/New_Systems/rnas/4XWF

>  <Rbt.Executable>
rbdock ($Id: //depot/dev/client3/rdock/2013.1/src/exe/rbdock.cxx#4 $)

>  <Rbt.Library>
libRbt.so (2013.1, Build901 2013/11/27)

>  <Rbt.Parameter_File>
/export/apps/rDock/src/rDock_2013.1_src/data/scripts/dock_solv.prm

>  <Rbt.Receptor>
prm/pocket_docking_8.prm

>  <SCORE>
-8.46887

>  <SCORE.INTER>
-7.75973

>  <SCORE.INTER.CONST>
1

>  <SCORE.INTER.POLAR>
0

>  <SCORE.INTER.ROT>
5

>  <SCORE.INTER.SOLV>
8.38721

>  <SCORE.INTER.VDW>
-14.9022

>  <SCORE.INTER.norm>
-0.352715

>  <SCORE.INTRA>
-0.70914

>  <SCORE.INTRA.DIHEDRAL>
-1.24816

>  <SCORE.INTRA.DIHEDRAL.0>
3.49807

>  <SCORE.INTRA.POLAR>
0

>  <SCORE.INTRA.POLAR.0>
0

>  <SCORE.INTRA.REPUL>
0

>  <SCORE.INTRA.REPUL.0>
0

>  <SCORE.INTRA.SOLV>
0.46597

>  <SCORE.INTRA.SOLV.lig_0>
-73.062

>  <SCORE.INTRA.VDW>
-0.318043

>  <SCORE.INTRA.VDW.0>
-1.83782

>  <SCORE.INTRA.norm>
-0.0322336

>  <SCORE.RESTR>
0

>  <SCORE.RESTR.CAVITY>
0

>  <SCORE.RESTR.norm>
0

>  <SCORE.SYSTEM>
0

>  <SCORE.SYSTEM.CONST>
0

>  <SCORE.SYSTEM.DIHEDRAL>
0

>  <SCORE.SYSTEM.SOLV>
0

>  <SCORE.SYSTEM.norm>
0

>  <SCORE.heavy>
22

>  <SCORE.norm>
-0.384948

>  <RMSD>
6.286

$$$$
ligand
 OpenBabel11021811513D
libRbt.so/2013.1/901 2013/11/27
 22 23  0  0  0  0  0  0  0  0999 V2000
  -30.2711    4.0713   -9.1234 N   0  0  0  0  0  0  0  0  0  0  0  0
  -31.1216    0.9950  -10.2487 C   0  0  1  0  0  0  0  0  0  0  0  0
  -30.3228    1.7731   -9.3125 O   0  0  0  0  0  0  0  0  0  0  0  0
  -28.0417    0.8511  -12.4198 P   0  0  1  0  0  0  0  0  0  0  0  0
  -31.0655    2.9540   -8.9685 C   0  0  2  0  0  0  0  0  0  0  0  0
  -28.8870    5.5018   -9.9887 N   0  0  0  0  0  0  0  0  0  0  0  0
  -33.2320    3.8028   -9.4991 O   0  0  0  0  0  0  0  0  0  0  0  0
  -32.1233    3.0466   -9.9996 C   0  0  2  0  0  0  0  0  0  0  0  0
  -28.8875    8.4275   -9.0204 N   0  0  0  0  0  0  0  0  0  0  0  0
  -33.2254    1.0911   -9.2195 O   0  0  0  0  0  0  0  0  0  0  0  0
  -32.4453    1.6543  -10.2875 C   0  0  2  0  0  0  0  0  0  0  0  0
  -29.3194    5.9931   -8.8173 C   0  0  0  0  0  0  0  0  0  0  0  0
  -30.8920    5.2461   -7.0474 N   0  0  0  0  0  0  0  0  0  0  0  0
  -29.1511    0.5885  -11.3432 O   0  0  0  0  0  0  0  0  0  0  0  0
  -30.4378    1.0643  -11.5707 C   0  0  0  0  0  0  0  0  0  0  0  0
  -27.8901    2.4155  -12.4047 O   0  0  0  0  0  0  0  0  0  0  0  0
  -29.4754    4.3047  -10.1736 C   0  0  0  0  0  0  0  0  0  0  0  0
  -28.5929    7.3490   -7.0366 O   0  0  0  0  0  0  0  0  0  0  0  0
  -28.9165    7.2808   -8.2222 C   0  0  0  0  0  0  0  0  0  0  0  0
  -30.1937    5.0992   -8.2678 C   0  0  0  0  0  0  0  0  0  0  0  0
  -26.8016    0.1045  -12.0556 O   0  5  0  0  0  0  0  0  0  0  0  0
  -28.3994    0.2205  -13.7031 O   0  0  0  0  0  0  0  0  0  0  0  0
  1 17  1  0  0  0  0
  1 20  1  0  0  0  0
  2 15  1  6  0  0  0
  2  3  1  0  0  0  0
  2 11  1  0  0  0  0
  3  5  1  0  0  0  0
  4 16  1  6  0  0  0
  4 21  1  0  0  0  0
  4 22  2  0  0  0  0
  4 14  1  0  0  0  0
  5  1  1  6  0  0  0
  5  8  1  0  0  0  0
  6 17  2  0  0  0  0
  6 12  1  0  0  0  0
  8  7  1  1  0  0  0
  8 11  1  0  0  0  0
  9 19  1  0  0  0  0
 11 10  1  1  0  0  0
 12 20  2  0  0  0  0
 12 19  1  0  0  0  0
 13 20  1  0  0  0  0
 14 15  1  0  0  0  0
 18 19  2  0  0  0  0
M  CHG  1  21  -1
M  END
>  <CHROM.1>
44.82406543,56.61336430,64.94490012,-164.72898097,45.88152896,-29.86401471
3.12753086,-10.12737553,1.71746155,0.42167951,0.53516319

>  <Name>
ligand

>  <RI>
0

>  <Rbt.Current_Directory>
/home/itssahil/PROJECTS/Mol_Feturizer/New_Systems/rnas/4XWF

>  <Rbt.Executable>
rbdock ($Id: //depot/dev/client3/rdock/2013.1/src/exe/rbdock.cxx#4 $)

>  <Rbt.Library>
libRbt.so (2013.1, Build901 2013/11/27)

>  <Rbt.Parameter_File>
/export/apps/rDock/src/rDock_2013.1_src/data/scripts/dock_solv.prm

>  <Rbt.Receptor>
prm/pocket_docking_4.prm

>  <SCORE>
-5.15071

>  <SCORE.INTER>
-4.51602

>  <SCORE.INTER.CONST>
1

>  <SCORE.INTER.POLAR>
0

>  <SCORE.INTER.ROT>
5

>  <SCORE.INTER.SOLV>
9.55354

>  <SCORE.INTER.VDW>
-13.1285

>  <SCORE.INTER.norm>
-0.205274

>  <SCORE.INTRA>
-0.634687

>  <SCORE.INTRA.DIHEDRAL>
0.589036

>  <SCORE.INTRA.DIHEDRAL.0>
3.49807

>  <SCORE.INTRA.POLAR>
0

>  <SCORE.INTRA.POLAR.0>
0

>  <SCORE.INTRA.REPUL>
0

>  <SCORE.INTRA.REPUL.0>
0

>  <SCORE.INTRA.SOLV>
-0.639691

>  <SCORE.INTRA.SOLV.lig_0>
-73.062

>  <SCORE.INTRA.VDW>
-0.60936

>  <SCORE.INTRA.VDW.0>
-1.83782

>  <SCORE.INTRA.norm>
-0.0288494

>  <SCORE.RESTR>
0

>  <SCORE.RESTR.CAVITY>
0

>  <SCORE.RESTR.norm>
0

>  <SCORE.SYSTEM>
0

>  <SCORE.SYSTEM.CONST>
0

>  <SCORE.SYSTEM.DIHEDRAL>
0

>  <SCORE.SYSTEM.SOLV>
0

>  <SCORE.SYSTEM.norm>
0

>  <SCORE.heavy>
22

>  <SCORE.norm>
-0.234123

>  <RMSD>
6.290

$$$$
ligand
 OpenBabel11021811513D
libRbt.so/2013.1/901 2013/11/27
 22 23  0  0  0  0  0  0  0  0999 V2000
  -28.8829    3.6051  -10.4861 N   0  0  0  0  0  0  0  0  0  0  0  0
  -30.7871    0.9206  -11.2733 C   0  0  1  0  0  0  0  0  0  0  0  0
  -30.0474    2.0760  -11.7610 O   0  0  0  0  0  0  0  0  0  0  0  0
  -32.8992    3.3452   -9.2705 P   0  0  1  0  0  0  0  0  0  0  0  0
  -28.9253    2.2863  -10.8887 C   0  0  2  0  0  0  0  0  0  0  0  0
  -29.4436    5.4898   -9.5670 N   0  0  0  0  0  0  0  0  0  0  0  0
  -28.0241    1.1544   -8.9907 O   0  0  0  0  0  0  0  0  0  0  0  0
  -29.2341    1.4897   -9.6801 C   0  0  2  0  0  0  0  0  0  0  0  0
  -27.9280    8.0177   -9.4883 N   0  0  0  0  0  0  0  0  0  0  0  0
  -29.0346   -0.5746  -10.8403 O   0  0  0  0  0  0  0  0  0  0  0  0
  -29.9500    0.3332  -10.2045 C   0  0  2  0  0  0  0  0  0  0  0  0
  -28.2230    5.6331  -10.1058 C   0  0  0  0  0  0  0  0  0  0  0  0
  -26.6411    4.1712  -11.3402 N   0  0  0  0  0  0  0  0  0  0  0  0
  -31.7658    2.5886  -10.0461 O   0  0  0  0  0  0  0  0  0  0  0  0
  -32.0829    1.4245  -10.7376 C   0  0  0  0  0  0  0  0  0  0  0  0
  -32.3220    4.7993   -9.1198 O   0  0  0  0  0  0  0  0  0  0  0  0
  -29.8538    4.2304   -9.8102 C   0  0  0  0  0  0  0  0  0  0  0  0
  -26.2877    6.8824  -10.5867 O   0  0  0  0  0  0  0  0  0  0  0  0
  -27.4093    6.8627  -10.0799 C   0  0  0  0  0  0  0  0  0  0  0  0
  -27.8618    4.4496  -10.6838 C   0  0  0  0  0  0  0  0  0  0  0  0
  -34.1760    3.2615  -10.0390 O   0  5  0  0  0  0  0  0  0  0  0  0
  -33.2530    2.6283   -8.0321 O   0  0  0  0  0  0  0  0  0  0  0  0
  1 17  1  0  0  0  0
  1 20  1  0  0  0  0
  2 15  1  1  0  0  0
  2  3  1  0  0  0  0
  2 11  1  0  0  0  0
  3  5  1  0  0  0  0
  4 16  1  1  0  0  0
  4 21  1  0  0  0  0
  4 22  2  0  0  0  0
  4 14  1  0  0  0  0
  5  1  1  1  0  0  0
  5  8  1  0  0  0  0
  6 17  2  0  0  0  0
  6 12  1  0  0  0  0
  8  7  1  6  0  0  0
  8 11  1  0  0  0  0
  9 19  1  0  0  0  0
 11 10  1  6  0  0  0
 12 20  2  0  0  0  0
 12 19  1  0  0  0  0
 13 20  1  0  0  0  0
 14 15  1  0  0  0  0
 18 19  2  0  0  0  0
M  CHG  1  21  -1
M  END
>  <CHROM.1>
59.90667389,-41.45587563,-159.05100564,-176.32903951,-2.03771129,-30.01157974
3.36200119,-10.07764700,-0.67950910,-0.22976253,-2.97204075

>  <Name>
ligand

>  <RI>
0

>  <Rbt.Current_Directory>
/home/itssahil/PROJECTS/Mol_Feturizer/New_Systems/rnas/4XWF

>  <Rbt.Executable>
rbdock ($Id: //depot/dev/client3/rdock/2013.1/src/exe/rbdock.cxx#4 $)

>  <Rbt.Library>
libRbt.so (2013.1, Build901 2013/11/27)

>  <Rbt.Parameter_File>
/export/apps/rDock/src/rDock_2013.1_src/data/scripts/dock_solv.prm

>  <Rbt.Receptor>
prm/pocket_docking_3.prm

>  <SCORE>
-3.56455

>  <SCORE.INTER>
-5.70861

>  <SCORE.INTER.CONST>
1

>  <SCORE.INTER.POLAR>
0

>  <SCORE.INTER.ROT>
5

>  <SCORE.INTER.SOLV>
15.8533

>  <SCORE.INTER.VDW>
-16.0235

>  <SCORE.INTER.norm>
-0.259482

>  <SCORE.INTRA>
2.14406

>  <SCORE.INTRA.DIHEDRAL>
-0.187772

>  <SCORE.INTRA.DIHEDRAL.0>
3.49807

>  <SCORE.INTRA.POLAR>
0

>  <SCORE.INTRA.POLAR.0>
0

>  <SCORE.INTRA.REPUL>
0

>  <SCORE.INTRA.REPUL.0>
0

>  <SCORE.INTRA.SOLV>
0.817046

>  <SCORE.INTRA.SOLV.lig_0>
-73.062

>  <SCORE.INTRA.VDW>
1.82942

>  <SCORE.INTRA.VDW.0>
-1.83782

>  <SCORE.INTRA.norm>
0.0974573

>  <SCORE.RESTR>
0

>  <SCORE.RESTR.CAVITY>
0

>  <SCORE.RESTR.norm>
0

>  <SCORE.SYSTEM>
0

>  <SCORE.SYSTEM.CONST>
0

>  <SCORE.SYSTEM.DIHEDRAL>
0

>  <SCORE.SYSTEM.SOLV>
0

>  <SCORE.SYSTEM.norm>
0

>  <SCORE.heavy>
22

>  <SCORE.norm>
-0.162025

>  <RMSD>
6.294

$$$$
ligand
 OpenBabel11021811513D
libRbt.so/2013.1/901 2013/11/27
 22 23  0  0  0  0  0  0  0  0999 V2000
  -32.5153    5.0492   -8.4252 N   0  0  0  0  0  0  0  0  0  0  0  0
  -29.6342    3.9558   -9.8238 C   0  0  1  0  0  0  0  0  0  0  0  0
  -30.6843    4.9643   -9.8252 O   0  0  0  0  0  0  0  0  0  0  0  0
  -29.2914    0.6050  -11.5599 P   0  0  1  0  0  0  0  0  0  0  0  0
  -31.1392    5.1347   -8.4730 C   0  0  2  0  0  0  0  0  0  0  0  0
  -34.5446    4.3777   -8.8024 N   0  0  0  0  0  0  0  0  0  0  0  0
  -30.5083    4.2409   -6.3519 O   0  0  0  0  0  0  0  0  0  0  0  0
  -30.6213    3.9514   -7.7502 C   0  0  2  0  0  0  0  0  0  0  0  0
  -35.9669    7.2775   -7.1213 N   0  0  0  0  0  0  0  0  0  0  0  0
  -28.3608    4.6473   -7.9813 O   0  0  0  0  0  0  0  0  0  0  0  0
  -29.3434    3.6847   -8.3990 C   0  0  2  0  0  0  0  0  0  0  0  0
  -34.5914    5.3620   -7.8915 C   0  0  0  0  0  0  0  0  0  0  0  0
  -32.9267    6.7948   -6.7343 N   0  0  0  0  0  0  0  0  0  0  0  0
  -29.0748    1.9736  -10.8259 O   0  0  0  0  0  0  0  0  0  0  0  0
  -30.1829    2.7513  -10.5081 C   0  0  0  0  0  0  0  0  0  0  0  0
  -29.9345   -0.3008  -10.4480 O   0  0  0  0  0  0  0  0  0  0  0  0
  -33.2537    4.1896   -9.1368 C   0  0  0  0  0  0  0  0  0  0  0  0
  -36.6889    5.1350   -6.8492 O   0  0  0  0  0  0  0  0  0  0  0  0
  -35.8138    5.8956   -7.2624 C   0  0  0  0  0  0  0  0  0  0  0  0
  -33.3171    5.7879   -7.6466 C   0  0  0  0  0  0  0  0  0  0  0  0
  -30.1487    0.8110  -12.7642 O   0  5  0  0  0  0  0  0  0  0  0  0
  -28.0345    0.1346  -12.1696 O   0  0  0  0  0  0  0  0  0  0  0  0
  1 17  1  0  0  0  0
  1 20  1  0  0  0  0
  2 15  1  1  0  0  0
  2  3  1  0  0  0  0
  2 11  1  0  0  0  0
  3  5  1  0  0  0  0
  4 16  1  1  0  0  0
  4 21  1  0  0  0  0
  4 22  2  0  0  0  0
  4 14  1  0  0  0  0
  5  1  1  6  0  0  0
  5  8  1  0  0  0  0
  6 17  2  0  0  0  0
  6 12  1  0  0  0  0
  8  7  1  1  0  0  0
  8 11  1  0  0  0  0
  9 19  1  0  0  0  0
 11 10  1  1  0  0  0
 12 20  2  0  0  0  0
 12 19  1  0  0  0  0
 13 20  1  0  0  0  0
 14 15  1  0  0  0  0
 18 19  2  0  0  0  0
M  CHG  1  21  -1
M  END
>  <CHROM.1>
39.27779129,163.58419617,-71.07238024,179.66858900,-136.23774919,-31.43563900
3.66095130,-9.13972309,-2.29730225,0.06346818,-2.39762477

>  <Name>
ligand

>  <RI>
0

>  <Rbt.Current_Directory>
/home/itssahil/PROJECTS/Mol_Feturizer/New_Systems/rnas/4XWF

>  <Rbt.Executable>
rbdock ($Id: //depot/dev/client3/rdock/2013.1/src/exe/rbdock.cxx#4 $)

>  <Rbt.Library>
libRbt.so (2013.1, Build901 2013/11/27)

>  <Rbt.Parameter_File>
/export/apps/rDock/src/rDock_2013.1_src/data/scripts/dock_solv.prm

>  <Rbt.Receptor>
prm/pocket_docking_8.prm

>  <SCORE>
-7.64203

>  <SCORE.INTER>
-7.01618

>  <SCORE.INTER.CONST>
1

>  <SCORE.INTER.POLAR>
0

>  <SCORE.INTER.ROT>
5

>  <SCORE.INTER.SOLV>
16.0855

>  <SCORE.INTER.VDW>
-16.9726

>  <SCORE.INTER.norm>
-0.318917

>  <SCORE.INTRA>
-0.625841

>  <SCORE.INTRA.DIHEDRAL>
-0.638732

>  <SCORE.INTRA.DIHEDRAL.0>
3.49807

>  <SCORE.INTRA.POLAR>
0

>  <SCORE.INTRA.POLAR.0>
0

>  <SCORE.INTRA.REPUL>
0

>  <SCORE.INTRA.REPUL.0>
0

>  <SCORE.INTRA.SOLV>
-0.053391

>  <SCORE.INTRA.SOLV.lig_0>
-73.062

>  <SCORE.INTRA.VDW>
-0.27978

>  <SCORE.INTRA.VDW.0>
-1.83782

>  <SCORE.INTRA.norm>
-0.0284473

>  <SCORE.RESTR>
0

>  <SCORE.RESTR.CAVITY>
0

>  <SCORE.RESTR.norm>
0

>  <SCORE.SYSTEM>
0

>  <SCORE.SYSTEM.CONST>
0

>  <SCORE.SYSTEM.DIHEDRAL>
0

>  <SCORE.SYSTEM.SOLV>
0

>  <SCORE.SYSTEM.norm>
0

>  <SCORE.heavy>
22

>  <SCORE.norm>
-0.347365

>  <RMSD>
6.297

$$$$
ligand
 OpenBabel11021811513D
libRbt.so/2013.1/901 2013/11/27
 22 23  0  0  0  0  0  0  0  0999 V2000
  -30.6001    4.1333   -9.1390 N   0  0  0  0  0  0  0  0  0  0  0  0
  -31.1728    0.9841  -10.2376 C   0  0  1  0  0  0  0  0  0  0  0  0
  -30.4591    1.8366   -9.2976 O   0  0  0  0  0  0  0  0  0  0  0  0
  -28.1012    0.7715  -12.4343 P   0  0  1  0  0  0  0  0  0  0  0  0
  -31.3028    2.9564   -8.9835 C   0  0  2  0  0  0  0  0  0  0  0  0
  -29.1421    5.5747   -9.8516 N   0  0  0  0  0  0  0  0  0  0  0  0
  -33.5210    3.6173   -9.5654 O   0  0  0  0  0  0  0  0  0  0  0  0
  -32.3443    2.9490  -10.0351 C   0  0  2  0  0  0  0  0  0  0  0  0
  -28.7471    8.3600   -8.9367 N   0  0  0  0  0  0  0  0  0  0  0  0
  -33.2971    0.9190   -9.2489 O   0  0  0  0  0  0  0  0  0  0  0  0
  -32.5452    1.5315  -10.3098 C   0  0  2  0  0  0  0  0  0  0  0  0
  -29.9645    6.1993   -8.9948 C   0  0  0  0  0  0  0  0  0  0  0  0
  -31.9466    5.5577   -7.6444 N   0  0  0  0  0  0  0  0  0  0  0  0
  -29.1915    0.5996  -11.3206 O   0  0  0  0  0  0  0  0  0  0  0  0
  -30.4714    1.0935  -11.5477 C   0  0  0  0  0  0  0  0  0  0  0  0
  -28.8559    0.3430  -13.7447 O   0  0  0  0  0  0  0  0  0  0  0  0
  -29.5356    4.2895   -9.9347 C   0  0  0  0  0  0  0  0  0  0  0  0
  -30.8010    8.1487   -7.9763 O   0  0  0  0  0  0  0  0  0  0  0  0
  -29.8842    7.6189   -8.6038 C   0  0  0  0  0  0  0  0  0  0  0  0
  -30.8873    5.2988   -8.5441 C   0  0  0  0  0  0  0  0  0  0  0  0
  -27.6038    2.1788  -12.4374 O   0  5  0  0  0  0  0  0  0  0  0  0
  -26.8775    0.0270  -12.0867 O   0  0  0  0  0  0  0  0  0  0  0  0
  1 17  1  0  0  0  0
  1 20  1  0  0  0  0
  2 15  1  6  0  0  0
  2  3  1  0  0  0  0
  2 11  1  0  0  0  0
  3  5  1  0  0  0  0
  4 16  1  6  0  0  0
  4 21  1  0  0  0  0
  4 22  2  0  0  0  0
  4 14  1  0  0  0  0
  5  1  1  6  0  0  0
  5  8  1  0  0  0  0
  6 17  2  0  0  0  0
  6 12  1  0  0  0  0
  8  7  1  1  0  0  0
  8 11  1  0  0  0  0
  9 19  1  0  0  0  0
 11 10  1  1  0  0  0
 12 20  2  0  0  0  0
 12 19  1  0  0  0  0
 13 20  1  0  0  0  0
 14 15  1  0  0  0  0
 18 19  2  0  0  0  0
M  CHG  1  21  -1
M  END
>  <CHROM.1>
24.59275387,62.47272515,-45.93847322,-170.50106567,-12.13041764,-30.19067784
3.17076007,-10.22226072,1.86395818,0.44047066,0.41544519

>  <Name>
ligand

>  <RI>
0

>  <Rbt.Current_Directory>
/home/itssahil/PROJECTS/Mol_Feturizer/New_Systems/rnas/4XWF

>  <Rbt.Executable>
rbdock ($Id: //depot/dev/client3/rdock/2013.1/src/exe/rbdock.cxx#4 $)

>  <Rbt.Library>
libRbt.so (2013.1, Build901 2013/11/27)

>  <Rbt.Parameter_File>
/export/apps/rDock/src/rDock_2013.1_src/data/scripts/dock_solv.prm

>  <Rbt.Receptor>
prm/pocket_docking_5.prm

>  <SCORE>
-8.27648

>  <SCORE.INTER>
-7.72581

>  <SCORE.INTER.CONST>
1

>  <SCORE.INTER.POLAR>
0

>  <SCORE.INTER.ROT>
5

>  <SCORE.INTER.SOLV>
7.84569

>  <SCORE.INTER.VDW>
-14.6991

>  <SCORE.INTER.norm>
-0.351173

>  <SCORE.INTRA>
-0.550668

>  <SCORE.INTRA.DIHEDRAL>
-1.15125

>  <SCORE.INTRA.DIHEDRAL.0>
3.49807

>  <SCORE.INTRA.POLAR>
0

>  <SCORE.INTRA.POLAR.0>
0

>  <SCORE.INTRA.REPUL>
0

>  <SCORE.INTRA.REPUL.0>
0

>  <SCORE.INTRA.SOLV>
0.358093

>  <SCORE.INTRA.SOLV.lig_0>
-73.062

>  <SCORE.INTRA.VDW>
-0.154088

>  <SCORE.INTRA.VDW.0>
-1.83782

>  <SCORE.INTRA.norm>
-0.0250304

>  <SCORE.RESTR>
0

>  <SCORE.RESTR.CAVITY>
0

>  <SCORE.RESTR.norm>
0

>  <SCORE.SYSTEM>
0

>  <SCORE.SYSTEM.CONST>
0

>  <SCORE.SYSTEM.DIHEDRAL>
0

>  <SCORE.SYSTEM.SOLV>
0

>  <SCORE.SYSTEM.norm>
0

>  <SCORE.heavy>
22

>  <SCORE.norm>
-0.376203

>  <RMSD>
6.302

$$$$
ligand
 OpenBabel11021811513D
libRbt.so/2013.1/901 2013/11/27
 22 23  0  0  0  0  0  0  0  0999 V2000
  -30.7024    4.0731   -9.1324 N   0  0  0  0  0  0  0  0  0  0  0  0
  -31.2223    0.9263  -10.2637 C   0  0  1  0  0  0  0  0  0  0  0  0
  -30.5366    1.7790   -9.3031 O   0  0  0  0  0  0  0  0  0  0  0  0
  -28.1147    0.6937  -12.4041 P   0  0  1  0  0  0  0  0  0  0  0  0
  -31.3972    2.8887   -8.9995 C   0  0  2  0  0  0  0  0  0  0  0  0
  -29.2751    5.5474   -9.8397 N   0  0  0  0  0  0  0  0  0  0  0  0
  -33.6088    3.5331   -9.6238 O   0  0  0  0  0  0  0  0  0  0  0  0
  -32.4162    2.8789  -10.0730 C   0  0  2  0  0  0  0  0  0  0  0  0
  -31.0477    8.3983   -8.6924 N   0  0  0  0  0  0  0  0  0  0  0  0
  -33.3663    0.8348   -9.3205 O   0  0  0  0  0  0  0  0  0  0  0  0
  -32.5979    1.4615  -10.3613 C   0  0  2  0  0  0  0  0  0  0  0  0
  -30.0640    6.1329   -8.9256 C   0  0  0  0  0  0  0  0  0  0  0  0
  -31.9909    5.4292   -7.5272 N   0  0  0  0  0  0  0  0  0  0  0  0
  -29.2367    0.5057  -11.3251 O   0  0  0  0  0  0  0  0  0  0  0  0
  -30.4946    1.0511  -11.5578 C   0  0  0  0  0  0  0  0  0  0  0  0
  -28.8259    0.2680  -13.7396 O   0  0  0  0  0  0  0  0  0  0  0  0
  -29.6702    4.2658   -9.9617 C   0  0  0  0  0  0  0  0  0  0  0  0
  -28.9477    7.9514   -7.9336 O   0  0  0  0  0  0  0  0  0  0  0  0
  -29.9700    7.5349   -8.4782 C   0  0  0  0  0  0  0  0  0  0  0  0
  -30.9674    5.2116   -8.4778 C   0  0  0  0  0  0  0  0  0  0  0  0
  -27.6289    2.1048  -12.3830 O   0  5  0  0  0  0  0  0  0  0  0  0
  -26.8960   -0.0435  -12.0244 O   0  0  0  0  0  0  0  0  0  0  0  0
  1 17  1  0  0  0  0
  1 20  1  0  0  0  0
  2 15  1  6  0  0  0
  2  3  1  0  0  0  0
  2 11  1  0  0  0  0
  3  5  1  0  0  0  0
  4 16  1  6  0  0  0
  4 21  1  0  0  0  0
  4 22  2  0  0  0  0
  4 14  1  0  0  0  0
  5  1  1  6  0  0  0
  5  8  1  0  0  0  0
  6 17  2  0  0  0  0
  6 12  1  0  0  0  0
  8  7  1  1  0  0  0
  8 11  1  0  0  0  0
  9 19  1  0  0  0  0
 11 10  1  1  0  0  0
 12 20  2  0  0  0  0
 12 19  1  0  0  0  0
 13 20  1  0  0  0  0
 14 15  1  0  0  0  0
 18 19  2  0  0  0  0
M  CHG  1  21  -1
M  END
>  <CHROM.1>
28.63107722,65.37546723,-49.22137621,-169.49591417,117.96079161,-30.25213115
3.09819750,-10.19915345,1.86471972,0.40305631,0.43071340

>  <Name>
ligand

>  <RI>
0

>  <Rbt.Current_Directory>
/home/itssahil/PROJECTS/Mol_Feturizer/New_Systems/rnas/4XWF

>  <Rbt.Executable>
rbdock ($Id: //depot/dev/client3/rdock/2013.1/src/exe/rbdock.cxx#4 $)

>  <Rbt.Library>
libRbt.so (2013.1, Build901 2013/11/27)

>  <Rbt.Parameter_File>
/export/apps/rDock/src/rDock_2013.1_src/data/scripts/dock_solv.prm

>  <Rbt.Receptor>
prm/pocket_docking_5.prm

>  <SCORE>
-8.20903

>  <SCORE.INTER>
-7.32579

>  <SCORE.INTER.CONST>
1

>  <SCORE.INTER.POLAR>
0

>  <SCORE.INTER.ROT>
5

>  <SCORE.INTER.SOLV>
8.78951

>  <SCORE.INTER.VDW>
-14.747

>  <SCORE.INTER.norm>
-0.332991

>  <SCORE.INTRA>
-0.883238

>  <SCORE.INTRA.DIHEDRAL>
-1.23202

>  <SCORE.INTRA.DIHEDRAL.0>
3.49807

>  <SCORE.INTRA.POLAR>
0

>  <SCORE.INTRA.POLAR.0>
0

>  <SCORE.INTRA.REPUL>
0

>  <SCORE.INTRA.REPUL.0>
0

>  <SCORE.INTRA.SOLV>
0.278169

>  <SCORE.INTRA.SOLV.lig_0>
-73.062

>  <SCORE.INTRA.VDW>
-0.406312

>  <SCORE.INTRA.VDW.0>
-1.83782

>  <SCORE.INTRA.norm>
-0.0401472

>  <SCORE.RESTR>
0

>  <SCORE.RESTR.CAVITY>
0

>  <SCORE.RESTR.norm>
0

>  <SCORE.SYSTEM>
0

>  <SCORE.SYSTEM.CONST>
0

>  <SCORE.SYSTEM.DIHEDRAL>
0

>  <SCORE.SYSTEM.SOLV>
0

>  <SCORE.SYSTEM.norm>
0

>  <SCORE.heavy>
22

>  <SCORE.norm>
-0.373138

>  <RMSD>
6.304

$$$$
ligand
 OpenBabel11021811513D
libRbt.so/2013.1/901 2013/11/27
 22 23  0  0  0  0  0  0  0  0999 V2000
  -30.0940    3.9969   -9.3970 N   0  0  0  0  0  0  0  0  0  0  0  0
  -31.1897    0.9445  -10.3638 C   0  0  1  0  0  0  0  0  0  0  0  0
  -30.2663    1.7007   -9.5300 O   0  0  0  0  0  0  0  0  0  0  0  0
  -28.3179    0.7134  -12.7728 P   0  0  1  0  0  0  0  0  0  0  0  0
  -30.9171    2.9203   -9.1386 C   0  0  2  0  0  0  0  0  0  0  0  0
  -28.6338    5.2788  -10.3644 N   0  0  0  0  0  0  0  0  0  0  0  0
  -33.0867    3.8593   -9.4664 O   0  0  0  0  0  0  0  0  0  0  0  0
  -32.0691    3.0441  -10.0596 C   0  0  2  0  0  0  0  0  0  0  0  0
  -29.5714    8.3685   -9.1528 N   0  0  0  0  0  0  0  0  0  0  0  0
  -33.1717    1.1553   -9.1303 O   0  0  0  0  0  0  0  0  0  0  0  0
  -32.4800    1.6635  -10.2834 C   0  0  2  0  0  0  0  0  0  0  0  0
  -29.1261    5.9326   -9.3010 C   0  0  0  0  0  0  0  0  0  0  0  0
  -30.8156    5.4554   -7.5455 N   0  0  0  0  0  0  0  0  0  0  0  0
  -29.3654    0.4169  -11.6444 O   0  0  0  0  0  0  0  0  0  0  0  0
  -30.6415    0.9595  -11.7492 C   0  0  0  0  0  0  0  0  0  0  0  0
  -29.1849    0.6867  -14.0835 O   0  0  0  0  0  0  0  0  0  0  0  0
  -29.2326    4.0737  -10.4181 C   0  0  0  0  0  0  0  0  0  0  0  0
  -27.6755    7.4703   -8.2673 O   0  0  0  0  0  0  0  0  0  0  0  0
  -28.7353    7.2862   -8.8657 C   0  0  0  0  0  0  0  0  0  0  0  0
  -30.0485    5.1329   -8.6884 C   0  0  0  0  0  0  0  0  0  0  0  0
  -27.6432    2.0170  -12.5021 O   0  5  0  0  0  0  0  0  0  0  0  0
  -27.1853   -0.2267  -12.6942 O   0  0  0  0  0  0  0  0  0  0  0  0
  1 17  1  0  0  0  0
  1 20  1  0  0  0  0
  2 15  1  6  0  0  0
  2  3  1  0  0  0  0
  2 11  1  0  0  0  0
  3  5  1  0  0  0  0
  4 16  1  6  0  0  0
  4 21  1  0  0  0  0
  4 22  2  0  0  0  0
  4 14  1  0  0  0  0
  5  1  1  6  0  0  0
  5  8  1  0  0  0  0
  6 17  2  0  0  0  0
  6 12  1  0  0  0  0
  8  7  1  1  0  0  0
  8 11  1  0  0  0  0
  9 19  1  0  0  0  0
 11 10  1  1  0  0  0
 12 20  2  0  0  0  0
 12 19  1  0  0  0  0
 13 20  1  0  0  0  0
 14 15  1  0  0  0  0
 18 19  2  0  0  0  0
M  CHG  1  21  -1
M  END
>  <CHROM.1>
33.13256209,57.15921267,-37.73950864,-159.28005171,101.99594190,-29.87268001
3.07866035,-10.43493122,1.65258673,0.46703142,0.51802259

>  <Name>
ligand

>  <RI>
0

>  <Rbt.Current_Directory>
/home/itssahil/PROJECTS/Mol_Feturizer/New_Systems/rnas/4XWF

>  <Rbt.Executable>
rbdock ($Id: //depot/dev/client3/rdock/2013.1/src/exe/rbdock.cxx#4 $)

>  <Rbt.Library>
libRbt.so (2013.1, Build901 2013/11/27)

>  <Rbt.Parameter_File>
/export/apps/rDock/src/rDock_2013.1_src/data/scripts/dock_solv.prm

>  <Rbt.Receptor>
prm/pocket_docking_4.prm

>  <SCORE>
-6.87267

>  <SCORE.INTER>
-7.26933

>  <SCORE.INTER.CONST>
1

>  <SCORE.INTER.POLAR>
0

>  <SCORE.INTER.ROT>
5

>  <SCORE.INTER.SOLV>
8.94828

>  <SCORE.INTER.VDW>
-14.7623

>  <SCORE.INTER.norm>
-0.330424

>  <SCORE.INTRA>
0.396664

>  <SCORE.INTRA.DIHEDRAL>
0.891559

>  <SCORE.INTRA.DIHEDRAL.0>
3.49807

>  <SCORE.INTRA.POLAR>
0

>  <SCORE.INTRA.POLAR.0>
0

>  <SCORE.INTRA.REPUL>
0

>  <SCORE.INTRA.REPUL.0>
0

>  <SCORE.INTRA.SOLV>
0.402867

>  <SCORE.INTRA.SOLV.lig_0>
-73.062

>  <SCORE.INTRA.VDW>
-0.250549

>  <SCORE.INTRA.VDW.0>
-1.83782

>  <SCORE.INTRA.norm>
0.0180302

>  <SCORE.RESTR>
0

>  <SCORE.RESTR.CAVITY>
0

>  <SCORE.RESTR.norm>
0

>  <SCORE.SYSTEM>
0

>  <SCORE.SYSTEM.CONST>
0

>  <SCORE.SYSTEM.DIHEDRAL>
0

>  <SCORE.SYSTEM.SOLV>
0

>  <SCORE.SYSTEM.norm>
0

>  <SCORE.heavy>
22

>  <SCORE.norm>
-0.312394

>  <RMSD>
6.354

$$$$
ligand
 OpenBabel11021811513D
libRbt.so/2013.1/901 2013/11/27
 22 23  0  0  0  0  0  0  0  0999 V2000
  -32.4505    5.2019   -8.3571 N   0  0  0  0  0  0  0  0  0  0  0  0
  -29.5806    4.0155   -9.7021 C   0  0  1  0  0  0  0  0  0  0  0  0
  -30.5804    5.0740   -9.7011 O   0  0  0  0  0  0  0  0  0  0  0  0
  -29.3610    0.6502  -11.4281 P   0  0  1  0  0  0  0  0  0  0  0  0
  -31.0710    5.2212   -8.3588 C   0  0  2  0  0  0  0  0  0  0  0  0
  -34.4956    4.6140   -8.7844 N   0  0  0  0  0  0  0  0  0  0  0  0
  -30.5542    4.2272   -6.2515 O   0  0  0  0  0  0  0  0  0  0  0  0
  -30.6347    3.9905   -7.6619 C   0  0  2  0  0  0  0  0  0  0  0  0
  -36.7836    5.4188   -6.9012 N   0  0  0  0  0  0  0  0  0  0  0  0
  -28.3370    4.5817   -7.7975 O   0  0  0  0  0  0  0  0  0  0  0  0
  -29.3504    3.6831   -8.2792 C   0  0  2  0  0  0  0  0  0  0  0  0
  -34.5261    5.6295   -7.9079 C   0  0  0  0  0  0  0  0  0  0  0  0
  -32.8348    7.0210   -6.7388 N   0  0  0  0  0  0  0  0  0  0  0  0
  -29.0914    2.0191  -10.7125 O   0  0  0  0  0  0  0  0  0  0  0  0
  -30.1637    2.8630  -10.4449 C   0  0  0  0  0  0  0  0  0  0  0  0
  -30.1737   -0.1618  -10.3553 O   0  0  0  0  0  0  0  0  0  0  0  0
  -33.2047    4.3544   -9.0666 C   0  0  0  0  0  0  0  0  0  0  0  0
  -35.8513    7.4644   -7.2641 O   0  0  0  0  0  0  0  0  0  0  0  0
  -35.7421    6.2407   -7.3400 C   0  0  0  0  0  0  0  0  0  0  0  0
  -33.2418    6.0033   -7.6316 C   0  0  0  0  0  0  0  0  0  0  0  0
  -30.0899    0.8878  -12.7088 O   0  5  0  0  0  0  0  0  0  0  0  0
  -28.1015    0.0564  -11.9114 O   0  0  0  0  0  0  0  0  0  0  0  0
  1 17  1  0  0  0  0
  1 20  1  0  0  0  0
  2 15  1  6  0  0  0
  2  3  1  0  0  0  0
  2 11  1  0  0  0  0
  3  5  1  0  0  0  0
  4 16  1  1  0  0  0
  4 21  1  0  0  0  0
  4 22  2  0  0  0  0
  4 14  1  0  0  0  0
  5  1  1  6  0  0  0
  5  8  1  0  0  0  0
  6 17  2  0  0  0  0
  6 12  1  0  0  0  0
  8  7  1  1  0  0  0
  8 11  1  0  0  0  0
  9 19  1  0  0  0  0
 11 10  1  1  0  0  0
 12 20  2  0  0  0  0
 12 19  1  0  0  0  0
 13 20  1  0  0  0  0
 14 15  1  0  0  0  0
 18 19  2  0  0  0  0
M  CHG  1  21  -1
M  END
>  <CHROM.1>
43.12805374,165.67922223,-67.39074668,176.79372984,43.79524426,-31.42197852
3.78414759,-9.06961516,-2.28650220,0.12143910,-2.39480463

>  <Name>
ligand

>  <RI>
0

>  <Rbt.Current_Directory>
/home/itssahil/PROJECTS/Mol_Feturizer/New_Systems/rnas/4XWF

>  <Rbt.Executable>
rbdock ($Id: //depot/dev/client3/rdock/2013.1/src/exe/rbdock.cxx#4 $)

>  <Rbt.Library>
libRbt.so (2013.1, Build901 2013/11/27)

>  <Rbt.Parameter_File>
/export/apps/rDock/src/rDock_2013.1_src/data/scripts/dock_solv.prm

>  <Rbt.Receptor>
prm/pocket_docking_6.prm

>  <SCORE>
-7.26379

>  <SCORE.INTER>
-6.85433

>  <SCORE.INTER.CONST>
1

>  <SCORE.INTER.POLAR>
0

>  <SCORE.INTER.ROT>
5

>  <SCORE.INTER.SOLV>
15.8218

>  <SCORE.INTER.VDW>
-16.7768

>  <SCORE.INTER.norm>
-0.311561

>  <SCORE.INTRA>
-0.409461

>  <SCORE.INTRA.DIHEDRAL>
0.216825

>  <SCORE.INTRA.DIHEDRAL.0>
3.49807

>  <SCORE.INTRA.POLAR>
0

>  <SCORE.INTRA.POLAR.0>
0

>  <SCORE.INTRA.REPUL>
0

>  <SCORE.INTRA.REPUL.0>
0

>  <SCORE.INTRA.SOLV>
-0.527153

>  <SCORE.INTRA.SOLV.lig_0>
-73.062

>  <SCORE.INTRA.VDW>
-0.254297

>  <SCORE.INTRA.VDW.0>
-1.83782

>  <SCORE.INTRA.norm>
-0.0186119

>  <SCORE.RESTR>
0

>  <SCORE.RESTR.CAVITY>
0

>  <SCORE.RESTR.norm>
0

>  <SCORE.SYSTEM>
0

>  <SCORE.SYSTEM.CONST>
0

>  <SCORE.SYSTEM.DIHEDRAL>
0

>  <SCORE.SYSTEM.SOLV>
0

>  <SCORE.SYSTEM.norm>
0

>  <SCORE.heavy>
22

>  <SCORE.norm>
-0.330172

>  <RMSD>
6.357

$$$$
ligand
 OpenBabel11021811513D
libRbt.so/2013.1/901 2013/11/27
 22 23  0  0  0  0  0  0  0  0999 V2000
  -30.0567    4.0739   -9.3399 N   0  0  0  0  0  0  0  0  0  0  0  0
  -31.1023    0.9980  -10.2874 C   0  0  1  0  0  0  0  0  0  0  0  0
  -30.1974    1.7745   -9.4519 O   0  0  0  0  0  0  0  0  0  0  0  0
  -28.2336    0.6062  -12.6803 P   0  0  1  0  0  0  0  0  0  0  0  0
  -30.8682    2.9892   -9.0791 C   0  0  2  0  0  0  0  0  0  0  0  0
  -28.5995    5.3631  -10.3020 N   0  0  0  0  0  0  0  0  0  0  0  0
  -33.0465    3.8959   -9.4379 O   0  0  0  0  0  0  0  0  0  0  0  0
  -32.0123    3.0886  -10.0128 C   0  0  2  0  0  0  0  0  0  0  0  0
  -29.5927    8.4587   -9.1701 N   0  0  0  0  0  0  0  0  0  0  0  0
  -33.0993    1.1945   -9.0758 O   0  0  0  0  0  0  0  0  0  0  0  0
  -32.4027    1.7005  -10.2269 C   0  0  2  0  0  0  0  0  0  0  0  0
  -29.1192    6.0251   -9.2569 C   0  0  0  0  0  0  0  0  0  0  0  0
  -30.8308    5.5487   -7.5229 N   0  0  0  0  0  0  0  0  0  0  0  0
  -29.3104    0.3656  -11.5662 O   0  0  0  0  0  0  0  0  0  0  0  0
  -30.5403    1.0067  -11.6673 C   0  0  0  0  0  0  0  0  0  0  0  0
  -29.0787    0.5925  -14.0055 O   0  0  0  0  0  0  0  0  0  0  0  0
  -29.1794    4.1486  -10.3475 C   0  0  0  0  0  0  0  0  0  0  0  0
  -27.7176    7.5970   -8.2072 O   0  0  0  0  0  0  0  0  0  0  0  0
  -28.7557    7.3908   -8.8356 C   0  0  0  0  0  0  0  0  0  0  0  0
  -30.0399    5.2209   -8.6478 C   0  0  0  0  0  0  0  0  0  0  0  0
  -27.5153    1.8878  -12.4163 O   0  5  0  0  0  0  0  0  0  0  0  0
  -27.1384   -0.3740  -12.5686 O   0  0  0  0  0  0  0  0  0  0  0  0
  1 17  1  0  0  0  0
  1 20  1  0  0  0  0
  2 15  1  6  0  0  0
  2  3  1  0  0  0  0
  2 11  1  0  0  0  0
  3  5  1  0  0  0  0
  4 16  1  6  0  0  0
  4 21  1  0  0  0  0
  4 22  2  0  0  0  0
  4 14  1  0  0  0  0
  5  1  1  6  0  0  0
  5  8  1  0  0  0  0
  6 17  2  0  0  0  0
  6 12  1  0  0  0  0
  8  7  1  1  0  0  0
  8 11  1  0  0  0  0
  9 19  1  0  0  0  0
 11 10  1  1  0  0  0
 12 20  2  0  0  0  0
 12 19  1  0  0  0  0
 13 20  1  0  0  0  0
 14 15  1  0  0  0  0
 18 19  2  0  0  0  0
M  CHG  1  21  -1
M  END
>  <CHROM.1>
32.64205938,62.69418617,-40.89596099,-159.48657606,101.04560372,-29.82337509
3.09939320,-10.37256941,1.67372962,0.45758372,0.49248891

>  <Name>
ligand

>  <RI>
0

>  <Rbt.Current_Directory>
/home/itssahil/PROJECTS/Mol_Feturizer/New_Systems/rnas/4XWF

>  <Rbt.Executable>
rbdock ($Id: //depot/dev/client3/rdock/2013.1/src/exe/rbdock.cxx#4 $)

>  <Rbt.Library>
libRbt.so (2013.1, Build901 2013/11/27)

>  <Rbt.Parameter_File>
/export/apps/rDock/src/rDock_2013.1_src/data/scripts/dock_solv.prm

>  <Rbt.Receptor>
prm/pocket_docking_4.prm

>  <SCORE>
-6.88188

>  <SCORE.INTER>
-7.06377

>  <SCORE.INTER.CONST>
1

>  <SCORE.INTER.POLAR>
0

>  <SCORE.INTER.ROT>
5

>  <SCORE.INTER.SOLV>
8.37421

>  <SCORE.INTER.VDW>
-14.4339

>  <SCORE.INTER.norm>
-0.321081

>  <SCORE.INTRA>
0.181892

>  <SCORE.INTRA.DIHEDRAL>
0.730869

>  <SCORE.INTRA.DIHEDRAL.0>
3.49807

>  <SCORE.INTRA.POLAR>
0

>  <SCORE.INTRA.POLAR.0>
0

>  <SCORE.INTRA.REPUL>
0

>  <SCORE.INTRA.REPUL.0>
0

>  <SCORE.INTRA.SOLV>
0.330209

>  <SCORE.INTRA.SOLV.lig_0>
-73.062

>  <SCORE.INTRA.VDW>
-0.348647

>  <SCORE.INTRA.VDW.0>
-1.83782

>  <SCORE.INTRA.norm>
0.00826783

>  <SCORE.RESTR>
0

>  <SCORE.RESTR.CAVITY>
0

>  <SCORE.RESTR.norm>
0

>  <SCORE.SYSTEM>
0

>  <SCORE.SYSTEM.CONST>
0

>  <SCORE.SYSTEM.DIHEDRAL>
0

>  <SCORE.SYSTEM.SOLV>
0

>  <SCORE.SYSTEM.norm>
0

>  <SCORE.heavy>
22

>  <SCORE.norm>
-0.312813

>  <RMSD>
6.360

$$$$
ligand
 OpenBabel11021811513D
libRbt.so/2013.1/901 2013/11/27
 22 23  0  0  0  0  0  0  0  0999 V2000
  -30.0852    4.0409   -9.3576 N   0  0  0  0  0  0  0  0  0  0  0  0
  -31.1557    0.9652  -10.2776 C   0  0  1  0  0  0  0  0  0  0  0  0
  -30.2567    1.7422   -9.4362 O   0  0  0  0  0  0  0  0  0  0  0  0
  -28.2375    0.5460  -12.6083 P   0  0  1  0  0  0  0  0  0  0  0  0
  -30.9172    2.9720   -9.0963 C   0  0  2  0  0  0  0  0  0  0  0  0
  -28.6047    5.3021  -10.3211 N   0  0  0  0  0  0  0  0  0  0  0  0
  -33.0747    3.9034   -9.5133 O   0  0  0  0  0  0  0  0  0  0  0  0
  -32.0409    3.0726  -10.0544 C   0  0  2  0  0  0  0  0  0  0  0  0
  -29.5937    8.3983   -9.0754 N   0  0  0  0  0  0  0  0  0  0  0  0
  -33.1736    1.2092   -9.1100 O   0  0  0  0  0  0  0  0  0  0  0  0
  -32.4468    1.6868  -10.2545 C   0  0  2  0  0  0  0  0  0  0  0  0
  -29.1097    5.9734   -9.2747 C   0  0  0  0  0  0  0  0  0  0  0  0
  -30.8275    5.5291   -7.5382 N   0  0  0  0  0  0  0  0  0  0  0  0
  -29.3268    0.3300  -11.5014 O   0  0  0  0  0  0  0  0  0  0  0  0
  -30.5662    0.9439  -11.6458 C   0  0  0  0  0  0  0  0  0  0  0  0
  -29.0723    0.5375  -13.9400 O   0  0  0  0  0  0  0  0  0  0  0  0
  -29.2083    4.0992  -10.3666 C   0  0  0  0  0  0  0  0  0  0  0  0
  -27.6266    7.5326   -8.3225 O   0  0  0  0  0  0  0  0  0  0  0  0
  -28.7190    7.3314   -8.8530 C   0  0  0  0  0  0  0  0  0  0  0  0
  -30.0449    5.1868   -8.6647 C   0  0  0  0  0  0  0  0  0  0  0  0
  -27.5006    1.8174  -12.3467 O   0  5  0  0  0  0  0  0  0  0  0  0
  -27.1593   -0.4511  -12.4818 O   0  0  0  0  0  0  0  0  0  0  0  0
  1 17  1  0  0  0  0
  1 20  1  0  0  0  0
  2 15  1  6  0  0  0
  2  3  1  0  0  0  0
  2 11  1  0  0  0  0
  3  5  1  0  0  0  0
  4 16  1  6  0  0  0
  4 21  1  0  0  0  0
  4 22  2  0  0  0  0
  4 14  1  0  0  0  0
  5  1  1  6  0  0  0
  5  8  1  0  0  0  0
  6 17  2  0  0  0  0
  6 12  1  0  0  0  0
  8  7  1  1  0  0  0
  8 11  1  0  0  0  0
  9 19  1  0  0  0  0
 11 10  1  1  0  0  0
 12 20  2  0  0  0  0
 12 19  1  0  0  0  0
 13 20  1  0  0  0  0
 14 15  1  0  0  0  0
 18 19  2  0  0  0  0
M  CHG  1  21  -1
M  END
>  <CHROM.1>
34.24071478,60.62855262,-38.12414270,-160.12980525,106.96370976,-29.83687709
3.05818178,-10.36492950,1.66667460,0.43293047,0.48582759

>  <Name>
ligand

>  <RI>
0

>  <Rbt.Current_Directory>
/home/itssahil/PROJECTS/Mol_Feturizer/New_Systems/rnas/4XWF

>  <Rbt.Executable>
rbdock ($Id: //depot/dev/client3/rdock/2013.1/src/exe/rbdock.cxx#4 $)

>  <Rbt.Library>
libRbt.so (2013.1, Build901 2013/11/27)

>  <Rbt.Parameter_File>
/export/apps/rDock/src/rDock_2013.1_src/data/scripts/dock_solv.prm

>  <Rbt.Receptor>
prm/pocket_docking_4.prm

>  <SCORE>
-6.93437

>  <SCORE.INTER>
-7.10188

>  <SCORE.INTER.CONST>
1

>  <SCORE.INTER.POLAR>
0

>  <SCORE.INTER.ROT>
5

>  <SCORE.INTER.SOLV>
8.67016

>  <SCORE.INTER.VDW>
-14.558

>  <SCORE.INTER.norm>
-0.322813

>  <SCORE.INTRA>
0.167506

>  <SCORE.INTRA.DIHEDRAL>
0.557496

>  <SCORE.INTRA.DIHEDRAL.0>
3.49807

>  <SCORE.INTRA.POLAR>
0

>  <SCORE.INTRA.POLAR.0>
0

>  <SCORE.INTRA.REPUL>
0

>  <SCORE.INTRA.REPUL.0>
0

>  <SCORE.INTRA.SOLV>
0.288436

>  <SCORE.INTRA.SOLV.lig_0>
-73.062

>  <SCORE.INTRA.VDW>
-0.25546

>  <SCORE.INTRA.VDW.0>
-1.83782

>  <SCORE.INTRA.norm>
0.00761389

>  <SCORE.RESTR>
0

>  <SCORE.RESTR.CAVITY>
0

>  <SCORE.RESTR.norm>
0

>  <SCORE.SYSTEM>
0

>  <SCORE.SYSTEM.CONST>
0

>  <SCORE.SYSTEM.DIHEDRAL>
0

>  <SCORE.SYSTEM.SOLV>
0

>  <SCORE.SYSTEM.norm>
0

>  <SCORE.heavy>
22

>  <SCORE.norm>
-0.315199

>  <RMSD>
6.371

$$$$
ligand
 OpenBabel11021811513D
libRbt.so/2013.1/901 2013/11/27
 22 23  0  0  0  0  0  0  0  0999 V2000
  -28.3418    3.3078  -11.5700 N   0  0  0  0  0  0  0  0  0  0  0  0
  -30.4989    0.7603  -11.0135 C   0  0  1  0  0  0  0  0  0  0  0  0
  -30.1387    1.8907  -11.8575 O   0  0  0  0  0  0  0  0  0  0  0  0
  -32.8289    3.1865   -9.3307 P   0  0  1  0  0  0  0  0  0  0  0  0
  -28.7068    2.0085  -11.8560 C   0  0  2  0  0  0  0  0  0  0  0  0
  -28.2449    5.2461  -10.5980 N   0  0  0  0  0  0  0  0  0  0  0  0
  -26.9090    0.7621  -10.9018 O   0  0  0  0  0  0  0  0  0  0  0  0
  -28.2631    1.1869  -10.7076 C   0  0  2  0  0  0  0  0  0  0  0  0
  -26.5231    7.5471  -11.2567 N   0  0  0  0  0  0  0  0  0  0  0  0
  -28.9487   -0.8421  -11.7371 O   0  0  0  0  0  0  0  0  0  0  0  0
  -29.2233    0.0904  -10.6783 C   0  0  2  0  0  0  0  0  0  0  0  0
  -27.3376    5.2272  -11.5865 C   0  0  0  0  0  0  0  0  0  0  0  0
  -26.5831    3.5726  -13.2766 N   0  0  0  0  0  0  0  0  0  0  0  0
  -32.1999    2.1053  -10.2763 O   0  0  0  0  0  0  0  0  0  0  0  0
  -31.1608    1.3140   -9.7989 C   0  0  0  0  0  0  0  0  0  0  0  0
  -31.7625    4.3411   -9.3463 O   0  0  0  0  0  0  0  0  0  0  0  0
  -28.8717    4.0542  -10.5940 C   0  0  0  0  0  0  0  0  0  0  0  0
  -25.6222    6.2088  -12.8638 O   0  0  0  0  0  0  0  0  0  0  0  0
  -26.4363    6.3365  -11.9494 C   0  0  0  0  0  0  0  0  0  0  0  0
  -27.3905    4.0088  -12.2012 C   0  0  0  0  0  0  0  0  0  0  0  0
  -34.1752    3.5790   -9.8420 O   0  5  0  0  0  0  0  0  0  0  0  0
  -33.1698    2.6009   -8.0217 O   0  0  0  0  0  0  0  0  0  0  0  0
  1 17  1  0  0  0  0
  1 20  1  0  0  0  0
  2 15  1  1  0  0  0
  2  3  1  0  0  0  0
  2 11  1  0  0  0  0
  3  5  1  0  0  0  0
  4 16  1  1  0  0  0
  4 21  1  0  0  0  0
  4 22  2  0  0  0  0
  4 14  1  0  0  0  0
  5  1  1  1  0  0  0
  5  8  1  0  0  0  0
  6 17  2  0  0  0  0
  6 12  1  0  0  0  0
  8  7  1  6  0  0  0
  8 11  1  0  0  0  0
  9 19  1  0  0  0  0
 11 10  1  6  0  0  0
 12 20  2  0  0  0  0
 12 19  1  0  0  0  0
 13 20  1  0  0  0  0
 14 15  1  0  0  0  0
 18 19  2  0  0  0  0
M  CHG  1  21  -1
M  END
>  <CHROM.1>
45.21612181,54.65717412,76.66422359,-161.12445761,-1.95958498,-29.52486023
3.07289832,-10.84855397,-0.37136768,-0.43245633,-3.05989403

>  <Name>
ligand

>  <RI>
0

>  <Rbt.Current_Directory>
/home/itssahil/PROJECTS/Mol_Feturizer/New_Systems/rnas/4XWF

>  <Rbt.Executable>
rbdock ($Id: //depot/dev/client3/rdock/2013.1/src/exe/rbdock.cxx#4 $)

>  <Rbt.Library>
libRbt.so (2013.1, Build901 2013/11/27)

>  <Rbt.Parameter_File>
/export/apps/rDock/src/rDock_2013.1_src/data/scripts/dock_solv.prm

>  <Rbt.Receptor>
prm/pocket_docking_3.prm

>  <SCORE>
-5.41683

>  <SCORE.INTER>
-4.72537

>  <SCORE.INTER.CONST>
1

>  <SCORE.INTER.POLAR>
0

>  <SCORE.INTER.ROT>
5

>  <SCORE.INTER.SOLV>
15.4984

>  <SCORE.INTER.VDW>
-15.2497

>  <SCORE.INTER.norm>
-0.21479

>  <SCORE.INTRA>
-0.692334

>  <SCORE.INTRA.DIHEDRAL>
0.0694369

>  <SCORE.INTRA.DIHEDRAL.0>
3.49807

>  <SCORE.INTRA.POLAR>
0

>  <SCORE.INTRA.POLAR.0>
0

>  <SCORE.INTRA.REPUL>
0

>  <SCORE.INTRA.REPUL.0>
0

>  <SCORE.INTRA.SOLV>
-0.394985

>  <SCORE.INTRA.SOLV.lig_0>
-73.062

>  <SCORE.INTRA.VDW>
-0.52956

>  <SCORE.INTRA.VDW.0>
-1.83782

>  <SCORE.INTRA.norm>
-0.0314697

>  <SCORE.RESTR>
0.000873669

>  <SCORE.RESTR.CAVITY>
0.000873669

>  <SCORE.RESTR.norm>
3.97122e-05

>  <SCORE.SYSTEM>
0

>  <SCORE.SYSTEM.CONST>
0

>  <SCORE.SYSTEM.DIHEDRAL>
0

>  <SCORE.SYSTEM.SOLV>
0

>  <SCORE.SYSTEM.norm>
0

>  <SCORE.heavy>
22

>  <SCORE.norm>
-0.24622

>  <RMSD>
6.380

$$$$
ligand
 OpenBabel11021811513D
libRbt.so/2013.1/901 2013/11/27
 22 23  0  0  0  0  0  0  0  0999 V2000
  -28.9305    3.5275  -10.5473 N   0  0  0  0  0  0  0  0  0  0  0  0
  -30.5769    0.7547  -11.5736 C   0  0  1  0  0  0  0  0  0  0  0  0
  -29.9521    2.0131  -11.9554 O   0  0  0  0  0  0  0  0  0  0  0  0
  -32.8505    2.4824   -9.0830 P   0  0  1  0  0  0  0  0  0  0  0  0
  -28.8503    2.2511  -11.0644 C   0  0  2  0  0  0  0  0  0  0  0  0
  -29.7181    5.3073   -9.5865 N   0  0  0  0  0  0  0  0  0  0  0  0
  -27.8366    1.0471   -9.2704 O   0  0  0  0  0  0  0  0  0  0  0  0
  -29.0763    1.3258   -9.9315 C   0  0  2  0  0  0  0  0  0  0  0  0
  -28.0427    7.5529   -8.5001 N   0  0  0  0  0  0  0  0  0  0  0  0
  -28.6889   -0.6004  -11.2681 O   0  0  0  0  0  0  0  0  0  0  0  0
  -29.6826    0.1574  -10.5578 C   0  0  2  0  0  0  0  0  0  0  0  0
  -28.4259    5.5244   -9.8758 C   0  0  0  0  0  0  0  0  0  0  0  0
  -26.5929    4.2152  -10.9197 N   0  0  0  0  0  0  0  0  0  0  0  0
  -31.6533    1.9609   -9.9510 O   0  0  0  0  0  0  0  0  0  0  0  0
  -31.9117    1.0849  -10.9997 C   0  0  0  0  0  0  0  0  0  0  0  0
  -33.3148    1.1988   -8.3036 O   0  0  0  0  0  0  0  0  0  0  0  0
  -30.0306    4.0679  -10.0104 C   0  0  0  0  0  0  0  0  0  0  0  0
  -26.7443    7.1100  -10.3177 O   0  0  0  0  0  0  0  0  0  0  0  0
  -27.6763    6.7624   -9.5927 C   0  0  0  0  0  0  0  0  0  0  0  0
  -27.9222    4.4070  -10.4783 C   0  0  0  0  0  0  0  0  0  0  0  0
  -32.3888    3.6033   -8.2122 O   0  5  0  0  0  0  0  0  0  0  0  0
  -33.8523    3.1581   -9.9271 O   0  0  0  0  0  0  0  0  0  0  0  0
  1 17  1  0  0  0  0
  1 20  1  0  0  0  0
  2 15  1  1  0  0  0
  2  3  1  0  0  0  0
  2 11  1  0  0  0  0
  3  5  1  0  0  0  0
  4 16  1  1  0  0  0
  4 21  1  0  0  0  0
  4 22  2  0  0  0  0
  4 14  1  0  0  0  0
  5  1  1  1  0  0  0
  5  8  1  0  0  0  0
  6 17  2  0  0  0  0
  6 12  1  0  0  0  0
  8  7  1  6  0  0  0
  8 11  1  0  0  0  0
  9 19  1  0  0  0  0
 11 10  1  6  0  0  0
 12 20  2  0  0  0  0
 12 19  1  0  0  0  0
 13 20  1  0  0  0  0
 14 15  1  0  0  0  0
 18 19  2  0  0  0  0
M  CHG  1  21  -1
M  END
>  <CHROM.1>
48.61510247,-56.87251971,68.92474965,-178.02747750,29.26968891,-29.99063515
3.03922307,-10.02083191,-0.75166106,-0.30241258,-2.84664391

>  <Name>
ligand

>  <RI>
0

>  <Rbt.Current_Directory>
/home/itssahil/PROJECTS/Mol_Feturizer/New_Systems/rnas/4XWF

>  <Rbt.Executable>
rbdock ($Id: //depot/dev/client3/rdock/2013.1/src/exe/rbdock.cxx#4 $)

>  <Rbt.Library>
libRbt.so (2013.1, Build901 2013/11/27)

>  <Rbt.Parameter_File>
/export/apps/rDock/src/rDock_2013.1_src/data/scripts/dock_solv.prm

>  <Rbt.Receptor>
prm/pocket_docking_3.prm

>  <SCORE>
-4.1904

>  <SCORE.INTER>
-4.69023

>  <SCORE.INTER.CONST>
1

>  <SCORE.INTER.POLAR>
0

>  <SCORE.INTER.ROT>
5

>  <SCORE.INTER.SOLV>
13.148

>  <SCORE.INTER.VDW>
-14.4428

>  <SCORE.INTER.norm>
-0.213192

>  <SCORE.INTRA>
0.499831

>  <SCORE.INTRA.DIHEDRAL>
-1.03524

>  <SCORE.INTRA.DIHEDRAL.0>
3.49807

>  <SCORE.INTRA.POLAR>
0

>  <SCORE.INTRA.POLAR.0>
0

>  <SCORE.INTRA.REPUL>
0

>  <SCORE.INTRA.REPUL.0>
0

>  <SCORE.INTRA.SOLV>
1.15296

>  <SCORE.INTRA.SOLV.lig_0>
-73.062

>  <SCORE.INTRA.VDW>
0.440969

>  <SCORE.INTRA.VDW.0>
-1.83782

>  <SCORE.INTRA.norm>
0.0227196

>  <SCORE.RESTR>
0

>  <SCORE.RESTR.CAVITY>
0

>  <SCORE.RESTR.norm>
0

>  <SCORE.SYSTEM>
0

>  <SCORE.SYSTEM.CONST>
0

>  <SCORE.SYSTEM.DIHEDRAL>
0

>  <SCORE.SYSTEM.SOLV>
0

>  <SCORE.SYSTEM.norm>
0

>  <SCORE.heavy>
22

>  <SCORE.norm>
-0.190473

>  <RMSD>
6.391

$$$$
ligand
 OpenBabel11021811513D
libRbt.so/2013.1/901 2013/11/27
 22 23  0  0  0  0  0  0  0  0999 V2000
  -29.0197    3.5313  -10.4904 N   0  0  0  0  0  0  0  0  0  0  0  0
  -30.8573    0.8095  -11.3077 C   0  0  1  0  0  0  0  0  0  0  0  0
  -30.1715    2.0042  -11.7793 O   0  0  0  0  0  0  0  0  0  0  0  0
  -32.9497    2.8558   -8.9015 P   0  0  1  0  0  0  0  0  0  0  0  0
  -29.0308    2.2251  -10.9342 C   0  0  2  0  0  0  0  0  0  0  0  0
  -29.6674    5.4033   -9.6032 N   0  0  0  0  0  0  0  0  0  0  0  0
  -28.0349    1.0654   -9.1013 O   0  0  0  0  0  0  0  0  0  0  0  0
  -29.2759    1.3808   -9.7434 C   0  0  2  0  0  0  0  0  0  0  0  0
  -28.0889    7.8469   -9.1174 N   0  0  0  0  0  0  0  0  0  0  0  0
  -29.0438   -0.6380  -10.9754 O   0  0  0  0  0  0  0  0  0  0  0  0
  -29.9689    0.2176  -10.2837 C   0  0  2  0  0  0  0  0  0  0  0  0
  -28.3804    5.5322   -9.9607 C   0  0  0  0  0  0  0  0  0  0  0  0
  -26.6692    4.0669  -11.0039 N   0  0  0  0  0  0  0  0  0  0  0  0
  -31.8140    2.2108   -9.7691 O   0  0  0  0  0  0  0  0  0  0  0  0
  -32.1520    1.2519  -10.7178 C   0  0  0  0  0  0  0  0  0  0  0  0
  -33.9750    3.3692   -9.9765 O   0  0  0  0  0  0  0  0  0  0  0  0
  -30.0638    4.1609   -9.9391 C   0  0  0  0  0  0  0  0  0  0  0  0
  -26.4086    6.7876  -10.2310 O   0  0  0  0  0  0  0  0  0  0  0  0
  -27.5545    6.7410   -9.7841 C   0  0  0  0  0  0  0  0  0  0  0  0
  -27.9646    4.3563  -10.5173 C   0  0  0  0  0  0  0  0  0  0  0  0
  -33.4989    1.8390   -7.9567 O   0  5  0  0  0  0  0  0  0  0  0  0
  -32.3929    3.8533   -7.9701 O   0  0  0  0  0  0  0  0  0  0  0  0
  1 17  1  0  0  0  0
  1 20  1  0  0  0  0
  2 15  1  1  0  0  0
  2  3  1  0  0  0  0
  2 11  1  0  0  0  0
  3  5  1  0  0  0  0
  4 16  1  6  0  0  0
  4 21  1  0  0  0  0
  4 22  2  0  0  0  0
  4 14  1  0  0  0  0
  5  1  1  1  0  0  0
  5  8  1  0  0  0  0
  6 17  2  0  0  0  0
  6 12  1  0  0  0  0
  8  7  1  6  0  0  0
  8 11  1  0  0  0  0
  9 19  1  0  0  0  0
 11 10  1  6  0  0  0
 12 20  2  0  0  0  0
 12 19  1  0  0  0  0
 13 20  1  0  0  0  0
 14 15  1  0  0  0  0
 18 19  2  0  0  0  0
M  CHG  1  21  -1
M  END
>  <CHROM.1>
49.58944153,-54.39525612,-53.13621013,-177.48467947,4.26568468,-30.09532270
3.14730856,-9.92453245,-0.67732885,-0.29929361,-2.89181177

>  <Name>
ligand

>  <RI>
0

>  <Rbt.Current_Directory>
/home/itssahil/PROJECTS/Mol_Feturizer/New_Systems/rnas/4XWF

>  <Rbt.Executable>
rbdock ($Id: //depot/dev/client3/rdock/2013.1/src/exe/rbdock.cxx#4 $)

>  <Rbt.Library>
libRbt.so (2013.1, Build901 2013/11/27)

>  <Rbt.Parameter_File>
/export/apps/rDock/src/rDock_2013.1_src/data/scripts/dock_solv.prm

>  <Rbt.Receptor>
prm/pocket_docking_3.prm

>  <SCORE>
-5.90697

>  <SCORE.INTER>
-6.33677

>  <SCORE.INTER.CONST>
1

>  <SCORE.INTER.POLAR>
0

>  <SCORE.INTER.ROT>
5

>  <SCORE.INTER.SOLV>
9.56088

>  <SCORE.INTER.VDW>
-14.3448

>  <SCORE.INTER.norm>
-0.288035

>  <SCORE.INTRA>
0.429802

>  <SCORE.INTRA.DIHEDRAL>
-1.77438

>  <SCORE.INTRA.DIHEDRAL.0>
3.49807

>  <SCORE.INTRA.POLAR>
0

>  <SCORE.INTRA.POLAR.0>
0

>  <SCORE.INTRA.REPUL>
0

>  <SCORE.INTRA.REPUL.0>
0

>  <SCORE.INTRA.SOLV>
1.20484

>  <SCORE.INTRA.SOLV.lig_0>
-73.062

>  <SCORE.INTRA.VDW>
0.714571

>  <SCORE.INTRA.VDW.0>
-1.83782

>  <SCORE.INTRA.norm>
0.0195365

>  <SCORE.RESTR>
0

>  <SCORE.RESTR.CAVITY>
0

>  <SCORE.RESTR.norm>
0

>  <SCORE.SYSTEM>
0

>  <SCORE.SYSTEM.CONST>
0

>  <SCORE.SYSTEM.DIHEDRAL>
0

>  <SCORE.SYSTEM.SOLV>
0

>  <SCORE.SYSTEM.norm>
0

>  <SCORE.heavy>
22

>  <SCORE.norm>
-0.268499

>  <RMSD>
6.395

$$$$
ligand
 OpenBabel11021811513D
libRbt.so/2013.1/901 2013/11/27
 22 23  0  0  0  0  0  0  0  0999 V2000
  -29.0680    3.5620  -10.4676 N   0  0  0  0  0  0  0  0  0  0  0  0
  -30.9322    0.8429  -11.2314 C   0  0  1  0  0  0  0  0  0  0  0  0
  -30.2367    2.0224  -11.7261 O   0  0  0  0  0  0  0  0  0  0  0  0
  -33.0018    2.9787   -8.8843 P   0  0  1  0  0  0  0  0  0  0  0  0
  -29.0920    2.2481  -10.8876 C   0  0  2  0  0  0  0  0  0  0  0  0
  -29.6935    5.4532   -9.6054 N   0  0  0  0  0  0  0  0  0  0  0  0
  -28.1024    1.1128   -9.0362 O   0  0  0  0  0  0  0  0  0  0  0  0
  -29.3420    1.4279   -9.6812 C   0  0  2  0  0  0  0  0  0  0  0  0
  -28.0822    7.8832   -9.1530 N   0  0  0  0  0  0  0  0  0  0  0  0
  -29.1312   -0.6149  -10.8769 O   0  0  0  0  0  0  0  0  0  0  0  0
  -30.0468    0.2615  -10.1988 C   0  0  2  0  0  0  0  0  0  0  0  0
  -28.4110    5.5686   -9.9828 C   0  0  0  0  0  0  0  0  0  0  0  0
  -26.7220    4.0756  -11.0229 N   0  0  0  0  0  0  0  0  0  0  0  0
  -31.8752    2.3056   -9.7424 O   0  0  0  0  0  0  0  0  0  0  0  0
  -32.2215    1.3077  -10.6468 C   0  0  0  0  0  0  0  0  0  0  0  0
  -34.0525    3.4307   -9.9624 O   0  0  0  0  0  0  0  0  0  0  0  0
  -30.1011    4.2071   -9.9134 C   0  0  0  0  0  0  0  0  0  0  0  0
  -26.4487    6.8199  -10.3307 O   0  0  0  0  0  0  0  0  0  0  0  0
  -27.5765    6.7759   -9.8394 C   0  0  0  0  0  0  0  0  0  0  0  0
  -28.0091    4.3807  -10.5239 C   0  0  0  0  0  0  0  0  0  0  0  0
  -33.5221    2.0017   -7.8830 O   0  5  0  0  0  0  0  0  0  0  0  0
  -32.4390    4.0244   -8.0111 O   0  0  0  0  0  0  0  0  0  0  0  0
  1 17  1  0  0  0  0
  1 20  1  0  0  0  0
  2 15  1  1  0  0  0
  2  3  1  0  0  0  0
  2 11  1  0  0  0  0
  3  5  1  0  0  0  0
  4 16  1  6  0  0  0
  4 21  1  0  0  0  0
  4 22  2  0  0  0  0
  4 14  1  0  0  0  0
  5  1  1  1  0  0  0
  5  8  1  0  0  0  0
  6 17  2  0  0  0  0
  6 12  1  0  0  0  0
  8  7  1  6  0  0  0
  8 11  1  0  0  0  0
  9 19  1  0  0  0  0
 11 10  1  6  0  0  0
 12 20  2  0  0  0  0
 12 19  1  0  0  0  0
 13 20  1  0  0  0  0
 14 15  1  0  0  0  0
 18 19  2  0  0  0  0
M  CHG  1  21  -1
M  END
>  <CHROM.1>
50.28521637,-52.84681611,-52.60660863,-177.12873681,6.03154098,-30.14705567
3.20729770,-9.90351197,-0.66944125,-0.29629643,-2.90976252

>  <Name>
ligand

>  <RI>
0

>  <Rbt.Current_Directory>
/home/itssahil/PROJECTS/Mol_Feturizer/New_Systems/rnas/4XWF

>  <Rbt.Executable>
rbdock ($Id: //depot/dev/client3/rdock/2013.1/src/exe/rbdock.cxx#4 $)

>  <Rbt.Library>
libRbt.so (2013.1, Build901 2013/11/27)

>  <Rbt.Parameter_File>
/export/apps/rDock/src/rDock_2013.1_src/data/scripts/dock_solv.prm

>  <Rbt.Receptor>
prm/pocket_docking_3.prm

>  <SCORE>
-6.00396

>  <SCORE.INTER>
-6.55202

>  <SCORE.INTER.CONST>
1

>  <SCORE.INTER.POLAR>
0

>  <SCORE.INTER.ROT>
5

>  <SCORE.INTER.SOLV>
9.83629

>  <SCORE.INTER.VDW>
-14.5801

>  <SCORE.INTER.norm>
-0.297819

>  <SCORE.INTRA>
0.548063

>  <SCORE.INTRA.DIHEDRAL>
-1.66071

>  <SCORE.INTRA.DIHEDRAL.0>
3.49807

>  <SCORE.INTRA.POLAR>
0

>  <SCORE.INTRA.POLAR.0>
0

>  <SCORE.INTRA.REPUL>
0

>  <SCORE.INTRA.REPUL.0>
0

>  <SCORE.INTRA.SOLV>
1.22156

>  <SCORE.INTRA.SOLV.lig_0>
-73.062

>  <SCORE.INTRA.VDW>
0.76764

>  <SCORE.INTRA.VDW.0>
-1.83782

>  <SCORE.INTRA.norm>
0.024912

>  <SCORE.RESTR>
0

>  <SCORE.RESTR.CAVITY>
0

>  <SCORE.RESTR.norm>
0

>  <SCORE.SYSTEM>
0

>  <SCORE.SYSTEM.CONST>
0

>  <SCORE.SYSTEM.DIHEDRAL>
0

>  <SCORE.SYSTEM.SOLV>
0

>  <SCORE.SYSTEM.norm>
0

>  <SCORE.heavy>
22

>  <SCORE.norm>
-0.272907

>  <RMSD>
6.401

$$$$
ligand
 OpenBabel11021811513D
libRbt.so/2013.1/901 2013/11/27
 22 23  0  0  0  0  0  0  0  0999 V2000
  -26.3171    4.5746   -9.4251 N   0  0  0  0  0  0  0  0  0  0  0  0
  -28.4216    1.9900  -10.0109 C   0  0  1  0  0  0  0  0  0  0  0  0
  -27.2841    2.4879   -9.2507 O   0  0  0  0  0  0  0  0  0  0  0  0
  -26.4823    2.6584  -13.1965 P   0  0  1  0  0  0  0  0  0  0  0  0
  -27.4628    3.9002   -9.0564 C   0  0  2  0  0  0  0  0  0  0  0  0
  -24.4691    5.0756  -10.4473 N   0  0  0  0  0  0  0  0  0  0  0  0
  -29.1689    5.4786   -9.5983 O   0  0  0  0  0  0  0  0  0  0  0  0
  -28.5069    4.2849  -10.0324 C   0  0  2  0  0  0  0  0  0  0  0  0
  -22.9990    7.3352   -8.4023 N   0  0  0  0  0  0  0  0  0  0  0  0
  -30.1926    3.0504   -8.9004 O   0  0  0  0  0  0  0  0  0  0  0  0
  -29.3775    3.1167  -10.0825 C   0  0  2  0  0  0  0  0  0  0  0  0
  -24.7666    6.0768   -9.6049 C   0  0  0  0  0  0  0  0  0  0  0  0
  -26.6010    6.5703   -8.0065 N   0  0  0  0  0  0  0  0  0  0  0  0
  -27.2091    2.7272  -11.8089 O   0  0  0  0  0  0  0  0  0  0  0  0
  -27.9157    1.6162  -11.3617 C   0  0  0  0  0  0  0  0  0  0  0  0
  -25.5015    1.4417  -13.0281 O   0  0  0  0  0  0  0  0  0  0  0  0
  -25.4311    4.1406  -10.3290 C   0  0  0  0  0  0  0  0  0  0  0  0
  -24.1625    8.2946  -10.1087 O   0  0  0  0  0  0  0  0  0  0  0  0
  -23.9694    7.3016   -9.4074 C   0  0  0  0  0  0  0  0  0  0  0  0
  -25.9307    5.7700   -8.9598 C   0  0  0  0  0  0  0  0  0  0  0  0
  -27.4910    2.4954  -14.2845 O   0  5  0  0  0  0  0  0  0  0  0  0
  -25.8866    3.9623  -13.5395 O   0  0  0  0  0  0  0  0  0  0  0  0
  1 17  1  0  0  0  0
  1 20  1  0  0  0  0
  2 15  1  6  0  0  0
  2  3  1  0  0  0  0
  2 11  1  0  0  0  0
  3  5  1  0  0  0  0
  4 16  1  6  0  0  0
  4 21  1  0  0  0  0
  4 22  2  0  0  0  0
  4 14  1  0  0  0  0
  5  1  1  6  0  0  0
  5  8  1  0  0  0  0
  6 17  2  0  0  0  0
  6 12  1  0  0  0  0
  8  7  1  1  0  0  0
  8 11  1  0  0  0  0
  9 19  1  0  0  0  0
 11 10  1  1  0  0  0
 12 20  2  0  0  0  0
 12 19  1  0  0  0  0
 13 20  1  0  0  0  0
 14 15  1  0  0  0  0
 18 19  2  0  0  0  0
M  CHG  1  21  -1
M  END
>  <CHROM.1>
26.92348653,-51.03473984,-58.35615599,177.57251815,-92.30121974,-26.64968797
4.15232874,-10.61756275,0.97005493,0.55144399,0.91418889

>  <Name>
ligand

>  <RI>
0

>  <Rbt.Current_Directory>
/home/itssahil/PROJECTS/Mol_Feturizer/New_Systems/rnas/4XWF

>  <Rbt.Executable>
rbdock ($Id: //depot/dev/client3/rdock/2013.1/src/exe/rbdock.cxx#4 $)

>  <Rbt.Library>
libRbt.so (2013.1, Build901 2013/11/27)

>  <Rbt.Parameter_File>
/export/apps/rDock/src/rDock_2013.1_src/data/scripts/dock_solv.prm

>  <Rbt.Receptor>
prm/pocket_docking_2.prm

>  <SCORE>
8.68185

>  <SCORE.INTER>
7.86827

>  <SCORE.INTER.CONST>
1

>  <SCORE.INTER.POLAR>
0

>  <SCORE.INTER.ROT>
5

>  <SCORE.INTER.SOLV>
1.29324

>  <SCORE.INTER.VDW>
-2.1189

>  <SCORE.INTER.norm>
0.357649

>  <SCORE.INTRA>
0.246422

>  <SCORE.INTRA.DIHEDRAL>
-0.9497

>  <SCORE.INTRA.DIHEDRAL.0>
3.49807

>  <SCORE.INTRA.POLAR>
0

>  <SCORE.INTRA.POLAR.0>
0

>  <SCORE.INTRA.REPUL>
0

>  <SCORE.INTRA.REPUL.0>
0

>  <SCORE.INTRA.SOLV>
1.6886

>  <SCORE.INTRA.SOLV.lig_0>
-73.062

>  <SCORE.INTRA.VDW>
-0.123027

>  <SCORE.INTRA.VDW.0>
-1.83782

>  <SCORE.INTRA.norm>
0.011201

>  <SCORE.RESTR>
0.567159

>  <SCORE.RESTR.CAVITY>
0.567159

>  <SCORE.RESTR.norm>
0.0257799

>  <SCORE.SYSTEM>
0

>  <SCORE.SYSTEM.CONST>
0

>  <SCORE.SYSTEM.DIHEDRAL>
0

>  <SCORE.SYSTEM.SOLV>
0

>  <SCORE.SYSTEM.norm>
0

>  <SCORE.heavy>
22

>  <SCORE.norm>
0.39463

>  <RMSD>
6.412

$$$$
ligand
 OpenBabel11021811513D
libRbt.so/2013.1/901 2013/11/27
 22 23  0  0  0  0  0  0  0  0999 V2000
  -28.6475    3.4832  -10.9731 N   0  0  0  0  0  0  0  0  0  0  0  0
  -30.8180    0.8909  -10.8274 C   0  0  1  0  0  0  0  0  0  0  0  0
  -30.3859    2.0804  -11.5473 O   0  0  0  0  0  0  0  0  0  0  0  0
  -33.1688    3.3250   -9.2150 P   0  0  1  0  0  0  0  0  0  0  0  0
  -28.9637    2.2056  -11.3865 C   0  0  2  0  0  0  0  0  0  0  0  0
  -28.7189    5.3723   -9.9066 N   0  0  0  0  0  0  0  0  0  0  0  0
  -27.2599    0.9043  -10.3377 O   0  0  0  0  0  0  0  0  0  0  0  0
  -28.6323    1.3069  -10.2581 C   0  0  2  0  0  0  0  0  0  0  0  0
  -26.5368    7.1386  -12.0658 N   0  0  0  0  0  0  0  0  0  0  0  0
  -29.1799   -0.6476  -11.4940 O   0  0  0  0  0  0  0  0  0  0  0  0
  -29.5760    0.2058  -10.4072 C   0  0  2  0  0  0  0  0  0  0  0  0
  -27.6404    5.3824  -10.7049 C   0  0  0  0  0  0  0  0  0  0  0  0
  -26.5939    3.7941  -12.3004 N   0  0  0  0  0  0  0  0  0  0  0  0
  -32.5385    2.2518  -10.1688 O   0  0  0  0  0  0  0  0  0  0  0  0
  -31.6107    1.3532   -9.6536 C   0  0  0  0  0  0  0  0  0  0  0  0
  -32.0525    4.4282   -9.1284 O   0  0  0  0  0  0  0  0  0  0  0  0
  -29.3463    4.1933  -10.0798 C   0  0  0  0  0  0  0  0  0  0  0  0
  -25.9859    6.8364   -9.8770 O   0  0  0  0  0  0  0  0  0  0  0  0
  -26.6761    6.4904  -10.8356 C   0  0  0  0  0  0  0  0  0  0  0  0
  -27.5870    4.1949  -11.3775 C   0  0  0  0  0  0  0  0  0  0  0  0
  -34.4664    3.7990   -9.7801 O   0  5  0  0  0  0  0  0  0  0  0  0
  -33.6060    2.7072   -7.9501 O   0  0  0  0  0  0  0  0  0  0  0  0
  1 17  1  0  0  0  0
  1 20  1  0  0  0  0
  2 15  1  1  0  0  0
  2  3  1  0  0  0  0
  2 11  1  0  0  0  0
  3  5  1  0  0  0  0
  4 16  1  1  0  0  0
  4 21  1  0  0  0  0
  4 22  2  0  0  0  0
  4 14  1  0  0  0  0
  5  1  1  1  0  0  0
  5  8  1  0  0  0  0
  6 17  2  0  0  0  0
  6 12  1  0  0  0  0
  8  7  1  6  0  0  0
  8 11  1  0  0  0  0
  9 19  1  0  0  0  0
 11 10  1  6  0  0  0
 12 20  2  0  0  0  0
 12 19  1  0  0  0  0
 13 20  1  0  0  0  0
 14 15  1  0  0  0  0
 18 19  2  0  0  0  0
M  CHG  1  21  -1
M  END
>  <CHROM.1>
39.96830394,50.16653605,79.75235809,-157.19312571,-116.93639161,-29.82976127
3.22121679,-10.37166532,-0.39282293,-0.31969368,-2.98907753

>  <Name>
ligand

>  <RI>
0

>  <Rbt.Current_Directory>
/home/itssahil/PROJECTS/Mol_Feturizer/New_Systems/rnas/4XWF

>  <Rbt.Executable>
rbdock ($Id: //depot/dev/client3/rdock/2013.1/src/exe/rbdock.cxx#4 $)

>  <Rbt.Library>
libRbt.so (2013.1, Build901 2013/11/27)

>  <Rbt.Parameter_File>
/export/apps/rDock/src/rDock_2013.1_src/data/scripts/dock_solv.prm

>  <Rbt.Receptor>
prm/pocket_docking_3.prm

>  <SCORE>
-5.34166

>  <SCORE.INTER>
-5.14288

>  <SCORE.INTER.CONST>
1

>  <SCORE.INTER.POLAR>
0

>  <SCORE.INTER.ROT>
5

>  <SCORE.INTER.SOLV>
17.2323

>  <SCORE.INTER.VDW>
-16.106

>  <SCORE.INTER.norm>
-0.233767

>  <SCORE.INTRA>
-0.203789

>  <SCORE.INTRA.DIHEDRAL>
1.10582

>  <SCORE.INTRA.DIHEDRAL.0>
3.49807

>  <SCORE.INTRA.POLAR>
0

>  <SCORE.INTRA.POLAR.0>
0

>  <SCORE.INTRA.REPUL>
0

>  <SCORE.INTRA.REPUL.0>
0

>  <SCORE.INTRA.SOLV>
-0.102452

>  <SCORE.INTRA.SOLV.lig_0>
-73.062

>  <SCORE.INTRA.VDW>
-0.705475

>  <SCORE.INTRA.VDW.0>
-1.83782

>  <SCORE.INTRA.norm>
-0.00926313

>  <SCORE.RESTR>
0.0050092

>  <SCORE.RESTR.CAVITY>
0.0050092

>  <SCORE.RESTR.norm>
0.000227691

>  <SCORE.SYSTEM>
0

>  <SCORE.SYSTEM.CONST>
0

>  <SCORE.SYSTEM.DIHEDRAL>
0

>  <SCORE.SYSTEM.SOLV>
0

>  <SCORE.SYSTEM.norm>
0

>  <SCORE.heavy>
22

>  <SCORE.norm>
-0.242803

>  <RMSD>
6.422

$$$$
ligand
 OpenBabel11021811513D
libRbt.so/2013.1/901 2013/11/27
 22 23  0  0  0  0  0  0  0  0999 V2000
  -29.1232    3.7827  -10.2292 N   0  0  0  0  0  0  0  0  0  0  0  0
  -30.7352    0.9617  -11.1755 C   0  0  1  0  0  0  0  0  0  0  0  0
  -30.1143    2.2102  -11.5946 O   0  0  0  0  0  0  0  0  0  0  0  0
  -33.0637    2.8471   -8.8562 P   0  0  1  0  0  0  0  0  0  0  0  0
  -29.0266    2.4890  -10.6982 C   0  0  2  0  0  0  0  0  0  0  0  0
  -29.9533    5.6098   -9.4022 N   0  0  0  0  0  0  0  0  0  0  0  0
  -28.0288    1.3590   -8.8479 O   0  0  0  0  0  0  0  0  0  0  0  0
  -29.2614    1.6039   -9.5353 C   0  0  2  0  0  0  0  0  0  0  0  0
  -26.9583    7.0053   -8.2059 N   0  0  0  0  0  0  0  0  0  0  0  0
  -28.8417   -0.3668  -10.7954 O   0  0  0  0  0  0  0  0  0  0  0  0
  -29.8505    0.4087  -10.1267 C   0  0  2  0  0  0  0  0  0  0  0  0
  -28.6341    5.7879   -9.5711 C   0  0  0  0  0  0  0  0  0  0  0  0
  -26.7436    4.4045  -10.3931 N   0  0  0  0  0  0  0  0  0  0  0  0
  -31.8511    2.2874   -9.6777 O   0  0  0  0  0  0  0  0  0  0  0  0
  -32.0800    1.3022  -10.6320 C   0  0  0  0  0  0  0  0  0  0  0  0
  -34.0602    3.3307   -9.9715 O   0  0  0  0  0  0  0  0  0  0  0  0
  -30.2555    4.3650   -9.8177 C   0  0  0  0  0  0  0  0  0  0  0  0
  -28.0763    8.0514   -9.8915 O   0  0  0  0  0  0  0  0  0  0  0  0
  -27.8834    7.0168   -9.2532 C   0  0  0  0  0  0  0  0  0  0  0  0
  -28.1038    4.6406  -10.0886 C   0  0  0  0  0  0  0  0  0  0  0  0
  -33.6025    1.7783   -7.9645 O   0  5  0  0  0  0  0  0  0  0  0  0
  -32.6116    3.8498   -7.8750 O   0  0  0  0  0  0  0  0  0  0  0  0
  1 17  1  0  0  0  0
  1 20  1  0  0  0  0
  2 15  1  1  0  0  0
  2  3  1  0  0  0  0
  2 11  1  0  0  0  0
  3  5  1  0  0  0  0
  4 16  1  6  0  0  0
  4 21  1  0  0  0  0
  4 22  2  0  0  0  0
  4 14  1  0  0  0  0
  5  1  1  1  0  0  0
  5  8  1  0  0  0  0
  6 17  2  0  0  0  0
  6 12  1  0  0  0  0
  8  7  1  6  0  0  0
  8 11  1  0  0  0  0
  9 19  1  0  0  0  0
 11 10  1  6  0  0  0
 12 20  2  0  0  0  0
 12 19  1  0  0  0  0
 13 20  1  0  0  0  0
 14 15  1  0  0  0  0
 18 19  2  0  0  0  0
M  CHG  1  21  -1
M  END
>  <CHROM.1>
43.49454112,-52.78537818,-55.33927219,-177.71623924,112.30833727,-30.18747023
3.31437004,-9.69401704,-0.76535305,-0.23127371,-2.89180970

>  <Name>
ligand

>  <RI>
0

>  <Rbt.Current_Directory>
/home/itssahil/PROJECTS/Mol_Feturizer/New_Systems/rnas/4XWF

>  <Rbt.Executable>
rbdock ($Id: //depot/dev/client3/rdock/2013.1/src/exe/rbdock.cxx#4 $)

>  <Rbt.Library>
libRbt.so (2013.1, Build901 2013/11/27)

>  <Rbt.Parameter_File>
/export/apps/rDock/src/rDock_2013.1_src/data/scripts/dock_solv.prm

>  <Rbt.Receptor>
prm/pocket_docking_3.prm

>  <SCORE>
-6.36965

>  <SCORE.INTER>
-6.58026

>  <SCORE.INTER.CONST>
1

>  <SCORE.INTER.POLAR>
0

>  <SCORE.INTER.ROT>
5

>  <SCORE.INTER.SOLV>
8.98668

>  <SCORE.INTER.VDW>
-14.3157

>  <SCORE.INTER.norm>
-0.299103

>  <SCORE.INTRA>
0.210613

>  <SCORE.INTRA.DIHEDRAL>
-1.71433

>  <SCORE.INTRA.DIHEDRAL.0>
3.49807

>  <SCORE.INTRA.POLAR>
0

>  <SCORE.INTRA.POLAR.0>
0

>  <SCORE.INTRA.REPUL>
0

>  <SCORE.INTRA.REPUL.0>
0

>  <SCORE.INTRA.SOLV>
1.38937

>  <SCORE.INTRA.SOLV.lig_0>
-73.062

>  <SCORE.INTRA.VDW>
0.373093

>  <SCORE.INTRA.VDW.0>
-1.83782

>  <SCORE.INTRA.norm>
0.0095733

>  <SCORE.RESTR>
0

>  <SCORE.RESTR.CAVITY>
0

>  <SCORE.RESTR.norm>
0

>  <SCORE.SYSTEM>
0

>  <SCORE.SYSTEM.CONST>
0

>  <SCORE.SYSTEM.DIHEDRAL>
0

>  <SCORE.SYSTEM.SOLV>
0

>  <SCORE.SYSTEM.norm>
0

>  <SCORE.heavy>
22

>  <SCORE.norm>
-0.289529

>  <RMSD>
6.430

$$$$
ligand
 OpenBabel11021811513D
libRbt.so/2013.1/901 2013/11/27
 22 23  0  0  0  0  0  0  0  0999 V2000
  -29.1276    3.7612  -10.2464 N   0  0  0  0  0  0  0  0  0  0  0  0
  -30.7554    0.9405  -11.1665 C   0  0  1  0  0  0  0  0  0  0  0  0
  -30.1331    2.1846  -11.5966 O   0  0  0  0  0  0  0  0  0  0  0  0
  -33.0641    2.8590   -8.8543 P   0  0  1  0  0  0  0  0  0  0  0  0
  -29.0386    2.4645  -10.7090 C   0  0  2  0  0  0  0  0  0  0  0  0
  -29.9432    5.5917   -9.4126 N   0  0  0  0  0  0  0  0  0  0  0  0
  -28.0324    1.3413   -8.8591 O   0  0  0  0  0  0  0  0  0  0  0  0
  -29.2687    1.5866   -9.5397 C   0  0  2  0  0  0  0  0  0  0  0  0
  -26.9532    7.0140   -8.2700 N   0  0  0  0  0  0  0  0  0  0  0  0
  -28.8640   -0.3923  -10.7916 O   0  0  0  0  0  0  0  0  0  0  0  0
  -29.8658    0.3903  -10.1206 C   0  0  2  0  0  0  0  0  0  0  0  0
  -28.6287    5.7719   -9.6132 C   0  0  0  0  0  0  0  0  0  0  0  0
  -26.7541    4.3877  -10.4698 N   0  0  0  0  0  0  0  0  0  0  0  0
  -31.8578    2.2840   -9.6745 O   0  0  0  0  0  0  0  0  0  0  0  0
  -32.0955    1.2887  -10.6161 C   0  0  0  0  0  0  0  0  0  0  0  0
  -34.0634    3.3340   -9.9708 O   0  0  0  0  0  0  0  0  0  0  0  0
  -30.2516    4.3433   -9.8126 C   0  0  0  0  0  0  0  0  0  0  0  0
  -28.0600    8.0250   -9.9842 O   0  0  0  0  0  0  0  0  0  0  0  0
  -27.8741    7.0048   -9.3211 C   0  0  0  0  0  0  0  0  0  0  0  0
  -28.1075    4.6225  -10.1353 C   0  0  0  0  0  0  0  0  0  0  0  0
  -33.6039    1.8032   -7.9477 O   0  5  0  0  0  0  0  0  0  0  0  0
  -32.6031    3.8710   -7.8869 O   0  0  0  0  0  0  0  0  0  0  0  0
  1 17  1  0  0  0  0
  1 20  1  0  0  0  0
  2 15  1  1  0  0  0
  2  3  1  0  0  0  0
  2 11  1  0  0  0  0
  3  5  1  0  0  0  0
  4 16  1  6  0  0  0
  4 21  1  0  0  0  0
  4 22  2  0  0  0  0
  4 14  1  0  0  0  0
  5  1  1  1  0  0  0
  5  8  1  0  0  0  0
  6 17  2  0  0  0  0
  6 12  1  0  0  0  0
  8  7  1  6  0  0  0
  8 11  1  0  0  0  0
  9 19  1  0  0  0  0
 11 10  1  6  0  0  0
 12 20  2  0  0  0  0
 12 19  1  0  0  0  0
 13 20  1  0  0  0  0
 14 15  1  0  0  0  0
 18 19  2  0  0  0  0
M  CHG  1  21  -1
M  END
>  <CHROM.1>
44.51020131,-52.43432502,-55.34754678,-178.00018231,110.43240414,-30.19128889
3.30479790,-9.71040376,-0.76116785,-0.23728269,-2.89949368

>  <Name>
ligand

>  <RI>
0

>  <Rbt.Current_Directory>
/home/itssahil/PROJECTS/Mol_Feturizer/New_Systems/rnas/4XWF

>  <Rbt.Executable>
rbdock ($Id: //depot/dev/client3/rdock/2013.1/src/exe/rbdock.cxx#4 $)

>  <Rbt.Library>
libRbt.so (2013.1, Build901 2013/11/27)

>  <Rbt.Parameter_File>
/export/apps/rDock/src/rDock_2013.1_src/data/scripts/dock_solv.prm

>  <Rbt.Receptor>
prm/pocket_docking_3.prm

>  <SCORE>
-6.38373

>  <SCORE.INTER>
-6.6398

>  <SCORE.INTER.CONST>
1

>  <SCORE.INTER.POLAR>
0

>  <SCORE.INTER.ROT>
5

>  <SCORE.INTER.SOLV>
9.10948

>  <SCORE.INTER.VDW>
-14.3964

>  <SCORE.INTER.norm>
-0.301809

>  <SCORE.INTRA>
0.256077

>  <SCORE.INTRA.DIHEDRAL>
-1.66694

>  <SCORE.INTRA.DIHEDRAL.0>
3.49807

>  <SCORE.INTRA.POLAR>
0

>  <SCORE.INTRA.POLAR.0>
0

>  <SCORE.INTRA.REPUL>
0

>  <SCORE.INTRA.REPUL.0>
0

>  <SCORE.INTRA.SOLV>
1.35905

>  <SCORE.INTRA.SOLV.lig_0>
-73.062

>  <SCORE.INTRA.VDW>
0.41002

>  <SCORE.INTRA.VDW.0>
-1.83782

>  <SCORE.INTRA.norm>
0.0116399

>  <SCORE.RESTR>
0

>  <SCORE.RESTR.CAVITY>
0

>  <SCORE.RESTR.norm>
0

>  <SCORE.SYSTEM>
0

>  <SCORE.SYSTEM.CONST>
0

>  <SCORE.SYSTEM.DIHEDRAL>
0

>  <SCORE.SYSTEM.SOLV>
0

>  <SCORE.SYSTEM.norm>
0

>  <SCORE.heavy>
22

>  <SCORE.norm>
-0.290169

>  <RMSD>
6.430

$$$$
ligand
 OpenBabel11021811513D
libRbt.so/2013.1/901 2013/11/27
 22 23  0  0  0  0  0  0  0  0999 V2000
  -30.5972    4.1054   -9.1487 N   0  0  0  0  0  0  0  0  0  0  0  0
  -31.1371    0.8429   -9.8681 C   0  0  1  0  0  0  0  0  0  0  0  0
  -30.4887    1.8069   -8.9905 O   0  0  0  0  0  0  0  0  0  0  0  0
  -27.9867    0.0193  -11.8032 P   0  0  1  0  0  0  0  0  0  0  0  0
  -31.3337    2.9654   -8.9008 C   0  0  2  0  0  0  0  0  0  0  0  0
  -29.1164    5.4494   -9.9923 N   0  0  0  0  0  0  0  0  0  0  0  0
  -33.4813    3.5616   -9.7542 O   0  0  0  0  0  0  0  0  0  0  0  0
  -32.2825    2.8270  -10.0283 C   0  0  2  0  0  0  0  0  0  0  0  0
  -30.7730    8.4691   -9.1969 N   0  0  0  0  0  0  0  0  0  0  0  0
  -33.3382    0.9275   -9.0666 O   0  0  0  0  0  0  0  0  0  0  0  0
  -32.4873    1.3873  -10.1301 C   0  0  2  0  0  0  0  0  0  0  0  0
  -29.8877    6.1522   -9.1486 C   0  0  0  0  0  0  0  0  0  0  0  0
  -31.8434    5.6622   -7.6999 N   0  0  0  0  0  0  0  0  0  0  0  0
  -29.0753    0.3135  -10.7137 O   0  0  0  0  0  0  0  0  0  0  0  0
  -30.3254    0.7712  -11.1155 C   0  0  0  0  0  0  0  0  0  0  0  0
  -28.4530   -1.3511  -12.4156 O   0  0  0  0  0  0  0  0  0  0  0  0
  -29.5557    4.1764   -9.9858 C   0  0  0  0  0  0  0  0  0  0  0  0
  -28.7282    8.0169   -8.3026 O   0  0  0  0  0  0  0  0  0  0  0  0
  -29.7462    7.5885   -8.8460 C   0  0  0  0  0  0  0  0  0  0  0  0
  -30.8245    5.3133   -8.6158 C   0  0  0  0  0  0  0  0  0  0  0  0
  -27.9340    1.1482  -12.7783 O   0  5  0  0  0  0  0  0  0  0  0  0
  -26.6348    0.0714  -11.2183 O   0  0  0  0  0  0  0  0  0  0  0  0
  1 17  1  0  0  0  0
  1 20  1  0  0  0  0
  2 15  1  6  0  0  0
  2  3  1  0  0  0  0
  2 11  1  0  0  0  0
  3  5  1  0  0  0  0
  4 16  1  6  0  0  0
  4 21  1  0  0  0  0
  4 22  2  0  0  0  0
  4 14  1  0  0  0  0
  5  1  1  6  0  0  0
  5  8  1  0  0  0  0
  6 17  2  0  0  0  0
  6 12  1  0  0  0  0
  8  7  1  1  0  0  0
  8 11  1  0  0  0  0
  9 19  1  0  0  0  0
 11 10  1  1  0  0  0
 12 20  2  0  0  0  0
 12 19  1  0  0  0  0
 13 20  1  0  0  0  0
 14 15  1  0  0  0  0
 18 19  2  0  0  0  0
M  CHG  1  21  -1
M  END
>  <CHROM.1>
32.68607605,61.91694033,-76.20026465,175.62560092,115.77201269,-30.11973406
2.91227032,-10.03945941,1.84155873,0.34003196,0.30540816

>  <Name>
ligand

>  <RI>
0

>  <Rbt.Current_Directory>
/home/itssahil/PROJECTS/Mol_Feturizer/New_Systems/rnas/4XWF

>  <Rbt.Executable>
rbdock ($Id: //depot/dev/client3/rdock/2013.1/src/exe/rbdock.cxx#4 $)

>  <Rbt.Library>
libRbt.so (2013.1, Build901 2013/11/27)

>  <Rbt.Parameter_File>
/export/apps/rDock/src/rDock_2013.1_src/data/scripts/dock_solv.prm

>  <Rbt.Receptor>
prm/pocket_docking_7.prm

>  <SCORE>
-8.3359

>  <SCORE.INTER>
-7.24912

>  <SCORE.INTER.CONST>
1

>  <SCORE.INTER.POLAR>
0

>  <SCORE.INTER.ROT>
5

>  <SCORE.INTER.SOLV>
10.3631

>  <SCORE.INTER.VDW>
-15.2204

>  <SCORE.INTER.norm>
-0.329505

>  <SCORE.INTRA>
-1.08678

>  <SCORE.INTRA.DIHEDRAL>
-1.4347

>  <SCORE.INTRA.DIHEDRAL.0>
3.49807

>  <SCORE.INTRA.POLAR>
0

>  <SCORE.INTRA.POLAR.0>
0

>  <SCORE.INTRA.REPUL>
0

>  <SCORE.INTRA.REPUL.0>
0

>  <SCORE.INTRA.SOLV>
0.0546275

>  <SCORE.INTRA.SOLV.lig_0>
-73.062

>  <SCORE.INTRA.VDW>
-0.396741

>  <SCORE.INTRA.VDW.0>
-1.83782

>  <SCORE.INTRA.norm>
-0.0493991

>  <SCORE.RESTR>
0

>  <SCORE.RESTR.CAVITY>
0

>  <SCORE.RESTR.norm>
0

>  <SCORE.SYSTEM>
0

>  <SCORE.SYSTEM.CONST>
0

>  <SCORE.SYSTEM.DIHEDRAL>
0

>  <SCORE.SYSTEM.SOLV>
0

>  <SCORE.SYSTEM.norm>
0

>  <SCORE.heavy>
22

>  <SCORE.norm>
-0.378904

>  <RMSD>
6.433

$$$$
ligand
 OpenBabel11021811513D
libRbt.so/2013.1/901 2013/11/27
 22 23  0  0  0  0  0  0  0  0999 V2000
  -30.6690    4.1293   -9.0924 N   0  0  0  0  0  0  0  0  0  0  0  0
  -31.1716    0.8638   -9.8247 C   0  0  1  0  0  0  0  0  0  0  0  0
  -30.5350    1.8316   -8.9427 O   0  0  0  0  0  0  0  0  0  0  0  0
  -28.0094    0.0869  -11.7610 P   0  0  1  0  0  0  0  0  0  0  0  0
  -31.3930    2.9803   -8.8496 C   0  0  2  0  0  0  0  0  0  0  0  0
  -29.1979    5.4912   -9.9243 N   0  0  0  0  0  0  0  0  0  0  0  0
  -33.5462    3.5557   -9.7032 O   0  0  0  0  0  0  0  0  0  0  0  0
  -32.3390    2.8356   -9.9787 C   0  0  2  0  0  0  0  0  0  0  0  0
  -29.5146    8.0278   -7.4960 N   0  0  0  0  0  0  0  0  0  0  0  0
  -33.3745    0.9208   -9.0254 O   0  0  0  0  0  0  0  0  0  0  0  0
  -32.5276    1.3940  -10.0862 C   0  0  2  0  0  0  0  0  0  0  0  0
  -29.9860    6.1851   -9.0887 C   0  0  0  0  0  0  0  0  0  0  0  0
  -31.9484    5.6718   -7.6572 N   0  0  0  0  0  0  0  0  0  0  0  0
  -29.1079    0.3453  -10.6724 O   0  0  0  0  0  0  0  0  0  0  0  0
  -30.3579    0.8059  -11.0715 C   0  0  0  0  0  0  0  0  0  0  0  0
  -28.4639   -1.2682  -12.4150 O   0  0  0  0  0  0  0  0  0  0  0  0
  -29.6209    4.2127   -9.9200 C   0  0  0  0  0  0  0  0  0  0  0  0
  -30.0862    8.4666   -9.6562 O   0  0  0  0  0  0  0  0  0  0  0  0
  -29.8657    7.6235   -8.7869 C   0  0  0  0  0  0  0  0  0  0  0  0
  -30.9168    5.3349   -8.5633 C   0  0  0  0  0  0  0  0  0  0  0  0
  -27.9547    1.2427  -12.7038 O   0  5  0  0  0  0  0  0  0  0  0  0
  -26.6623    0.1292  -11.1641 O   0  0  0  0  0  0  0  0  0  0  0  0
  1 17  1  0  0  0  0
  1 20  1  0  0  0  0
  2 15  1  6  0  0  0
  2  3  1  0  0  0  0
  2 11  1  0  0  0  0
  3  5  1  0  0  0  0
  4 16  1  6  0  0  0
  4 21  1  0  0  0  0
  4 22  2  0  0  0  0
  4 14  1  0  0  0  0
  5  1  1  6  0  0  0
  5  8  1  0  0  0  0
  6 17  2  0  0  0  0
  6 12  1  0  0  0  0
  8  7  1  1  0  0  0
  8 11  1  0  0  0  0
  9 19  1  0  0  0  0
 11 10  1  1  0  0  0
 12 20  2  0  0  0  0
 12 19  1  0  0  0  0
 13 20  1  0  0  0  0
 14 15  1  0  0  0  0
 18 19  2  0  0  0  0
M  CHG  1  21  -1
M  END
>  <CHROM.1>
32.12848227,62.60846422,-76.09312591,176.65630370,-114.22547735,-30.17957621
2.94657482,-9.98872833,1.85303195,0.36482432,0.30183199

>  <Name>
ligand

>  <RI>
0

>  <Rbt.Current_Directory>
/home/itssahil/PROJECTS/Mol_Feturizer/New_Systems/rnas/4XWF

>  <Rbt.Executable>
rbdock ($Id: //depot/dev/client3/rdock/2013.1/src/exe/rbdock.cxx#4 $)

>  <Rbt.Library>
libRbt.so (2013.1, Build901 2013/11/27)

>  <Rbt.Parameter_File>
/export/apps/rDock/src/rDock_2013.1_src/data/scripts/dock_solv.prm

>  <Rbt.Receptor>
prm/pocket_docking_5.prm

>  <SCORE>
-8.36678

>  <SCORE.INTER>
-7.27978

>  <SCORE.INTER.CONST>
1

>  <SCORE.INTER.POLAR>
0

>  <SCORE.INTER.ROT>
5

>  <SCORE.INTER.SOLV>
9.48616

>  <SCORE.INTER.VDW>
-14.9486

>  <SCORE.INTER.norm>
-0.330899

>  <SCORE.INTRA>
-1.087

>  <SCORE.INTRA.DIHEDRAL>
-1.43912

>  <SCORE.INTRA.DIHEDRAL.0>
3.49807

>  <SCORE.INTRA.POLAR>
0

>  <SCORE.INTRA.POLAR.0>
0

>  <SCORE.INTRA.REPUL>
0

>  <SCORE.INTRA.REPUL.0>
0

>  <SCORE.INTRA.SOLV>
0.0775114

>  <SCORE.INTRA.SOLV.lig_0>
-73.062

>  <SCORE.INTRA.VDW>
-0.406191

>  <SCORE.INTRA.VDW.0>
-1.83782

>  <SCORE.INTRA.norm>
-0.0494089

>  <SCORE.RESTR>
0

>  <SCORE.RESTR.CAVITY>
0

>  <SCORE.RESTR.norm>
0

>  <SCORE.SYSTEM>
0

>  <SCORE.SYSTEM.CONST>
0

>  <SCORE.SYSTEM.DIHEDRAL>
0

>  <SCORE.SYSTEM.SOLV>
0

>  <SCORE.SYSTEM.norm>
0

>  <SCORE.heavy>
22

>  <SCORE.norm>
-0.380308

>  <RMSD>
6.439

$$$$
ligand
 OpenBabel11021811513D
libRbt.so/2013.1/901 2013/11/27
 22 23  0  0  0  0  0  0  0  0999 V2000
  -30.5634    4.1047   -9.1286 N   0  0  0  0  0  0  0  0  0  0  0  0
  -31.1247    0.8545   -9.8861 C   0  0  1  0  0  0  0  0  0  0  0  0
  -30.4739    1.8039   -8.9945 O   0  0  0  0  0  0  0  0  0  0  0  0
  -27.9788    0.0026  -11.8151 P   0  0  1  0  0  0  0  0  0  0  0  0
  -31.3102    2.9681   -8.8972 C   0  0  2  0  0  0  0  0  0  0  0  0
  -29.0587    5.4423   -9.9396 N   0  0  0  0  0  0  0  0  0  0  0  0
  -33.4481    3.5904   -9.7563 O   0  0  0  0  0  0  0  0  0  0  0  0
  -32.2536    2.8493  -10.0315 C   0  0  2  0  0  0  0  0  0  0  0  0
  -29.3955    7.9808   -7.5015 N   0  0  0  0  0  0  0  0  0  0  0  0
  -33.3298    0.9481   -9.0964 O   0  0  0  0  0  0  0  0  0  0  0  0
  -32.4692    1.4124  -10.1500 C   0  0  2  0  0  0  0  0  0  0  0  0
  -29.8445    6.1482   -9.1121 C   0  0  0  0  0  0  0  0  0  0  0  0
  -31.8329    5.6665   -7.7057 N   0  0  0  0  0  0  0  0  0  0  0  0
  -29.0645    0.3115  -10.7267 O   0  0  0  0  0  0  0  0  0  0  0  0
  -30.3065    0.7898  -11.1297 C   0  0  0  0  0  0  0  0  0  0  0  0
  -28.4493   -1.3736  -12.4111 O   0  0  0  0  0  0  0  0  0  0  0  0
  -29.5039    4.1714   -9.9433 C   0  0  0  0  0  0  0  0  0  0  0  0
  -29.8674    8.4308   -9.6834 O   0  0  0  0  0  0  0  0  0  0  0  0
  -29.7028    7.5837   -8.8057 C   0  0  0  0  0  0  0  0  0  0  0  0
  -30.7964    5.3134   -8.5999 C   0  0  0  0  0  0  0  0  0  0  0  0
  -27.9256    1.1203  -12.8029 O   0  5  0  0  0  0  0  0  0  0  0  0
  -26.6255    0.0583  -11.2335 O   0  0  0  0  0  0  0  0  0  0  0  0
  1 17  1  0  0  0  0
  1 20  1  0  0  0  0
  2 15  1  6  0  0  0
  2  3  1  0  0  0  0
  2 11  1  0  0  0  0
  3  5  1  0  0  0  0
  4 16  1  6  0  0  0
  4 21  1  0  0  0  0
  4 22  2  0  0  0  0
  4 14  1  0  0  0  0
  5  1  1  6  0  0  0
  5  8  1  0  0  0  0
  6 17  2  0  0  0  0
  6 12  1  0  0  0  0
  8  7  1  1  0  0  0
  8 11  1  0  0  0  0
  9 19  1  0  0  0  0
 11 10  1  1  0  0  0
 12 20  2  0  0  0  0
 12 19  1  0  0  0  0
 13 20  1  0  0  0  0
 14 15  1  0  0  0  0
 18 19  2  0  0  0  0
M  CHG  1  21  -1
M  END
>  <CHROM.1>
31.60410656,62.20932684,-77.32251878,174.90882311,-115.92590504,-30.09694291
2.91169369,-10.03395408,1.83494824,0.35651168,0.31260625

>  <Name>
ligand

>  <RI>
0

>  <Rbt.Current_Directory>
/home/itssahil/PROJECTS/Mol_Feturizer/New_Systems/rnas/4XWF

>  <Rbt.Executable>
rbdock ($Id: //depot/dev/client3/rdock/2013.1/src/exe/rbdock.cxx#4 $)

>  <Rbt.Library>
libRbt.so (2013.1, Build901 2013/11/27)

>  <Rbt.Parameter_File>
/export/apps/rDock/src/rDock_2013.1_src/data/scripts/dock_solv.prm

>  <Rbt.Receptor>
prm/pocket_docking_6.prm

>  <SCORE>
-8.48357

>  <SCORE.INTER>
-7.48189

>  <SCORE.INTER.CONST>
1

>  <SCORE.INTER.POLAR>
0

>  <SCORE.INTER.ROT>
5

>  <SCORE.INTER.SOLV>
9.54738

>  <SCORE.INTER.VDW>
-15.1037

>  <SCORE.INTER.norm>
-0.340086

>  <SCORE.INTRA>
-1.00167

>  <SCORE.INTRA.DIHEDRAL>
-1.33373

>  <SCORE.INTRA.DIHEDRAL.0>
3.49807

>  <SCORE.INTRA.POLAR>
0

>  <SCORE.INTRA.POLAR.0>
0

>  <SCORE.INTRA.REPUL>
0

>  <SCORE.INTRA.REPUL.0>
0

>  <SCORE.INTRA.SOLV>
0.107613

>  <SCORE.INTRA.SOLV.lig_0>
-73.062

>  <SCORE.INTRA.VDW>
-0.388617

>  <SCORE.INTRA.VDW.0>
-1.83782

>  <SCORE.INTRA.norm>
-0.0455306

>  <SCORE.RESTR>
0

>  <SCORE.RESTR.CAVITY>
0

>  <SCORE.RESTR.norm>
0

>  <SCORE.SYSTEM>
0

>  <SCORE.SYSTEM.CONST>
0

>  <SCORE.SYSTEM.DIHEDRAL>
0

>  <SCORE.SYSTEM.SOLV>
0

>  <SCORE.SYSTEM.norm>
0

>  <SCORE.heavy>
22

>  <SCORE.norm>
-0.385617

>  <RMSD>
6.440

$$$$
ligand
 OpenBabel11021811513D
libRbt.so/2013.1/901 2013/11/27
 22 23  0  0  0  0  0  0  0  0999 V2000
  -30.6964    4.1216   -9.0697 N   0  0  0  0  0  0  0  0  0  0  0  0
  -31.1732    0.8589   -9.8315 C   0  0  1  0  0  0  0  0  0  0  0  0
  -30.5450    1.8238   -8.9402 O   0  0  0  0  0  0  0  0  0  0  0  0
  -28.0110    0.0877  -11.7618 P   0  0  1  0  0  0  0  0  0  0  0  0
  -31.4119    2.9650   -8.8380 C   0  0  2  0  0  0  0  0  0  0  0  0
  -29.2427    5.5052   -9.8964 N   0  0  0  0  0  0  0  0  0  0  0  0
  -33.5683    3.5315   -9.6894 O   0  0  0  0  0  0  0  0  0  0  0  0
  -32.3554    2.8231   -9.9696 C   0  0  2  0  0  0  0  0  0  0  0  0
  -29.5991    7.9978   -7.4037 N   0  0  0  0  0  0  0  0  0  0  0  0
  -33.3774    0.8921   -9.0347 O   0  0  0  0  0  0  0  0  0  0  0  0
  -32.5328    1.3812  -10.0901 C   0  0  2  0  0  0  0  0  0  0  0  0
  -30.0226    6.1802   -9.0381 C   0  0  0  0  0  0  0  0  0  0  0  0
  -31.9634    5.6321   -7.5902 N   0  0  0  0  0  0  0  0  0  0  0  0
  -29.0881    0.4208  -10.6721 O   0  0  0  0  0  0  0  0  0  0  0  0
  -30.3574    0.8183  -11.0777 C   0  0  0  0  0  0  0  0  0  0  0  0
  -28.4719   -1.3132  -12.3057 O   0  0  0  0  0  0  0  0  0  0  0  0
  -29.6598    4.2248   -9.9095 C   0  0  0  0  0  0  0  0  0  0  0  0
  -30.0879    8.4699   -9.5772 O   0  0  0  0  0  0  0  0  0  0  0  0
  -29.9049    7.6136   -8.7121 C   0  0  0  0  0  0  0  0  0  0  0  0
  -30.9425    5.3163   -8.5158 C   0  0  0  0  0  0  0  0  0  0  0  0
  -27.9819    1.1718  -12.7873 O   0  5  0  0  0  0  0  0  0  0  0  0
  -26.6521    0.1784  -11.1981 O   0  0  0  0  0  0  0  0  0  0  0  0
  1 17  1  0  0  0  0
  1 20  1  0  0  0  0
  2 15  1  6  0  0  0
  2  3  1  0  0  0  0
  2 11  1  0  0  0  0
  3  5  1  0  0  0  0
  4 16  1  6  0  0  0
  4 21  1  0  0  0  0
  4 22  2  0  0  0  0
  4 14  1  0  0  0  0
  5  1  1  6  0  0  0
  5  8  1  0  0  0  0
  6 17  2  0  0  0  0
  6 12  1  0  0  0  0
  8  7  1  1  0  0  0
  8 11  1  0  0  0  0
  9 19  1  0  0  0  0
 11 10  1  1  0  0  0
 12 20  2  0  0  0  0
 12 19  1  0  0  0  0
 13 20  1  0  0  0  0
 14 15  1  0  0  0  0
 18 19  2  0  0  0  0
M  CHG  1  21  -1
M  END
>  <CHROM.1>
33.12919382,60.04533520,-74.70414110,171.96650864,-117.18018172,-30.19583273
2.93954546,-9.96926515,1.85749873,0.36523802,0.30926944

>  <Name>
ligand

>  <RI>
0

>  <Rbt.Current_Directory>
/home/itssahil/PROJECTS/Mol_Feturizer/New_Systems/rnas/4XWF

>  <Rbt.Executable>
rbdock ($Id: //depot/dev/client3/rdock/2013.1/src/exe/rbdock.cxx#4 $)

>  <Rbt.Library>
libRbt.so (2013.1, Build901 2013/11/27)

>  <Rbt.Parameter_File>
/export/apps/rDock/src/rDock_2013.1_src/data/scripts/dock_solv.prm

>  <Rbt.Receptor>
prm/pocket_docking_5.prm

>  <SCORE>
-8.36857

>  <SCORE.INTER>
-7.351

>  <SCORE.INTER.CONST>
1

>  <SCORE.INTER.POLAR>
0

>  <SCORE.INTER.ROT>
5

>  <SCORE.INTER.SOLV>
9.29638

>  <SCORE.INTER.VDW>
-14.9328

>  <SCORE.INTER.norm>
-0.334136

>  <SCORE.INTRA>
-1.01757

>  <SCORE.INTRA.DIHEDRAL>
-1.3053

>  <SCORE.INTRA.DIHEDRAL.0>
3.49807

>  <SCORE.INTRA.POLAR>
0

>  <SCORE.INTRA.POLAR.0>
0

>  <SCORE.INTRA.REPUL>
0

>  <SCORE.INTRA.REPUL.0>
0

>  <SCORE.INTRA.SOLV>
0.0347003

>  <SCORE.INTRA.SOLV.lig_0>
-73.062

>  <SCORE.INTRA.VDW>
-0.38227

>  <SCORE.INTRA.VDW.0>
-1.83782

>  <SCORE.INTRA.norm>
-0.0462531

>  <SCORE.RESTR>
0

>  <SCORE.RESTR.CAVITY>
0

>  <SCORE.RESTR.norm>
0

>  <SCORE.SYSTEM>
0

>  <SCORE.SYSTEM.CONST>
0

>  <SCORE.SYSTEM.DIHEDRAL>
0

>  <SCORE.SYSTEM.SOLV>
0

>  <SCORE.SYSTEM.norm>
0

>  <SCORE.heavy>
22

>  <SCORE.norm>
-0.38039

>  <RMSD>
6.443

$$$$
ligand
 OpenBabel11021811513D
libRbt.so/2013.1/901 2013/11/27
 22 23  0  0  0  0  0  0  0  0999 V2000
  -29.0969    3.6934  -10.3559 N   0  0  0  0  0  0  0  0  0  0  0  0
  -30.7359    0.8759  -11.2658 C   0  0  1  0  0  0  0  0  0  0  0  0
  -30.1009    2.1117  -11.7012 O   0  0  0  0  0  0  0  0  0  0  0  0
  -33.0410    2.7331   -8.9015 P   0  0  1  0  0  0  0  0  0  0  0  0
  -29.0127    2.3921  -10.8060 C   0  0  2  0  0  0  0  0  0  0  0  0
  -29.8978    5.5257   -9.5119 N   0  0  0  0  0  0  0  0  0  0  0  0
  -28.0315    1.2787   -8.9369 O   0  0  0  0  0  0  0  0  0  0  0  0
  -29.2597    1.5264   -9.6311 C   0  0  2  0  0  0  0  0  0  0  0  0
  -26.8695    6.9888   -8.5185 N   0  0  0  0  0  0  0  0  0  0  0  0
  -28.8574   -0.4665  -10.8614 O   0  0  0  0  0  0  0  0  0  0  0  0
  -29.8598    0.3290  -10.2068 C   0  0  2  0  0  0  0  0  0  0  0  0
  -28.5945    5.7170   -9.7680 C   0  0  0  0  0  0  0  0  0  0  0  0
  -26.7414    4.3415  -10.6831 N   0  0  0  0  0  0  0  0  0  0  0  0
  -31.8356    2.1829   -9.7399 O   0  0  0  0  0  0  0  0  0  0  0  0
  -32.0785    1.2383  -10.7310 C   0  0  0  0  0  0  0  0  0  0  0  0
  -33.5248    1.4718   -8.0980 O   0  0  0  0  0  0  0  0  0  0  0  0
  -30.2087    4.2694   -9.8839 C   0  0  0  0  0  0  0  0  0  0  0  0
  -28.0743    7.9745  -10.1806 O   0  0  0  0  0  0  0  0  0  0  0  0
  -27.8421    6.9611   -9.5217 C   0  0  0  0  0  0  0  0  0  0  0  0
  -28.0826    4.5665  -10.2968 C   0  0  0  0  0  0  0  0  0  0  0  0
  -32.5838    3.8717   -8.0516 O   0  5  0  0  0  0  0  0  0  0  0  0
  -34.0264    3.3946   -9.7756 O   0  0  0  0  0  0  0  0  0  0  0  0
  1 17  1  0  0  0  0
  1 20  1  0  0  0  0
  2 15  1  1  0  0  0
  2  3  1  0  0  0  0
  2 11  1  0  0  0  0
  3  5  1  0  0  0  0
  4 16  1  1  0  0  0
  4 21  1  0  0  0  0
  4 22  2  0  0  0  0
  4 14  1  0  0  0  0
  5  1  1  1  0  0  0
  5  8  1  0  0  0  0
  6 17  2  0  0  0  0
  6 12  1  0  0  0  0
  8  7  1  6  0  0  0
  8 11  1  0  0  0  0
  9 19  1  0  0  0  0
 11 10  1  6  0  0  0
 12 20  2  0  0  0  0
 12 19  1  0  0  0  0
 13 20  1  0  0  0  0
 14 15  1  0  0  0  0
 18 19  2  0  0  0  0
M  CHG  1  21  -1
M  END
>  <CHROM.1>
47.54295469,-55.88660920,66.07011363,-176.70874471,111.11163222,-30.16487622
3.23281105,-9.81535099,-0.76552032,-0.25701091,-2.91712865

>  <Name>
ligand

>  <RI>
0

>  <Rbt.Current_Directory>
/home/itssahil/PROJECTS/Mol_Feturizer/New_Systems/rnas/4XWF

>  <Rbt.Executable>
rbdock ($Id: //depot/dev/client3/rdock/2013.1/src/exe/rbdock.cxx#4 $)

>  <Rbt.Library>
libRbt.so (2013.1, Build901 2013/11/27)

>  <Rbt.Parameter_File>
/export/apps/rDock/src/rDock_2013.1_src/data/scripts/dock_solv.prm

>  <Rbt.Receptor>
prm/pocket_docking_3.prm

>  <SCORE>
-4.73508

>  <SCORE.INTER>
-4.81905

>  <SCORE.INTER.CONST>
1

>  <SCORE.INTER.POLAR>
0

>  <SCORE.INTER.ROT>
5

>  <SCORE.INTER.SOLV>
13.5745

>  <SCORE.INTER.VDW>
-14.6709

>  <SCORE.INTER.norm>
-0.219048

>  <SCORE.INTRA>
0.0839676

>  <SCORE.INTRA.DIHEDRAL>
-1.76834

>  <SCORE.INTRA.DIHEDRAL.0>
3.49807

>  <SCORE.INTRA.POLAR>
0

>  <SCORE.INTRA.POLAR.0>
0

>  <SCORE.INTRA.REPUL>
0

>  <SCORE.INTRA.REPUL.0>
0

>  <SCORE.INTRA.SOLV>
1.27363

>  <SCORE.INTRA.SOLV.lig_0>
-73.062

>  <SCORE.INTRA.VDW>
0.331324

>  <SCORE.INTRA.VDW.0>
-1.83782

>  <SCORE.INTRA.norm>
0.00381671

>  <SCORE.RESTR>
0

>  <SCORE.RESTR.CAVITY>
0

>  <SCORE.RESTR.norm>
0

>  <SCORE.SYSTEM>
0

>  <SCORE.SYSTEM.CONST>
0

>  <SCORE.SYSTEM.DIHEDRAL>
0

>  <SCORE.SYSTEM.SOLV>
0

>  <SCORE.SYSTEM.norm>
0

>  <SCORE.heavy>
22

>  <SCORE.norm>
-0.215231

>  <RMSD>
6.451

$$$$
ligand
 OpenBabel11021811513D
libRbt.so/2013.1/901 2013/11/27
 22 23  0  0  0  0  0  0  0  0999 V2000
  -28.3608    3.2445  -11.6128 N   0  0  0  0  0  0  0  0  0  0  0  0
  -30.5693    0.7538  -11.0035 C   0  0  1  0  0  0  0  0  0  0  0  0
  -30.1725    1.8432  -11.8842 O   0  0  0  0  0  0  0  0  0  0  0  0
  -33.0395    3.1460   -9.4555 P   0  0  1  0  0  0  0  0  0  0  0  0
  -28.7393    1.9400  -11.8542 C   0  0  2  0  0  0  0  0  0  0  0  0
  -28.1980    5.1942  -10.6732 N   0  0  0  0  0  0  0  0  0  0  0  0
  -26.9833    0.7077  -10.8084 O   0  0  0  0  0  0  0  0  0  0  0  0
  -28.3347    1.1599  -10.6632 C   0  0  2  0  0  0  0  0  0  0  0  0
  -26.4981    7.4735  -11.4528 N   0  0  0  0  0  0  0  0  0  0  0  0
  -29.0282   -0.8995  -11.6250 O   0  0  0  0  0  0  0  0  0  0  0  0
  -29.3122    0.0797  -10.6116 C   0  0  2  0  0  0  0  0  0  0  0  0
  -27.3735    5.1691  -11.7316 C   0  0  0  0  0  0  0  0  0  0  0  0
  -26.7476    3.4995  -13.4590 N   0  0  0  0  0  0  0  0  0  0  0  0
  -32.3172    2.0849  -10.3561 O   0  0  0  0  0  0  0  0  0  0  0  0
  -31.2499    1.3666   -9.8282 C   0  0  0  0  0  0  0  0  0  0  0  0
  -32.0458    4.3637   -9.4684 O   0  0  0  0  0  0  0  0  0  0  0  0
  -28.8148    3.9990  -10.6053 C   0  0  0  0  0  0  0  0  0  0  0  0
  -25.8189    6.1665  -13.1895 O   0  0  0  0  0  0  0  0  0  0  0  0
  -26.5117    6.2792  -12.1783 C   0  0  0  0  0  0  0  0  0  0  0  0
  -27.4682    3.9434  -12.3266 C   0  0  0  0  0  0  0  0  0  0  0  0
  -34.3912    3.4429  -10.0147 O   0  5  0  0  0  0  0  0  0  0  0  0
  -33.3833    2.5700   -8.1431 O   0  0  0  0  0  0  0  0  0  0  0  0
  1 17  1  0  0  0  0
  1 20  1  0  0  0  0
  2 15  1  1  0  0  0
  2  3  1  0  0  0  0
  2 11  1  0  0  0  0
  3  5  1  0  0  0  0
  4 16  1  1  0  0  0
  4 21  1  0  0  0  0
  4 22  2  0  0  0  0
  4 14  1  0  0  0  0
  5  1  1  1  0  0  0
  5  8  1  0  0  0  0
  6 17  2  0  0  0  0
  6 12  1  0  0  0  0
  8  7  1  6  0  0  0
  8 11  1  0  0  0  0
  9 19  1  0  0  0  0
 11 10  1  6  0  0  0
 12 20  2  0  0  0  0
 12 19  1  0  0  0  0
 13 20  1  0  0  0  0
 14 15  1  0  0  0  0
 18 19  2  0  0  0  0
M  CHG  1  21  -1
M  END
>  <CHROM.1>
51.53204374,58.30709334,76.91679516,-164.76421884,1.35604641,-29.62749455
3.02930882,-10.92771455,-0.37819791,-0.41739993,-3.11319750

>  <Name>
ligand

>  <RI>
0

>  <Rbt.Current_Directory>
/home/itssahil/PROJECTS/Mol_Feturizer/New_Systems/rnas/4XWF

>  <Rbt.Executable>
rbdock ($Id: //depot/dev/client3/rdock/2013.1/src/exe/rbdock.cxx#4 $)

>  <Rbt.Library>
libRbt.so (2013.1, Build901 2013/11/27)

>  <Rbt.Parameter_File>
/export/apps/rDock/src/rDock_2013.1_src/data/scripts/dock_solv.prm

>  <Rbt.Receptor>
prm/pocket_docking_4.prm

>  <SCORE>
-5.81959

>  <SCORE.INTER>
-4.92933

>  <SCORE.INTER.CONST>
1

>  <SCORE.INTER.POLAR>
0

>  <SCORE.INTER.ROT>
5

>  <SCORE.INTER.SOLV>
17.3045

>  <SCORE.INTER.VDW>
-15.9877

>  <SCORE.INTER.norm>
-0.22406

>  <SCORE.INTRA>
-0.890262

>  <SCORE.INTRA.DIHEDRAL>
-0.525006

>  <SCORE.INTRA.DIHEDRAL.0>
3.49807

>  <SCORE.INTRA.POLAR>
0

>  <SCORE.INTRA.POLAR.0>
0

>  <SCORE.INTRA.REPUL>
0

>  <SCORE.INTRA.REPUL.0>
0

>  <SCORE.INTRA.SOLV>
-0.571133

>  <SCORE.INTRA.SOLV.lig_0>
-73.062

>  <SCORE.INTRA.VDW>
-0.342193

>  <SCORE.INTRA.VDW.0>
-1.83782

>  <SCORE.INTRA.norm>
-0.0404665

>  <SCORE.RESTR>
0

>  <SCORE.RESTR.CAVITY>
0

>  <SCORE.RESTR.norm>
0

>  <SCORE.SYSTEM>
0

>  <SCORE.SYSTEM.CONST>
0

>  <SCORE.SYSTEM.DIHEDRAL>
0

>  <SCORE.SYSTEM.SOLV>
0

>  <SCORE.SYSTEM.norm>
0

>  <SCORE.heavy>
22

>  <SCORE.norm>
-0.264527

>  <RMSD>
6.457

$$$$
ligand
 OpenBabel11021811513D
libRbt.so/2013.1/901 2013/11/27
 22 23  0  0  0  0  0  0  0  0999 V2000
  -28.3039    3.0764  -12.4221 N   0  0  0  0  0  0  0  0  0  0  0  0
  -30.3362    0.6945  -11.1380 C   0  0  1  0  0  0  0  0  0  0  0  0
  -30.1099    1.6583  -12.2057 O   0  0  0  0  0  0  0  0  0  0  0  0
  -32.6712    3.1455   -9.4565 P   0  0  1  0  0  0  0  0  0  0  0  0
  -28.6934    1.7530  -12.4266 C   0  0  2  0  0  0  0  0  0  0  0  0
  -27.9133    5.0989  -11.7378 N   0  0  0  0  0  0  0  0  0  0  0  0
  -26.7669    0.6613  -11.5364 O   0  0  0  0  0  0  0  0  0  0  0  0
  -28.0837    1.1334  -11.2286 C   0  0  2  0  0  0  0  0  0  0  0  0
  -25.5199    5.9393  -14.1950 N   0  0  0  0  0  0  0  0  0  0  0  0
  -28.8890   -1.0313  -11.7877 O   0  0  0  0  0  0  0  0  0  0  0  0
  -29.0196    0.0727  -10.8764 C   0  0  2  0  0  0  0  0  0  0  0  0
  -27.4794    4.9936  -13.0032 C   0  0  0  0  0  0  0  0  0  0  0  0
  -27.3924    3.1921  -14.7093 N   0  0  0  0  0  0  0  0  0  0  0  0
  -32.0113    2.0535  -10.3679 O   0  0  0  0  0  0  0  0  0  0  0  0
  -30.8245    1.4578   -9.9553 C   0  0  0  0  0  0  0  0  0  0  0  0
  -31.7047    4.3751   -9.6122 O   0  0  0  0  0  0  0  0  0  0  0  0
  -28.4308    3.9078  -11.3813 C   0  0  0  0  0  0  0  0  0  0  0  0
  -27.4839    7.0860  -14.0797 O   0  0  0  0  0  0  0  0  0  0  0  0
  -26.8511    6.0706  -13.7906 C   0  0  0  0  0  0  0  0  0  0  0  0
  -27.7191    3.7219  -13.4400 C   0  0  0  0  0  0  0  0  0  0  0  0
  -34.0717    3.3968   -9.9075 O   0  5  0  0  0  0  0  0  0  0  0  0
  -32.8888    2.6269   -8.0940 O   0  0  0  0  0  0  0  0  0  0  0  0
  1 17  1  0  0  0  0
  1 20  1  0  0  0  0
  2 15  1  1  0  0  0
  2  3  1  0  0  0  0
  2 11  1  0  0  0  0
  3  5  1  0  0  0  0
  4 16  1  1  0  0  0
  4 21  1  0  0  0  0
  4 22  2  0  0  0  0
  4 14  1  0  0  0  0
  5  1  1  1  0  0  0
  5  8  1  0  0  0  0
  6 17  2  0  0  0  0
  6 12  1  0  0  0  0
  8  7  1  6  0  0  0
  8 11  1  0  0  0  0
  9 19  1  0  0  0  0
 11 10  1  6  0  0  0
 12 20  2  0  0  0  0
 12 19  1  0  0  0  0
 13 20  1  0  0  0  0
 14 15  1  0  0  0  0
 18 19  2  0  0  0  0
M  CHG  1  21  -1
M  END
>  <CHROM.1>
61.56647105,61.06756429,71.43336316,-169.07356754,115.22113130,-29.51442137
2.93367668,-11.52001418,-0.44873673,-0.57745061,2.96900250

>  <Name>
ligand

>  <RI>
0

>  <Rbt.Current_Directory>
/home/itssahil/PROJECTS/Mol_Feturizer/New_Systems/rnas/4XWF

>  <Rbt.Executable>
rbdock ($Id: //depot/dev/client3/rdock/2013.1/src/exe/rbdock.cxx#4 $)

>  <Rbt.Library>
libRbt.so (2013.1, Build901 2013/11/27)

>  <Rbt.Parameter_File>
/export/apps/rDock/src/rDock_2013.1_src/data/scripts/dock_solv.prm

>  <Rbt.Receptor>
prm/pocket_docking_4.prm

>  <SCORE>
-6.22265

>  <SCORE.INTER>
-4.98809

>  <SCORE.INTER.CONST>
1

>  <SCORE.INTER.POLAR>
0

>  <SCORE.INTER.ROT>
5

>  <SCORE.INTER.SOLV>
15.3838

>  <SCORE.INTER.VDW>
-15.3867

>  <SCORE.INTER.norm>
-0.226732

>  <SCORE.INTRA>
-1.23455

>  <SCORE.INTRA.DIHEDRAL>
-1.21185

>  <SCORE.INTRA.DIHEDRAL.0>
3.49807

>  <SCORE.INTRA.POLAR>
0

>  <SCORE.INTRA.POLAR.0>
0

>  <SCORE.INTRA.REPUL>
0

>  <SCORE.INTRA.REPUL.0>
0

>  <SCORE.INTRA.SOLV>
-0.83846

>  <SCORE.INTRA.SOLV.lig_0>
-73.062

>  <SCORE.INTRA.VDW>
-0.209399

>  <SCORE.INTRA.VDW.0>
-1.83782

>  <SCORE.INTRA.norm>
-0.056116

>  <SCORE.RESTR>
0

>  <SCORE.RESTR.CAVITY>
0

>  <SCORE.RESTR.norm>
0

>  <SCORE.SYSTEM>
0

>  <SCORE.SYSTEM.CONST>
0

>  <SCORE.SYSTEM.DIHEDRAL>
0

>  <SCORE.SYSTEM.SOLV>
0

>  <SCORE.SYSTEM.norm>
0

>  <SCORE.heavy>
22

>  <SCORE.norm>
-0.282848

>  <RMSD>
6.461

$$$$
ligand
 OpenBabel11021811513D
libRbt.so/2013.1/901 2013/11/27
 22 23  0  0  0  0  0  0  0  0999 V2000
  -28.3616    3.2563  -11.6014 N   0  0  0  0  0  0  0  0  0  0  0  0
  -30.5757    0.7647  -11.0167 C   0  0  1  0  0  0  0  0  0  0  0  0
  -30.1775    1.8630  -11.8857 O   0  0  0  0  0  0  0  0  0  0  0  0
  -33.0346    3.1491   -9.4430 P   0  0  1  0  0  0  0  0  0  0  0  0
  -28.7440    1.9557  -11.8570 C   0  0  2  0  0  0  0  0  0  0  0  0
  -28.1937    5.1956  -10.6411 N   0  0  0  0  0  0  0  0  0  0  0  0
  -26.9895    0.7069  -10.8283 O   0  0  0  0  0  0  0  0  0  0  0  0
  -28.3394    1.1610  -10.6756 C   0  0  2  0  0  0  0  0  0  0  0  0
  -26.7618    6.9300  -13.3482 N   0  0  0  0  0  0  0  0  0  0  0  0
  -29.0400   -0.8855  -11.6596 O   0  0  0  0  0  0  0  0  0  0  0  0
  -29.3197    0.0829  -10.6347 C   0  0  2  0  0  0  0  0  0  0  0  0
  -27.3681    5.1790  -11.6988 C   0  0  0  0  0  0  0  0  0  0  0  0
  -26.7454    3.5256  -13.4430 N   0  0  0  0  0  0  0  0  0  0  0  0
  -32.3237    2.0863  -10.3506 O   0  0  0  0  0  0  0  0  0  0  0  0
  -31.2527    1.3658   -9.8334 C   0  0  0  0  0  0  0  0  0  0  0  0
  -32.0088    4.3397   -9.4135 O   0  0  0  0  0  0  0  0  0  0  0  0
  -28.8143    4.0017  -10.5866 C   0  0  0  0  0  0  0  0  0  0  0  0
  -25.5480    6.6483  -11.4421 O   0  0  0  0  0  0  0  0  0  0  0  0
  -26.5022    6.2909  -12.1328 C   0  0  0  0  0  0  0  0  0  0  0  0
  -27.4659    3.9599  -12.3068 C   0  0  0  0  0  0  0  0  0  0  0  0
  -34.3670    3.4929  -10.0213 O   0  5  0  0  0  0  0  0  0  0  0  0
  -33.4186    2.5576   -8.1487 O   0  0  0  0  0  0  0  0  0  0  0  0
  1 17  1  0  0  0  0
  1 20  1  0  0  0  0
  2 15  1  1  0  0  0
  2  3  1  0  0  0  0
  2 11  1  0  0  0  0
  3  5  1  0  0  0  0
  4 16  1  1  0  0  0
  4 21  1  0  0  0  0
  4 22  2  0  0  0  0
  4 14  1  0  0  0  0
  5  1  1  1  0  0  0
  5  8  1  0  0  0  0
  6 17  2  0  0  0  0
  6 12  1  0  0  0  0
  8  7  1  6  0  0  0
  8 11  1  0  0  0  0
  9 19  1  0  0  0  0
 11 10  1  6  0  0  0
 12 20  2  0  0  0  0
 12 19  1  0  0  0  0
 13 20  1  0  0  0  0
 14 15  1  0  0  0  0
 18 19  2  0  0  0  0
M  CHG  1  21  -1
M  END
>  <CHROM.1>
51.35823441,58.65560100,74.46775831,-164.10777742,-113.19540330,-29.62540441
3.03657731,-10.91808426,-0.38774878,-0.40543153,-3.12167898

>  <Name>
ligand

>  <RI>
0

>  <Rbt.Current_Directory>
/home/itssahil/PROJECTS/Mol_Feturizer/New_Systems/rnas/4XWF

>  <Rbt.Executable>
rbdock ($Id: //depot/dev/client3/rdock/2013.1/src/exe/rbdock.cxx#4 $)

>  <Rbt.Library>
libRbt.so (2013.1, Build901 2013/11/27)

>  <Rbt.Parameter_File>
/export/apps/rDock/src/rDock_2013.1_src/data/scripts/dock_solv.prm

>  <Rbt.Receptor>
prm/pocket_docking_4.prm

>  <SCORE>
-5.99107

>  <SCORE.INTER>
-4.93621

>  <SCORE.INTER.CONST>
1

>  <SCORE.INTER.POLAR>
0

>  <SCORE.INTER.ROT>
5

>  <SCORE.INTER.SOLV>
17.4093

>  <SCORE.INTER.VDW>
-16.0273

>  <SCORE.INTER.norm>
-0.224373

>  <SCORE.INTRA>
-1.05486

>  <SCORE.INTRA.DIHEDRAL>
-0.486664

>  <SCORE.INTRA.DIHEDRAL.0>
3.49807

>  <SCORE.INTRA.POLAR>
0

>  <SCORE.INTRA.POLAR.0>
0

>  <SCORE.INTRA.REPUL>
0

>  <SCORE.INTRA.REPUL.0>
0

>  <SCORE.INTRA.SOLV>
-0.559885

>  <SCORE.INTRA.SOLV.lig_0>
-73.062

>  <SCORE.INTRA.VDW>
-0.531588

>  <SCORE.INTRA.VDW.0>
-1.83782

>  <SCORE.INTRA.norm>
-0.0479483

>  <SCORE.RESTR>
0

>  <SCORE.RESTR.CAVITY>
0

>  <SCORE.RESTR.norm>
0

>  <SCORE.SYSTEM>
0

>  <SCORE.SYSTEM.CONST>
0

>  <SCORE.SYSTEM.DIHEDRAL>
0

>  <SCORE.SYSTEM.SOLV>
0

>  <SCORE.SYSTEM.norm>
0

>  <SCORE.heavy>
22

>  <SCORE.norm>
-0.272322

>  <RMSD>
6.472

$$$$
ligand
 OpenBabel11021811513D
libRbt.so/2013.1/901 2013/11/27
 22 23  0  0  0  0  0  0  0  0999 V2000
  -28.1888    3.3538  -11.2477 N   0  0  0  0  0  0  0  0  0  0  0  0
  -30.3937    0.7909  -11.0996 C   0  0  1  0  0  0  0  0  0  0  0  0
  -29.9485    1.9763  -11.8183 O   0  0  0  0  0  0  0  0  0  0  0  0
  -32.9001    3.0790   -9.4453 P   0  0  1  0  0  0  0  0  0  0  0  0
  -28.5240    2.0817  -11.6631 C   0  0  2  0  0  0  0  0  0  0  0  0
  -28.2908    5.2850  -10.2622 N   0  0  0  0  0  0  0  0  0  0  0  0
  -26.8338    0.7546  -10.6248 O   0  0  0  0  0  0  0  0  0  0  0  0
  -28.2002    1.1756  -10.5384 C   0  0  2  0  0  0  0  0  0  0  0  0
  -25.6560    6.7755  -12.1407 N   0  0  0  0  0  0  0  0  0  0  0  0
  -28.7795   -0.7679  -11.7771 O   0  0  0  0  0  0  0  0  0  0  0  0
  -29.1595    0.0879  -10.6865 C   0  0  2  0  0  0  0  0  0  0  0  0
  -27.1101    5.1989  -10.8941 C   0  0  0  0  0  0  0  0  0  0  0  0
  -25.9495    3.4885  -12.2693 N   0  0  0  0  0  0  0  0  0  0  0  0
  -32.1107    2.1528  -10.4341 O   0  0  0  0  0  0  0  0  0  0  0  0
  -31.1752    1.2609   -9.9213 C   0  0  0  0  0  0  0  0  0  0  0  0
  -34.3015    3.2340  -10.1399 O   0  0  0  0  0  0  0  0  0  0  0  0
  -28.9616    4.1395  -10.4888 C   0  0  0  0  0  0  0  0  0  0  0  0
  -25.5492    6.6318   -9.8705 O   0  0  0  0  0  0  0  0  0  0  0  0
  -26.0674    6.2415  -10.9165 C   0  0  0  0  0  0  0  0  0  0  0  0
  -27.0372    3.9844  -11.5145 C   0  0  0  0  0  0  0  0  0  0  0  0
  -32.9447    2.4482   -8.0933 O   0  5  0  0  0  0  0  0  0  0  0  0
  -32.1438    4.3138   -9.1698 O   0  0  0  0  0  0  0  0  0  0  0  0
  1 17  1  0  0  0  0
  1 20  1  0  0  0  0
  2 15  1  1  0  0  0
  2  3  1  0  0  0  0
  2 11  1  0  0  0  0
  3  5  1  0  0  0  0
  4 16  1  6  0  0  0
  4 21  1  0  0  0  0
  4 22  2  0  0  0  0
  4 14  1  0  0  0  0
  5  1  1  1  0  0  0
  5  8  1  0  0  0  0
  6 17  2  0  0  0  0
  6 12  1  0  0  0  0
  8  7  1  6  0  0  0
  8 11  1  0  0  0  0
  9 19  1  0  0  0  0
 11 10  1  6  0  0  0
 12 20  2  0  0  0  0
 12 19  1  0  0  0  0
 13 20  1  0  0  0  0
 14 15  1  0  0  0  0
 18 19  2  0  0  0  0
M  CHG  1  21  -1
M  END
>  <CHROM.1>
30.66824671,51.34356840,-147.15167354,-166.78031664,-120.60465500,-29.40069351
3.03376079,-10.58697131,-0.34739362,-0.30250531,-2.94726189

>  <Name>
ligand

>  <RI>
0

>  <Rbt.Current_Directory>
/home/itssahil/PROJECTS/Mol_Feturizer/New_Systems/rnas/4XWF

>  <Rbt.Executable>
rbdock ($Id: //depot/dev/client3/rdock/2013.1/src/exe/rbdock.cxx#4 $)

>  <Rbt.Library>
libRbt.so (2013.1, Build901 2013/11/27)

>  <Rbt.Parameter_File>
/export/apps/rDock/src/rDock_2013.1_src/data/scripts/dock_solv.prm

>  <Rbt.Receptor>
prm/pocket_docking_3.prm

>  <SCORE>
-5.34612

>  <SCORE.INTER>
-5.8401

>  <SCORE.INTER.CONST>
1

>  <SCORE.INTER.POLAR>
0

>  <SCORE.INTER.ROT>
5

>  <SCORE.INTER.SOLV>
11.2575

>  <SCORE.INTER.VDW>
-14.5792

>  <SCORE.INTER.norm>
-0.265459

>  <SCORE.INTRA>
0.452877

>  <SCORE.INTRA.DIHEDRAL>
0.332544

>  <SCORE.INTRA.DIHEDRAL.0>
3.49807

>  <SCORE.INTRA.POLAR>
0

>  <SCORE.INTRA.POLAR.0>
0

>  <SCORE.INTRA.REPUL>
0

>  <SCORE.INTRA.REPUL.0>
0

>  <SCORE.INTRA.SOLV>
1.13607

>  <SCORE.INTRA.SOLV.lig_0>
-73.062

>  <SCORE.INTRA.VDW>
-0.281431

>  <SCORE.INTRA.VDW.0>
-1.83782

>  <SCORE.INTRA.norm>
0.0205853

>  <SCORE.RESTR>
0.041096

>  <SCORE.RESTR.CAVITY>
0.041096

>  <SCORE.RESTR.norm>
0.001868

>  <SCORE.SYSTEM>
0

>  <SCORE.SYSTEM.CONST>
0

>  <SCORE.SYSTEM.DIHEDRAL>
0

>  <SCORE.SYSTEM.SOLV>
0

>  <SCORE.SYSTEM.norm>
0

>  <SCORE.heavy>
22

>  <SCORE.norm>
-0.243006

>  <RMSD>
6.482

$$$$
ligand
 OpenBabel11021811513D
libRbt.so/2013.1/901 2013/11/27
 22 23  0  0  0  0  0  0  0  0999 V2000
  -28.4409    3.4189  -11.3446 N   0  0  0  0  0  0  0  0  0  0  0  0
  -30.5927    0.8505  -10.8693 C   0  0  1  0  0  0  0  0  0  0  0  0
  -30.2350    2.0080  -11.6769 O   0  0  0  0  0  0  0  0  0  0  0  0
  -33.0856    3.0408   -9.0488 P   0  0  1  0  0  0  0  0  0  0  0  0
  -28.8033    2.1286  -11.6718 C   0  0  2  0  0  0  0  0  0  0  0  0
  -28.3477    5.3254  -10.3114 N   0  0  0  0  0  0  0  0  0  0  0  0
  -27.0028    0.8561  -10.7581 O   0  0  0  0  0  0  0  0  0  0  0  0
  -28.3577    1.2718  -10.5502 C   0  0  2  0  0  0  0  0  0  0  0  0
  -26.6121    7.6400  -10.8789 N   0  0  0  0  0  0  0  0  0  0  0  0
  -29.0394   -0.7249  -11.6438 O   0  0  0  0  0  0  0  0  0  0  0  0
  -29.3157    0.1729  -10.5557 C   0  0  2  0  0  0  0  0  0  0  0  0
  -27.4406    5.3399  -11.3001 C   0  0  0  0  0  0  0  0  0  0  0  0
  -26.6830    3.7415  -13.0421 N   0  0  0  0  0  0  0  0  0  0  0  0
  -32.2818    2.1863  -10.0892 O   0  0  0  0  0  0  0  0  0  0  0  0
  -31.2555    1.3640   -9.6376 C   0  0  0  0  0  0  0  0  0  0  0  0
  -34.2052    3.7123   -9.9241 O   0  0  0  0  0  0  0  0  0  0  0  0
  -28.9721    4.1327  -10.3452 C   0  0  0  0  0  0  0  0  0  0  0  0
  -25.7438    6.3738  -12.5608 O   0  0  0  0  0  0  0  0  0  0  0  0
  -26.5416    6.4620  -11.6275 C   0  0  0  0  0  0  0  0  0  0  0  0
  -27.4912    4.1415  -11.9533 C   0  0  0  0  0  0  0  0  0  0  0  0
  -33.5966    2.1565   -7.9603 O   0  5  0  0  0  0  0  0  0  0  0  0
  -32.1849    3.9373   -8.3020 O   0  0  0  0  0  0  0  0  0  0  0  0
  1 17  1  0  0  0  0
  1 20  1  0  0  0  0
  2 15  1  1  0  0  0
  2  3  1  0  0  0  0
  2 11  1  0  0  0  0
  3  5  1  0  0  0  0
  4 16  1  6  0  0  0
  4 21  1  0  0  0  0
  4 22  2  0  0  0  0
  4 14  1  0  0  0  0
  5  1  1  1  0  0  0
  5  8  1  0  0  0  0
  6 17  2  0  0  0  0
  6 12  1  0  0  0  0
  8  7  1  6  0  0  0
  8 11  1  0  0  0  0
  9 19  1  0  0  0  0
 11 10  1  6  0  0  0
 12 20  2  0  0  0  0
 12 19  1  0  0  0  0
 13 20  1  0  0  0  0
 14 15  1  0  0  0  0
 18 19  2  0  0  0  0
M  CHG  1  21  -1
M  END
>  <CHROM.1>
45.21565782,53.65560723,-175.27684599,-172.57273316,-0.66683838,-29.66582454
3.10508527,-10.60903447,-0.37248016,-0.43705190,-3.02668588

>  <Name>
ligand

>  <RI>
0

>  <Rbt.Current_Directory>
/home/itssahil/PROJECTS/Mol_Feturizer/New_Systems/rnas/4XWF

>  <Rbt.Executable>
rbdock ($Id: //depot/dev/client3/rdock/2013.1/src/exe/rbdock.cxx#4 $)

>  <Rbt.Library>
libRbt.so (2013.1, Build901 2013/11/27)

>  <Rbt.Parameter_File>
/export/apps/rDock/src/rDock_2013.1_src/data/scripts/dock_solv.prm

>  <Rbt.Receptor>
prm/pocket_docking_3.prm

>  <SCORE>
-6.65209

>  <SCORE.INTER>
-5.82395

>  <SCORE.INTER.CONST>
1

>  <SCORE.INTER.POLAR>
0

>  <SCORE.INTER.ROT>
5

>  <SCORE.INTER.SOLV>
9.96965

>  <SCORE.INTER.VDW>
-14.1392

>  <SCORE.INTER.norm>
-0.264725

>  <SCORE.INTRA>
-0.828296

>  <SCORE.INTRA.DIHEDRAL>
-1.58837

>  <SCORE.INTRA.DIHEDRAL.0>
3.49807

>  <SCORE.INTRA.POLAR>
0

>  <SCORE.INTRA.POLAR.0>
0

>  <SCORE.INTRA.REPUL>
0

>  <SCORE.INTRA.REPUL.0>
0

>  <SCORE.INTRA.SOLV>
0.363783

>  <SCORE.INTRA.SOLV.lig_0>
-73.062

>  <SCORE.INTRA.VDW>
-0.216

>  <SCORE.INTRA.VDW.0>
-1.83782

>  <SCORE.INTRA.norm>
-0.0376498

>  <SCORE.RESTR>
0.000153682

>  <SCORE.RESTR.CAVITY>
0.000153682

>  <SCORE.RESTR.norm>
6.98556e-06

>  <SCORE.SYSTEM>
0

>  <SCORE.SYSTEM.CONST>
0

>  <SCORE.SYSTEM.DIHEDRAL>
0

>  <SCORE.SYSTEM.SOLV>
0

>  <SCORE.SYSTEM.norm>
0

>  <SCORE.heavy>
22

>  <SCORE.norm>
-0.302368

>  <RMSD>
6.484

$$$$
ligand
 OpenBabel11021811513D
libRbt.so/2013.1/901 2013/11/27
 22 23  0  0  0  0  0  0  0  0999 V2000
  -28.6961    3.4815  -10.9735 N   0  0  0  0  0  0  0  0  0  0  0  0
  -30.8439    0.8799  -10.7073 C   0  0  1  0  0  0  0  0  0  0  0  0
  -30.4524    2.0663  -11.4551 O   0  0  0  0  0  0  0  0  0  0  0  0
  -33.2721    3.1757   -8.9454 P   0  0  1  0  0  0  0  0  0  0  0  0
  -29.0248    2.1995  -11.3626 C   0  0  2  0  0  0  0  0  0  0  0  0
  -28.7347    5.3826   -9.9267 N   0  0  0  0  0  0  0  0  0  0  0  0
  -27.2667    0.9140  -10.3867 O   0  0  0  0  0  0  0  0  0  0  0  0
  -28.6359    1.3105  -10.2450 C   0  0  2  0  0  0  0  0  0  0  0  0
  -26.8868    7.6643  -10.1921 N   0  0  0  0  0  0  0  0  0  0  0  0
  -29.2312   -0.6554  -11.4401 O   0  0  0  0  0  0  0  0  0  0  0  0
  -29.5799    0.2039  -10.3417 C   0  0  2  0  0  0  0  0  0  0  0  0
  -27.6810    5.3831  -10.7575 C   0  0  0  0  0  0  0  0  0  0  0  0
  -26.6837    3.7764  -12.3660 N   0  0  0  0  0  0  0  0  0  0  0  0
  -32.5112    2.2679   -9.9728 O   0  0  0  0  0  0  0  0  0  0  0  0
  -31.5825    1.3468   -9.5005 C   0  0  0  0  0  0  0  0  0  0  0  0
  -34.4190    3.8134   -9.8105 O   0  0  0  0  0  0  0  0  0  0  0  0
  -29.3673    4.2020  -10.0675 C   0  0  0  0  0  0  0  0  0  0  0  0
  -25.7877    6.3901  -11.7264 O   0  0  0  0  0  0  0  0  0  0  0  0
  -26.7209    6.4891  -10.9299 C   0  0  0  0  0  0  0  0  0  0  0  0
  -27.6482    4.1881  -11.4180 C   0  0  0  0  0  0  0  0  0  0  0  0
  -33.7481    2.3470   -7.7989 O   0  5  0  0  0  0  0  0  0  0  0  0
  -32.3402    4.0998   -8.2745 O   0  0  0  0  0  0  0  0  0  0  0  0
  1 17  1  0  0  0  0
  1 20  1  0  0  0  0
  2 15  1  1  0  0  0
  2  3  1  0  0  0  0
  2 11  1  0  0  0  0
  3  5  1  0  0  0  0
  4 16  1  6  0  0  0
  4 21  1  0  0  0  0
  4 22  2  0  0  0  0
  4 14  1  0  0  0  0
  5  1  1  1  0  0  0
  5  8  1  0  0  0  0
  6 17  2  0  0  0  0
  6 12  1  0  0  0  0
  8  7  1  6  0  0  0
  8 11  1  0  0  0  0
  9 19  1  0  0  0  0
 11 10  1  6  0  0  0
 12 20  2  0  0  0  0
 12 19  1  0  0  0  0
 13 20  1  0  0  0  0
 14 15  1  0  0  0  0
 18 19  2  0  0  0  0
M  CHG  1  21  -1
M  END
>  <CHROM.1>
38.92227863,48.40865874,-167.80381826,-167.90917000,-0.49178599,-29.88329071
3.17402526,-10.28954587,-0.36981208,-0.37533344,-2.97954007

>  <Name>
ligand

>  <RI>
0

>  <Rbt.Current_Directory>
/home/itssahil/PROJECTS/Mol_Feturizer/New_Systems/rnas/4XWF

>  <Rbt.Executable>
rbdock ($Id: //depot/dev/client3/rdock/2013.1/src/exe/rbdock.cxx#4 $)

>  <Rbt.Library>
libRbt.so (2013.1, Build901 2013/11/27)

>  <Rbt.Parameter_File>
/export/apps/rDock/src/rDock_2013.1_src/data/scripts/dock_solv.prm

>  <Rbt.Receptor>
prm/pocket_docking_3.prm

>  <SCORE>
-6.73228

>  <SCORE.INTER>
-6.46735

>  <SCORE.INTER.CONST>
1

>  <SCORE.INTER.POLAR>
0

>  <SCORE.INTER.ROT>
5

>  <SCORE.INTER.SOLV>
10.7431

>  <SCORE.INTER.VDW>
-14.8259

>  <SCORE.INTER.norm>
-0.29397

>  <SCORE.INTRA>
-0.264929

>  <SCORE.INTRA.DIHEDRAL>
-0.686191

>  <SCORE.INTRA.DIHEDRAL.0>
3.49807

>  <SCORE.INTRA.POLAR>
0

>  <SCORE.INTRA.POLAR.0>
0

>  <SCORE.INTRA.REPUL>
0

>  <SCORE.INTRA.REPUL.0>
0

>  <SCORE.INTRA.SOLV>
0.777267

>  <SCORE.INTRA.SOLV.lig_0>
-73.062

>  <SCORE.INTRA.VDW>
-0.310467

>  <SCORE.INTRA.VDW.0>
-1.83782

>  <SCORE.INTRA.norm>
-0.0120422

>  <SCORE.RESTR>
0

>  <SCORE.RESTR.CAVITY>
0

>  <SCORE.RESTR.norm>
0

>  <SCORE.SYSTEM>
0

>  <SCORE.SYSTEM.CONST>
0

>  <SCORE.SYSTEM.DIHEDRAL>
0

>  <SCORE.SYSTEM.SOLV>
0

>  <SCORE.SYSTEM.norm>
0

>  <SCORE.heavy>
22

>  <SCORE.norm>
-0.306013

>  <RMSD>
6.488

$$$$
ligand
 OpenBabel11021811513D
libRbt.so/2013.1/901 2013/11/27
 22 23  0  0  0  0  0  0  0  0999 V2000
  -28.3053    3.3649  -11.5781 N   0  0  0  0  0  0  0  0  0  0  0  0
  -30.3833    0.7378  -11.0960 C   0  0  1  0  0  0  0  0  0  0  0  0
  -30.0687    1.9127  -11.8962 O   0  0  0  0  0  0  0  0  0  0  0  0
  -32.9321    2.8040   -9.2061 P   0  0  1  0  0  0  0  0  0  0  0  0
  -28.6406    2.0696  -11.9139 C   0  0  2  0  0  0  0  0  0  0  0  0
  -28.2382    5.2598  -10.5216 N   0  0  0  0  0  0  0  0  0  0  0  0
  -26.7933    0.8331  -11.0452 O   0  0  0  0  0  0  0  0  0  0  0  0
  -28.1545    1.2120  -10.8098 C   0  0  2  0  0  0  0  0  0  0  0  0
  -26.6408    7.6572  -11.1555 N   0  0  0  0  0  0  0  0  0  0  0  0
  -28.8043   -0.7891  -11.9145 O   0  0  0  0  0  0  0  0  0  0  0  0
  -29.0844    0.0894  -10.8117 C   0  0  2  0  0  0  0  0  0  0  0  0
  -27.3564    5.3118  -11.5318 C   0  0  0  0  0  0  0  0  0  0  0  0
  -26.5991    3.7573  -13.3132 N   0  0  0  0  0  0  0  0  0  0  0  0
  -32.1001    2.0107  -10.2724 O   0  0  0  0  0  0  0  0  0  0  0  0
  -31.0376    1.2206   -9.8475 C   0  0  0  0  0  0  0  0  0  0  0  0
  -34.1303    3.3821  -10.0431 O   0  0  0  0  0  0  0  0  0  0  0  0
  -28.8308    4.0510  -10.5565 C   0  0  0  0  0  0  0  0  0  0  0  0
  -25.6667    6.3821  -12.7714 O   0  0  0  0  0  0  0  0  0  0  0  0
  -26.4964    6.4623  -11.8657 C   0  0  0  0  0  0  0  0  0  0  0  0
  -27.3907    4.1211  -12.1998 C   0  0  0  0  0  0  0  0  0  0  0  0
  -33.3345    1.8871   -8.0992 O   0  5  0  0  0  0  0  0  0  0  0  0
  -32.0793    3.7714   -8.4923 O   0  0  0  0  0  0  0  0  0  0  0  0
  1 17  1  0  0  0  0
  1 20  1  0  0  0  0
  2 15  1  1  0  0  0
  2  3  1  0  0  0  0
  2 11  1  0  0  0  0
  3  5  1  0  0  0  0
  4 16  1  6  0  0  0
  4 21  1  0  0  0  0
  4 22  2  0  0  0  0
  4 14  1  0  0  0  0
  5  1  1  1  0  0  0
  5  8  1  0  0  0  0
  6 17  2  0  0  0  0
  6 12  1  0  0  0  0
  8  7  1  6  0  0  0
  8 11  1  0  0  0  0
  9 19  1  0  0  0  0
 11 10  1  6  0  0  0
 12 20  2  0  0  0  0
 12 19  1  0  0  0  0
 13 20  1  0  0  0  0
 14 15  1  0  0  0  0
 18 19  2  0  0  0  0
M  CHG  1  21  -1
M  END
>  <CHROM.1>
45.67199291,54.24260288,-172.14934159,-174.01392538,-4.77449258,-29.52006748
3.00159164,-10.82646585,-0.40076820,-0.45563671,-3.02953998

>  <Name>
ligand

>  <RI>
0

>  <Rbt.Current_Directory>
/home/itssahil/PROJECTS/Mol_Feturizer/New_Systems/rnas/4XWF

>  <Rbt.Executable>
rbdock ($Id: //depot/dev/client3/rdock/2013.1/src/exe/rbdock.cxx#4 $)

>  <Rbt.Library>
libRbt.so (2013.1, Build901 2013/11/27)

>  <Rbt.Parameter_File>
/export/apps/rDock/src/rDock_2013.1_src/data/scripts/dock_solv.prm

>  <Rbt.Receptor>
prm/pocket_docking_3.prm

>  <SCORE>
-6.76422

>  <SCORE.INTER>
-5.90749

>  <SCORE.INTER.CONST>
1

>  <SCORE.INTER.POLAR>
0

>  <SCORE.INTER.ROT>
5

>  <SCORE.INTER.SOLV>
9.62851

>  <SCORE.INTER.VDW>
-14.0812

>  <SCORE.INTER.norm>
-0.268522

>  <SCORE.INTRA>
-0.856729

>  <SCORE.INTRA.DIHEDRAL>
-1.63386

>  <SCORE.INTRA.DIHEDRAL.0>
3.49807

>  <SCORE.INTRA.POLAR>
0

>  <SCORE.INTRA.POLAR.0>
0

>  <SCORE.INTRA.REPUL>
0

>  <SCORE.INTRA.REPUL.0>
0

>  <SCORE.INTRA.SOLV>
0.313848

>  <SCORE.INTRA.SOLV.lig_0>
-73.062

>  <SCORE.INTRA.VDW>
-0.196725

>  <SCORE.INTRA.VDW.0>
-1.83782

>  <SCORE.INTRA.norm>
-0.0389422

>  <SCORE.RESTR>
0

>  <SCORE.RESTR.CAVITY>
0

>  <SCORE.RESTR.norm>
0

>  <SCORE.SYSTEM>
0

>  <SCORE.SYSTEM.CONST>
0

>  <SCORE.SYSTEM.DIHEDRAL>
0

>  <SCORE.SYSTEM.SOLV>
0

>  <SCORE.SYSTEM.norm>
0

>  <SCORE.heavy>
22

>  <SCORE.norm>
-0.307464

>  <RMSD>
6.488

$$$$
ligand
 OpenBabel11021811513D
libRbt.so/2013.1/901 2013/11/27
 22 23  0  0  0  0  0  0  0  0999 V2000
  -34.4781    5.0600   -7.5179 N   0  0  0  0  0  0  0  0  0  0  0  0
  -31.2122    4.7286   -8.3402 C   0  0  1  0  0  0  0  0  0  0  0  0
  -32.1990    4.8046   -7.2724 O   0  0  0  0  0  0  0  0  0  0  0  0
  -30.1347    8.3312   -7.8732 P   0  0  1  0  0  0  0  0  0  0  0  0
  -33.4168    4.2094   -7.7489 C   0  0  2  0  0  0  0  0  0  0  0  0
  -35.8408    6.7393   -7.7027 N   0  0  0  0  0  0  0  0  0  0  0  0
  -34.0869    3.1071   -9.7569 O   0  0  0  0  0  0  0  0  0  0  0  0
  -33.2505    4.1376   -9.2179 C   0  0  2  0  0  0  0  0  0  0  0  0
  -37.5722    7.1744   -5.0146 N   0  0  0  0  0  0  0  0  0  0  0  0
  -31.5161    2.5203   -9.0653 O   0  0  0  0  0  0  0  0  0  0  0  0
  -31.8250    3.8860   -9.3904 C   0  0  2  0  0  0  0  0  0  0  0  0
  -36.3079    5.9242   -6.7446 C   0  0  0  0  0  0  0  0  0  0  0  0
  -35.5983    3.7657   -5.7443 N   0  0  0  0  0  0  0  0  0  0  0  0
  -30.4739    6.8076   -7.7248 O   0  0  0  0  0  0  0  0  0  0  0  0
  -30.9801    6.1193   -8.8220 C   0  0  0  0  0  0  0  0  0  0  0  0
  -29.0624    8.3500   -9.0223 O   0  0  0  0  0  0  0  0  0  0  0  0
  -34.7003    6.2029   -8.1773 C   0  0  0  0  0  0  0  0  0  0  0  0
  -38.5119    5.4079   -6.1018 O   0  0  0  0  0  0  0  0  0  0  0  0
  -37.5333    6.1395   -5.9529 C   0  0  0  0  0  0  0  0  0  0  0  0
  -35.4568    4.8629   -6.6245 C   0  0  0  0  0  0  0  0  0  0  0  0
  -31.3803    9.0962   -8.1751 O   0  5  0  0  0  0  0  0  0  0  0  0
  -29.7419    8.9078   -6.5748 O   0  0  0  0  0  0  0  0  0  0  0  0
  1 17  1  0  0  0  0
  1 20  1  0  0  0  0
  2 15  1  6  0  0  0
  2  3  1  0  0  0  0
  2 11  1  0  0  0  0
  3  5  1  0  0  0  0
  4 16  1  6  0  0  0
  4 21  1  0  0  0  0
  4 22  2  0  0  0  0
  4 14  1  0  0  0  0
  5  1  1  6  0  0  0
  5  8  1  0  0  0  0
  6 17  2  0  0  0  0
  6 12  1  0  0  0  0
  8  7  1  1  0  0  0
  8 11  1  0  0  0  0
  9 19  1  0  0  0  0
 11 10  1  1  0  0  0
 12 20  2  0  0  0  0
 12 19  1  0  0  0  0
 13 20  1  0  0  0  0
 14 15  1  0  0  0  0
 18 19  2  0  0  0  0
M  CHG  1  21  -1
M  END
>  <CHROM.1>
71.50150561,61.83294599,-59.40360785,-178.98604143,-69.47848596,-33.13864013
5.90933548,-7.69443883,-2.94034677,0.34391193,0.37811297

>  <Name>
ligand

>  <RI>
0

>  <Rbt.Current_Directory>
/home/itssahil/PROJECTS/Mol_Feturizer/New_Systems/rnas/4XWF

>  <Rbt.Executable>
rbdock ($Id: //depot/dev/client3/rdock/2013.1/src/exe/rbdock.cxx#4 $)

>  <Rbt.Library>
libRbt.so (2013.1, Build901 2013/11/27)

>  <Rbt.Parameter_File>
/export/apps/rDock/src/rDock_2013.1_src/data/scripts/dock_solv.prm

>  <Rbt.Receptor>
prm/pocket_docking_8.prm

>  <SCORE>
-7.45635

>  <SCORE.INTER>
-7.06476

>  <SCORE.INTER.CONST>
1

>  <SCORE.INTER.POLAR>
0

>  <SCORE.INTER.ROT>
5

>  <SCORE.INTER.SOLV>
11.0309

>  <SCORE.INTER.VDW>
-15.3201

>  <SCORE.INTER.norm>
-0.321125

>  <SCORE.INTRA>
-0.391589

>  <SCORE.INTRA.DIHEDRAL>
-0.37235

>  <SCORE.INTRA.DIHEDRAL.0>
3.49807

>  <SCORE.INTRA.POLAR>
0

>  <SCORE.INTRA.POLAR.0>
0

>  <SCORE.INTRA.REPUL>
0

>  <SCORE.INTRA.REPUL.0>
0

>  <SCORE.INTRA.SOLV>
-1.24223

>  <SCORE.INTRA.SOLV.lig_0>
-73.062

>  <SCORE.INTRA.VDW>
0.4157

>  <SCORE.INTRA.VDW.0>
-1.83782

>  <SCORE.INTRA.norm>
-0.0177995

>  <SCORE.RESTR>
0

>  <SCORE.RESTR.CAVITY>
0

>  <SCORE.RESTR.norm>
0

>  <SCORE.SYSTEM>
0

>  <SCORE.SYSTEM.CONST>
0

>  <SCORE.SYSTEM.DIHEDRAL>
0

>  <SCORE.SYSTEM.SOLV>
0

>  <SCORE.SYSTEM.norm>
0

>  <SCORE.heavy>
22

>  <SCORE.norm>
-0.338925

>  <RMSD>
6.488

$$$$
ligand
 OpenBabel11021811513D
libRbt.so/2013.1/901 2013/11/27
 22 23  0  0  0  0  0  0  0  0999 V2000
  -28.8515    2.2689  -12.1487 N   0  0  0  0  0  0  0  0  0  0  0  0
  -30.2481    2.9589   -9.1444 C   0  0  1  0  0  0  0  0  0  0  0  0
  -29.5433    1.9859   -9.9667 O   0  0  0  0  0  0  0  0  0  0  0  0
  -33.8636    3.8092   -8.5899 P   0  0  1  0  0  0  0  0  0  0  0  0
  -28.6677    2.7027  -10.8521 C   0  0  2  0  0  0  0  0  0  0  0  0
  -29.6645    1.2211  -13.8669 N   0  0  0  0  0  0  0  0  0  0  0  0
  -28.0923    4.9971  -11.1687 O   0  0  0  0  0  0  0  0  0  0  0  0
  -29.1498    4.1014  -10.8066 C   0  0  2  0  0  0  0  0  0  0  0  0
  -28.5972    3.3417  -16.4050 N   0  0  0  0  0  0  0  0  0  0  0  0
  -28.4879    4.3848   -8.5419 O   0  0  0  0  0  0  0  0  0  0  0  0
  -29.6095    4.2618   -9.4326 C   0  0  2  0  0  0  0  0  0  0  0  0
  -28.6903    2.0378  -14.2966 C   0  0  0  0  0  0  0  0  0  0  0  0
  -27.1475    3.6734  -13.2440 N   0  0  0  0  0  0  0  0  0  0  0  0
  -32.3085    3.8884   -8.7740 O   0  0  0  0  0  0  0  0  0  0  0  0
  -31.6749    2.9432   -9.5734 C   0  0  0  0  0  0  0  0  0  0  0  0
  -34.3876    3.5843  -10.0546 O   0  0  0  0  0  0  0  0  0  0  0  0
  -29.7584    1.3623  -12.5310 C   0  0  0  0  0  0  0  0  0  0  0  0
  -27.5900    1.3057  -16.2436 O   0  0  0  0  0  0  0  0  0  0  0  0
  -28.2483    2.1895  -15.6953 C   0  0  0  0  0  0  0  0  0  0  0  0
  -28.1756    2.7032  -13.2207 C   0  0  0  0  0  0  0  0  0  0  0  0
  -34.2012    2.7124   -7.6354 O   0  5  0  0  0  0  0  0  0  0  0  0
  -34.3651    4.9927   -7.8684 O   0  0  0  0  0  0  0  0  0  0  0  0
  1 17  1  0  0  0  0
  1 20  1  0  0  0  0
  2 15  1  6  0  0  0
  2  3  1  0  0  0  0
  2 11  1  0  0  0  0
  3  5  1  0  0  0  0
  4 16  1  6  0  0  0
  4 21  1  0  0  0  0
  4 22  2  0  0  0  0
  4 14  1  0  0  0  0
  5  1  1  6  0  0  0
  5  8  1  0  0  0  0
  6 17  2  0  0  0  0
  6 12  1  0  0  0  0
  8  7  1  1  0  0  0
  8 11  1  0  0  0  0
  9 19  1  0  0  0  0
 11 10  1  1  0  0  0
 12 20  2  0  0  0  0
 12 19  1  0  0  0  0
 13 20  1  0  0  0  0
 14 15  1  0  0  0  0
 18 19  2  0  0  0  0
M  CHG  1  21  -1
M  END
>  <CHROM.1>
3.05789276,-179.59261699,-45.95961079,-159.20228761,106.09558867,-30.34798612
3.14213112,-11.11188015,-0.86710817,0.17088150,1.20023314

>  <Name>
ligand

>  <RI>
0

>  <Rbt.Current_Directory>
/home/itssahil/PROJECTS/Mol_Feturizer/New_Systems/rnas/4XWF

>  <Rbt.Executable>
rbdock ($Id: //depot/dev/client3/rdock/2013.1/src/exe/rbdock.cxx#4 $)

>  <Rbt.Library>
libRbt.so (2013.1, Build901 2013/11/27)

>  <Rbt.Parameter_File>
/export/apps/rDock/src/rDock_2013.1_src/data/scripts/dock_solv.prm

>  <Rbt.Receptor>
prm/pocket_docking_5.prm

>  <SCORE>
-6.66524

>  <SCORE.INTER>
-8.13195

>  <SCORE.INTER.CONST>
1

>  <SCORE.INTER.POLAR>
0

>  <SCORE.INTER.ROT>
5

>  <SCORE.INTER.SOLV>
13.6547

>  <SCORE.INTER.VDW>
-16.9062

>  <SCORE.INTER.norm>
-0.369634

>  <SCORE.INTRA>
1.4667

>  <SCORE.INTRA.DIHEDRAL>
0.401088

>  <SCORE.INTRA.DIHEDRAL.0>
3.49807

>  <SCORE.INTRA.POLAR>
0

>  <SCORE.INTRA.POLAR.0>
0

>  <SCORE.INTRA.REPUL>
0

>  <SCORE.INTRA.REPUL.0>
0

>  <SCORE.INTRA.SOLV>
1.08669

>  <SCORE.INTRA.SOLV.lig_0>
-73.062

>  <SCORE.INTRA.VDW>
0.722811

>  <SCORE.INTRA.VDW.0>
-1.83782

>  <SCORE.INTRA.norm>
0.0666682

>  <SCORE.RESTR>
0

>  <SCORE.RESTR.CAVITY>
0

>  <SCORE.RESTR.norm>
0

>  <SCORE.SYSTEM>
0

>  <SCORE.SYSTEM.CONST>
0

>  <SCORE.SYSTEM.DIHEDRAL>
0

>  <SCORE.SYSTEM.SOLV>
0

>  <SCORE.SYSTEM.norm>
0

>  <SCORE.heavy>
22

>  <SCORE.norm>
-0.302966

>  <RMSD>
6.495

$$$$
ligand
 OpenBabel11021811513D
libRbt.so/2013.1/901 2013/11/27
 22 23  0  0  0  0  0  0  0  0999 V2000
  -32.0824    4.8958   -8.4475 N   0  0  0  0  0  0  0  0  0  0  0  0
  -31.0140    1.8706   -9.5239 C   0  0  1  0  0  0  0  0  0  0  0  0
  -31.0210    2.8481   -8.4449 O   0  0  0  0  0  0  0  0  0  0  0  0
  -28.7415    1.3456  -12.4973 P   0  0  1  0  0  0  0  0  0  0  0  0
  -32.2846    3.5314   -8.4719 C   0  0  2  0  0  0  0  0  0  0  0  0
  -31.2175    6.8499   -8.8277 N   0  0  0  0  0  0  0  0  0  0  0  0
  -34.2802    3.3443   -9.7675 O   0  0  0  0  0  0  0  0  0  0  0  0
  -32.8539    3.2167   -9.8014 C   0  0  2  0  0  0  0  0  0  0  0  0
  -34.2191    8.6051   -7.8271 N   0  0  0  0  0  0  0  0  0  0  0  0
  -33.1407    0.9182   -9.2702 O   0  0  0  0  0  0  0  0  0  0  0  0
  -32.3927    1.8581  -10.0598 C   0  0  2  0  0  0  0  0  0  0  0  0
  -32.3307    7.0193   -8.0978 C   0  0  0  0  0  0  0  0  0  0  0  0
  -34.0747    5.5325   -7.1432 N   0  0  0  0  0  0  0  0  0  0  0  0
  -29.8988    1.2967  -11.4405 O   0  0  0  0  0  0  0  0  0  0  0  0
  -30.0366    2.3489  -10.5418 C   0  0  0  0  0  0  0  0  0  0  0  0
  -27.4514    1.4863  -11.6105 O   0  0  0  0  0  0  0  0  0  0  0  0
  -31.0623    5.5289   -9.0384 C   0  0  0  0  0  0  0  0  0  0  0  0
  -32.1312    9.1359   -7.0891 O   0  0  0  0  0  0  0  0  0  0  0  0
  -32.8667    8.3118   -7.6322 C   0  0  0  0  0  0  0  0  0  0  0  0
  -32.8826    5.7935   -7.8570 C   0  0  0  0  0  0  0  0  0  0  0  0
  -28.7813    0.1165  -13.3432 O   0  5  0  0  0  0  0  0  0  0  0  0
  -28.9911    2.3998  -13.4968 O   0  0  0  0  0  0  0  0  0  0  0  0
  1 17  1  0  0  0  0
  1 20  1  0  0  0  0
  2 15  1  6  0  0  0
  2  3  1  0  0  0  0
  2 11  1  0  0  0  0
  3  5  1  0  0  0  0
  4 16  1  1  0  0  0
  4 21  1  0  0  0  0
  4 22  2  0  0  0  0
  4 14  1  0  0  0  0
  5  1  1  6  0  0  0
  5  8  1  0  0  0  0
  6 17  2  0  0  0  0
  6 12  1  0  0  0  0
  8  7  1  1  0  0  0
  8 11  1  0  0  0  0
  9 19  1  0  0  0  0
 11 10  1  1  0  0  0
 12 20  2  0  0  0  0
 12 19  1  0  0  0  0
 13 20  1  0  0  0  0
 14 15  1  0  0  0  0
 18 19  2  0  0  0  0
M  CHG  1  21  -1
M  END
>  <CHROM.1>
34.92613209,170.71595672,57.15407449,-168.54167919,131.27283463,-31.32498235
3.76254757,-9.79115971,2.13768803,0.54251528,0.31877962

>  <Name>
ligand

>  <RI>
0

>  <Rbt.Current_Directory>
/home/itssahil/PROJECTS/Mol_Feturizer/New_Systems/rnas/4XWF

>  <Rbt.Executable>
rbdock ($Id: //depot/dev/client3/rdock/2013.1/src/exe/rbdock.cxx#4 $)

>  <Rbt.Library>
libRbt.so (2013.1, Build901 2013/11/27)

>  <Rbt.Parameter_File>
/export/apps/rDock/src/rDock_2013.1_src/data/scripts/dock_solv.prm

>  <Rbt.Receptor>
prm/pocket_docking_7.prm

>  <SCORE>
-6.33916

>  <SCORE.INTER>
-5.59931

>  <SCORE.INTER.CONST>
1

>  <SCORE.INTER.POLAR>
0

>  <SCORE.INTER.ROT>
5

>  <SCORE.INTER.SOLV>
16.3124

>  <SCORE.INTER.VDW>
-16.1037

>  <SCORE.INTER.norm>
-0.254514

>  <SCORE.INTRA>
-0.743086

>  <SCORE.INTRA.DIHEDRAL>
-0.926711

>  <SCORE.INTRA.DIHEDRAL.0>
3.49807

>  <SCORE.INTRA.POLAR>
0

>  <SCORE.INTRA.POLAR.0>
0

>  <SCORE.INTRA.REPUL>
0

>  <SCORE.INTRA.REPUL.0>
0

>  <SCORE.INTRA.SOLV>
-0.127429

>  <SCORE.INTRA.SOLV.lig_0>
-73.062

>  <SCORE.INTRA.VDW>
-0.216016

>  <SCORE.INTRA.VDW.0>
-1.83782

>  <SCORE.INTRA.norm>
-0.0337766

>  <SCORE.RESTR>
0.00323268

>  <SCORE.RESTR.CAVITY>
0.00323268

>  <SCORE.RESTR.norm>
0.00014694

>  <SCORE.SYSTEM>
0

>  <SCORE.SYSTEM.CONST>
0

>  <SCORE.SYSTEM.DIHEDRAL>
0

>  <SCORE.SYSTEM.SOLV>
0

>  <SCORE.SYSTEM.norm>
0

>  <SCORE.heavy>
22

>  <SCORE.norm>
-0.288144

>  <RMSD>
6.495

$$$$
ligand
 OpenBabel11021811513D
libRbt.so/2013.1/901 2013/11/27
 22 23  0  0  0  0  0  0  0  0999 V2000
  -28.6066    3.5088  -11.0627 N   0  0  0  0  0  0  0  0  0  0  0  0
  -30.7719    0.9275  -10.7452 C   0  0  1  0  0  0  0  0  0  0  0  0
  -30.3825    2.1056  -11.5069 O   0  0  0  0  0  0  0  0  0  0  0  0
  -33.2556    3.1637   -8.9824 P   0  0  1  0  0  0  0  0  0  0  0  0
  -28.9525    2.2271  -11.4381 C   0  0  2  0  0  0  0  0  0  0  0  0
  -28.6140    5.4178  -10.0298 N   0  0  0  0  0  0  0  0  0  0  0  0
  -27.1900    0.9328  -10.4819 O   0  0  0  0  0  0  0  0  0  0  0  0
  -28.5532    1.3420  -10.3210 C   0  0  2  0  0  0  0  0  0  0  0  0
  -26.7474    7.6793  -10.3349 N   0  0  0  0  0  0  0  0  0  0  0  0
  -29.1844   -0.6263  -11.4935 O   0  0  0  0  0  0  0  0  0  0  0  0
  -29.5081    0.2430  -10.3953 C   0  0  2  0  0  0  0  0  0  0  0  0
  -27.5707    5.4020  -10.8736 C   0  0  0  0  0  0  0  0  0  0  0  0
  -26.6090    3.7738  -12.4822 N   0  0  0  0  0  0  0  0  0  0  0  0
  -32.4818    2.2580  -10.0020 O   0  0  0  0  0  0  0  0  0  0  0  0
  -31.4872    1.4086   -9.5298 C   0  0  0  0  0  0  0  0  0  0  0  0
  -34.3790    3.8190   -9.8651 O   0  0  0  0  0  0  0  0  0  0  0  0
  -29.2595    4.2424  -10.1539 C   0  0  0  0  0  0  0  0  0  0  0  0
  -25.6803    6.3836  -11.8737 O   0  0  0  0  0  0  0  0  0  0  0  0
  -26.6023    6.4973  -11.0662 C   0  0  0  0  0  0  0  0  0  0  0  0
  -27.5576    4.2019  -11.5254 C   0  0  0  0  0  0  0  0  0  0  0  0
  -33.7621    2.3294   -7.8531 O   0  5  0  0  0  0  0  0  0  0  0  0
  -32.3296    4.0737   -8.2846 O   0  0  0  0  0  0  0  0  0  0  0  0
  1 17  1  0  0  0  0
  1 20  1  0  0  0  0
  2 15  1  1  0  0  0
  2  3  1  0  0  0  0
  2 11  1  0  0  0  0
  3  5  1  0  0  0  0
  4 16  1  6  0  0  0
  4 21  1  0  0  0  0
  4 22  2  0  0  0  0
  4 14  1  0  0  0  0
  5  1  1  1  0  0  0
  5  8  1  0  0  0  0
  6 17  2  0  0  0  0
  6 12  1  0  0  0  0
  8  7  1  6  0  0  0
  8 11  1  0  0  0  0
  9 19  1  0  0  0  0
 11 10  1  6  0  0  0
 12 20  2  0  0  0  0
 12 19  1  0  0  0  0
 13 20  1  0  0  0  0
 14 15  1  0  0  0  0
 18 19  2  0  0  0  0
M  CHG  1  21  -1
M  END
>  <CHROM.1>
38.70210056,52.75240361,-173.41386446,-168.25924145,-0.46958137,-29.81437679
3.18906138,-10.36347225,-0.35951373,-0.38176264,-2.98523888

>  <Name>
ligand

>  <RI>
0

>  <Rbt.Current_Directory>
/home/itssahil/PROJECTS/Mol_Feturizer/New_Systems/rnas/4XWF

>  <Rbt.Executable>
rbdock ($Id: //depot/dev/client3/rdock/2013.1/src/exe/rbdock.cxx#4 $)

>  <Rbt.Library>
libRbt.so (2013.1, Build901 2013/11/27)

>  <Rbt.Parameter_File>
/export/apps/rDock/src/rDock_2013.1_src/data/scripts/dock_solv.prm

>  <Rbt.Receptor>
prm/pocket_docking_3.prm

>  <SCORE>
-6.73596

>  <SCORE.INTER>
-6.17792

>  <SCORE.INTER.CONST>
1

>  <SCORE.INTER.POLAR>
0

>  <SCORE.INTER.ROT>
5

>  <SCORE.INTER.SOLV>
10.5623

>  <SCORE.INTER.VDW>
-14.5727

>  <SCORE.INTER.norm>
-0.280814

>  <SCORE.INTRA>
-0.558266

>  <SCORE.INTRA.DIHEDRAL>
-1.13872

>  <SCORE.INTRA.DIHEDRAL.0>
3.49807

>  <SCORE.INTRA.POLAR>
0

>  <SCORE.INTRA.POLAR.0>
0

>  <SCORE.INTRA.REPUL>
0

>  <SCORE.INTRA.REPUL.0>
0

>  <SCORE.INTRA.SOLV>
0.714094

>  <SCORE.INTRA.SOLV.lig_0>
-73.062

>  <SCORE.INTRA.VDW>
-0.345953

>  <SCORE.INTRA.VDW.0>
-1.83782

>  <SCORE.INTRA.norm>
-0.0253757

>  <SCORE.RESTR>
0.000218273

>  <SCORE.RESTR.CAVITY>
0.000218273

>  <SCORE.RESTR.norm>
9.9215e-06

>  <SCORE.SYSTEM>
0

>  <SCORE.SYSTEM.CONST>
0

>  <SCORE.SYSTEM.DIHEDRAL>
0

>  <SCORE.SYSTEM.SOLV>
0

>  <SCORE.SYSTEM.norm>
0

>  <SCORE.heavy>
22

>  <SCORE.norm>
-0.30618

>  <RMSD>
6.496

$$$$
ligand
 OpenBabel11021811513D
libRbt.so/2013.1/901 2013/11/27
 22 23  0  0  0  0  0  0  0  0999 V2000
  -28.3883    3.3793  -11.3865 N   0  0  0  0  0  0  0  0  0  0  0  0
  -30.5677    0.8360  -10.9024 C   0  0  1  0  0  0  0  0  0  0  0  0
  -30.2010    1.9904  -11.7104 O   0  0  0  0  0  0  0  0  0  0  0  0
  -33.0611    3.0135   -9.0683 P   0  0  1  0  0  0  0  0  0  0  0  0
  -28.7679    2.0939  -11.7136 C   0  0  2  0  0  0  0  0  0  0  0  0
  -28.2731    5.2863  -10.3565 N   0  0  0  0  0  0  0  0  0  0  0  0
  -26.9774    0.7986  -10.8125 O   0  0  0  0  0  0  0  0  0  0  0  0
  -28.3260    1.2301  -10.5959 C   0  0  2  0  0  0  0  0  0  0  0  0
  -26.4033    7.5180  -10.8350 N   0  0  0  0  0  0  0  0  0  0  0  0
  -29.0379   -0.7565  -11.6885 O   0  0  0  0  0  0  0  0  0  0  0  0
  -29.2970    0.1427  -10.5974 C   0  0  2  0  0  0  0  0  0  0  0  0
  -27.3594    5.2851  -11.3392 C   0  0  0  0  0  0  0  0  0  0  0  0
  -26.6147    3.6718  -13.0731 N   0  0  0  0  0  0  0  0  0  0  0  0
  -32.2663    2.1525  -10.1101 O   0  0  0  0  0  0  0  0  0  0  0  0
  -31.2170    1.3553   -9.6660 C   0  0  0  0  0  0  0  0  0  0  0  0
  -34.1807    3.6891   -9.9405 O   0  0  0  0  0  0  0  0  0  0  0  0
  -28.9152    4.1031  -10.3921 C   0  0  0  0  0  0  0  0  0  0  0  0
  -25.7230    6.3397  -12.6611 O   0  0  0  0  0  0  0  0  0  0  0  0
  -26.4414    6.3929  -11.6630 C   0  0  0  0  0  0  0  0  0  0  0  0
  -27.4238    4.0863  -11.9904 C   0  0  0  0  0  0  0  0  0  0  0  0
  -33.5724    2.1344   -7.9758 O   0  5  0  0  0  0  0  0  0  0  0  0
  -32.1526    3.9068   -8.3271 O   0  0  0  0  0  0  0  0  0  0  0  0
  1 17  1  0  0  0  0
  1 20  1  0  0  0  0
  2 15  1  1  0  0  0
  2  3  1  0  0  0  0
  2 11  1  0  0  0  0
  3  5  1  0  0  0  0
  4 16  1  6  0  0  0
  4 21  1  0  0  0  0
  4 22  2  0  0  0  0
  4 14  1  0  0  0  0
  5  1  1  1  0  0  0
  5  8  1  0  0  0  0
  6 17  2  0  0  0  0
  6 12  1  0  0  0  0
  8  7  1  6  0  0  0
  8 11  1  0  0  0  0
  9 19  1  0  0  0  0
 11 10  1  6  0  0  0
 12 20  2  0  0  0  0
 12 19  1  0  0  0  0
 13 20  1  0  0  0  0
 14 15  1  0  0  0  0
 18 19  2  0  0  0  0
M  CHG  1  21  -1
M  END
>  <CHROM.1>
44.45013524,55.72898970,-177.13853868,-172.23867206,5.82566799,-29.62047735
3.06605831,-10.64254919,-0.35801151,-0.43822738,-3.01623969

>  <Name>
ligand

>  <RI>
0

>  <Rbt.Current_Directory>
/home/itssahil/PROJECTS/Mol_Feturizer/New_Systems/rnas/4XWF

>  <Rbt.Executable>
rbdock ($Id: //depot/dev/client3/rdock/2013.1/src/exe/rbdock.cxx#4 $)

>  <Rbt.Library>
libRbt.so (2013.1, Build901 2013/11/27)

>  <Rbt.Parameter_File>
/export/apps/rDock/src/rDock_2013.1_src/data/scripts/dock_solv.prm

>  <Rbt.Receptor>
prm/pocket_docking_3.prm

>  <SCORE>
-6.61042

>  <SCORE.INTER>
-5.72859

>  <SCORE.INTER.CONST>
1

>  <SCORE.INTER.POLAR>
0

>  <SCORE.INTER.ROT>
5

>  <SCORE.INTER.SOLV>
9.84676

>  <SCORE.INTER.VDW>
-14.0346

>  <SCORE.INTER.norm>
-0.26039

>  <SCORE.INTRA>
-0.881828

>  <SCORE.INTRA.DIHEDRAL>
-1.60964

>  <SCORE.INTRA.DIHEDRAL.0>
3.49807

>  <SCORE.INTRA.POLAR>
0

>  <SCORE.INTRA.POLAR.0>
0

>  <SCORE.INTRA.REPUL>
0

>  <SCORE.INTRA.REPUL.0>
0

>  <SCORE.INTRA.SOLV>
0.36375

>  <SCORE.INTRA.SOLV.lig_0>
-73.062

>  <SCORE.INTRA.VDW>
-0.258885

>  <SCORE.INTRA.VDW.0>
-1.83782

>  <SCORE.INTRA.norm>
-0.0400831

>  <SCORE.RESTR>
0

>  <SCORE.RESTR.CAVITY>
0

>  <SCORE.RESTR.norm>
0

>  <SCORE.SYSTEM>
0

>  <SCORE.SYSTEM.CONST>
0

>  <SCORE.SYSTEM.DIHEDRAL>
0

>  <SCORE.SYSTEM.SOLV>
0

>  <SCORE.SYSTEM.norm>
0

>  <SCORE.heavy>
22

>  <SCORE.norm>
-0.300473

>  <RMSD>
6.496

$$$$
ligand
 OpenBabel11021811513D
libRbt.so/2013.1/901 2013/11/27
 22 23  0  0  0  0  0  0  0  0999 V2000
  -28.2416    3.3235  -11.5876 N   0  0  0  0  0  0  0  0  0  0  0  0
  -30.3816    0.7518  -11.0785 C   0  0  1  0  0  0  0  0  0  0  0  0
  -30.0421    1.9136  -11.8877 O   0  0  0  0  0  0  0  0  0  0  0  0
  -32.9249    2.8273   -9.1915 P   0  0  1  0  0  0  0  0  0  0  0  0
  -28.6107    2.0349  -11.9136 C   0  0  2  0  0  0  0  0  0  0  0  0
  -28.1324    5.2277  -10.5515 N   0  0  0  0  0  0  0  0  0  0  0  0
  -26.7901    0.7583  -11.0465 O   0  0  0  0  0  0  0  0  0  0  0  0
  -28.1402    1.1723  -10.8066 C   0  0  2  0  0  0  0  0  0  0  0  0
  -26.4668    7.5745  -11.2011 N   0  0  0  0  0  0  0  0  0  0  0  0
  -28.8452   -0.8188  -11.8954 O   0  0  0  0  0  0  0  0  0  0  0  0
  -29.0977    0.0731  -10.7967 C   0  0  2  0  0  0  0  0  0  0  0  0
  -27.2361    5.2420  -11.5501 C   0  0  0  0  0  0  0  0  0  0  0  0
  -26.5017    3.6455  -13.3037 N   0  0  0  0  0  0  0  0  0  0  0  0
  -32.1037    2.0163  -10.2529 O   0  0  0  0  0  0  0  0  0  0  0  0
  -31.0172    1.2585   -9.8298 C   0  0  0  0  0  0  0  0  0  0  0  0
  -34.1177    3.4125  -10.0312 O   0  0  0  0  0  0  0  0  0  0  0  0
  -28.7600    4.0366  -10.5810 C   0  0  0  0  0  0  0  0  0  0  0  0
  -25.4900    6.2431  -12.7691 O   0  0  0  0  0  0  0  0  0  0  0  0
  -26.3380    6.3627  -11.8851 C   0  0  0  0  0  0  0  0  0  0  0  0
  -27.2968    4.0452  -12.2053 C   0  0  0  0  0  0  0  0  0  0  0  0
  -33.3360    1.9235   -8.0769 O   0  5  0  0  0  0  0  0  0  0  0  0
  -32.0600    3.7904   -8.4865 O   0  0  0  0  0  0  0  0  0  0  0  0
  1 17  1  0  0  0  0
  1 20  1  0  0  0  0
  2 15  1  1  0  0  0
  2  3  1  0  0  0  0
  2 11  1  0  0  0  0
  3  5  1  0  0  0  0
  4 16  1  6  0  0  0
  4 21  1  0  0  0  0
  4 22  2  0  0  0  0
  4 14  1  0  0  0  0
  5  1  1  1  0  0  0
  5  8  1  0  0  0  0
  6 17  2  0  0  0  0
  6 12  1  0  0  0  0
  8  7  1  6  0  0  0
  8 11  1  0  0  0  0
  9 19  1  0  0  0  0
 11 10  1  6  0  0  0
 12 20  2  0  0  0  0
 12 19  1  0  0  0  0
 13 20  1  0  0  0  0
 14 15  1  0  0  0  0
 18 19  2  0  0  0  0
M  CHG  1  21  -1
M  END
>  <CHROM.1>
44.53720216,57.21479144,-174.62710933,-173.88038770,-5.52425699,-29.47293650
2.97413165,-10.82431327,-0.37223596,-0.45186978,-3.02218589

>  <Name>
ligand

>  <RI>
0

>  <Rbt.Current_Directory>
/home/itssahil/PROJECTS/Mol_Feturizer/New_Systems/rnas/4XWF

>  <Rbt.Executable>
rbdock ($Id: //depot/dev/client3/rdock/2013.1/src/exe/rbdock.cxx#4 $)

>  <Rbt.Library>
libRbt.so (2013.1, Build901 2013/11/27)

>  <Rbt.Parameter_File>
/export/apps/rDock/src/rDock_2013.1_src/data/scripts/dock_solv.prm

>  <Rbt.Receptor>
prm/pocket_docking_3.prm

>  <SCORE>
-6.63162

>  <SCORE.INTER>
-5.68165

>  <SCORE.INTER.CONST>
1

>  <SCORE.INTER.POLAR>
0

>  <SCORE.INTER.ROT>
5

>  <SCORE.INTER.SOLV>
9.46013

>  <SCORE.INTER.VDW>
-13.8745

>  <SCORE.INTER.norm>
-0.258257

>  <SCORE.INTRA>
-0.949967

>  <SCORE.INTRA.DIHEDRAL>
-1.74655

>  <SCORE.INTRA.DIHEDRAL.0>
3.49807

>  <SCORE.INTRA.POLAR>
0

>  <SCORE.INTRA.POLAR.0>
0

>  <SCORE.INTRA.REPUL>
0

>  <SCORE.INTRA.REPUL.0>
0

>  <SCORE.INTRA.SOLV>
0.315529

>  <SCORE.INTRA.SOLV.lig_0>
-73.062

>  <SCORE.INTRA.VDW>
-0.234456

>  <SCORE.INTRA.VDW.0>
-1.83782

>  <SCORE.INTRA.norm>
-0.0431803

>  <SCORE.RESTR>
0

>  <SCORE.RESTR.CAVITY>
0

>  <SCORE.RESTR.norm>
0

>  <SCORE.SYSTEM>
0

>  <SCORE.SYSTEM.CONST>
0

>  <SCORE.SYSTEM.DIHEDRAL>
0

>  <SCORE.SYSTEM.SOLV>
0

>  <SCORE.SYSTEM.norm>
0

>  <SCORE.heavy>
22

>  <SCORE.norm>
-0.301437

>  <RMSD>
6.506

$$$$
ligand
 OpenBabel11021811513D
libRbt.so/2013.1/901 2013/11/27
 22 23  0  0  0  0  0  0  0  0999 V2000
  -28.5851    3.4352  -11.1005 N   0  0  0  0  0  0  0  0  0  0  0  0
  -30.7050    0.8106  -10.8363 C   0  0  1  0  0  0  0  0  0  0  0  0
  -30.3364    2.0108  -11.5735 O   0  0  0  0  0  0  0  0  0  0  0  0
  -33.1447    3.0476   -9.0251 P   0  0  1  0  0  0  0  0  0  0  0  0
  -28.9087    2.1557  -11.5023 C   0  0  2  0  0  0  0  0  0  0  0  0
  -28.6347    5.3276  -10.0387 N   0  0  0  0  0  0  0  0  0  0  0  0
  -27.1236    0.8728  -10.5731 O   0  0  0  0  0  0  0  0  0  0  0  0
  -28.4937    1.2548  -10.4037 C   0  0  2  0  0  0  0  0  0  0  0  0
  -25.2622    6.2268  -10.7490 N   0  0  0  0  0  0  0  0  0  0  0  0
  -29.0909   -0.6995  -11.6166 O   0  0  0  0  0  0  0  0  0  0  0  0
  -29.4293    0.1411  -10.5007 C   0  0  2  0  0  0  0  0  0  0  0  0
  -27.5751    5.3368  -10.8620 C   0  0  0  0  0  0  0  0  0  0  0  0
  -26.5634    3.7449  -12.4762 N   0  0  0  0  0  0  0  0  0  0  0  0
  -32.4110    2.1282  -10.0620 O   0  0  0  0  0  0  0  0  0  0  0  0
  -31.4281    1.2539   -9.6113 C   0  0  0  0  0  0  0  0  0  0  0  0
  -34.2529    3.7508   -9.8900 O   0  0  0  0  0  0  0  0  0  0  0  0
  -29.2641    4.1472  -10.1935 C   0  0  0  0  0  0  0  0  0  0  0  0
  -26.9999    7.5615  -11.3691 O   0  0  0  0  0  0  0  0  0  0  0  0
  -26.6158    6.4458  -11.0186 C   0  0  0  0  0  0  0  0  0  0  0  0
  -27.5354    4.1472  -11.5318 C   0  0  0  0  0  0  0  0  0  0  0  0
  -33.6693    2.2177   -7.9009 O   0  5  0  0  0  0  0  0  0  0  0  0
  -32.1822    3.9175   -8.3254 O   0  0  0  0  0  0  0  0  0  0  0  0
  1 17  1  0  0  0  0
  1 20  1  0  0  0  0
  2 15  1  1  0  0  0
  2  3  1  0  0  0  0
  2 11  1  0  0  0  0
  3  5  1  0  0  0  0
  4 16  1  6  0  0  0
  4 21  1  0  0  0  0
  4 22  2  0  0  0  0
  4 14  1  0  0  0  0
  5  1  1  1  0  0  0
  5  8  1  0  0  0  0
  6 17  2  0  0  0  0
  6 12  1  0  0  0  0
  8  7  1  6  0  0  0
  8 11  1  0  0  0  0
  9 19  1  0  0  0  0
 11 10  1  6  0  0  0
 12 20  2  0  0  0  0
 12 19  1  0  0  0  0
 13 20  1  0  0  0  0
 14 15  1  0  0  0  0
 18 19  2  0  0  0  0
M  CHG  1  21  -1
M  END
>  <CHROM.1>
37.48200985,50.94455370,-174.33657046,-165.67859746,120.46016669,-29.75927624
3.10040296,-10.40099120,-0.38511916,-0.36908468,-2.99179588

>  <Name>
ligand

>  <RI>
0

>  <Rbt.Current_Directory>
/home/itssahil/PROJECTS/Mol_Feturizer/New_Systems/rnas/4XWF

>  <Rbt.Executable>
rbdock ($Id: //depot/dev/client3/rdock/2013.1/src/exe/rbdock.cxx#4 $)

>  <Rbt.Library>
libRbt.so (2013.1, Build901 2013/11/27)

>  <Rbt.Parameter_File>
/export/apps/rDock/src/rDock_2013.1_src/data/scripts/dock_solv.prm

>  <Rbt.Receptor>
prm/pocket_docking_3.prm

>  <SCORE>
-6.76431

>  <SCORE.INTER>
-6.27074

>  <SCORE.INTER.CONST>
1

>  <SCORE.INTER.POLAR>
0

>  <SCORE.INTER.ROT>
5

>  <SCORE.INTER.SOLV>
10.3277

>  <SCORE.INTER.VDW>
-14.5564

>  <SCORE.INTER.norm>
-0.285033

>  <SCORE.INTRA>
-0.49357

>  <SCORE.INTRA.DIHEDRAL>
-0.748123

>  <SCORE.INTRA.DIHEDRAL.0>
3.49807

>  <SCORE.INTRA.POLAR>
0

>  <SCORE.INTRA.POLAR.0>
0

>  <SCORE.INTRA.REPUL>
0

>  <SCORE.INTRA.REPUL.0>
0

>  <SCORE.INTRA.SOLV>
0.908298

>  <SCORE.INTRA.SOLV.lig_0>
-73.062

>  <SCORE.INTRA.VDW>
-0.573657

>  <SCORE.INTRA.VDW.0>
-1.83782

>  <SCORE.INTRA.norm>
-0.022435

>  <SCORE.RESTR>
0

>  <SCORE.RESTR.CAVITY>
0

>  <SCORE.RESTR.norm>
0

>  <SCORE.SYSTEM>
0

>  <SCORE.SYSTEM.CONST>
0

>  <SCORE.SYSTEM.DIHEDRAL>
0

>  <SCORE.SYSTEM.SOLV>
0

>  <SCORE.SYSTEM.norm>
0

>  <SCORE.heavy>
22

>  <SCORE.norm>
-0.307468

>  <RMSD>
6.506

$$$$
ligand
 OpenBabel11021811513D
libRbt.so/2013.1/901 2013/11/27
 22 23  0  0  0  0  0  0  0  0999 V2000
  -28.6783    3.5389  -10.9075 N   0  0  0  0  0  0  0  0  0  0  0  0
  -30.8218    0.9259  -10.7339 C   0  0  1  0  0  0  0  0  0  0  0  0
  -30.4248    2.1321  -11.4462 O   0  0  0  0  0  0  0  0  0  0  0  0
  -33.2891    3.1635   -8.9592 P   0  0  1  0  0  0  0  0  0  0  0  0
  -28.9988    2.2665  -11.3334 C   0  0  2  0  0  0  0  0  0  0  0  0
  -28.7636    5.4314   -9.8481 N   0  0  0  0  0  0  0  0  0  0  0  0
  -27.2488    0.9606  -10.3700 O   0  0  0  0  0  0  0  0  0  0  0  0
  -28.6206    1.3499  -10.2344 C   0  0  2  0  0  0  0  0  0  0  0  0
  -26.5499    7.2450  -11.8657 N   0  0  0  0  0  0  0  0  0  0  0  0
  -29.1963   -0.5859  -11.4867 O   0  0  0  0  0  0  0  0  0  0  0  0
  -29.5603    0.2438  -10.3708 C   0  0  2  0  0  0  0  0  0  0  0  0
  -27.6492    5.4195  -10.5955 C   0  0  0  0  0  0  0  0  0  0  0  0
  -26.5598    3.8083  -12.1385 N   0  0  0  0  0  0  0  0  0  0  0  0
  -32.5302    2.2578   -9.9899 O   0  0  0  0  0  0  0  0  0  0  0  0
  -31.5759    1.3597   -9.5244 C   0  0  0  0  0  0  0  0  0  0  0  0
  -34.4218    3.8230   -9.8267 O   0  0  0  0  0  0  0  0  0  0  0  0
  -29.4043    4.2640  -10.0486 C   0  0  0  0  0  0  0  0  0  0  0  0
  -25.9220    6.7633   -9.7304 O   0  0  0  0  0  0  0  0  0  0  0  0
  -26.6592    6.5090  -10.6827 C   0  0  0  0  0  0  0  0  0  0  0  0
  -27.5869    4.2297  -11.2632 C   0  0  0  0  0  0  0  0  0  0  0  0
  -33.7835    2.3284   -7.8252 O   0  5  0  0  0  0  0  0  0  0  0  0
  -32.3522    4.0700   -8.2714 O   0  0  0  0  0  0  0  0  0  0  0  0
  1 17  1  0  0  0  0
  1 20  1  0  0  0  0
  2 15  1  1  0  0  0
  2  3  1  0  0  0  0
  2 11  1  0  0  0  0
  3  5  1  0  0  0  0
  4 16  1  6  0  0  0
  4 21  1  0  0  0  0
  4 22  2  0  0  0  0
  4 14  1  0  0  0  0
  5  1  1  1  0  0  0
  5  8  1  0  0  0  0
  6 17  2  0  0  0  0
  6 12  1  0  0  0  0
  8  7  1  6  0  0  0
  8 11  1  0  0  0  0
  9 19  1  0  0  0  0
 11 10  1  6  0  0  0
 12 20  2  0  0  0  0
 12 19  1  0  0  0  0
 13 20  1  0  0  0  0
 14 15  1  0  0  0  0
 18 19  2  0  0  0  0
M  CHG  1  21  -1
M  END
>  <CHROM.1>
34.89559393,50.28142438,-170.41413703,-166.12431817,-110.25053592,-29.86387277
3.19952252,-10.23336270,-0.37647453,-0.34555116,-2.95736894

>  <Name>
ligand

>  <RI>
0

>  <Rbt.Current_Directory>
/home/itssahil/PROJECTS/Mol_Feturizer/New_Systems/rnas/4XWF

>  <Rbt.Executable>
rbdock ($Id: //depot/dev/client3/rdock/2013.1/src/exe/rbdock.cxx#4 $)

>  <Rbt.Library>
libRbt.so (2013.1, Build901 2013/11/27)

>  <Rbt.Parameter_File>
/export/apps/rDock/src/rDock_2013.1_src/data/scripts/dock_solv.prm

>  <Rbt.Receptor>
prm/pocket_docking_3.prm

>  <SCORE>
-6.81969

>  <SCORE.INTER>
-6.45253

>  <SCORE.INTER.CONST>
1

>  <SCORE.INTER.POLAR>
0

>  <SCORE.INTER.ROT>
5

>  <SCORE.INTER.SOLV>
10.7017

>  <SCORE.INTER.VDW>
-14.8023

>  <SCORE.INTER.norm>
-0.293297

>  <SCORE.INTRA>
-0.367156

>  <SCORE.INTRA.DIHEDRAL>
-0.571431

>  <SCORE.INTRA.DIHEDRAL.0>
3.49807

>  <SCORE.INTRA.POLAR>
0

>  <SCORE.INTRA.POLAR.0>
0

>  <SCORE.INTRA.REPUL>
0

>  <SCORE.INTRA.REPUL.0>
0

>  <SCORE.INTRA.SOLV>
0.961428

>  <SCORE.INTRA.SOLV.lig_0>
-73.062

>  <SCORE.INTRA.VDW>
-0.562154

>  <SCORE.INTRA.VDW.0>
-1.83782

>  <SCORE.INTRA.norm>
-0.0166889

>  <SCORE.RESTR>
0

>  <SCORE.RESTR.CAVITY>
0

>  <SCORE.RESTR.norm>
0

>  <SCORE.SYSTEM>
0

>  <SCORE.SYSTEM.CONST>
0

>  <SCORE.SYSTEM.DIHEDRAL>
0

>  <SCORE.SYSTEM.SOLV>
0

>  <SCORE.SYSTEM.norm>
0

>  <SCORE.heavy>
22

>  <SCORE.norm>
-0.309986

>  <RMSD>
6.514

$$$$
ligand
 OpenBabel11021811513D
libRbt.so/2013.1/901 2013/11/27
 22 23  0  0  0  0  0  0  0  0999 V2000
  -28.2914    3.2530  -11.7205 N   0  0  0  0  0  0  0  0  0  0  0  0
  -30.4091    0.6886  -11.0943 C   0  0  1  0  0  0  0  0  0  0  0  0
  -30.0916    1.8283  -11.9429 O   0  0  0  0  0  0  0  0  0  0  0  0
  -32.9258    2.8012   -9.2121 P   0  0  1  0  0  0  0  0  0  0  0  0
  -28.6616    1.9542  -12.0021 C   0  0  2  0  0  0  0  0  0  0  0  0
  -28.1605    5.1822  -10.7345 N   0  0  0  0  0  0  0  0  0  0  0  0
  -26.8178    0.7097  -11.1376 O   0  0  0  0  0  0  0  0  0  0  0  0
  -28.1644    1.1252  -10.8813 C   0  0  2  0  0  0  0  0  0  0  0  0
  -26.6113    7.5546  -11.5767 N   0  0  0  0  0  0  0  0  0  0  0  0
  -28.8831   -0.8987  -11.8985 O   0  0  0  0  0  0  0  0  0  0  0  0
  -29.1166    0.0231  -10.8204 C   0  0  2  0  0  0  0  0  0  0  0  0
  -27.3009    5.1791  -11.7649 C   0  0  0  0  0  0  0  0  0  0  0  0
  -26.6171    3.5462  -13.5055 N   0  0  0  0  0  0  0  0  0  0  0  0
  -32.1170    1.9724  -10.2692 O   0  0  0  0  0  0  0  0  0  0  0  0
  -31.0208    1.2280   -9.8474 C   0  0  0  0  0  0  0  0  0  0  0  0
  -34.1302    3.3697  -10.0468 O   0  0  0  0  0  0  0  0  0  0  0  0
  -28.7791    3.9862  -10.7130 C   0  0  0  0  0  0  0  0  0  0  0  0
  -25.5439    6.1365  -13.0034 O   0  0  0  0  0  0  0  0  0  0  0  0
  -26.4246    6.2979  -12.1587 C   0  0  0  0  0  0  0  0  0  0  0  0
  -27.3754    3.9664  -12.3888 C   0  0  0  0  0  0  0  0  0  0  0  0
  -33.3212    1.9171   -8.0763 O   0  5  0  0  0  0  0  0  0  0  0  0
  -32.0535    3.7779   -8.5356 O   0  0  0  0  0  0  0  0  0  0  0  0
  1 17  1  0  0  0  0
  1 20  1  0  0  0  0
  2 15  1  1  0  0  0
  2  3  1  0  0  0  0
  2 11  1  0  0  0  0
  3  5  1  0  0  0  0
  4 16  1  6  0  0  0
  4 21  1  0  0  0  0
  4 22  2  0  0  0  0
  4 14  1  0  0  0  0
  5  1  1  1  0  0  0
  5  8  1  0  0  0  0
  6 17  2  0  0  0  0
  6 12  1  0  0  0  0
  8  7  1  6  0  0  0
  8 11  1  0  0  0  0
  9 19  1  0  0  0  0
 11 10  1  6  0  0  0
 12 20  2  0  0  0  0
 12 19  1  0  0  0  0
 13 20  1  0  0  0  0
 14 15  1  0  0  0  0
 18 19  2  0  0  0  0
M  CHG  1  21  -1
M  END
>  <CHROM.1>
45.46902380,57.05529947,-174.88254917,-174.38121549,-10.71774359,-29.50989734
2.92073846,-10.92493573,-0.37806549,-0.47384184,-3.05660138

>  <Name>
ligand

>  <RI>
0

>  <Rbt.Current_Directory>
/home/itssahil/PROJECTS/Mol_Feturizer/New_Systems/rnas/4XWF

>  <Rbt.Executable>
rbdock ($Id: //depot/dev/client3/rdock/2013.1/src/exe/rbdock.cxx#4 $)

>  <Rbt.Library>
libRbt.so (2013.1, Build901 2013/11/27)

>  <Rbt.Parameter_File>
/export/apps/rDock/src/rDock_2013.1_src/data/scripts/dock_solv.prm

>  <Rbt.Receptor>
prm/pocket_docking_3.prm

>  <SCORE>
-6.68908

>  <SCORE.INTER>
-5.75034

>  <SCORE.INTER.CONST>
1

>  <SCORE.INTER.POLAR>
0

>  <SCORE.INTER.ROT>
5

>  <SCORE.INTER.SOLV>
9.94205

>  <SCORE.INTER.VDW>
-14.0809

>  <SCORE.INTER.norm>
-0.261379

>  <SCORE.INTRA>
-0.938741

>  <SCORE.INTRA.DIHEDRAL>
-1.68666

>  <SCORE.INTRA.DIHEDRAL.0>
3.49807

>  <SCORE.INTRA.POLAR>
0

>  <SCORE.INTRA.POLAR.0>
0

>  <SCORE.INTRA.REPUL>
0

>  <SCORE.INTRA.REPUL.0>
0

>  <SCORE.INTRA.SOLV>
0.263271

>  <SCORE.INTRA.SOLV.lig_0>
-73.062

>  <SCORE.INTRA.VDW>
-0.227046

>  <SCORE.INTRA.VDW.0>
-1.83782

>  <SCORE.INTRA.norm>
-0.04267

>  <SCORE.RESTR>
0

>  <SCORE.RESTR.CAVITY>
0

>  <SCORE.RESTR.norm>
0

>  <SCORE.SYSTEM>
0

>  <SCORE.SYSTEM.CONST>
0

>  <SCORE.SYSTEM.DIHEDRAL>
0

>  <SCORE.SYSTEM.SOLV>
0

>  <SCORE.SYSTEM.norm>
0

>  <SCORE.heavy>
22

>  <SCORE.norm>
-0.304049

>  <RMSD>
6.515

$$$$
ligand
 OpenBabel11021811513D
libRbt.so/2013.1/901 2013/11/27
 22 23  0  0  0  0  0  0  0  0999 V2000
  -28.6993    3.5457  -10.9245 N   0  0  0  0  0  0  0  0  0  0  0  0
  -30.8339    0.9273  -10.7249 C   0  0  1  0  0  0  0  0  0  0  0  0
  -30.4451    2.1313  -11.4454 O   0  0  0  0  0  0  0  0  0  0  0  0
  -33.3013    3.1646   -8.9550 P   0  0  1  0  0  0  0  0  0  0  0  0
  -29.0188    2.2703  -11.3424 C   0  0  2  0  0  0  0  0  0  0  0  0
  -28.7717    5.4351   -9.8587 N   0  0  0  0  0  0  0  0  0  0  0  0
  -27.2588    0.9741  -10.3841 O   0  0  0  0  0  0  0  0  0  0  0  0
  -28.6309    1.3601  -10.2416 C   0  0  2  0  0  0  0  0  0  0  0  0
  -26.5380    7.1765  -11.9919 N   0  0  0  0  0  0  0  0  0  0  0  0
  -29.2089   -0.5833  -11.4810 O   0  0  0  0  0  0  0  0  0  0  0  0
  -29.5682    0.2506  -10.3667 C   0  0  2  0  0  0  0  0  0  0  0  0
  -27.6826    5.4377  -10.6426 C   0  0  0  0  0  0  0  0  0  0  0  0
  -26.6260    3.8423  -12.2243 N   0  0  0  0  0  0  0  0  0  0  0  0
  -32.5566    2.2397   -9.9791 O   0  0  0  0  0  0  0  0  0  0  0  0
  -31.5817    1.3647   -9.5126 C   0  0  0  0  0  0  0  0  0  0  0  0
  -34.4349    3.8216   -9.8232 O   0  0  0  0  0  0  0  0  0  0  0  0
  -29.4049    4.2606  -10.0405 C   0  0  0  0  0  0  0  0  0  0  0  0
  -26.0382    6.8885   -9.7890 O   0  0  0  0  0  0  0  0  0  0  0  0
  -26.7089    6.5389  -10.7601 C   0  0  0  0  0  0  0  0  0  0  0  0
  -27.6285    4.2500  -11.3146 C   0  0  0  0  0  0  0  0  0  0  0  0
  -33.7942    2.3481   -7.8069 O   0  5  0  0  0  0  0  0  0  0  0  0
  -32.3527    4.0726   -8.2855 O   0  0  0  0  0  0  0  0  0  0  0  0
  1 17  1  0  0  0  0
  1 20  1  0  0  0  0
  2 15  1  1  0  0  0
  2  3  1  0  0  0  0
  2 11  1  0  0  0  0
  3  5  1  0  0  0  0
  4 16  1  6  0  0  0
  4 21  1  0  0  0  0
  4 22  2  0  0  0  0
  4 14  1  0  0  0  0
  5  1  1  1  0  0  0
  5  8  1  0  0  0  0
  6 17  2  0  0  0  0
  6 12  1  0  0  0  0
  8  7  1  6  0  0  0
  8 11  1  0  0  0  0
  9 19  1  0  0  0  0
 11 10  1  6  0  0  0
 12 20  2  0  0  0  0
 12 19  1  0  0  0  0
 13 20  1  0  0  0  0
 14 15  1  0  0  0  0
 18 19  2  0  0  0  0
M  CHG  1  21  -1
M  END
>  <CHROM.1>
36.55185658,51.29364152,-172.05124930,-165.04452588,-117.63607948,-29.88557992
3.20902898,-10.25121816,-0.38160143,-0.35661842,-2.96447100

>  <Name>
ligand

>  <RI>
0

>  <Rbt.Current_Directory>
/home/itssahil/PROJECTS/Mol_Feturizer/New_Systems/rnas/4XWF

>  <Rbt.Executable>
rbdock ($Id: //depot/dev/client3/rdock/2013.1/src/exe/rbdock.cxx#4 $)

>  <Rbt.Library>
libRbt.so (2013.1, Build901 2013/11/27)

>  <Rbt.Parameter_File>
/export/apps/rDock/src/rDock_2013.1_src/data/scripts/dock_solv.prm

>  <Rbt.Receptor>
prm/pocket_docking_3.prm

>  <SCORE>
-6.9091

>  <SCORE.INTER>
-6.48456

>  <SCORE.INTER.CONST>
1

>  <SCORE.INTER.POLAR>
0

>  <SCORE.INTER.ROT>
5

>  <SCORE.INTER.SOLV>
10.8028

>  <SCORE.INTER.VDW>
-14.8573

>  <SCORE.INTER.norm>
-0.294753

>  <SCORE.INTRA>
-0.424832

>  <SCORE.INTRA.DIHEDRAL>
-0.638091

>  <SCORE.INTRA.DIHEDRAL.0>
3.49807

>  <SCORE.INTRA.POLAR>
0

>  <SCORE.INTRA.POLAR.0>
0

>  <SCORE.INTRA.REPUL>
0

>  <SCORE.INTRA.REPUL.0>
0

>  <SCORE.INTRA.SOLV>
0.963665

>  <SCORE.INTRA.SOLV.lig_0>
-73.062

>  <SCORE.INTRA.VDW>
-0.587618

>  <SCORE.INTRA.VDW.0>
-1.83782

>  <SCORE.INTRA.norm>
-0.0193105

>  <SCORE.RESTR>
0.000299612

>  <SCORE.RESTR.CAVITY>
0.000299612

>  <SCORE.RESTR.norm>
1.36187e-05

>  <SCORE.SYSTEM>
0

>  <SCORE.SYSTEM.CONST>
0

>  <SCORE.SYSTEM.DIHEDRAL>
0

>  <SCORE.SYSTEM.SOLV>
0

>  <SCORE.SYSTEM.norm>
0

>  <SCORE.heavy>
22

>  <SCORE.norm>
-0.31405

>  <RMSD>
6.516

$$$$
ligand
 OpenBabel11021811513D
libRbt.so/2013.1/901 2013/11/27
 22 23  0  0  0  0  0  0  0  0999 V2000
  -28.7192    3.5322  -10.9327 N   0  0  0  0  0  0  0  0  0  0  0  0
  -30.8357    0.9048  -10.6692 C   0  0  1  0  0  0  0  0  0  0  0  0
  -30.4581    2.0962  -11.4162 O   0  0  0  0  0  0  0  0  0  0  0  0
  -33.3068    3.1624   -8.9263 P   0  0  1  0  0  0  0  0  0  0  0  0
  -29.0322    2.2465  -11.3227 C   0  0  2  0  0  0  0  0  0  0  0  0
  -28.8008    5.4437   -9.9077 N   0  0  0  0  0  0  0  0  0  0  0  0
  -27.2595    0.9817  -10.3462 O   0  0  0  0  0  0  0  0  0  0  0  0
  -28.6333    1.3616  -10.2052 C   0  0  2  0  0  0  0  0  0  0  0  0
  -26.5117    7.0902  -12.0973 N   0  0  0  0  0  0  0  0  0  0  0  0
  -29.2042   -0.6106  -11.4017 O   0  0  0  0  0  0  0  0  0  0  0  0
  -29.5639    0.2438  -10.3031 C   0  0  2  0  0  0  0  0  0  0  0  0
  -27.7123    5.4352  -10.6924 C   0  0  0  0  0  0  0  0  0  0  0  0
  -26.6484    3.8117  -12.2402 N   0  0  0  0  0  0  0  0  0  0  0  0
  -32.5519    2.2352   -9.9407 O   0  0  0  0  0  0  0  0  0  0  0  0
  -31.5807    1.3622   -9.4627 C   0  0  0  0  0  0  0  0  0  0  0  0
  -34.4096    3.8439   -9.8149 O   0  0  0  0  0  0  0  0  0  0  0  0
  -29.4280    4.2622  -10.0637 C   0  0  0  0  0  0  0  0  0  0  0  0
  -26.1326    6.9653   -9.8553 O   0  0  0  0  0  0  0  0  0  0  0  0
  -26.7446    6.5388  -10.8345 C   0  0  0  0  0  0  0  0  0  0  0  0
  -27.6524    4.2336  -11.3387 C   0  0  0  0  0  0  0  0  0  0  0  0
  -33.8388    2.3436   -7.7974 O   0  5  0  0  0  0  0  0  0  0  0  0
  -32.3609    4.0502   -8.2264 O   0  0  0  0  0  0  0  0  0  0  0  0
  1 17  1  0  0  0  0
  1 20  1  0  0  0  0
  2 15  1  1  0  0  0
  2  3  1  0  0  0  0
  2 11  1  0  0  0  0
  3  5  1  0  0  0  0
  4 16  1  6  0  0  0
  4 21  1  0  0  0  0
  4 22  2  0  0  0  0
  4 14  1  0  0  0  0
  5  1  1  1  0  0  0
  5  8  1  0  0  0  0
  6 17  2  0  0  0  0
  6 12  1  0  0  0  0
  8  7  1  6  0  0  0
  8 11  1  0  0  0  0
  9 19  1  0  0  0  0
 11 10  1  6  0  0  0
 12 20  2  0  0  0  0
 12 19  1  0  0  0  0
 13 20  1  0  0  0  0
 14 15  1  0  0  0  0
 18 19  2  0  0  0  0
M  CHG  1  21  -1
M  END
>  <CHROM.1>
36.31443687,50.50810170,-173.43283937,-165.94333627,-121.93918684,-29.89872994
3.20148823,-10.24379893,-0.38535377,-0.36452404,-2.98373420

>  <Name>
ligand

>  <RI>
0

>  <Rbt.Current_Directory>
/home/itssahil/PROJECTS/Mol_Feturizer/New_Systems/rnas/4XWF

>  <Rbt.Executable>
rbdock ($Id: //depot/dev/client3/rdock/2013.1/src/exe/rbdock.cxx#4 $)

>  <Rbt.Library>
libRbt.so (2013.1, Build901 2013/11/27)

>  <Rbt.Parameter_File>
/export/apps/rDock/src/rDock_2013.1_src/data/scripts/dock_solv.prm

>  <Rbt.Receptor>
prm/pocket_docking_3.prm

>  <SCORE>
-6.80845

>  <SCORE.INTER>
-6.35543

>  <SCORE.INTER.CONST>
1

>  <SCORE.INTER.POLAR>
0

>  <SCORE.INTER.ROT>
5

>  <SCORE.INTER.SOLV>
10.7494

>  <SCORE.INTER.VDW>
-14.7534

>  <SCORE.INTER.norm>
-0.288883

>  <SCORE.INTRA>
-0.45302

>  <SCORE.INTRA.DIHEDRAL>
-0.740275

>  <SCORE.INTRA.DIHEDRAL.0>
3.49807

>  <SCORE.INTRA.POLAR>
0

>  <SCORE.INTRA.POLAR.0>
0

>  <SCORE.INTRA.REPUL>
0

>  <SCORE.INTRA.REPUL.0>
0

>  <SCORE.INTRA.SOLV>
0.970119

>  <SCORE.INTRA.SOLV.lig_0>
-73.062

>  <SCORE.INTRA.VDW>
-0.567942

>  <SCORE.INTRA.VDW.0>
-1.83782

>  <SCORE.INTRA.norm>
-0.0205918

>  <SCORE.RESTR>
0

>  <SCORE.RESTR.CAVITY>
0

>  <SCORE.RESTR.norm>
0

>  <SCORE.SYSTEM>
0

>  <SCORE.SYSTEM.CONST>
0

>  <SCORE.SYSTEM.DIHEDRAL>
0

>  <SCORE.SYSTEM.SOLV>
0

>  <SCORE.SYSTEM.norm>
0

>  <SCORE.heavy>
22

>  <SCORE.norm>
-0.309475

>  <RMSD>
6.520

$$$$
ligand
 OpenBabel11021811513D
libRbt.so/2013.1/901 2013/11/27
 22 23  0  0  0  0  0  0  0  0999 V2000
  -28.2150    3.3116  -11.6769 N   0  0  0  0  0  0  0  0  0  0  0  0
  -30.3526    0.7636  -11.0520 C   0  0  1  0  0  0  0  0  0  0  0  0
  -30.0204    1.8947  -11.9064 O   0  0  0  0  0  0  0  0  0  0  0  0
  -32.9365    2.8276   -9.2051 P   0  0  1  0  0  0  0  0  0  0  0  0
  -28.5891    2.0125  -11.9519 C   0  0  2  0  0  0  0  0  0  0  0  0
  -28.0839    5.2480  -10.7053 N   0  0  0  0  0  0  0  0  0  0  0  0
  -26.7610    0.7654  -11.0583 O   0  0  0  0  0  0  0  0  0  0  0  0
  -28.1080    1.1900  -10.8193 C   0  0  2  0  0  0  0  0  0  0  0  0
  -26.4214    7.5668  -11.4523 N   0  0  0  0  0  0  0  0  0  0  0  0
  -28.8270   -0.8382  -11.8275 O   0  0  0  0  0  0  0  0  0  0  0  0
  -29.0667    0.0935  -10.7594 C   0  0  2  0  0  0  0  0  0  0  0  0
  -27.2137    5.2320  -11.7267 C   0  0  0  0  0  0  0  0  0  0  0  0
  -26.5209    3.5815  -13.4469 N   0  0  0  0  0  0  0  0  0  0  0  0
  -32.0910    2.0215  -10.2510 O   0  0  0  0  0  0  0  0  0  0  0  0
  -30.9743    1.3163   -9.8159 C   0  0  0  0  0  0  0  0  0  0  0  0
  -34.1283    3.3887  -10.0627 O   0  0  0  0  0  0  0  0  0  0  0  0
  -28.7091    4.0555  -10.6804 C   0  0  0  0  0  0  0  0  0  0  0  0
  -25.5199    6.2046  -13.0390 O   0  0  0  0  0  0  0  0  0  0  0  0
  -26.3275    6.3429  -12.1204 C   0  0  0  0  0  0  0  0  0  0  0  0
  -27.2883    4.0147  -12.3415 C   0  0  0  0  0  0  0  0  0  0  0  0
  -33.3468    1.9259   -8.0886 O   0  5  0  0  0  0  0  0  0  0  0  0
  -32.0944    3.8088   -8.4974 O   0  0  0  0  0  0  0  0  0  0  0  0
  1 17  1  0  0  0  0
  1 20  1  0  0  0  0
  2 15  1  1  0  0  0
  2  3  1  0  0  0  0
  2 11  1  0  0  0  0
  3  5  1  0  0  0  0
  4 16  1  6  0  0  0
  4 21  1  0  0  0  0
  4 22  2  0  0  0  0
  4 14  1  0  0  0  0
  5  1  1  1  0  0  0
  5  8  1  0  0  0  0
  6 17  2  0  0  0  0
  6 12  1  0  0  0  0
  8  7  1  6  0  0  0
  8 11  1  0  0  0  0
  9 19  1  0  0  0  0
 11 10  1  6  0  0  0
 12 20  2  0  0  0  0
 12 19  1  0  0  0  0
 13 20  1  0  0  0  0
 14 15  1  0  0  0  0
 18 19  2  0  0  0  0
M  CHG  1  21  -1
M  END
>  <CHROM.1>
45.47033728,59.22238471,-176.56754851,-175.74293075,-4.12184786,-29.46021490
2.97022561,-10.88909386,-0.37606961,-0.46244981,-3.06041875

>  <Name>
ligand

>  <RI>
0

>  <Rbt.Current_Directory>
/home/itssahil/PROJECTS/Mol_Feturizer/New_Systems/rnas/4XWF

>  <Rbt.Executable>
rbdock ($Id: //depot/dev/client3/rdock/2013.1/src/exe/rbdock.cxx#4 $)

>  <Rbt.Library>
libRbt.so (2013.1, Build901 2013/11/27)

>  <Rbt.Parameter_File>
/export/apps/rDock/src/rDock_2013.1_src/data/scripts/dock_solv.prm

>  <Rbt.Receptor>
prm/pocket_docking_3.prm

>  <SCORE>
-6.70343

>  <SCORE.INTER>
-5.63311

>  <SCORE.INTER.CONST>
1

>  <SCORE.INTER.POLAR>
0

>  <SCORE.INTER.ROT>
5

>  <SCORE.INTER.SOLV>
9.48299

>  <SCORE.INTER.VDW>
-13.8497

>  <SCORE.INTER.norm>
-0.256051

>  <SCORE.INTRA>
-1.07031

>  <SCORE.INTRA.DIHEDRAL>
-1.89474

>  <SCORE.INTRA.DIHEDRAL.0>
3.49807

>  <SCORE.INTRA.POLAR>
0

>  <SCORE.INTRA.POLAR.0>
0

>  <SCORE.INTRA.REPUL>
0

>  <SCORE.INTRA.REPUL.0>
0

>  <SCORE.INTRA.SOLV>
0.21056

>  <SCORE.INTRA.SOLV.lig_0>
-73.062

>  <SCORE.INTRA.VDW>
-0.228225

>  <SCORE.INTRA.VDW.0>
-1.83782

>  <SCORE.INTRA.norm>
-0.0486506

>  <SCORE.RESTR>
0

>  <SCORE.RESTR.CAVITY>
0

>  <SCORE.RESTR.norm>
0

>  <SCORE.SYSTEM>
0

>  <SCORE.SYSTEM.CONST>
0

>  <SCORE.SYSTEM.DIHEDRAL>
0

>  <SCORE.SYSTEM.SOLV>
0

>  <SCORE.SYSTEM.norm>
0

>  <SCORE.heavy>
22

>  <SCORE.norm>
-0.304701

>  <RMSD>
6.523

$$$$
ligand
 OpenBabel11021811513D
libRbt.so/2013.1/901 2013/11/27
 22 23  0  0  0  0  0  0  0  0999 V2000
  -28.5288    3.4185  -11.2850 N   0  0  0  0  0  0  0  0  0  0  0  0
  -30.6339    0.8014  -10.8704 C   0  0  1  0  0  0  0  0  0  0  0  0
  -30.2869    1.9737  -11.6611 O   0  0  0  0  0  0  0  0  0  0  0  0
  -33.2085    2.9180   -9.0808 P   0  0  1  0  0  0  0  0  0  0  0  0
  -28.8583    2.1242  -11.6303 C   0  0  2  0  0  0  0  0  0  0  0  0
  -28.5385    5.3391  -10.2739 N   0  0  0  0  0  0  0  0  0  0  0  0
  -27.0473    0.8809  -10.6974 O   0  0  0  0  0  0  0  0  0  0  0  0
  -28.4140    1.2662  -10.5090 C   0  0  2  0  0  0  0  0  0  0  0  0
  -26.6954    7.6128  -10.6333 N   0  0  0  0  0  0  0  0  0  0  0  0
  -29.0348   -0.7337  -11.6325 O   0  0  0  0  0  0  0  0  0  0  0  0
  -29.3484    0.1477  -10.5411 C   0  0  2  0  0  0  0  0  0  0  0  0
  -27.5342    5.3392  -11.1638 C   0  0  0  0  0  0  0  0  0  0  0  0
  -26.6045    3.7163  -12.7964 N   0  0  0  0  0  0  0  0  0  0  0  0
  -32.3835    2.0677  -10.1080 O   0  0  0  0  0  0  0  0  0  0  0  0
  -31.3282    1.2892   -9.6456 C   0  0  0  0  0  0  0  0  0  0  0  0
  -33.6430    1.8581   -8.0045 O   0  0  0  0  0  0  0  0  0  0  0  0
  -29.1587    4.1466  -10.3557 C   0  0  0  0  0  0  0  0  0  0  0  0
  -25.7609    6.3823  -12.3061 O   0  0  0  0  0  0  0  0  0  0  0  0
  -26.6037    6.4560  -11.4120 C   0  0  0  0  0  0  0  0  0  0  0  0
  -27.5197    4.1320  -11.8023 C   0  0  0  0  0  0  0  0  0  0  0  0
  -32.3614    4.0273   -8.5518 O   0  5  0  0  0  0  0  0  0  0  0  0
  -34.2806    3.6651   -9.7628 O   0  0  0  0  0  0  0  0  0  0  0  0
  1 17  1  0  0  0  0
  1 20  1  0  0  0  0
  2 15  1  1  0  0  0
  2  3  1  0  0  0  0
  2 11  1  0  0  0  0
  3  5  1  0  0  0  0
  4 16  1  1  0  0  0
  4 21  1  0  0  0  0
  4 22  2  0  0  0  0
  4 14  1  0  0  0  0
  5  1  1  1  0  0  0
  5  8  1  0  0  0  0
  6 17  2  0  0  0  0
  6 12  1  0  0  0  0
  8  7  1  6  0  0  0
  8 11  1  0  0  0  0
  9 19  1  0  0  0  0
 11 10  1  6  0  0  0
 12 20  2  0  0  0  0
 12 19  1  0  0  0  0
 13 20  1  0  0  0  0
 14 15  1  0  0  0  0
 18 19  2  0  0  0  0
M  CHG  1  21  -1
M  END
>  <CHROM.1>
39.94010845,55.06790401,-53.51843124,-171.06058116,3.31046043,-29.73813990
3.06658152,-10.55628949,-0.38808416,-0.40952190,-3.01763034

>  <Name>
ligand

>  <RI>
0

>  <Rbt.Current_Directory>
/home/itssahil/PROJECTS/Mol_Feturizer/New_Systems/rnas/4XWF

>  <Rbt.Executable>
rbdock ($Id: //depot/dev/client3/rdock/2013.1/src/exe/rbdock.cxx#4 $)

>  <Rbt.Library>
libRbt.so (2013.1, Build901 2013/11/27)

>  <Rbt.Parameter_File>
/export/apps/rDock/src/rDock_2013.1_src/data/scripts/dock_solv.prm

>  <Rbt.Receptor>
prm/pocket_docking_3.prm

>  <SCORE>
-4.86999

>  <SCORE.INTER>
-3.87703

>  <SCORE.INTER.CONST>
1

>  <SCORE.INTER.POLAR>
0

>  <SCORE.INTER.ROT>
5

>  <SCORE.INTER.SOLV>
15.8291

>  <SCORE.INTER.VDW>
-14.7944

>  <SCORE.INTER.norm>
-0.176229

>  <SCORE.INTRA>
-0.99296

>  <SCORE.INTRA.DIHEDRAL>
-1.48961

>  <SCORE.INTRA.DIHEDRAL.0>
3.49807

>  <SCORE.INTRA.POLAR>
0

>  <SCORE.INTRA.POLAR.0>
0

>  <SCORE.INTRA.REPUL>
0

>  <SCORE.INTRA.REPUL.0>
0

>  <SCORE.INTRA.SOLV>
-0.0628345

>  <SCORE.INTRA.SOLV.lig_0>
-73.062

>  <SCORE.INTRA.VDW>
-0.21674

>  <SCORE.INTRA.VDW.0>
-1.83782

>  <SCORE.INTRA.norm>
-0.0451346

>  <SCORE.RESTR>
0

>  <SCORE.RESTR.CAVITY>
0

>  <SCORE.RESTR.norm>
0

>  <SCORE.SYSTEM>
0

>  <SCORE.SYSTEM.CONST>
0

>  <SCORE.SYSTEM.DIHEDRAL>
0

>  <SCORE.SYSTEM.SOLV>
0

>  <SCORE.SYSTEM.norm>
0

>  <SCORE.heavy>
22

>  <SCORE.norm>
-0.221363

>  <RMSD>
6.526

$$$$
ligand
 OpenBabel11021811513D
libRbt.so/2013.1/901 2013/11/27
 22 23  0  0  0  0  0  0  0  0999 V2000
  -28.6586    3.5126  -10.9071 N   0  0  0  0  0  0  0  0  0  0  0  0
  -30.8411    0.9323  -10.7306 C   0  0  1  0  0  0  0  0  0  0  0  0
  -30.4287    2.1340  -11.4418 O   0  0  0  0  0  0  0  0  0  0  0  0
  -33.3134    3.1624   -8.9518 P   0  0  1  0  0  0  0  0  0  0  0  0
  -29.0003    2.2462  -11.3346 C   0  0  2  0  0  0  0  0  0  0  0  0
  -28.6839    5.3853   -9.8101 N   0  0  0  0  0  0  0  0  0  0  0  0
  -27.2665    0.9116  -10.3815 O   0  0  0  0  0  0  0  0  0  0  0  0
  -28.6316    1.3214  -10.2393 C   0  0  2  0  0  0  0  0  0  0  0  0
  -26.6073    7.2416  -11.9361 N   0  0  0  0  0  0  0  0  0  0  0  0
  -29.2420   -0.6024  -11.4936 O   0  0  0  0  0  0  0  0  0  0  0  0
  -29.5887    0.2302  -10.3743 C   0  0  2  0  0  0  0  0  0  0  0  0
  -27.6200    5.3931  -10.6278 C   0  0  0  0  0  0  0  0  0  0  0  0
  -26.6252    3.8159  -12.2669 N   0  0  0  0  0  0  0  0  0  0  0  0
  -32.5527    2.2571   -9.9815 O   0  0  0  0  0  0  0  0  0  0  0  0
  -31.5835    1.3747   -9.5169 C   0  0  0  0  0  0  0  0  0  0  0  0
  -34.4426    3.8248   -9.8216 O   0  0  0  0  0  0  0  0  0  0  0  0
  -29.3310    4.2181   -9.9902 C   0  0  0  0  0  0  0  0  0  0  0  0
  -25.8515    6.7356   -9.8484 O   0  0  0  0  0  0  0  0  0  0  0  0
  -26.6425    6.4895  -10.7588 C   0  0  0  0  0  0  0  0  0  0  0  0
  -27.5956    4.2158  -11.3198 C   0  0  0  0  0  0  0  0  0  0  0  0
  -33.8125    2.3263   -7.8205 O   0  5  0  0  0  0  0  0  0  0  0  0
  -32.3774    4.0666   -8.2597 O   0  0  0  0  0  0  0  0  0  0  0  0
  1 17  1  0  0  0  0
  1 20  1  0  0  0  0
  2 15  1  1  0  0  0
  2  3  1  0  0  0  0
  2 11  1  0  0  0  0
  3  5  1  0  0  0  0
  4 16  1  6  0  0  0
  4 21  1  0  0  0  0
  4 22  2  0  0  0  0
  4 14  1  0  0  0  0
  5  1  1  1  0  0  0
  5  8  1  0  0  0  0
  6 17  2  0  0  0  0
  6 12  1  0  0  0  0
  8  7  1  6  0  0  0
  8 11  1  0  0  0  0
  9 19  1  0  0  0  0
 11 10  1  6  0  0  0
 12 20  2  0  0  0  0
 12 19  1  0  0  0  0
 13 20  1  0  0  0  0
 14 15  1  0  0  0  0
 18 19  2  0  0  0  0
M  CHG  1  21  -1
M  END
>  <CHROM.1>
38.65462839,52.05077606,-171.59480882,-166.51364715,-110.65821562,-29.87040822
3.18642700,-10.24826629,-0.37035838,-0.35193579,-2.96254526

>  <Name>
ligand

>  <RI>
0

>  <Rbt.Current_Directory>
/home/itssahil/PROJECTS/Mol_Feturizer/New_Systems/rnas/4XWF

>  <Rbt.Executable>
rbdock ($Id: //depot/dev/client3/rdock/2013.1/src/exe/rbdock.cxx#4 $)

>  <Rbt.Library>
libRbt.so (2013.1, Build901 2013/11/27)

>  <Rbt.Parameter_File>
/export/apps/rDock/src/rDock_2013.1_src/data/scripts/dock_solv.prm

>  <Rbt.Receptor>
prm/pocket_docking_3.prm

>  <SCORE>
-6.80195

>  <SCORE.INTER>
-6.28397

>  <SCORE.INTER.CONST>
1

>  <SCORE.INTER.POLAR>
0

>  <SCORE.INTER.ROT>
5

>  <SCORE.INTER.SOLV>
10.8736

>  <SCORE.INTER.VDW>
-14.7472

>  <SCORE.INTER.norm>
-0.285635

>  <SCORE.INTRA>
-0.517986

>  <SCORE.INTRA.DIHEDRAL>
-0.758707

>  <SCORE.INTRA.DIHEDRAL.0>
3.49807

>  <SCORE.INTRA.POLAR>
0

>  <SCORE.INTRA.POLAR.0>
0

>  <SCORE.INTRA.REPUL>
0

>  <SCORE.INTRA.REPUL.0>
0

>  <SCORE.INTRA.SOLV>
0.7966

>  <SCORE.INTRA.SOLV.lig_0>
-73.062

>  <SCORE.INTRA.VDW>
-0.536932

>  <SCORE.INTRA.VDW.0>
-1.83782

>  <SCORE.INTRA.norm>
-0.0235448

>  <SCORE.RESTR>
0

>  <SCORE.RESTR.CAVITY>
0

>  <SCORE.RESTR.norm>
0

>  <SCORE.SYSTEM>
0

>  <SCORE.SYSTEM.CONST>
0

>  <SCORE.SYSTEM.DIHEDRAL>
0

>  <SCORE.SYSTEM.SOLV>
0

>  <SCORE.SYSTEM.norm>
0

>  <SCORE.heavy>
22

>  <SCORE.norm>
-0.30918

>  <RMSD>
6.527

$$$$
ligand
 OpenBabel11021811513D
libRbt.so/2013.1/901 2013/11/27
 22 23  0  0  0  0  0  0  0  0999 V2000
  -28.3968    3.3330  -11.4661 N   0  0  0  0  0  0  0  0  0  0  0  0
  -30.5356    0.7565  -10.9769 C   0  0  1  0  0  0  0  0  0  0  0  0
  -30.1848    1.9124  -11.7896 O   0  0  0  0  0  0  0  0  0  0  0  0
  -33.1140    2.8517   -9.1608 P   0  0  1  0  0  0  0  0  0  0  0  0
  -28.7537    2.0398  -11.7877 C   0  0  2  0  0  0  0  0  0  0  0  0
  -28.3067    5.2421  -10.4374 N   0  0  0  0  0  0  0  0  0  0  0  0
  -26.9456    0.7794  -10.8722 O   0  0  0  0  0  0  0  0  0  0  0  0
  -28.3021    1.1895  -10.6635 C   0  0  2  0  0  0  0  0  0  0  0  0
  -26.6300    7.5863  -11.0615 N   0  0  0  0  0  0  0  0  0  0  0  0
  -28.9763   -0.8146  -11.7480 O   0  0  0  0  0  0  0  0  0  0  0  0
  -29.2548    0.0862  -10.6629 C   0  0  2  0  0  0  0  0  0  0  0  0
  -27.4087    5.2606  -11.4343 C   0  0  0  0  0  0  0  0  0  0  0  0
  -26.6565    3.6638  -13.1801 N   0  0  0  0  0  0  0  0  0  0  0  0
  -32.2721    2.0310  -10.1983 O   0  0  0  0  0  0  0  0  0  0  0  0
  -31.1986    1.2716   -9.7460 C   0  0  0  0  0  0  0  0  0  0  0  0
  -33.5601    1.7627   -8.1188 O   0  0  0  0  0  0  0  0  0  0  0  0
  -28.9236    4.0453  -10.4633 C   0  0  0  0  0  0  0  0  0  0  0  0
  -25.6965    6.2859  -12.6810 O   0  0  0  0  0  0  0  0  0  0  0  0
  -26.5201    6.3880  -11.7720 C   0  0  0  0  0  0  0  0  0  0  0  0
  -27.4574    4.0607  -12.0848 C   0  0  0  0  0  0  0  0  0  0  0  0
  -32.2778    3.9490   -8.5911 O   0  5  0  0  0  0  0  0  0  0  0  0
  -34.1788    3.6134   -9.8379 O   0  0  0  0  0  0  0  0  0  0  0  0
  1 17  1  0  0  0  0
  1 20  1  0  0  0  0
  2 15  1  1  0  0  0
  2  3  1  0  0  0  0
  2 11  1  0  0  0  0
  3  5  1  0  0  0  0
  4 16  1  1  0  0  0
  4 21  1  0  0  0  0
  4 22  2  0  0  0  0
  4 14  1  0  0  0  0
  5  1  1  1  0  0  0
  5  8  1  0  0  0  0
  6 17  2  0  0  0  0
  6 12  1  0  0  0  0
  8  7  1  6  0  0  0
  8 11  1  0  0  0  0
  9 19  1  0  0  0  0
 11 10  1  6  0  0  0
 12 20  2  0  0  0  0
 12 19  1  0  0  0  0
 13 20  1  0  0  0  0
 14 15  1  0  0  0  0
 18 19  2  0  0  0  0
M  CHG  1  21  -1
M  END
>  <CHROM.1>
45.66004843,56.67268793,-55.21914294,-173.79713624,-3.32394681,-29.63869861
2.99698276,-10.73001530,-0.38744477,-0.43577392,-3.04103837

>  <Name>
ligand

>  <RI>
0

>  <Rbt.Current_Directory>
/home/itssahil/PROJECTS/Mol_Feturizer/New_Systems/rnas/4XWF

>  <Rbt.Executable>
rbdock ($Id: //depot/dev/client3/rdock/2013.1/src/exe/rbdock.cxx#4 $)

>  <Rbt.Library>
libRbt.so (2013.1, Build901 2013/11/27)

>  <Rbt.Parameter_File>
/export/apps/rDock/src/rDock_2013.1_src/data/scripts/dock_solv.prm

>  <Rbt.Receptor>
prm/pocket_docking_3.prm

>  <SCORE>
-4.90092

>  <SCORE.INTER>
-3.69045

>  <SCORE.INTER.CONST>
1

>  <SCORE.INTER.POLAR>
0

>  <SCORE.INTER.ROT>
5

>  <SCORE.INTER.SOLV>
15.7122

>  <SCORE.INTER.VDW>
-14.631

>  <SCORE.INTER.norm>
-0.167748

>  <SCORE.INTRA>
-1.21048

>  <SCORE.INTRA.DIHEDRAL>
-1.75587

>  <SCORE.INTRA.DIHEDRAL.0>
3.49807

>  <SCORE.INTRA.POLAR>
0

>  <SCORE.INTRA.POLAR.0>
0

>  <SCORE.INTRA.REPUL>
0

>  <SCORE.INTRA.REPUL.0>
0

>  <SCORE.INTRA.SOLV>
-0.337251

>  <SCORE.INTRA.SOLV.lig_0>
-73.062

>  <SCORE.INTRA.VDW>
-0.163915

>  <SCORE.INTRA.VDW.0>
-1.83782

>  <SCORE.INTRA.norm>
-0.0550216

>  <SCORE.RESTR>
0

>  <SCORE.RESTR.CAVITY>
0

>  <SCORE.RESTR.norm>
0

>  <SCORE.SYSTEM>
0

>  <SCORE.SYSTEM.CONST>
0

>  <SCORE.SYSTEM.DIHEDRAL>
0

>  <SCORE.SYSTEM.SOLV>
0

>  <SCORE.SYSTEM.norm>
0

>  <SCORE.heavy>
22

>  <SCORE.norm>
-0.222769

>  <RMSD>
6.534

$$$$
ligand
 OpenBabel11021811513D
libRbt.so/2013.1/901 2013/11/27
 22 23  0  0  0  0  0  0  0  0999 V2000
  -28.6977    3.5236  -10.9583 N   0  0  0  0  0  0  0  0  0  0  0  0
  -30.8458    0.9219  -10.6946 C   0  0  1  0  0  0  0  0  0  0  0  0
  -30.4571    2.1116  -11.4386 O   0  0  0  0  0  0  0  0  0  0  0  0
  -33.3168    3.1684   -8.9338 P   0  0  1  0  0  0  0  0  0  0  0  0
  -29.0290    2.2435  -11.3520 C   0  0  2  0  0  0  0  0  0  0  0  0
  -28.7364    5.4232   -9.9089 N   0  0  0  0  0  0  0  0  0  0  0  0
  -27.2672    0.9525  -10.3900 O   0  0  0  0  0  0  0  0  0  0  0  0
  -28.6355    1.3491  -10.2403 C   0  0  2  0  0  0  0  0  0  0  0  0
  -25.3809    6.3342  -10.5064 N   0  0  0  0  0  0  0  0  0  0  0  0
  -29.2373   -0.6108  -11.4419 O   0  0  0  0  0  0  0  0  0  0  0  0
  -29.5806    0.2435  -10.3379 C   0  0  2  0  0  0  0  0  0  0  0  0
  -27.6762    5.4204  -10.7315 C   0  0  0  0  0  0  0  0  0  0  0  0
  -26.6733    3.8118  -12.3347 N   0  0  0  0  0  0  0  0  0  0  0  0
  -32.5576    2.2512   -9.9541 O   0  0  0  0  0  0  0  0  0  0  0  0
  -31.5787    1.3835   -9.4823 C   0  0  0  0  0  0  0  0  0  0  0  0
  -34.4472    3.8209   -9.8096 O   0  0  0  0  0  0  0  0  0  0  0  0
  -29.3729    4.2456  -10.0564 C   0  0  0  0  0  0  0  0  0  0  0  0
  -27.0683    7.6066  -11.3546 O   0  0  0  0  0  0  0  0  0  0  0  0
  -26.7100    6.5225  -10.8947 C   0  0  0  0  0  0  0  0  0  0  0  0
  -27.6434    4.2263  -11.3935 C   0  0  0  0  0  0  0  0  0  0  0  0
  -33.8144    2.3455   -7.7922 O   0  5  0  0  0  0  0  0  0  0  0  0
  -32.3797    4.0804   -8.2535 O   0  0  0  0  0  0  0  0  0  0  0  0
  1 17  1  0  0  0  0
  1 20  1  0  0  0  0
  2 15  1  1  0  0  0
  2  3  1  0  0  0  0
  2 11  1  0  0  0  0
  3  5  1  0  0  0  0
  4 16  1  6  0  0  0
  4 21  1  0  0  0  0
  4 22  2  0  0  0  0
  4 14  1  0  0  0  0
  5  1  1  1  0  0  0
  5  8  1  0  0  0  0
  6 17  2  0  0  0  0
  6 12  1  0  0  0  0
  8  7  1  6  0  0  0
  8 11  1  0  0  0  0
  9 19  1  0  0  0  0
 11 10  1  6  0  0  0
 12 20  2  0  0  0  0
 12 19  1  0  0  0  0
 13 20  1  0  0  0  0
 14 15  1  0  0  0  0
 18 19  2  0  0  0  0
M  CHG  1  21  -1
M  END
>  <CHROM.1>
38.16429740,51.59872873,-172.21965708,-166.72204690,114.60032629,-29.89422319
3.19930490,-10.27260234,-0.37970616,-0.35621306,-3.00101484

>  <Name>
ligand

>  <RI>
0

>  <Rbt.Current_Directory>
/home/itssahil/PROJECTS/Mol_Feturizer/New_Systems/rnas/4XWF

>  <Rbt.Executable>
rbdock ($Id: //depot/dev/client3/rdock/2013.1/src/exe/rbdock.cxx#4 $)

>  <Rbt.Library>
libRbt.so (2013.1, Build901 2013/11/27)

>  <Rbt.Parameter_File>
/export/apps/rDock/src/rDock_2013.1_src/data/scripts/dock_solv.prm

>  <Rbt.Receptor>
prm/pocket_docking_3.prm

>  <SCORE>
-6.88775

>  <SCORE.INTER>
-6.33879

>  <SCORE.INTER.CONST>
1

>  <SCORE.INTER.POLAR>
0

>  <SCORE.INTER.ROT>
5

>  <SCORE.INTER.SOLV>
10.8224

>  <SCORE.INTER.VDW>
-14.7667

>  <SCORE.INTER.norm>
-0.288127

>  <SCORE.INTRA>
-0.548958

>  <SCORE.INTRA.DIHEDRAL>
-0.852432

>  <SCORE.INTRA.DIHEDRAL.0>
3.49807

>  <SCORE.INTRA.POLAR>
0

>  <SCORE.INTRA.POLAR.0>
0

>  <SCORE.INTRA.REPUL>
0

>  <SCORE.INTRA.REPUL.0>
0

>  <SCORE.INTRA.SOLV>
0.81994

>  <SCORE.INTRA.SOLV.lig_0>
-73.062

>  <SCORE.INTRA.VDW>
-0.532712

>  <SCORE.INTRA.VDW.0>
-1.83782

>  <SCORE.INTRA.norm>
-0.0249526

>  <SCORE.RESTR>
0

>  <SCORE.RESTR.CAVITY>
0

>  <SCORE.RESTR.norm>
0

>  <SCORE.SYSTEM>
0

>  <SCORE.SYSTEM.CONST>
0

>  <SCORE.SYSTEM.DIHEDRAL>
0

>  <SCORE.SYSTEM.SOLV>
0

>  <SCORE.SYSTEM.norm>
0

>  <SCORE.heavy>
22

>  <SCORE.norm>
-0.313079

>  <RMSD>
6.534

$$$$
ligand
 OpenBabel11021811513D
libRbt.so/2013.1/901 2013/11/27
 22 23  0  0  0  0  0  0  0  0999 V2000
  -28.3786    3.3329  -11.5114 N   0  0  0  0  0  0  0  0  0  0  0  0
  -30.5688    0.8258  -10.9028 C   0  0  1  0  0  0  0  0  0  0  0  0
  -30.1989    1.9393  -11.7649 O   0  0  0  0  0  0  0  0  0  0  0  0
  -33.1478    2.9774   -9.1521 P   0  0  1  0  0  0  0  0  0  0  0  0
  -28.7654    2.0356  -11.7769 C   0  0  2  0  0  0  0  0  0  0  0  0
  -28.2004    5.2624  -10.5334 N   0  0  0  0  0  0  0  0  0  0  0  0
  -26.9785    0.7750  -10.8209 O   0  0  0  0  0  0  0  0  0  0  0  0
  -28.3243    1.2228  -10.6212 C   0  0  2  0  0  0  0  0  0  0  0  0
  -26.5234    7.5629  -11.2998 N   0  0  0  0  0  0  0  0  0  0  0  0
  -29.0489   -0.8093  -11.6176 O   0  0  0  0  0  0  0  0  0  0  0  0
  -29.3005    0.1414  -10.5692 C   0  0  2  0  0  0  0  0  0  0  0  0
  -27.3819    5.2544  -11.5968 C   0  0  0  0  0  0  0  0  0  0  0  0
  -26.7743    3.6168  -13.3611 N   0  0  0  0  0  0  0  0  0  0  0  0
  -32.2988    2.1324  -10.1639 O   0  0  0  0  0  0  0  0  0  0  0  0
  -31.2120    1.4056   -9.6903 C   0  0  0  0  0  0  0  0  0  0  0  0
  -34.3475    3.4888  -10.0296 O   0  0  0  0  0  0  0  0  0  0  0  0
  -28.8231    4.0693  -10.4863 C   0  0  0  0  0  0  0  0  0  0  0  0
  -25.8033    6.2600  -13.0231 O   0  0  0  0  0  0  0  0  0  0  0  0
  -26.5167    6.3688  -12.0258 C   0  0  0  0  0  0  0  0  0  0  0  0
  -27.4863    4.0415  -12.2159 C   0  0  0  0  0  0  0  0  0  0  0  0
  -33.5463    2.1234   -7.9947 O   0  5  0  0  0  0  0  0  0  0  0  0
  -32.3121    3.9968   -8.4926 O   0  0  0  0  0  0  0  0  0  0  0  0
  1 17  1  0  0  0  0
  1 20  1  0  0  0  0
  2 15  1  1  0  0  0
  2  3  1  0  0  0  0
  2 11  1  0  0  0  0
  3  5  1  0  0  0  0
  4 16  1  6  0  0  0
  4 21  1  0  0  0  0
  4 22  2  0  0  0  0
  4 14  1  0  0  0  0
  5  1  1  1  0  0  0
  5  8  1  0  0  0  0
  6 17  2  0  0  0  0
  6 12  1  0  0  0  0
  8  7  1  6  0  0  0
  8 11  1  0  0  0  0
  9 19  1  0  0  0  0
 11 10  1  6  0  0  0
 12 20  2  0  0  0  0
 12 19  1  0  0  0  0
 13 20  1  0  0  0  0
 14 15  1  0  0  0  0
 18 19  2  0  0  0  0
M  CHG  1  21  -1
M  END
>  <CHROM.1>
49.97387195,58.60684976,-173.50937394,-175.28934061,-0.58328938,-29.65987918
3.03652327,-10.76618434,-0.37427497,-0.44755661,-3.07890103

>  <Name>
ligand

>  <RI>
0

>  <Rbt.Current_Directory>
/home/itssahil/PROJECTS/Mol_Feturizer/New_Systems/rnas/4XWF

>  <Rbt.Executable>
rbdock ($Id: //depot/dev/client3/rdock/2013.1/src/exe/rbdock.cxx#4 $)

>  <Rbt.Library>
libRbt.so (2013.1, Build901 2013/11/27)

>  <Rbt.Parameter_File>
/export/apps/rDock/src/rDock_2013.1_src/data/scripts/dock_solv.prm

>  <Rbt.Receptor>
prm/pocket_docking_4.prm

>  <SCORE>
-7.02538

>  <SCORE.INTER>
-6.01127

>  <SCORE.INTER.CONST>
1

>  <SCORE.INTER.POLAR>
0

>  <SCORE.INTER.ROT>
5

>  <SCORE.INTER.SOLV>
10.8207

>  <SCORE.INTER.VDW>
-14.5477

>  <SCORE.INTER.norm>
-0.273239

>  <SCORE.INTRA>
-1.01411

>  <SCORE.INTRA.DIHEDRAL>
-1.84205

>  <SCORE.INTRA.DIHEDRAL.0>
3.49807

>  <SCORE.INTRA.POLAR>
0

>  <SCORE.INTRA.POLAR.0>
0

>  <SCORE.INTRA.REPUL>
0

>  <SCORE.INTRA.REPUL.0>
0

>  <SCORE.INTRA.SOLV>
0.0985977

>  <SCORE.INTRA.SOLV.lig_0>
-73.062

>  <SCORE.INTRA.VDW>
-0.142386

>  <SCORE.INTRA.VDW.0>
-1.83782

>  <SCORE.INTRA.norm>
-0.0460961

>  <SCORE.RESTR>
0

>  <SCORE.RESTR.CAVITY>
0

>  <SCORE.RESTR.norm>
0

>  <SCORE.SYSTEM>
0

>  <SCORE.SYSTEM.CONST>
0

>  <SCORE.SYSTEM.DIHEDRAL>
0

>  <SCORE.SYSTEM.SOLV>
0

>  <SCORE.SYSTEM.norm>
0

>  <SCORE.heavy>
22

>  <SCORE.norm>
-0.319336

>  <RMSD>
6.535

$$$$
ligand
 OpenBabel11021811513D
libRbt.so/2013.1/901 2013/11/27
 22 23  0  0  0  0  0  0  0  0999 V2000
  -28.4127    3.4012  -11.4017 N   0  0  0  0  0  0  0  0  0  0  0  0
  -30.6217    0.8861  -10.9044 C   0  0  1  0  0  0  0  0  0  0  0  0
  -30.2261    2.0153  -11.7341 O   0  0  0  0  0  0  0  0  0  0  0  0
  -33.1815    3.0913   -9.2006 P   0  0  1  0  0  0  0  0  0  0  0  0
  -28.7928    2.1097  -11.7029 C   0  0  2  0  0  0  0  0  0  0  0  0
  -28.2674    5.3144  -10.3871 N   0  0  0  0  0  0  0  0  0  0  0  0
  -27.0353    0.8287  -10.7200 O   0  0  0  0  0  0  0  0  0  0  0  0
  -28.3859    1.2745  -10.5506 C   0  0  2  0  0  0  0  0  0  0  0  0
  -26.6656    7.0353  -13.0484 N   0  0  0  0  0  0  0  0  0  0  0  0
  -29.0832   -0.7373  -11.6061 O   0  0  0  0  0  0  0  0  0  0  0  0
  -29.3642    0.1936  -10.5474 C   0  0  2  0  0  0  0  0  0  0  0  0
  -27.4071    5.3199  -11.4169 C   0  0  0  0  0  0  0  0  0  0  0  0
  -26.7348    3.7078  -13.1811 N   0  0  0  0  0  0  0  0  0  0  0  0
  -32.3600    2.1963  -10.1919 O   0  0  0  0  0  0  0  0  0  0  0  0
  -31.2991    1.4437   -9.7002 C   0  0  0  0  0  0  0  0  0  0  0  0
  -34.4249    3.5278  -10.0573 O   0  0  0  0  0  0  0  0  0  0  0  0
  -28.8954    4.1232  -10.3837 C   0  0  0  0  0  0  0  0  0  0  0  0
  -25.6514    6.8355  -11.0193 O   0  0  0  0  0  0  0  0  0  0  0  0
  -26.5218    6.4375  -11.7934 C   0  0  0  0  0  0  0  0  0  0  0  0
  -27.4906    4.1173  -12.0588 C   0  0  0  0  0  0  0  0  0  0  0  0
  -33.5170    2.3069   -7.9759 O   0  5  0  0  0  0  0  0  0  0  0  0
  -32.3374    4.1630   -8.6424 O   0  0  0  0  0  0  0  0  0  0  0  0
  1 17  1  0  0  0  0
  1 20  1  0  0  0  0
  2 15  1  1  0  0  0
  2  3  1  0  0  0  0
  2 11  1  0  0  0  0
  3  5  1  0  0  0  0
  4 16  1  6  0  0  0
  4 21  1  0  0  0  0
  4 22  2  0  0  0  0
  4 14  1  0  0  0  0
  5  1  1  1  0  0  0
  5  8  1  0  0  0  0
  6 17  2  0  0  0  0
  6 12  1  0  0  0  0
  8  7  1  6  0  0  0
  8 11  1  0  0  0  0
  9 19  1  0  0  0  0
 11 10  1  6  0  0  0
 12 20  2  0  0  0  0
 12 19  1  0  0  0  0
 13 20  1  0  0  0  0
 14 15  1  0  0  0  0
 18 19  2  0  0  0  0
M  CHG  1  21  -1
M  END
>  <CHROM.1>
49.29709216,57.79006958,-169.01665237,-171.80079914,-118.54582585,-29.69237431
3.11424830,-10.70069107,-0.38172433,-0.40953520,-3.07346581

>  <Name>
ligand

>  <RI>
0

>  <Rbt.Current_Directory>
/home/itssahil/PROJECTS/Mol_Feturizer/New_Systems/rnas/4XWF

>  <Rbt.Executable>
rbdock ($Id: //depot/dev/client3/rdock/2013.1/src/exe/rbdock.cxx#4 $)

>  <Rbt.Library>
libRbt.so (2013.1, Build901 2013/11/27)

>  <Rbt.Parameter_File>
/export/apps/rDock/src/rDock_2013.1_src/data/scripts/dock_solv.prm

>  <Rbt.Receptor>
prm/pocket_docking_4.prm

>  <SCORE>
-7.21206

>  <SCORE.INTER>
-6.2741

>  <SCORE.INTER.CONST>
1

>  <SCORE.INTER.POLAR>
0

>  <SCORE.INTER.ROT>
5

>  <SCORE.INTER.SOLV>
11.4701

>  <SCORE.INTER.VDW>
-14.9394

>  <SCORE.INTER.norm>
-0.285186

>  <SCORE.INTRA>
-0.937958

>  <SCORE.INTRA.DIHEDRAL>
-1.50673

>  <SCORE.INTRA.DIHEDRAL.0>
3.49807

>  <SCORE.INTRA.POLAR>
0

>  <SCORE.INTRA.POLAR.0>
0

>  <SCORE.INTRA.REPUL>
0

>  <SCORE.INTRA.REPUL.0>
0

>  <SCORE.INTRA.SOLV>
0.295539

>  <SCORE.INTRA.SOLV.lig_0>
-73.062

>  <SCORE.INTRA.VDW>
-0.332363

>  <SCORE.INTRA.VDW.0>
-1.83782

>  <SCORE.INTRA.norm>
-0.0426345

>  <SCORE.RESTR>
0

>  <SCORE.RESTR.CAVITY>
0

>  <SCORE.RESTR.norm>
0

>  <SCORE.SYSTEM>
0

>  <SCORE.SYSTEM.CONST>
0

>  <SCORE.SYSTEM.DIHEDRAL>
0

>  <SCORE.SYSTEM.SOLV>
0

>  <SCORE.SYSTEM.norm>
0

>  <SCORE.heavy>
22

>  <SCORE.norm>
-0.327821

>  <RMSD>
6.536

$$$$
ligand
 OpenBabel11021811513D
libRbt.so/2013.1/901 2013/11/27
 22 23  0  0  0  0  0  0  0  0999 V2000
  -28.9567    2.4431  -11.7865 N   0  0  0  0  0  0  0  0  0  0  0  0
  -31.1512    1.0135   -9.6434 C   0  0  1  0  0  0  0  0  0  0  0  0
  -30.8761    1.4249  -11.0127 O   0  0  0  0  0  0  0  0  0  0  0  0
  -33.3804    3.9901   -8.9159 P   0  0  1  0  0  0  0  0  0  0  0  0
  -29.4657    1.2805  -11.2457 C   0  0  2  0  0  0  0  0  0  0  0  0
  -28.3848    4.5251  -12.0087 N   0  0  0  0  0  0  0  0  0  0  0  0
  -27.6166    0.4685   -9.9740 O   0  0  0  0  0  0  0  0  0  0  0  0
  -28.8727    1.1525   -9.8957 C   0  0  2  0  0  0  0  0  0  0  0  0
  -27.8596    4.5191  -15.4789 N   0  0  0  0  0  0  0  0  0  0  0  0
  -29.8925   -0.9598   -9.5144 O   0  0  0  0  0  0  0  0  0  0  0  0
  -29.8886    0.4285   -9.1414 C   0  0  2  0  0  0  0  0  0  0  0  0
  -27.9582    3.8557  -13.0906 C   0  0  0  0  0  0  0  0  0  0  0  0
  -28.0308    1.4985  -13.8664 N   0  0  0  0  0  0  0  0  0  0  0  0
  -32.6985    2.6939   -9.4757 O   0  0  0  0  0  0  0  0  0  0  0  0
  -31.5246    2.2400   -8.8843 C   0  0  0  0  0  0  0  0  0  0  0  0
  -34.7191    4.0740   -9.7352 O   0  0  0  0  0  0  0  0  0  0  0  0
  -29.0103    3.6460  -11.2028 C   0  0  0  0  0  0  0  0  0  0  0  0
  -26.0754    4.8412  -14.1011 O   0  0  0  0  0  0  0  0  0  0  0  0
  -27.2313    4.4394  -14.2332 C   0  0  0  0  0  0  0  0  0  0  0  0
  -28.3119    2.5433  -12.9565 C   0  0  0  0  0  0  0  0  0  0  0  0
  -33.5637    3.8639   -7.4399 O   0  5  0  0  0  0  0  0  0  0  0  0
  -32.4638    5.1413   -9.0018 O   0  0  0  0  0  0  0  0  0  0  0  0
  1 17  1  0  0  0  0
  1 20  1  0  0  0  0
  2 15  1  1  0  0  0
  2  3  1  0  0  0  0
  2 11  1  0  0  0  0
  3  5  1  0  0  0  0
  4 16  1  6  0  0  0
  4 21  1  0  0  0  0
  4 22  2  0  0  0  0
  4 14  1  0  0  0  0
  5  1  1  1  0  0  0
  5  8  1  0  0  0  0
  6 17  2  0  0  0  0
  6 12  1  0  0  0  0
  8  7  1  6  0  0  0
  8 11  1  0  0  0  0
  9 19  1  0  0  0  0
 11 10  1  6  0  0  0
 12 20  2  0  0  0  0
 12 19  1  0  0  0  0
 13 20  1  0  0  0  0
 14 15  1  0  0  0  0
 18 19  2  0  0  0  0
M  CHG  1  21  -1
M  END
>  <CHROM.1>
59.14568045,63.58180409,-174.40293642,-179.98568869,-111.59476882,-30.18150647
2.75281755,-10.83812988,-0.35262399,-0.62276146,2.60770889

>  <Name>
ligand

>  <RI>
0

>  <Rbt.Current_Directory>
/home/itssahil/PROJECTS/Mol_Feturizer/New_Systems/rnas/4XWF

>  <Rbt.Executable>
rbdock ($Id: //depot/dev/client3/rdock/2013.1/src/exe/rbdock.cxx#4 $)

>  <Rbt.Library>
libRbt.so (2013.1, Build901 2013/11/27)

>  <Rbt.Parameter_File>
/export/apps/rDock/src/rDock_2013.1_src/data/scripts/dock_solv.prm

>  <Rbt.Receptor>
prm/pocket_docking_4.prm

>  <SCORE>
-5.54233

>  <SCORE.INTER>
-4.46146

>  <SCORE.INTER.CONST>
1

>  <SCORE.INTER.POLAR>
0

>  <SCORE.INTER.ROT>
5

>  <SCORE.INTER.SOLV>
15.0665

>  <SCORE.INTER.VDW>
-14.9298

>  <SCORE.INTER.norm>
-0.202794

>  <SCORE.INTRA>
-1.08087

>  <SCORE.INTRA.DIHEDRAL>
-1.81177

>  <SCORE.INTRA.DIHEDRAL.0>
3.49807

>  <SCORE.INTRA.POLAR>
0

>  <SCORE.INTRA.POLAR.0>
0

>  <SCORE.INTRA.REPUL>
0

>  <SCORE.INTRA.REPUL.0>
0

>  <SCORE.INTRA.SOLV>
-0.20141

>  <SCORE.INTRA.SOLV.lig_0>
-73.062

>  <SCORE.INTRA.VDW>
-0.0742773

>  <SCORE.INTRA.VDW.0>
-1.83782

>  <SCORE.INTRA.norm>
-0.0491303

>  <SCORE.RESTR>
0

>  <SCORE.RESTR.CAVITY>
0

>  <SCORE.RESTR.norm>
0

>  <SCORE.SYSTEM>
0

>  <SCORE.SYSTEM.CONST>
0

>  <SCORE.SYSTEM.DIHEDRAL>
0

>  <SCORE.SYSTEM.SOLV>
0

>  <SCORE.SYSTEM.norm>
0

>  <SCORE.heavy>
22

>  <SCORE.norm>
-0.251924

>  <RMSD>
6.537

$$$$
ligand
 OpenBabel11021811513D
libRbt.so/2013.1/901 2013/11/27
 22 23  0  0  0  0  0  0  0  0999 V2000
  -28.4000    3.3905  -11.4401 N   0  0  0  0  0  0  0  0  0  0  0  0
  -30.6128    0.8850  -10.9129 C   0  0  1  0  0  0  0  0  0  0  0  0
  -30.2189    2.0073  -11.7526 O   0  0  0  0  0  0  0  0  0  0  0  0
  -33.1727    3.0903   -9.2081 P   0  0  1  0  0  0  0  0  0  0  0  0
  -28.7852    2.0980  -11.7302 C   0  0  2  0  0  0  0  0  0  0  0  0
  -28.2436    5.3103  -10.4394 N   0  0  0  0  0  0  0  0  0  0  0  0
  -27.0256    0.8191  -10.7484 O   0  0  0  0  0  0  0  0  0  0  0  0
  -28.3741    1.2697  -10.5745 C   0  0  2  0  0  0  0  0  0  0  0  0
  -26.7101    7.0670  -13.0846 N   0  0  0  0  0  0  0  0  0  0  0  0
  -29.0827   -0.7474  -11.6120 O   0  0  0  0  0  0  0  0  0  0  0  0
  -29.3551    0.1916  -10.5582 C   0  0  2  0  0  0  0  0  0  0  0  0
  -27.3895    5.3064  -11.4743 C   0  0  0  0  0  0  0  0  0  0  0  0
  -26.7319    3.6806  -13.2315 N   0  0  0  0  0  0  0  0  0  0  0  0
  -32.3498    2.1962  -10.1990 O   0  0  0  0  0  0  0  0  0  0  0  0
  -31.2819    1.4527   -9.7087 C   0  0  0  0  0  0  0  0  0  0  0  0
  -34.4212    3.5173  -10.0621 O   0  0  0  0  0  0  0  0  0  0  0  0
  -28.8747    4.1207  -10.4242 C   0  0  0  0  0  0  0  0  0  0  0  0
  -25.5786    6.7693  -11.1310 O   0  0  0  0  0  0  0  0  0  0  0  0
  -26.5035    6.4191  -11.8638 C   0  0  0  0  0  0  0  0  0  0  0  0
  -27.4800    4.0997  -12.1075 C   0  0  0  0  0  0  0  0  0  0  0  0
  -33.5001    2.3084   -7.9795 O   0  5  0  0  0  0  0  0  0  0  0  0
  -32.3324    4.1683   -8.6564 O   0  0  0  0  0  0  0  0  0  0  0  0
  1 17  1  0  0  0  0
  1 20  1  0  0  0  0
  2 15  1  1  0  0  0
  2  3  1  0  0  0  0
  2 11  1  0  0  0  0
  3  5  1  0  0  0  0
  4 16  1  6  0  0  0
  4 21  1  0  0  0  0
  4 22  2  0  0  0  0
  4 14  1  0  0  0  0
  5  1  1  1  0  0  0
  5  8  1  0  0  0  0
  6 17  2  0  0  0  0
  6 12  1  0  0  0  0
  8  7  1  6  0  0  0
  8 11  1  0  0  0  0
  9 19  1  0  0  0  0
 11 10  1  6  0  0  0
 12 20  2  0  0  0  0
 12 19  1  0  0  0  0
 13 20  1  0  0  0  0
 14 15  1  0  0  0  0
 18 19  2  0  0  0  0
M  CHG  1  21  -1
M  END
>  <CHROM.1>
49.31362809,58.24556970,-169.13156829,-172.25081139,-114.32944166,-29.68096954
3.10665916,-10.72944428,-0.37999123,-0.41303622,-3.08205870

>  <Name>
ligand

>  <RI>
0

>  <Rbt.Current_Directory>
/home/itssahil/PROJECTS/Mol_Feturizer/New_Systems/rnas/4XWF

>  <Rbt.Executable>
rbdock ($Id: //depot/dev/client3/rdock/2013.1/src/exe/rbdock.cxx#4 $)

>  <Rbt.Library>
libRbt.so (2013.1, Build901 2013/11/27)

>  <Rbt.Parameter_File>
/export/apps/rDock/src/rDock_2013.1_src/data/scripts/dock_solv.prm

>  <Rbt.Receptor>
prm/pocket_docking_6.prm

>  <SCORE>
-7.2041

>  <SCORE.INTER>
-6.23927

>  <SCORE.INTER.CONST>
1

>  <SCORE.INTER.POLAR>
0

>  <SCORE.INTER.ROT>
5

>  <SCORE.INTER.SOLV>
11.4853

>  <SCORE.INTER.VDW>
-14.9213

>  <SCORE.INTER.norm>
-0.283603

>  <SCORE.INTRA>
-0.964825

>  <SCORE.INTRA.DIHEDRAL>
-1.51208

>  <SCORE.INTRA.DIHEDRAL.0>
3.49807

>  <SCORE.INTRA.POLAR>
0

>  <SCORE.INTRA.POLAR.0>
0

>  <SCORE.INTRA.REPUL>
0

>  <SCORE.INTRA.REPUL.0>
0

>  <SCORE.INTRA.SOLV>
0.250963

>  <SCORE.INTRA.SOLV.lig_0>
-73.062

>  <SCORE.INTRA.VDW>
-0.334266

>  <SCORE.INTRA.VDW.0>
-1.83782

>  <SCORE.INTRA.norm>
-0.0438557

>  <SCORE.RESTR>
0

>  <SCORE.RESTR.CAVITY>
0

>  <SCORE.RESTR.norm>
0

>  <SCORE.SYSTEM>
0

>  <SCORE.SYSTEM.CONST>
0

>  <SCORE.SYSTEM.DIHEDRAL>
0

>  <SCORE.SYSTEM.SOLV>
0

>  <SCORE.SYSTEM.norm>
0

>  <SCORE.heavy>
22

>  <SCORE.norm>
-0.327459

>  <RMSD>
6.537

$$$$
ligand
 OpenBabel11021811513D
libRbt.so/2013.1/901 2013/11/27
 22 23  0  0  0  0  0  0  0  0999 V2000
  -28.4401    3.4463  -11.3325 N   0  0  0  0  0  0  0  0  0  0  0  0
  -30.6333    0.9116  -10.8661 C   0  0  1  0  0  0  0  0  0  0  0  0
  -30.2355    2.0435  -11.6910 O   0  0  0  0  0  0  0  0  0  0  0  0
  -33.2326    3.1010   -9.2000 P   0  0  1  0  0  0  0  0  0  0  0  0
  -28.8037    2.1511  -11.6381 C   0  0  2  0  0  0  0  0  0  0  0  0
  -28.3185    5.3576  -10.3111 N   0  0  0  0  0  0  0  0  0  0  0  0
  -27.0497    0.8872  -10.6271 O   0  0  0  0  0  0  0  0  0  0  0  0
  -28.4068    1.3207  -10.4788 C   0  0  2  0  0  0  0  0  0  0  0  0
  -26.7615    7.1274  -12.9563 N   0  0  0  0  0  0  0  0  0  0  0  0
  -29.0695   -0.6983  -11.5425 O   0  0  0  0  0  0  0  0  0  0  0  0
  -29.3751    0.2310  -10.4893 C   0  0  2  0  0  0  0  0  0  0  0  0
  -27.4596    5.3780  -11.3418 C   0  0  0  0  0  0  0  0  0  0  0  0
  -26.7685    3.7812  -13.1128 N   0  0  0  0  0  0  0  0  0  0  0  0
  -32.3821    2.2230  -10.1821 O   0  0  0  0  0  0  0  0  0  0  0  0
  -31.3340    1.4640   -9.6729 C   0  0  0  0  0  0  0  0  0  0  0  0
  -34.4581    3.5401  -10.0808 O   0  0  0  0  0  0  0  0  0  0  0  0
  -28.9309    4.1582  -10.3113 C   0  0  0  0  0  0  0  0  0  0  0  0
  -25.7068    6.8986  -10.9511 O   0  0  0  0  0  0  0  0  0  0  0  0
  -26.5893    6.5084  -11.7153 C   0  0  0  0  0  0  0  0  0  0  0  0
  -27.5283    4.1768  -11.9881 C   0  0  0  0  0  0  0  0  0  0  0  0
  -33.5920    2.2998   -7.9930 O   0  5  0  0  0  0  0  0  0  0  0  0
  -32.4089    4.1710   -8.6092 O   0  0  0  0  0  0  0  0  0  0  0  0
  1 17  1  0  0  0  0
  1 20  1  0  0  0  0
  2 15  1  1  0  0  0
  2  3  1  0  0  0  0
  2 11  1  0  0  0  0
  3  5  1  0  0  0  0
  4 16  1  6  0  0  0
  4 21  1  0  0  0  0
  4 22  2  0  0  0  0
  4 14  1  0  0  0  0
  5  1  1  1  0  0  0
  5  8  1  0  0  0  0
  6 17  2  0  0  0  0
  6 12  1  0  0  0  0
  8  7  1  6  0  0  0
  8 11  1  0  0  0  0
  9 19  1  0  0  0  0
 11 10  1  6  0  0  0
 12 20  2  0  0  0  0
 12 19  1  0  0  0  0
 13 20  1  0  0  0  0
 14 15  1  0  0  0  0
 18 19  2  0  0  0  0
M  CHG  1  21  -1
M  END
>  <CHROM.1>
50.29705084,56.91277799,-168.58718961,-172.55094302,-117.17813257,-29.72972648
3.15204900,-10.65330638,-0.39594277,-0.39693745,-3.08278265

>  <Name>
ligand

>  <RI>
0

>  <Rbt.Current_Directory>
/home/itssahil/PROJECTS/Mol_Feturizer/New_Systems/rnas/4XWF

>  <Rbt.Executable>
rbdock ($Id: //depot/dev/client3/rdock/2013.1/src/exe/rbdock.cxx#4 $)

>  <Rbt.Library>
libRbt.so (2013.1, Build901 2013/11/27)

>  <Rbt.Parameter_File>
/export/apps/rDock/src/rDock_2013.1_src/data/scripts/dock_solv.prm

>  <Rbt.Receptor>
prm/pocket_docking_4.prm

>  <SCORE>
-7.17679

>  <SCORE.INTER>
-6.23949

>  <SCORE.INTER.CONST>
1

>  <SCORE.INTER.POLAR>
0

>  <SCORE.INTER.ROT>
5

>  <SCORE.INTER.SOLV>
11.6444

>  <SCORE.INTER.VDW>
-14.9745

>  <SCORE.INTER.norm>
-0.283613

>  <SCORE.INTRA>
-0.937301

>  <SCORE.INTRA.DIHEDRAL>
-1.52495

>  <SCORE.INTRA.DIHEDRAL.0>
3.49807

>  <SCORE.INTRA.POLAR>
0

>  <SCORE.INTRA.POLAR.0>
0

>  <SCORE.INTRA.REPUL>
0

>  <SCORE.INTRA.REPUL.0>
0

>  <SCORE.INTRA.SOLV>
0.24583

>  <SCORE.INTRA.SOLV.lig_0>
-73.062

>  <SCORE.INTRA.VDW>
-0.297739

>  <SCORE.INTRA.VDW.0>
-1.83782

>  <SCORE.INTRA.norm>
-0.0426046

>  <SCORE.RESTR>
0

>  <SCORE.RESTR.CAVITY>
0

>  <SCORE.RESTR.norm>
0

>  <SCORE.SYSTEM>
0

>  <SCORE.SYSTEM.CONST>
0

>  <SCORE.SYSTEM.DIHEDRAL>
0

>  <SCORE.SYSTEM.SOLV>
0

>  <SCORE.SYSTEM.norm>
0

>  <SCORE.heavy>
22

>  <SCORE.norm>
-0.326218

>  <RMSD>
6.538

$$$$
ligand
 OpenBabel11021811513D
libRbt.so/2013.1/901 2013/11/27
 22 23  0  0  0  0  0  0  0  0999 V2000
  -28.4136    3.3573  -11.4833 N   0  0  0  0  0  0  0  0  0  0  0  0
  -30.5757    0.8189  -10.9049 C   0  0  1  0  0  0  0  0  0  0  0  0
  -30.2146    1.9426  -11.7574 O   0  0  0  0  0  0  0  0  0  0  0  0
  -33.1496    2.9811   -9.1615 P   0  0  1  0  0  0  0  0  0  0  0  0
  -28.7823    2.0569  -11.7597 C   0  0  2  0  0  0  0  0  0  0  0  0
  -28.2665    5.2827  -10.4923 N   0  0  0  0  0  0  0  0  0  0  0  0
  -26.9856    0.8127  -10.8007 O   0  0  0  0  0  0  0  0  0  0  0  0
  -28.3383    1.2422  -10.6065 C   0  0  2  0  0  0  0  0  0  0  0  0
  -26.8259    7.0485  -13.1894 N   0  0  0  0  0  0  0  0  0  0  0  0
  -29.0310   -0.7922  -11.6207 O   0  0  0  0  0  0  0  0  0  0  0  0
  -29.3011    0.1483  -10.5677 C   0  0  2  0  0  0  0  0  0  0  0  0
  -27.4401    5.2914  -11.5494 C   0  0  0  0  0  0  0  0  0  0  0  0
  -26.7991    3.6724  -13.3190 N   0  0  0  0  0  0  0  0  0  0  0  0
  -32.3070    2.1265  -10.1707 O   0  0  0  0  0  0  0  0  0  0  0  0
  -31.2337    1.3826   -9.6927 C   0  0  0  0  0  0  0  0  0  0  0  0
  -34.3573    3.4803  -10.0348 O   0  0  0  0  0  0  0  0  0  0  0  0
  -28.8748    4.0817  -10.4572 C   0  0  0  0  0  0  0  0  0  0  0  0
  -25.6570    6.7977  -11.2513 O   0  0  0  0  0  0  0  0  0  0  0  0
  -26.5854    6.4190  -11.9651 C   0  0  0  0  0  0  0  0  0  0  0  0
  -27.5249    4.0812  -12.1768 C   0  0  0  0  0  0  0  0  0  0  0  0
  -33.5368    2.1393   -7.9913 O   0  5  0  0  0  0  0  0  0  0  0  0
  -32.3106    4.0095   -8.5203 O   0  0  0  0  0  0  0  0  0  0  0  0
  1 17  1  0  0  0  0
  1 20  1  0  0  0  0
  2 15  1  1  0  0  0
  2  3  1  0  0  0  0
  2 11  1  0  0  0  0
  3  5  1  0  0  0  0
  4 16  1  6  0  0  0
  4 21  1  0  0  0  0
  4 22  2  0  0  0  0
  4 14  1  0  0  0  0
  5  1  1  1  0  0  0
  5  8  1  0  0  0  0
  6 17  2  0  0  0  0
  6 12  1  0  0  0  0
  8  7  1  6  0  0  0
  8 11  1  0  0  0  0
  9 19  1  0  0  0  0
 11 10  1  6  0  0  0
 12 20  2  0  0  0  0
 12 19  1  0  0  0  0
 13 20  1  0  0  0  0
 14 15  1  0  0  0  0
 18 19  2  0  0  0  0
M  CHG  1  21  -1
M  END
>  <CHROM.1>
49.89735936,57.15321281,-172.02885301,-174.19203157,-115.10684269,-29.68211342
3.05460372,-10.74960611,-0.39907288,-0.43260261,-3.09694304

>  <Name>
ligand

>  <RI>
0

>  <Rbt.Current_Directory>
/home/itssahil/PROJECTS/Mol_Feturizer/New_Systems/rnas/4XWF

>  <Rbt.Executable>
rbdock ($Id: //depot/dev/client3/rdock/2013.1/src/exe/rbdock.cxx#4 $)

>  <Rbt.Library>
libRbt.so (2013.1, Build901 2013/11/27)

>  <Rbt.Parameter_File>
/export/apps/rDock/src/rDock_2013.1_src/data/scripts/dock_solv.prm

>  <Rbt.Receptor>
prm/pocket_docking_4.prm

>  <SCORE>
-7.16764

>  <SCORE.INTER>
-6.11086

>  <SCORE.INTER.CONST>
1

>  <SCORE.INTER.POLAR>
0

>  <SCORE.INTER.ROT>
5

>  <SCORE.INTER.SOLV>
11.0307

>  <SCORE.INTER.VDW>
-14.6841

>  <SCORE.INTER.norm>
-0.277766

>  <SCORE.INTRA>
-1.05678

>  <SCORE.INTRA.DIHEDRAL>
-1.70609

>  <SCORE.INTRA.DIHEDRAL.0>
3.49807

>  <SCORE.INTRA.POLAR>
0

>  <SCORE.INTRA.POLAR.0>
0

>  <SCORE.INTRA.REPUL>
0

>  <SCORE.INTRA.REPUL.0>
0

>  <SCORE.INTRA.SOLV>
0.189503

>  <SCORE.INTRA.SOLV.lig_0>
-73.062

>  <SCORE.INTRA.VDW>
-0.298484

>  <SCORE.INTRA.VDW.0>
-1.83782

>  <SCORE.INTRA.norm>
-0.0480353

>  <SCORE.RESTR>
0

>  <SCORE.RESTR.CAVITY>
0

>  <SCORE.RESTR.norm>
0

>  <SCORE.SYSTEM>
0

>  <SCORE.SYSTEM.CONST>
0

>  <SCORE.SYSTEM.DIHEDRAL>
0

>  <SCORE.SYSTEM.SOLV>
0

>  <SCORE.SYSTEM.norm>
0

>  <SCORE.heavy>
22

>  <SCORE.norm>
-0.325802

>  <RMSD>
6.541

$$$$
ligand
 OpenBabel11021811513D
libRbt.so/2013.1/901 2013/11/27
 22 23  0  0  0  0  0  0  0  0999 V2000
  -31.6593    4.8026   -8.6562 N   0  0  0  0  0  0  0  0  0  0  0  0
  -31.0074    1.6354   -9.6545 C   0  0  1  0  0  0  0  0  0  0  0  0
  -30.8377    2.6477   -8.6218 O   0  0  0  0  0  0  0  0  0  0  0  0
  -28.8526    0.7307  -12.6371 P   0  0  1  0  0  0  0  0  0  0  0  0
  -32.0154    3.4706   -8.6079 C   0  0  2  0  0  0  0  0  0  0  0  0
  -30.5737    6.6212   -9.1307 N   0  0  0  0  0  0  0  0  0  0  0  0
  -34.0951    3.4658   -9.7786 O   0  0  0  0  0  0  0  0  0  0  0  0
  -32.6971    3.1732   -9.8875 C   0  0  2  0  0  0  0  0  0  0  0  0
  -32.1860    8.6499   -6.6918 N   0  0  0  0  0  0  0  0  0  0  0  0
  -33.2085    0.9452   -9.2382 O   0  0  0  0  0  0  0  0  0  0  0  0
  -32.4090    1.7616  -10.1103 C   0  0  2  0  0  0  0  0  0  0  0  0
  -31.6674    6.9570   -8.4294 C   0  0  0  0  0  0  0  0  0  0  0  0
  -33.5786    5.7342   -7.4217 N   0  0  0  0  0  0  0  0  0  0  0  0
  -29.8498    0.7622  -11.4275 O   0  0  0  0  0  0  0  0  0  0  0  0
  -30.0466    1.9585  -10.7465 C   0  0  0  0  0  0  0  0  0  0  0  0
  -29.6947    1.3466  -13.8127 O   0  0  0  0  0  0  0  0  0  0  0  0
  -30.5680    5.2812   -9.2649 C   0  0  0  0  0  0  0  0  0  0  0  0
  -32.2832    9.1778   -8.9049 O   0  0  0  0  0  0  0  0  0  0  0  0
  -32.0571    8.3263   -8.0452 C   0  0  0  0  0  0  0  0  0  0  0  0
  -32.3577    5.8173   -8.1296 C   0  0  0  0  0  0  0  0  0  0  0  0
  -27.6187    1.4961  -12.2910 O   0  5  0  0  0  0  0  0  0  0  0  0
  -28.3123   -0.6266  -12.8335 O   0  0  0  0  0  0  0  0  0  0  0  0
  1 17  1  0  0  0  0
  1 20  1  0  0  0  0
  2 15  1  6  0  0  0
  2  3  1  0  0  0  0
  2 11  1  0  0  0  0
  3  5  1  0  0  0  0
  4 16  1  6  0  0  0
  4 21  1  0  0  0  0
  4 22  2  0  0  0  0
  4 14  1  0  0  0  0
  5  1  1  6  0  0  0
  5  8  1  0  0  0  0
  6 17  2  0  0  0  0
  6 12  1  0  0  0  0
  8  7  1  1  0  0  0
  8 11  1  0  0  0  0
  9 19  1  0  0  0  0
 11 10  1  1  0  0  0
 12 20  2  0  0  0  0
 12 19  1  0  0  0  0
 13 20  1  0  0  0  0
 14 15  1  0  0  0  0
 18 19  2  0  0  0  0
M  CHG  1  21  -1
M  END
>  <CHROM.1>
30.70920313,157.44371468,-79.33933638,-178.56131773,-119.87327348,-31.08535169
3.54435598,-9.97856028,2.02892244,0.58225325,0.30718786

>  <Name>
ligand

>  <RI>
0

>  <Rbt.Current_Directory>
/home/itssahil/PROJECTS/Mol_Feturizer/New_Systems/rnas/4XWF

>  <Rbt.Executable>
rbdock ($Id: //depot/dev/client3/rdock/2013.1/src/exe/rbdock.cxx#4 $)

>  <Rbt.Library>
libRbt.so (2013.1, Build901 2013/11/27)

>  <Rbt.Parameter_File>
/export/apps/rDock/src/rDock_2013.1_src/data/scripts/dock_solv.prm

>  <Rbt.Receptor>
prm/pocket_docking_7.prm

>  <SCORE>
-8.52478

>  <SCORE.INTER>
-8.39128

>  <SCORE.INTER.CONST>
1

>  <SCORE.INTER.POLAR>
0

>  <SCORE.INTER.ROT>
5

>  <SCORE.INTER.SOLV>
14.4534

>  <SCORE.INTER.VDW>
-17.3453

>  <SCORE.INTER.norm>
-0.381422

>  <SCORE.INTRA>
-0.133497

>  <SCORE.INTRA.DIHEDRAL>
0.184363

>  <SCORE.INTRA.DIHEDRAL.0>
3.49807

>  <SCORE.INTRA.POLAR>
0

>  <SCORE.INTRA.POLAR.0>
0

>  <SCORE.INTRA.REPUL>
0

>  <SCORE.INTRA.REPUL.0>
0

>  <SCORE.INTRA.SOLV>
0.174651

>  <SCORE.INTRA.SOLV.lig_0>
-73.062

>  <SCORE.INTRA.VDW>
-0.313004

>  <SCORE.INTRA.VDW.0>
-1.83782

>  <SCORE.INTRA.norm>
-0.00606805

>  <SCORE.RESTR>
0

>  <SCORE.RESTR.CAVITY>
0

>  <SCORE.RESTR.norm>
0

>  <SCORE.SYSTEM>
0

>  <SCORE.SYSTEM.CONST>
0

>  <SCORE.SYSTEM.DIHEDRAL>
0

>  <SCORE.SYSTEM.SOLV>
0

>  <SCORE.SYSTEM.norm>
0

>  <SCORE.heavy>
22

>  <SCORE.norm>
-0.38749

>  <RMSD>
6.545

$$$$
ligand
 OpenBabel11021811513D
libRbt.so/2013.1/901 2013/11/27
 22 23  0  0  0  0  0  0  0  0999 V2000
  -28.6372    3.5062  -10.9964 N   0  0  0  0  0  0  0  0  0  0  0  0
  -30.7452    0.8683  -10.7710 C   0  0  1  0  0  0  0  0  0  0  0  0
  -30.3747    2.0744  -11.4976 O   0  0  0  0  0  0  0  0  0  0  0  0
  -33.3093    3.0000   -9.0094 P   0  0  1  0  0  0  0  0  0  0  0  0
  -28.9488    2.2270  -11.4086 C   0  0  2  0  0  0  0  0  0  0  0  0
  -28.7183    5.3978   -9.9351 N   0  0  0  0  0  0  0  0  0  0  0  0
  -27.1676    0.9494  -10.4648 O   0  0  0  0  0  0  0  0  0  0  0  0
  -28.5417    1.3227  -10.3098 C   0  0  2  0  0  0  0  0  0  0  0  0
  -26.4992    7.1384  -12.0937 N   0  0  0  0  0  0  0  0  0  0  0  0
  -29.1134   -0.6286  -11.5397 O   0  0  0  0  0  0  0  0  0  0  0  0
  -29.4698    0.2043  -10.4237 C   0  0  2  0  0  0  0  0  0  0  0  0
  -27.6348    5.4076  -10.7266 C   0  0  0  0  0  0  0  0  0  0  0  0
  -26.5758    3.8170  -12.3115 N   0  0  0  0  0  0  0  0  0  0  0  0
  -32.5346    2.0849  -10.0199 O   0  0  0  0  0  0  0  0  0  0  0  0
  -31.4853    1.3012   -9.5525 C   0  0  0  0  0  0  0  0  0  0  0  0
  -33.7584    1.9954   -7.8871 O   0  0  0  0  0  0  0  0  0  0  0  0
  -29.3427    4.2174  -10.1093 C   0  0  0  0  0  0  0  0  0  0  0  0
  -26.0104    6.8869   -9.8838 O   0  0  0  0  0  0  0  0  0  0  0  0
  -26.6714    6.5168  -10.8540 C   0  0  0  0  0  0  0  0  0  0  0  0
  -27.5753    4.2185  -11.3959 C   0  0  0  0  0  0  0  0  0  0  0  0
  -32.4142    4.0972   -8.5373 O   0  5  0  0  0  0  0  0  0  0  0  0
  -34.3684    3.7592   -9.6983 O   0  0  0  0  0  0  0  0  0  0  0  0
  1 17  1  0  0  0  0
  1 20  1  0  0  0  0
  2 15  1  1  0  0  0
  2  3  1  0  0  0  0
  2 11  1  0  0  0  0
  3  5  1  0  0  0  0
  4 16  1  1  0  0  0
  4 21  1  0  0  0  0
  4 22  2  0  0  0  0
  4 14  1  0  0  0  0
  5  1  1  1  0  0  0
  5  8  1  0  0  0  0
  6 17  2  0  0  0  0
  6 12  1  0  0  0  0
  8  7  1  6  0  0  0
  8 11  1  0  0  0  0
  9 19  1  0  0  0  0
 11 10  1  6  0  0  0
 12 20  2  0  0  0  0
 12 19  1  0  0  0  0
 13 20  1  0  0  0  0
 14 15  1  0  0  0  0
 18 19  2  0  0  0  0
M  CHG  1  21  -1
M  END
>  <CHROM.1>
36.39184467,55.66430055,-54.41748440,-164.82903314,-118.64793050,-29.83557737
3.14012510,-10.31972396,-0.39722823,-0.36012565,-2.97872956

>  <Name>
ligand

>  <RI>
0

>  <Rbt.Current_Directory>
/home/itssahil/PROJECTS/Mol_Feturizer/New_Systems/rnas/4XWF

>  <Rbt.Executable>
rbdock ($Id: //depot/dev/client3/rdock/2013.1/src/exe/rbdock.cxx#4 $)

>  <Rbt.Library>
libRbt.so (2013.1, Build901 2013/11/27)

>  <Rbt.Parameter_File>
/export/apps/rDock/src/rDock_2013.1_src/data/scripts/dock_solv.prm

>  <Rbt.Receptor>
prm/pocket_docking_3.prm

>  <SCORE>
-4.86459

>  <SCORE.INTER>
-4.06192

>  <SCORE.INTER.CONST>
1

>  <SCORE.INTER.POLAR>
0

>  <SCORE.INTER.ROT>
5

>  <SCORE.INTER.SOLV>
16.0053

>  <SCORE.INTER.VDW>
-14.9764

>  <SCORE.INTER.norm>
-0.184633

>  <SCORE.INTRA>
-0.802667

>  <SCORE.INTRA.DIHEDRAL>
-0.847037

>  <SCORE.INTRA.DIHEDRAL.0>
3.49807

>  <SCORE.INTRA.POLAR>
0

>  <SCORE.INTRA.POLAR.0>
0

>  <SCORE.INTRA.REPUL>
0

>  <SCORE.INTRA.REPUL.0>
0

>  <SCORE.INTRA.SOLV>
0.322088

>  <SCORE.INTRA.SOLV.lig_0>
-73.062

>  <SCORE.INTRA.VDW>
-0.540193

>  <SCORE.INTRA.VDW.0>
-1.83782

>  <SCORE.INTRA.norm>
-0.0364849

>  <SCORE.RESTR>
0

>  <SCORE.RESTR.CAVITY>
0

>  <SCORE.RESTR.norm>
0

>  <SCORE.SYSTEM>
0

>  <SCORE.SYSTEM.CONST>
0

>  <SCORE.SYSTEM.DIHEDRAL>
0

>  <SCORE.SYSTEM.SOLV>
0

>  <SCORE.SYSTEM.norm>
0

>  <SCORE.heavy>
22

>  <SCORE.norm>
-0.221118

>  <RMSD>
6.546

$$$$
ligand
 OpenBabel11021811513D
libRbt.so/2013.1/901 2013/11/27
 22 23  0  0  0  0  0  0  0  0999 V2000
  -28.1973    3.0818  -12.7433 N   0  0  0  0  0  0  0  0  0  0  0  0
  -29.9838    0.4786  -11.5248 C   0  0  1  0  0  0  0  0  0  0  0  0
  -29.8915    1.5318  -12.5259 O   0  0  0  0  0  0  0  0  0  0  0  0
  -32.4677    2.4151   -9.4179 P   0  0  1  0  0  0  0  0  0  0  0  0
  -28.5019    1.7388  -12.8269 C   0  0  2  0  0  0  0  0  0  0  0  0
  -27.9072    5.0742  -11.9327 N   0  0  0  0  0  0  0  0  0  0  0  0
  -26.4546    0.7181  -12.1469 O   0  0  0  0  0  0  0  0  0  0  0  0
  -27.7748    1.0755  -11.7215 C   0  0  2  0  0  0  0  0  0  0  0  0
  -26.7778    7.4507  -13.2660 N   0  0  0  0  0  0  0  0  0  0  0  0
  -28.4777   -1.0919  -12.3965 O   0  0  0  0  0  0  0  0  0  0  0  0
  -28.6159   -0.0696  -11.3954 C   0  0  2  0  0  0  0  0  0  0  0  0
  -27.5216    5.0845  -13.2180 C   0  0  0  0  0  0  0  0  0  0  0  0
  -27.3931    3.4135  -15.0496 N   0  0  0  0  0  0  0  0  0  0  0  0
  -31.6915    1.6480  -10.5438 O   0  0  0  0  0  0  0  0  0  0  0  0
  -30.4383    1.1175  -10.2578 C   0  0  0  0  0  0  0  0  0  0  0  0
  -33.7760    2.8935  -10.1459 O   0  0  0  0  0  0  0  0  0  0  0  0
  -28.3324    3.8299  -11.6422 C   0  0  0  0  0  0  0  0  0  0  0  0
  -26.7664    6.1825  -15.1574 O   0  0  0  0  0  0  0  0  0  0  0  0
  -26.9970    6.2521  -13.9503 C   0  0  0  0  0  0  0  0  0  0  0  0
  -27.6985    3.8326  -13.7344 C   0  0  0  0  0  0  0  0  0  0  0  0
  -32.7009    1.5044   -8.2586 O   0  5  0  0  0  0  0  0  0  0  0  0
  -31.6158    3.4534   -8.8105 O   0  0  0  0  0  0  0  0  0  0  0  0
  1 17  1  0  0  0  0
  1 20  1  0  0  0  0
  2 15  1  1  0  0  0
  2  3  1  0  0  0  0
  2 11  1  0  0  0  0
  3  5  1  0  0  0  0
  4 16  1  6  0  0  0
  4 21  1  0  0  0  0
  4 22  2  0  0  0  0
  4 14  1  0  0  0  0
  5  1  1  1  0  0  0
  5  8  1  0  0  0  0
  6 17  2  0  0  0  0
  6 12  1  0  0  0  0
  8  7  1  6  0  0  0
  8 11  1  0  0  0  0
  9 19  1  0  0  0  0
 11 10  1  6  0  0  0
 12 20  2  0  0  0  0
 12 19  1  0  0  0  0
 13 20  1  0  0  0  0
 14 15  1  0  0  0  0
 18 19  2  0  0  0  0
M  CHG  1  21  -1
M  END
>  <CHROM.1>
60.09430968,61.65538992,177.79158544,-179.49214629,4.75579691,-29.35634850
2.72368602,-11.74765414,-0.53115788,-0.65061976,3.02435141

>  <Name>
ligand

>  <RI>
0

>  <Rbt.Current_Directory>
/home/itssahil/PROJECTS/Mol_Feturizer/New_Systems/rnas/4XWF

>  <Rbt.Executable>
rbdock ($Id: //depot/dev/client3/rdock/2013.1/src/exe/rbdock.cxx#4 $)

>  <Rbt.Library>
libRbt.so (2013.1, Build901 2013/11/27)

>  <Rbt.Parameter_File>
/export/apps/rDock/src/rDock_2013.1_src/data/scripts/dock_solv.prm

>  <Rbt.Receptor>
prm/pocket_docking_4.prm

>  <SCORE>
-6.9457

>  <SCORE.INTER>
-5.96431

>  <SCORE.INTER.CONST>
1

>  <SCORE.INTER.POLAR>
0

>  <SCORE.INTER.ROT>
5

>  <SCORE.INTER.SOLV>
8.98147

>  <SCORE.INTER.VDW>
-13.9034

>  <SCORE.INTER.norm>
-0.271105

>  <SCORE.INTRA>
-0.981384

>  <SCORE.INTRA.DIHEDRAL>
-1.91489

>  <SCORE.INTRA.DIHEDRAL.0>
3.49807

>  <SCORE.INTRA.POLAR>
0

>  <SCORE.INTRA.POLAR.0>
0

>  <SCORE.INTRA.REPUL>
0

>  <SCORE.INTRA.REPUL.0>
0

>  <SCORE.INTRA.SOLV>
-0.236357

>  <SCORE.INTRA.SOLV.lig_0>
-73.062

>  <SCORE.INTRA.VDW>
0.0942402

>  <SCORE.INTRA.VDW.0>
-1.83782

>  <SCORE.INTRA.norm>
-0.0446084

>  <SCORE.RESTR>
0

>  <SCORE.RESTR.CAVITY>
0

>  <SCORE.RESTR.norm>
0

>  <SCORE.SYSTEM>
0

>  <SCORE.SYSTEM.CONST>
0

>  <SCORE.SYSTEM.DIHEDRAL>
0

>  <SCORE.SYSTEM.SOLV>
0

>  <SCORE.SYSTEM.norm>
0

>  <SCORE.heavy>
22

>  <SCORE.norm>
-0.315713

>  <RMSD>
6.546

$$$$
ligand
 OpenBabel11021811513D
libRbt.so/2013.1/901 2013/11/27
 22 23  0  0  0  0  0  0  0  0999 V2000
  -28.7502    3.5239  -10.9102 N   0  0  0  0  0  0  0  0  0  0  0  0
  -30.8691    0.8943  -10.6914 C   0  0  1  0  0  0  0  0  0  0  0  0
  -30.4801    2.0887  -11.4276 O   0  0  0  0  0  0  0  0  0  0  0  0
  -33.3968    3.1218   -8.9958 P   0  0  1  0  0  0  0  0  0  0  0  0
  -29.0561    2.2395  -11.3101 C   0  0  2  0  0  0  0  0  0  0  0  0
  -28.8452    5.4285   -9.8736 N   0  0  0  0  0  0  0  0  0  0  0  0
  -27.2987    0.9721  -10.3095 O   0  0  0  0  0  0  0  0  0  0  0  0
  -28.6750    1.3507  -10.1896 C   0  0  2  0  0  0  0  0  0  0  0  0
  -26.6315    7.1710  -12.0176 N   0  0  0  0  0  0  0  0  0  0  0  0
  -29.2249   -0.6174  -11.4027 O   0  0  0  0  0  0  0  0  0  0  0  0
  -29.6031    0.2327  -10.3070 C   0  0  2  0  0  0  0  0  0  0  0  0
  -27.7523    5.4293  -10.6522 C   0  0  0  0  0  0  0  0  0  0  0  0
  -26.6734    3.8199  -12.2044 N   0  0  0  0  0  0  0  0  0  0  0  0
  -32.6249    2.1875   -9.9907 O   0  0  0  0  0  0  0  0  0  0  0  0
  -31.6341    1.3467   -9.4956 C   0  0  0  0  0  0  0  0  0  0  0  0
  -33.8644    2.1346   -7.8657 O   0  0  0  0  0  0  0  0  0  0  0  0
  -29.4668    4.2456  -10.0406 C   0  0  0  0  0  0  0  0  0  0  0  0
  -26.1131    6.8967   -9.8172 O   0  0  0  0  0  0  0  0  0  0  0  0
  -26.7882    6.5376  -10.7818 C   0  0  0  0  0  0  0  0  0  0  0  0
  -27.6840    4.2321  -11.3059 C   0  0  0  0  0  0  0  0  0  0  0  0
  -32.4934    4.2147   -8.5295 O   0  5  0  0  0  0  0  0  0  0  0  0
  -34.4429    3.8845   -9.7004 O   0  0  0  0  0  0  0  0  0  0  0  0
  1 17  1  0  0  0  0
  1 20  1  0  0  0  0
  2 15  1  1  0  0  0
  2  3  1  0  0  0  0
  2 11  1  0  0  0  0
  3  5  1  0  0  0  0
  4 16  1  1  0  0  0
  4 21  1  0  0  0  0
  4 22  2  0  0  0  0
  4 14  1  0  0  0  0
  5  1  1  1  0  0  0
  5  8  1  0  0  0  0
  6 17  2  0  0  0  0
  6 12  1  0  0  0  0
  8  7  1  6  0  0  0
  8 11  1  0  0  0  0
  9 19  1  0  0  0  0
 11 10  1  6  0  0  0
 12 20  2  0  0  0  0
 12 19  1  0  0  0  0
 13 20  1  0  0  0  0
 14 15  1  0  0  0  0
 18 19  2  0  0  0  0
M  CHG  1  21  -1
M  END
>  <CHROM.1>
36.98052378,52.35405314,-51.09828007,-165.07360257,-116.69462701,-29.94580549
3.19031466,-10.25079835,-0.39914537,-0.34482499,-2.99370657

>  <Name>
ligand

>  <RI>
0

>  <Rbt.Current_Directory>
/home/itssahil/PROJECTS/Mol_Feturizer/New_Systems/rnas/4XWF

>  <Rbt.Executable>
rbdock ($Id: //depot/dev/client3/rdock/2013.1/src/exe/rbdock.cxx#4 $)

>  <Rbt.Library>
libRbt.so (2013.1, Build901 2013/11/27)

>  <Rbt.Parameter_File>
/export/apps/rDock/src/rDock_2013.1_src/data/scripts/dock_solv.prm

>  <Rbt.Receptor>
prm/pocket_docking_3.prm

>  <SCORE>
-4.81762

>  <SCORE.INTER>
-4.17794

>  <SCORE.INTER.CONST>
1

>  <SCORE.INTER.POLAR>
0

>  <SCORE.INTER.ROT>
5

>  <SCORE.INTER.SOLV>
16.8244

>  <SCORE.INTER.VDW>
-15.3268

>  <SCORE.INTER.norm>
-0.189906

>  <SCORE.INTRA>
-0.639679

>  <SCORE.INTRA.DIHEDRAL>
-0.671057

>  <SCORE.INTRA.DIHEDRAL.0>
3.49807

>  <SCORE.INTRA.POLAR>
0

>  <SCORE.INTRA.POLAR.0>
0

>  <SCORE.INTRA.REPUL>
0

>  <SCORE.INTRA.REPUL.0>
0

>  <SCORE.INTRA.SOLV>
0.305778

>  <SCORE.INTRA.SOLV.lig_0>
-73.062

>  <SCORE.INTRA.VDW>
-0.45704

>  <SCORE.INTRA.VDW.0>
-1.83782

>  <SCORE.INTRA.norm>
-0.0290763

>  <SCORE.RESTR>
0

>  <SCORE.RESTR.CAVITY>
0

>  <SCORE.RESTR.norm>
0

>  <SCORE.SYSTEM>
0

>  <SCORE.SYSTEM.CONST>
0

>  <SCORE.SYSTEM.DIHEDRAL>
0

>  <SCORE.SYSTEM.SOLV>
0

>  <SCORE.SYSTEM.norm>
0

>  <SCORE.heavy>
22

>  <SCORE.norm>
-0.218983

>  <RMSD>
6.548

$$$$
ligand
 OpenBabel11021811513D
libRbt.so/2013.1/901 2013/11/27
 22 23  0  0  0  0  0  0  0  0999 V2000
  -28.6599    3.5011  -10.9857 N   0  0  0  0  0  0  0  0  0  0  0  0
  -30.8487    0.9422  -10.6485 C   0  0  1  0  0  0  0  0  0  0  0  0
  -30.4458    2.1082  -11.4218 O   0  0  0  0  0  0  0  0  0  0  0  0
  -33.3410    3.2032   -8.9351 P   0  0  1  0  0  0  0  0  0  0  0  0
  -29.0151    2.2182  -11.3479 C   0  0  2  0  0  0  0  0  0  0  0  0
  -28.6401    5.4128   -9.9580 N   0  0  0  0  0  0  0  0  0  0  0  0
  -27.2681    0.9200  -10.3690 O   0  0  0  0  0  0  0  0  0  0  0  0
  -28.6285    1.3426  -10.2190 C   0  0  2  0  0  0  0  0  0  0  0  0
  -25.3044    6.2824  -10.7786 N   0  0  0  0  0  0  0  0  0  0  0  0
  -29.2713   -0.6335  -11.3717 O   0  0  0  0  0  0  0  0  0  0  0  0
  -29.5924    0.2510  -10.2851 C   0  0  2  0  0  0  0  0  0  0  0  0
  -27.6206    5.3955  -10.8303 C   0  0  0  0  0  0  0  0  0  0  0  0
  -26.7027    3.7638  -12.4608 N   0  0  0  0  0  0  0  0  0  0  0  0
  -32.5766    2.2632   -9.9304 O   0  0  0  0  0  0  0  0  0  0  0  0
  -31.5652    1.4433   -9.4420 C   0  0  0  0  0  0  0  0  0  0  0  0
  -34.4625    3.8408   -9.8330 O   0  0  0  0  0  0  0  0  0  0  0  0
  -29.2879    4.2367  -10.0610 C   0  0  0  0  0  0  0  0  0  0  0  0
  -27.0413    7.5871  -11.4617 O   0  0  0  0  0  0  0  0  0  0  0  0
  -26.6588    6.4910  -11.0526 C   0  0  0  0  0  0  0  0  0  0  0  0
  -27.6247    4.1937  -11.4791 C   0  0  0  0  0  0  0  0  0  0  0  0
  -33.8500    2.4052   -7.7810 O   0  5  0  0  0  0  0  0  0  0  0  0
  -32.4066    4.1262   -8.2662 O   0  0  0  0  0  0  0  0  0  0  0  0
  1 17  1  0  0  0  0
  1 20  1  0  0  0  0
  2 15  1  1  0  0  0
  2  3  1  0  0  0  0
  2 11  1  0  0  0  0
  3  5  1  0  0  0  0
  4 16  1  6  0  0  0
  4 21  1  0  0  0  0
  4 22  2  0  0  0  0
  4 14  1  0  0  0  0
  5  1  1  1  0  0  0
  5  8  1  0  0  0  0
  6 17  2  0  0  0  0
  6 12  1  0  0  0  0
  8  7  1  6  0  0  0
  8 11  1  0  0  0  0
  9 19  1  0  0  0  0
 11 10  1  6  0  0  0
 12 20  2  0  0  0  0
 12 19  1  0  0  0  0
 13 20  1  0  0  0  0
 14 15  1  0  0  0  0
 18 19  2  0  0  0  0
M  CHG  1  21  -1
M  END
>  <CHROM.1>
40.69314359,54.53827899,-174.89973457,-167.07492417,117.24736451,-29.88481395
3.19863827,-10.29896774,-0.36844369,-0.36230363,-3.02631756

>  <Name>
ligand

>  <RI>
0

>  <Rbt.Current_Directory>
/home/itssahil/PROJECTS/Mol_Feturizer/New_Systems/rnas/4XWF

>  <Rbt.Executable>
rbdock ($Id: //depot/dev/client3/rdock/2013.1/src/exe/rbdock.cxx#4 $)

>  <Rbt.Library>
libRbt.so (2013.1, Build901 2013/11/27)

>  <Rbt.Parameter_File>
/export/apps/rDock/src/rDock_2013.1_src/data/scripts/dock_solv.prm

>  <Rbt.Receptor>
prm/pocket_docking_3.prm

>  <SCORE>
-6.84571

>  <SCORE.INTER>
-6.13876

>  <SCORE.INTER.CONST>
1

>  <SCORE.INTER.POLAR>
0

>  <SCORE.INTER.ROT>
5

>  <SCORE.INTER.SOLV>
10.9988

>  <SCORE.INTER.VDW>
-14.6921

>  <SCORE.INTER.norm>
-0.279035

>  <SCORE.INTRA>
-0.70695

>  <SCORE.INTRA.DIHEDRAL>
-1.09442

>  <SCORE.INTRA.DIHEDRAL.0>
3.49807

>  <SCORE.INTRA.POLAR>
0

>  <SCORE.INTRA.POLAR.0>
0

>  <SCORE.INTRA.REPUL>
0

>  <SCORE.INTRA.REPUL.0>
0

>  <SCORE.INTRA.SOLV>
0.706318

>  <SCORE.INTRA.SOLV.lig_0>
-73.062

>  <SCORE.INTRA.VDW>
-0.512897

>  <SCORE.INTRA.VDW.0>
-1.83782

>  <SCORE.INTRA.norm>
-0.0321341

>  <SCORE.RESTR>
0

>  <SCORE.RESTR.CAVITY>
0

>  <SCORE.RESTR.norm>
0

>  <SCORE.SYSTEM>
0

>  <SCORE.SYSTEM.CONST>
0

>  <SCORE.SYSTEM.DIHEDRAL>
0

>  <SCORE.SYSTEM.SOLV>
0

>  <SCORE.SYSTEM.norm>
0

>  <SCORE.heavy>
22

>  <SCORE.norm>
-0.311169

>  <RMSD>
6.549

$$$$
ligand
 OpenBabel11021811513D
libRbt.so/2013.1/901 2013/11/27
 22 23  0  0  0  0  0  0  0  0999 V2000
  -28.5178    3.4652  -11.2022 N   0  0  0  0  0  0  0  0  0  0  0  0
  -30.6963    0.8934  -10.8975 C   0  0  1  0  0  0  0  0  0  0  0  0
  -30.2899    2.0629  -11.6636 O   0  0  0  0  0  0  0  0  0  0  0  0
  -33.2618    3.0952   -9.2066 P   0  0  1  0  0  0  0  0  0  0  0  0
  -28.8610    2.1809  -11.5711 C   0  0  2  0  0  0  0  0  0  0  0  0
  -28.5187    5.3733  -10.1678 N   0  0  0  0  0  0  0  0  0  0  0  0
  -27.1195    0.8908  -10.5718 O   0  0  0  0  0  0  0  0  0  0  0  0
  -28.4840    1.3056  -10.4387 C   0  0  2  0  0  0  0  0  0  0  0  0
  -25.1740    6.2457  -11.0473 N   0  0  0  0  0  0  0  0  0  0  0  0
  -29.1007   -0.6722  -11.6028 O   0  0  0  0  0  0  0  0  0  0  0  0
  -29.4408    0.2087  -10.5190 C   0  0  2  0  0  0  0  0  0  0  0  0
  -27.4938    5.3668  -11.0338 C   0  0  0  0  0  0  0  0  0  0  0  0
  -26.5534    3.7477  -12.6642 N   0  0  0  0  0  0  0  0  0  0  0  0
  -32.4443    2.1987  -10.1999 O   0  0  0  0  0  0  0  0  0  0  0  0
  -31.4311    1.3884   -9.6995 C   0  0  0  0  0  0  0  0  0  0  0  0
  -34.4692    3.5919  -10.0818 O   0  0  0  0  0  0  0  0  0  0  0  0
  -29.1570    4.1928  -10.2789 C   0  0  0  0  0  0  0  0  0  0  0  0
  -26.9356    7.5861  -11.5817 O   0  0  0  0  0  0  0  0  0  0  0  0
  -26.5389    6.4702  -11.2463 C   0  0  0  0  0  0  0  0  0  0  0  0
  -27.4848    4.1672  -11.6868 C   0  0  0  0  0  0  0  0  0  0  0  0
  -33.6522    2.2924   -8.0104 O   0  5  0  0  0  0  0  0  0  0  0  0
  -32.3987    4.1255   -8.6015 O   0  0  0  0  0  0  0  0  0  0  0  0
  1 17  1  0  0  0  0
  1 20  1  0  0  0  0
  2 15  1  1  0  0  0
  2  3  1  0  0  0  0
  2 11  1  0  0  0  0
  3  5  1  0  0  0  0
  4 16  1  6  0  0  0
  4 21  1  0  0  0  0
  4 22  2  0  0  0  0
  4 14  1  0  0  0  0
  5  1  1  1  0  0  0
  5  8  1  0  0  0  0
  6 17  2  0  0  0  0
  6 12  1  0  0  0  0
  8  7  1  6  0  0  0
  8 11  1  0  0  0  0
  9 19  1  0  0  0  0
 11 10  1  6  0  0  0
 12 20  2  0  0  0  0
 12 19  1  0  0  0  0
 13 20  1  0  0  0  0
 14 15  1  0  0  0  0
 18 19  2  0  0  0  0
M  CHG  1  21  -1
M  END
>  <CHROM.1>
41.10355216,54.79462531,-168.23094062,-169.16693819,121.34963147,-29.76148832
3.14346200,-10.53169190,-0.37634046,-0.35107321,-3.02701170

>  <Name>
ligand

>  <RI>
0

>  <Rbt.Current_Directory>
/home/itssahil/PROJECTS/Mol_Feturizer/New_Systems/rnas/4XWF

>  <Rbt.Executable>
rbdock ($Id: //depot/dev/client3/rdock/2013.1/src/exe/rbdock.cxx#4 $)

>  <Rbt.Library>
libRbt.so (2013.1, Build901 2013/11/27)

>  <Rbt.Parameter_File>
/export/apps/rDock/src/rDock_2013.1_src/data/scripts/dock_solv.prm

>  <Rbt.Receptor>
prm/pocket_docking_4.prm

>  <SCORE>
-7.15597

>  <SCORE.INTER>
-6.46171

>  <SCORE.INTER.CONST>
1

>  <SCORE.INTER.POLAR>
0

>  <SCORE.INTER.ROT>
5

>  <SCORE.INTER.SOLV>
11.711

>  <SCORE.INTER.VDW>
-15.1448

>  <SCORE.INTER.norm>
-0.293714

>  <SCORE.INTRA>
-0.694251

>  <SCORE.INTRA.DIHEDRAL>
-1.18466

>  <SCORE.INTRA.DIHEDRAL.0>
3.49807

>  <SCORE.INTRA.POLAR>
0

>  <SCORE.INTRA.POLAR.0>
0

>  <SCORE.INTRA.REPUL>
0

>  <SCORE.INTRA.REPUL.0>
0

>  <SCORE.INTRA.SOLV>
0.675219

>  <SCORE.INTRA.SOLV.lig_0>
-73.062

>  <SCORE.INTRA.VDW>
-0.439531

>  <SCORE.INTRA.VDW.0>
-1.83782

>  <SCORE.INTRA.norm>
-0.0315569

>  <SCORE.RESTR>
0

>  <SCORE.RESTR.CAVITY>
0

>  <SCORE.RESTR.norm>
0

>  <SCORE.SYSTEM>
0

>  <SCORE.SYSTEM.CONST>
0

>  <SCORE.SYSTEM.DIHEDRAL>
0

>  <SCORE.SYSTEM.SOLV>
0

>  <SCORE.SYSTEM.norm>
0

>  <SCORE.heavy>
22

>  <SCORE.norm>
-0.325271

>  <RMSD>
6.549

$$$$
ligand
 OpenBabel11021811513D
libRbt.so/2013.1/901 2013/11/27
 22 23  0  0  0  0  0  0  0  0999 V2000
  -28.3345    3.3652  -11.5565 N   0  0  0  0  0  0  0  0  0  0  0  0
  -30.5684    0.9048  -10.9174 C   0  0  1  0  0  0  0  0  0  0  0  0
  -30.1764    1.9978  -11.7958 O   0  0  0  0  0  0  0  0  0  0  0  0
  -33.1417    3.1001   -9.2150 P   0  0  1  0  0  0  0  0  0  0  0  0
  -28.7415    2.0702  -11.8027 C   0  0  2  0  0  0  0  0  0  0  0  0
  -28.1251    5.3057  -10.6069 N   0  0  0  0  0  0  0  0  0  0  0  0
  -26.9798    0.7963  -10.8180 O   0  0  0  0  0  0  0  0  0  0  0  0
  -28.3190    1.2694  -10.6318 C   0  0  2  0  0  0  0  0  0  0  0  0
  -26.6057    6.9147  -13.3901 N   0  0  0  0  0  0  0  0  0  0  0  0
  -29.0726   -0.7666  -11.5984 O   0  0  0  0  0  0  0  0  0  0  0  0
  -29.3131    0.2051  -10.5667 C   0  0  2  0  0  0  0  0  0  0  0  0
  -27.3088    5.2699  -11.6713 C   0  0  0  0  0  0  0  0  0  0  0  0
  -26.7295    3.5980  -13.4128 N   0  0  0  0  0  0  0  0  0  0  0  0
  -32.3063    2.2147  -10.2033 O   0  0  0  0  0  0  0  0  0  0  0  0
  -31.2072    1.5148   -9.7175 C   0  0  0  0  0  0  0  0  0  0  0  0
  -34.3992    3.5018  -10.0682 O   0  0  0  0  0  0  0  0  0  0  0  0
  -28.7658    4.1230  -10.5415 C   0  0  0  0  0  0  0  0  0  0  0  0
  -25.5309    6.7849  -11.3867 O   0  0  0  0  0  0  0  0  0  0  0  0
  -26.4275    6.3647  -12.1178 C   0  0  0  0  0  0  0  0  0  0  0  0
  -27.4329    4.0499  -12.2727 C   0  0  0  0  0  0  0  0  0  0  0  0
  -33.4530    2.3192   -7.9816 O   0  5  0  0  0  0  0  0  0  0  0  0
  -32.3182    4.1949   -8.6709 O   0  0  0  0  0  0  0  0  0  0  0  0
  1 17  1  0  0  0  0
  1 20  1  0  0  0  0
  2 15  1  1  0  0  0
  2  3  1  0  0  0  0
  2 11  1  0  0  0  0
  3  5  1  0  0  0  0
  4 16  1  6  0  0  0
  4 21  1  0  0  0  0
  4 22  2  0  0  0  0
  4 14  1  0  0  0  0
  5  1  1  1  0  0  0
  5  8  1  0  0  0  0
  6 17  2  0  0  0  0
  6 12  1  0  0  0  0
  8  7  1  6  0  0  0
  8 11  1  0  0  0  0
  9 19  1  0  0  0  0
 11 10  1  6  0  0  0
 12 20  2  0  0  0  0
 12 19  1  0  0  0  0
 13 20  1  0  0  0  0
 14 15  1  0  0  0  0
 18 19  2  0  0  0  0
M  CHG  1  21  -1
M  END
>  <CHROM.1>
50.35592312,60.55084153,-170.52961740,-174.29455447,-119.39859124,-29.63050750
3.09435208,-10.81424350,-0.37087906,-0.43186185,-3.10606525

>  <Name>
ligand

>  <RI>
0

>  <Rbt.Current_Directory>
/home/itssahil/PROJECTS/Mol_Feturizer/New_Systems/rnas/4XWF

>  <Rbt.Executable>
rbdock ($Id: //depot/dev/client3/rdock/2013.1/src/exe/rbdock.cxx#4 $)

>  <Rbt.Library>
libRbt.so (2013.1, Build901 2013/11/27)

>  <Rbt.Parameter_File>
/export/apps/rDock/src/rDock_2013.1_src/data/scripts/dock_solv.prm

>  <Rbt.Receptor>
prm/pocket_docking_5.prm

>  <SCORE>
-7.22021

>  <SCORE.INTER>
-6.1326

>  <SCORE.INTER.CONST>
1

>  <SCORE.INTER.POLAR>
0

>  <SCORE.INTER.ROT>
5

>  <SCORE.INTER.SOLV>
11.226

>  <SCORE.INTER.VDW>
-14.7637

>  <SCORE.INTER.norm>
-0.278754

>  <SCORE.INTRA>
-1.08761

>  <SCORE.INTRA.DIHEDRAL>
-1.72891

>  <SCORE.INTRA.DIHEDRAL.0>
3.49807

>  <SCORE.INTRA.POLAR>
0

>  <SCORE.INTRA.POLAR.0>
0

>  <SCORE.INTRA.REPUL>
0

>  <SCORE.INTRA.REPUL.0>
0

>  <SCORE.INTRA.SOLV>
0.162251

>  <SCORE.INTRA.SOLV.lig_0>
-73.062

>  <SCORE.INTRA.VDW>
-0.304282

>  <SCORE.INTRA.VDW.0>
-1.83782

>  <SCORE.INTRA.norm>
-0.049437

>  <SCORE.RESTR>
0

>  <SCORE.RESTR.CAVITY>
0

>  <SCORE.RESTR.norm>
0

>  <SCORE.SYSTEM>
0

>  <SCORE.SYSTEM.CONST>
0

>  <SCORE.SYSTEM.DIHEDRAL>
0

>  <SCORE.SYSTEM.SOLV>
0

>  <SCORE.SYSTEM.norm>
0

>  <SCORE.heavy>
22

>  <SCORE.norm>
-0.328191

>  <RMSD>
6.549

$$$$
ligand
 OpenBabel11021811513D
libRbt.so/2013.1/901 2013/11/27
 22 23  0  0  0  0  0  0  0  0999 V2000
  -28.3677    3.3718  -11.3026 N   0  0  0  0  0  0  0  0  0  0  0  0
  -30.6559    0.9118  -10.8965 C   0  0  1  0  0  0  0  0  0  0  0  0
  -30.2115    2.0436  -11.6974 O   0  0  0  0  0  0  0  0  0  0  0  0
  -33.2379    3.1033   -9.2065 P   0  0  1  0  0  0  0  0  0  0  0  0
  -28.7771    2.0970  -11.6348 C   0  0  2  0  0  0  0  0  0  0  0  0
  -28.2305    5.2837  -10.2843 N   0  0  0  0  0  0  0  0  0  0  0  0
  -27.0772    0.7501  -10.6388 O   0  0  0  0  0  0  0  0  0  0  0  0
  -28.4182    1.2307  -10.4895 C   0  0  2  0  0  0  0  0  0  0  0  0
  -26.2579    7.4400  -10.6941 N   0  0  0  0  0  0  0  0  0  0  0  0
  -29.1487   -0.7419  -11.5952 O   0  0  0  0  0  0  0  0  0  0  0  0
  -29.4260    0.1780  -10.5260 C   0  0  2  0  0  0  0  0  0  0  0  0
  -27.2773    5.2422  -11.2278 C   0  0  0  0  0  0  0  0  0  0  0  0
  -26.5166    3.5882  -12.9158 N   0  0  0  0  0  0  0  0  0  0  0  0
  -32.3987    2.2223  -10.1956 O   0  0  0  0  0  0  0  0  0  0  0  0
  -31.3430    1.4672   -9.6967 C   0  0  0  0  0  0  0  0  0  0  0  0
  -34.4634    3.5561  -10.0804 O   0  0  0  0  0  0  0  0  0  0  0  0
  -28.9105    4.1226  -10.3370 C   0  0  0  0  0  0  0  0  0  0  0  0
  -25.5607    6.2340  -12.4956 O   0  0  0  0  0  0  0  0  0  0  0  0
  -26.3094    6.3152  -11.5219 C   0  0  0  0  0  0  0  0  0  0  0  0
  -27.3554    4.0401  -11.8713 C   0  0  0  0  0  0  0  0  0  0  0  0
  -33.5990    2.3002   -8.0013 O   0  5  0  0  0  0  0  0  0  0  0  0
  -32.4029    4.1640   -8.6148 O   0  0  0  0  0  0  0  0  0  0  0  0
  1 17  1  0  0  0  0
  1 20  1  0  0  0  0
  2 15  1  1  0  0  0
  2  3  1  0  0  0  0
  2 11  1  0  0  0  0
  3  5  1  0  0  0  0
  4 16  1  6  0  0  0
  4 21  1  0  0  0  0
  4 22  2  0  0  0  0
  4 14  1  0  0  0  0
  5  1  1  1  0  0  0
  5  8  1  0  0  0  0
  6 17  2  0  0  0  0
  6 12  1  0  0  0  0
  8  7  1  6  0  0  0
  8 11  1  0  0  0  0
  9 19  1  0  0  0  0
 11 10  1  6  0  0  0
 12 20  2  0  0  0  0
 12 19  1  0  0  0  0
 13 20  1  0  0  0  0
 14 15  1  0  0  0  0
 18 19  2  0  0  0  0
M  CHG  1  21  -1
M  END
>  <CHROM.1>
44.74422542,59.69623287,-169.48596411,-172.48848400,6.48944116,-29.66805119
3.08441871,-10.61611331,-0.33090268,-0.38427523,-3.01438481

>  <Name>
ligand

>  <RI>
0

>  <Rbt.Current_Directory>
/home/itssahil/PROJECTS/Mol_Feturizer/New_Systems/rnas/4XWF

>  <Rbt.Executable>
rbdock ($Id: //depot/dev/client3/rdock/2013.1/src/exe/rbdock.cxx#4 $)

>  <Rbt.Library>
libRbt.so (2013.1, Build901 2013/11/27)

>  <Rbt.Parameter_File>
/export/apps/rDock/src/rDock_2013.1_src/data/scripts/dock_solv.prm

>  <Rbt.Receptor>
prm/pocket_docking_4.prm

>  <SCORE>
-6.91651

>  <SCORE.INTER>
-6.06718

>  <SCORE.INTER.CONST>
1

>  <SCORE.INTER.POLAR>
0

>  <SCORE.INTER.ROT>
5

>  <SCORE.INTER.SOLV>
11.4796

>  <SCORE.INTER.VDW>
-14.8047

>  <SCORE.INTER.norm>
-0.275781

>  <SCORE.INTRA>
-0.849332

>  <SCORE.INTRA.DIHEDRAL>
-1.54385

>  <SCORE.INTRA.DIHEDRAL.0>
3.49807

>  <SCORE.INTRA.POLAR>
0

>  <SCORE.INTRA.POLAR.0>
0

>  <SCORE.INTRA.REPUL>
0

>  <SCORE.INTRA.REPUL.0>
0

>  <SCORE.INTRA.SOLV>
0.32788

>  <SCORE.INTRA.SOLV.lig_0>
-73.062

>  <SCORE.INTRA.VDW>
-0.241346

>  <SCORE.INTRA.VDW.0>
-1.83782

>  <SCORE.INTRA.norm>
-0.038606

>  <SCORE.RESTR>
0

>  <SCORE.RESTR.CAVITY>
0

>  <SCORE.RESTR.norm>
0

>  <SCORE.SYSTEM>
0

>  <SCORE.SYSTEM.CONST>
0

>  <SCORE.SYSTEM.DIHEDRAL>
0

>  <SCORE.SYSTEM.SOLV>
0

>  <SCORE.SYSTEM.norm>
0

>  <SCORE.heavy>
22

>  <SCORE.norm>
-0.314387

>  <RMSD>
6.550

$$$$
ligand
 OpenBabel11021811513D
libRbt.so/2013.1/901 2013/11/27
 22 23  0  0  0  0  0  0  0  0999 V2000
  -28.6214    3.4624  -11.0260 N   0  0  0  0  0  0  0  0  0  0  0  0
  -30.7035    0.8016  -10.8326 C   0  0  1  0  0  0  0  0  0  0  0  0
  -30.3488    2.0233  -11.5407 O   0  0  0  0  0  0  0  0  0  0  0  0
  -33.2786    2.8689   -9.0001 P   0  0  1  0  0  0  0  0  0  0  0  0
  -28.9239    2.1876  -11.4581 C   0  0  2  0  0  0  0  0  0  0  0  0
  -28.7118    5.3339   -9.9305 N   0  0  0  0  0  0  0  0  0  0  0  0
  -27.1249    0.9106  -10.5478 O   0  0  0  0  0  0  0  0  0  0  0  0
  -28.5014    1.2685  -10.3776 C   0  0  2  0  0  0  0  0  0  0  0  0
  -26.5461    7.1494  -12.0715 N   0  0  0  0  0  0  0  0  0  0  0  0
  -29.0631   -0.6667  -11.6373 O   0  0  0  0  0  0  0  0  0  0  0  0
  -29.4198    0.1436  -10.5048 C   0  0  2  0  0  0  0  0  0  0  0  0
  -27.6356    5.3688  -10.7312 C   0  0  0  0  0  0  0  0  0  0  0  0
  -26.5751    3.8173  -12.3535 N   0  0  0  0  0  0  0  0  0  0  0  0
  -32.4767    2.0195  -10.0461 O   0  0  0  0  0  0  0  0  0  0  0  0
  -31.4396    1.2065   -9.6020 C   0  0  0  0  0  0  0  0  0  0  0  0
  -33.6879    1.8084   -7.9146 O   0  0  0  0  0  0  0  0  0  0  0  0
  -29.3260    4.1506  -10.1202 C   0  0  0  0  0  0  0  0  0  0  0  0
  -26.0044    6.8367   -9.8819 O   0  0  0  0  0  0  0  0  0  0  0  0
  -26.6845    6.4897  -10.8473 C   0  0  0  0  0  0  0  0  0  0  0  0
  -27.5703    4.1924  -11.4221 C   0  0  0  0  0  0  0  0  0  0  0  0
  -32.4203    3.9785   -8.4902 O   0  5  0  0  0  0  0  0  0  0  0  0
  -34.3664    3.6156   -9.6573 O   0  0  0  0  0  0  0  0  0  0  0  0
  1 17  1  0  0  0  0
  1 20  1  0  0  0  0
  2 15  1  1  0  0  0
  2  3  1  0  0  0  0
  2 11  1  0  0  0  0
  3  5  1  0  0  0  0
  4 16  1  1  0  0  0
  4 21  1  0  0  0  0
  4 22  2  0  0  0  0
  4 14  1  0  0  0  0
  5  1  1  1  0  0  0
  5  8  1  0  0  0  0
  6 17  2  0  0  0  0
  6 12  1  0  0  0  0
  8  7  1  6  0  0  0
  8 11  1  0  0  0  0
  9 19  1  0  0  0  0
 11 10  1  6  0  0  0
 12 20  2  0  0  0  0
 12 19  1  0  0  0  0
 13 20  1  0  0  0  0
 14 15  1  0  0  0  0
 18 19  2  0  0  0  0
M  CHG  1  21  -1
M  END
>  <CHROM.1>
36.54459914,54.02214448,-51.36272502,-167.31363378,-117.58492035,-29.81315963
3.07144140,-10.34352678,-0.40517405,-0.37084301,-2.96425160

>  <Name>
ligand

>  <RI>
0

>  <Rbt.Current_Directory>
/home/itssahil/PROJECTS/Mol_Feturizer/New_Systems/rnas/4XWF

>  <Rbt.Executable>
rbdock ($Id: //depot/dev/client3/rdock/2013.1/src/exe/rbdock.cxx#4 $)

>  <Rbt.Library>
libRbt.so (2013.1, Build901 2013/11/27)

>  <Rbt.Parameter_File>
/export/apps/rDock/src/rDock_2013.1_src/data/scripts/dock_solv.prm

>  <Rbt.Receptor>
prm/pocket_docking_3.prm

>  <SCORE>
-4.76826

>  <SCORE.INTER>
-3.91215

>  <SCORE.INTER.CONST>
1

>  <SCORE.INTER.POLAR>
0

>  <SCORE.INTER.ROT>
5

>  <SCORE.INTER.SOLV>
15.5235

>  <SCORE.INTER.VDW>
-14.7159

>  <SCORE.INTER.norm>
-0.177825

>  <SCORE.INTRA>
-0.856114

>  <SCORE.INTRA.DIHEDRAL>
-1.03967

>  <SCORE.INTRA.DIHEDRAL.0>
3.49807

>  <SCORE.INTRA.POLAR>
0

>  <SCORE.INTRA.POLAR.0>
0

>  <SCORE.INTRA.REPUL>
0

>  <SCORE.INTRA.REPUL.0>
0

>  <SCORE.INTRA.SOLV>
0.228603

>  <SCORE.INTRA.SOLV.lig_0>
-73.062

>  <SCORE.INTRA.VDW>
-0.450582

>  <SCORE.INTRA.VDW.0>
-1.83782

>  <SCORE.INTRA.norm>
-0.0389143

>  <SCORE.RESTR>
0

>  <SCORE.RESTR.CAVITY>
0

>  <SCORE.RESTR.norm>
0

>  <SCORE.SYSTEM>
0

>  <SCORE.SYSTEM.CONST>
0

>  <SCORE.SYSTEM.DIHEDRAL>
0

>  <SCORE.SYSTEM.SOLV>
0

>  <SCORE.SYSTEM.norm>
0

>  <SCORE.heavy>
22

>  <SCORE.norm>
-0.216739

>  <RMSD>
6.553

$$$$
ligand
 OpenBabel11021811513D
libRbt.so/2013.1/901 2013/11/27
 22 23  0  0  0  0  0  0  0  0999 V2000
  -31.6815    4.8019   -8.6560 N   0  0  0  0  0  0  0  0  0  0  0  0
  -30.9996    1.6117   -9.5560 C   0  0  1  0  0  0  0  0  0  0  0  0
  -30.8670    2.6471   -8.5411 O   0  0  0  0  0  0  0  0  0  0  0  0
  -28.7861    0.6488  -12.4764 P   0  0  1  0  0  0  0  0  0  0  0  0
  -32.0424    3.4720   -8.5908 C   0  0  2  0  0  0  0  0  0  0  0  0
  -30.5618    6.6052   -9.1094 N   0  0  0  0  0  0  0  0  0  0  0  0
  -34.0760    3.4434   -9.8396 O   0  0  0  0  0  0  0  0  0  0  0  0
  -32.6756    3.1463   -9.8884 C   0  0  2  0  0  0  0  0  0  0  0  0
  -32.4107    8.6904   -6.8661 N   0  0  0  0  0  0  0  0  0  0  0  0
  -33.2166    0.9345   -9.2083 O   0  0  0  0  0  0  0  0  0  0  0  0
  -32.3826    1.7296  -10.0677 C   0  0  2  0  0  0  0  0  0  0  0  0
  -31.7021    6.9624   -8.4990 C   0  0  0  0  0  0  0  0  0  0  0  0
  -33.6825    5.7712   -7.5919 N   0  0  0  0  0  0  0  0  0  0  0  0
  -29.8300    0.7128  -11.3082 O   0  0  0  0  0  0  0  0  0  0  0  0
  -29.9972    1.9083  -10.6177 C   0  0  0  0  0  0  0  0  0  0  0  0
  -28.4718   -0.8868  -12.5934 O   0  0  0  0  0  0  0  0  0  0  0  0
  -30.5488    5.2616   -9.2002 C   0  0  0  0  0  0  0  0  0  0  0  0
  -32.2176    9.1834   -9.0809 O   0  0  0  0  0  0  0  0  0  0  0  0
  -32.1160    8.3431   -8.1873 C   0  0  0  0  0  0  0  0  0  0  0  0
  -32.4140    5.8325   -8.2131 C   0  0  0  0  0  0  0  0  0  0  0  0
  -29.3717    1.2573  -13.7072 O   0  5  0  0  0  0  0  0  0  0  0  0
  -27.6510    1.5514  -12.2127 O   0  0  0  0  0  0  0  0  0  0  0  0
  1 17  1  0  0  0  0
  1 20  1  0  0  0  0
  2 15  1  6  0  0  0
  2  3  1  0  0  0  0
  2 11  1  0  0  0  0
  3  5  1  0  0  0  0
  4 16  1  6  0  0  0
  4 21  1  0  0  0  0
  4 22  2  0  0  0  0
  4 14  1  0  0  0  0
  5  1  1  6  0  0  0
  5  8  1  0  0  0  0
  6 17  2  0  0  0  0
  6 12  1  0  0  0  0
  8  7  1  1  0  0  0
  8 11  1  0  0  0  0
  9 19  1  0  0  0  0
 11 10  1  1  0  0  0
 12 20  2  0  0  0  0
 12 19  1  0  0  0  0
 13 20  1  0  0  0  0
 14 15  1  0  0  0  0
 18 19  2  0  0  0  0
M  CHG  1  21  -1
M  END
>  <CHROM.1>
28.72978190,160.48239950,158.12347912,-177.62132372,-123.31961285,-31.08540132
3.51648288,-9.95362947,2.04011972,0.57693416,0.26666711

>  <Name>
ligand

>  <RI>
0

>  <Rbt.Current_Directory>
/home/itssahil/PROJECTS/Mol_Feturizer/New_Systems/rnas/4XWF

>  <Rbt.Executable>
rbdock ($Id: //depot/dev/client3/rdock/2013.1/src/exe/rbdock.cxx#4 $)

>  <Rbt.Library>
libRbt.so (2013.1, Build901 2013/11/27)

>  <Rbt.Parameter_File>
/export/apps/rDock/src/rDock_2013.1_src/data/scripts/dock_solv.prm

>  <Rbt.Receptor>
prm/pocket_docking_7.prm

>  <SCORE>
-8.07903

>  <SCORE.INTER>
-8.25292

>  <SCORE.INTER.CONST>
1

>  <SCORE.INTER.POLAR>
0

>  <SCORE.INTER.ROT>
5

>  <SCORE.INTER.SOLV>
14.7892

>  <SCORE.INTER.VDW>
-17.365

>  <SCORE.INTER.norm>
-0.375133

>  <SCORE.INTRA>
0.173895

>  <SCORE.INTRA.DIHEDRAL>
-0.0102887

>  <SCORE.INTRA.DIHEDRAL.0>
3.49807

>  <SCORE.INTRA.POLAR>
0

>  <SCORE.INTRA.POLAR.0>
0

>  <SCORE.INTRA.REPUL>
0

>  <SCORE.INTRA.REPUL.0>
0

>  <SCORE.INTRA.SOLV>
0.733005

>  <SCORE.INTRA.SOLV.lig_0>
-73.062

>  <SCORE.INTRA.VDW>
-0.187464

>  <SCORE.INTRA.VDW.0>
-1.83782

>  <SCORE.INTRA.norm>
0.0079043

>  <SCORE.RESTR>
0

>  <SCORE.RESTR.CAVITY>
0

>  <SCORE.RESTR.norm>
0

>  <SCORE.SYSTEM>
0

>  <SCORE.SYSTEM.CONST>
0

>  <SCORE.SYSTEM.DIHEDRAL>
0

>  <SCORE.SYSTEM.SOLV>
0

>  <SCORE.SYSTEM.norm>
0

>  <SCORE.heavy>
22

>  <SCORE.norm>
-0.367229

>  <RMSD>
6.554

$$$$
ligand
 OpenBabel11021811513D
libRbt.so/2013.1/901 2013/11/27
 22 23  0  0  0  0  0  0  0  0999 V2000
  -28.6795    3.5163  -10.9208 N   0  0  0  0  0  0  0  0  0  0  0  0
  -30.8223    0.9065  -10.6970 C   0  0  1  0  0  0  0  0  0  0  0  0
  -30.4175    2.0916  -11.4398 O   0  0  0  0  0  0  0  0  0  0  0  0
  -33.3939    3.1184   -9.0376 P   0  0  1  0  0  0  0  0  0  0  0  0
  -28.9932    2.2313  -11.3126 C   0  0  2  0  0  0  0  0  0  0  0  0
  -28.7590    5.4255   -9.8914 N   0  0  0  0  0  0  0  0  0  0  0  0
  -27.2544    0.9572  -10.2884 O   0  0  0  0  0  0  0  0  0  0  0  0
  -28.6282    1.3484  -10.1821 C   0  0  2  0  0  0  0  0  0  0  0  0
  -26.5473    7.1419  -12.0648 N   0  0  0  0  0  0  0  0  0  0  0  0
  -29.1857   -0.6247  -11.3835 O   0  0  0  0  0  0  0  0  0  0  0  0
  -29.5649    0.2374  -10.2975 C   0  0  2  0  0  0  0  0  0  0  0  0
  -27.6728    5.4192  -10.6792 C   0  0  0  0  0  0  0  0  0  0  0  0
  -26.6127    3.7995  -12.2337 N   0  0  0  0  0  0  0  0  0  0  0  0
  -32.5841    2.2052  -10.0220 O   0  0  0  0  0  0  0  0  0  0  0  0
  -31.5925    1.3751   -9.5107 C   0  0  0  0  0  0  0  0  0  0  0  0
  -33.8236    2.1250   -7.8978 O   0  0  0  0  0  0  0  0  0  0  0  0
  -29.3861    4.2442  -10.0481 C   0  0  0  0  0  0  0  0  0  0  0  0
  -26.0302    6.8923   -9.8612 O   0  0  0  0  0  0  0  0  0  0  0  0
  -26.7059    6.5235  -10.8217 C   0  0  0  0  0  0  0  0  0  0  0  0
  -27.6142    4.2190  -11.3284 C   0  0  0  0  0  0  0  0  0  0  0  0
  -32.5352    4.2509   -8.5818 O   0  5  0  0  0  0  0  0  0  0  0  0
  -34.4685    3.8317   -9.7512 O   0  0  0  0  0  0  0  0  0  0  0  0
  1 17  1  0  0  0  0
  1 20  1  0  0  0  0
  2 15  1  1  0  0  0
  2  3  1  0  0  0  0
  2 11  1  0  0  0  0
  3  5  1  0  0  0  0
  4 16  1  1  0  0  0
  4 21  1  0  0  0  0
  4 22  2  0  0  0  0
  4 14  1  0  0  0  0
  5  1  1  1  0  0  0
  5  8  1  0  0  0  0
  6 17  2  0  0  0  0
  6 12  1  0  0  0  0
  8  7  1  6  0  0  0
  8 11  1  0  0  0  0
  9 19  1  0  0  0  0
 11 10  1  6  0  0  0
 12 20  2  0  0  0  0
 12 19  1  0  0  0  0
 13 20  1  0  0  0  0
 14 15  1  0  0  0  0
 18 19  2  0  0  0  0
M  CHG  1  21  -1
M  END
>  <CHROM.1>
37.97141284,53.17590442,-48.89850246,-167.04237468,-117.36360256,-29.90000827
3.18591711,-10.27188405,-0.39349121,-0.33664158,-3.00304870

>  <Name>
ligand

>  <RI>
0

>  <Rbt.Current_Directory>
/home/itssahil/PROJECTS/Mol_Feturizer/New_Systems/rnas/4XWF

>  <Rbt.Executable>
rbdock ($Id: //depot/dev/client3/rdock/2013.1/src/exe/rbdock.cxx#4 $)

>  <Rbt.Library>
libRbt.so (2013.1, Build901 2013/11/27)

>  <Rbt.Parameter_File>
/export/apps/rDock/src/rDock_2013.1_src/data/scripts/dock_solv.prm

>  <Rbt.Receptor>
prm/pocket_docking_3.prm

>  <SCORE>
-4.94163

>  <SCORE.INTER>
-4.18668

>  <SCORE.INTER.CONST>
1

>  <SCORE.INTER.POLAR>
0

>  <SCORE.INTER.ROT>
5

>  <SCORE.INTER.SOLV>
17.0424

>  <SCORE.INTER.VDW>
-15.4053

>  <SCORE.INTER.norm>
-0.190304

>  <SCORE.INTRA>
-0.754951

>  <SCORE.INTRA.DIHEDRAL>
-0.902742

>  <SCORE.INTRA.DIHEDRAL.0>
3.49807

>  <SCORE.INTRA.POLAR>
0

>  <SCORE.INTRA.POLAR.0>
0

>  <SCORE.INTRA.REPUL>
0

>  <SCORE.INTRA.REPUL.0>
0

>  <SCORE.INTRA.SOLV>
0.181239

>  <SCORE.INTRA.SOLV.lig_0>
-73.062

>  <SCORE.INTRA.VDW>
-0.3942

>  <SCORE.INTRA.VDW.0>
-1.83782

>  <SCORE.INTRA.norm>
-0.034316

>  <SCORE.RESTR>
0

>  <SCORE.RESTR.CAVITY>
0

>  <SCORE.RESTR.norm>
0

>  <SCORE.SYSTEM>
0

>  <SCORE.SYSTEM.CONST>
0

>  <SCORE.SYSTEM.DIHEDRAL>
0

>  <SCORE.SYSTEM.SOLV>
0

>  <SCORE.SYSTEM.norm>
0

>  <SCORE.heavy>
22

>  <SCORE.norm>
-0.22462

>  <RMSD>
6.558

$$$$
ligand
 OpenBabel11021811513D
libRbt.so/2013.1/901 2013/11/27
 22 23  0  0  0  0  0  0  0  0999 V2000
  -28.3544    3.3725  -11.5979 N   0  0  0  0  0  0  0  0  0  0  0  0
  -30.5623    0.8982  -10.9227 C   0  0  1  0  0  0  0  0  0  0  0  0
  -30.1836    1.9845  -11.8152 O   0  0  0  0  0  0  0  0  0  0  0  0
  -33.1546    3.0846   -9.2369 P   0  0  1  0  0  0  0  0  0  0  0  0
  -28.7495    2.0707  -11.8274 C   0  0  2  0  0  0  0  0  0  0  0  0
  -28.1316    5.3137  -10.6529 N   0  0  0  0  0  0  0  0  0  0  0  0
  -26.9726    0.8258  -10.8331 O   0  0  0  0  0  0  0  0  0  0  0  0
  -28.3157    1.2880  -10.6484 C   0  0  2  0  0  0  0  0  0  0  0  0
  -25.1491    6.2501  -12.3099 N   0  0  0  0  0  0  0  0  0  0  0  0
  -29.0524   -0.7665  -11.5884 O   0  0  0  0  0  0  0  0  0  0  0  0
  -29.2992    0.2150  -10.5676 C   0  0  2  0  0  0  0  0  0  0  0  0
  -27.3720    5.2965  -11.7589 C   0  0  0  0  0  0  0  0  0  0  0  0
  -26.8541    3.6410  -13.5351 N   0  0  0  0  0  0  0  0  0  0  0  0
  -32.3088    2.2026  -10.2193 O   0  0  0  0  0  0  0  0  0  0  0  0
  -31.2035    1.5163   -9.7282 C   0  0  0  0  0  0  0  0  0  0  0  0
  -34.4018    3.4911  -10.1027 O   0  0  0  0  0  0  0  0  0  0  0  0
  -28.7457    4.1189  -10.5586 C   0  0  0  0  0  0  0  0  0  0  0  0
  -27.0482    7.4766  -12.5832 O   0  0  0  0  0  0  0  0  0  0  0  0
  -26.5361    6.4090  -12.2469 C   0  0  0  0  0  0  0  0  0  0  0  0
  -27.5047    4.0762  -12.3578 C   0  0  0  0  0  0  0  0  0  0  0  0
  -33.4808    2.2989   -8.0105 O   0  5  0  0  0  0  0  0  0  0  0  0
  -32.3364    4.1763   -8.6788 O   0  0  0  0  0  0  0  0  0  0  0  0
  1 17  1  0  0  0  0
  1 20  1  0  0  0  0
  2 15  1  1  0  0  0
  2  3  1  0  0  0  0
  2 11  1  0  0  0  0
  3  5  1  0  0  0  0
  4 16  1  6  0  0  0
  4 21  1  0  0  0  0
  4 22  2  0  0  0  0
  4 14  1  0  0  0  0
  5  1  1  1  0  0  0
  5  8  1  0  0  0  0
  6 17  2  0  0  0  0
  6 12  1  0  0  0  0
  8  7  1  6  0  0  0
  8 11  1  0  0  0  0
  9 19  1  0  0  0  0
 11 10  1  6  0  0  0
 12 20  2  0  0  0  0
 12 19  1  0  0  0  0
 13 20  1  0  0  0  0
 14 15  1  0  0  0  0
 18 19  2  0  0  0  0
M  CHG  1  21  -1
M  END
>  <CHROM.1>
53.37898859,60.40183239,-171.53695570,-174.69442910,116.31043515,-29.65879506
3.10284354,-10.85683553,-0.38962039,-0.43306742,3.14019281

>  <Name>
ligand

>  <RI>
0

>  <Rbt.Current_Directory>
/home/itssahil/PROJECTS/Mol_Feturizer/New_Systems/rnas/4XWF

>  <Rbt.Executable>
rbdock ($Id: //depot/dev/client3/rdock/2013.1/src/exe/rbdock.cxx#4 $)

>  <Rbt.Library>
libRbt.so (2013.1, Build901 2013/11/27)

>  <Rbt.Parameter_File>
/export/apps/rDock/src/rDock_2013.1_src/data/scripts/dock_solv.prm

>  <Rbt.Receptor>
prm/pocket_docking_4.prm

>  <SCORE>
-7.18798

>  <SCORE.INTER>
-6.08326

>  <SCORE.INTER.CONST>
1

>  <SCORE.INTER.POLAR>
0

>  <SCORE.INTER.ROT>
5

>  <SCORE.INTER.SOLV>
11.4654

>  <SCORE.INTER.VDW>
-14.8106

>  <SCORE.INTER.norm>
-0.276512

>  <SCORE.INTRA>
-1.10473

>  <SCORE.INTRA.DIHEDRAL>
-1.75907

>  <SCORE.INTRA.DIHEDRAL.0>
3.49807

>  <SCORE.INTRA.POLAR>
0

>  <SCORE.INTRA.POLAR.0>
0

>  <SCORE.INTRA.REPUL>
0

>  <SCORE.INTRA.REPUL.0>
0

>  <SCORE.INTRA.SOLV>
0.0309462

>  <SCORE.INTRA.SOLV.lig_0>
-73.062

>  <SCORE.INTRA.VDW>
-0.240665

>  <SCORE.INTRA.VDW.0>
-1.83782

>  <SCORE.INTRA.norm>
-0.0502148

>  <SCORE.RESTR>
0

>  <SCORE.RESTR.CAVITY>
0

>  <SCORE.RESTR.norm>
0

>  <SCORE.SYSTEM>
0

>  <SCORE.SYSTEM.CONST>
0

>  <SCORE.SYSTEM.DIHEDRAL>
0

>  <SCORE.SYSTEM.SOLV>
0

>  <SCORE.SYSTEM.norm>
0

>  <SCORE.heavy>
22

>  <SCORE.norm>
-0.326727

>  <RMSD>
6.562

$$$$
ligand
 OpenBabel11021811513D
libRbt.so/2013.1/901 2013/11/27
 22 23  0  0  0  0  0  0  0  0999 V2000
  -28.6425    3.4671  -11.0038 N   0  0  0  0  0  0  0  0  0  0  0  0
  -30.8162    0.8872  -10.7356 C   0  0  1  0  0  0  0  0  0  0  0  0
  -30.3907    2.0483  -11.5042 O   0  0  0  0  0  0  0  0  0  0  0  0
  -33.3853    3.1658   -9.1711 P   0  0  1  0  0  0  0  0  0  0  0  0
  -28.9663    2.1759  -11.3657 C   0  0  2  0  0  0  0  0  0  0  0  0
  -28.6937    5.3926  -10.0032 N   0  0  0  0  0  0  0  0  0  0  0  0
  -27.2523    0.9100  -10.2908 O   0  0  0  0  0  0  0  0  0  0  0  0
  -28.6227    1.3186  -10.2091 C   0  0  2  0  0  0  0  0  0  0  0  0
  -25.3360    6.2971  -10.6320 N   0  0  0  0  0  0  0  0  0  0  0  0
  -29.1896   -0.6787  -11.3652 O   0  0  0  0  0  0  0  0  0  0  0  0
  -29.5704    0.2151  -10.3058 C   0  0  2  0  0  0  0  0  0  0  0  0
  -27.6308    5.3740  -10.8220 C   0  0  0  0  0  0  0  0  0  0  0  0
  -26.6149    3.7300  -12.3805 N   0  0  0  0  0  0  0  0  0  0  0  0
  -32.5864    2.2012  -10.1145 O   0  0  0  0  0  0  0  0  0  0  0  0
  -31.5933    1.3945   -9.5699 C   0  0  0  0  0  0  0  0  0  0  0  0
  -34.5900    3.6291  -10.0681 O   0  0  0  0  0  0  0  0  0  0  0  0
  -29.3241    4.2086  -10.1228 C   0  0  0  0  0  0  0  0  0  0  0  0
  -27.0350    7.5528  -11.4818 O   0  0  0  0  0  0  0  0  0  0  0  0
  -26.6693    6.4763  -11.0101 C   0  0  0  0  0  0  0  0  0  0  0  0
  -27.5901    4.1636  -11.4533 C   0  0  0  0  0  0  0  0  0  0  0  0
  -33.7810    2.4394   -7.9286 O   0  5  0  0  0  0  0  0  0  0  0  0
  -32.5039    4.2163   -8.6305 O   0  0  0  0  0  0  0  0  0  0  0  0
  1 17  1  0  0  0  0
  1 20  1  0  0  0  0
  2 15  1  1  0  0  0
  2  3  1  0  0  0  0
  2 11  1  0  0  0  0
  3  5  1  0  0  0  0
  4 16  1  6  0  0  0
  4 21  1  0  0  0  0
  4 22  2  0  0  0  0
  4 14  1  0  0  0  0
  5  1  1  1  0  0  0
  5  8  1  0  0  0  0
  6 17  2  0  0  0  0
  6 12  1  0  0  0  0
  8  7  1  6  0  0  0
  8 11  1  0  0  0  0
  9 19  1  0  0  0  0
 11 10  1  6  0  0  0
 12 20  2  0  0  0  0
 12 19  1  0  0  0  0
 13 20  1  0  0  0  0
 14 15  1  0  0  0  0
 18 19  2  0  0  0  0
M  CHG  1  21  -1
M  END
>  <CHROM.1>
40.38778781,54.29191481,-167.47512050,-165.87104619,115.59151710,-29.88616223
3.16573165,-10.36982638,-0.38493075,-0.31697561,-3.04228136

>  <Name>
ligand

>  <RI>
0

>  <Rbt.Current_Directory>
/home/itssahil/PROJECTS/Mol_Feturizer/New_Systems/rnas/4XWF

>  <Rbt.Executable>
rbdock ($Id: //depot/dev/client3/rdock/2013.1/src/exe/rbdock.cxx#4 $)

>  <Rbt.Library>
libRbt.so (2013.1, Build901 2013/11/27)

>  <Rbt.Parameter_File>
/export/apps/rDock/src/rDock_2013.1_src/data/scripts/dock_solv.prm

>  <Rbt.Receptor>
prm/pocket_docking_4.prm

>  <SCORE>
-7.16076

>  <SCORE.INTER>
-6.65789

>  <SCORE.INTER.CONST>
1

>  <SCORE.INTER.POLAR>
0

>  <SCORE.INTER.ROT>
5

>  <SCORE.INTER.SOLV>
12.461

>  <SCORE.INTER.VDW>
-15.5256

>  <SCORE.INTER.norm>
-0.302631

>  <SCORE.INTRA>
-0.502864

>  <SCORE.INTRA.DIHEDRAL>
-0.750878

>  <SCORE.INTRA.DIHEDRAL.0>
3.49807

>  <SCORE.INTRA.POLAR>
0

>  <SCORE.INTRA.POLAR.0>
0

>  <SCORE.INTRA.REPUL>
0

>  <SCORE.INTRA.REPUL.0>
0

>  <SCORE.INTRA.SOLV>
0.770445

>  <SCORE.INTRA.SOLV.lig_0>
-73.062

>  <SCORE.INTRA.VDW>
-0.512648

>  <SCORE.INTRA.VDW.0>
-1.83782

>  <SCORE.INTRA.norm>
-0.0228575

>  <SCORE.RESTR>
0

>  <SCORE.RESTR.CAVITY>
0

>  <SCORE.RESTR.norm>
0

>  <SCORE.SYSTEM>
0

>  <SCORE.SYSTEM.CONST>
0

>  <SCORE.SYSTEM.DIHEDRAL>
0

>  <SCORE.SYSTEM.SOLV>
0

>  <SCORE.SYSTEM.norm>
0

>  <SCORE.heavy>
22

>  <SCORE.norm>
-0.325489

>  <RMSD>
6.563

$$$$
ligand
 OpenBabel11021811513D
libRbt.so/2013.1/901 2013/11/27
 22 23  0  0  0  0  0  0  0  0999 V2000
  -32.8034    3.3280   -8.3945 N   0  0  0  0  0  0  0  0  0  0  0  0
  -30.2312    1.4635   -9.5607 C   0  0  1  0  0  0  0  0  0  0  0  0
  -30.6574    2.7376   -8.9993 O   0  0  0  0  0  0  0  0  0  0  0  0
  -28.5779    0.0634  -11.6327 P   0  0  1  0  0  0  0  0  0  0  0  0
  -31.7512    2.4849   -8.1026 C   0  0  2  0  0  0  0  0  0  0  0  0
  -34.4464    4.2689   -9.4559 N   0  0  0  0  0  0  0  0  0  0  0  0
  -32.8773    0.5326   -7.3176 O   0  0  0  0  0  0  0  0  0  0  0  0
  -32.2054    1.1171   -8.4395 C   0  0  2  0  0  0  0  0  0  0  0  0
  -36.1664    5.5964   -6.7210 N   0  0  0  0  0  0  0  0  0  0  0  0
  -30.2014    0.1225   -7.6384 O   0  0  0  0  0  0  0  0  0  0  0  0
  -30.9753    0.4283   -8.8105 C   0  0  2  0  0  0  0  0  0  0  0  0
  -34.3612    4.8252   -8.2378 C   0  0  0  0  0  0  0  0  0  0  0  0
  -32.9212    4.5177   -6.2390 N   0  0  0  0  0  0  0  0  0  0  0  0
  -30.1274    0.2718  -11.5139 O   0  0  0  0  0  0  0  0  0  0  0  0
  -30.6094    1.4715  -11.0018 C   0  0  0  0  0  0  0  0  0  0  0  0
  -28.1410   -0.2330  -10.1522 O   0  0  0  0  0  0  0  0  0  0  0  0
  -33.4733    3.3430   -9.5528 C   0  0  0  0  0  0  0  0  0  0  0  0
  -35.1532    7.0398   -8.1618 O   0  0  0  0  0  0  0  0  0  0  0  0
  -35.2325    5.8949   -7.7168 C   0  0  0  0  0  0  0  0  0  0  0  0
  -33.3309    4.2358   -7.5624 C   0  0  0  0  0  0  0  0  0  0  0  0
  -28.2919   -1.0402  -12.5962 O   0  5  0  0  0  0  0  0  0  0  0  0
  -27.9462    1.2129  -12.3050 O   0  0  0  0  0  0  0  0  0  0  0  0
  1 17  1  0  0  0  0
  1 20  1  0  0  0  0
  2 15  1  6  0  0  0
  2  3  1  0  0  0  0
  2 11  1  0  0  0  0
  3  5  1  0  0  0  0
  4 16  1  1  0  0  0
  4 21  1  0  0  0  0
  4 22  2  0  0  0  0
  4 14  1  0  0  0  0
  5  1  1  6  0  0  0
  5  8  1  0  0  0  0
  6 17  2  0  0  0  0
  6 12  1  0  0  0  0
  8  7  1  1  0  0  0
  8 11  1  0  0  0  0
  9 19  1  0  0  0  0
 11 10  1  1  0  0  0
 12 20  2  0  0  0  0
 12 19  1  0  0  0  0
 13 20  1  0  0  0  0
 14 15  1  0  0  0  0
 18 19  2  0  0  0  0
M  CHG  1  21  -1
M  END
>  <CHROM.1>
62.48971151,177.10730644,76.50610522,-68.72295908,108.88732471,-31.55505652
2.22482187,-9.28723297,-3.12807694,0.81926544,-0.97170490

>  <Name>
ligand

>  <RI>
0

>  <Rbt.Current_Directory>
/home/itssahil/PROJECTS/Mol_Feturizer/New_Systems/rnas/4XWF

>  <Rbt.Executable>
rbdock ($Id: //depot/dev/client3/rdock/2013.1/src/exe/rbdock.cxx#4 $)

>  <Rbt.Library>
libRbt.so (2013.1, Build901 2013/11/27)

>  <Rbt.Parameter_File>
/export/apps/rDock/src/rDock_2013.1_src/data/scripts/dock_solv.prm

>  <Rbt.Receptor>
prm/pocket_docking_6.prm

>  <SCORE>
-7.95256

>  <SCORE.INTER>
-8.32078

>  <SCORE.INTER.CONST>
1

>  <SCORE.INTER.POLAR>
0

>  <SCORE.INTER.ROT>
5

>  <SCORE.INTER.SOLV>
14.5556

>  <SCORE.INTER.VDW>
-17.3324

>  <SCORE.INTER.norm>
-0.378217

>  <SCORE.INTRA>
0.368214

>  <SCORE.INTRA.DIHEDRAL>
-1.09808

>  <SCORE.INTRA.DIHEDRAL.0>
3.49807

>  <SCORE.INTRA.POLAR>
0

>  <SCORE.INTRA.POLAR.0>
0

>  <SCORE.INTRA.REPUL>
0

>  <SCORE.INTRA.REPUL.0>
0

>  <SCORE.INTRA.SOLV>
0.37061

>  <SCORE.INTRA.SOLV.lig_0>
-73.062

>  <SCORE.INTRA.VDW>
0.731948

>  <SCORE.INTRA.VDW.0>
-1.83782

>  <SCORE.INTRA.norm>
0.016737

>  <SCORE.RESTR>
0

>  <SCORE.RESTR.CAVITY>
0

>  <SCORE.RESTR.norm>
0

>  <SCORE.SYSTEM>
0

>  <SCORE.SYSTEM.CONST>
0

>  <SCORE.SYSTEM.DIHEDRAL>
0

>  <SCORE.SYSTEM.SOLV>
0

>  <SCORE.SYSTEM.norm>
0

>  <SCORE.heavy>
22

>  <SCORE.norm>
-0.36148

>  <RMSD>
6.573

$$$$
ligand
 OpenBabel11021811513D
libRbt.so/2013.1/901 2013/11/27
 22 23  0  0  0  0  0  0  0  0999 V2000
  -31.7085    4.8184   -8.5603 N   0  0  0  0  0  0  0  0  0  0  0  0
  -31.0592    1.6584   -9.5829 C   0  0  1  0  0  0  0  0  0  0  0  0
  -30.8930    2.6610   -8.5402 O   0  0  0  0  0  0  0  0  0  0  0  0
  -28.8863    0.7693  -12.5555 P   0  0  1  0  0  0  0  0  0  0  0  0
  -32.0685    3.4871   -8.5259 C   0  0  2  0  0  0  0  0  0  0  0  0
  -30.6515    6.6467   -9.0614 N   0  0  0  0  0  0  0  0  0  0  0  0
  -34.1411    3.4984   -9.7090 O   0  0  0  0  0  0  0  0  0  0  0  0
  -32.7434    3.2029   -9.8122 C   0  0  2  0  0  0  0  0  0  0  0  0
  -33.3104    8.8277   -8.0696 N   0  0  0  0  0  0  0  0  0  0  0  0
  -33.2646    0.9706   -9.1859 O   0  0  0  0  0  0  0  0  0  0  0  0
  -32.4578    1.7926  -10.0459 C   0  0  2  0  0  0  0  0  0  0  0  0
  -31.6844    6.9645   -8.2659 C   0  0  0  0  0  0  0  0  0  0  0  0
  -33.5186    5.7181   -7.1498 N   0  0  0  0  0  0  0  0  0  0  0  0
  -29.9279    0.8089  -11.3841 O   0  0  0  0  0  0  0  0  0  0  0  0
  -30.0911    1.9887  -10.6663 C   0  0  0  0  0  0  0  0  0  0  0  0
  -29.6953    1.3432  -13.7748 O   0  0  0  0  0  0  0  0  0  0  0  0
  -30.6653    5.3117   -9.2377 C   0  0  0  0  0  0  0  0  0  0  0  0
  -31.2074    9.0160   -7.2166 O   0  0  0  0  0  0  0  0  0  0  0  0
  -32.0337    8.3225   -7.8093 C   0  0  0  0  0  0  0  0  0  0  0  0
  -32.3566    5.8187   -7.9486 C   0  0  0  0  0  0  0  0  0  0  0  0
  -27.6799    1.5650  -12.1822 O   0  5  0  0  0  0  0  0  0  0  0  0
  -28.3151   -0.5817  -12.7011 O   0  0  0  0  0  0  0  0  0  0  0  0
  1 17  1  0  0  0  0
  1 20  1  0  0  0  0
  2 15  1  6  0  0  0
  2  3  1  0  0  0  0
  2 11  1  0  0  0  0
  3  5  1  0  0  0  0
  4 16  1  6  0  0  0
  4 21  1  0  0  0  0
  4 22  2  0  0  0  0
  4 14  1  0  0  0  0
  5  1  1  6  0  0  0
  5  8  1  0  0  0  0
  6 17  2  0  0  0  0
  6 12  1  0  0  0  0
  8  7  1  1  0  0  0
  8 11  1  0  0  0  0
  9 19  1  0  0  0  0
 11 10  1  1  0  0  0
 12 20  2  0  0  0  0
 12 19  1  0  0  0  0
 13 20  1  0  0  0  0
 14 15  1  0  0  0  0
 18 19  2  0  0  0  0
M  CHG  1  21  -1
M  END
>  <CHROM.1>
35.73707039,159.38411884,-84.57291348,-175.86331471,123.61229426,-31.11459933
3.56642818,-9.86609783,2.00323318,0.52193881,0.35823579

>  <Name>
ligand

>  <RI>
0

>  <Rbt.Current_Directory>
/home/itssahil/PROJECTS/Mol_Feturizer/New_Systems/rnas/4XWF

>  <Rbt.Executable>
rbdock ($Id: //depot/dev/client3/rdock/2013.1/src/exe/rbdock.cxx#4 $)

>  <Rbt.Library>
libRbt.so (2013.1, Build901 2013/11/27)

>  <Rbt.Parameter_File>
/export/apps/rDock/src/rDock_2013.1_src/data/scripts/dock_solv.prm

>  <Rbt.Receptor>
prm/pocket_docking_7.prm

>  <SCORE>
-8.30143

>  <SCORE.INTER>
-8.26152

>  <SCORE.INTER.CONST>
1

>  <SCORE.INTER.POLAR>
0

>  <SCORE.INTER.ROT>
5

>  <SCORE.INTER.SOLV>
13.9268

>  <SCORE.INTER.VDW>
-17.0833

>  <SCORE.INTER.norm>
-0.375524

>  <SCORE.INTRA>
-0.0399118

>  <SCORE.INTRA.DIHEDRAL>
0.343938

>  <SCORE.INTRA.DIHEDRAL.0>
3.49807

>  <SCORE.INTRA.POLAR>
0

>  <SCORE.INTRA.POLAR.0>
0

>  <SCORE.INTRA.REPUL>
0

>  <SCORE.INTRA.REPUL.0>
0

>  <SCORE.INTRA.SOLV>
0.0627008

>  <SCORE.INTRA.SOLV.lig_0>
-73.062

>  <SCORE.INTRA.VDW>
-0.243231

>  <SCORE.INTRA.VDW.0>
-1.83782

>  <SCORE.INTRA.norm>
-0.00181417

>  <SCORE.RESTR>
0

>  <SCORE.RESTR.CAVITY>
0

>  <SCORE.RESTR.norm>
0

>  <SCORE.SYSTEM>
0

>  <SCORE.SYSTEM.CONST>
0

>  <SCORE.SYSTEM.DIHEDRAL>
0

>  <SCORE.SYSTEM.SOLV>
0

>  <SCORE.SYSTEM.norm>
0

>  <SCORE.heavy>
22

>  <SCORE.norm>
-0.377338

>  <RMSD>
6.578

$$$$
ligand
 OpenBabel11021811513D
libRbt.so/2013.1/901 2013/11/27
 22 23  0  0  0  0  0  0  0  0999 V2000
  -33.0463    3.4537   -7.9987 N   0  0  0  0  0  0  0  0  0  0  0  0
  -30.2451    1.7395   -8.8157 C   0  0  1  0  0  0  0  0  0  0  0  0
  -30.8155    2.8786   -8.1107 O   0  0  0  0  0  0  0  0  0  0  0  0
  -29.1901    1.1613  -12.4088 P   0  0  1  0  0  0  0  0  0  0  0  0
  -32.1175    2.5008   -7.6349 C   0  0  2  0  0  0  0  0  0  0  0  0
  -34.3879    4.6552   -9.2102 N   0  0  0  0  0  0  0  0  0  0  0  0
  -33.4149    0.4979   -7.6709 O   0  0  0  0  0  0  0  0  0  0  0  0
  -32.4548    1.2763   -8.3949 C   0  0  2  0  0  0  0  0  0  0  0  0
  -34.9650    7.3806   -7.2709 N   0  0  0  0  0  0  0  0  0  0  0  0
  -30.7564    0.0001   -7.3299 O   0  0  0  0  0  0  0  0  0  0  0  0
  -31.1684    0.6116   -8.5639 C   0  0  2  0  0  0  0  0  0  0  0  0
  -34.5325    5.0283   -7.9294 C   0  0  0  0  0  0  0  0  0  0  0  0
  -33.5551    4.3370   -5.7545 N   0  0  0  0  0  0  0  0  0  0  0  0
  -29.4234    1.1108  -10.8591 O   0  0  0  0  0  0  0  0  0  0  0  0
  -30.2007    2.0969  -10.2615 C   0  0  0  0  0  0  0  0  0  0  0  0
  -30.6126    0.8429  -12.9966 O   0  0  0  0  0  0  0  0  0  0  0  0
  -33.4593    3.6807   -9.2511 C   0  0  0  0  0  0  0  0  0  0  0  0
  -36.6119    5.8122   -7.1555 O   0  0  0  0  0  0  0  0  0  0  0  0
  -35.4432    6.0779   -7.4359 C   0  0  0  0  0  0  0  0  0  0  0  0
  -33.6931    4.2741   -7.1601 C   0  0  0  0  0  0  0  0  0  0  0  0
  -28.6459    2.4974  -12.7916 O   0  5  0  0  0  0  0  0  0  0  0  0
  -28.0837    0.2692  -12.7999 O   0  0  0  0  0  0  0  0  0  0  0  0
  1 17  1  0  0  0  0
  1 20  1  0  0  0  0
  2 15  1  6  0  0  0
  2  3  1  0  0  0  0
  2 11  1  0  0  0  0
  3  5  1  0  0  0  0
  4 16  1  6  0  0  0
  4 21  1  0  0  0  0
  4 22  2  0  0  0  0
  4 14  1  0  0  0  0
  5  1  1  6  0  0  0
  5  8  1  0  0  0  0
  6 17  2  0  0  0  0
  6 12  1  0  0  0  0
  8  7  1  1  0  0  0
  8 11  1  0  0  0  0
  9 19  1  0  0  0  0
 11 10  1  1  0  0  0
 12 20  2  0  0  0  0
 12 19  1  0  0  0  0
 13 20  1  0  0  0  0
 14 15  1  0  0  0  0
 18 19  2  0  0  0  0
M  CHG  1  21  -1
M  END
>  <CHROM.1>
69.50815073,168.77167098,-68.47459149,178.73818733,-93.88794290,-31.87964522
2.65642778,-9.24757557,-3.01417801,0.83233491,-0.90639553

>  <Name>
ligand

>  <RI>
0

>  <Rbt.Current_Directory>
/home/itssahil/PROJECTS/Mol_Feturizer/New_Systems/rnas/4XWF

>  <Rbt.Executable>
rbdock ($Id: //depot/dev/client3/rdock/2013.1/src/exe/rbdock.cxx#4 $)

>  <Rbt.Library>
libRbt.so (2013.1, Build901 2013/11/27)

>  <Rbt.Parameter_File>
/export/apps/rDock/src/rDock_2013.1_src/data/scripts/dock_solv.prm

>  <Rbt.Receptor>
prm/pocket_docking_6.prm

>  <SCORE>
-8.22566

>  <SCORE.INTER>
-7.74108

>  <SCORE.INTER.CONST>
1

>  <SCORE.INTER.POLAR>
0

>  <SCORE.INTER.ROT>
5

>  <SCORE.INTER.SOLV>
12.5618

>  <SCORE.INTER.VDW>
-16.2813

>  <SCORE.INTER.norm>
-0.351867

>  <SCORE.INTRA>
-0.484571

>  <SCORE.INTRA.DIHEDRAL>
-0.705622

>  <SCORE.INTRA.DIHEDRAL.0>
3.49807

>  <SCORE.INTRA.POLAR>
0

>  <SCORE.INTRA.POLAR.0>
0

>  <SCORE.INTRA.REPUL>
0

>  <SCORE.INTRA.REPUL.0>
0

>  <SCORE.INTRA.SOLV>
-1.08062

>  <SCORE.INTRA.SOLV.lig_0>
-73.062

>  <SCORE.INTRA.VDW>
0.408551

>  <SCORE.INTRA.VDW.0>
-1.83782

>  <SCORE.INTRA.norm>
-0.022026

>  <SCORE.RESTR>
0

>  <SCORE.RESTR.CAVITY>
0

>  <SCORE.RESTR.norm>
0

>  <SCORE.SYSTEM>
0

>  <SCORE.SYSTEM.CONST>
0

>  <SCORE.SYSTEM.DIHEDRAL>
0

>  <SCORE.SYSTEM.SOLV>
0

>  <SCORE.SYSTEM.norm>
0

>  <SCORE.heavy>
22

>  <SCORE.norm>
-0.373893

>  <RMSD>
6.581

$$$$
ligand
 OpenBabel11021811513D
libRbt.so/2013.1/901 2013/11/27
 22 23  0  0  0  0  0  0  0  0999 V2000
  -28.3625    2.8442  -13.6880 N   0  0  0  0  0  0  0  0  0  0  0  0
  -29.7879    0.3839  -11.8528 C   0  0  1  0  0  0  0  0  0  0  0  0
  -29.8910    1.2527  -13.0166 O   0  0  0  0  0  0  0  0  0  0  0  0
  -32.1805    2.4908   -9.8054 P   0  0  1  0  0  0  0  0  0  0  0  0
  -28.5639    1.4906  -13.5131 C   0  0  2  0  0  0  0  0  0  0  0  0
  -28.0715    4.9498  -13.2489 N   0  0  0  0  0  0  0  0  0  0  0  0
  -26.3785    0.7310  -12.9277 O   0  0  0  0  0  0  0  0  0  0  0  0
  -27.6694    1.0737  -12.4101 C   0  0  2  0  0  0  0  0  0  0  0  0
  -27.5383    7.1613  -15.1243 N   0  0  0  0  0  0  0  0  0  0  0  0
  -28.2626   -1.2168  -12.6311 O   0  0  0  0  0  0  0  0  0  0  0  0
  -28.3740   -0.0481  -11.8017 C   0  0  2  0  0  0  0  0  0  0  0  0
  -27.9772    4.7818  -14.5769 C   0  0  0  0  0  0  0  0  0  0  0  0
  -28.1102    2.8575  -16.1400 N   0  0  0  0  0  0  0  0  0  0  0  0
  -31.4810    1.5630  -10.8582 O   0  0  0  0  0  0  0  0  0  0  0  0
  -30.1526    1.2018  -10.6620 C   0  0  0  0  0  0  0  0  0  0  0  0
  -31.3983    3.8469   -9.9461 O   0  0  0  0  0  0  0  0  0  0  0  0
  -28.3171    3.7450  -12.6996 C   0  0  0  0  0  0  0  0  0  0  0  0
  -27.6919    5.5922  -16.7676 O   0  0  0  0  0  0  0  0  0  0  0  0
  -27.7246    5.8479  -15.5640 C   0  0  0  0  0  0  0  0  0  0  0  0
  -28.1563    3.4579  -14.8609 C   0  0  0  0  0  0  0  0  0  0  0  0
  -33.6394    2.5824  -10.1072 O   0  5  0  0  0  0  0  0  0  0  0  0
  -32.1938    1.8548   -8.4758 O   0  0  0  0  0  0  0  0  0  0  0  0
  1 17  1  0  0  0  0
  1 20  1  0  0  0  0
  2 15  1  1  0  0  0
  2  3  1  0  0  0  0
  2 11  1  0  0  0  0
  3  5  1  0  0  0  0
  4 16  1  1  0  0  0
  4 21  1  0  0  0  0
  4 22  2  0  0  0  0
  4 14  1  0  0  0  0
  5  1  1  1  0  0  0
  5  8  1  0  0  0  0
  6 17  2  0  0  0  0
  6 12  1  0  0  0  0
  8  7  1  6  0  0  0
  8 11  1  0  0  0  0
  9 19  1  0  0  0  0
 11 10  1  6  0  0  0
 12 20  2  0  0  0  0
 12 19  1  0  0  0  0
 13 20  1  0  0  0  0
 14 15  1  0  0  0  0
 18 19  2  0  0  0  0
M  CHG  1  21  -1
M  END
>  <CHROM.1>
66.49619298,63.39276213,65.76299098,-177.57851425,1.15631380,-29.41305400
2.59686541,-12.52527208,-0.68897482,-0.74308477,2.74907184

>  <Name>
ligand

>  <RI>
0

>  <Rbt.Current_Directory>
/home/itssahil/PROJECTS/Mol_Feturizer/New_Systems/rnas/4XWF

>  <Rbt.Executable>
rbdock ($Id: //depot/dev/client3/rdock/2013.1/src/exe/rbdock.cxx#4 $)

>  <Rbt.Library>
libRbt.so (2013.1, Build901 2013/11/27)

>  <Rbt.Parameter_File>
/export/apps/rDock/src/rDock_2013.1_src/data/scripts/dock_solv.prm

>  <Rbt.Receptor>
prm/pocket_docking_7.prm

>  <SCORE>
-7.64502

>  <SCORE.INTER>
-6.46323

>  <SCORE.INTER.CONST>
1

>  <SCORE.INTER.POLAR>
0

>  <SCORE.INTER.ROT>
5

>  <SCORE.INTER.SOLV>
14.6111

>  <SCORE.INTER.VDW>
-16.1125

>  <SCORE.INTER.norm>
-0.293783

>  <SCORE.INTRA>
-1.18179

>  <SCORE.INTRA.DIHEDRAL>
-1.8539

>  <SCORE.INTRA.DIHEDRAL.0>
3.49807

>  <SCORE.INTRA.POLAR>
0

>  <SCORE.INTRA.POLAR.0>
0

>  <SCORE.INTRA.REPUL>
0

>  <SCORE.INTRA.REPUL.0>
0

>  <SCORE.INTRA.SOLV>
-1.0246

>  <SCORE.INTRA.SOLV.lig_0>
-73.062

>  <SCORE.INTRA.VDW>
0.257465

>  <SCORE.INTRA.VDW.0>
-1.83782

>  <SCORE.INTRA.norm>
-0.0537175

>  <SCORE.RESTR>
0

>  <SCORE.RESTR.CAVITY>
0

>  <SCORE.RESTR.norm>
0

>  <SCORE.SYSTEM>
0

>  <SCORE.SYSTEM.CONST>
0

>  <SCORE.SYSTEM.DIHEDRAL>
0

>  <SCORE.SYSTEM.SOLV>
0

>  <SCORE.SYSTEM.norm>
0

>  <SCORE.heavy>
22

>  <SCORE.norm>
-0.347501

>  <RMSD>
6.587

$$$$
ligand
 OpenBabel11021811513D
libRbt.so/2013.1/901 2013/11/27
 22 23  0  0  0  0  0  0  0  0999 V2000
  -31.6539    4.8059   -8.6495 N   0  0  0  0  0  0  0  0  0  0  0  0
  -31.0207    1.5991   -9.5257 C   0  0  1  0  0  0  0  0  0  0  0  0
  -30.8794    2.6375   -8.5150 O   0  0  0  0  0  0  0  0  0  0  0  0
  -28.7934    0.5800  -12.4165 P   0  0  1  0  0  0  0  0  0  0  0  0
  -32.0392    3.4830   -8.5807 C   0  0  2  0  0  0  0  0  0  0  0  0
  -30.5236    6.5916   -9.1439 N   0  0  0  0  0  0  0  0  0  0  0  0
  -34.0608    3.4840   -9.8493 O   0  0  0  0  0  0  0  0  0  0  0  0
  -32.6655    3.1616   -9.8827 C   0  0  2  0  0  0  0  0  0  0  0  0
  -31.0770    9.3826   -8.3581 N   0  0  0  0  0  0  0  0  0  0  0  0
  -33.2528    0.9636   -9.1962 O   0  0  0  0  0  0  0  0  0  0  0  0
  -32.3962    1.7389  -10.0516 C   0  0  2  0  0  0  0  0  0  0  0  0
  -31.6184    6.9639   -8.4631 C   0  0  0  0  0  0  0  0  0  0  0  0
  -33.5679    5.8015   -7.4573 N   0  0  0  0  0  0  0  0  0  0  0  0
  -29.8447    0.6677  -11.2565 O   0  0  0  0  0  0  0  0  0  0  0  0
  -30.0028    1.8718  -10.5790 C   0  0  0  0  0  0  0  0  0  0  0  0
  -28.4786   -0.9577  -12.5002 O   0  0  0  0  0  0  0  0  0  0  0  0
  -30.5451    5.2496   -9.2530 C   0  0  0  0  0  0  0  0  0  0  0  0
  -33.0695    8.5955   -7.5860 O   0  0  0  0  0  0  0  0  0  0  0  0
  -31.9833    8.3483   -8.1096 C   0  0  0  0  0  0  0  0  0  0  0  0
  -32.3368    5.8451   -8.1509 C   0  0  0  0  0  0  0  0  0  0  0  0
  -29.3710    1.1633  -13.6631 O   0  5  0  0  0  0  0  0  0  0  0  0
  -27.6598    1.4877  -12.1639 O   0  0  0  0  0  0  0  0  0  0  0  0
  1 17  1  0  0  0  0
  1 20  1  0  0  0  0
  2 15  1  6  0  0  0
  2  3  1  0  0  0  0
  2 11  1  0  0  0  0
  3  5  1  0  0  0  0
  4 16  1  6  0  0  0
  4 21  1  0  0  0  0
  4 22  2  0  0  0  0
  4 14  1  0  0  0  0
  5  1  1  6  0  0  0
  5  8  1  0  0  0  0
  6 17  2  0  0  0  0
  6 12  1  0  0  0  0
  8  7  1  1  0  0  0
  8 11  1  0  0  0  0
  9 19  1  0  0  0  0
 11 10  1  1  0  0  0
 12 20  2  0  0  0  0
 12 19  1  0  0  0  0
 13 20  1  0  0  0  0
 14 15  1  0  0  0  0
 18 19  2  0  0  0  0
M  CHG  1  21  -1
M  END
>  <CHROM.1>
32.79887245,160.15112748,157.22628578,-177.86938527,-7.31150368,-31.05635940
3.50100957,-9.91273193,2.00860398,0.53237121,0.29739206

>  <Name>
ligand

>  <RI>
0

>  <Rbt.Current_Directory>
/home/itssahil/PROJECTS/Mol_Feturizer/New_Systems/rnas/4XWF

>  <Rbt.Executable>
rbdock ($Id: //depot/dev/client3/rdock/2013.1/src/exe/rbdock.cxx#4 $)

>  <Rbt.Library>
libRbt.so (2013.1, Build901 2013/11/27)

>  <Rbt.Parameter_File>
/export/apps/rDock/src/rDock_2013.1_src/data/scripts/dock_solv.prm

>  <Rbt.Receptor>
prm/pocket_docking_6.prm

>  <SCORE>
-8.01154

>  <SCORE.INTER>
-8.28465

>  <SCORE.INTER.CONST>
1

>  <SCORE.INTER.POLAR>
0

>  <SCORE.INTER.ROT>
5

>  <SCORE.INTER.SOLV>
14.0107

>  <SCORE.INTER.VDW>
-17.1267

>  <SCORE.INTER.norm>
-0.376575

>  <SCORE.INTRA>
0.273115

>  <SCORE.INTRA.DIHEDRAL>
0.117858

>  <SCORE.INTRA.DIHEDRAL.0>
3.49807

>  <SCORE.INTRA.POLAR>
0

>  <SCORE.INTRA.POLAR.0>
0

>  <SCORE.INTRA.REPUL>
0

>  <SCORE.INTRA.REPUL.0>
0

>  <SCORE.INTRA.SOLV>
0.490162

>  <SCORE.INTRA.SOLV.lig_0>
-73.062

>  <SCORE.INTRA.VDW>
-0.0308945

>  <SCORE.INTRA.VDW.0>
-1.83782

>  <SCORE.INTRA.norm>
0.0124143

>  <SCORE.RESTR>
0

>  <SCORE.RESTR.CAVITY>
0

>  <SCORE.RESTR.norm>
0

>  <SCORE.SYSTEM>
0

>  <SCORE.SYSTEM.CONST>
0

>  <SCORE.SYSTEM.DIHEDRAL>
0

>  <SCORE.SYSTEM.SOLV>
0

>  <SCORE.SYSTEM.norm>
0

>  <SCORE.heavy>
22

>  <SCORE.norm>
-0.364161

>  <RMSD>
6.590

$$$$
ligand
 OpenBabel11021811513D
libRbt.so/2013.1/901 2013/11/27
 22 23  0  0  0  0  0  0  0  0999 V2000
  -31.7260    4.8047   -8.5595 N   0  0  0  0  0  0  0  0  0  0  0  0
  -31.0740    1.6384   -9.5605 C   0  0  1  0  0  0  0  0  0  0  0  0
  -30.9276    2.6414   -8.5152 O   0  0  0  0  0  0  0  0  0  0  0  0
  -28.8407    0.7362  -12.4857 P   0  0  1  0  0  0  0  0  0  0  0  0
  -32.0968    3.4762   -8.5328 C   0  0  2  0  0  0  0  0  0  0  0  0
  -30.6520    6.6267   -9.0473 N   0  0  0  0  0  0  0  0  0  0  0  0
  -34.1377    3.5012   -9.7697 O   0  0  0  0  0  0  0  0  0  0  0  0
  -32.7399    3.1951   -9.8359 C   0  0  2  0  0  0  0  0  0  0  0  0
  -33.3147    8.8053   -8.0145 N   0  0  0  0  0  0  0  0  0  0  0  0
  -33.2941    0.9677   -9.2204 O   0  0  0  0  0  0  0  0  0  0  0  0
  -32.4589    1.7824  -10.0601 C   0  0  2  0  0  0  0  0  0  0  0  0
  -31.6864    6.9493   -8.2557 C   0  0  0  0  0  0  0  0  0  0  0  0
  -33.5361    5.7128   -7.1543 N   0  0  0  0  0  0  0  0  0  0  0  0
  -29.8619    0.7643  -11.2962 O   0  0  0  0  0  0  0  0  0  0  0  0
  -30.0754    1.9597  -10.6186 C   0  0  0  0  0  0  0  0  0  0  0  0
  -28.5224   -0.7943  -12.6495 O   0  0  0  0  0  0  0  0  0  0  0  0
  -30.6755    5.2926   -9.2295 C   0  0  0  0  0  0  0  0  0  0  0  0
  -31.1849    9.0092   -7.2345 O   0  0  0  0  0  0  0  0  0  0  0  0
  -32.0272    8.3080   -7.7950 C   0  0  0  0  0  0  0  0  0  0  0  0
  -32.3693    5.8075   -7.9468 C   0  0  0  0  0  0  0  0  0  0  0  0
  -29.4527    1.3743  -13.6883 O   0  5  0  0  0  0  0  0  0  0  0  0
  -27.7044    1.6367  -12.2201 O   0  0  0  0  0  0  0  0  0  0  0  0
  1 17  1  0  0  0  0
  1 20  1  0  0  0  0
  2 15  1  6  0  0  0
  2  3  1  0  0  0  0
  2 11  1  0  0  0  0
  3  5  1  0  0  0  0
  4 16  1  6  0  0  0
  4 21  1  0  0  0  0
  4 22  2  0  0  0  0
  4 14  1  0  0  0  0
  5  1  1  6  0  0  0
  5  8  1  0  0  0  0
  6 17  2  0  0  0  0
  6 12  1  0  0  0  0
  8  7  1  1  0  0  0
  8 11  1  0  0  0  0
  9 19  1  0  0  0  0
 11 10  1  1  0  0  0
 12 20  2  0  0  0  0
 12 19  1  0  0  0  0
 13 20  1  0  0  0  0
 14 15  1  0  0  0  0
 18 19  2  0  0  0  0
M  CHG  1  21  -1
M  END
>  <CHROM.1>
36.99043674,157.05074067,161.66291912,-179.47461738,126.04256495,-31.11174147
3.54655332,-9.84946940,2.00240948,0.51741024,0.35308921

>  <Name>
ligand

>  <RI>
0

>  <Rbt.Current_Directory>
/home/itssahil/PROJECTS/Mol_Feturizer/New_Systems/rnas/4XWF

>  <Rbt.Executable>
rbdock ($Id: //depot/dev/client3/rdock/2013.1/src/exe/rbdock.cxx#4 $)

>  <Rbt.Library>
libRbt.so (2013.1, Build901 2013/11/27)

>  <Rbt.Parameter_File>
/export/apps/rDock/src/rDock_2013.1_src/data/scripts/dock_solv.prm

>  <Rbt.Receptor>
prm/pocket_docking_6.prm

>  <SCORE>
-7.87555

>  <SCORE.INTER>
-7.97713

>  <SCORE.INTER.CONST>
1

>  <SCORE.INTER.POLAR>
0

>  <SCORE.INTER.ROT>
5

>  <SCORE.INTER.SOLV>
13.8001

>  <SCORE.INTER.VDW>
-16.8514

>  <SCORE.INTER.norm>
-0.362597

>  <SCORE.INTRA>
0.101584

>  <SCORE.INTRA.DIHEDRAL>
0.220335

>  <SCORE.INTRA.DIHEDRAL.0>
3.49807

>  <SCORE.INTRA.POLAR>
0

>  <SCORE.INTRA.POLAR.0>
0

>  <SCORE.INTRA.REPUL>
0

>  <SCORE.INTRA.REPUL.0>
0

>  <SCORE.INTRA.SOLV>
0.456709

>  <SCORE.INTRA.SOLV.lig_0>
-73.062

>  <SCORE.INTRA.VDW>
-0.236938

>  <SCORE.INTRA.VDW.0>
-1.83782

>  <SCORE.INTRA.norm>
0.00461745

>  <SCORE.RESTR>
0

>  <SCORE.RESTR.CAVITY>
0

>  <SCORE.RESTR.norm>
0

>  <SCORE.SYSTEM>
0

>  <SCORE.SYSTEM.CONST>
0

>  <SCORE.SYSTEM.DIHEDRAL>
0

>  <SCORE.SYSTEM.SOLV>
0

>  <SCORE.SYSTEM.norm>
0

>  <SCORE.heavy>
22

>  <SCORE.norm>
-0.357979

>  <RMSD>
6.592

$$$$
ligand
 OpenBabel11021811513D
libRbt.so/2013.1/901 2013/11/27
 22 23  0  0  0  0  0  0  0  0999 V2000
  -28.4249    2.9185  -13.5501 N   0  0  0  0  0  0  0  0  0  0  0  0
  -29.9125    0.5528  -11.6414 C   0  0  1  0  0  0  0  0  0  0  0  0
  -29.9882    1.3796  -12.8375 O   0  0  0  0  0  0  0  0  0  0  0  0
  -32.3380    2.6440   -9.6168 P   0  0  1  0  0  0  0  0  0  0  0  0
  -28.6520    1.5760  -13.3278 C   0  0  2  0  0  0  0  0  0  0  0  0
  -28.0767    5.0295  -13.1849 N   0  0  0  0  0  0  0  0  0  0  0  0
  -26.4865    0.8009  -12.6906 O   0  0  0  0  0  0  0  0  0  0  0  0
  -27.7765    1.1848  -12.2003 C   0  0  2  0  0  0  0  0  0  0  0  0
  -28.7194    6.0715  -16.5314 N   0  0  0  0  0  0  0  0  0  0  0  0
  -28.4077   -1.1017  -12.3434 O   0  0  0  0  0  0  0  0  0  0  0  0
  -28.5071    0.0987  -11.5588 C   0  0  2  0  0  0  0  0  0  0  0  0
  -28.0182    4.8181  -14.5087 C   0  0  0  0  0  0  0  0  0  0  0  0
  -28.2317    2.8497  -16.0065 N   0  0  0  0  0  0  0  0  0  0  0  0
  -31.6053    1.7692  -10.6922 O   0  0  0  0  0  0  0  0  0  0  0  0
  -30.2751    1.4204  -10.4856 C   0  0  0  0  0  0  0  0  0  0  0  0
  -33.8088    2.7289  -10.1646 O   0  0  0  0  0  0  0  0  0  0  0  0
  -28.3356    3.8484  -12.5921 C   0  0  0  0  0  0  0  0  0  0  0  0
  -26.7198    6.4953  -15.5277 O   0  0  0  0  0  0  0  0  0  0  0  0
  -27.7660    5.8469  -15.5347 C   0  0  0  0  0  0  0  0  0  0  0  0
  -28.2334    3.4905  -14.7463 C   0  0  0  0  0  0  0  0  0  0  0  0
  -32.2121    2.0012   -8.2756 O   0  5  0  0  0  0  0  0  0  0  0  0
  -31.6237    3.9154   -9.4027 O   0  0  0  0  0  0  0  0  0  0  0  0
  1 17  1  0  0  0  0
  1 20  1  0  0  0  0
  2 15  1  1  0  0  0
  2  3  1  0  0  0  0
  2 11  1  0  0  0  0
  3  5  1  0  0  0  0
  4 16  1  6  0  0  0
  4 21  1  0  0  0  0
  4 22  2  0  0  0  0
  4 14  1  0  0  0  0
  5  1  1  1  0  0  0
  5  8  1  0  0  0  0
  6 17  2  0  0  0  0
  6 12  1  0  0  0  0
  8  7  1  6  0  0  0
  8 11  1  0  0  0  0
  9 19  1  0  0  0  0
 11 10  1  6  0  0  0
 12 20  2  0  0  0  0
 12 19  1  0  0  0  0
 13 20  1  0  0  0  0
 14 15  1  0  0  0  0
 18 19  2  0  0  0  0
M  CHG  1  21  -1
M  END
>  <CHROM.1>
68.52407641,64.86844908,-176.35355975,177.46615448,-120.75171151,-29.51170839
2.69361179,-12.36443829,-0.69945901,-0.71770644,2.69261232

>  <Name>
ligand

>  <RI>
0

>  <Rbt.Current_Directory>
/home/itssahil/PROJECTS/Mol_Feturizer/New_Systems/rnas/4XWF

>  <Rbt.Executable>
rbdock ($Id: //depot/dev/client3/rdock/2013.1/src/exe/rbdock.cxx#4 $)

>  <Rbt.Library>
libRbt.so (2013.1, Build901 2013/11/27)

>  <Rbt.Parameter_File>
/export/apps/rDock/src/rDock_2013.1_src/data/scripts/dock_solv.prm

>  <Rbt.Receptor>
prm/pocket_docking_4.prm

>  <SCORE>
-7.53547

>  <SCORE.INTER>
-6.73724

>  <SCORE.INTER.CONST>
1

>  <SCORE.INTER.POLAR>
0

>  <SCORE.INTER.ROT>
5

>  <SCORE.INTER.SOLV>
11.8199

>  <SCORE.INTER.VDW>
-15.3648

>  <SCORE.INTER.norm>
-0.306238

>  <SCORE.INTRA>
-0.800271

>  <SCORE.INTRA.DIHEDRAL>
-1.82821

>  <SCORE.INTRA.DIHEDRAL.0>
3.49807

>  <SCORE.INTRA.POLAR>
0

>  <SCORE.INTRA.POLAR.0>
0

>  <SCORE.INTRA.REPUL>
0

>  <SCORE.INTRA.REPUL.0>
0

>  <SCORE.INTRA.SOLV>
-0.363366

>  <SCORE.INTRA.SOLV.lig_0>
-73.062

>  <SCORE.INTRA.VDW>
0.295514

>  <SCORE.INTRA.VDW.0>
-1.83782

>  <SCORE.INTRA.norm>
-0.036376

>  <SCORE.RESTR>
0.0020385

>  <SCORE.RESTR.CAVITY>
0.0020385

>  <SCORE.RESTR.norm>
9.26593e-05

>  <SCORE.SYSTEM>
0

>  <SCORE.SYSTEM.CONST>
0

>  <SCORE.SYSTEM.DIHEDRAL>
0

>  <SCORE.SYSTEM.SOLV>
0

>  <SCORE.SYSTEM.norm>
0

>  <SCORE.heavy>
22

>  <SCORE.norm>
-0.342522

>  <RMSD>
6.594

$$$$
ligand
 OpenBabel11021811513D
libRbt.so/2013.1/901 2013/11/27
 22 23  0  0  0  0  0  0  0  0999 V2000
  -29.4343    3.7235  -10.0241 N   0  0  0  0  0  0  0  0  0  0  0  0
  -31.2762    0.9861  -10.7767 C   0  0  1  0  0  0  0  0  0  0  0  0
  -30.5028    2.1118  -11.2813 O   0  0  0  0  0  0  0  0  0  0  0  0
  -33.5228    3.3537   -8.8544 P   0  0  1  0  0  0  0  0  0  0  0  0
  -29.4473    2.3817  -10.3446 C   0  0  2  0  0  0  0  0  0  0  0  0
  -30.0958    5.6833   -9.3665 N   0  0  0  0  0  0  0  0  0  0  0  0
  -28.6870    1.3758   -8.3183 O   0  0  0  0  0  0  0  0  0  0  0  0
  -29.8435    1.6615   -9.1137 C   0  0  2  0  0  0  0  0  0  0  0  0
  -26.8725    6.9552   -8.6054 N   0  0  0  0  0  0  0  0  0  0  0  0
  -29.5600   -0.4708  -10.1236 O   0  0  0  0  0  0  0  0  0  0  0  0
  -30.5193    0.4710   -9.6148 C   0  0  2  0  0  0  0  0  0  0  0  0
  -28.7828    5.7524   -9.6342 C   0  0  0  0  0  0  0  0  0  0  0  0
  -27.0384    4.1617  -10.4025 N   0  0  0  0  0  0  0  0  0  0  0  0
  -32.3329    2.6063   -9.5503 O   0  0  0  0  0  0  0  0  0  0  0  0
  -32.6076    1.5168  -10.3696 C   0  0  0  0  0  0  0  0  0  0  0  0
  -34.5309    3.6009  -10.0348 O   0  0  0  0  0  0  0  0  0  0  0  0
  -30.4994    4.4229   -9.6155 C   0  0  0  0  0  0  0  0  0  0  0  0
  -28.1790    7.9613  -10.1760 O   0  0  0  0  0  0  0  0  0  0  0  0
  -27.9401    6.9559   -9.5072 C   0  0  0  0  0  0  0  0  0  0  0  0
  -28.3583    4.5213  -10.0460 C   0  0  0  0  0  0  0  0  0  0  0  0
  -34.0622    2.5150   -7.7439 O   0  5  0  0  0  0  0  0  0  0  0  0
  -33.0390    4.5376   -8.1216 O   0  0  0  0  0  0  0  0  0  0  0  0
  1 17  1  0  0  0  0
  1 20  1  0  0  0  0
  2 15  1  1  0  0  0
  2  3  1  0  0  0  0
  2 11  1  0  0  0  0
  3  5  1  0  0  0  0
  4 16  1  6  0  0  0
  4 21  1  0  0  0  0
  4 22  2  0  0  0  0
  4 14  1  0  0  0  0
  5  1  1  1  0  0  0
  5  8  1  0  0  0  0
  6 17  2  0  0  0  0
  6 12  1  0  0  0  0
  8  7  1  6  0  0  0
  8 11  1  0  0  0  0
  9 19  1  0  0  0  0
 11 10  1  6  0  0  0
 12 20  2  0  0  0  0
 12 19  1  0  0  0  0
 13 20  1  0  0  0  0
 14 15  1  0  0  0  0
 18 19  2  0  0  0  0
M  CHG  1  21  -1
M  END
>  <CHROM.1>
51.26433232,-50.70198676,-49.16456804,-175.78223000,117.98274542,-30.57476168
3.43951794,-9.56412900,-0.68151947,-0.16571356,-3.00817445

>  <Name>
ligand

>  <RI>
0

>  <Rbt.Current_Directory>
/home/itssahil/PROJECTS/Mol_Feturizer/New_Systems/rnas/4XWF

>  <Rbt.Executable>
rbdock ($Id: //depot/dev/client3/rdock/2013.1/src/exe/rbdock.cxx#4 $)

>  <Rbt.Library>
libRbt.so (2013.1, Build901 2013/11/27)

>  <Rbt.Parameter_File>
/export/apps/rDock/src/rDock_2013.1_src/data/scripts/dock_solv.prm

>  <Rbt.Receptor>
prm/pocket_docking_6.prm

>  <SCORE>
-7.63913

>  <SCORE.INTER>
-8.35393

>  <SCORE.INTER.CONST>
1

>  <SCORE.INTER.POLAR>
0

>  <SCORE.INTER.ROT>
5

>  <SCORE.INTER.SOLV>
12.4391

>  <SCORE.INTER.VDW>
-16.649

>  <SCORE.INTER.norm>
-0.379724

>  <SCORE.INTRA>
0.7148

>  <SCORE.INTRA.DIHEDRAL>
-1.44776

>  <SCORE.INTRA.DIHEDRAL.0>
3.49807

>  <SCORE.INTRA.POLAR>
0

>  <SCORE.INTRA.POLAR.0>
0

>  <SCORE.INTRA.REPUL>
0

>  <SCORE.INTRA.REPUL.0>
0

>  <SCORE.INTRA.SOLV>
1.31377

>  <SCORE.INTRA.SOLV.lig_0>
-73.062

>  <SCORE.INTRA.VDW>
0.78179

>  <SCORE.INTRA.VDW.0>
-1.83782

>  <SCORE.INTRA.norm>
0.0324909

>  <SCORE.RESTR>
0

>  <SCORE.RESTR.CAVITY>
0

>  <SCORE.RESTR.norm>
0

>  <SCORE.SYSTEM>
0

>  <SCORE.SYSTEM.CONST>
0

>  <SCORE.SYSTEM.DIHEDRAL>
0

>  <SCORE.SYSTEM.SOLV>
0

>  <SCORE.SYSTEM.norm>
0

>  <SCORE.heavy>
22

>  <SCORE.norm>
-0.347233

>  <RMSD>
6.594

$$$$
ligand
 OpenBabel11021811513D
libRbt.so/2013.1/901 2013/11/27
 22 23  0  0  0  0  0  0  0  0999 V2000
  -29.4274    3.7265  -10.0305 N   0  0  0  0  0  0  0  0  0  0  0  0
  -31.2632    0.9786  -10.7597 C   0  0  1  0  0  0  0  0  0  0  0  0
  -30.4936    2.1025  -11.2738 O   0  0  0  0  0  0  0  0  0  0  0  0
  -33.5145    3.3581   -8.8567 P   0  0  1  0  0  0  0  0  0  0  0  0
  -29.4373    2.3823  -10.3409 C   0  0  2  0  0  0  0  0  0  0  0  0
  -30.0982    5.6939   -9.4057 N   0  0  0  0  0  0  0  0  0  0  0  0
  -28.6713    1.3936   -8.3082 O   0  0  0  0  0  0  0  0  0  0  0  0
  -29.8298    1.6703   -9.1040 C   0  0  2  0  0  0  0  0  0  0  0  0
  -27.2621    7.4587  -10.6168 N   0  0  0  0  0  0  0  0  0  0  0  0
  -29.5422   -0.4688  -10.0983 O   0  0  0  0  0  0  0  0  0  0  0  0
  -30.5032    0.4743   -9.5951 C   0  0  2  0  0  0  0  0  0  0  0  0
  -28.7782    5.7558   -9.6391 C   0  0  0  0  0  0  0  0  0  0  0  0
  -27.0205    4.1525  -10.3486 N   0  0  0  0  0  0  0  0  0  0  0  0
  -32.3223    2.6004   -9.5373 O   0  0  0  0  0  0  0  0  0  0  0  0
  -32.5954    1.5089  -10.3545 C   0  0  0  0  0  0  0  0  0  0  0  0
  -34.5003    3.6235  -10.0518 O   0  0  0  0  0  0  0  0  0  0  0  0
  -30.5001    4.4331   -9.6556 C   0  0  0  0  0  0  0  0  0  0  0  0
  -27.8071    7.5092   -8.4063 O   0  0  0  0  0  0  0  0  0  0  0  0
  -27.9344    6.9570   -9.4990 C   0  0  0  0  0  0  0  0  0  0  0  0
  -28.3480    4.5199  -10.0299 C   0  0  0  0  0  0  0  0  0  0  0  0
  -34.0817    2.5198   -7.7597 O   0  5  0  0  0  0  0  0  0  0  0  0
  -33.0288    4.5322   -8.1096 O   0  0  0  0  0  0  0  0  0  0  0  0
  1 17  1  0  0  0  0
  1 20  1  0  0  0  0
  2 15  1  1  0  0  0
  2  3  1  0  0  0  0
  2 11  1  0  0  0  0
  3  5  1  0  0  0  0
  4 16  1  6  0  0  0
  4 21  1  0  0  0  0
  4 22  2  0  0  0  0
  4 14  1  0  0  0  0
  5  1  1  1  0  0  0
  5  8  1  0  0  0  0
  6 17  2  0  0  0  0
  6 12  1  0  0  0  0
  8  7  1  6  0  0  0
  8 11  1  0  0  0  0
  9 19  1  0  0  0  0
 11 10  1  6  0  0  0
 12 20  2  0  0  0  0
 12 19  1  0  0  0  0
 13 20  1  0  0  0  0
 14 15  1  0  0  0  0
 18 19  2  0  0  0  0
M  CHG  1  21  -1
M  END
>  <CHROM.1>
49.61498736,-51.04874965,-49.91073190,-176.46589159,-118.90944517,-30.56457322
3.44120798,-9.55997532,-0.67582286,-0.18803850,-2.98848627

>  <Name>
ligand

>  <RI>
0

>  <Rbt.Current_Directory>
/home/itssahil/PROJECTS/Mol_Feturizer/New_Systems/rnas/4XWF

>  <Rbt.Executable>
rbdock ($Id: //depot/dev/client3/rdock/2013.1/src/exe/rbdock.cxx#4 $)

>  <Rbt.Library>
libRbt.so (2013.1, Build901 2013/11/27)

>  <Rbt.Parameter_File>
/export/apps/rDock/src/rDock_2013.1_src/data/scripts/dock_solv.prm

>  <Rbt.Receptor>
prm/pocket_docking_4.prm

>  <SCORE>
-7.59485

>  <SCORE.INTER>
-8.22325

>  <SCORE.INTER.CONST>
1

>  <SCORE.INTER.POLAR>
0

>  <SCORE.INTER.ROT>
5

>  <SCORE.INTER.SOLV>
12.4425

>  <SCORE.INTER.VDW>
-16.563

>  <SCORE.INTER.norm>
-0.373784

>  <SCORE.INTRA>
0.628404

>  <SCORE.INTRA.DIHEDRAL>
-1.52022

>  <SCORE.INTRA.DIHEDRAL.0>
3.49807

>  <SCORE.INTRA.POLAR>
0

>  <SCORE.INTRA.POLAR.0>
0

>  <SCORE.INTRA.REPUL>
0

>  <SCORE.INTRA.REPUL.0>
0

>  <SCORE.INTRA.SOLV>
1.35329

>  <SCORE.INTRA.SOLV.lig_0>
-73.062

>  <SCORE.INTRA.VDW>
0.711866

>  <SCORE.INTRA.VDW.0>
-1.83782

>  <SCORE.INTRA.norm>
0.0285638

>  <SCORE.RESTR>
0

>  <SCORE.RESTR.CAVITY>
0

>  <SCORE.RESTR.norm>
0

>  <SCORE.SYSTEM>
0

>  <SCORE.SYSTEM.CONST>
0

>  <SCORE.SYSTEM.DIHEDRAL>
0

>  <SCORE.SYSTEM.SOLV>
0

>  <SCORE.SYSTEM.norm>
0

>  <SCORE.heavy>
22

>  <SCORE.norm>
-0.34522

>  <RMSD>
6.595

$$$$
ligand
 OpenBabel11021811513D
libRbt.so/2013.1/901 2013/11/27
 22 23  0  0  0  0  0  0  0  0999 V2000
  -28.3245    2.8375  -13.6929 N   0  0  0  0  0  0  0  0  0  0  0  0
  -29.6356    0.2841  -11.9002 C   0  0  1  0  0  0  0  0  0  0  0  0
  -29.7986    1.1941  -13.0250 O   0  0  0  0  0  0  0  0  0  0  0  0
  -31.9782    2.2771   -9.6867 P   0  0  1  0  0  0  0  0  0  0  0  0
  -28.4960    1.4748  -13.5625 C   0  0  2  0  0  0  0  0  0  0  0  0
  -28.0691    4.9322  -13.1849 N   0  0  0  0  0  0  0  0  0  0  0  0
  -26.2769    0.7340  -13.0905 O   0  0  0  0  0  0  0  0  0  0  0  0
  -27.5523    1.0332  -12.5112 C   0  0  2  0  0  0  0  0  0  0  0  0
  -28.7233    6.1585  -16.4702 N   0  0  0  0  0  0  0  0  0  0  0  0
  -28.1149   -1.2578  -12.7970 O   0  0  0  0  0  0  0  0  0  0  0  0
  -28.2137   -0.1234  -11.9197 C   0  0  2  0  0  0  0  0  0  0  0  0
  -27.9916    4.8122  -14.5192 C   0  0  0  0  0  0  0  0  0  0  0  0
  -28.1099    2.9408  -16.1463 N   0  0  0  0  0  0  0  0  0  0  0  0
  -31.2930    1.4402  -10.8220 O   0  0  0  0  0  0  0  0  0  0  0  0
  -29.9675    1.0498  -10.6658 C   0  0  0  0  0  0  0  0  0  0  0  0
  -33.4325    2.5057  -10.2372 O   0  0  0  0  0  0  0  0  0  0  0  0
  -28.2821    3.7043  -12.6745 C   0  0  0  0  0  0  0  0  0  0  0  0
  -26.7637    6.6142  -15.4035 O   0  0  0  0  0  0  0  0  0  0  0  0
  -27.7756    5.9167  -15.4720 C   0  0  0  0  0  0  0  0  0  0  0  0
  -28.1485    3.4955  -14.8465 C   0  0  0  0  0  0  0  0  0  0  0  0
  -31.9138    1.5245   -8.3993 O   0  5  0  0  0  0  0  0  0  0  0  0
  -31.1816    3.4755   -9.3678 O   0  0  0  0  0  0  0  0  0  0  0  0
  1 17  1  0  0  0  0
  1 20  1  0  0  0  0
  2 15  1  1  0  0  0
  2  3  1  0  0  0  0
  2 11  1  0  0  0  0
  3  5  1  0  0  0  0
  4 16  1  6  0  0  0
  4 21  1  0  0  0  0
  4 22  2  0  0  0  0
  4 14  1  0  0  0  0
  5  1  1  1  0  0  0
  5  8  1  0  0  0  0
  6 17  2  0  0  0  0
  6 12  1  0  0  0  0
  8  7  1  6  0  0  0
  8 11  1  0  0  0  0
  9 19  1  0  0  0  0
 11 10  1  6  0  0  0
 12 20  2  0  0  0  0
 12 19  1  0  0  0  0
 13 20  1  0  0  0  0
 14 15  1  0  0  0  0
 18 19  2  0  0  0  0
M  CHG  1  21  -1
M  END
>  <CHROM.1>
65.11908666,61.04245822,-179.94509972,179.90069170,-121.41362888,-29.31090412
2.52564315,-12.49768359,-0.74526984,-0.75403038,2.73588609

>  <Name>
ligand

>  <RI>
0

>  <Rbt.Current_Directory>
/home/itssahil/PROJECTS/Mol_Feturizer/New_Systems/rnas/4XWF

>  <Rbt.Executable>
rbdock ($Id: //depot/dev/client3/rdock/2013.1/src/exe/rbdock.cxx#4 $)

>  <Rbt.Library>
libRbt.so (2013.1, Build901 2013/11/27)

>  <Rbt.Parameter_File>
/export/apps/rDock/src/rDock_2013.1_src/data/scripts/dock_solv.prm

>  <Rbt.Receptor>
prm/pocket_docking_5.prm

>  <SCORE>
-7.65689

>  <SCORE.INTER>
-6.66447

>  <SCORE.INTER.CONST>
1

>  <SCORE.INTER.POLAR>
0

>  <SCORE.INTER.ROT>
5

>  <SCORE.INTER.SOLV>
10.2457

>  <SCORE.INTER.VDW>
-14.7915

>  <SCORE.INTER.norm>
-0.30293

>  <SCORE.INTRA>
-0.99242

>  <SCORE.INTRA.DIHEDRAL>
-1.95853

>  <SCORE.INTRA.DIHEDRAL.0>
3.49807

>  <SCORE.INTRA.POLAR>
0

>  <SCORE.INTRA.POLAR.0>
0

>  <SCORE.INTRA.REPUL>
0

>  <SCORE.INTRA.REPUL.0>
0

>  <SCORE.INTRA.SOLV>
-0.265881

>  <SCORE.INTRA.SOLV.lig_0>
-73.062

>  <SCORE.INTRA.VDW>
0.119785

>  <SCORE.INTRA.VDW.0>
-1.83782

>  <SCORE.INTRA.norm>
-0.04511

>  <SCORE.RESTR>
0

>  <SCORE.RESTR.CAVITY>
0

>  <SCORE.RESTR.norm>
0

>  <SCORE.SYSTEM>
0

>  <SCORE.SYSTEM.CONST>
0

>  <SCORE.SYSTEM.DIHEDRAL>
0

>  <SCORE.SYSTEM.SOLV>
0

>  <SCORE.SYSTEM.norm>
0

>  <SCORE.heavy>
22

>  <SCORE.norm>
-0.34804

>  <RMSD>
6.599

$$$$
ligand
 OpenBabel11021811513D
libRbt.so/2013.1/901 2013/11/27
 22 23  0  0  0  0  0  0  0  0999 V2000
  -28.3358    2.8508  -13.6886 N   0  0  0  0  0  0  0  0  0  0  0  0
  -29.7642    0.3862  -11.8615 C   0  0  1  0  0  0  0  0  0  0  0  0
  -29.8631    1.2544  -13.0262 O   0  0  0  0  0  0  0  0  0  0  0  0
  -32.1734    2.4917   -9.8313 P   0  0  1  0  0  0  0  0  0  0  0  0
  -28.5337    1.4966  -13.5146 C   0  0  2  0  0  0  0  0  0  0  0  0
  -28.0644    4.9588  -13.2487 N   0  0  0  0  0  0  0  0  0  0  0  0
  -26.3494    0.7445  -12.9154 O   0  0  0  0  0  0  0  0  0  0  0  0
  -27.6446    1.0830  -12.4059 C   0  0  2  0  0  0  0  0  0  0  0  0
  -28.6414    6.1552  -16.5229 N   0  0  0  0  0  0  0  0  0  0  0  0
  -28.2287   -1.2095  -12.6300 O   0  0  0  0  0  0  0  0  0  0  0  0
  -28.3492   -0.0410  -11.8015 C   0  0  2  0  0  0  0  0  0  0  0  0
  -27.9428    4.7883  -14.5742 C   0  0  0  0  0  0  0  0  0  0  0  0
  -28.0349    2.8599  -16.1351 N   0  0  0  0  0  0  0  0  0  0  0  0
  -31.4536    1.5966  -10.8987 O   0  0  0  0  0  0  0  0  0  0  0  0
  -30.1390    1.2032  -10.6732 C   0  0  0  0  0  0  0  0  0  0  0  0
  -31.4257    3.8687   -9.9546 O   0  0  0  0  0  0  0  0  0  0  0  0
  -28.3147    3.7540  -12.7016 C   0  0  0  0  0  0  0  0  0  0  0  0
  -26.6081    6.4653  -15.5456 O   0  0  0  0  0  0  0  0  0  0  0  0
  -27.6761    5.8535  -15.5585 C   0  0  0  0  0  0  0  0  0  0  0  0
  -28.1094    3.4629  -14.8585 C   0  0  0  0  0  0  0  0  0  0  0  0
  -33.6349    2.5510  -10.1287 O   0  5  0  0  0  0  0  0  0  0  0  0
  -32.1674    1.8369   -8.5108 O   0  0  0  0  0  0  0  0  0  0  0  0
  1 17  1  0  0  0  0
  1 20  1  0  0  0  0
  2 15  1  1  0  0  0
  2  3  1  0  0  0  0
  2 11  1  0  0  0  0
  3  5  1  0  0  0  0
  4 16  1  1  0  0  0
  4 21  1  0  0  0  0
  4 22  2  0  0  0  0
  4 14  1  0  0  0  0
  5  1  1  1  0  0  0
  5  8  1  0  0  0  0
  6 17  2  0  0  0  0
  6 12  1  0  0  0  0
  8  7  1  6  0  0  0
  8 11  1  0  0  0  0
  9 19  1  0  0  0  0
 11 10  1  6  0  0  0
 12 20  2  0  0  0  0
 12 19  1  0  0  0  0
 13 20  1  0  0  0  0
 14 15  1  0  0  0  0
 18 19  2  0  0  0  0
M  CHG  1  21  -1
M  END
>  <CHROM.1>
65.69759732,61.49220903,69.37338412,-179.66746421,-115.51546688,-29.38658595
2.60071340,-12.53297075,-0.70389304,-0.71286744,2.72511346

>  <Name>
ligand

>  <RI>
0

>  <Rbt.Current_Directory>
/home/itssahil/PROJECTS/Mol_Feturizer/New_Systems/rnas/4XWF

>  <Rbt.Executable>
rbdock ($Id: //depot/dev/client3/rdock/2013.1/src/exe/rbdock.cxx#4 $)

>  <Rbt.Library>
libRbt.so (2013.1, Build901 2013/11/27)

>  <Rbt.Parameter_File>
/export/apps/rDock/src/rDock_2013.1_src/data/scripts/dock_solv.prm

>  <Rbt.Receptor>
prm/pocket_docking_8.prm

>  <SCORE>
-7.7692

>  <SCORE.INTER>
-6.46259

>  <SCORE.INTER.CONST>
1

>  <SCORE.INTER.POLAR>
0

>  <SCORE.INTER.ROT>
5

>  <SCORE.INTER.SOLV>
14.0918

>  <SCORE.INTER.VDW>
-15.939

>  <SCORE.INTER.norm>
-0.293754

>  <SCORE.INTRA>
-1.30661

>  <SCORE.INTRA.DIHEDRAL>
-1.82289

>  <SCORE.INTRA.DIHEDRAL.0>
3.49807

>  <SCORE.INTRA.POLAR>
0

>  <SCORE.INTRA.POLAR.0>
0

>  <SCORE.INTRA.REPUL>
0

>  <SCORE.INTRA.REPUL.0>
0

>  <SCORE.INTRA.SOLV>
-0.933276

>  <SCORE.INTRA.SOLV.lig_0>
-73.062

>  <SCORE.INTRA.VDW>
0.0714704

>  <SCORE.INTRA.VDW.0>
-1.83782

>  <SCORE.INTRA.norm>
-0.0593914

>  <SCORE.RESTR>
0

>  <SCORE.RESTR.CAVITY>
0

>  <SCORE.RESTR.norm>
0

>  <SCORE.SYSTEM>
0

>  <SCORE.SYSTEM.CONST>
0

>  <SCORE.SYSTEM.DIHEDRAL>
0

>  <SCORE.SYSTEM.SOLV>
0

>  <SCORE.SYSTEM.norm>
0

>  <SCORE.heavy>
22

>  <SCORE.norm>
-0.353146

>  <RMSD>
6.605

$$$$
ligand
 OpenBabel11021811513D
libRbt.so/2013.1/901 2013/11/27
 22 23  0  0  0  0  0  0  0  0999 V2000
  -28.3390    2.8559  -13.7260 N   0  0  0  0  0  0  0  0  0  0  0  0
  -29.7507    0.4140  -11.8561 C   0  0  1  0  0  0  0  0  0  0  0  0
  -29.8579    1.2646  -13.0329 O   0  0  0  0  0  0  0  0  0  0  0  0
  -32.1816    2.4754   -9.8067 P   0  0  1  0  0  0  0  0  0  0  0  0
  -28.5317    1.5038  -13.5312 C   0  0  2  0  0  0  0  0  0  0  0  0
  -28.0505    4.9680  -13.3178 N   0  0  0  0  0  0  0  0  0  0  0  0
  -26.3421    0.7675  -12.9314 O   0  0  0  0  0  0  0  0  0  0  0  0
  -27.6360    1.1094  -12.4208 C   0  0  2  0  0  0  0  0  0  0  0  0
  -28.7605    6.1663  -16.5494 N   0  0  0  0  0  0  0  0  0  0  0  0
  -28.2137   -1.1880  -12.6083 O   0  0  0  0  0  0  0  0  0  0  0  0
  -28.3341   -0.0078  -11.7966 C   0  0  2  0  0  0  0  0  0  0  0  0
  -27.9759    4.7838  -14.6449 C   0  0  0  0  0  0  0  0  0  0  0  0
  -28.1245    2.8396  -16.1815 N   0  0  0  0  0  0  0  0  0  0  0  0
  -31.4580    1.5824  -10.8733 O   0  0  0  0  0  0  0  0  0  0  0  0
  -30.1226    1.2472  -10.6782 C   0  0  0  0  0  0  0  0  0  0  0  0
  -31.4186    3.8458   -9.9087 O   0  0  0  0  0  0  0  0  0  0  0  0
  -28.2823    3.7692  -12.7498 C   0  0  0  0  0  0  0  0  0  0  0  0
  -26.6594    6.4187  -15.7084 O   0  0  0  0  0  0  0  0  0  0  0  0
  -27.7433    5.8385  -15.6489 C   0  0  0  0  0  0  0  0  0  0  0  0
  -28.1535    3.4557  -14.9095 C   0  0  0  0  0  0  0  0  0  0  0  0
  -33.6387    2.5522  -10.1211 O   0  5  0  0  0  0  0  0  0  0  0  0
  -32.1982    1.8091   -8.4921 O   0  0  0  0  0  0  0  0  0  0  0  0
  1 17  1  0  0  0  0
  1 20  1  0  0  0  0
  2 15  1  1  0  0  0
  2  3  1  0  0  0  0
  2 11  1  0  0  0  0
  3  5  1  0  0  0  0
  4 16  1  1  0  0  0
  4 21  1  0  0  0  0
  4 22  2  0  0  0  0
  4 14  1  0  0  0  0
  5  1  1  1  0  0  0
  5  8  1  0  0  0  0
  6 17  2  0  0  0  0
  6 12  1  0  0  0  0
  8  7  1  6  0  0  0
  8 11  1  0  0  0  0
  9 19  1  0  0  0  0
 11 10  1  6  0  0  0
 12 20  2  0  0  0  0
 12 19  1  0  0  0  0
 13 20  1  0  0  0  0
 14 15  1  0  0  0  0
 18 19  2  0  0  0  0
M  CHG  1  21  -1
M  END
>  <CHROM.1>
67.48262894,64.12491567,65.16124445,-179.74053704,-113.10992435,-29.40033966
2.60190628,-12.55205840,-0.72250653,-0.71218283,2.69730961

>  <Name>
ligand

>  <RI>
0

>  <Rbt.Current_Directory>
/home/itssahil/PROJECTS/Mol_Feturizer/New_Systems/rnas/4XWF

>  <Rbt.Executable>
rbdock ($Id: //depot/dev/client3/rdock/2013.1/src/exe/rbdock.cxx#4 $)

>  <Rbt.Library>
libRbt.so (2013.1, Build901 2013/11/27)

>  <Rbt.Parameter_File>
/export/apps/rDock/src/rDock_2013.1_src/data/scripts/dock_solv.prm

>  <Rbt.Receptor>
prm/pocket_docking_6.prm

>  <SCORE>
-7.80013

>  <SCORE.INTER>
-6.55337

>  <SCORE.INTER.CONST>
1

>  <SCORE.INTER.POLAR>
0

>  <SCORE.INTER.ROT>
5

>  <SCORE.INTER.SOLV>
14.1927

>  <SCORE.INTER.VDW>
-16.0332

>  <SCORE.INTER.norm>
-0.297881

>  <SCORE.INTRA>
-1.24676

>  <SCORE.INTRA.DIHEDRAL>
-1.81047

>  <SCORE.INTRA.DIHEDRAL.0>
3.49807

>  <SCORE.INTRA.POLAR>
0

>  <SCORE.INTRA.POLAR.0>
0

>  <SCORE.INTRA.REPUL>
0

>  <SCORE.INTRA.REPUL.0>
0

>  <SCORE.INTRA.SOLV>
-1.02814

>  <SCORE.INTRA.SOLV.lig_0>
-73.062

>  <SCORE.INTRA.VDW>
0.172548

>  <SCORE.INTRA.VDW.0>
-1.83782

>  <SCORE.INTRA.norm>
-0.0566708

>  <SCORE.RESTR>
0

>  <SCORE.RESTR.CAVITY>
0

>  <SCORE.RESTR.norm>
0

>  <SCORE.SYSTEM>
0

>  <SCORE.SYSTEM.CONST>
0

>  <SCORE.SYSTEM.DIHEDRAL>
0

>  <SCORE.SYSTEM.SOLV>
0

>  <SCORE.SYSTEM.norm>
0

>  <SCORE.heavy>
22

>  <SCORE.norm>
-0.354551

>  <RMSD>
6.610

$$$$
ligand
 OpenBabel11021811513D
libRbt.so/2013.1/901 2013/11/27
 22 23  0  0  0  0  0  0  0  0999 V2000
  -28.1644    3.0890  -12.4126 N   0  0  0  0  0  0  0  0  0  0  0  0
  -30.0315    0.4120  -11.5180 C   0  0  1  0  0  0  0  0  0  0  0  0
  -29.8638    1.5298  -12.4358 O   0  0  0  0  0  0  0  0  0  0  0  0
  -32.6887    2.1974   -9.4906 P   0  0  1  0  0  0  0  0  0  0  0  0
  -28.4555    1.7550  -12.6099 C   0  0  2  0  0  0  0  0  0  0  0  0
  -27.9914    5.0338  -11.4646 N   0  0  0  0  0  0  0  0  0  0  0  0
  -26.4649    0.6887  -11.8377 O   0  0  0  0  0  0  0  0  0  0  0  0
  -27.8165    1.0182  -11.4966 C   0  0  2  0  0  0  0  0  0  0  0  0
  -26.7739    7.4971  -12.5330 N   0  0  0  0  0  0  0  0  0  0  0  0
  -28.4539   -1.0982  -12.3692 O   0  0  0  0  0  0  0  0  0  0  0  0
  -28.6761   -0.1452  -11.3163 C   0  0  2  0  0  0  0  0  0  0  0  0
  -27.4245    5.1076  -12.6786 C   0  0  0  0  0  0  0  0  0  0  0  0
  -27.0354    3.5331  -14.5582 N   0  0  0  0  0  0  0  0  0  0  0  0
  -31.8109    1.5275  -10.6038 O   0  0  0  0  0  0  0  0  0  0  0  0
  -30.5888    0.9650  -10.2517 C   0  0  0  0  0  0  0  0  0  0  0  0
  -33.0589    0.9925   -8.5517 O   0  0  0  0  0  0  0  0  0  0  0  0
  -28.4557    3.7799  -11.3043 C   0  0  0  0  0  0  0  0  0  0  0  0
  -26.3123    6.2707  -14.3954 O   0  0  0  0  0  0  0  0  0  0  0  0
  -26.7982    6.3069  -13.2650 C   0  0  0  0  0  0  0  0  0  0  0  0
  -27.5268    3.8858  -13.2804 C   0  0  0  0  0  0  0  0  0  0  0  0
  -31.9128    3.2856   -8.8260 O   0  5  0  0  0  0  0  0  0  0  0  0
  -33.8037    2.9534  -10.0890 O   0  0  0  0  0  0  0  0  0  0  0  0
  1 17  1  0  0  0  0
  1 20  1  0  0  0  0
  2 15  1  1  0  0  0
  2  3  1  0  0  0  0
  2 11  1  0  0  0  0
  3  5  1  0  0  0  0
  4 16  1  1  0  0  0
  4 21  1  0  0  0  0
  4 22  2  0  0  0  0
  4 14  1  0  0  0  0
  5  1  1  1  0  0  0
  5  8  1  0  0  0  0
  6 17  2  0  0  0  0
  6 12  1  0  0  0  0
  8  7  1  6  0  0  0
  8 11  1  0  0  0  0
  9 19  1  0  0  0  0
 11 10  1  6  0  0  0
 12 20  2  0  0  0  0
 12 19  1  0  0  0  0
 13 20  1  0  0  0  0
 14 15  1  0  0  0  0
 18 19  2  0  0  0  0
M  CHG  1  21  -1
M  END
>  <CHROM.1>
56.29587493,61.04551574,-64.60318071,179.34508375,-0.32510079,-29.37680326
2.66451869,-11.53105228,-0.51277551,-0.56683116,3.10705908

>  <Name>
ligand

>  <RI>
0

>  <Rbt.Current_Directory>
/home/itssahil/PROJECTS/Mol_Feturizer/New_Systems/rnas/4XWF

>  <Rbt.Executable>
rbdock ($Id: //depot/dev/client3/rdock/2013.1/src/exe/rbdock.cxx#4 $)

>  <Rbt.Library>
libRbt.so (2013.1, Build901 2013/11/27)

>  <Rbt.Parameter_File>
/export/apps/rDock/src/rDock_2013.1_src/data/scripts/dock_solv.prm

>  <Rbt.Receptor>
prm/pocket_docking_5.prm

>  <SCORE>
-5.3574

>  <SCORE.INTER>
-4.02502

>  <SCORE.INTER.CONST>
1

>  <SCORE.INTER.POLAR>
0

>  <SCORE.INTER.ROT>
5

>  <SCORE.INTER.SOLV>
14.6783

>  <SCORE.INTER.VDW>
-14.5095

>  <SCORE.INTER.norm>
-0.182955

>  <SCORE.INTRA>
-1.33238

>  <SCORE.INTRA.DIHEDRAL>
-1.9242

>  <SCORE.INTRA.DIHEDRAL.0>
3.49807

>  <SCORE.INTRA.POLAR>
0

>  <SCORE.INTRA.POLAR.0>
0

>  <SCORE.INTRA.REPUL>
0

>  <SCORE.INTRA.REPUL.0>
0

>  <SCORE.INTRA.SOLV>
-0.758385

>  <SCORE.INTRA.SOLV.lig_0>
-73.062

>  <SCORE.INTRA.VDW>
0.00891517

>  <SCORE.INTRA.VDW.0>
-1.83782

>  <SCORE.INTRA.norm>
-0.0605627

>  <SCORE.RESTR>
0

>  <SCORE.RESTR.CAVITY>
0

>  <SCORE.RESTR.norm>
0

>  <SCORE.SYSTEM>
0

>  <SCORE.SYSTEM.CONST>
0

>  <SCORE.SYSTEM.DIHEDRAL>
0

>  <SCORE.SYSTEM.SOLV>
0

>  <SCORE.SYSTEM.norm>
0

>  <SCORE.heavy>
22

>  <SCORE.norm>
-0.243518

>  <RMSD>
6.611

$$$$
ligand
 OpenBabel11021811513D
libRbt.so/2013.1/901 2013/11/27
 22 23  0  0  0  0  0  0  0  0999 V2000
  -28.3862    2.8384  -13.6783 N   0  0  0  0  0  0  0  0  0  0  0  0
  -29.7901    0.3781  -11.8267 C   0  0  1  0  0  0  0  0  0  0  0  0
  -29.9022    1.2402  -12.9946 O   0  0  0  0  0  0  0  0  0  0  0  0
  -32.1929    2.4751   -9.7808 P   0  0  1  0  0  0  0  0  0  0  0  0
  -28.5780    1.4844  -13.4959 C   0  0  2  0  0  0  0  0  0  0  0  0
  -28.1044    4.9476  -13.2507 N   0  0  0  0  0  0  0  0  0  0  0  0
  -26.3860    0.7426  -12.9125 O   0  0  0  0  0  0  0  0  0  0  0  0
  -27.6778    1.0793  -12.3932 C   0  0  2  0  0  0  0  0  0  0  0  0
  -28.7662    6.1235  -16.5221 N   0  0  0  0  0  0  0  0  0  0  0  0
  -28.2561   -1.2163  -12.6009 O   0  0  0  0  0  0  0  0  0  0  0  0
  -28.3732   -0.0441  -11.7771 C   0  0  2  0  0  0  0  0  0  0  0  0
  -28.0198    4.7744  -14.5786 C   0  0  0  0  0  0  0  0  0  0  0  0
  -28.1538    2.8426  -16.1322 N   0  0  0  0  0  0  0  0  0  0  0  0
  -31.4879    1.5526  -10.8347 O   0  0  0  0  0  0  0  0  0  0  0  0
  -30.1571    1.1996  -10.6391 C   0  0  0  0  0  0  0  0  0  0  0  0
  -33.6813    2.5224  -10.2838 O   0  0  0  0  0  0  0  0  0  0  0  0
  -28.3383    3.7438  -12.6942 C   0  0  0  0  0  0  0  0  0  0  0  0
  -26.7208    6.4617  -15.5799 O   0  0  0  0  0  0  0  0  0  0  0  0
  -27.7817    5.8377  -15.5723 C   0  0  0  0  0  0  0  0  0  0  0  0
  -28.1932    3.4482  -14.8554 C   0  0  0  0  0  0  0  0  0  0  0  0
  -32.0183    1.9011   -8.4141 O   0  5  0  0  0  0  0  0  0  0  0  0
  -31.4827    3.7605   -9.6537 O   0  0  0  0  0  0  0  0  0  0  0  0
  1 17  1  0  0  0  0
  1 20  1  0  0  0  0
  2 15  1  1  0  0  0
  2  3  1  0  0  0  0
  2 11  1  0  0  0  0
  3  5  1  0  0  0  0
  4 16  1  6  0  0  0
  4 21  1  0  0  0  0
  4 22  2  0  0  0  0
  4 14  1  0  0  0  0
  5  1  1  1  0  0  0
  5  8  1  0  0  0  0
  6 17  2  0  0  0  0
  6 12  1  0  0  0  0
  8  7  1  6  0  0  0
  8 11  1  0  0  0  0
  9 19  1  0  0  0  0
 11 10  1  6  0  0  0
 12 20  2  0  0  0  0
 12 19  1  0  0  0  0
 13 20  1  0  0  0  0
 14 15  1  0  0  0  0
 18 19  2  0  0  0  0
M  CHG  1  21  -1
M  END
>  <CHROM.1>
66.81443872,63.30166302,-174.94918342,-177.91318443,-116.42926291,-29.42896787
2.58587854,-12.50662739,-0.72126595,-0.72264332,2.70722705

>  <Name>
ligand

>  <RI>
0

>  <Rbt.Current_Directory>
/home/itssahil/PROJECTS/Mol_Feturizer/New_Systems/rnas/4XWF

>  <Rbt.Executable>
rbdock ($Id: //depot/dev/client3/rdock/2013.1/src/exe/rbdock.cxx#4 $)

>  <Rbt.Library>
libRbt.so (2013.1, Build901 2013/11/27)

>  <Rbt.Parameter_File>
/export/apps/rDock/src/rDock_2013.1_src/data/scripts/dock_solv.prm

>  <Rbt.Receptor>
prm/pocket_docking_5.prm

>  <SCORE>
-7.69432

>  <SCORE.INTER>
-6.76638

>  <SCORE.INTER.CONST>
1

>  <SCORE.INTER.POLAR>
0

>  <SCORE.INTER.ROT>
5

>  <SCORE.INTER.SOLV>
12.5044

>  <SCORE.INTER.VDW>
-15.6124

>  <SCORE.INTER.norm>
-0.307563

>  <SCORE.INTRA>
-0.92794

>  <SCORE.INTRA.DIHEDRAL>
-1.85701

>  <SCORE.INTRA.DIHEDRAL.0>
3.49807

>  <SCORE.INTRA.POLAR>
0

>  <SCORE.INTRA.POLAR.0>
0

>  <SCORE.INTRA.REPUL>
0

>  <SCORE.INTRA.REPUL.0>
0

>  <SCORE.INTRA.SOLV>
-0.332158

>  <SCORE.INTRA.SOLV.lig_0>
-73.062

>  <SCORE.INTRA.VDW>
0.166646

>  <SCORE.INTRA.VDW.0>
-1.83782

>  <SCORE.INTRA.norm>
-0.0421791

>  <SCORE.RESTR>
0

>  <SCORE.RESTR.CAVITY>
0

>  <SCORE.RESTR.norm>
0

>  <SCORE.SYSTEM>
0

>  <SCORE.SYSTEM.CONST>
0

>  <SCORE.SYSTEM.DIHEDRAL>
0

>  <SCORE.SYSTEM.SOLV>
0

>  <SCORE.SYSTEM.norm>
0

>  <SCORE.heavy>
22

>  <SCORE.norm>
-0.349742

>  <RMSD>
6.621

$$$$
ligand
 OpenBabel11021811513D
libRbt.so/2013.1/901 2013/11/27
 22 23  0  0  0  0  0  0  0  0999 V2000
  -28.3391    2.8633  -13.7441 N   0  0  0  0  0  0  0  0  0  0  0  0
  -29.7488    0.4070  -11.8916 C   0  0  1  0  0  0  0  0  0  0  0  0
  -29.8559    1.2648  -13.0632 O   0  0  0  0  0  0  0  0  0  0  0  0
  -32.1926    2.4332   -9.8223 P   0  0  1  0  0  0  0  0  0  0  0  0
  -28.5294    1.5097  -13.5580 C   0  0  2  0  0  0  0  0  0  0  0  0
  -28.0625    4.9744  -13.3224 N   0  0  0  0  0  0  0  0  0  0  0  0
  -26.3393    0.7739  -12.9596 O   0  0  0  0  0  0  0  0  0  0  0  0
  -27.6346    1.1101  -12.4487 C   0  0  2  0  0  0  0  0  0  0  0  0
  -28.7303    6.1692  -16.5718 N   0  0  0  0  0  0  0  0  0  0  0  0
  -28.2076   -1.1873  -12.6515 O   0  0  0  0  0  0  0  0  0  0  0  0
  -28.3314   -0.0124  -11.8325 C   0  0  2  0  0  0  0  0  0  0  0  0
  -27.9720    4.7969  -14.6494 C   0  0  0  0  0  0  0  0  0  0  0  0
  -28.0964    2.8596  -16.1970 N   0  0  0  0  0  0  0  0  0  0  0  0
  -31.4610    1.5623  -10.9017 O   0  0  0  0  0  0  0  0  0  0  0  0
  -30.1240    1.2321  -10.7090 C   0  0  0  0  0  0  0  0  0  0  0  0
  -31.4639    3.8219   -9.9273 O   0  0  0  0  0  0  0  0  0  0  0  0
  -28.2967    3.7721  -12.7628 C   0  0  0  0  0  0  0  0  0  0  0  0
  -26.6564    6.4559  -15.6761 O   0  0  0  0  0  0  0  0  0  0  0  0
  -27.7314    5.8572  -15.6456 C   0  0  0  0  0  0  0  0  0  0  0  0
  -28.1421    3.4695  -14.9224 C   0  0  0  0  0  0  0  0  0  0  0  0
  -33.6549    2.4764  -10.1186 O   0  5  0  0  0  0  0  0  0  0  0  0
  -32.1772    1.7609   -8.5107 O   0  0  0  0  0  0  0  0  0  0  0  0
  1 17  1  0  0  0  0
  1 20  1  0  0  0  0
  2 15  1  1  0  0  0
  2  3  1  0  0  0  0
  2 11  1  0  0  0  0
  3  5  1  0  0  0  0
  4 16  1  1  0  0  0
  4 21  1  0  0  0  0
  4 22  2  0  0  0  0
  4 14  1  0  0  0  0
  5  1  1  1  0  0  0
  5  8  1  0  0  0  0
  6 17  2  0  0  0  0
  6 12  1  0  0  0  0
  8  7  1  6  0  0  0
  8 11  1  0  0  0  0
  9 19  1  0  0  0  0
 11 10  1  6  0  0  0
 12 20  2  0  0  0  0
 12 19  1  0  0  0  0
 13 20  1  0  0  0  0
 14 15  1  0  0  0  0
 18 19  2  0  0  0  0
M  CHG  1  21  -1
M  END
>  <CHROM.1>
66.89613775,64.31512150,66.64626356,179.60035886,-114.26962844,-29.40010594
2.59440838,-12.56982628,-0.72196278,-0.71034493,2.70544283

>  <Name>
ligand

>  <RI>
0

>  <Rbt.Current_Directory>
/home/itssahil/PROJECTS/Mol_Feturizer/New_Systems/rnas/4XWF

>  <Rbt.Executable>
rbdock ($Id: //depot/dev/client3/rdock/2013.1/src/exe/rbdock.cxx#4 $)

>  <Rbt.Library>
libRbt.so (2013.1, Build901 2013/11/27)

>  <Rbt.Parameter_File>
/export/apps/rDock/src/rDock_2013.1_src/data/scripts/dock_solv.prm

>  <Rbt.Receptor>
prm/pocket_docking_5.prm

>  <SCORE>
-7.78108

>  <SCORE.INTER>
-6.52538

>  <SCORE.INTER.CONST>
1

>  <SCORE.INTER.POLAR>
0

>  <SCORE.INTER.ROT>
5

>  <SCORE.INTER.SOLV>
14.1235

>  <SCORE.INTER.VDW>
-15.9914

>  <SCORE.INTER.norm>
-0.296608

>  <SCORE.INTRA>
-1.2557

>  <SCORE.INTRA.DIHEDRAL>
-1.80065

>  <SCORE.INTRA.DIHEDRAL.0>
3.49807

>  <SCORE.INTRA.POLAR>
0

>  <SCORE.INTRA.POLAR.0>
0

>  <SCORE.INTRA.REPUL>
0

>  <SCORE.INTRA.REPUL.0>
0

>  <SCORE.INTRA.SOLV>
-0.998964

>  <SCORE.INTRA.SOLV.lig_0>
-73.062

>  <SCORE.INTRA.VDW>
0.144105

>  <SCORE.INTRA.VDW.0>
-1.83782

>  <SCORE.INTRA.norm>
-0.0570774

>  <SCORE.RESTR>
0

>  <SCORE.RESTR.CAVITY>
0

>  <SCORE.RESTR.norm>
0

>  <SCORE.SYSTEM>
0

>  <SCORE.SYSTEM.CONST>
0

>  <SCORE.SYSTEM.DIHEDRAL>
0

>  <SCORE.SYSTEM.SOLV>
0

>  <SCORE.SYSTEM.norm>
0

>  <SCORE.heavy>
22

>  <SCORE.norm>
-0.353686

>  <RMSD>
6.628

$$$$
ligand
 OpenBabel11021811513D
libRbt.so/2013.1/901 2013/11/27
 22 23  0  0  0  0  0  0  0  0999 V2000
  -28.2838    3.0092  -13.2527 N   0  0  0  0  0  0  0  0  0  0  0  0
  -29.9514    0.5364  -11.6536 C   0  0  1  0  0  0  0  0  0  0  0  0
  -29.9290    1.4649  -12.7748 O   0  0  0  0  0  0  0  0  0  0  0  0
  -32.4397    2.5347   -9.6107 P   0  0  1  0  0  0  0  0  0  0  0  0
  -28.5596    1.6604  -13.1633 C   0  0  2  0  0  0  0  0  0  0  0  0
  -27.9280    5.0736  -12.6848 N   0  0  0  0  0  0  0  0  0  0  0  0
  -26.4602    0.7654  -12.4654 O   0  0  0  0  0  0  0  0  0  0  0  0
  -27.7682    1.1463  -12.0231 C   0  0  2  0  0  0  0  0  0  0  0  0
  -26.1279    6.0434  -15.5510 N   0  0  0  0  0  0  0  0  0  0  0  0
  -28.4487   -1.0984  -12.4047 O   0  0  0  0  0  0  0  0  0  0  0  0
  -28.5664    0.0326  -11.5253 C   0  0  2  0  0  0  0  0  0  0  0  0
  -27.7464    4.9663  -14.0100 C   0  0  0  0  0  0  0  0  0  0  0  0
  -27.8558    3.1300  -15.6771 N   0  0  0  0  0  0  0  0  0  0  0  0
  -31.6747    1.7048  -10.6991 O   0  0  0  0  0  0  0  0  0  0  0  0
  -30.3640    1.3124  -10.4505 C   0  0  0  0  0  0  0  0  0  0  0  0
  -33.8591    2.7456  -10.2520 O   0  0  0  0  0  0  0  0  0  0  0  0
  -28.2678    3.8571  -12.2177 C   0  0  0  0  0  0  0  0  0  0  0  0
  -28.1453    7.0054  -15.1148 O   0  0  0  0  0  0  0  0  0  0  0  0
  -27.3746    6.0656  -14.9200 C   0  0  0  0  0  0  0  0  0  0  0  0
  -27.9657    3.6686  -14.3746 C   0  0  0  0  0  0  0  0  0  0  0  0
  -32.4476    1.7843   -8.3205 O   0  5  0  0  0  0  0  0  0  0  0  0
  -31.6788    3.7428   -9.2445 O   0  0  0  0  0  0  0  0  0  0  0  0
  1 17  1  0  0  0  0
  1 20  1  0  0  0  0
  2 15  1  1  0  0  0
  2  3  1  0  0  0  0
  2 11  1  0  0  0  0
  3  5  1  0  0  0  0
  4 16  1  6  0  0  0
  4 21  1  0  0  0  0
  4 22  2  0  0  0  0
  4 14  1  0  0  0  0
  5  1  1  1  0  0  0
  5  8  1  0  0  0  0
  6 17  2  0  0  0  0
  6 12  1  0  0  0  0
  8  7  1  6  0  0  0
  8 11  1  0  0  0  0
  9 19  1  0  0  0  0
 11 10  1  6  0  0  0
 12 20  2  0  0  0  0
 12 19  1  0  0  0  0
 13 20  1  0  0  0  0
 14 15  1  0  0  0  0
 18 19  2  0  0  0  0
M  CHG  1  21  -1
M  END
>  <CHROM.1>
66.57414065,65.61449017,-178.95694773,179.04003870,113.40109688,-29.43701051
2.72006183,-12.15846617,-0.61726795,-0.67122967,2.82924310

>  <Name>
ligand

>  <RI>
0

>  <Rbt.Current_Directory>
/home/itssahil/PROJECTS/Mol_Feturizer/New_Systems/rnas/4XWF

>  <Rbt.Executable>
rbdock ($Id: //depot/dev/client3/rdock/2013.1/src/exe/rbdock.cxx#4 $)

>  <Rbt.Library>
libRbt.so (2013.1, Build901 2013/11/27)

>  <Rbt.Parameter_File>
/export/apps/rDock/src/rDock_2013.1_src/data/scripts/dock_solv.prm

>  <Rbt.Receptor>
prm/pocket_docking_4.prm

>  <SCORE>
-7.22173

>  <SCORE.INTER>
-6.31388

>  <SCORE.INTER.CONST>
1

>  <SCORE.INTER.POLAR>
0

>  <SCORE.INTER.ROT>
5

>  <SCORE.INTER.SOLV>
10.9013

>  <SCORE.INTER.VDW>
-14.7763

>  <SCORE.INTER.norm>
-0.286995

>  <SCORE.INTRA>
-0.907846

>  <SCORE.INTRA.DIHEDRAL>
-1.79794

>  <SCORE.INTRA.DIHEDRAL.0>
3.49807

>  <SCORE.INTRA.POLAR>
0

>  <SCORE.INTRA.POLAR.0>
0

>  <SCORE.INTRA.REPUL>
0

>  <SCORE.INTRA.REPUL.0>
0

>  <SCORE.INTRA.SOLV>
-0.379403

>  <SCORE.INTRA.SOLV.lig_0>
-73.062

>  <SCORE.INTRA.VDW>
0.180826

>  <SCORE.INTRA.VDW.0>
-1.83782

>  <SCORE.INTRA.norm>
-0.0412657

>  <SCORE.RESTR>
0

>  <SCORE.RESTR.CAVITY>
0

>  <SCORE.RESTR.norm>
0

>  <SCORE.SYSTEM>
0

>  <SCORE.SYSTEM.CONST>
0

>  <SCORE.SYSTEM.DIHEDRAL>
0

>  <SCORE.SYSTEM.SOLV>
0

>  <SCORE.SYSTEM.norm>
0

>  <SCORE.heavy>
22

>  <SCORE.norm>
-0.32826

>  <RMSD>
6.630

$$$$
ligand
 OpenBabel11021811513D
libRbt.so/2013.1/901 2013/11/27
 22 23  0  0  0  0  0  0  0  0999 V2000
  -28.3772    2.8275  -13.6370 N   0  0  0  0  0  0  0  0  0  0  0  0
  -29.8610    0.4151  -11.7848 C   0  0  1  0  0  0  0  0  0  0  0  0
  -29.9390    1.2713  -12.9598 O   0  0  0  0  0  0  0  0  0  0  0  0
  -32.2752    2.4817   -9.7227 P   0  0  1  0  0  0  0  0  0  0  0  0
  -28.6037    1.4800  -13.4476 C   0  0  2  0  0  0  0  0  0  0  0  0
  -28.0551    4.9333  -13.2209 N   0  0  0  0  0  0  0  0  0  0  0  0
  -26.4370    0.6897  -12.8339 O   0  0  0  0  0  0  0  0  0  0  0  0
  -27.7261    1.0611  -12.3318 C   0  0  2  0  0  0  0  0  0  0  0  0
  -27.3968    7.0980  -15.1130 N   0  0  0  0  0  0  0  0  0  0  0  0
  -28.3574   -1.2213  -12.5303 O   0  0  0  0  0  0  0  0  0  0  0  0
  -28.4554   -0.0408  -11.7160 C   0  0  2  0  0  0  0  0  0  0  0  0
  -27.9487    4.7469  -14.5455 C   0  0  0  0  0  0  0  0  0  0  0  0
  -28.0971    2.8056  -16.0859 N   0  0  0  0  0  0  0  0  0  0  0  0
  -31.5381    1.6448  -10.8250 O   0  0  0  0  0  0  0  0  0  0  0  0
  -30.2215    1.2537  -10.6072 C   0  0  0  0  0  0  0  0  0  0  0  0
  -33.7465    2.5759  -10.2675 O   0  0  0  0  0  0  0  0  0  0  0  0
  -28.3274    3.7399  -12.6595 C   0  0  0  0  0  0  0  0  0  0  0  0
  -27.6824    5.5369  -16.7461 O   0  0  0  0  0  0  0  0  0  0  0  0
  -27.6668    5.7960  -15.5429 C   0  0  0  0  0  0  0  0  0  0  0  0
  -28.1473    3.4228  -14.8150 C   0  0  0  0  0  0  0  0  0  0  0  0
  -32.1456    1.7979   -8.4023 O   0  5  0  0  0  0  0  0  0  0  0  0
  -31.5675    3.7495   -9.4690 O   0  0  0  0  0  0  0  0  0  0  0  0
  1 17  1  0  0  0  0
  1 20  1  0  0  0  0
  2 15  1  1  0  0  0
  2  3  1  0  0  0  0
  2 11  1  0  0  0  0
  3  5  1  0  0  0  0
  4 16  1  6  0  0  0
  4 21  1  0  0  0  0
  4 22  2  0  0  0  0
  4 14  1  0  0  0  0
  5  1  1  1  0  0  0
  5  8  1  0  0  0  0
  6 17  2  0  0  0  0
  6 12  1  0  0  0  0
  8  7  1  6  0  0  0
  8 11  1  0  0  0  0
  9 19  1  0  0  0  0
 11 10  1  6  0  0  0
 12 20  2  0  0  0  0
 12 19  1  0  0  0  0
 13 20  1  0  0  0  0
 14 15  1  0  0  0  0
 18 19  2  0  0  0  0
M  CHG  1  21  -1
M  END
>  <CHROM.1>
66.34020405,62.90724491,-173.95513569,176.39353301,4.33964679,-29.44827559
2.58001501,-12.45833736,-0.66986932,-0.74271316,2.75270275

>  <Name>
ligand

>  <RI>
0

>  <Rbt.Current_Directory>
/home/itssahil/PROJECTS/Mol_Feturizer/New_Systems/rnas/4XWF

>  <Rbt.Executable>
rbdock ($Id: //depot/dev/client3/rdock/2013.1/src/exe/rbdock.cxx#4 $)

>  <Rbt.Library>
libRbt.so (2013.1, Build901 2013/11/27)

>  <Rbt.Parameter_File>
/export/apps/rDock/src/rDock_2013.1_src/data/scripts/dock_solv.prm

>  <Rbt.Receptor>
prm/pocket_docking_5.prm

>  <SCORE>
-7.62145

>  <SCORE.INTER>
-6.90801

>  <SCORE.INTER.CONST>
1

>  <SCORE.INTER.POLAR>
0

>  <SCORE.INTER.ROT>
5

>  <SCORE.INTER.SOLV>
12.1943

>  <SCORE.INTER.VDW>
-15.6034

>  <SCORE.INTER.norm>
-0.314

>  <SCORE.INTRA>
-0.713444

>  <SCORE.INTRA.DIHEDRAL>
-1.80344

>  <SCORE.INTRA.DIHEDRAL.0>
3.49807

>  <SCORE.INTRA.POLAR>
0

>  <SCORE.INTRA.POLAR.0>
0

>  <SCORE.INTRA.REPUL>
0

>  <SCORE.INTRA.REPUL.0>
0

>  <SCORE.INTRA.SOLV>
-0.391072

>  <SCORE.INTRA.SOLV.lig_0>
-73.062

>  <SCORE.INTRA.VDW>
0.38381

>  <SCORE.INTRA.VDW.0>
-1.83782

>  <SCORE.INTRA.norm>
-0.0324293

>  <SCORE.RESTR>
0

>  <SCORE.RESTR.CAVITY>
0

>  <SCORE.RESTR.norm>
0

>  <SCORE.SYSTEM>
0

>  <SCORE.SYSTEM.CONST>
0

>  <SCORE.SYSTEM.DIHEDRAL>
0

>  <SCORE.SYSTEM.SOLV>
0

>  <SCORE.SYSTEM.norm>
0

>  <SCORE.heavy>
22

>  <SCORE.norm>
-0.34643

>  <RMSD>
6.636

$$$$
ligand
 OpenBabel11021811513D
libRbt.so/2013.1/901 2013/11/27
 22 23  0  0  0  0  0  0  0  0999 V2000
  -31.7079    4.8596   -8.5474 N   0  0  0  0  0  0  0  0  0  0  0  0
  -31.0547    1.5940   -9.1484 C   0  0  1  0  0  0  0  0  0  0  0  0
  -30.9588    2.7042   -8.2114 O   0  0  0  0  0  0  0  0  0  0  0  0
  -28.7398    0.3690  -11.8860 P   0  0  1  0  0  0  0  0  0  0  0  0
  -32.1068    3.5471   -8.4015 C   0  0  2  0  0  0  0  0  0  0  0  0
  -30.5654    6.6024   -9.1544 N   0  0  0  0  0  0  0  0  0  0  0  0
  -34.0582    3.4617   -9.7728 O   0  0  0  0  0  0  0  0  0  0  0  0
  -32.6658    3.1321   -9.7076 C   0  0  2  0  0  0  0  0  0  0  0  0
  -32.1138    8.8530   -6.8696 N   0  0  0  0  0  0  0  0  0  0  0  0
  -33.3060    0.9937   -8.8924 O   0  0  0  0  0  0  0  0  0  0  0  0
  -32.3993    1.6997   -9.7559 C   0  0  2  0  0  0  0  0  0  0  0  0
  -31.6455    7.0240   -8.4789 C   0  0  0  0  0  0  0  0  0  0  0  0
  -33.5923    5.9410   -7.3832 N   0  0  0  0  0  0  0  0  0  0  0  0
  -29.8478    0.5500  -10.7914 O   0  0  0  0  0  0  0  0  0  0  0  0
  -29.9803    1.7834  -10.1632 C   0  0  0  0  0  0  0  0  0  0  0  0
  -28.6777   -1.1896  -12.0798 O   0  0  0  0  0  0  0  0  0  0  0  0
  -30.6035    5.2568   -9.1902 C   0  0  0  0  0  0  0  0  0  0  0  0
  -32.1818    9.2251   -9.1152 O   0  0  0  0  0  0  0  0  0  0  0  0
  -31.9896    8.4297   -8.1956 C   0  0  0  0  0  0  0  0  0  0  0  0
  -32.3715    5.9323   -8.0960 C   0  0  0  0  0  0  0  0  0  0  0  0
  -29.1160    1.1317  -13.1126 O   0  5  0  0  0  0  0  0  0  0  0  0
  -27.4946    1.0490  -11.4863 O   0  0  0  0  0  0  0  0  0  0  0  0
  1 17  1  0  0  0  0
  1 20  1  0  0  0  0
  2 15  1  6  0  0  0
  2  3  1  0  0  0  0
  2 11  1  0  0  0  0
  3  5  1  0  0  0  0
  4 16  1  6  0  0  0
  4 21  1  0  0  0  0
  4 22  2  0  0  0  0
  4 14  1  0  0  0  0
  5  1  1  6  0  0  0
  5  8  1  0  0  0  0
  6 17  2  0  0  0  0
  6 12  1  0  0  0  0
  8  7  1  1  0  0  0
  8 11  1  0  0  0  0
  9 19  1  0  0  0  0
 11 10  1  1  0  0  0
 12 20  2  0  0  0  0
 12 19  1  0  0  0  0
 13 20  1  0  0  0  0
 14 15  1  0  0  0  0
 18 19  2  0  0  0  0
M  CHG  1  21  -1
M  END
>  <CHROM.1>
36.88512956,163.36180838,166.61319091,-177.09981440,-120.35759769,-31.06095065
3.46611437,-9.67183432,2.01117308,0.51953188,0.22348212

>  <Name>
ligand

>  <RI>
0

>  <Rbt.Current_Directory>
/home/itssahil/PROJECTS/Mol_Feturizer/New_Systems/rnas/4XWF

>  <Rbt.Executable>
rbdock ($Id: //depot/dev/client3/rdock/2013.1/src/exe/rbdock.cxx#4 $)

>  <Rbt.Library>
libRbt.so (2013.1, Build901 2013/11/27)

>  <Rbt.Parameter_File>
/export/apps/rDock/src/rDock_2013.1_src/data/scripts/dock_solv.prm

>  <Rbt.Receptor>
prm/pocket_docking_7.prm

>  <SCORE>
-7.90515

>  <SCORE.INTER>
-7.49948

>  <SCORE.INTER.CONST>
1

>  <SCORE.INTER.POLAR>
0

>  <SCORE.INTER.ROT>
5

>  <SCORE.INTER.SOLV>
12.0544

>  <SCORE.INTER.VDW>
-15.9511

>  <SCORE.INTER.norm>
-0.340885

>  <SCORE.INTRA>
-0.405672

>  <SCORE.INTRA.DIHEDRAL>
-0.750547

>  <SCORE.INTRA.DIHEDRAL.0>
3.49807

>  <SCORE.INTRA.POLAR>
0

>  <SCORE.INTRA.POLAR.0>
0

>  <SCORE.INTRA.REPUL>
0

>  <SCORE.INTRA.REPUL.0>
0

>  <SCORE.INTRA.SOLV>
0.462694

>  <SCORE.INTRA.SOLV.lig_0>
-73.062

>  <SCORE.INTRA.VDW>
-0.261745

>  <SCORE.INTRA.VDW.0>
-1.83782

>  <SCORE.INTRA.norm>
-0.0184396

>  <SCORE.RESTR>
0

>  <SCORE.RESTR.CAVITY>
0

>  <SCORE.RESTR.norm>
0

>  <SCORE.SYSTEM>
0

>  <SCORE.SYSTEM.CONST>
0

>  <SCORE.SYSTEM.DIHEDRAL>
0

>  <SCORE.SYSTEM.SOLV>
0

>  <SCORE.SYSTEM.norm>
0

>  <SCORE.heavy>
22

>  <SCORE.norm>
-0.359325

>  <RMSD>
6.641

$$$$
ligand
 OpenBabel11021811513D
libRbt.so/2013.1/901 2013/11/27
 22 23  0  0  0  0  0  0  0  0999 V2000
  -31.7012    4.8117   -8.5559 N   0  0  0  0  0  0  0  0  0  0  0  0
  -31.0612    1.5527   -9.2055 C   0  0  1  0  0  0  0  0  0  0  0  0
  -30.9614    2.6483   -8.2518 O   0  0  0  0  0  0  0  0  0  0  0  0
  -28.7201    0.3501  -11.9311 P   0  0  1  0  0  0  0  0  0  0  0  0
  -32.1057    3.4988   -8.4300 C   0  0  2  0  0  0  0  0  0  0  0  0
  -30.5525    6.5588   -9.1381 N   0  0  0  0  0  0  0  0  0  0  0  0
  -34.0564    3.4422   -9.8037 O   0  0  0  0  0  0  0  0  0  0  0  0
  -32.6654    3.1059   -9.7426 C   0  0  2  0  0  0  0  0  0  0  0  0
  -31.0327    9.3822   -8.4150 N   0  0  0  0  0  0  0  0  0  0  0  0
  -33.3153    0.9582   -8.9601 O   0  0  0  0  0  0  0  0  0  0  0  0
  -32.4049    1.6733   -9.8123 C   0  0  2  0  0  0  0  0  0  0  0  0
  -31.6285    6.9743   -8.4524 C   0  0  0  0  0  0  0  0  0  0  0  0
  -33.5769    5.8826   -7.3682 N   0  0  0  0  0  0  0  0  0  0  0  0
  -29.8289    0.5172  -10.8351 O   0  0  0  0  0  0  0  0  0  0  0  0
  -29.9853    1.7529  -10.2167 C   0  0  0  0  0  0  0  0  0  0  0  0
  -28.6542   -1.2062  -12.1408 O   0  0  0  0  0  0  0  0  0  0  0  0
  -30.5970    5.2141   -9.1957 C   0  0  0  0  0  0  0  0  0  0  0  0
  -33.0508    8.6646   -7.6416 O   0  0  0  0  0  0  0  0  0  0  0  0
  -31.9652    8.3768   -8.1453 C   0  0  0  0  0  0  0  0  0  0  0  0
  -32.3583    5.8799   -8.0850 C   0  0  0  0  0  0  0  0  0  0  0  0
  -29.0979    1.1244  -13.1500 O   0  5  0  0  0  0  0  0  0  0  0  0
  -27.4767    1.0291  -11.5241 O   0  0  0  0  0  0  0  0  0  0  0  0
  1 17  1  0  0  0  0
  1 20  1  0  0  0  0
  2 15  1  6  0  0  0
  2  3  1  0  0  0  0
  2 11  1  0  0  0  0
  3  5  1  0  0  0  0
  4 16  1  6  0  0  0
  4 21  1  0  0  0  0
  4 22  2  0  0  0  0
  4 14  1  0  0  0  0
  5  1  1  6  0  0  0
  5  8  1  0  0  0  0
  6 17  2  0  0  0  0
  6 12  1  0  0  0  0
  8  7  1  1  0  0  0
  8 11  1  0  0  0  0
  9 19  1  0  0  0  0
 11 10  1  1  0  0  0
 12 20  2  0  0  0  0
 12 19  1  0  0  0  0
 13 20  1  0  0  0  0
 14 15  1  0  0  0  0
 18 19  2  0  0  0  0
M  CHG  1  21  -1
M  END
>  <CHROM.1>
37.11740656,161.57802217,168.10892380,-177.57591818,-9.07727569,-31.04892434
3.42997972,-9.69102552,2.00372213,0.48453379,0.25111527

>  <Name>
ligand

>  <RI>
0

>  <Rbt.Current_Directory>
/home/itssahil/PROJECTS/Mol_Feturizer/New_Systems/rnas/4XWF

>  <Rbt.Executable>
rbdock ($Id: //depot/dev/client3/rdock/2013.1/src/exe/rbdock.cxx#4 $)

>  <Rbt.Library>
libRbt.so (2013.1, Build901 2013/11/27)

>  <Rbt.Parameter_File>
/export/apps/rDock/src/rDock_2013.1_src/data/scripts/dock_solv.prm

>  <Rbt.Receptor>
prm/pocket_docking_6.prm

>  <SCORE>
-7.80936

>  <SCORE.INTER>
-7.59064

>  <SCORE.INTER.CONST>
1

>  <SCORE.INTER.POLAR>
0

>  <SCORE.INTER.ROT>
5

>  <SCORE.INTER.SOLV>
11.9201

>  <SCORE.INTER.VDW>
-15.9671

>  <SCORE.INTER.norm>
-0.345029

>  <SCORE.INTRA>
-0.218724

>  <SCORE.INTRA.DIHEDRAL>
-0.551966

>  <SCORE.INTRA.DIHEDRAL.0>
3.49807

>  <SCORE.INTRA.POLAR>
0

>  <SCORE.INTRA.POLAR.0>
0

>  <SCORE.INTRA.REPUL>
0

>  <SCORE.INTRA.REPUL.0>
0

>  <SCORE.INTRA.SOLV>
0.371652

>  <SCORE.INTRA.SOLV.lig_0>
-73.062

>  <SCORE.INTRA.VDW>
-0.128567

>  <SCORE.INTRA.VDW.0>
-1.83782

>  <SCORE.INTRA.norm>
-0.00994202

>  <SCORE.RESTR>
0

>  <SCORE.RESTR.CAVITY>
0

>  <SCORE.RESTR.norm>
0

>  <SCORE.SYSTEM>
0

>  <SCORE.SYSTEM.CONST>
0

>  <SCORE.SYSTEM.DIHEDRAL>
0

>  <SCORE.SYSTEM.SOLV>
0

>  <SCORE.SYSTEM.norm>
0

>  <SCORE.heavy>
22

>  <SCORE.norm>
-0.354971

>  <RMSD>
6.644

$$$$
ligand
 OpenBabel11021811513D
libRbt.so/2013.1/901 2013/11/27
 22 23  0  0  0  0  0  0  0  0999 V2000
  -28.4071    2.8903  -13.5730 N   0  0  0  0  0  0  0  0  0  0  0  0
  -29.7683    0.3045  -11.8661 C   0  0  1  0  0  0  0  0  0  0  0  0
  -29.9024    1.2395  -12.9742 O   0  0  0  0  0  0  0  0  0  0  0  0
  -32.2026    2.1114   -9.5975 P   0  0  1  0  0  0  0  0  0  0  0  0
  -28.5870    1.5259  -13.4762 C   0  0  2  0  0  0  0  0  0  0  0  0
  -28.1135    4.9669  -13.0137 N   0  0  0  0  0  0  0  0  0  0  0  0
  -26.3821    0.7649  -12.9713 O   0  0  0  0  0  0  0  0  0  0  0  0
  -27.6689    1.0573  -12.4141 C   0  0  2  0  0  0  0  0  0  0  0  0
  -26.7915    6.0184  -16.1412 N   0  0  0  0  0  0  0  0  0  0  0  0
  -28.2342   -1.2244  -12.7623 O   0  0  0  0  0  0  0  0  0  0  0  0
  -28.3480   -0.1089  -11.8629 C   0  0  2  0  0  0  0  0  0  0  0  0
  -28.0849    4.8855  -14.3528 C   0  0  0  0  0  0  0  0  0  0  0  0
  -28.2792    3.0640  -16.0285 N   0  0  0  0  0  0  0  0  0  0  0  0
  -31.4513    1.4259  -10.7909 O   0  0  0  0  0  0  0  0  0  0  0  0
  -30.1246    1.0447  -10.6230 C   0  0  0  0  0  0  0  0  0  0  0  0
  -32.3188    0.9577   -8.5363 O   0  0  0  0  0  0  0  0  0  0  0  0
  -28.3200    3.7264  -12.5319 C   0  0  0  0  0  0  0  0  0  0  0  0
  -28.6826    6.9594  -15.2905 O   0  0  0  0  0  0  0  0  0  0  0  0
  -27.8923    6.0158  -15.2802 C   0  0  0  0  0  0  0  0  0  0  0  0
  -28.2660    3.5805  -14.7125 C   0  0  0  0  0  0  0  0  0  0  0  0
  -31.4309    3.3028   -9.1360 O   0  5  0  0  0  0  0  0  0  0  0  0
  -33.4573    2.7330  -10.0580 O   0  0  0  0  0  0  0  0  0  0  0  0
  1 17  1  0  0  0  0
  1 20  1  0  0  0  0
  2 15  1  1  0  0  0
  2  3  1  0  0  0  0
  2 11  1  0  0  0  0
  3  5  1  0  0  0  0
  4 16  1  1  0  0  0
  4 21  1  0  0  0  0
  4 22  2  0  0  0  0
  4 14  1  0  0  0  0
  5  1  1  1  0  0  0
  5  8  1  0  0  0  0
  6 17  2  0  0  0  0
  6 12  1  0  0  0  0
  8  7  1  6  0  0  0
  8 11  1  0  0  0  0
  9 19  1  0  0  0  0
 11 10  1  6  0  0  0
 12 20  2  0  0  0  0
 12 19  1  0  0  0  0
 13 20  1  0  0  0  0
 14 15  1  0  0  0  0
 18 19  2  0  0  0  0
M  CHG  1  21  -1
M  END
>  <CHROM.1>
68.48946753,61.96940399,-67.70198387,173.97232496,119.15261968,-29.45116505
2.52390107,-12.39178323,-0.74530527,-0.73307226,2.75816564

>  <Name>
ligand

>  <RI>
0

>  <Rbt.Current_Directory>
/home/itssahil/PROJECTS/Mol_Feturizer/New_Systems/rnas/4XWF

>  <Rbt.Executable>
rbdock ($Id: //depot/dev/client3/rdock/2013.1/src/exe/rbdock.cxx#4 $)

>  <Rbt.Library>
libRbt.so (2013.1, Build901 2013/11/27)

>  <Rbt.Parameter_File>
/export/apps/rDock/src/rDock_2013.1_src/data/scripts/dock_solv.prm

>  <Rbt.Receptor>
prm/pocket_docking_5.prm

>  <SCORE>
-6.09488

>  <SCORE.INTER>
-5.09438

>  <SCORE.INTER.CONST>
1

>  <SCORE.INTER.POLAR>
0

>  <SCORE.INTER.ROT>
5

>  <SCORE.INTER.SOLV>
15.304

>  <SCORE.INTER.VDW>
-15.4309

>  <SCORE.INTER.norm>
-0.231563

>  <SCORE.INTRA>
-1.0005

>  <SCORE.INTRA.DIHEDRAL>
-1.63839

>  <SCORE.INTRA.DIHEDRAL.0>
3.49807

>  <SCORE.INTRA.POLAR>
0

>  <SCORE.INTRA.POLAR.0>
0

>  <SCORE.INTRA.REPUL>
0

>  <SCORE.INTRA.REPUL.0>
0

>  <SCORE.INTRA.SOLV>
-0.992934

>  <SCORE.INTRA.SOLV.lig_0>
-73.062

>  <SCORE.INTRA.VDW>
0.315158

>  <SCORE.INTRA.VDW.0>
-1.83782

>  <SCORE.INTRA.norm>
-0.0454774

>  <SCORE.RESTR>
0

>  <SCORE.RESTR.CAVITY>
0

>  <SCORE.RESTR.norm>
0

>  <SCORE.SYSTEM>
0

>  <SCORE.SYSTEM.CONST>
0

>  <SCORE.SYSTEM.DIHEDRAL>
0

>  <SCORE.SYSTEM.SOLV>
0

>  <SCORE.SYSTEM.norm>
0

>  <SCORE.heavy>
22

>  <SCORE.norm>
-0.27704

>  <RMSD>
6.664

$$$$
ligand
 OpenBabel11021811513D
libRbt.so/2013.1/901 2013/11/27
 22 23  0  0  0  0  0  0  0  0999 V2000
  -28.3685    2.8398  -13.6774 N   0  0  0  0  0  0  0  0  0  0  0  0
  -29.7412    0.3099  -11.8975 C   0  0  1  0  0  0  0  0  0  0  0  0
  -29.8665    1.2070  -13.0375 O   0  0  0  0  0  0  0  0  0  0  0  0
  -32.2167    2.1236   -9.6814 P   0  0  1  0  0  0  0  0  0  0  0  0
  -28.5470    1.4791  -13.5366 C   0  0  2  0  0  0  0  0  0  0  0  0
  -28.0947    4.9359  -13.1853 N   0  0  0  0  0  0  0  0  0  0  0  0
  -26.3456    0.7398  -12.9861 O   0  0  0  0  0  0  0  0  0  0  0  0
  -27.6380    1.0481  -12.4509 C   0  0  2  0  0  0  0  0  0  0  0  0
  -27.6892    7.2143  -15.0120 N   0  0  0  0  0  0  0  0  0  0  0  0
  -28.1962   -1.2452  -12.7278 O   0  0  0  0  0  0  0  0  0  0  0  0
  -28.3202   -0.1004  -11.8673 C   0  0  2  0  0  0  0  0  0  0  0  0
  -28.0323    4.8072  -14.5195 C   0  0  0  0  0  0  0  0  0  0  0  0
  -28.1796    2.9266  -16.1336 N   0  0  0  0  0  0  0  0  0  0  0  0
  -31.4465    1.4328  -10.8597 O   0  0  0  0  0  0  0  0  0  0  0  0
  -30.1103    1.0906  -10.6833 C   0  0  0  0  0  0  0  0  0  0  0  0
  -32.2767    0.9999   -8.5841 O   0  0  0  0  0  0  0  0  0  0  0  0
  -28.3098    3.7126  -12.6649 C   0  0  0  0  0  0  0  0  0  0  0  0
  -27.7716    5.6773  -16.6903 O   0  0  0  0  0  0  0  0  0  0  0  0
  -27.8197    5.9045  -15.4815 C   0  0  0  0  0  0  0  0  0  0  0  0
  -28.2008    3.4896  -14.8369 C   0  0  0  0  0  0  0  0  0  0  0  0
  -31.4918    3.3597   -9.2639 O   0  5  0  0  0  0  0  0  0  0  0  0
  -33.4996    2.6780  -10.1499 O   0  0  0  0  0  0  0  0  0  0  0  0
  1 17  1  0  0  0  0
  1 20  1  0  0  0  0
  2 15  1  1  0  0  0
  2  3  1  0  0  0  0
  2 11  1  0  0  0  0
  3  5  1  0  0  0  0
  4 16  1  1  0  0  0
  4 21  1  0  0  0  0
  4 22  2  0  0  0  0
  4 14  1  0  0  0  0
  5  1  1  1  0  0  0
  5  8  1  0  0  0  0
  6 17  2  0  0  0  0
  6 12  1  0  0  0  0
  8  7  1  6  0  0  0
  8 11  1  0  0  0  0
  9 19  1  0  0  0  0
 11 10  1  6  0  0  0
 12 20  2  0  0  0  0
 12 19  1  0  0  0  0
 13 20  1  0  0  0  0
 14 15  1  0  0  0  0
 18 19  2  0  0  0  0
M  CHG  1  21  -1
M  END
>  <CHROM.1>
67.57828654,63.51916157,-66.56779904,172.86404562,-1.19352720,-29.42418708
2.49252798,-12.48500522,-0.73359706,-0.74256217,2.75115215

>  <Name>
ligand

>  <RI>
0

>  <Rbt.Current_Directory>
/home/itssahil/PROJECTS/Mol_Feturizer/New_Systems/rnas/4XWF

>  <Rbt.Executable>
rbdock ($Id: //depot/dev/client3/rdock/2013.1/src/exe/rbdock.cxx#4 $)

>  <Rbt.Library>
libRbt.so (2013.1, Build901 2013/11/27)

>  <Rbt.Parameter_File>
/export/apps/rDock/src/rDock_2013.1_src/data/scripts/dock_solv.prm

>  <Rbt.Receptor>
prm/pocket_docking_6.prm

>  <SCORE>
-5.94638

>  <SCORE.INTER>
-5.07058

>  <SCORE.INTER.CONST>
1

>  <SCORE.INTER.POLAR>
0

>  <SCORE.INTER.ROT>
5

>  <SCORE.INTER.SOLV>
15.9223

>  <SCORE.INTER.VDW>
-15.6212

>  <SCORE.INTER.norm>
-0.230481

>  <SCORE.INTRA>
-0.875796

>  <SCORE.INTRA.DIHEDRAL>
-1.56657

>  <SCORE.INTRA.DIHEDRAL.0>
3.49807

>  <SCORE.INTRA.POLAR>
0

>  <SCORE.INTRA.POLAR.0>
0

>  <SCORE.INTRA.REPUL>
0

>  <SCORE.INTRA.REPUL.0>
0

>  <SCORE.INTRA.SOLV>
-1.04881

>  <SCORE.INTRA.SOLV.lig_0>
-73.062

>  <SCORE.INTRA.VDW>
0.431898

>  <SCORE.INTRA.VDW.0>
-1.83782

>  <SCORE.INTRA.norm>
-0.0398089

>  <SCORE.RESTR>
0

>  <SCORE.RESTR.CAVITY>
0

>  <SCORE.RESTR.norm>
0

>  <SCORE.SYSTEM>
0

>  <SCORE.SYSTEM.CONST>
0

>  <SCORE.SYSTEM.DIHEDRAL>
0

>  <SCORE.SYSTEM.SOLV>
0

>  <SCORE.SYSTEM.norm>
0

>  <SCORE.heavy>
22

>  <SCORE.norm>
-0.27029

>  <RMSD>
6.674

$$$$
ligand
 OpenBabel11021811513D
libRbt.so/2013.1/901 2013/11/27
 22 23  0  0  0  0  0  0  0  0999 V2000
  -34.4425    5.2742   -7.3559 N   0  0  0  0  0  0  0  0  0  0  0  0
  -31.1587    5.6159   -8.0991 C   0  0  1  0  0  0  0  0  0  0  0  0
  -32.1665    5.4962   -7.0551 O   0  0  0  0  0  0  0  0  0  0  0  0
  -30.8561    9.3670   -7.6572 P   0  0  1  0  0  0  0  0  0  0  0  0
  -33.2234    4.6587   -7.5510 C   0  0  2  0  0  0  0  0  0  0  0  0
  -36.0888    6.6755   -7.5490 N   0  0  0  0  0  0  0  0  0  0  0  0
  -33.6016    3.4245   -9.5584 O   0  0  0  0  0  0  0  0  0  0  0  0
  -33.0090    4.6098   -9.0147 C   0  0  2  0  0  0  0  0  0  0  0  0
  -37.8445    6.0930   -4.6634 N   0  0  0  0  0  0  0  0  0  0  0  0
  -30.9832    3.3861   -8.8005 O   0  0  0  0  0  0  0  0  0  0  0  0
  -31.5584    4.6560   -9.1512 C   0  0  2  0  0  0  0  0  0  0  0  0
  -36.4532    5.7178   -6.6827 C   0  0  0  0  0  0  0  0  0  0  0  0
  -35.4088    3.6632   -5.7601 N   0  0  0  0  0  0  0  0  0  0  0  0
  -30.8711    7.8072   -7.4978 O   0  0  0  0  0  0  0  0  0  0  0  0
  -31.2059    7.0203   -8.5944 C   0  0  0  0  0  0  0  0  0  0  0  0
  -29.8382    9.5980   -8.8324 O   0  0  0  0  0  0  0  0  0  0  0  0
  -34.8365    6.4007   -7.9611 C   0  0  0  0  0  0  0  0  0  0  0  0
  -38.7357    5.1630   -6.5413 O   0  0  0  0  0  0  0  0  0  0  0  0
  -37.7480    5.6384   -5.9814 C   0  0  0  0  0  0  0  0  0  0  0  0
  -35.4229    4.8300   -6.5582 C   0  0  0  0  0  0  0  0  0  0  0  0
  -32.2392    9.8575   -7.9297 O   0  5  0  0  0  0  0  0  0  0  0  0
  -30.5596   10.0208   -6.3699 O   0  0  0  0  0  0  0  0  0  0  0  0
  1 17  1  0  0  0  0
  1 20  1  0  0  0  0
  2 15  1  6  0  0  0
  2  3  1  0  0  0  0
  2 11  1  0  0  0  0
  3  5  1  0  0  0  0
  4 16  1  6  0  0  0
  4 21  1  0  0  0  0
  4 22  2  0  0  0  0
  4 14  1  0  0  0  0
  5  1  1  6  0  0  0
  5  8  1  0  0  0  0
  6 17  2  0  0  0  0
  6 12  1  0  0  0  0
  8  7  1  1  0  0  0
  8 11  1  0  0  0  0
  9 19  1  0  0  0  0
 11 10  1  1  0  0  0
 12 20  2  0  0  0  0
 12 19  1  0  0  0  0
 13 20  1  0  0  0  0
 14 15  1  0  0  0  0
 18 19  2  0  0  0  0
M  CHG  1  21  -1
M  END
>  <CHROM.1>
66.04568580,62.22045716,-57.19089161,-178.57725292,-98.81704898,-33.31404702
6.36302173,-7.53645708,-2.71300411,0.37587418,0.28845193

>  <Name>
ligand

>  <RI>
0

>  <Rbt.Current_Directory>
/home/itssahil/PROJECTS/Mol_Feturizer/New_Systems/rnas/4XWF

>  <Rbt.Executable>
rbdock ($Id: //depot/dev/client3/rdock/2013.1/src/exe/rbdock.cxx#4 $)

>  <Rbt.Library>
libRbt.so (2013.1, Build901 2013/11/27)

>  <Rbt.Parameter_File>
/export/apps/rDock/src/rDock_2013.1_src/data/scripts/dock_solv.prm

>  <Rbt.Receptor>
prm/pocket_docking_8.prm

>  <SCORE>
-7.65959

>  <SCORE.INTER>
-6.58239

>  <SCORE.INTER.CONST>
1

>  <SCORE.INTER.POLAR>
0

>  <SCORE.INTER.ROT>
5

>  <SCORE.INTER.SOLV>
9.83828

>  <SCORE.INTER.VDW>
-14.601

>  <SCORE.INTER.norm>
-0.2992

>  <SCORE.INTRA>
-1.07719

>  <SCORE.INTRA.DIHEDRAL>
-1.45437

>  <SCORE.INTRA.DIHEDRAL.0>
3.49807

>  <SCORE.INTRA.POLAR>
0

>  <SCORE.INTRA.POLAR.0>
0

>  <SCORE.INTRA.REPUL>
0

>  <SCORE.INTRA.REPUL.0>
0

>  <SCORE.INTRA.SOLV>
-1.08097

>  <SCORE.INTRA.SOLV.lig_0>
-73.062

>  <SCORE.INTRA.VDW>
0.190478

>  <SCORE.INTRA.VDW.0>
-1.83782

>  <SCORE.INTRA.norm>
-0.0489634

>  <SCORE.RESTR>
0

>  <SCORE.RESTR.CAVITY>
0

>  <SCORE.RESTR.norm>
0

>  <SCORE.SYSTEM>
0

>  <SCORE.SYSTEM.CONST>
0

>  <SCORE.SYSTEM.DIHEDRAL>
0

>  <SCORE.SYSTEM.SOLV>
0

>  <SCORE.SYSTEM.norm>
0

>  <SCORE.heavy>
22

>  <SCORE.norm>
-0.348163

>  <RMSD>
6.680

$$$$
ligand
 OpenBabel11021811513D
libRbt.so/2013.1/901 2013/11/27
 22 23  0  0  0  0  0  0  0  0999 V2000
  -28.3668    2.8652  -13.6967 N   0  0  0  0  0  0  0  0  0  0  0  0
  -29.7297    0.3395  -11.9035 C   0  0  1  0  0  0  0  0  0  0  0  0
  -29.8633    1.2368  -13.0423 O   0  0  0  0  0  0  0  0  0  0  0  0
  -32.1833    2.1395   -9.6523 P   0  0  1  0  0  0  0  0  0  0  0  0
  -28.5479    1.5050  -13.5540 C   0  0  2  0  0  0  0  0  0  0  0  0
  -28.0849    4.9610  -13.2075 N   0  0  0  0  0  0  0  0  0  0  0  0
  -26.3434    0.7596  -13.0243 O   0  0  0  0  0  0  0  0  0  0  0  0
  -27.6298    1.0716  -12.4769 C   0  0  2  0  0  0  0  0  0  0  0  0
  -28.7917    6.1821  -16.4786 N   0  0  0  0  0  0  0  0  0  0  0  0
  -28.1971   -1.2201  -12.7481 O   0  0  0  0  0  0  0  0  0  0  0  0
  -28.3097   -0.0749  -11.8867 C   0  0  2  0  0  0  0  0  0  0  0  0
  -28.0308    4.8313  -14.5420 C   0  0  0  0  0  0  0  0  0  0  0  0
  -28.1923    2.9501  -16.1540 N   0  0  0  0  0  0  0  0  0  0  0  0
  -31.4268    1.4522  -10.8413 O   0  0  0  0  0  0  0  0  0  0  0  0
  -30.0851    1.1213  -10.6859 C   0  0  0  0  0  0  0  0  0  0  0  0
  -32.2089    1.0208   -8.5485 O   0  0  0  0  0  0  0  0  0  0  0  0
  -28.2999    3.7385  -12.6851 C   0  0  0  0  0  0  0  0  0  0  0  0
  -26.7952    6.6066  -15.4688 O   0  0  0  0  0  0  0  0  0  0  0  0
  -27.8212    5.9275  -15.5059 C   0  0  0  0  0  0  0  0  0  0  0  0
  -28.2044    3.5139  -14.8576 C   0  0  0  0  0  0  0  0  0  0  0  0
  -31.4663    3.3867   -9.2545 O   0  5  0  0  0  0  0  0  0  0  0  0
  -33.4816    2.6755  -10.0994 O   0  0  0  0  0  0  0  0  0  0  0  0
  1 17  1  0  0  0  0
  1 20  1  0  0  0  0
  2 15  1  1  0  0  0
  2  3  1  0  0  0  0
  2 11  1  0  0  0  0
  3  5  1  0  0  0  0
  4 16  1  1  0  0  0
  4 21  1  0  0  0  0
  4 22  2  0  0  0  0
  4 14  1  0  0  0  0
  5  1  1  1  0  0  0
  5  8  1  0  0  0  0
  6 17  2  0  0  0  0
  6 12  1  0  0  0  0
  8  7  1  6  0  0  0
  8 11  1  0  0  0  0
  9 19  1  0  0  0  0
 11 10  1  6  0  0  0
 12 20  2  0  0  0  0
 12 19  1  0  0  0  0
 13 20  1  0  0  0  0
 14 15  1  0  0  0  0
 18 19  2  0  0  0  0
M  CHG  1  21  -1
M  END
>  <CHROM.1>
67.37219704,64.28518744,-66.24550078,172.80022439,-120.56452941,-29.41150781
2.51418814,-12.49151468,-0.75284853,-0.72836985,2.72595485

>  <Name>
ligand

>  <RI>
0

>  <Rbt.Current_Directory>
/home/itssahil/PROJECTS/Mol_Feturizer/New_Systems/rnas/4XWF

>  <Rbt.Executable>
rbdock ($Id: //depot/dev/client3/rdock/2013.1/src/exe/rbdock.cxx#4 $)

>  <Rbt.Library>
libRbt.so (2013.1, Build901 2013/11/27)

>  <Rbt.Parameter_File>
/export/apps/rDock/src/rDock_2013.1_src/data/scripts/dock_solv.prm

>  <Rbt.Receptor>
prm/pocket_docking_6.prm

>  <SCORE>
-6.07138

>  <SCORE.INTER>
-5.06325

>  <SCORE.INTER.CONST>
1

>  <SCORE.INTER.POLAR>
0

>  <SCORE.INTER.ROT>
5

>  <SCORE.INTER.SOLV>
15.1721

>  <SCORE.INTER.VDW>
-15.3662

>  <SCORE.INTER.norm>
-0.230148

>  <SCORE.INTRA>
-1.00813

>  <SCORE.INTRA.DIHEDRAL>
-1.54874

>  <SCORE.INTRA.DIHEDRAL.0>
3.49807

>  <SCORE.INTRA.POLAR>
0

>  <SCORE.INTRA.POLAR.0>
0

>  <SCORE.INTRA.REPUL>
0

>  <SCORE.INTRA.REPUL.0>
0

>  <SCORE.INTRA.SOLV>
-0.98085

>  <SCORE.INTRA.SOLV.lig_0>
-73.062

>  <SCORE.INTRA.VDW>
0.256663

>  <SCORE.INTRA.VDW.0>
-1.83782

>  <SCORE.INTRA.norm>
-0.0458242

>  <SCORE.RESTR>
0

>  <SCORE.RESTR.CAVITY>
0

>  <SCORE.RESTR.norm>
0

>  <SCORE.SYSTEM>
0

>  <SCORE.SYSTEM.CONST>
0

>  <SCORE.SYSTEM.DIHEDRAL>
0

>  <SCORE.SYSTEM.SOLV>
0

>  <SCORE.SYSTEM.norm>
0

>  <SCORE.heavy>
22

>  <SCORE.norm>
-0.275972

>  <RMSD>
6.681

$$$$
ligand
 OpenBabel11021811513D
libRbt.so/2013.1/901 2013/11/27
 22 23  0  0  0  0  0  0  0  0999 V2000
  -28.2682    3.0176  -13.1870 N   0  0  0  0  0  0  0  0  0  0  0  0
  -29.9467    0.5120  -11.6515 C   0  0  1  0  0  0  0  0  0  0  0  0
  -29.9106    1.4556  -12.7598 O   0  0  0  0  0  0  0  0  0  0  0  0
  -32.5509    2.2835   -9.5541 P   0  0  1  0  0  0  0  0  0  0  0  0
  -28.5359    1.6659  -13.1205 C   0  0  2  0  0  0  0  0  0  0  0  0
  -27.9345    5.0761  -12.5851 N   0  0  0  0  0  0  0  0  0  0  0  0
  -26.4430    0.7764  -12.3961 O   0  0  0  0  0  0  0  0  0  0  0  0
  -27.7617    1.1421  -11.9728 C   0  0  2  0  0  0  0  0  0  0  0  0
  -26.1157    6.0830  -15.4379 N   0  0  0  0  0  0  0  0  0  0  0  0
  -28.4187   -1.1020  -12.3965 O   0  0  0  0  0  0  0  0  0  0  0  0
  -28.5607    0.0163  -11.5045 C   0  0  2  0  0  0  0  0  0  0  0  0
  -27.7344    4.9890  -13.9091 C   0  0  0  0  0  0  0  0  0  0  0  0
  -27.8085    3.1760  -15.6035 N   0  0  0  0  0  0  0  0  0  0  0  0
  -31.7043    1.6327  -10.7024 O   0  0  0  0  0  0  0  0  0  0  0  0
  -30.3868    1.2690  -10.4460 C   0  0  0  0  0  0  0  0  0  0  0  0
  -32.8065    1.0831   -8.5721 O   0  0  0  0  0  0  0  0  0  0  0  0
  -28.2721    3.8508  -12.1399 C   0  0  0  0  0  0  0  0  0  0  0  0
  -28.1210    7.0545  -14.9681 O   0  0  0  0  0  0  0  0  0  0  0  0
  -27.3580    6.1036  -14.7982 C   0  0  0  0  0  0  0  0  0  0  0  0
  -27.9397    3.6951  -14.2950 C   0  0  0  0  0  0  0  0  0  0  0  0
  -31.7946    3.4231   -8.9565 O   0  5  0  0  0  0  0  0  0  0  0  0
  -33.7343    2.9701  -10.1025 O   0  0  0  0  0  0  0  0  0  0  0  0
  1 17  1  0  0  0  0
  1 20  1  0  0  0  0
  2 15  1  1  0  0  0
  2  3  1  0  0  0  0
  2 11  1  0  0  0  0
  3  5  1  0  0  0  0
  4 16  1  1  0  0  0
  4 21  1  0  0  0  0
  4 22  2  0  0  0  0
  4 14  1  0  0  0  0
  5  1  1  1  0  0  0
  5  8  1  0  0  0  0
  6 17  2  0  0  0  0
  6 12  1  0  0  0  0
  8  7  1  6  0  0  0
  8 11  1  0  0  0  0
  9 19  1  0  0  0  0
 11 10  1  6  0  0  0
 12 20  2  0  0  0  0
 12 19  1  0  0  0  0
 13 20  1  0  0  0  0
 14 15  1  0  0  0  0
 18 19  2  0  0  0  0
M  CHG  1  21  -1
M  END
>  <CHROM.1>
66.85308016,66.75988467,-71.39948105,171.82236467,114.93742881,-29.45615881
2.66015452,-12.09901388,-0.63265096,-0.64973801,2.84166138

>  <Name>
ligand

>  <RI>
0

>  <Rbt.Current_Directory>
/home/itssahil/PROJECTS/Mol_Feturizer/New_Systems/rnas/4XWF

>  <Rbt.Executable>
rbdock ($Id: //depot/dev/client3/rdock/2013.1/src/exe/rbdock.cxx#4 $)

>  <Rbt.Library>
libRbt.so (2013.1, Build901 2013/11/27)

>  <Rbt.Parameter_File>
/export/apps/rDock/src/rDock_2013.1_src/data/scripts/dock_solv.prm

>  <Rbt.Receptor>
prm/pocket_docking_4.prm

>  <SCORE>
-5.50621

>  <SCORE.INTER>
-4.67091

>  <SCORE.INTER.CONST>
1

>  <SCORE.INTER.POLAR>
0

>  <SCORE.INTER.ROT>
5

>  <SCORE.INTER.SOLV>
15.121

>  <SCORE.INTER.VDW>
-15.0876

>  <SCORE.INTER.norm>
-0.212314

>  <SCORE.INTRA>
-0.837256

>  <SCORE.INTRA.DIHEDRAL>
-1.19523

>  <SCORE.INTRA.DIHEDRAL.0>
3.49807

>  <SCORE.INTRA.POLAR>
0

>  <SCORE.INTRA.POLAR.0>
0

>  <SCORE.INTRA.REPUL>
0

>  <SCORE.INTRA.REPUL.0>
0

>  <SCORE.INTRA.SOLV>
-0.990577

>  <SCORE.INTRA.SOLV.lig_0>
-73.062

>  <SCORE.INTRA.VDW>
0.255647

>  <SCORE.INTRA.VDW.0>
-1.83782

>  <SCORE.INTRA.norm>
-0.0380571

>  <SCORE.RESTR>
0.00195947

>  <SCORE.RESTR.CAVITY>
0.00195947

>  <SCORE.RESTR.norm>
8.90668e-05

>  <SCORE.SYSTEM>
0

>  <SCORE.SYSTEM.CONST>
0

>  <SCORE.SYSTEM.DIHEDRAL>
0

>  <SCORE.SYSTEM.SOLV>
0

>  <SCORE.SYSTEM.norm>
0

>  <SCORE.heavy>
22

>  <SCORE.norm>
-0.250282

>  <RMSD>
6.695

$$$$
ligand
 OpenBabel11021811513D
libRbt.so/2013.1/901 2013/11/27
 22 23  0  0  0  0  0  0  0  0999 V2000
  -28.8435    0.8590  -12.5591 N   0  0  0  0  0  0  0  0  0  0  0  0
  -30.8947    0.8372   -9.8675 C   0  0  1  0  0  0  0  0  0  0  0  0
  -30.5216    0.1981  -11.1215 O   0  0  0  0  0  0  0  0  0  0  0  0
  -32.9763    3.8764   -8.9823 P   0  0  1  0  0  0  0  0  0  0  0  0
  -29.1052    0.3609  -11.2995 C   0  0  2  0  0  0  0  0  0  0  0  0
  -29.1313    1.7851  -14.5009 N   0  0  0  0  0  0  0  0  0  0  0  0
  -27.3373    1.3110  -10.0083 O   0  0  0  0  0  0  0  0  0  0  0  0
  -28.7256    1.4239  -10.3422 C   0  0  2  0  0  0  0  0  0  0  0  0
  -25.5791    2.3810  -14.9439 N   0  0  0  0  0  0  0  0  0  0  0  0
  -29.1944    0.0601   -8.4534 O   0  0  0  0  0  0  0  0  0  0  0  0
  -29.6202    1.2042   -9.2123 C   0  0  2  0  0  0  0  0  0  0  0  0
  -27.8261    1.5082  -14.3581 C   0  0  0  0  0  0  0  0  0  0  0  0
  -26.4043    0.5049  -12.5874 N   0  0  0  0  0  0  0  0  0  0  0  0
  -32.1444    2.5474   -8.9960 O   0  0  0  0  0  0  0  0  0  0  0  0
  -31.6985    2.0432  -10.2129 C   0  0  0  0  0  0  0  0  0  0  0  0
  -31.9740    4.9335   -9.5724 O   0  0  0  0  0  0  0  0  0  0  0  0
  -29.7621    1.3750  -13.3840 C   0  0  0  0  0  0  0  0  0  0  0  0
  -26.9455    1.5036  -16.5403 O   0  0  0  0  0  0  0  0  0  0  0  0
  -26.7736    1.7828  -15.3539 C   0  0  0  0  0  0  0  0  0  0  0  0
  -27.6366    0.9276  -13.1365 C   0  0  0  0  0  0  0  0  0  0  0  0
  -34.2259    3.6951   -9.7783 O   0  5  0  0  0  0  0  0  0  0  0  0
  -33.5190    4.1390   -7.6372 O   0  0  0  0  0  0  0  0  0  0  0  0
  1 17  1  0  0  0  0
  1 20  1  0  0  0  0
  2 15  1  6  0  0  0
  2  3  1  0  0  0  0
  2 11  1  0  0  0  0
  3  5  1  0  0  0  0
  4 16  1  6  0  0  0
  4 21  1  0  0  0  0
  4 22  2  0  0  0  0
  4 14  1  0  0  0  0
  5  1  1  6  0  0  0
  5  8  1  0  0  0  0
  6 17  2  0  0  0  0
  6 12  1  0  0  0  0
  8  7  1  1  0  0  0
  8 11  1  0  0  0  0
  9 19  1  0  0  0  0
 11 10  1  1  0  0  0
 12 20  2  0  0  0  0
 12 19  1  0  0  0  0
 13 20  1  0  0  0  0
 14 15  1  0  0  0  0
 18 19  2  0  0  0  0
M  CHG  1  21  -1
M  END
>  <CHROM.1>
12.89872223,174.28280727,-61.98055569,177.06013821,133.57152878,-29.85268180
1.93646777,-11.25755704,-0.55546169,-0.61914805,1.96817998

>  <Name>
ligand

>  <RI>
0

>  <Rbt.Current_Directory>
/home/itssahil/PROJECTS/Mol_Feturizer/New_Systems/rnas/4XWF

>  <Rbt.Executable>
rbdock ($Id: //depot/dev/client3/rdock/2013.1/src/exe/rbdock.cxx#4 $)

>  <Rbt.Library>
libRbt.so (2013.1, Build901 2013/11/27)

>  <Rbt.Parameter_File>
/export/apps/rDock/src/rDock_2013.1_src/data/scripts/dock_solv.prm

>  <Rbt.Receptor>
prm/pocket_docking_4.prm

>  <SCORE>
-6.64333

>  <SCORE.INTER>
-6.2437

>  <SCORE.INTER.CONST>
1

>  <SCORE.INTER.POLAR>
0

>  <SCORE.INTER.ROT>
5

>  <SCORE.INTER.SOLV>
13.789

>  <SCORE.INTER.VDW>
-15.6921

>  <SCORE.INTER.norm>
-0.283805

>  <SCORE.INTRA>
-0.399631

>  <SCORE.INTRA.DIHEDRAL>
-1.62386

>  <SCORE.INTRA.DIHEDRAL.0>
3.49807

>  <SCORE.INTRA.POLAR>
0

>  <SCORE.INTRA.POLAR.0>
0

>  <SCORE.INTRA.REPUL>
0

>  <SCORE.INTRA.REPUL.0>
0

>  <SCORE.INTRA.SOLV>
0.887788

>  <SCORE.INTRA.SOLV.lig_0>
-73.062

>  <SCORE.INTRA.VDW>
-0.0315951

>  <SCORE.INTRA.VDW.0>
-1.83782

>  <SCORE.INTRA.norm>
-0.0181651

>  <SCORE.RESTR>
0

>  <SCORE.RESTR.CAVITY>
0

>  <SCORE.RESTR.norm>
0

>  <SCORE.SYSTEM>
0

>  <SCORE.SYSTEM.CONST>
0

>  <SCORE.SYSTEM.DIHEDRAL>
0

>  <SCORE.SYSTEM.SOLV>
0

>  <SCORE.SYSTEM.norm>
0

>  <SCORE.heavy>
22

>  <SCORE.norm>
-0.30197

>  <RMSD>
6.715

$$$$
ligand
 OpenBabel11021811513D
libRbt.so/2013.1/901 2013/11/27
 22 23  0  0  0  0  0  0  0  0999 V2000
  -28.7555    0.8166  -12.9216 N   0  0  0  0  0  0  0  0  0  0  0  0
  -30.6035    0.8491  -10.0868 C   0  0  1  0  0  0  0  0  0  0  0  0
  -30.3511    0.2102  -11.3705 O   0  0  0  0  0  0  0  0  0  0  0  0
  -32.7253    3.8092   -9.0408 P   0  0  1  0  0  0  0  0  0  0  0  0
  -28.9458    0.3146  -11.6508 C   0  0  2  0  0  0  0  0  0  0  0  0
  -29.1145    1.8544  -14.7938 N   0  0  0  0  0  0  0  0  0  0  0  0
  -27.0486    1.1727  -10.4844 O   0  0  0  0  0  0  0  0  0  0  0  0
  -28.4515    1.3487  -10.7143 C   0  0  2  0  0  0  0  0  0  0  0  0
  -25.6937    2.1850  -15.7038 N   0  0  0  0  0  0  0  0  0  0  0  0
  -28.8397   -0.0171   -8.8087 O   0  0  0  0  0  0  0  0  0  0  0  0
  -29.2698    1.1534   -9.5238 C   0  0  2  0  0  0  0  0  0  0  0  0
  -27.8626    1.3717  -14.8157 C   0  0  0  0  0  0  0  0  0  0  0  0
  -26.4240    0.0878  -13.2519 N   0  0  0  0  0  0  0  0  0  0  0  0
  -31.8507    2.5104   -9.1221 O   0  0  0  0  0  0  0  0  0  0  0  0
  -31.3773    2.0925  -10.3611 C   0  0  0  0  0  0  0  0  0  0  0  0
  -33.9646    3.4647   -9.9440 O   0  0  0  0  0  0  0  0  0  0  0  0
  -29.6691    1.5027  -13.6181 C   0  0  0  0  0  0  0  0  0  0  0  0
  -27.1632    1.0744  -17.0428 O   0  0  0  0  0  0  0  0  0  0  0  0
  -26.9022    1.5190  -15.9250 C   0  0  0  0  0  0  0  0  0  0  0  0
  -27.6281    0.7195  -13.6389 C   0  0  0  0  0  0  0  0  0  0  0  0
  -33.0590    4.1017   -7.6156 O   0  5  0  0  0  0  0  0  0  0  0  0
  -31.9327    4.9966   -9.4077 O   0  0  0  0  0  0  0  0  0  0  0  0
  1 17  1  0  0  0  0
  1 20  1  0  0  0  0
  2 15  1  6  0  0  0
  2  3  1  0  0  0  0
  2 11  1  0  0  0  0
  3  5  1  0  0  0  0
  4 16  1  6  0  0  0
  4 21  1  0  0  0  0
  4 22  2  0  0  0  0
  4 14  1  0  0  0  0
  5  1  1  6  0  0  0
  5  8  1  0  0  0  0
  6 17  2  0  0  0  0
  6 12  1  0  0  0  0
  8  7  1  1  0  0  0
  8 11  1  0  0  0  0
  9 19  1  0  0  0  0
 11 10  1  6  0  0  0
 12 20  2  0  0  0  0
 12 19  1  0  0  0  0
 13 20  1  0  0  0  0
 14 15  1  0  0  0  0
 18 19  2  0  0  0  0
M  CHG  1  21  -1
M  END
>  <CHROM.1>
20.13222513,167.15728283,60.42041352,-179.74745088,119.26817108,-29.69609626
1.84091765,-11.55398681,-0.64468679,-0.64676484,1.88621461

>  <Name>
ligand

>  <RI>
0

>  <Rbt.Current_Directory>
/home/itssahil/PROJECTS/Mol_Feturizer/New_Systems/rnas/4XWF

>  <Rbt.Executable>
rbdock ($Id: //depot/dev/client3/rdock/2013.1/src/exe/rbdock.cxx#4 $)

>  <Rbt.Library>
libRbt.so (2013.1, Build901 2013/11/27)

>  <Rbt.Parameter_File>
/export/apps/rDock/src/rDock_2013.1_src/data/scripts/dock_solv.prm

>  <Rbt.Receptor>
prm/pocket_docking_5.prm

>  <SCORE>
-8.47689

>  <SCORE.INTER>
-7.72759

>  <SCORE.INTER.CONST>
1

>  <SCORE.INTER.POLAR>
0

>  <SCORE.INTER.ROT>
5

>  <SCORE.INTER.SOLV>
11.809

>  <SCORE.INTER.VDW>
-16.0214

>  <SCORE.INTER.norm>
-0.351254

>  <SCORE.INTRA>
-0.749304

>  <SCORE.INTRA.DIHEDRAL>
-1.46863

>  <SCORE.INTRA.DIHEDRAL.0>
3.49807

>  <SCORE.INTRA.POLAR>
0

>  <SCORE.INTRA.POLAR.0>
0

>  <SCORE.INTRA.REPUL>
0

>  <SCORE.INTRA.REPUL.0>
0

>  <SCORE.INTRA.SOLV>
0.443279

>  <SCORE.INTRA.SOLV.lig_0>
-73.062

>  <SCORE.INTRA.VDW>
-0.23663

>  <SCORE.INTRA.VDW.0>
-1.83782

>  <SCORE.INTRA.norm>
-0.0340593

>  <SCORE.RESTR>
0

>  <SCORE.RESTR.CAVITY>
0

>  <SCORE.RESTR.norm>
0

>  <SCORE.SYSTEM>
0

>  <SCORE.SYSTEM.CONST>
0

>  <SCORE.SYSTEM.DIHEDRAL>
0

>  <SCORE.SYSTEM.SOLV>
0

>  <SCORE.SYSTEM.norm>
0

>  <SCORE.heavy>
22

>  <SCORE.norm>
-0.385313

>  <RMSD>
6.738

$$$$
ligand
 OpenBabel11021811513D
libRbt.so/2013.1/901 2013/11/27
 22 23  0  0  0  0  0  0  0  0999 V2000
  -28.7401    0.8080  -12.9297 N   0  0  0  0  0  0  0  0  0  0  0  0
  -30.5677    0.8250  -10.0815 C   0  0  1  0  0  0  0  0  0  0  0  0
  -30.3172    0.1863  -11.3657 O   0  0  0  0  0  0  0  0  0  0  0  0
  -32.7101    3.7663   -9.0248 P   0  0  1  0  0  0  0  0  0  0  0  0
  -28.9153    0.3066  -11.6564 C   0  0  2  0  0  0  0  0  0  0  0  0
  -29.1248    1.8378  -14.8012 N   0  0  0  0  0  0  0  0  0  0  0  0
  -27.0199    1.1895  -10.5058 O   0  0  0  0  0  0  0  0  0  0  0  0
  -28.4264    1.3485  -10.7258 C   0  0  2  0  0  0  0  0  0  0  0  0
  -25.7027    2.1798  -15.7309 N   0  0  0  0  0  0  0  0  0  0  0  0
  -28.7846   -0.0174   -8.8145 O   0  0  0  0  0  0  0  0  0  0  0  0
  -29.2336    1.1463   -9.5289 C   0  0  2  0  0  0  0  0  0  0  0  0
  -27.8679    1.3689  -14.8317 C   0  0  0  0  0  0  0  0  0  0  0  0
  -26.4034    0.1042  -13.2762 N   0  0  0  0  0  0  0  0  0  0  0  0
  -31.8034    2.4898   -9.1079 O   0  0  0  0  0  0  0  0  0  0  0  0
  -31.3581    2.0586  -10.3527 C   0  0  0  0  0  0  0  0  0  0  0  0
  -33.9399    3.3927   -9.9294 O   0  0  0  0  0  0  0  0  0  0  0  0
  -29.6665    1.4825  -13.6206 C   0  0  0  0  0  0  0  0  0  0  0  0
  -27.1926    1.0960  -17.0692 O   0  0  0  0  0  0  0  0  0  0  0  0
  -26.9176    1.5244  -15.9485 C   0  0  0  0  0  0  0  0  0  0  0  0
  -27.6173    0.7218  -13.6553 C   0  0  0  0  0  0  0  0  0  0  0  0
  -33.0518    4.0478   -7.5993 O   0  5  0  0  0  0  0  0  0  0  0  0
  -31.9470    4.9737   -9.3890 O   0  0  0  0  0  0  0  0  0  0  0  0
  1 17  1  0  0  0  0
  1 20  1  0  0  0  0
  2 15  1  6  0  0  0
  2  3  1  0  0  0  0
  2 11  1  0  0  0  0
  3  5  1  0  0  0  0
  4 16  1  6  0  0  0
  4 21  1  0  0  0  0
  4 22  2  0  0  0  0
  4 14  1  0  0  0  0
  5  1  1  6  0  0  0
  5  8  1  0  0  0  0
  6 17  2  0  0  0  0
  6 12  1  0  0  0  0
  8  7  1  1  0  0  0
  8 11  1  0  0  0  0
  9 19  1  0  0  0  0
 11 10  1  6  0  0  0
 12 20  2  0  0  0  0
 12 19  1  0  0  0  0
 13 20  1  0  0  0  0
 14 15  1  0  0  0  0
 18 19  2  0  0  0  0
M  CHG  1  21  -1
M  END
>  <CHROM.1>
20.17919749,168.39990444,58.15609293,-178.51971529,120.59600343,-29.68089908
1.82519132,-11.55703515,-0.65849418,-0.63855738,1.87556125

>  <Name>
ligand

>  <RI>
0

>  <Rbt.Current_Directory>
/home/itssahil/PROJECTS/Mol_Feturizer/New_Systems/rnas/4XWF

>  <Rbt.Executable>
rbdock ($Id: //depot/dev/client3/rdock/2013.1/src/exe/rbdock.cxx#4 $)

>  <Rbt.Library>
libRbt.so (2013.1, Build901 2013/11/27)

>  <Rbt.Parameter_File>
/export/apps/rDock/src/rDock_2013.1_src/data/scripts/dock_solv.prm

>  <Rbt.Receptor>
prm/pocket_docking_5.prm

>  <SCORE>
-8.48005

>  <SCORE.INTER>
-7.71938

>  <SCORE.INTER.CONST>
1

>  <SCORE.INTER.POLAR>
0

>  <SCORE.INTER.ROT>
5

>  <SCORE.INTER.SOLV>
11.6771

>  <SCORE.INTER.VDW>
-15.9719

>  <SCORE.INTER.norm>
-0.350881

>  <SCORE.INTRA>
-0.760675

>  <SCORE.INTRA.DIHEDRAL>
-1.54134

>  <SCORE.INTRA.DIHEDRAL.0>
3.49807

>  <SCORE.INTRA.POLAR>
0

>  <SCORE.INTRA.POLAR.0>
0

>  <SCORE.INTRA.REPUL>
0

>  <SCORE.INTRA.REPUL.0>
0

>  <SCORE.INTRA.SOLV>
0.422196

>  <SCORE.INTRA.SOLV.lig_0>
-73.062

>  <SCORE.INTRA.VDW>
-0.201104

>  <SCORE.INTRA.VDW.0>
-1.83782

>  <SCORE.INTRA.norm>
-0.0345762

>  <SCORE.RESTR>
0

>  <SCORE.RESTR.CAVITY>
0

>  <SCORE.RESTR.norm>
0

>  <SCORE.SYSTEM>
0

>  <SCORE.SYSTEM.CONST>
0

>  <SCORE.SYSTEM.DIHEDRAL>
0

>  <SCORE.SYSTEM.SOLV>
0

>  <SCORE.SYSTEM.norm>
0

>  <SCORE.heavy>
22

>  <SCORE.norm>
-0.385457

>  <RMSD>
6.740

$$$$
ligand
 OpenBabel11021811513D
libRbt.so/2013.1/901 2013/11/27
 22 23  0  0  0  0  0  0  0  0999 V2000
  -29.1562   -0.3244   -8.8481 N   0  0  0  0  0  0  0  0  0  0  0  0
  -30.2629    2.2417  -10.7568 C   0  0  1  0  0  0  0  0  0  0  0  0
  -29.4957    1.8334   -9.5886 O   0  0  0  0  0  0  0  0  0  0  0  0
  -33.3920    3.5801   -9.0916 P   0  0  1  0  0  0  0  0  0  0  0  0
  -28.8945    0.5601   -9.8740 C   0  0  2  0  0  0  0  0  0  0  0  0
  -30.2347   -1.6076   -7.4692 N   0  0  0  0  0  0  0  0  0  0  0  0
  -28.8151   -0.8844  -11.7722 O   0  0  0  0  0  0  0  0  0  0  0  0
  -29.6260    0.0558  -11.0578 C   0  0  2  0  0  0  0  0  0  0  0  0
  -27.4925   -3.6613   -6.5786 N   0  0  0  0  0  0  0  0  0  0  0  0
  -28.7463    1.7486  -12.4748 O   0  0  0  0  0  0  0  0  0  0  0  0
  -29.9281    1.2641  -11.8153 C   0  0  2  0  0  0  0  0  0  0  0  0
  -28.9219   -1.7394   -7.2246 C   0  0  0  0  0  0  0  0  0  0  0  0
  -26.8318   -0.8004   -8.1803 N   0  0  0  0  0  0  0  0  0  0  0  0
  -31.9614    3.3474   -9.6897 O   0  0  0  0  0  0  0  0  0  0  0  0
  -31.7031    2.1694  -10.3821 C   0  0  0  0  0  0  0  0  0  0  0  0
  -33.3472    5.0810   -8.6273 O   0  0  0  0  0  0  0  0  0  0  0  0
  -30.3777   -0.7231   -8.4745 C   0  0  0  0  0  0  0  0  0  0  0  0
  -28.5547   -2.4109   -4.9994 O   0  0  0  0  0  0  0  0  0  0  0  0
  -28.3208   -2.6041   -6.1923 C   0  0  0  0  0  0  0  0  0  0  0  0
  -28.2361   -0.9367   -8.0911 C   0  0  0  0  0  0  0  0  0  0  0  0
  -34.4242    3.2822  -10.1278 O   0  5  0  0  0  0  0  0  0  0  0  0
  -33.7012    2.5662   -8.0673 O   0  0  0  0  0  0  0  0  0  0  0  0
  1 17  1  0  0  0  0
  1 20  1  0  0  0  0
  2 15  1  1  0  0  0
  2  3  1  0  0  0  0
  2 11  1  0  0  0  0
  3  5  1  0  0  0  0
  4 16  1  1  0  0  0
  4 21  1  0  0  0  0
  4 22  2  0  0  0  0
  4 14  1  0  0  0  0
  5  1  1  1  0  0  0
  5  8  1  0  0  0  0
  6 17  2  0  0  0  0
  6 12  1  0  0  0  0
  8  7  1  6  0  0  0
  8 11  1  0  0  0  0
  9 19  1  0  0  0  0
 11 10  1  1  0  0  0
 12 20  2  0  0  0  0
 12 19  1  0  0  0  0
 13 20  1  0  0  0  0
 14 15  1  0  0  0  0
 18 19  2  0  0  0  0
M  CHG  1  21  -1
M  END
>  <CHROM.1>
61.45730499,81.16813924,-170.61046948,-177.63212432,116.61624076,-30.36188033
0.80915059,-9.09790845,-0.64681579,0.67675055,-1.08641637

>  <Name>
ligand

>  <RI>
0

>  <Rbt.Current_Directory>
/home/itssahil/PROJECTS/Mol_Feturizer/New_Systems/rnas/4XWF

>  <Rbt.Executable>
rbdock ($Id: //depot/dev/client3/rdock/2013.1/src/exe/rbdock.cxx#4 $)

>  <Rbt.Library>
libRbt.so (2013.1, Build901 2013/11/27)

>  <Rbt.Parameter_File>
/export/apps/rDock/src/rDock_2013.1_src/data/scripts/dock_solv.prm

>  <Rbt.Receptor>
prm/pocket_docking_8.prm

>  <SCORE>
-7.94809

>  <SCORE.INTER>
-7.65138

>  <SCORE.INTER.CONST>
1

>  <SCORE.INTER.POLAR>
0

>  <SCORE.INTER.ROT>
5

>  <SCORE.INTER.SOLV>
19.411

>  <SCORE.INTER.VDW>
-18.5046

>  <SCORE.INTER.norm>
-0.34779

>  <SCORE.INTRA>
-0.296715

>  <SCORE.INTRA.DIHEDRAL>
-0.376004

>  <SCORE.INTRA.DIHEDRAL.0>
3.49807

>  <SCORE.INTRA.POLAR>
0

>  <SCORE.INTRA.POLAR.0>
0

>  <SCORE.INTRA.REPUL>
0

>  <SCORE.INTRA.REPUL.0>
0

>  <SCORE.INTRA.SOLV>
-0.309

>  <SCORE.INTRA.SOLV.lig_0>
-73.062

>  <SCORE.INTRA.VDW>
0.0457872

>  <SCORE.INTRA.VDW.0>
-1.83782

>  <SCORE.INTRA.norm>
-0.013487

>  <SCORE.RESTR>
0

>  <SCORE.RESTR.CAVITY>
0

>  <SCORE.RESTR.norm>
0

>  <SCORE.SYSTEM>
0

>  <SCORE.SYSTEM.CONST>
0

>  <SCORE.SYSTEM.DIHEDRAL>
0

>  <SCORE.SYSTEM.SOLV>
0

>  <SCORE.SYSTEM.norm>
0

>  <SCORE.heavy>
22

>  <SCORE.norm>
-0.361277

>  <RMSD>
6.742

$$$$
ligand
 OpenBabel11021811513D
libRbt.so/2013.1/901 2013/11/27
 22 23  0  0  0  0  0  0  0  0999 V2000
  -29.0129    0.6371  -12.1388 N   0  0  0  0  0  0  0  0  0  0  0  0
  -31.0313    0.8881   -9.4341 C   0  0  1  0  0  0  0  0  0  0  0  0
  -30.6335    0.0962  -10.5894 O   0  0  0  0  0  0  0  0  0  0  0  0
  -33.2253    3.9343   -8.9513 P   0  0  1  0  0  0  0  0  0  0  0  0
  -29.2313    0.3131  -10.8158 C   0  0  2  0  0  0  0  0  0  0  0  0
  -29.3611    1.3203  -14.1694 N   0  0  0  0  0  0  0  0  0  0  0  0
  -27.5104    1.5416   -9.7089 O   0  0  0  0  0  0  0  0  0  0  0  0
  -28.9064    1.5242  -10.0294 C   0  0  2  0  0  0  0  0  0  0  0  0
  -27.4012    1.6783  -16.3451 N   0  0  0  0  0  0  0  0  0  0  0  0
  -29.2731    0.4245   -7.9549 O   0  0  0  0  0  0  0  0  0  0  0  0
  -29.7745    1.4196   -8.8630 C   0  0  2  0  0  0  0  0  0  0  0  0
  -28.0604    1.0134  -14.0478 C   0  0  0  0  0  0  0  0  0  0  0  0
  -26.5907    0.1881  -12.2251 N   0  0  0  0  0  0  0  0  0  0  0  0
  -32.3967    2.6124   -8.7948 O   0  0  0  0  0  0  0  0  0  0  0  0
  -31.9096    1.9826   -9.9349 C   0  0  0  0  0  0  0  0  0  0  0  0
  -32.1737    4.9513   -9.5262 O   0  0  0  0  0  0  0  0  0  0  0  0
  -29.9517    1.0798  -12.9833 C   0  0  0  0  0  0  0  0  0  0  0  0
  -25.9023    0.7052  -14.9337 O   0  0  0  0  0  0  0  0  0  0  0  0
  -27.0475    1.1186  -15.1144 C   0  0  0  0  0  0  0  0  0  0  0  0
  -27.8328    0.5853  -12.7710 C   0  0  0  0  0  0  0  0  0  0  0  0
  -34.3998    3.6887   -9.8392 O   0  5  0  0  0  0  0  0  0  0  0  0
  -33.8846    4.2910   -7.6821 O   0  0  0  0  0  0  0  0  0  0  0  0
  1 17  1  0  0  0  0
  1 20  1  0  0  0  0
  2 15  1  6  0  0  0
  2  3  1  0  0  0  0
  2 11  1  0  0  0  0
  3  5  1  0  0  0  0
  4 16  1  6  0  0  0
  4 21  1  0  0  0  0
  4 22  2  0  0  0  0
  4 14  1  0  0  0  0
  5  1  1  6  0  0  0
  5  8  1  0  0  0  0
  6 17  2  0  0  0  0
  6 12  1  0  0  0  0
  8  7  1  1  0  0  0
  8 11  1  0  0  0  0
  9 19  1  0  0  0  0
 11 10  1  1  0  0  0
 12 20  2  0  0  0  0
 12 19  1  0  0  0  0
 13 20  1  0  0  0  0
 14 15  1  0  0  0  0
 18 19  2  0  0  0  0
M  CHG  1  21  -1
M  END
>  <CHROM.1>
18.70728722,172.95945590,-65.58334026,172.58273877,5.36773764,-30.05899229
1.81003797,-10.99488522,-0.58397886,-0.59497051,1.80979389

>  <Name>
ligand

>  <RI>
0

>  <Rbt.Current_Directory>
/home/itssahil/PROJECTS/Mol_Feturizer/New_Systems/rnas/4XWF

>  <Rbt.Executable>
rbdock ($Id: //depot/dev/client3/rdock/2013.1/src/exe/rbdock.cxx#4 $)

>  <Rbt.Library>
libRbt.so (2013.1, Build901 2013/11/27)

>  <Rbt.Parameter_File>
/export/apps/rDock/src/rDock_2013.1_src/data/scripts/dock_solv.prm

>  <Rbt.Receptor>
prm/pocket_docking_4.prm

>  <SCORE>
-7.48735

>  <SCORE.INTER>
-6.9649

>  <SCORE.INTER.CONST>
1

>  <SCORE.INTER.POLAR>
0

>  <SCORE.INTER.ROT>
5

>  <SCORE.INTER.SOLV>
16.0915

>  <SCORE.INTER.VDW>
-16.9404

>  <SCORE.INTER.norm>
-0.316586

>  <SCORE.INTRA>
-0.522449

>  <SCORE.INTRA.DIHEDRAL>
-1.46793

>  <SCORE.INTRA.DIHEDRAL.0>
3.49807

>  <SCORE.INTRA.POLAR>
0

>  <SCORE.INTRA.POLAR.0>
0

>  <SCORE.INTRA.REPUL>
0

>  <SCORE.INTRA.REPUL.0>
0

>  <SCORE.INTRA.SOLV>
0.524355

>  <SCORE.INTRA.SOLV.lig_0>
-73.062

>  <SCORE.INTRA.VDW>
-0.0506641

>  <SCORE.INTRA.VDW.0>
-1.83782

>  <SCORE.INTRA.norm>
-0.0237477

>  <SCORE.RESTR>
0

>  <SCORE.RESTR.CAVITY>
0

>  <SCORE.RESTR.norm>
0

>  <SCORE.SYSTEM>
0

>  <SCORE.SYSTEM.CONST>
0

>  <SCORE.SYSTEM.DIHEDRAL>
0

>  <SCORE.SYSTEM.SOLV>
0

>  <SCORE.SYSTEM.norm>
0

>  <SCORE.heavy>
22

>  <SCORE.norm>
-0.340334

>  <RMSD>
6.745

$$$$
ligand
 OpenBabel11021811513D
libRbt.so/2013.1/901 2013/11/27
 22 23  0  0  0  0  0  0  0  0999 V2000
  -28.7693    0.8282  -13.0333 N   0  0  0  0  0  0  0  0  0  0  0  0
  -30.5288    0.8753  -10.1429 C   0  0  1  0  0  0  0  0  0  0  0  0
  -30.3235    0.2366  -11.4351 O   0  0  0  0  0  0  0  0  0  0  0  0
  -32.7481    3.7475   -9.0575 P   0  0  1  0  0  0  0  0  0  0  0  0
  -28.9263    0.3254  -11.7583 C   0  0  2  0  0  0  0  0  0  0  0  0
  -29.1827    1.8553  -14.9002 N   0  0  0  0  0  0  0  0  0  0  0  0
  -26.9844    1.1587  -10.6491 O   0  0  0  0  0  0  0  0  0  0  0  0
  -28.3915    1.3515  -10.8353 C   0  0  2  0  0  0  0  0  0  0  0  0
  -25.7887    2.2515  -15.8764 N   0  0  0  0  0  0  0  0  0  0  0  0
  -28.7368   -0.0142   -8.9215 O   0  0  0  0  0  0  0  0  0  0  0  0
  -29.1750    1.1628   -9.6206 C   0  0  2  0  0  0  0  0  0  0  0  0
  -27.9228    1.3959  -14.9449 C   0  0  0  0  0  0  0  0  0  0  0  0
  -26.4314    0.1420  -13.4063 N   0  0  0  0  0  0  0  0  0  0  0  0
  -31.8114    2.4935   -9.1519 O   0  0  0  0  0  0  0  0  0  0  0  0
  -31.2962    2.1281  -10.3908 C   0  0  0  0  0  0  0  0  0  0  0  0
  -33.9969    3.3280   -9.9148 O   0  0  0  0  0  0  0  0  0  0  0  0
  -29.7084    1.4958  -13.7136 C   0  0  0  0  0  0  0  0  0  0  0  0
  -27.2582    1.1033  -17.1832 O   0  0  0  0  0  0  0  0  0  0  0  0
  -26.9863    1.5586  -16.0724 C   0  0  0  0  0  0  0  0  0  0  0  0
  -27.6541    0.7505  -13.7716 C   0  0  0  0  0  0  0  0  0  0  0  0
  -33.0498    4.0425   -7.6258 O   0  5  0  0  0  0  0  0  0  0  0  0
  -32.0295    4.9682   -9.4651 O   0  0  0  0  0  0  0  0  0  0  0  0
  1 17  1  0  0  0  0
  1 20  1  0  0  0  0
  2 15  1  6  0  0  0
  2  3  1  0  0  0  0
  2 11  1  0  0  0  0
  3  5  1  0  0  0  0
  4 16  1  6  0  0  0
  4 21  1  0  0  0  0
  4 22  2  0  0  0  0
  4 14  1  0  0  0  0
  5  1  1  6  0  0  0
  5  8  1  0  0  0  0
  6 17  2  0  0  0  0
  6 12  1  0  0  0  0
  8  7  1  1  0  0  0
  8 11  1  0  0  0  0
  9 19  1  0  0  0  0
 11 10  1  6  0  0  0
 12 20  2  0  0  0  0
 12 19  1  0  0  0  0
 13 20  1  0  0  0  0
 14 15  1  0  0  0  0
 18 19  2  0  0  0  0
M  CHG  1  21  -1
M  END
>  <CHROM.1>
18.26199622,162.78528604,64.05416786,-176.81932083,119.04069284,-29.69949340
1.83787833,-11.64029438,-0.67631569,-0.62997926,1.86064029

>  <Name>
ligand

>  <RI>
0

>  <Rbt.Current_Directory>
/home/itssahil/PROJECTS/Mol_Feturizer/New_Systems/rnas/4XWF

>  <Rbt.Executable>
rbdock ($Id: //depot/dev/client3/rdock/2013.1/src/exe/rbdock.cxx#4 $)

>  <Rbt.Library>
libRbt.so (2013.1, Build901 2013/11/27)

>  <Rbt.Parameter_File>
/export/apps/rDock/src/rDock_2013.1_src/data/scripts/dock_solv.prm

>  <Rbt.Receptor>
prm/pocket_docking_5.prm

>  <SCORE>
-8.40548

>  <SCORE.INTER>
-7.89446

>  <SCORE.INTER.CONST>
1

>  <SCORE.INTER.POLAR>
0

>  <SCORE.INTER.ROT>
5

>  <SCORE.INTER.SOLV>
12.1783

>  <SCORE.INTER.VDW>
-16.2557

>  <SCORE.INTER.norm>
-0.358839

>  <SCORE.INTRA>
-0.511025

>  <SCORE.INTRA.DIHEDRAL>
-0.992413

>  <SCORE.INTRA.DIHEDRAL.0>
3.49807

>  <SCORE.INTRA.POLAR>
0

>  <SCORE.INTRA.POLAR.0>
0

>  <SCORE.INTRA.REPUL>
0

>  <SCORE.INTRA.REPUL.0>
0

>  <SCORE.INTRA.SOLV>
0.494973

>  <SCORE.INTRA.SOLV.lig_0>
-73.062

>  <SCORE.INTRA.VDW>
-0.262305

>  <SCORE.INTRA.VDW.0>
-1.83782

>  <SCORE.INTRA.norm>
-0.0232284

>  <SCORE.RESTR>
0

>  <SCORE.RESTR.CAVITY>
0

>  <SCORE.RESTR.norm>
0

>  <SCORE.SYSTEM>
0

>  <SCORE.SYSTEM.CONST>
0

>  <SCORE.SYSTEM.DIHEDRAL>
0

>  <SCORE.SYSTEM.SOLV>
0

>  <SCORE.SYSTEM.norm>
0

>  <SCORE.heavy>
22

>  <SCORE.norm>
-0.382067

>  <RMSD>
6.752

$$$$
ligand
 OpenBabel11021811513D
libRbt.so/2013.1/901 2013/11/27
 22 23  0  0  0  0  0  0  0  0999 V2000
  -29.0406    0.5987  -12.2245 N   0  0  0  0  0  0  0  0  0  0  0  0
  -31.0211    0.9157   -9.4987 C   0  0  1  0  0  0  0  0  0  0  0  0
  -30.7220    0.1611  -10.7074 O   0  0  0  0  0  0  0  0  0  0  0  0
  -33.0696    4.0284   -8.8136 P   0  0  1  0  0  0  0  0  0  0  0  0
  -29.3028    0.2148  -10.9256 C   0  0  2  0  0  0  0  0  0  0  0  0
  -29.3025    1.4335  -14.2108 N   0  0  0  0  0  0  0  0  0  0  0  0
  -27.4449    1.1382   -9.7461 O   0  0  0  0  0  0  0  0  0  0  0  0
  -28.8308    1.3186  -10.0598 C   0  0  2  0  0  0  0  0  0  0  0  0
  -27.3241    1.6583  -16.3850 N   0  0  0  0  0  0  0  0  0  0  0  0
  -29.3404    0.1343   -8.0636 O   0  0  0  0  0  0  0  0  0  0  0  0
  -29.7094    1.2445   -8.8989 C   0  0  2  0  0  0  0  0  0  0  0  0
  -28.0357    1.0049  -14.1001 C   0  0  0  0  0  0  0  0  0  0  0  0
  -26.6670   -0.0585  -12.3227 N   0  0  0  0  0  0  0  0  0  0  0  0
  -32.2791    2.6759   -8.7469 O   0  0  0  0  0  0  0  0  0  0  0  0
  -31.7528    2.1437   -9.9189 C   0  0  0  0  0  0  0  0  0  0  0  0
  -34.2520    3.7050   -9.7973 O   0  0  0  0  0  0  0  0  0  0  0  0
  -29.9264    1.1743  -13.0459 C   0  0  0  0  0  0  0  0  0  0  0  0
  -25.8745    0.6380  -14.9556 O   0  0  0  0  0  0  0  0  0  0  0  0
  -27.0047    1.0847  -15.1514 C   0  0  0  0  0  0  0  0  0  0  0  0
  -27.8623    0.4807  -12.8509 C   0  0  0  0  0  0  0  0  0  0  0  0
  -33.4972    4.4286   -7.4407 O   0  5  0  0  0  0  0  0  0  0  0  0
  -32.1732    5.1400   -9.1790 O   0  0  0  0  0  0  0  0  0  0  0  0
  1 17  1  0  0  0  0
  1 20  1  0  0  0  0
  2 15  1  6  0  0  0
  2  3  1  0  0  0  0
  2 11  1  0  0  0  0
  3  5  1  0  0  0  0
  4 16  1  6  0  0  0
  4 21  1  0  0  0  0
  4 22  2  0  0  0  0
  4 14  1  0  0  0  0
  5  1  1  6  0  0  0
  5  8  1  0  0  0  0
  6 17  2  0  0  0  0
  6 12  1  0  0  0  0
  8  7  1  1  0  0  0
  8 11  1  0  0  0  0
  9 19  1  0  0  0  0
 11 10  1  1  0  0  0
 12 20  2  0  0  0  0
 12 19  1  0  0  0  0
 13 20  1  0  0  0  0
 14 15  1  0  0  0  0
 18 19  2  0  0  0  0
M  CHG  1  21  -1
M  END
>  <CHROM.1>
16.46495097,166.97044515,59.48523363,177.33798791,0.54374680,-30.00213479
1.78374268,-10.99140951,-0.56212871,-0.66250323,1.86604163

>  <Name>
ligand

>  <RI>
0

>  <Rbt.Current_Directory>
/home/itssahil/PROJECTS/Mol_Feturizer/New_Systems/rnas/4XWF

>  <Rbt.Executable>
rbdock ($Id: //depot/dev/client3/rdock/2013.1/src/exe/rbdock.cxx#4 $)

>  <Rbt.Library>
libRbt.so (2013.1, Build901 2013/11/27)

>  <Rbt.Parameter_File>
/export/apps/rDock/src/rDock_2013.1_src/data/scripts/dock_solv.prm

>  <Rbt.Receptor>
prm/pocket_docking_7.prm

>  <SCORE>
-8.72455

>  <SCORE.INTER>
-8.28943

>  <SCORE.INTER.CONST>
1

>  <SCORE.INTER.POLAR>
0

>  <SCORE.INTER.ROT>
5

>  <SCORE.INTER.SOLV>
11.9083

>  <SCORE.INTER.VDW>
-16.4291

>  <SCORE.INTER.norm>
-0.376792

>  <SCORE.INTRA>
-0.435122

>  <SCORE.INTRA.DIHEDRAL>
-1.40852

>  <SCORE.INTRA.DIHEDRAL.0>
3.49807

>  <SCORE.INTRA.POLAR>
0

>  <SCORE.INTRA.POLAR.0>
0

>  <SCORE.INTRA.REPUL>
0

>  <SCORE.INTRA.REPUL.0>
0

>  <SCORE.INTRA.SOLV>
0.572112

>  <SCORE.INTRA.SOLV.lig_0>
-73.062

>  <SCORE.INTRA.VDW>
-0.0169184

>  <SCORE.INTRA.VDW.0>
-1.83782

>  <SCORE.INTRA.norm>
-0.0197783

>  <SCORE.RESTR>
0

>  <SCORE.RESTR.CAVITY>
0

>  <SCORE.RESTR.norm>
0

>  <SCORE.SYSTEM>
0

>  <SCORE.SYSTEM.CONST>
0

>  <SCORE.SYSTEM.DIHEDRAL>
0

>  <SCORE.SYSTEM.SOLV>
0

>  <SCORE.SYSTEM.norm>
0

>  <SCORE.heavy>
22

>  <SCORE.norm>
-0.39657

>  <RMSD>
6.753

$$$$
ligand
 OpenBabel11021811513D
libRbt.so/2013.1/901 2013/11/27
 22 23  0  0  0  0  0  0  0  0999 V2000
  -28.4155    2.5086  -14.2242 N   0  0  0  0  0  0  0  0  0  0  0  0
  -29.6589    0.3591  -11.9251 C   0  0  1  0  0  0  0  0  0  0  0  0
  -29.8719    1.0505  -13.1886 O   0  0  0  0  0  0  0  0  0  0  0  0
  -31.9157    2.5466   -9.8130 P   0  0  1  0  0  0  0  0  0  0  0  0
  -28.5975    1.1974  -13.8356 C   0  0  2  0  0  0  0  0  0  0  0  0
  -28.1496    4.6605  -14.1264 N   0  0  0  0  0  0  0  0  0  0  0  0
  -26.3657    0.5047  -13.3511 O   0  0  0  0  0  0  0  0  0  0  0  0
  -27.6030    0.9347  -12.7714 C   0  0  2  0  0  0  0  0  0  0  0  0
  -26.6897    5.0146  -17.3453 N   0  0  0  0  0  0  0  0  0  0  0  0
  -28.2107   -1.3562  -12.5996 O   0  0  0  0  0  0  0  0  0  0  0  0
  -28.2457   -0.0780  -11.9429 C   0  0  2  0  0  0  0  0  0  0  0  0
  -28.0625    4.2856  -15.4119 C   0  0  0  0  0  0  0  0  0  0  0  0
  -28.1808    2.1368  -16.6496 N   0  0  0  0  0  0  0  0  0  0  0  0
  -31.2706    1.6320  -10.9112 O   0  0  0  0  0  0  0  0  0  0  0  0
  -29.9117    1.3459  -10.8378 C   0  0  0  0  0  0  0  0  0  0  0  0
  -33.4328    2.5836  -10.2224 O   0  0  0  0  0  0  0  0  0  0  0  0
  -28.3752    3.5550  -13.3912 C   0  0  0  0  0  0  0  0  0  0  0  0
  -28.6255    6.0898  -16.8137 O   0  0  0  0  0  0  0  0  0  0  0  0
  -27.8312    5.1850  -16.5574 C   0  0  0  0  0  0  0  0  0  0  0  0
  -28.2258    2.9314  -15.4812 C   0  0  0  0  0  0  0  0  0  0  0  0
  -31.6522    1.9707   -8.4614 O   0  5  0  0  0  0  0  0  0  0  0  0
  -31.2088    3.8371   -9.7265 O   0  0  0  0  0  0  0  0  0  0  0  0
  1 17  1  0  0  0  0
  1 20  1  0  0  0  0
  2 15  1  1  0  0  0
  2  3  1  0  0  0  0
  2 11  1  0  0  0  0
  3  5  1  0  0  0  0
  4 16  1  6  0  0  0
  4 21  1  0  0  0  0
  4 22  2  0  0  0  0
  4 14  1  0  0  0  0
  5  1  1  1  0  0  0
  5  8  1  0  0  0  0
  6 17  2  0  0  0  0
  6 12  1  0  0  0  0
  8  7  1  6  0  0  0
  8 11  1  0  0  0  0
  9 19  1  0  0  0  0
 11 10  1  6  0  0  0
 12 20  2  0  0  0  0
 12 19  1  0  0  0  0
 13 20  1  0  0  0  0
 14 15  1  0  0  0  0
 18 19  2  0  0  0  0
M  CHG  1  21  -1
M  END
>  <CHROM.1>
61.44049917,66.74950917,-178.26566297,174.29361281,118.76462880,-29.33603148
2.37708779,-12.88637236,-0.74747323,-0.80373616,2.55563730

>  <Name>
ligand

>  <RI>
0

>  <Rbt.Current_Directory>
/home/itssahil/PROJECTS/Mol_Feturizer/New_Systems/rnas/4XWF

>  <Rbt.Executable>
rbdock ($Id: //depot/dev/client3/rdock/2013.1/src/exe/rbdock.cxx#4 $)

>  <Rbt.Library>
libRbt.so (2013.1, Build901 2013/11/27)

>  <Rbt.Parameter_File>
/export/apps/rDock/src/rDock_2013.1_src/data/scripts/dock_solv.prm

>  <Rbt.Receptor>
prm/pocket_docking_5.prm

>  <SCORE>
-7.59826

>  <SCORE.INTER>
-6.66807

>  <SCORE.INTER.CONST>
1

>  <SCORE.INTER.POLAR>
0

>  <SCORE.INTER.ROT>
5

>  <SCORE.INTER.SOLV>
13.8716

>  <SCORE.INTER.VDW>
-16.0026

>  <SCORE.INTER.norm>
-0.303094

>  <SCORE.INTRA>
-0.930194

>  <SCORE.INTRA.DIHEDRAL>
-1.6449

>  <SCORE.INTRA.DIHEDRAL.0>
3.49807

>  <SCORE.INTRA.POLAR>
0

>  <SCORE.INTRA.POLAR.0>
0

>  <SCORE.INTRA.REPUL>
0

>  <SCORE.INTRA.REPUL.0>
0

>  <SCORE.INTRA.SOLV>
-0.251044

>  <SCORE.INTRA.SOLV.lig_0>
-73.062

>  <SCORE.INTRA.VDW>
0.0177777

>  <SCORE.INTRA.VDW.0>
-1.83782

>  <SCORE.INTRA.norm>
-0.0422815

>  <SCORE.RESTR>
0

>  <SCORE.RESTR.CAVITY>
0

>  <SCORE.RESTR.norm>
0

>  <SCORE.SYSTEM>
0

>  <SCORE.SYSTEM.CONST>
0

>  <SCORE.SYSTEM.DIHEDRAL>
0

>  <SCORE.SYSTEM.SOLV>
0

>  <SCORE.SYSTEM.norm>
0

>  <SCORE.heavy>
22

>  <SCORE.norm>
-0.345376

>  <RMSD>
6.755

$$$$
ligand
 OpenBabel11021811513D
libRbt.so/2013.1/901 2013/11/27
 22 23  0  0  0  0  0  0  0  0999 V2000
  -29.0622    0.6181  -12.2292 N   0  0  0  0  0  0  0  0  0  0  0  0
  -31.0807    0.9162   -9.5293 C   0  0  1  0  0  0  0  0  0  0  0  0
  -30.7520    0.1583  -10.7282 O   0  0  0  0  0  0  0  0  0  0  0  0
  -33.1875    4.0003   -8.8927 P   0  0  1  0  0  0  0  0  0  0  0  0
  -29.3318    0.2393  -10.9303 C   0  0  2  0  0  0  0  0  0  0  0  0
  -29.3153    1.4379  -14.2229 N   0  0  0  0  0  0  0  0  0  0  0  0
  -27.5071    1.2101   -9.7370 O   0  0  0  0  0  0  0  0  0  0  0  0
  -28.8926    1.3595  -10.0683 C   0  0  2  0  0  0  0  0  0  0  0  0
  -27.3272    1.6465  -16.3899 N   0  0  0  0  0  0  0  0  0  0  0  0
  -29.4015    0.1810   -8.0684 O   0  0  0  0  0  0  0  0  0  0  0  0
  -29.7831    1.2767   -8.9171 C   0  0  2  0  0  0  0  0  0  0  0  0
  -28.0450    1.0238  -14.0984 C   0  0  0  0  0  0  0  0  0  0  0  0
  -26.6808   -0.0139  -12.3024 N   0  0  0  0  0  0  0  0  0  0  0  0
  -32.3695    2.6655   -8.8047 O   0  0  0  0  0  0  0  0  0  0  0  0
  -31.8323    2.1256   -9.9682 C   0  0  0  0  0  0  0  0  0  0  0  0
  -34.3411    3.6486   -9.9007 O   0  0  0  0  0  0  0  0  0  0  0  0
  -29.9467    1.1790  -13.0619 C   0  0  0  0  0  0  0  0  0  0  0  0
  -25.8661    0.6961  -14.9244 O   0  0  0  0  0  0  0  0  0  0  0  0
  -27.0056    1.1083  -15.1410 C   0  0  0  0  0  0  0  0  0  0  0  0
  -27.8771    0.5091  -12.8445 C   0  0  0  0  0  0  0  0  0  0  0  0
  -33.6533    4.3948   -7.5306 O   0  5  0  0  0  0  0  0  0  0  0  0
  -32.3077    5.1300   -9.2422 O   0  0  0  0  0  0  0  0  0  0  0  0
  1 17  1  0  0  0  0
  1 20  1  0  0  0  0
  2 15  1  6  0  0  0
  2  3  1  0  0  0  0
  2 11  1  0  0  0  0
  3  5  1  0  0  0  0
  4 16  1  6  0  0  0
  4 21  1  0  0  0  0
  4 22  2  0  0  0  0
  4 14  1  0  0  0  0
  5  1  1  6  0  0  0
  5  8  1  0  0  0  0
  6 17  2  0  0  0  0
  6 12  1  0  0  0  0
  8  7  1  1  0  0  0
  8 11  1  0  0  0  0
  9 19  1  0  0  0  0
 11 10  1  1  0  0  0
 12 20  2  0  0  0  0
 12 19  1  0  0  0  0
 13 20  1  0  0  0  0
 14 15  1  0  0  0  0
 18 19  2  0  0  0  0
M  CHG  1  21  -1
M  END
>  <CHROM.1>
17.05387725,167.67807230,58.03847785,177.57767583,-0.72522773,-30.05922040
1.79246304,-11.01795039,-0.55630540,-0.64242579,1.86077100

>  <Name>
ligand

>  <RI>
0

>  <Rbt.Current_Directory>
/home/itssahil/PROJECTS/Mol_Feturizer/New_Systems/rnas/4XWF

>  <Rbt.Executable>
rbdock ($Id: //depot/dev/client3/rdock/2013.1/src/exe/rbdock.cxx#4 $)

>  <Rbt.Library>
libRbt.so (2013.1, Build901 2013/11/27)

>  <Rbt.Parameter_File>
/export/apps/rDock/src/rDock_2013.1_src/data/scripts/dock_solv.prm

>  <Rbt.Receptor>
prm/pocket_docking_6.prm

>  <SCORE>
-8.76769

>  <SCORE.INTER>
-8.30057

>  <SCORE.INTER.CONST>
1

>  <SCORE.INTER.POLAR>
0

>  <SCORE.INTER.ROT>
5

>  <SCORE.INTER.SOLV>
12.9857

>  <SCORE.INTER.VDW>
-16.7956

>  <SCORE.INTER.norm>
-0.377299

>  <SCORE.INTRA>
-0.467123

>  <SCORE.INTRA.DIHEDRAL>
-1.46289

>  <SCORE.INTRA.DIHEDRAL.0>
3.49807

>  <SCORE.INTRA.POLAR>
0

>  <SCORE.INTRA.POLAR.0>
0

>  <SCORE.INTRA.REPUL>
0

>  <SCORE.INTRA.REPUL.0>
0

>  <SCORE.INTRA.SOLV>
0.539306

>  <SCORE.INTRA.SOLV.lig_0>
-73.062

>  <SCORE.INTRA.VDW>
-0.00532924

>  <SCORE.INTRA.VDW.0>
-1.83782

>  <SCORE.INTRA.norm>
-0.0212329

>  <SCORE.RESTR>
0

>  <SCORE.RESTR.CAVITY>
0

>  <SCORE.RESTR.norm>
0

>  <SCORE.SYSTEM>
0

>  <SCORE.SYSTEM.CONST>
0

>  <SCORE.SYSTEM.DIHEDRAL>
0

>  <SCORE.SYSTEM.SOLV>
0

>  <SCORE.SYSTEM.norm>
0

>  <SCORE.heavy>
22

>  <SCORE.norm>
-0.398532

>  <RMSD>
6.790

$$$$
ligand
 OpenBabel11021811513D
libRbt.so/2013.1/901 2013/11/27
 22 23  0  0  0  0  0  0  0  0999 V2000
  -29.1201   -0.3044   -8.8544 N   0  0  0  0  0  0  0  0  0  0  0  0
  -30.2997    2.2337  -10.7568 C   0  0  1  0  0  0  0  0  0  0  0  0
  -29.5159    1.8444   -9.5932 O   0  0  0  0  0  0  0  0  0  0  0  0
  -33.3902    3.3791   -8.8894 P   0  0  1  0  0  0  0  0  0  0  0  0
  -28.8860    0.5857   -9.8820 C   0  0  2  0  0  0  0  0  0  0  0  0
  -30.1595   -1.6091   -7.4657 N   0  0  0  0  0  0  0  0  0  0  0  0
  -28.7835   -0.8571  -11.7804 O   0  0  0  0  0  0  0  0  0  0  0  0
  -29.6123    0.0636  -11.0613 C   0  0  2  0  0  0  0  0  0  0  0  0
  -27.3183   -3.5688   -6.6021 N   0  0  0  0  0  0  0  0  0  0  0  0
  -28.7823    1.7766  -12.4839 O   0  0  0  0  0  0  0  0  0  0  0  0
  -29.9480    1.2640  -11.8172 C   0  0  2  0  0  0  0  0  0  0  0  0
  -28.8419   -1.7161   -7.2350 C   0  0  0  0  0  0  0  0  0  0  0  0
  -26.7802   -0.7367   -8.2114 N   0  0  0  0  0  0  0  0  0  0  0  0
  -31.9794    3.2255   -9.5564 O   0  0  0  0  0  0  0  0  0  0  0  0
  -31.7355    2.1269  -10.3733 C   0  0  0  0  0  0  0  0  0  0  0  0
  -34.3669    3.4182  -10.1203 O   0  0  0  0  0  0  0  0  0  0  0  0
  -30.3298   -0.7265   -8.4685 C   0  0  0  0  0  0  0  0  0  0  0  0
  -28.4831   -2.4196   -5.0183 O   0  0  0  0  0  0  0  0  0  0  0  0
  -28.2138   -2.5701   -6.2099 C   0  0  0  0  0  0  0  0  0  0  0  0
  -28.1806   -0.8998   -8.1077 C   0  0  0  0  0  0  0  0  0  0  0  0
  -33.6261    2.2463   -7.9466 O   0  5  0  0  0  0  0  0  0  0  0  0
  -33.4123    4.5342   -7.9740 O   0  0  0  0  0  0  0  0  0  0  0  0
  1 17  1  0  0  0  0
  1 20  1  0  0  0  0
  2 15  1  1  0  0  0
  2  3  1  0  0  0  0
  2 11  1  0  0  0  0
  3  5  1  0  0  0  0
  4 16  1  6  0  0  0
  4 21  1  0  0  0  0
  4 22  2  0  0  0  0
  4 14  1  0  0  0  0
  5  1  1  1  0  0  0
  5  8  1  0  0  0  0
  6 17  2  0  0  0  0
  6 12  1  0  0  0  0
  8  7  1  6  0  0  0
  8 11  1  0  0  0  0
  9 19  1  0  0  0  0
 11 10  1  1  0  0  0
 12 20  2  0  0  0  0
 12 19  1  0  0  0  0
 13 20  1  0  0  0  0
 14 15  1  0  0  0  0
 18 19  2  0  0  0  0
M  CHG  1  21  -1
M  END
>  <CHROM.1>
61.07010805,74.83244261,-58.71011742,-176.10348628,119.75080492,-30.33483136
0.76152964,-9.04039936,-0.60526909,0.66497584,-1.11016452

>  <Name>
ligand

>  <RI>
0

>  <Rbt.Current_Directory>
/home/itssahil/PROJECTS/Mol_Feturizer/New_Systems/rnas/4XWF

>  <Rbt.Executable>
rbdock ($Id: //depot/dev/client3/rdock/2013.1/src/exe/rbdock.cxx#4 $)

>  <Rbt.Library>
libRbt.so (2013.1, Build901 2013/11/27)

>  <Rbt.Parameter_File>
/export/apps/rDock/src/rDock_2013.1_src/data/scripts/dock_solv.prm

>  <Rbt.Receptor>
prm/pocket_docking_8.prm

>  <SCORE>
-10.5278

>  <SCORE.INTER>
-9.49881

>  <SCORE.INTER.CONST>
1

>  <SCORE.INTER.POLAR>
0

>  <SCORE.INTER.ROT>
5

>  <SCORE.INTER.SOLV>
12.6091

>  <SCORE.INTER.VDW>
-17.4689

>  <SCORE.INTER.norm>
-0.431764

>  <SCORE.INTRA>
-1.02903

>  <SCORE.INTRA.DIHEDRAL>
-1.14018

>  <SCORE.INTRA.DIHEDRAL.0>
3.49807

>  <SCORE.INTRA.POLAR>
0

>  <SCORE.INTRA.POLAR.0>
0

>  <SCORE.INTRA.REPUL>
0

>  <SCORE.INTRA.REPUL.0>
0

>  <SCORE.INTRA.SOLV>
-0.889079

>  <SCORE.INTRA.SOLV.lig_0>
-73.062

>  <SCORE.INTRA.VDW>
-0.0144055

>  <SCORE.INTRA.VDW.0>
-1.83782

>  <SCORE.INTRA.norm>
-0.0467743

>  <SCORE.RESTR>
0

>  <SCORE.RESTR.CAVITY>
0

>  <SCORE.RESTR.norm>
0

>  <SCORE.SYSTEM>
0

>  <SCORE.SYSTEM.CONST>
0

>  <SCORE.SYSTEM.DIHEDRAL>
0

>  <SCORE.SYSTEM.SOLV>
0

>  <SCORE.SYSTEM.norm>
0

>  <SCORE.heavy>
22

>  <SCORE.norm>
-0.478538

>  <RMSD>
6.792

$$$$
ligand
 OpenBabel11021811513D
libRbt.so/2013.1/901 2013/11/27
 22 23  0  0  0  0  0  0  0  0999 V2000
  -29.0655    0.6192  -12.2323 N   0  0  0  0  0  0  0  0  0  0  0  0
  -31.0820    0.9023   -9.5293 C   0  0  1  0  0  0  0  0  0  0  0  0
  -30.7269    0.1276  -10.7098 O   0  0  0  0  0  0  0  0  0  0  0  0
  -33.2618    3.9461   -8.9542 P   0  0  1  0  0  0  0  0  0  0  0  0
  -29.3124    0.2638  -10.9224 C   0  0  2  0  0  0  0  0  0  0  0  0
  -29.3613    1.3801  -14.2435 N   0  0  0  0  0  0  0  0  0  0  0  0
  -27.5253    1.3428   -9.7657 O   0  0  0  0  0  0  0  0  0  0  0  0
  -28.9175    1.4242  -10.0926 C   0  0  2  0  0  0  0  0  0  0  0  0
  -27.3769    1.6788  -16.4041 N   0  0  0  0  0  0  0  0  0  0  0  0
  -29.3658    0.2784   -8.0596 O   0  0  0  0  0  0  0  0  0  0  0  0
  -29.7982    1.3338   -8.9344 C   0  0  2  0  0  0  0  0  0  0  0  0
  -28.0766    1.0131  -14.1191 C   0  0  0  0  0  0  0  0  0  0  0  0
  -26.6643    0.0680  -12.3092 N   0  0  0  0  0  0  0  0  0  0  0  0
  -32.4300    2.6217   -8.8418 O   0  0  0  0  0  0  0  0  0  0  0  0
  -31.8868    2.0664   -9.9952 C   0  0  0  0  0  0  0  0  0  0  0  0
  -34.3791    3.5808   -9.9976 O   0  0  0  0  0  0  0  0  0  0  0  0
  -29.9750    1.1285  -13.0714 C   0  0  0  0  0  0  0  0  0  0  0  0
  -25.9124    0.6746  -14.9786 O   0  0  0  0  0  0  0  0  0  0  0  0
  -27.0483    1.1074  -15.1719 C   0  0  0  0  0  0  0  0  0  0  0  0
  -27.8819    0.5358  -12.8543 C   0  0  0  0  0  0  0  0  0  0  0  0
  -33.7745    4.3331   -7.6068 O   0  5  0  0  0  0  0  0  0  0  0  0
  -32.3862    5.0874   -9.2755 O   0  0  0  0  0  0  0  0  0  0  0  0
  1 17  1  0  0  0  0
  1 20  1  0  0  0  0
  2 15  1  6  0  0  0
  2  3  1  0  0  0  0
  2 11  1  0  0  0  0
  3  5  1  0  0  0  0
  4 16  1  6  0  0  0
  4 21  1  0  0  0  0
  4 22  2  0  0  0  0
  4 14  1  0  0  0  0
  5  1  1  6  0  0  0
  5  8  1  0  0  0  0
  6 17  2  0  0  0  0
  6 12  1  0  0  0  0
  8  7  1  1  0  0  0
  8 11  1  0  0  0  0
  9 19  1  0  0  0  0
 11 10  1  1  0  0  0
 12 20  2  0  0  0  0
 12 19  1  0  0  0  0
 13 20  1  0  0  0  0
 14 15  1  0  0  0  0
 18 19  2  0  0  0  0
M  CHG  1  21  -1
M  END
>  <CHROM.1>
17.55357695,168.27201728,55.96049510,175.57327329,3.18787591,-30.09150518
1.78937509,-11.04524611,-0.57356453,-0.61638935,1.83065910

>  <Name>
ligand

>  <RI>
0

>  <Rbt.Current_Directory>
/home/itssahil/PROJECTS/Mol_Feturizer/New_Systems/rnas/4XWF

>  <Rbt.Executable>
rbdock ($Id: //depot/dev/client3/rdock/2013.1/src/exe/rbdock.cxx#4 $)

>  <Rbt.Library>
libRbt.so (2013.1, Build901 2013/11/27)

>  <Rbt.Parameter_File>
/export/apps/rDock/src/rDock_2013.1_src/data/scripts/dock_solv.prm

>  <Rbt.Receptor>
prm/pocket_docking_6.prm

>  <SCORE>
-8.80945

>  <SCORE.INTER>
-8.39105

>  <SCORE.INTER.CONST>
1

>  <SCORE.INTER.POLAR>
0

>  <SCORE.INTER.ROT>
5

>  <SCORE.INTER.SOLV>
13.7405

>  <SCORE.INTER.VDW>
-17.1075

>  <SCORE.INTER.norm>
-0.381411

>  <SCORE.INTRA>
-0.418395

>  <SCORE.INTRA.DIHEDRAL>
-1.39946

>  <SCORE.INTRA.DIHEDRAL.0>
3.49807

>  <SCORE.INTRA.POLAR>
0

>  <SCORE.INTRA.POLAR.0>
0

>  <SCORE.INTRA.REPUL>
0

>  <SCORE.INTRA.REPUL.0>
0

>  <SCORE.INTRA.SOLV>
0.54079

>  <SCORE.INTRA.SOLV.lig_0>
-73.062

>  <SCORE.INTRA.VDW>
0.0109425

>  <SCORE.INTRA.VDW.0>
-1.83782

>  <SCORE.INTRA.norm>
-0.019018

>  <SCORE.RESTR>
0

>  <SCORE.RESTR.CAVITY>
0

>  <SCORE.RESTR.norm>
0

>  <SCORE.SYSTEM>
0

>  <SCORE.SYSTEM.CONST>
0

>  <SCORE.SYSTEM.DIHEDRAL>
0

>  <SCORE.SYSTEM.SOLV>
0

>  <SCORE.SYSTEM.norm>
0

>  <SCORE.heavy>
22

>  <SCORE.norm>
-0.400429

>  <RMSD>
6.811

$$$$
ligand
 OpenBabel11021811513D
libRbt.so/2013.1/901 2013/11/27
 22 23  0  0  0  0  0  0  0  0999 V2000
  -33.1792    3.1980   -9.1488 N   0  0  0  0  0  0  0  0  0  0  0  0
  -31.1031    0.5823   -9.6970 C   0  0  1  0  0  0  0  0  0  0  0  0
  -32.4396    1.1345   -9.8662 O   0  0  0  0  0  0  0  0  0  0  0  0
  -29.5992   -1.5584   -6.9557 P   0  0  1  0  0  0  0  0  0  0  0  0
  -32.3171    2.5582  -10.0153 C   0  0  2  0  0  0  0  0  0  0  0  0
  -34.8436    4.3773   -8.4073 N   0  0  0  0  0  0  0  0  0  0  0  0
  -30.4950    4.0950  -10.1339 O   0  0  0  0  0  0  0  0  0  0  0  0
  -30.9475    2.8688   -9.5479 C   0  0  2  0  0  0  0  0  0  0  0  0
  -33.5964    4.7932   -5.1146 N   0  0  0  0  0  0  0  0  0  0  0  0
  -29.9353    1.7321  -11.3729 O   0  0  0  0  0  0  0  0  0  0  0  0
  -30.1728    1.7031   -9.9555 C   0  0  2  0  0  0  0  0  0  0  0  0
  -34.1722    3.8906   -7.3524 C   0  0  0  0  0  0  0  0  0  0  0  0
  -32.1846    2.4395   -7.0249 N   0  0  0  0  0  0  0  0  0  0  0  0
  -29.9726   -0.8321   -8.2942 O   0  0  0  0  0  0  0  0  0  0  0  0
  -31.0025    0.1024   -8.2900 C   0  0  0  0  0  0  0  0  0  0  0  0
  -28.5766   -2.6591   -7.4177 O   0  0  0  0  0  0  0  0  0  0  0  0
  -34.2207    3.9504   -9.5224 C   0  0  0  0  0  0  0  0  0  0  0  0
  -35.5743    3.7221   -5.4701 O   0  0  0  0  0  0  0  0  0  0  0  0
  -34.5080    4.1240   -5.9356 C   0  0  0  0  0  0  0  0  0  0  0  0
  -33.1244    3.1443   -7.8114 C   0  0  0  0  0  0  0  0  0  0  0  0
  -29.0477   -0.5686   -5.9840 O   0  5  0  0  0  0  0  0  0  0  0  0
  -30.8118   -2.0164   -6.2539 O   0  0  0  0  0  0  0  0  0  0  0  0
  1 17  1  0  0  0  0
  1 20  1  0  0  0  0
  2 15  1  1  0  0  0
  2  3  1  0  0  0  0
  2 11  1  0  0  0  0
  3  5  1  0  0  0  0
  4 16  1  6  0  0  0
  4 21  1  0  0  0  0
  4 22  2  0  0  0  0
  4 14  1  0  0  0  0
  5  1  1  1  0  0  0
  5  8  1  0  0  0  0
  6 17  2  0  0  0  0
  6 12  1  0  0  0  0
  8  7  1  6  0  0  0
  8 11  1  0  0  0  0
  9 19  1  0  0  0  0
 11 10  1  6  0  0  0
 12 20  2  0  0  0  0
 12 19  1  0  0  0  0
 13 20  1  0  0  0  0
 14 15  1  0  0  0  0
 18 19  2  0  0  0  0
M  CHG  1  21  -1
M  END
>  <CHROM.1>
-114.90555545,158.32339227,171.70050554,-179.47334200,-117.59633962,-31.68991844
1.56826201,-8.08968492,-2.75223365,-0.80283254,2.08856788

>  <Name>
ligand

>  <RI>
0

>  <Rbt.Current_Directory>
/home/itssahil/PROJECTS/Mol_Feturizer/New_Systems/rnas/4XWF

>  <Rbt.Executable>
rbdock ($Id: //depot/dev/client3/rdock/2013.1/src/exe/rbdock.cxx#4 $)

>  <Rbt.Library>
libRbt.so (2013.1, Build901 2013/11/27)

>  <Rbt.Parameter_File>
/export/apps/rDock/src/rDock_2013.1_src/data/scripts/dock_solv.prm

>  <Rbt.Receptor>
prm/pocket_docking_7.prm

>  <SCORE>
-5.50979

>  <SCORE.INTER>
-8.00388

>  <SCORE.INTER.CONST>
1

>  <SCORE.INTER.POLAR>
0

>  <SCORE.INTER.ROT>
5

>  <SCORE.INTER.SOLV>
9.87911

>  <SCORE.INTER.VDW>
-15.5623

>  <SCORE.INTER.norm>
-0.363813

>  <SCORE.INTRA>
2.49409

>  <SCORE.INTRA.DIHEDRAL>
-0.367738

>  <SCORE.INTRA.DIHEDRAL.0>
3.49807

>  <SCORE.INTRA.POLAR>
0

>  <SCORE.INTRA.POLAR.0>
0

>  <SCORE.INTRA.REPUL>
0

>  <SCORE.INTRA.REPUL.0>
0

>  <SCORE.INTRA.SOLV>
5.05117

>  <SCORE.INTRA.SOLV.lig_0>
-73.062

>  <SCORE.INTRA.VDW>
0.152374

>  <SCORE.INTRA.VDW.0>
-1.83782

>  <SCORE.INTRA.norm>
0.113368

>  <SCORE.RESTR>
0

>  <SCORE.RESTR.CAVITY>
0

>  <SCORE.RESTR.norm>
0

>  <SCORE.SYSTEM>
0

>  <SCORE.SYSTEM.CONST>
0

>  <SCORE.SYSTEM.DIHEDRAL>
0

>  <SCORE.SYSTEM.SOLV>
0

>  <SCORE.SYSTEM.norm>
0

>  <SCORE.heavy>
22

>  <SCORE.norm>
-0.250445

>  <RMSD>
6.812

$$$$
ligand
 OpenBabel11021811513D
libRbt.so/2013.1/901 2013/11/27
 22 23  0  0  0  0  0  0  0  0999 V2000
  -29.0396    0.6016  -12.2635 N   0  0  0  0  0  0  0  0  0  0  0  0
  -31.0454    0.9091   -9.5552 C   0  0  1  0  0  0  0  0  0  0  0  0
  -30.7187    0.1437  -10.7499 O   0  0  0  0  0  0  0  0  0  0  0  0
  -33.2397    3.9366   -8.9415 P   0  0  1  0  0  0  0  0  0  0  0  0
  -29.3001    0.2314  -10.9603 C   0  0  2  0  0  0  0  0  0  0  0  0
  -29.3074    1.4066  -14.2613 N   0  0  0  0  0  0  0  0  0  0  0  0
  -27.4748    1.2219   -9.7843 O   0  0  0  0  0  0  0  0  0  0  0  0
  -28.8629    1.3607  -10.1093 C   0  0  2  0  0  0  0  0  0  0  0  0
  -27.2789    1.7641  -16.3764 N   0  0  0  0  0  0  0  0  0  0  0  0
  -29.3541    0.1949   -8.0977 O   0  0  0  0  0  0  0  0  0  0  0  0
  -29.7467    1.2817   -8.9527 C   0  0  2  0  0  0  0  0  0  0  0  0
  -28.0353    0.9966  -14.1419 C   0  0  0  0  0  0  0  0  0  0  0  0
  -26.6571   -0.0248  -12.3472 N   0  0  0  0  0  0  0  0  0  0  0  0
  -32.3823    2.6274   -8.8439 O   0  0  0  0  0  0  0  0  0  0  0  0
  -31.8063    2.1106   -9.9993 C   0  0  0  0  0  0  0  0  0  0  0  0
  -34.3556    3.5582   -9.9817 O   0  0  0  0  0  0  0  0  0  0  0  0
  -29.9309    1.1544  -13.0946 C   0  0  0  0  0  0  0  0  0  0  0  0
  -25.9099    0.5310  -15.0381 O   0  0  0  0  0  0  0  0  0  0  0  0
  -27.0027    1.0763  -15.1916 C   0  0  0  0  0  0  0  0  0  0  0  0
  -27.8582    0.4912  -12.8855 C   0  0  0  0  0  0  0  0  0  0  0  0
  -33.7522    4.3035   -7.5884 O   0  5  0  0  0  0  0  0  0  0  0  0
  -32.3876    5.0967   -9.2586 O   0  0  0  0  0  0  0  0  0  0  0  0
  1 17  1  0  0  0  0
  1 20  1  0  0  0  0
  2 15  1  6  0  0  0
  2  3  1  0  0  0  0
  2 11  1  0  0  0  0
  3  5  1  0  0  0  0
  4 16  1  6  0  0  0
  4 21  1  0  0  0  0
  4 22  2  0  0  0  0
  4 14  1  0  0  0  0
  5  1  1  6  0  0  0
  5  8  1  0  0  0  0
  6 17  2  0  0  0  0
  6 12  1  0  0  0  0
  8  7  1  1  0  0  0
  8 11  1  0  0  0  0
  9 19  1  0  0  0  0
 11 10  1  1  0  0  0
 12 20  2  0  0  0  0
 12 19  1  0  0  0  0
 13 20  1  0  0  0  0
 14 15  1  0  0  0  0
 18 19  2  0  0  0  0
M  CHG  1  21  -1
M  END
>  <CHROM.1>
17.24837528,165.48314987,57.60975237,178.54234962,7.79797099,-30.05833598
1.76447955,-11.05939969,-0.56078626,-0.62927445,1.84951371

>  <Name>
ligand

>  <RI>
0

>  <Rbt.Current_Directory>
/home/itssahil/PROJECTS/Mol_Feturizer/New_Systems/rnas/4XWF

>  <Rbt.Executable>
rbdock ($Id: //depot/dev/client3/rdock/2013.1/src/exe/rbdock.cxx#4 $)

>  <Rbt.Library>
libRbt.so (2013.1, Build901 2013/11/27)

>  <Rbt.Parameter_File>
/export/apps/rDock/src/rDock_2013.1_src/data/scripts/dock_solv.prm

>  <Rbt.Receptor>
prm/pocket_docking_6.prm

>  <SCORE>
-8.78452

>  <SCORE.INTER>
-8.39461

>  <SCORE.INTER.CONST>
1

>  <SCORE.INTER.POLAR>
0

>  <SCORE.INTER.ROT>
5

>  <SCORE.INTER.SOLV>
13.5017

>  <SCORE.INTER.VDW>
-17.0303

>  <SCORE.INTER.norm>
-0.381573

>  <SCORE.INTRA>
-0.389908

>  <SCORE.INTRA.DIHEDRAL>
-1.21189

>  <SCORE.INTRA.DIHEDRAL.0>
3.49807

>  <SCORE.INTRA.POLAR>
0

>  <SCORE.INTRA.POLAR.0>
0

>  <SCORE.INTRA.REPUL>
0

>  <SCORE.INTRA.REPUL.0>
0

>  <SCORE.INTRA.SOLV>
0.486656

>  <SCORE.INTRA.SOLV.lig_0>
-73.062

>  <SCORE.INTRA.VDW>
-0.0272928

>  <SCORE.INTRA.VDW.0>
-1.83782

>  <SCORE.INTRA.norm>
-0.0177231

>  <SCORE.RESTR>
0

>  <SCORE.RESTR.CAVITY>
0

>  <SCORE.RESTR.norm>
0

>  <SCORE.SYSTEM>
0

>  <SCORE.SYSTEM.CONST>
0

>  <SCORE.SYSTEM.DIHEDRAL>
0

>  <SCORE.SYSTEM.SOLV>
0

>  <SCORE.SYSTEM.norm>
0

>  <SCORE.heavy>
22

>  <SCORE.norm>
-0.399296

>  <RMSD>
6.815

$$$$
ligand
 OpenBabel11021811513D
libRbt.so/2013.1/901 2013/11/27
 22 23  0  0  0  0  0  0  0  0999 V2000
  -29.0345    0.5970  -12.2298 N   0  0  0  0  0  0  0  0  0  0  0  0
  -31.0513    0.9115   -9.5305 C   0  0  1  0  0  0  0  0  0  0  0  0
  -30.7141    0.1382  -10.7171 O   0  0  0  0  0  0  0  0  0  0  0  0
  -33.2496    3.9424   -8.9479 P   0  0  1  0  0  0  0  0  0  0  0  0
  -29.2957    0.2365  -10.9240 C   0  0  2  0  0  0  0  0  0  0  0  0
  -29.3003    1.3895  -14.2329 N   0  0  0  0  0  0  0  0  0  0  0  0
  -27.4829    1.2541   -9.7517 O   0  0  0  0  0  0  0  0  0  0  0  0
  -28.8712    1.3776  -10.0822 C   0  0  2  0  0  0  0  0  0  0  0  0
  -27.2506    1.7727  -16.3276 N   0  0  0  0  0  0  0  0  0  0  0  0
  -29.3583    0.2260   -8.0614 O   0  0  0  0  0  0  0  0  0  0  0  0
  -29.7579    1.3013   -8.9276 C   0  0  2  0  0  0  0  0  0  0  0  0
  -28.0296    0.9759  -14.1112 C   0  0  0  0  0  0  0  0  0  0  0  0
  -26.6542   -0.0381  -12.3101 N   0  0  0  0  0  0  0  0  0  0  0  0
  -32.3839    2.6398   -8.8355 O   0  0  0  0  0  0  0  0  0  0  0  0
  -31.8215    2.1021   -9.9880 C   0  0  0  0  0  0  0  0  0  0  0  0
  -34.3631    3.5451   -9.9836 O   0  0  0  0  0  0  0  0  0  0  0  0
  -29.9241    1.1472  -13.0642 C   0  0  0  0  0  0  0  0  0  0  0  0
  -25.9246    0.4563  -15.0258 O   0  0  0  0  0  0  0  0  0  0  0  0
  -26.9971    1.0449  -15.1618 C   0  0  0  0  0  0  0  0  0  0  0  0
  -27.8537    0.4784  -12.8514 C   0  0  0  0  0  0  0  0  0  0  0  0
  -33.7643    4.3215   -7.5991 O   0  5  0  0  0  0  0  0  0  0  0  0
  -32.4047    5.1041   -9.2784 O   0  0  0  0  0  0  0  0  0  0  0  0
  1 17  1  0  0  0  0
  1 20  1  0  0  0  0
  2 15  1  6  0  0  0
  2  3  1  0  0  0  0
  2 11  1  0  0  0  0
  3  5  1  0  0  0  0
  4 16  1  6  0  0  0
  4 21  1  0  0  0  0
  4 22  2  0  0  0  0
  4 14  1  0  0  0  0
  5  1  1  6  0  0  0
  5  8  1  0  0  0  0
  6 17  2  0  0  0  0
  6 12  1  0  0  0  0
  8  7  1  1  0  0  0
  8 11  1  0  0  0  0
  9 19  1  0  0  0  0
 11 10  1  1  0  0  0
 12 20  2  0  0  0  0
 12 19  1  0  0  0  0
 13 20  1  0  0  0  0
 14 15  1  0  0  0  0
 18 19  2  0  0  0  0
M  CHG  1  21  -1
M  END
>  <CHROM.1>
17.99799391,166.63594853,56.64371730,178.70161481,10.46221796,-30.06100530
1.76302867,-11.03980647,-0.55770953,-0.62813222,1.84528330

>  <Name>
ligand

>  <RI>
0

>  <Rbt.Current_Directory>
/home/itssahil/PROJECTS/Mol_Feturizer/New_Systems/rnas/4XWF

>  <Rbt.Executable>
rbdock ($Id: //depot/dev/client3/rdock/2013.1/src/exe/rbdock.cxx#4 $)

>  <Rbt.Library>
libRbt.so (2013.1, Build901 2013/11/27)

>  <Rbt.Parameter_File>
/export/apps/rDock/src/rDock_2013.1_src/data/scripts/dock_solv.prm

>  <Rbt.Receptor>
prm/pocket_docking_6.prm

>  <SCORE>
-8.74136

>  <SCORE.INTER>
-8.31519

>  <SCORE.INTER.CONST>
1

>  <SCORE.INTER.POLAR>
0

>  <SCORE.INTER.ROT>
5

>  <SCORE.INTER.SOLV>
13.6494

>  <SCORE.INTER.VDW>
-17.0266

>  <SCORE.INTER.norm>
-0.377963

>  <SCORE.INTRA>
-0.426171

>  <SCORE.INTRA.DIHEDRAL>
-1.2494

>  <SCORE.INTRA.DIHEDRAL.0>
3.49807

>  <SCORE.INTRA.POLAR>
0

>  <SCORE.INTRA.POLAR.0>
0

>  <SCORE.INTRA.REPUL>
0

>  <SCORE.INTRA.REPUL.0>
0

>  <SCORE.INTRA.SOLV>
0.447666

>  <SCORE.INTRA.SOLV.lig_0>
-73.062

>  <SCORE.INTRA.VDW>
-0.0253041

>  <SCORE.INTRA.VDW.0>
-1.83782

>  <SCORE.INTRA.norm>
-0.0193714

>  <SCORE.RESTR>
0

>  <SCORE.RESTR.CAVITY>
0

>  <SCORE.RESTR.norm>
0

>  <SCORE.SYSTEM>
0

>  <SCORE.SYSTEM.CONST>
0

>  <SCORE.SYSTEM.DIHEDRAL>
0

>  <SCORE.SYSTEM.SOLV>
0

>  <SCORE.SYSTEM.norm>
0

>  <SCORE.heavy>
22

>  <SCORE.norm>
-0.397334

>  <RMSD>
6.816

$$$$
ligand
 OpenBabel11021811513D
libRbt.so/2013.1/901 2013/11/27
 22 23  0  0  0  0  0  0  0  0999 V2000
  -28.6182    0.8612  -13.1109 N   0  0  0  0  0  0  0  0  0  0  0  0
  -30.3673    0.6227  -10.2236 C   0  0  1  0  0  0  0  0  0  0  0  0
  -30.0298    0.0071  -11.4992 O   0  0  0  0  0  0  0  0  0  0  0  0
  -32.8384    3.2938   -9.1711 P   0  0  1  0  0  0  0  0  0  0  0  0
  -28.6776    0.3686  -11.8237 C   0  0  2  0  0  0  0  0  0  0  0  0
  -29.1729    1.8734  -14.9491 N   0  0  0  0  0  0  0  0  0  0  0  0
  -26.9504    1.6043  -10.7347 O   0  0  0  0  0  0  0  0  0  0  0  0
  -28.3663    1.5040  -10.9266 C   0  0  2  0  0  0  0  0  0  0  0  0
  -27.5415    2.3141  -17.3661 N   0  0  0  0  0  0  0  0  0  0  0  0
  -28.4394    0.1442   -8.9791 O   0  0  0  0  0  0  0  0  0  0  0  0
  -29.1025    1.1908   -9.7079 C   0  0  2  0  0  0  0  0  0  0  0  0
  -27.9196    1.4137  -15.0857 C   0  0  0  0  0  0  0  0  0  0  0  0
  -26.3149    0.1723  -13.6549 N   0  0  0  0  0  0  0  0  0  0  0  0
  -31.8277    2.0980   -9.2557 O   0  0  0  0  0  0  0  0  0  0  0  0
  -31.3706    1.6882  -10.5034 C   0  0  0  0  0  0  0  0  0  0  0  0
  -31.9846    4.5206   -9.6574 O   0  0  0  0  0  0  0  0  0  0  0  0
  -29.6067    1.5234  -13.7232 C   0  0  0  0  0  0  0  0  0  0  0  0
  -25.9644    1.0327  -16.3383 O   0  0  0  0  0  0  0  0  0  0  0  0
  -27.0716    1.5675  -16.2823 C   0  0  0  0  0  0  0  0  0  0  0  0
  -27.5622    0.7778  -13.9311 C   0  0  0  0  0  0  0  0  0  0  0  0
  -34.0361    2.9997  -10.0119 O   0  5  0  0  0  0  0  0  0  0  0  0
  -33.4359    3.3786   -7.8263 O   0  0  0  0  0  0  0  0  0  0  0  0
  1 17  1  0  0  0  0
  1 20  1  0  0  0  0
  2 15  1  6  0  0  0
  2  3  1  0  0  0  0
  2 11  1  0  0  0  0
  3  5  1  0  0  0  0
  4 16  1  6  0  0  0
  4 21  1  0  0  0  0
  4 22  2  0  0  0  0
  4 14  1  0  0  0  0
  5  1  1  6  0  0  0
  5  8  1  0  0  0  0
  6 17  2  0  0  0  0
  6 12  1  0  0  0  0
  8  7  1  1  0  0  0
  8 11  1  0  0  0  0
  9 19  1  0  0  0  0
 11 10  1  1  0  0  0
 12 20  2  0  0  0  0
 12 19  1  0  0  0  0
 13 20  1  0  0  0  0
 14 15  1  0  0  0  0
 18 19  2  0  0  0  0
M  CHG  1  21  -1
M  END
>  <CHROM.1>
30.79035559,170.50536468,-66.68656232,175.87977797,3.91424025,-29.67580153
1.70995953,-11.76481184,-0.72802192,-0.53717595,1.82469283

>  <Name>
ligand

>  <RI>
0

>  <Rbt.Current_Directory>
/home/itssahil/PROJECTS/Mol_Feturizer/New_Systems/rnas/4XWF

>  <Rbt.Executable>
rbdock ($Id: //depot/dev/client3/rdock/2013.1/src/exe/rbdock.cxx#4 $)

>  <Rbt.Library>
libRbt.so (2013.1, Build901 2013/11/27)

>  <Rbt.Parameter_File>
/export/apps/rDock/src/rDock_2013.1_src/data/scripts/dock_solv.prm

>  <Rbt.Receptor>
prm/pocket_docking_5.prm

>  <SCORE>
-7.50562

>  <SCORE.INTER>
-6.61683

>  <SCORE.INTER.CONST>
1

>  <SCORE.INTER.POLAR>
0

>  <SCORE.INTER.ROT>
5

>  <SCORE.INTER.SOLV>
14.8947

>  <SCORE.INTER.VDW>
-16.3094

>  <SCORE.INTER.norm>
-0.300765

>  <SCORE.INTRA>
-0.888785

>  <SCORE.INTRA.DIHEDRAL>
-1.5161

>  <SCORE.INTRA.DIHEDRAL.0>
3.49807

>  <SCORE.INTRA.POLAR>
0

>  <SCORE.INTRA.POLAR.0>
0

>  <SCORE.INTRA.REPUL>
0

>  <SCORE.INTRA.REPUL.0>
0

>  <SCORE.INTRA.SOLV>
0.0519234

>  <SCORE.INTRA.SOLV.lig_0>
-73.062

>  <SCORE.INTRA.VDW>
-0.156695

>  <SCORE.INTRA.VDW.0>
-1.83782

>  <SCORE.INTRA.norm>
-0.0403993

>  <SCORE.RESTR>
0

>  <SCORE.RESTR.CAVITY>
0

>  <SCORE.RESTR.norm>
0

>  <SCORE.SYSTEM>
0

>  <SCORE.SYSTEM.CONST>
0

>  <SCORE.SYSTEM.DIHEDRAL>
0

>  <SCORE.SYSTEM.SOLV>
0

>  <SCORE.SYSTEM.norm>
0

>  <SCORE.heavy>
22

>  <SCORE.norm>
-0.341164

>  <RMSD>
6.817

$$$$
ligand
 OpenBabel11021811513D
libRbt.so/2013.1/901 2013/11/27
 22 23  0  0  0  0  0  0  0  0999 V2000
  -29.0792    0.6611  -12.1103 N   0  0  0  0  0  0  0  0  0  0  0  0
  -31.1672    0.9395   -9.4617 C   0  0  1  0  0  0  0  0  0  0  0  0
  -30.7788    0.1653  -10.6321 O   0  0  0  0  0  0  0  0  0  0  0  0
  -33.3072    4.0184   -8.9374 P   0  0  1  0  0  0  0  0  0  0  0  0
  -29.3596    0.3055  -10.8072 C   0  0  2  0  0  0  0  0  0  0  0  0
  -29.3297    1.4000  -14.1357 N   0  0  0  0  0  0  0  0  0  0  0  0
  -27.6068    1.3900   -9.6042 O   0  0  0  0  0  0  0  0  0  0  0  0
  -28.9901    1.4672   -9.9679 C   0  0  2  0  0  0  0  0  0  0  0  0
  -26.1529    0.1017  -15.2486 N   0  0  0  0  0  0  0  0  0  0  0  0
  -29.4888    0.3210   -7.9468 O   0  0  0  0  0  0  0  0  0  0  0  0
  -29.9008    1.3749   -8.8333 C   0  0  2  0  0  0  0  0  0  0  0  0
  -28.0388    1.0759  -13.9647 C   0  0  0  0  0  0  0  0  0  0  0  0
  -26.6601    0.1879  -12.1007 N   0  0  0  0  0  0  0  0  0  0  0  0
  -32.5198    2.6686   -8.8086 O   0  0  0  0  0  0  0  0  0  0  0  0
  -31.9627    2.1011   -9.9493 C   0  0  0  0  0  0  0  0  0  0  0  0
  -34.4323    3.6795   -9.9813 O   0  0  0  0  0  0  0  0  0  0  0  0
  -29.9750    1.1355  -12.9838 C   0  0  0  0  0  0  0  0  0  0  0  0
  -26.8066    2.2571  -15.5844 O   0  0  0  0  0  0  0  0  0  0  0  0
  -26.9783    1.1975  -14.9821 C   0  0  0  0  0  0  0  0  0  0  0  0
  -27.8727    0.6126  -12.6907 C   0  0  0  0  0  0  0  0  0  0  0  0
  -33.8114    4.4359   -7.5960 O   0  5  0  0  0  0  0  0  0  0  0  0
  -32.3932    5.1269   -9.2669 O   0  0  0  0  0  0  0  0  0  0  0  0
  1 17  1  0  0  0  0
  1 20  1  0  0  0  0
  2 15  1  6  0  0  0
  2  3  1  0  0  0  0
  2 11  1  0  0  0  0
  3  5  1  0  0  0  0
  4 16  1  6  0  0  0
  4 21  1  0  0  0  0
  4 22  2  0  0  0  0
  4 14  1  0  0  0  0
  5  1  1  6  0  0  0
  5  8  1  0  0  0  0
  6 17  2  0  0  0  0
  6 12  1  0  0  0  0
  8  7  1  1  0  0  0
  8 11  1  0  0  0  0
  9 19  1  0  0  0  0
 11 10  1  1  0  0  0
 12 20  2  0  0  0  0
 12 19  1  0  0  0  0
 13 20  1  0  0  0  0
 14 15  1  0  0  0  0
 18 19  2  0  0  0  0
M  CHG  1  21  -1
M  END
>  <CHROM.1>
15.75801443,169.22918941,57.55001230,173.60471802,-129.13535719,-30.11889033
1.85048606,-10.94499672,-0.51088768,-0.64011716,1.90455257

>  <Name>
ligand

>  <RI>
0

>  <Rbt.Current_Directory>
/home/itssahil/PROJECTS/Mol_Feturizer/New_Systems/rnas/4XWF

>  <Rbt.Executable>
rbdock ($Id: //depot/dev/client3/rdock/2013.1/src/exe/rbdock.cxx#4 $)

>  <Rbt.Library>
libRbt.so (2013.1, Build901 2013/11/27)

>  <Rbt.Parameter_File>
/export/apps/rDock/src/rDock_2013.1_src/data/scripts/dock_solv.prm

>  <Rbt.Receptor>
prm/pocket_docking_5.prm

>  <SCORE>
-8.44759

>  <SCORE.INTER>
-8.06112

>  <SCORE.INTER.CONST>
1

>  <SCORE.INTER.POLAR>
0

>  <SCORE.INTER.ROT>
5

>  <SCORE.INTER.SOLV>
13.5626

>  <SCORE.INTER.VDW>
-16.8283

>  <SCORE.INTER.norm>
-0.366415

>  <SCORE.INTRA>
-0.386468

>  <SCORE.INTRA.DIHEDRAL>
-1.31804

>  <SCORE.INTRA.DIHEDRAL.0>
3.49807

>  <SCORE.INTRA.POLAR>
0

>  <SCORE.INTRA.POLAR.0>
0

>  <SCORE.INTRA.REPUL>
0

>  <SCORE.INTRA.REPUL.0>
0

>  <SCORE.INTRA.SOLV>
0.79622

>  <SCORE.INTRA.SOLV.lig_0>
-73.062

>  <SCORE.INTRA.VDW>
-0.125556

>  <SCORE.INTRA.VDW.0>
-1.83782

>  <SCORE.INTRA.norm>
-0.0175667

>  <SCORE.RESTR>
0

>  <SCORE.RESTR.CAVITY>
0

>  <SCORE.RESTR.norm>
0

>  <SCORE.SYSTEM>
0

>  <SCORE.SYSTEM.CONST>
0

>  <SCORE.SYSTEM.DIHEDRAL>
0

>  <SCORE.SYSTEM.SOLV>
0

>  <SCORE.SYSTEM.norm>
0

>  <SCORE.heavy>
22

>  <SCORE.norm>
-0.383981

>  <RMSD>
6.828

$$$$
ligand
 OpenBabel11021811513D
libRbt.so/2013.1/901 2013/11/27
 22 23  0  0  0  0  0  0  0  0999 V2000
  -29.0265    0.6172  -12.2473 N   0  0  0  0  0  0  0  0  0  0  0  0
  -31.0687    0.9435   -9.5686 C   0  0  1  0  0  0  0  0  0  0  0  0
  -30.7458    0.1884  -10.7708 O   0  0  0  0  0  0  0  0  0  0  0  0
  -33.2248    3.9973   -8.9496 P   0  0  1  0  0  0  0  0  0  0  0  0
  -29.3216    0.2336  -10.9554 C   0  0  2  0  0  0  0  0  0  0  0  0
  -29.2465    1.4260  -14.2494 N   0  0  0  0  0  0  0  0  0  0  0  0
  -27.4863    1.1442   -9.7313 O   0  0  0  0  0  0  0  0  0  0  0  0
  -28.8633    1.3335  -10.0774 C   0  0  2  0  0  0  0  0  0  0  0  0
  -26.2007    0.0148  -15.4884 N   0  0  0  0  0  0  0  0  0  0  0  0
  -29.4272    0.1501   -8.0952 O   0  0  0  0  0  0  0  0  0  0  0  0
  -29.7695    1.2635   -8.9376 C   0  0  2  0  0  0  0  0  0  0  0  0
  -27.9692    1.0476  -14.0885 C   0  0  0  0  0  0  0  0  0  0  0  0
  -26.6273    0.0516  -12.2525 N   0  0  0  0  0  0  0  0  0  0  0  0
  -32.3990    2.6675   -8.8586 O   0  0  0  0  0  0  0  0  0  0  0  0
  -31.7827    2.1765  -10.0044 C   0  0  0  0  0  0  0  0  0  0  0  0
  -34.3596    3.6454   -9.9787 O   0  0  0  0  0  0  0  0  0  0  0  0
  -29.9027    1.1518  -13.1058 C   0  0  0  0  0  0  0  0  0  0  0  0
  -26.6213    2.2502  -15.5964 O   0  0  0  0  0  0  0  0  0  0  0  0
  -26.9039    1.1590  -15.1020 C   0  0  0  0  0  0  0  0  0  0  0  0
  -27.8222    0.5401  -12.8291 C   0  0  0  0  0  0  0  0  0  0  0  0
  -33.7152    4.3780   -7.5922 O   0  5  0  0  0  0  0  0  0  0  0  0
  -32.3475    5.1358   -9.2763 O   0  0  0  0  0  0  0  0  0  0  0  0
  1 17  1  0  0  0  0
  1 20  1  0  0  0  0
  2 15  1  6  0  0  0
  2  3  1  0  0  0  0
  2 11  1  0  0  0  0
  3  5  1  0  0  0  0
  4 16  1  6  0  0  0
  4 21  1  0  0  0  0
  4 22  2  0  0  0  0
  4 14  1  0  0  0  0
  5  1  1  6  0  0  0
  5  8  1  0  0  0  0
  6 17  2  0  0  0  0
  6 12  1  0  0  0  0
  8  7  1  1  0  0  0
  8 11  1  0  0  0  0
  9 19  1  0  0  0  0
 11 10  1  1  0  0  0
 12 20  2  0  0  0  0
 12 19  1  0  0  0  0
 13 20  1  0  0  0  0
 14 15  1  0  0  0  0
 18 19  2  0  0  0  0
M  CHG  1  21  -1
M  END
>  <CHROM.1>
13.73902986,163.55742906,61.26275546,178.65346958,-123.44593338,-30.03720707
1.80101618,-11.03604960,-0.50160590,-0.65997202,1.92785479

>  <Name>
ligand

>  <RI>
0

>  <Rbt.Current_Directory>
/home/itssahil/PROJECTS/Mol_Feturizer/New_Systems/rnas/4XWF

>  <Rbt.Executable>
rbdock ($Id: //depot/dev/client3/rdock/2013.1/src/exe/rbdock.cxx#4 $)

>  <Rbt.Library>
libRbt.so (2013.1, Build901 2013/11/27)

>  <Rbt.Parameter_File>
/export/apps/rDock/src/rDock_2013.1_src/data/scripts/dock_solv.prm

>  <Rbt.Receptor>
prm/pocket_docking_8.prm

>  <SCORE>
-8.66555

>  <SCORE.INTER>
-8.3237

>  <SCORE.INTER.CONST>
1

>  <SCORE.INTER.POLAR>
0

>  <SCORE.INTER.ROT>
5

>  <SCORE.INTER.SOLV>
13.4385

>  <SCORE.INTER.VDW>
-16.962

>  <SCORE.INTER.norm>
-0.37835

>  <SCORE.INTRA>
-0.341851

>  <SCORE.INTRA.DIHEDRAL>
-1.10893

>  <SCORE.INTRA.DIHEDRAL.0>
3.49807

>  <SCORE.INTRA.POLAR>
0

>  <SCORE.INTRA.POLAR.0>
0

>  <SCORE.INTRA.REPUL>
0

>  <SCORE.INTRA.REPUL.0>
0

>  <SCORE.INTRA.SOLV>
0.741207

>  <SCORE.INTRA.SOLV.lig_0>
-73.062

>  <SCORE.INTRA.VDW>
-0.157989

>  <SCORE.INTRA.VDW.0>
-1.83782

>  <SCORE.INTRA.norm>
-0.0155387

>  <SCORE.RESTR>
0

>  <SCORE.RESTR.CAVITY>
0

>  <SCORE.RESTR.norm>
0

>  <SCORE.SYSTEM>
0

>  <SCORE.SYSTEM.CONST>
0

>  <SCORE.SYSTEM.DIHEDRAL>
0

>  <SCORE.SYSTEM.SOLV>
0

>  <SCORE.SYSTEM.norm>
0

>  <SCORE.heavy>
22

>  <SCORE.norm>
-0.393889

>  <RMSD>
6.832

$$$$
ligand
 OpenBabel11021811513D
libRbt.so/2013.1/901 2013/11/27
 22 23  0  0  0  0  0  0  0  0999 V2000
  -29.2069    0.7013  -11.9795 N   0  0  0  0  0  0  0  0  0  0  0  0
  -31.2861    0.9662   -9.3226 C   0  0  1  0  0  0  0  0  0  0  0  0
  -30.8726    0.1757  -10.4732 O   0  0  0  0  0  0  0  0  0  0  0  0
  -33.4632    4.0255   -8.8630 P   0  0  1  0  0  0  0  0  0  0  0  0
  -29.4622    0.3722  -10.6643 C   0  0  2  0  0  0  0  0  0  0  0  0
  -29.5138    1.3142  -14.0389 N   0  0  0  0  0  0  0  0  0  0  0  0
  -27.7499    1.5667   -9.5080 O   0  0  0  0  0  0  0  0  0  0  0  0
  -29.1378    1.5730   -9.8621 C   0  0  2  0  0  0  0  0  0  0  0  0
  -26.1304    0.4080  -14.9922 N   0  0  0  0  0  0  0  0  0  0  0  0
  -29.5715    0.4659   -7.8046 O   0  0  0  0  0  0  0  0  0  0  0  0
  -30.0355    1.4744   -8.7177 C   0  0  2  0  0  0  0  0  0  0  0  0
  -28.1960    1.1570  -13.8405 C   0  0  0  0  0  0  0  0  0  0  0  0
  -26.7488    0.5261  -11.9245 N   0  0  0  0  0  0  0  0  0  0  0  0
  -32.6786    2.6770   -8.7061 O   0  0  0  0  0  0  0  0  0  0  0  0
  -32.1351    2.0773   -9.8369 C   0  0  0  0  0  0  0  0  0  0  0  0
  -34.5451    3.6867   -9.9518 O   0  0  0  0  0  0  0  0  0  0  0  0
  -30.1400    1.0245  -12.8824 C   0  0  0  0  0  0  0  0  0  0  0  0
  -27.1404    2.3684  -15.5597 O   0  0  0  0  0  0  0  0  0  0  0  0
  -27.1425    1.3613  -14.8519 C   0  0  0  0  0  0  0  0  0  0  0  0
  -27.9946    0.7740  -12.5451 C   0  0  0  0  0  0  0  0  0  0  0  0
  -34.0215    4.4385   -7.5418 O   0  5  0  0  0  0  0  0  0  0  0  0
  -32.5394    5.1368   -9.1532 O   0  0  0  0  0  0  0  0  0  0  0  0
  1 17  1  0  0  0  0
  1 20  1  0  0  0  0
  2 15  1  6  0  0  0
  2  3  1  0  0  0  0
  2 11  1  0  0  0  0
  3  5  1  0  0  0  0
  4 16  1  6  0  0  0
  4 21  1  0  0  0  0
  4 22  2  0  0  0  0
  4 14  1  0  0  0  0
  5  1  1  6  0  0  0
  5  8  1  0  0  0  0
  6 17  2  0  0  0  0
  6 12  1  0  0  0  0
  8  7  1  1  0  0  0
  8 11  1  0  0  0  0
  9 19  1  0  0  0  0
 11 10  1  1  0  0  0
 12 20  2  0  0  0  0
 12 19  1  0  0  0  0
 13 20  1  0  0  0  0
 14 15  1  0  0  0  0
 18 19  2  0  0  0  0
M  CHG  1  21  -1
M  END
>  <CHROM.1>
11.06091734,170.86034047,54.20059945,171.00198935,-133.79523531,-30.26142100
1.92112546,-10.83179539,-0.53124855,-0.61099384,1.88025847

>  <Name>
ligand

>  <RI>
0

>  <Rbt.Current_Directory>
/home/itssahil/PROJECTS/Mol_Feturizer/New_Systems/rnas/4XWF

>  <Rbt.Executable>
rbdock ($Id: //depot/dev/client3/rdock/2013.1/src/exe/rbdock.cxx#4 $)

>  <Rbt.Library>
libRbt.so (2013.1, Build901 2013/11/27)

>  <Rbt.Parameter_File>
/export/apps/rDock/src/rDock_2013.1_src/data/scripts/dock_solv.prm

>  <Rbt.Receptor>
prm/pocket_docking_4.prm

>  <SCORE>
-8.1029

>  <SCORE.INTER>
-8.12586

>  <SCORE.INTER.CONST>
1

>  <SCORE.INTER.POLAR>
0

>  <SCORE.INTER.ROT>
5

>  <SCORE.INTER.SOLV>
13.4053

>  <SCORE.INTER.VDW>
-16.819

>  <SCORE.INTER.norm>
-0.369357

>  <SCORE.INTRA>
0.0229584

>  <SCORE.INTRA.DIHEDRAL>
-1.05833

>  <SCORE.INTRA.DIHEDRAL.0>
3.49807

>  <SCORE.INTRA.POLAR>
0

>  <SCORE.INTRA.POLAR.0>
0

>  <SCORE.INTRA.REPUL>
0

>  <SCORE.INTRA.REPUL.0>
0

>  <SCORE.INTRA.SOLV>
1.04498

>  <SCORE.INTRA.SOLV.lig_0>
-73.062

>  <SCORE.INTRA.VDW>
0.029632

>  <SCORE.INTRA.VDW.0>
-1.83782

>  <SCORE.INTRA.norm>
0.00104356

>  <SCORE.RESTR>
0

>  <SCORE.RESTR.CAVITY>
0

>  <SCORE.RESTR.norm>
0

>  <SCORE.SYSTEM>
0

>  <SCORE.SYSTEM.CONST>
0

>  <SCORE.SYSTEM.DIHEDRAL>
0

>  <SCORE.SYSTEM.SOLV>
0

>  <SCORE.SYSTEM.norm>
0

>  <SCORE.heavy>
22

>  <SCORE.norm>
-0.368314

>  <RMSD>
6.836

$$$$
ligand
 OpenBabel11021811513D
libRbt.so/2013.1/901 2013/11/27
 22 23  0  0  0  0  0  0  0  0999 V2000
  -28.7414    2.4705  -11.9113 N   0  0  0  0  0  0  0  0  0  0  0  0
  -31.4779    1.1769  -10.3978 C   0  0  1  0  0  0  0  0  0  0  0  0
  -30.7451    1.3602  -11.6425 O   0  0  0  0  0  0  0  0  0  0  0  0
  -33.6991    3.4132   -8.2962 P   0  0  1  0  0  0  0  0  0  0  0  0
  -29.3416    1.3701  -11.3351 C   0  0  2  0  0  0  0  0  0  0  0  0
  -28.1283    4.5214  -12.2706 N   0  0  0  0  0  0  0  0  0  0  0  0
  -28.0425    1.0707   -9.3556 O   0  0  0  0  0  0  0  0  0  0  0  0
  -29.2788    1.5781   -9.8710 C   0  0  2  0  0  0  0  0  0  0  0  0
  -26.3077    5.5585  -14.3446 N   0  0  0  0  0  0  0  0  0  0  0  0
  -30.2369   -0.5460   -9.4048 O   0  0  0  0  0  0  0  0  0  0  0  0
  -30.4545    0.8745   -9.3733 C   0  0  2  0  0  0  0  0  0  0  0  0
  -27.5276    3.7390  -13.1803 C   0  0  0  0  0  0  0  0  0  0  0  0
  -27.4805    1.3080  -13.6817 N   0  0  0  0  0  0  0  0  0  0  0  0
  -32.8994    2.2294   -8.9425 O   0  0  0  0  0  0  0  0  0  0  0  0
  -32.1778    2.4601  -10.1087 C   0  0  0  0  0  0  0  0  0  0  0  0
  -34.3985    2.7410   -7.0595 O   0  0  0  0  0  0  0  0  0  0  0  0
  -28.8868    3.7312  -11.4871 C   0  0  0  0  0  0  0  0  0  0  0  0
  -26.1326    3.3987  -15.0446 O   0  0  0  0  0  0  0  0  0  0  0  0
  -26.6136    4.1988  -14.2424 C   0  0  0  0  0  0  0  0  0  0  0  0
  -27.9064    2.4457  -12.9586 C   0  0  0  0  0  0  0  0  0  0  0  0
  -32.7625    4.5230   -7.9512 O   0  5  0  0  0  0  0  0  0  0  0  0
  -34.5698    4.0613   -9.2934 O   0  0  0  0  0  0  0  0  0  0  0  0
  1 17  1  0  0  0  0
  1 20  1  0  0  0  0
  2 15  1  1  0  0  0
  2  3  1  0  0  0  0
  2 11  1  0  0  0  0
  3  5  1  0  0  0  0
  4 16  1  1  0  0  0
  4 21  1  0  0  0  0
  4 22  2  0  0  0  0
  4 14  1  0  0  0  0
  5  1  1  6  0  0  0
  5  8  1  0  0  0  0
  6 17  2  0  0  0  0
  6 12  1  0  0  0  0
  8  7  1  1  0  0  0
  8 11  1  0  0  0  0
  9 19  1  0  0  0  0
 11 10  1  6  0  0  0
 12 20  2  0  0  0  0
 12 19  1  0  0  0  0
 13 20  1  0  0  0  0
 14 15  1  0  0  0  0
 18 19  2  0  0  0  0
M  CHG  1  21  -1
M  END
>  <CHROM.1>
72.89008314,178.00863479,178.06447401,176.40249595,0.51930478,-30.21016447
2.64431660,-10.77208479,-0.29965123,-0.63301141,2.75418817

>  <Name>
ligand

>  <RI>
0

>  <Rbt.Current_Directory>
/home/itssahil/PROJECTS/Mol_Feturizer/New_Systems/rnas/4XWF

>  <Rbt.Executable>
rbdock ($Id: //depot/dev/client3/rdock/2013.1/src/exe/rbdock.cxx#4 $)

>  <Rbt.Library>
libRbt.so (2013.1, Build901 2013/11/27)

>  <Rbt.Parameter_File>
/export/apps/rDock/src/rDock_2013.1_src/data/scripts/dock_solv.prm

>  <Rbt.Receptor>
prm/pocket_docking_4.prm

>  <SCORE>
-3.96602

>  <SCORE.INTER>
-3.70873

>  <SCORE.INTER.CONST>
1

>  <SCORE.INTER.POLAR>
0

>  <SCORE.INTER.ROT>
5

>  <SCORE.INTER.SOLV>
15.1585

>  <SCORE.INTER.VDW>
-14.4586

>  <SCORE.INTER.norm>
-0.168579

>  <SCORE.INTRA>
-0.257291

>  <SCORE.INTRA.DIHEDRAL>
-1.85987

>  <SCORE.INTRA.DIHEDRAL.0>
3.49807

>  <SCORE.INTRA.POLAR>
0

>  <SCORE.INTRA.POLAR.0>
0

>  <SCORE.INTRA.REPUL>
0

>  <SCORE.INTRA.REPUL.0>
0

>  <SCORE.INTRA.SOLV>
-0.310124

>  <SCORE.INTRA.SOLV.lig_0>
-73.062

>  <SCORE.INTRA.VDW>
0.827706

>  <SCORE.INTRA.VDW.0>
-1.83782

>  <SCORE.INTRA.norm>
-0.0116951

>  <SCORE.RESTR>
0

>  <SCORE.RESTR.CAVITY>
0

>  <SCORE.RESTR.norm>
0

>  <SCORE.SYSTEM>
0

>  <SCORE.SYSTEM.CONST>
0

>  <SCORE.SYSTEM.DIHEDRAL>
0

>  <SCORE.SYSTEM.SOLV>
0

>  <SCORE.SYSTEM.norm>
0

>  <SCORE.heavy>
22

>  <SCORE.norm>
-0.180274

>  <RMSD>
6.838

$$$$
ligand
 OpenBabel11021811513D
libRbt.so/2013.1/901 2013/11/27
 22 23  0  0  0  0  0  0  0  0999 V2000
  -29.0109    0.6117  -12.2016 N   0  0  0  0  0  0  0  0  0  0  0  0
  -31.1087    0.9096   -9.5628 C   0  0  1  0  0  0  0  0  0  0  0  0
  -30.7487    0.1556  -10.7552 O   0  0  0  0  0  0  0  0  0  0  0  0
  -33.2176    4.0015   -8.9740 P   0  0  1  0  0  0  0  0  0  0  0  0
  -29.3225    0.2281  -10.9135 C   0  0  2  0  0  0  0  0  0  0  0  0
  -29.2063    1.4180  -14.2073 N   0  0  0  0  0  0  0  0  0  0  0  0
  -27.5287    1.1804   -9.6600 O   0  0  0  0  0  0  0  0  0  0  0  0
  -28.9024    1.3409  -10.0325 C   0  0  2  0  0  0  0  0  0  0  0  0
  -26.1797    0.0077  -15.4484 N   0  0  0  0  0  0  0  0  0  0  0  0
  -29.4797    0.1555   -8.0554 O   0  0  0  0  0  0  0  0  0  0  0  0
  -29.8281    1.2581   -8.9094 C   0  0  2  0  0  0  0  0  0  0  0  0
  -27.9300    1.0443  -14.0284 C   0  0  0  0  0  0  0  0  0  0  0  0
  -26.6099    0.0548  -12.1731 N   0  0  0  0  0  0  0  0  0  0  0  0
  -32.4175    2.6570   -8.8702 O   0  0  0  0  0  0  0  0  0  0  0  0
  -31.8387    2.1262  -10.0178 C   0  0  0  0  0  0  0  0  0  0  0  0
  -34.3737    3.6545   -9.9807 O   0  0  0  0  0  0  0  0  0  0  0  0
  -29.8771    1.1424  -13.0726 C   0  0  0  0  0  0  0  0  0  0  0  0
  -26.5296    2.2576  -15.4790 O   0  0  0  0  0  0  0  0  0  0  0  0
  -26.8511    1.1587  -15.0272 C   0  0  0  0  0  0  0  0  0  0  0  0
  -27.7985    0.5384  -12.7666 C   0  0  0  0  0  0  0  0  0  0  0  0
  -33.6808    4.4165   -7.6171 O   0  5  0  0  0  0  0  0  0  0  0  0
  -32.3222    5.1158   -9.3335 O   0  0  0  0  0  0  0  0  0  0  0  0
  1 17  1  0  0  0  0
  1 20  1  0  0  0  0
  2 15  1  6  0  0  0
  2  3  1  0  0  0  0
  2 11  1  0  0  0  0
  3  5  1  0  0  0  0
  4 16  1  6  0  0  0
  4 21  1  0  0  0  0
  4 22  2  0  0  0  0
  4 14  1  0  0  0  0
  5  1  1  6  0  0  0
  5  8  1  0  0  0  0
  6 17  2  0  0  0  0
  6 12  1  0  0  0  0
  8  7  1  1  0  0  0
  8 11  1  0  0  0  0
  9 19  1  0  0  0  0
 11 10  1  1  0  0  0
 12 20  2  0  0  0  0
 12 19  1  0  0  0  0
 13 20  1  0  0  0  0
 14 15  1  0  0  0  0
 18 19  2  0  0  0  0
M  CHG  1  21  -1
M  END
>  <CHROM.1>
14.72736226,167.16061741,60.63720142,177.13097800,-120.52117662,-30.03421525
1.79813640,-11.00968902,-0.48227855,-0.66098979,1.94621460

>  <Name>
ligand

>  <RI>
0

>  <Rbt.Current_Directory>
/home/itssahil/PROJECTS/Mol_Feturizer/New_Systems/rnas/4XWF

>  <Rbt.Executable>
rbdock ($Id: //depot/dev/client3/rdock/2013.1/src/exe/rbdock.cxx#4 $)

>  <Rbt.Library>
libRbt.so (2013.1, Build901 2013/11/27)

>  <Rbt.Parameter_File>
/export/apps/rDock/src/rDock_2013.1_src/data/scripts/dock_solv.prm

>  <Rbt.Receptor>
prm/pocket_docking_6.prm

>  <SCORE>
-8.68541

>  <SCORE.INTER>
-8.18381

>  <SCORE.INTER.CONST>
1

>  <SCORE.INTER.POLAR>
0

>  <SCORE.INTER.ROT>
5

>  <SCORE.INTER.SOLV>
13.6281

>  <SCORE.INTER.VDW>
-16.9319

>  <SCORE.INTER.norm>
-0.371991

>  <SCORE.INTRA>
-0.501607

>  <SCORE.INTRA.DIHEDRAL>
-1.4216

>  <SCORE.INTRA.DIHEDRAL.0>
3.49807

>  <SCORE.INTRA.POLAR>
0

>  <SCORE.INTRA.POLAR.0>
0

>  <SCORE.INTRA.REPUL>
0

>  <SCORE.INTRA.REPUL.0>
0

>  <SCORE.INTRA.SOLV>
0.729779

>  <SCORE.INTRA.SOLV.lig_0>
-73.062

>  <SCORE.INTRA.VDW>
-0.155695

>  <SCORE.INTRA.VDW.0>
-1.83782

>  <SCORE.INTRA.norm>
-0.0228003

>  <SCORE.RESTR>
0

>  <SCORE.RESTR.CAVITY>
0

>  <SCORE.RESTR.norm>
0

>  <SCORE.SYSTEM>
0

>  <SCORE.SYSTEM.CONST>
0

>  <SCORE.SYSTEM.DIHEDRAL>
0

>  <SCORE.SYSTEM.SOLV>
0

>  <SCORE.SYSTEM.norm>
0

>  <SCORE.heavy>
22

>  <SCORE.norm>
-0.394792

>  <RMSD>
6.838

$$$$
ligand
 OpenBabel11021811513D
libRbt.so/2013.1/901 2013/11/27
 22 23  0  0  0  0  0  0  0  0999 V2000
  -29.0090    0.6064  -12.2140 N   0  0  0  0  0  0  0  0  0  0  0  0
  -31.0813    0.9155   -9.5565 C   0  0  1  0  0  0  0  0  0  0  0  0
  -30.7340    0.1577  -10.7502 O   0  0  0  0  0  0  0  0  0  0  0  0
  -33.2332    3.9771   -8.9649 P   0  0  1  0  0  0  0  0  0  0  0  0
  -29.3092    0.2268  -10.9222 C   0  0  2  0  0  0  0  0  0  0  0  0
  -29.2232    1.4020  -14.2221 N   0  0  0  0  0  0  0  0  0  0  0  0
  -27.5017    1.1786   -9.6880 O   0  0  0  0  0  0  0  0  0  0  0  0
  -28.8786    1.3410  -10.0481 C   0  0  2  0  0  0  0  0  0  0  0  0
  -26.1651    0.0119  -15.4435 N   0  0  0  0  0  0  0  0  0  0  0  0
  -29.4397    0.1621   -8.0625 O   0  0  0  0  0  0  0  0  0  0  0  0
  -29.7939    1.2631   -8.9161 C   0  0  2  0  0  0  0  0  0  0  0  0
  -27.9434    1.0372  -14.0503 C   0  0  0  0  0  0  0  0  0  0  0  0
  -26.6044    0.0647  -12.1996 N   0  0  0  0  0  0  0  0  0  0  0  0
  -32.4213    2.6395   -8.8648 O   0  0  0  0  0  0  0  0  0  0  0  0
  -31.8130    2.1325  -10.0079 C   0  0  0  0  0  0  0  0  0  0  0  0
  -34.3757    3.6280   -9.9864 O   0  0  0  0  0  0  0  0  0  0  0  0
  -29.8845    1.1275  -13.0815 C   0  0  0  0  0  0  0  0  0  0  0  0
  -26.5881    2.2471  -15.5458 O   0  0  0  0  0  0  0  0  0  0  0  0
  -26.8722    1.1537  -15.0571 C   0  0  0  0  0  0  0  0  0  0  0  0
  -27.8000    0.5380  -12.7871 C   0  0  0  0  0  0  0  0  0  0  0  0
  -33.7142    4.3755   -7.6092 O   0  5  0  0  0  0  0  0  0  0  0  0
  -32.3451    5.1031   -9.3054 O   0  0  0  0  0  0  0  0  0  0  0  0
  1 17  1  0  0  0  0
  1 20  1  0  0  0  0
  2 15  1  6  0  0  0
  2  3  1  0  0  0  0
  2 11  1  0  0  0  0
  3  5  1  0  0  0  0
  4 16  1  6  0  0  0
  4 21  1  0  0  0  0
  4 22  2  0  0  0  0
  4 14  1  0  0  0  0
  5  1  1  6  0  0  0
  5  8  1  0  0  0  0
  6 17  2  0  0  0  0
  6 12  1  0  0  0  0
  8  7  1  1  0  0  0
  8 11  1  0  0  0  0
  9 19  1  0  0  0  0
 11 10  1  1  0  0  0
 12 20  2  0  0  0  0
 12 19  1  0  0  0  0
 13 20  1  0  0  0  0
 14 15  1  0  0  0  0
 18 19  2  0  0  0  0
M  CHG  1  21  -1
M  END
>  <CHROM.1>
14.21244315,164.99182481,61.36509751,177.20175666,-122.72490573,-30.03394932
1.79026840,-11.01741390,-0.49563930,-0.65394093,1.93016233

>  <Name>
ligand

>  <RI>
0

>  <Rbt.Current_Directory>
/home/itssahil/PROJECTS/Mol_Feturizer/New_Systems/rnas/4XWF

>  <Rbt.Executable>
rbdock ($Id: //depot/dev/client3/rdock/2013.1/src/exe/rbdock.cxx#4 $)

>  <Rbt.Library>
libRbt.so (2013.1, Build901 2013/11/27)

>  <Rbt.Parameter_File>
/export/apps/rDock/src/rDock_2013.1_src/data/scripts/dock_solv.prm

>  <Rbt.Receptor>
prm/pocket_docking_5.prm

>  <SCORE>
-8.67649

>  <SCORE.INTER>
-8.27634

>  <SCORE.INTER.CONST>
1

>  <SCORE.INTER.POLAR>
0

>  <SCORE.INTER.ROT>
5

>  <SCORE.INTER.SOLV>
13.5661

>  <SCORE.INTER.VDW>
-16.9729

>  <SCORE.INTER.norm>
-0.376197

>  <SCORE.INTRA>
-0.400144

>  <SCORE.INTRA.DIHEDRAL>
-1.22496

>  <SCORE.INTRA.DIHEDRAL.0>
3.49807

>  <SCORE.INTRA.POLAR>
0

>  <SCORE.INTRA.POLAR.0>
0

>  <SCORE.INTRA.REPUL>
0

>  <SCORE.INTRA.REPUL.0>
0

>  <SCORE.INTRA.SOLV>
0.75304

>  <SCORE.INTRA.SOLV.lig_0>
-73.062

>  <SCORE.INTRA.VDW>
-0.164185

>  <SCORE.INTRA.VDW.0>
-1.83782

>  <SCORE.INTRA.norm>
-0.0181884

>  <SCORE.RESTR>
0

>  <SCORE.RESTR.CAVITY>
0

>  <SCORE.RESTR.norm>
0

>  <SCORE.SYSTEM>
0

>  <SCORE.SYSTEM.CONST>
0

>  <SCORE.SYSTEM.DIHEDRAL>
0

>  <SCORE.SYSTEM.SOLV>
0

>  <SCORE.SYSTEM.norm>
0

>  <SCORE.heavy>
22

>  <SCORE.norm>
-0.394386

>  <RMSD>
6.842

$$$$
ligand
 OpenBabel11021811513D
libRbt.so/2013.1/901 2013/11/27
 22 23  0  0  0  0  0  0  0  0999 V2000
  -28.5037    0.9120  -13.3664 N   0  0  0  0  0  0  0  0  0  0  0  0
  -30.2169    0.5676  -10.4683 C   0  0  1  0  0  0  0  0  0  0  0  0
  -29.8906   -0.0038  -11.7671 O   0  0  0  0  0  0  0  0  0  0  0  0
  -32.6484    3.2188   -9.2918 P   0  0  1  0  0  0  0  0  0  0  0  0
  -28.5447    0.3773  -12.0953 C   0  0  2  0  0  0  0  0  0  0  0  0
  -29.0751    2.0022  -15.1541 N   0  0  0  0  0  0  0  0  0  0  0  0
  -26.8127    1.5885  -10.9867 O   0  0  0  0  0  0  0  0  0  0  0  0
  -28.2302    1.4849  -11.1652 C   0  0  2  0  0  0  0  0  0  0  0  0
  -26.6400    0.5575  -17.2896 N   0  0  0  0  0  0  0  0  0  0  0  0
  -28.2715    0.0618   -9.2625 O   0  0  0  0  0  0  0  0  0  0  0  0
  -28.9499    1.1271   -9.9490 C   0  0  2  0  0  0  0  0  0  0  0  0
  -27.8397    1.5120  -15.3392 C   0  0  0  0  0  0  0  0  0  0  0  0
  -26.2362    0.1769  -13.9940 N   0  0  0  0  0  0  0  0  0  0  0  0
  -31.6896    1.9866   -9.4370 O   0  0  0  0  0  0  0  0  0  0  0  0
  -31.2303    1.6347  -10.7015 C   0  0  0  0  0  0  0  0  0  0  0  0
  -31.7568    4.4248   -9.7622 O   0  0  0  0  0  0  0  0  0  0  0  0
  -29.4876    1.6227  -13.9297 C   0  0  0  0  0  0  0  0  0  0  0  0
  -26.6531    2.8026  -16.9087 O   0  0  0  0  0  0  0  0  0  0  0  0
  -27.0183    1.6826  -16.5520 C   0  0  0  0  0  0  0  0  0  0  0  0
  -27.4718    0.8268  -14.2165 C   0  0  0  0  0  0  0  0  0  0  0  0
  -33.8765    2.9991  -10.1111 O   0  5  0  0  0  0  0  0  0  0  0  0
  -33.2101    3.2861   -7.9307 O   0  0  0  0  0  0  0  0  0  0  0  0
  1 17  1  0  0  0  0
  1 20  1  0  0  0  0
  2 15  1  6  0  0  0
  2  3  1  0  0  0  0
  2 11  1  0  0  0  0
  3  5  1  0  0  0  0
  4 16  1  6  0  0  0
  4 21  1  0  0  0  0
  4 22  2  0  0  0  0
  4 14  1  0  0  0  0
  5  1  1  6  0  0  0
  5  8  1  0  0  0  0
  6 17  2  0  0  0  0
  6 12  1  0  0  0  0
  8  7  1  1  0  0  0
  8 11  1  0  0  0  0
  9 19  1  0  0  0  0
 11 10  1  6  0  0  0
 12 20  2  0  0  0  0
 12 19  1  0  0  0  0
 13 20  1  0  0  0  0
 14 15  1  0  0  0  0
 18 19  2  0  0  0  0
M  CHG  1  21  -1
M  END
>  <CHROM.1>
32.98721637,169.65461344,-63.78319925,172.49457495,-117.74319097,-29.54138800
1.70792786,-11.98240693,-0.73546399,-0.56677861,1.86833630

>  <Name>
ligand

>  <RI>
0

>  <Rbt.Current_Directory>
/home/itssahil/PROJECTS/Mol_Feturizer/New_Systems/rnas/4XWF

>  <Rbt.Executable>
rbdock ($Id: //depot/dev/client3/rdock/2013.1/src/exe/rbdock.cxx#4 $)

>  <Rbt.Library>
libRbt.so (2013.1, Build901 2013/11/27)

>  <Rbt.Parameter_File>
/export/apps/rDock/src/rDock_2013.1_src/data/scripts/dock_solv.prm

>  <Rbt.Receptor>
prm/pocket_docking_7.prm

>  <SCORE>
-7.27376

>  <SCORE.INTER>
-6.27548

>  <SCORE.INTER.CONST>
1

>  <SCORE.INTER.POLAR>
0

>  <SCORE.INTER.ROT>
5

>  <SCORE.INTER.SOLV>
15.1673

>  <SCORE.INTER.VDW>
-16.1728

>  <SCORE.INTER.norm>
-0.285249

>  <SCORE.INTRA>
-0.99828

>  <SCORE.INTRA.DIHEDRAL>
-1.34179

>  <SCORE.INTRA.DIHEDRAL.0>
3.49807

>  <SCORE.INTRA.POLAR>
0

>  <SCORE.INTRA.POLAR.0>
0

>  <SCORE.INTRA.REPUL>
0

>  <SCORE.INTRA.REPUL.0>
0

>  <SCORE.INTRA.SOLV>
0.00807751

>  <SCORE.INTRA.SOLV.lig_0>
-73.062

>  <SCORE.INTRA.VDW>
-0.331424

>  <SCORE.INTRA.VDW.0>
-1.83782

>  <SCORE.INTRA.norm>
-0.0453764

>  <SCORE.RESTR>
0

>  <SCORE.RESTR.CAVITY>
0

>  <SCORE.RESTR.norm>
0

>  <SCORE.SYSTEM>
0

>  <SCORE.SYSTEM.CONST>
0

>  <SCORE.SYSTEM.DIHEDRAL>
0

>  <SCORE.SYSTEM.SOLV>
0

>  <SCORE.SYSTEM.norm>
0

>  <SCORE.heavy>
22

>  <SCORE.norm>
-0.330625

>  <RMSD>
6.860

$$$$
ligand
 OpenBabel11021811513D
libRbt.so/2013.1/901 2013/11/27
 22 23  0  0  0  0  0  0  0  0999 V2000
  -29.5253    0.5227  -11.3708 N   0  0  0  0  0  0  0  0  0  0  0  0
  -32.0367    1.4255   -9.2899 C   0  0  1  0  0  0  0  0  0  0  0  0
  -31.4501    0.3742  -10.1088 O   0  0  0  0  0  0  0  0  0  0  0  0
  -33.5086    4.0649   -8.4798 P   0  0  1  0  0  0  0  0  0  0  0  0
  -30.0226    0.5353  -10.0841 C   0  0  2  0  0  0  0  0  0  0  0  0
  -29.3695    0.8260  -13.5144 N   0  0  0  0  0  0  0  0  0  0  0  0
  -28.5066    2.0085   -8.9761 O   0  0  0  0  0  0  0  0  0  0  0  0
  -29.8078    1.9051   -9.5661 C   0  0  2  0  0  0  0  0  0  0  0  0
  -26.5875   -1.3707  -13.9527 N   0  0  0  0  0  0  0  0  0  0  0  0
  -30.6389    1.3517   -7.4097 O   0  0  0  0  0  0  0  0  0  0  0  0
  -30.8985    2.0883   -8.6165 C   0  0  2  0  0  0  0  0  0  0  0  0
  -28.2210    0.2817  -13.0837 C   0  0  0  0  0  0  0  0  0  0  0  0
  -27.3070   -0.4390  -10.8908 N   0  0  0  0  0  0  0  0  0  0  0  0
  -33.7940    2.8834   -9.4704 O   0  0  0  0  0  0  0  0  0  0  0  0
  -32.7429    2.3573  -10.2135 C   0  0  0  0  0  0  0  0  0  0  0  0
  -34.9233    4.7224   -8.2883 O   0  0  0  0  0  0  0  0  0  0  0  0
  -30.1804    0.9690  -12.4488 C   0  0  0  0  0  0  0  0  0  0  0  0
  -26.4942    0.8131  -14.5914 O   0  0  0  0  0  0  0  0  0  0  0  0
  -27.0586   -0.0553  -13.9262 C   0  0  0  0  0  0  0  0  0  0  0  0
  -28.3104    0.0906  -11.7343 C   0  0  0  0  0  0  0  0  0  0  0  0
  -32.8973    3.5331   -7.2263 O   0  5  0  0  0  0  0  0  0  0  0  0
  -32.4281    4.9267   -8.9922 O   0  0  0  0  0  0  0  0  0  0  0  0
  1 17  1  0  0  0  0
  1 20  1  0  0  0  0
  2 15  1  6  0  0  0
  2  3  1  0  0  0  0
  2 11  1  0  0  0  0
  3  5  1  0  0  0  0
  4 16  1  1  0  0  0
  4 21  1  0  0  0  0
  4 22  2  0  0  0  0
  4 14  1  0  0  0  0
  5  1  1  6  0  0  0
  5  8  1  0  0  0  0
  6 17  2  0  0  0  0
  6 12  1  0  0  0  0
  8  7  1  1  0  0  0
  8 11  1  0  0  0  0
  9 19  1  0  0  0  0
 11 10  1  1  0  0  0
 12 20  2  0  0  0  0
 12 19  1  0  0  0  0
 13 20  1  0  0  0  0
 14 15  1  0  0  0  0
 18 19  2  0  0  0  0
M  CHG  1  21  -1
M  END
>  <CHROM.1>
31.43718058,150.28166978,158.64755299,80.83093547,-122.23905715,-30.56342176
1.74780220,-10.35187979,-0.59254766,-0.58284112,1.59171618

>  <Name>
ligand

>  <RI>
0

>  <Rbt.Current_Directory>
/home/itssahil/PROJECTS/Mol_Feturizer/New_Systems/rnas/4XWF

>  <Rbt.Executable>
rbdock ($Id: //depot/dev/client3/rdock/2013.1/src/exe/rbdock.cxx#4 $)

>  <Rbt.Library>
libRbt.so (2013.1, Build901 2013/11/27)

>  <Rbt.Parameter_File>
/export/apps/rDock/src/rDock_2013.1_src/data/scripts/dock_solv.prm

>  <Rbt.Receptor>
prm/pocket_docking_7.prm

>  <SCORE>
-4.77254

>  <SCORE.INTER>
-8.60059

>  <SCORE.INTER.CONST>
1

>  <SCORE.INTER.POLAR>
0

>  <SCORE.INTER.ROT>
5

>  <SCORE.INTER.SOLV>
13.81

>  <SCORE.INTER.VDW>
-17.2704

>  <SCORE.INTER.norm>
-0.390936

>  <SCORE.INTRA>
3.82805

>  <SCORE.INTRA.DIHEDRAL>
3.16737

>  <SCORE.INTRA.DIHEDRAL.0>
3.49807

>  <SCORE.INTRA.POLAR>
0

>  <SCORE.INTRA.POLAR.0>
0

>  <SCORE.INTRA.REPUL>
0

>  <SCORE.INTRA.REPUL.0>
0

>  <SCORE.INTRA.SOLV>
5.34766

>  <SCORE.INTRA.SOLV.lig_0>
-73.062

>  <SCORE.INTRA.VDW>
-0.429465

>  <SCORE.INTRA.VDW.0>
-1.83782

>  <SCORE.INTRA.norm>
0.174002

>  <SCORE.RESTR>
0

>  <SCORE.RESTR.CAVITY>
0

>  <SCORE.RESTR.norm>
0

>  <SCORE.SYSTEM>
0

>  <SCORE.SYSTEM.CONST>
0

>  <SCORE.SYSTEM.DIHEDRAL>
0

>  <SCORE.SYSTEM.SOLV>
0

>  <SCORE.SYSTEM.norm>
0

>  <SCORE.heavy>
22

>  <SCORE.norm>
-0.216934

>  <RMSD>
6.904

$$$$
ligand
 OpenBabel11021811513D
libRbt.so/2013.1/901 2013/11/27
 22 23  0  0  0  0  0  0  0  0999 V2000
  -29.4367   -0.3642   -8.6007 N   0  0  0  0  0  0  0  0  0  0  0  0
  -31.0522    2.0187  -10.3796 C   0  0  1  0  0  0  0  0  0  0  0  0
  -30.3364    1.6856   -9.1562 O   0  0  0  0  0  0  0  0  0  0  0  0
  -33.3243    3.5461   -9.0425 P   0  0  1  0  0  0  0  0  0  0  0  0
  -29.3437    0.6975   -9.4767 C   0  0  2  0  0  0  0  0  0  0  0  0
  -30.2734   -1.9624   -7.3938 N   0  0  0  0  0  0  0  0  0  0  0  0
  -28.6057   -0.3696  -11.4798 O   0  0  0  0  0  0  0  0  0  0  0  0
  -29.7431    0.1802  -10.8047 C   0  0  2  0  0  0  0  0  0  0  0  0
  -28.8427   -4.0067   -5.8170 N   0  0  0  0  0  0  0  0  0  0  0  0
  -29.2704    2.2428  -11.8861 O   0  0  0  0  0  0  0  0  0  0  0  0
  -30.3133    1.3453  -11.4700 C   0  0  2  0  0  0  0  0  0  0  0  0
  -28.9388   -1.9892   -7.2574 C   0  0  0  0  0  0  0  0  0  0  0  0
  -27.0315   -0.6875   -8.1691 N   0  0  0  0  0  0  0  0  0  0  0  0
  -32.9263    2.0296   -9.0629 O   0  0  0  0  0  0  0  0  0  0  0  0
  -32.4333    1.4773  -10.2400 C   0  0  0  0  0  0  0  0  0  0  0  0
  -34.5144    3.6187  -10.0666 O   0  0  0  0  0  0  0  0  0  0  0  0
  -30.5805   -0.9478   -8.2243 C   0  0  0  0  0  0  0  0  0  0  0  0
  -26.9676   -2.7901   -6.2523 O   0  0  0  0  0  0  0  0  0  0  0  0
  -28.1771   -2.9391   -6.4255 C   0  0  0  0  0  0  0  0  0  0  0  0
  -28.4045   -0.9876   -8.0168 C   0  0  0  0  0  0  0  0  0  0  0  0
  -33.6782    3.9539   -7.6509 O   0  5  0  0  0  0  0  0  0  0  0  0
  -32.1513    4.3977   -9.3100 O   0  0  0  0  0  0  0  0  0  0  0  0
  1 17  1  0  0  0  0
  1 20  1  0  0  0  0
  2 15  1  1  0  0  0
  2  3  1  0  0  0  0
  2 11  1  0  0  0  0
  3  5  1  0  0  0  0
  4 16  1  6  0  0  0
  4 21  1  0  0  0  0
  4 22  2  0  0  0  0
  4 14  1  0  0  0  0
  5  1  1  1  0  0  0
  5  8  1  0  0  0  0
  6 17  2  0  0  0  0
  6 12  1  0  0  0  0
  8  7  1  6  0  0  0
  8 11  1  0  0  0  0
  9 19  1  0  0  0  0
 11 10  1  1  0  0  0
 12 20  2  0  0  0  0
 12 19  1  0  0  0  0
 13 20  1  0  0  0  0
 14 15  1  0  0  0  0
 18 19  2  0  0  0  0
M  CHG  1  21  -1
M  END
>  <CHROM.1>
44.67224750,55.39694189,63.81769361,73.27566562,7.16519827,-30.51497776,0.73309844
-8.96073076,-0.70801947,0.63027559,-0.98819828

>  <Name>
ligand

>  <RI>
0

>  <Rbt.Current_Directory>
/home/itssahil/PROJECTS/Mol_Feturizer/New_Systems/rnas/4XWF

>  <Rbt.Executable>
rbdock ($Id: //depot/dev/client3/rdock/2013.1/src/exe/rbdock.cxx#4 $)

>  <Rbt.Library>
libRbt.so (2013.1, Build901 2013/11/27)

>  <Rbt.Parameter_File>
/export/apps/rDock/src/rDock_2013.1_src/data/scripts/dock_solv.prm

>  <Rbt.Receptor>
prm/pocket_docking_8.prm

>  <SCORE>
-9.75099

>  <SCORE.INTER>
-10.4381

>  <SCORE.INTER.CONST>
1

>  <SCORE.INTER.POLAR>
0

>  <SCORE.INTER.ROT>
5

>  <SCORE.INTER.SOLV>
14.6363

>  <SCORE.INTER.VDW>
-18.7709

>  <SCORE.INTER.norm>
-0.474461

>  <SCORE.INTRA>
0.68716

>  <SCORE.INTRA.DIHEDRAL>
-1.03034

>  <SCORE.INTRA.DIHEDRAL.0>
3.49807

>  <SCORE.INTRA.POLAR>
0

>  <SCORE.INTRA.POLAR.0>
0

>  <SCORE.INTRA.REPUL>
0

>  <SCORE.INTRA.REPUL.0>
0

>  <SCORE.INTRA.SOLV>
1.96792

>  <SCORE.INTRA.SOLV.lig_0>
-73.062

>  <SCORE.INTRA.VDW>
0.218372

>  <SCORE.INTRA.VDW.0>
-1.83782

>  <SCORE.INTRA.norm>
0.0312345

>  <SCORE.RESTR>
0

>  <SCORE.RESTR.CAVITY>
0

>  <SCORE.RESTR.norm>
0

>  <SCORE.SYSTEM>
0

>  <SCORE.SYSTEM.CONST>
0

>  <SCORE.SYSTEM.DIHEDRAL>
0

>  <SCORE.SYSTEM.SOLV>
0

>  <SCORE.SYSTEM.norm>
0

>  <SCORE.heavy>
22

>  <SCORE.norm>
-0.443227

>  <RMSD>
6.909

$$$$
ligand
 OpenBabel11021811513D
libRbt.so/2013.1/901 2013/11/27
 22 23  0  0  0  0  0  0  0  0999 V2000
  -28.0488    1.6800  -15.0841 N   0  0  0  0  0  0  0  0  0  0  0  0
  -28.0790    3.9049  -17.6339 C   0  0  1  0  0  0  0  0  0  0  0  0
  -27.6657    3.6229  -16.2666 O   0  0  0  0  0  0  0  0  0  0  0  0
  -30.9938    6.1711  -16.7840 P   0  0  1  0  0  0  0  0  0  0  0  0
  -27.3851    2.2172  -16.1676 C   0  0  2  0  0  0  0  0  0  0  0  0
  -29.6290    1.2052  -13.6740 N   0  0  0  0  0  0  0  0  0  0  0  0
  -27.3617    0.3863  -17.6983 O   0  0  0  0  0  0  0  0  0  0  0  0
  -28.0050    1.6243  -17.3738 C   0  0  2  0  0  0  0  0  0  0  0  0
  -29.3357   -0.2837  -11.1141 N   0  0  0  0  0  0  0  0  0  0  0  0
  -26.4717    2.6968  -18.8387 O   0  0  0  0  0  0  0  0  0  0  0  0
  -27.8366    2.6565  -18.3894 C   0  0  2  0  0  0  0  0  0  0  0  0
  -28.5306    0.5214  -13.3182 C   0  0  0  0  0  0  0  0  0  0  0  0
  -26.2212    0.2836  -14.1977 N   0  0  0  0  0  0  0  0  0  0  0  0
  -29.5988    5.4732  -16.9433 O   0  0  0  0  0  0  0  0  0  0  0  0
  -29.5290    4.2450  -17.5917 C   0  0  0  0  0  0  0  0  0  0  0  0
  -31.7184    5.2836  -15.7079 O   0  0  0  0  0  0  0  0  0  0  0  0
  -29.3249    1.9291  -14.7680 C   0  0  0  0  0  0  0  0  0  0  0  0
  -27.5212   -1.2298  -12.1132 O   0  0  0  0  0  0  0  0  0  0  0  0
  -28.4198   -0.3901  -12.1642 C   0  0  0  0  0  0  0  0  0  0  0  0
  -27.5321    0.8128  -14.2033 C   0  0  0  0  0  0  0  0  0  0  0  0
  -30.8000    7.5960  -16.3838 O   0  5  0  0  0  0  0  0  0  0  0  0
  -31.6561    6.3197  -18.0924 O   0  0  0  0  0  0  0  0  0  0  0  0
  1 17  1  0  0  0  0
  1 20  1  0  0  0  0
  2 15  1  1  0  0  0
  2  3  1  0  0  0  0
  2 11  1  0  0  0  0
  3  5  1  0  0  0  0
  4 16  1  1  0  0  0
  4 21  1  0  0  0  0
  4 22  2  0  0  0  0
  4 14  1  0  0  0  0
  5  1  1  1  0  0  0
  5  8  1  0  0  0  0
  6 17  2  0  0  0  0
  6 12  1  0  0  0  0
  8  7  1  6  0  0  0
  8 11  1  0  0  0  0
  9 19  1  0  0  0  0
 11 10  1  1  0  0  0
 12 20  2  0  0  0  0
 12 19  1  0  0  0  0
 13 20  1  0  0  0  0
 14 15  1  0  0  0  0
 18 19  2  0  0  0  0
M  CHG  1  21  -1
M  END
>  <CHROM.1>
44.80619058,69.02840714,71.71080182,177.09852659,-20.24622840,-28.86537720
2.86625413,-15.78736291,-1.06989803,0.77696489,-0.94540837

>  <Name>
ligand

>  <RI>
0

>  <Rbt.Current_Directory>
/home/itssahil/PROJECTS/Mol_Feturizer/New_Systems/rnas/4XWF

>  <Rbt.Executable>
rbdock ($Id: //depot/dev/client3/rdock/2013.1/src/exe/rbdock.cxx#4 $)

>  <Rbt.Library>
libRbt.so (2013.1, Build901 2013/11/27)

>  <Rbt.Parameter_File>
/export/apps/rDock/src/rDock_2013.1_src/data/scripts/dock_solv.prm

>  <Rbt.Receptor>
prm/pocket_docking_7.prm

>  <SCORE>
-8.63443

>  <SCORE.INTER>
-7.51612

>  <SCORE.INTER.CONST>
1

>  <SCORE.INTER.POLAR>
0

>  <SCORE.INTER.ROT>
5

>  <SCORE.INTER.SOLV>
13.9654

>  <SCORE.INTER.VDW>
-16.5992

>  <SCORE.INTER.norm>
-0.341642

>  <SCORE.INTRA>
-1.1183

>  <SCORE.INTRA.DIHEDRAL>
-1.09315

>  <SCORE.INTRA.DIHEDRAL.0>
3.49807

>  <SCORE.INTRA.POLAR>
0

>  <SCORE.INTRA.POLAR.0>
0

>  <SCORE.INTRA.REPUL>
0

>  <SCORE.INTRA.REPUL.0>
0

>  <SCORE.INTRA.SOLV>
-0.501172

>  <SCORE.INTRA.SOLV.lig_0>
-73.062

>  <SCORE.INTRA.VDW>
-0.32114

>  <SCORE.INTRA.VDW.0>
-1.83782

>  <SCORE.INTRA.norm>
-0.0508319

>  <SCORE.RESTR>
0

>  <SCORE.RESTR.CAVITY>
0

>  <SCORE.RESTR.norm>
0

>  <SCORE.SYSTEM>
0

>  <SCORE.SYSTEM.CONST>
0

>  <SCORE.SYSTEM.DIHEDRAL>
0

>  <SCORE.SYSTEM.SOLV>
0

>  <SCORE.SYSTEM.norm>
0

>  <SCORE.heavy>
22

>  <SCORE.norm>
-0.392474

>  <RMSD>
6.920

$$$$
ligand
 OpenBabel11021811513D
libRbt.so/2013.1/901 2013/11/27
 22 23  0  0  0  0  0  0  0  0999 V2000
  -30.5720    4.7086   -8.8485 N   0  0  0  0  0  0  0  0  0  0  0  0
  -32.3576    1.8699   -9.3019 C   0  0  1  0  0  0  0  0  0  0  0  0
  -31.2243    2.5057   -8.6453 O   0  0  0  0  0  0  0  0  0  0  0  0
  -29.7905    0.8272  -11.8275 P   0  0  1  0  0  0  0  0  0  0  0  0
  -31.5708    3.8760   -8.3876 C   0  0  2  0  0  0  0  0  0  0  0  0
  -28.9531    5.4970  -10.0604 N   0  0  0  0  0  0  0  0  0  0  0  0
  -33.5220    5.2140   -8.7011 O   0  0  0  0  0  0  0  0  0  0  0  0
  -32.7541    4.1312   -9.2393 C   0  0  2  0  0  0  0  0  0  0  0  0
  -27.7428    7.8904   -7.8145 N   0  0  0  0  0  0  0  0  0  0  0  0
  -34.1290    2.6553   -7.9829 O   0  0  0  0  0  0  0  0  0  0  0  0
  -33.4592    2.8553   -9.2389 C   0  0  2  0  0  0  0  0  0  0  0  0
  -29.2432    6.3994   -9.1106 C   0  0  0  0  0  0  0  0  0  0  0  0
  -30.8823    6.5618   -7.2531 N   0  0  0  0  0  0  0  0  0  0  0  0
  -30.7816    0.8480  -10.6126 O   0  0  0  0  0  0  0  0  0  0  0  0
  -31.9508    1.5946  -10.7086 C   0  0  0  0  0  0  0  0  0  0  0  0
  -30.7494    0.8051  -13.0727 O   0  0  0  0  0  0  0  0  0  0  0  0
  -29.7762    4.4447   -9.8914 C   0  0  0  0  0  0  0  0  0  0  0  0
  -28.7468    8.6159   -9.7253 O   0  0  0  0  0  0  0  0  0  0  0  0
  -28.5715    7.6987   -8.9234 C   0  0  0  0  0  0  0  0  0  0  0  0
  -30.2638    5.9114   -8.3453 C   0  0  0  0  0  0  0  0  0  0  0  0
  -28.8887    2.0147  -11.7604 O   0  5  0  0  0  0  0  0  0  0  0  0
  -28.8281   -0.2817  -11.6976 O   0  0  0  0  0  0  0  0  0  0  0  0
  1 17  1  0  0  0  0
  1 20  1  0  0  0  0
  2 15  1  6  0  0  0
  2  3  1  0  0  0  0
  2 11  1  0  0  0  0
  3  5  1  0  0  0  0
  4 16  1  6  0  0  0
  4 21  1  0  0  0  0
  4 22  2  0  0  0  0
  4 14  1  0  0  0  0
  5  1  1  6  0  0  0
  5  8  1  0  0  0  0
  6 17  2  0  0  0  0
  6 12  1  0  0  0  0
  8  7  1  1  0  0  0
  8 11  1  0  0  0  0
  9 19  1  0  0  0  0
 11 10  1  1  0  0  0
 12 20  2  0  0  0  0
 12 19  1  0  0  0  0
 13 20  1  0  0  0  0
 14 15  1  0  0  0  0
 18 19  2  0  0  0  0
M  CHG  1  21  -1
M  END
>  <CHROM.1>
30.21260242,55.01537102,-38.00197069,-157.37493427,-109.72031601,-30.64150874
3.67884462,-9.76501595,1.40289729,0.45656811,0.49424011

>  <Name>
ligand

>  <RI>
0

>  <Rbt.Current_Directory>
/home/itssahil/PROJECTS/Mol_Feturizer/New_Systems/rnas/4XWF

>  <Rbt.Executable>
rbdock ($Id: //depot/dev/client3/rdock/2013.1/src/exe/rbdock.cxx#4 $)

>  <Rbt.Library>
libRbt.so (2013.1, Build901 2013/11/27)

>  <Rbt.Parameter_File>
/export/apps/rDock/src/rDock_2013.1_src/data/scripts/dock_solv.prm

>  <Rbt.Receptor>
prm/pocket_docking_4.prm

>  <SCORE>
-7.11428

>  <SCORE.INTER>
-7.71727

>  <SCORE.INTER.CONST>
1

>  <SCORE.INTER.POLAR>
0

>  <SCORE.INTER.ROT>
5

>  <SCORE.INTER.SOLV>
12.4784

>  <SCORE.INTER.VDW>
-16.2376

>  <SCORE.INTER.norm>
-0.350785

>  <SCORE.INTRA>
0.602983

>  <SCORE.INTRA.DIHEDRAL>
1.06078

>  <SCORE.INTRA.DIHEDRAL.0>
3.49807

>  <SCORE.INTRA.POLAR>
0

>  <SCORE.INTRA.POLAR.0>
0

>  <SCORE.INTRA.REPUL>
0

>  <SCORE.INTRA.REPUL.0>
0

>  <SCORE.INTRA.SOLV>
0.749273

>  <SCORE.INTRA.SOLV.lig_0>
-73.062

>  <SCORE.INTRA.VDW>
-0.302043

>  <SCORE.INTRA.VDW.0>
-1.83782

>  <SCORE.INTRA.norm>
0.0274083

>  <SCORE.RESTR>
0

>  <SCORE.RESTR.CAVITY>
0

>  <SCORE.RESTR.norm>
0

>  <SCORE.SYSTEM>
0

>  <SCORE.SYSTEM.CONST>
0

>  <SCORE.SYSTEM.DIHEDRAL>
0

>  <SCORE.SYSTEM.SOLV>
0

>  <SCORE.SYSTEM.norm>
0

>  <SCORE.heavy>
22

>  <SCORE.norm>
-0.323377

>  <RMSD>
6.924

$$$$
ligand
 OpenBabel11021811513D
libRbt.so/2013.1/901 2013/11/27
 22 23  0  0  0  0  0  0  0  0999 V2000
  -28.8953    0.6252  -12.7771 N   0  0  0  0  0  0  0  0  0  0  0  0
  -30.5364    1.1080   -9.8572 C   0  0  1  0  0  0  0  0  0  0  0  0
  -30.5870    0.5726  -11.2102 O   0  0  0  0  0  0  0  0  0  0  0  0
  -33.1335    3.0683   -9.3189 P   0  0  1  0  0  0  0  0  0  0  0  0
  -29.2715    0.1086  -11.5545 C   0  0  2  0  0  0  0  0  0  0  0  0
  -28.9002    1.8163  -14.5915 N   0  0  0  0  0  0  0  0  0  0  0  0
  -27.1815   -0.0477  -10.4127 O   0  0  0  0  0  0  0  0  0  0  0  0
  -28.3796    0.7258  -10.5473 C   0  0  2  0  0  0  0  0  0  0  0  0
  -26.7147    2.0952  -16.5736 N   0  0  0  0  0  0  0  0  0  0  0  0
  -29.2963   -0.5577   -8.7698 O   0  0  0  0  0  0  0  0  0  0  0  0
  -29.1955    0.7582   -9.3397 C   0  0  2  0  0  0  0  0  0  0  0  0
  -27.7823    1.0741  -14.5806 C   0  0  0  0  0  0  0  0  0  0  0  0
  -26.7580   -0.5757  -13.0338 N   0  0  0  0  0  0  0  0  0  0  0  0
  -32.0252    2.7662  -10.3862 O   0  0  0  0  0  0  0  0  0  0  0  0
  -30.7132    2.5836   -9.9632 C   0  0  0  0  0  0  0  0  0  0  0  0
  -34.4522    3.1119  -10.1731 O   0  0  0  0  0  0  0  0  0  0  0  0
  -29.5929    1.5308  -13.4725 C   0  0  0  0  0  0  0  0  0  0  0  0
  -25.9117    0.1614  -15.6784 O   0  0  0  0  0  0  0  0  0  0  0  0
  -26.7423    1.0683  -15.6261 C   0  0  0  0  0  0  0  0  0  0  0  0
  -27.7706    0.3236  -13.4396 C   0  0  0  0  0  0  0  0  0  0  0  0
  -33.1139    2.0143   -8.2622 O   0  5  0  0  0  0  0  0  0  0  0  0
  -32.7942    4.2730   -8.5402 O   0  0  0  0  0  0  0  0  0  0  0  0
  1 17  1  0  0  0  0
  1 20  1  0  0  0  0
  2 15  1  6  0  0  0
  2  3  1  0  0  0  0
  2 11  1  0  0  0  0
  3  5  1  0  0  0  0
  4 16  1  6  0  0  0
  4 21  1  0  0  0  0
  4 22  2  0  0  0  0
  4 14  1  0  0  0  0
  5  1  1  6  0  0  0
  5  8  1  0  0  0  0
  6 17  2  0  0  0  0
  6 12  1  0  0  0  0
  8  7  1  1  0  0  0
  8 11  1  0  0  0  0
  9 19  1  0  0  0  0
 11 10  1  6  0  0  0
 12 20  2  0  0  0  0
 12 19  1  0  0  0  0
 13 20  1  0  0  0  0
 14 15  1  0  0  0  0
 18 19  2  0  0  0  0
M  CHG  1  21  -1
M  END
>  <CHROM.1>
6.33117263,68.04865363,-176.49827332,96.69830487,15.06094276,-29.81480571
1.41767889,-11.49968230,-0.55426937,-0.60308787,1.95160591

>  <Name>
ligand

>  <RI>
0

>  <Rbt.Current_Directory>
/home/itssahil/PROJECTS/Mol_Feturizer/New_Systems/rnas/4XWF

>  <Rbt.Executable>
rbdock ($Id: //depot/dev/client3/rdock/2013.1/src/exe/rbdock.cxx#4 $)

>  <Rbt.Library>
libRbt.so (2013.1, Build901 2013/11/27)

>  <Rbt.Parameter_File>
/export/apps/rDock/src/rDock_2013.1_src/data/scripts/dock_solv.prm

>  <Rbt.Receptor>
prm/pocket_docking_7.prm

>  <SCORE>
-6.30888

>  <SCORE.INTER>
-9.48838

>  <SCORE.INTER.CONST>
1

>  <SCORE.INTER.POLAR>
0

>  <SCORE.INTER.ROT>
5

>  <SCORE.INTER.SOLV>
11.9555

>  <SCORE.INTER.VDW>
-17.2441

>  <SCORE.INTER.norm>
-0.43129

>  <SCORE.INTRA>
3.17829

>  <SCORE.INTRA.DIHEDRAL>
3.35217

>  <SCORE.INTRA.DIHEDRAL.0>
3.49807

>  <SCORE.INTRA.POLAR>
0

>  <SCORE.INTRA.POLAR.0>
0

>  <SCORE.INTRA.REPUL>
0

>  <SCORE.INTRA.REPUL.0>
0

>  <SCORE.INTRA.SOLV>
2.90514

>  <SCORE.INTRA.SOLV.lig_0>
-73.062

>  <SCORE.INTRA.VDW>
0.0496388

>  <SCORE.INTRA.VDW.0>
-1.83782

>  <SCORE.INTRA.norm>
0.144468

>  <SCORE.RESTR>
0.0012054

>  <SCORE.RESTR.CAVITY>
0.0012054

>  <SCORE.RESTR.norm>
5.47911e-05

>  <SCORE.SYSTEM>
0

>  <SCORE.SYSTEM.CONST>
0

>  <SCORE.SYSTEM.DIHEDRAL>
0

>  <SCORE.SYSTEM.SOLV>
0

>  <SCORE.SYSTEM.norm>
0

>  <SCORE.heavy>
22

>  <SCORE.norm>
-0.286767

>  <RMSD>
6.944

$$$$
ligand
 OpenBabel11021811513D
libRbt.so/2013.1/901 2013/11/27
 22 23  0  0  0  0  0  0  0  0999 V2000
  -28.5044    1.4668  -12.2118 N   0  0  0  0  0  0  0  0  0  0  0  0
  -31.2868    0.8035  -10.4033 C   0  0  1  0  0  0  0  0  0  0  0  0
  -30.5955    0.6544  -11.6760 O   0  0  0  0  0  0  0  0  0  0  0  0
  -33.4013    3.5559   -8.8832 P   0  0  1  0  0  0  0  0  0  0  0  0
  -29.1858    0.5748  -11.4098 C   0  0  2  0  0  0  0  0  0  0  0  0
  -27.8856    3.3217  -13.1540 N   0  0  0  0  0  0  0  0  0  0  0  0
  -27.8364    0.5397   -9.4416 O   0  0  0  0  0  0  0  0  0  0  0  0
  -29.0373    1.0635  -10.0206 C   0  0  2  0  0  0  0  0  0  0  0  0
  -24.6528    2.2713  -14.1114 N   0  0  0  0  0  0  0  0  0  0  0  0
  -30.1820   -0.8091   -9.1096 O   0  0  0  0  0  0  0  0  0  0  0  0
  -30.2543    0.6040   -9.3628 C   0  0  2  0  0  0  0  0  0  0  0  0
  -27.0761    2.3423  -13.5853 C   0  0  0  0  0  0  0  0  0  0  0  0
  -26.8498   -0.0935  -13.1622 N   0  0  0  0  0  0  0  0  0  0  0  0
  -32.6234    2.2359   -9.2169 O   0  0  0  0  0  0  0  0  0  0  0  0
  -31.8407    2.1861  -10.3652 C   0  0  0  0  0  0  0  0  0  0  0  0
  -34.4910    3.6259  -10.0138 O   0  0  0  0  0  0  0  0  0  0  0  0
  -28.7761    2.7737  -12.3052 C   0  0  0  0  0  0  0  0  0  0  0  0
  -26.1779    2.8517  -15.6998 O   0  0  0  0  0  0  0  0  0  0  0  0
  -25.9629    2.5026  -14.5392 C   0  0  0  0  0  0  0  0  0  0  0  0
  -27.4576    1.1717  -12.9940 C   0  0  0  0  0  0  0  0  0  0  0  0
  -33.9499    3.4790   -7.4972 O   0  5  0  0  0  0  0  0  0  0  0  0
  -32.4727    4.6950   -8.7700 O   0  0  0  0  0  0  0  0  0  0  0  0
  1 17  1  0  0  0  0
  1 20  1  0  0  0  0
  2 15  1  6  0  0  0
  2  3  1  0  0  0  0
  2 11  1  0  0  0  0
  3  5  1  0  0  0  0
  4 16  1  6  0  0  0
  4 21  1  0  0  0  0
  4 22  2  0  0  0  0
  4 14  1  0  0  0  0
  5  1  1  6  0  0  0
  5  8  1  0  0  0  0
  6 17  2  0  0  0  0
  6 12  1  0  0  0  0
  8  7  1  1  0  0  0
  8 11  1  0  0  0  0
  9 19  1  0  0  0  0
 11 10  1  6  0  0  0
 12 20  2  0  0  0  0
 12 19  1  0  0  0  0
 13 20  1  0  0  0  0
 14 15  1  0  0  0  0
 18 19  2  0  0  0  0
M  CHG  1  21  -1
M  END
>  <CHROM.1>
53.26236533,173.05551582,68.43611045,-178.29833063,115.19145331,-29.88737301
2.00509907,-11.05477659,-0.22550698,-0.61327301,2.52839068

>  <Name>
ligand

>  <RI>
0

>  <Rbt.Current_Directory>
/home/itssahil/PROJECTS/Mol_Feturizer/New_Systems/rnas/4XWF

>  <Rbt.Executable>
rbdock ($Id: //depot/dev/client3/rdock/2013.1/src/exe/rbdock.cxx#4 $)

>  <Rbt.Library>
libRbt.so (2013.1, Build901 2013/11/27)

>  <Rbt.Parameter_File>
/export/apps/rDock/src/rDock_2013.1_src/data/scripts/dock_solv.prm

>  <Rbt.Receptor>
prm/pocket_docking_4.prm

>  <SCORE>
-6.79705

>  <SCORE.INTER>
-5.55403

>  <SCORE.INTER.CONST>
1

>  <SCORE.INTER.POLAR>
0

>  <SCORE.INTER.ROT>
5

>  <SCORE.INTER.SOLV>
14.0054

>  <SCORE.INTER.VDW>
-15.3045

>  <SCORE.INTER.norm>
-0.252456

>  <SCORE.INTRA>
-1.24302

>  <SCORE.INTRA.DIHEDRAL>
-1.71739

>  <SCORE.INTRA.DIHEDRAL.0>
3.49807

>  <SCORE.INTRA.POLAR>
0

>  <SCORE.INTRA.POLAR.0>
0

>  <SCORE.INTRA.REPUL>
0

>  <SCORE.INTRA.REPUL.0>
0

>  <SCORE.INTRA.SOLV>
-0.633461

>  <SCORE.INTRA.SOLV.lig_0>
-73.062

>  <SCORE.INTRA.VDW>
-0.0675978

>  <SCORE.INTRA.VDW.0>
-1.83782

>  <SCORE.INTRA.norm>
-0.0565011

>  <SCORE.RESTR>
0

>  <SCORE.RESTR.CAVITY>
0

>  <SCORE.RESTR.norm>
0

>  <SCORE.SYSTEM>
0

>  <SCORE.SYSTEM.CONST>
0

>  <SCORE.SYSTEM.DIHEDRAL>
0

>  <SCORE.SYSTEM.SOLV>
0

>  <SCORE.SYSTEM.norm>
0

>  <SCORE.heavy>
22

>  <SCORE.norm>
-0.308957

>  <RMSD>
6.959

$$$$
ligand
 OpenBabel11021811513D
libRbt.so/2013.1/901 2013/11/27
 22 23  0  0  0  0  0  0  0  0999 V2000
  -27.0936    5.0083  -10.2587 N   0  0  0  0  0  0  0  0  0  0  0  0
  -30.0988    3.4637  -10.4472 C   0  0  1  0  0  0  0  0  0  0  0  0
  -29.2365    4.5199  -10.9580 O   0  0  0  0  0  0  0  0  0  0  0  0
  -32.7509    2.4914   -9.2793 P   0  0  1  0  0  0  0  0  0  0  0  0
  -27.8774    4.0599  -10.8827 C   0  0  2  0  0  0  0  0  0  0  0  0
  -26.3181    6.3583   -8.7463 N   0  0  0  0  0  0  0  0  0  0  0  0
  -26.8152    2.0248  -10.2303 O   0  0  0  0  0  0  0  0  0  0  0  0
  -27.9253    2.8929   -9.9736 C   0  0  2  0  0  0  0  0  0  0  0  0
  -24.2940    8.2778  -10.9373 N   0  0  0  0  0  0  0  0  0  0  0  0
  -29.1803    1.5896  -11.5142 O   0  0  0  0  0  0  0  0  0  0  0  0
  -29.2208    2.2883  -10.2585 C   0  0  2  0  0  0  0  0  0  0  0  0
  -25.5197    6.4315   -9.8224 C   0  0  0  0  0  0  0  0  0  0  0  0
  -25.4366    5.3438  -12.0525 N   0  0  0  0  0  0  0  0  0  0  0  0
  -31.3693    2.8641   -8.6382 O   0  0  0  0  0  0  0  0  0  0  0  0
  -30.6567    3.9424   -9.1511 C   0  0  0  0  0  0  0  0  0  0  0  0
  -32.3508    1.9221  -10.6887 O   0  0  0  0  0  0  0  0  0  0  0  0
  -27.2988    5.4777   -9.0226 C   0  0  0  0  0  0  0  0  0  0  0  0
  -23.3557    7.1255   -9.2118 O   0  0  0  0  0  0  0  0  0  0  0  0
  -24.3257    7.2872   -9.9521 C   0  0  0  0  0  0  0  0  0  0  0  0
  -25.9999    5.5820  -10.7779 C   0  0  0  0  0  0  0  0  0  0  0  0
  -33.4676    1.5215   -8.3997 O   0  5  0  0  0  0  0  0  0  0  0  0
  -33.6672    3.6457   -9.2536 O   0  0  0  0  0  0  0  0  0  0  0  0
  1 17  1  0  0  0  0
  1 20  1  0  0  0  0
  2 15  1  1  0  0  0
  2  3  1  0  0  0  0
  2 11  1  0  0  0  0
  3  5  1  0  0  0  0
  4 16  1  6  0  0  0
  4 21  1  0  0  0  0
  4 22  2  0  0  0  0
  4 14  1  0  0  0  0
  5  1  1  1  0  0  0
  5  8  1  0  0  0  0
  6 17  2  0  0  0  0
  6 12  1  0  0  0  0
  8  7  1  6  0  0  0
  8 11  1  0  0  0  0
  9 19  1  0  0  0  0
 11 10  1  6  0  0  0
 12 20  2  0  0  0  0
 12 19  1  0  0  0  0
 13 20  1  0  0  0  0
 14 15  1  0  0  0  0
 18 19  2  0  0  0  0
M  CHG  1  21  -1
M  END
>  <CHROM.1>
58.40983493,-174.59795319,70.00181004,-74.17935670,-117.86327962,-28.73435872
4.09815679,-9.97343014,-0.39372845,-0.33681644,-2.64402339

>  <Name>
ligand

>  <RI>
0

>  <Rbt.Current_Directory>
/home/itssahil/PROJECTS/Mol_Feturizer/New_Systems/rnas/4XWF

>  <Rbt.Executable>
rbdock ($Id: //depot/dev/client3/rdock/2013.1/src/exe/rbdock.cxx#4 $)

>  <Rbt.Library>
libRbt.so (2013.1, Build901 2013/11/27)

>  <Rbt.Parameter_File>
/export/apps/rDock/src/rDock_2013.1_src/data/scripts/dock_solv.prm

>  <Rbt.Receptor>
prm/pocket_docking_2.prm

>  <SCORE>
2.36414

>  <SCORE.INTER>
1.90771

>  <SCORE.INTER.CONST>
1

>  <SCORE.INTER.POLAR>
0

>  <SCORE.INTER.ROT>
5

>  <SCORE.INTER.SOLV>
10.2604

>  <SCORE.INTER.VDW>
-9.08167

>  <SCORE.INTER.norm>
0.0867142

>  <SCORE.INTRA>
0.456161

>  <SCORE.INTRA.DIHEDRAL>
-0.794613

>  <SCORE.INTRA.DIHEDRAL.0>
3.49807

>  <SCORE.INTRA.POLAR>
0

>  <SCORE.INTRA.POLAR.0>
0

>  <SCORE.INTRA.REPUL>
0

>  <SCORE.INTRA.REPUL.0>
0

>  <SCORE.INTRA.SOLV>
0.349767

>  <SCORE.INTRA.SOLV.lig_0>
-73.062

>  <SCORE.INTRA.VDW>
0.678584

>  <SCORE.INTRA.VDW.0>
-1.83782

>  <SCORE.INTRA.norm>
0.0207346

>  <SCORE.RESTR>
0.000262298

>  <SCORE.RESTR.CAVITY>
0.000262298

>  <SCORE.RESTR.norm>
1.19226e-05

>  <SCORE.SYSTEM>
0

>  <SCORE.SYSTEM.CONST>
0

>  <SCORE.SYSTEM.DIHEDRAL>
0

>  <SCORE.SYSTEM.SOLV>
0

>  <SCORE.SYSTEM.norm>
0

>  <SCORE.heavy>
22

>  <SCORE.norm>
0.107461

>  <RMSD>
6.967

$$$$
ligand
 OpenBabel11021811513D
libRbt.so/2013.1/901 2013/11/27
 22 23  0  0  0  0  0  0  0  0999 V2000
  -28.4740    1.4681  -12.2654 N   0  0  0  0  0  0  0  0  0  0  0  0
  -31.2406    0.7976  -10.4355 C   0  0  1  0  0  0  0  0  0  0  0  0
  -30.5568    0.6463  -11.7119 O   0  0  0  0  0  0  0  0  0  0  0  0
  -33.4085    3.5265   -8.9488 P   0  0  1  0  0  0  0  0  0  0  0  0
  -29.1450    0.5762  -11.4546 C   0  0  2  0  0  0  0  0  0  0  0  0
  -27.8749    3.3212  -13.2236 N   0  0  0  0  0  0  0  0  0  0  0  0
  -27.7826    0.5585   -9.4952 O   0  0  0  0  0  0  0  0  0  0  0  0
  -28.9902    1.0725  -10.0688 C   0  0  2  0  0  0  0  0  0  0  0  0
  -24.6440    2.2092  -14.2065 N   0  0  0  0  0  0  0  0  0  0  0  0
  -30.1181   -0.8022   -9.1412 O   0  0  0  0  0  0  0  0  0  0  0  0
  -30.2003    0.6093   -9.4008 C   0  0  2  0  0  0  0  0  0  0  0  0
  -27.0576    2.3460  -13.6497 C   0  0  0  0  0  0  0  0  0  0  0  0
  -26.8077   -0.0843  -13.2083 N   0  0  0  0  0  0  0  0  0  0  0  0
  -32.6108    2.2153   -9.2697 O   0  0  0  0  0  0  0  0  0  0  0  0
  -31.8024    2.1772  -10.4005 C   0  0  0  0  0  0  0  0  0  0  0  0
  -34.5256    3.5467  -10.0543 O   0  0  0  0  0  0  0  0  0  0  0  0
  -28.7580    2.7717  -12.3682 C   0  0  0  0  0  0  0  0  0  0  0  0
  -26.1615    2.9200  -15.7484 O   0  0  0  0  0  0  0  0  0  0  0  0
  -25.9486    2.5091  -14.6078 C   0  0  0  0  0  0  0  0  0  0  0  0
  -27.4267    1.1766  -13.0483 C   0  0  0  0  0  0  0  0  0  0  0  0
  -33.9228    3.4717   -7.5487 O   0  5  0  0  0  0  0  0  0  0  0  0
  -32.5020    4.6870   -8.8847 O   0  0  0  0  0  0  0  0  0  0  0  0
  1 17  1  0  0  0  0
  1 20  1  0  0  0  0
  2 15  1  6  0  0  0
  2  3  1  0  0  0  0
  2 11  1  0  0  0  0
  3  5  1  0  0  0  0
  4 16  1  6  0  0  0
  4 21  1  0  0  0  0
  4 22  2  0  0  0  0
  4 14  1  0  0  0  0
  5  1  1  6  0  0  0
  5  8  1  0  0  0  0
  6 17  2  0  0  0  0
  6 12  1  0  0  0  0
  8  7  1  1  0  0  0
  8 11  1  0  0  0  0
  9 19  1  0  0  0  0
 11 10  1  6  0  0  0
 12 20  2  0  0  0  0
 12 19  1  0  0  0  0
 13 20  1  0  0  0  0
 14 15  1  0  0  0  0
 18 19  2  0  0  0  0
M  CHG  1  21  -1
M  END
>  <CHROM.1>
52.92773629,171.27080986,71.56306269,-177.97924887,119.33246332,-29.86484970
1.99918003,-11.11015642,-0.23866705,-0.60616986,2.50911743

>  <Name>
ligand

>  <RI>
0

>  <Rbt.Current_Directory>
/home/itssahil/PROJECTS/Mol_Feturizer/New_Systems/rnas/4XWF

>  <Rbt.Executable>
rbdock ($Id: //depot/dev/client3/rdock/2013.1/src/exe/rbdock.cxx#4 $)

>  <Rbt.Library>
libRbt.so (2013.1, Build901 2013/11/27)

>  <Rbt.Parameter_File>
/export/apps/rDock/src/rDock_2013.1_src/data/scripts/dock_solv.prm

>  <Rbt.Receptor>
prm/pocket_docking_4.prm

>  <SCORE>
-6.72316

>  <SCORE.INTER>
-5.55749

>  <SCORE.INTER.CONST>
1

>  <SCORE.INTER.POLAR>
0

>  <SCORE.INTER.ROT>
5

>  <SCORE.INTER.SOLV>
14.3533

>  <SCORE.INTER.VDW>
-15.4228

>  <SCORE.INTER.norm>
-0.252613

>  <SCORE.INTRA>
-1.16567

>  <SCORE.INTRA.DIHEDRAL>
-1.55467

>  <SCORE.INTRA.DIHEDRAL.0>
3.49807

>  <SCORE.INTRA.POLAR>
0

>  <SCORE.INTRA.POLAR.0>
0

>  <SCORE.INTRA.REPUL>
0

>  <SCORE.INTRA.REPUL.0>
0

>  <SCORE.INTRA.SOLV>
-0.587253

>  <SCORE.INTRA.SOLV.lig_0>
-73.062

>  <SCORE.INTRA.VDW>
-0.0947072

>  <SCORE.INTRA.VDW.0>
-1.83782

>  <SCORE.INTRA.norm>
-0.0529848

>  <SCORE.RESTR>
0

>  <SCORE.RESTR.CAVITY>
0

>  <SCORE.RESTR.norm>
0

>  <SCORE.SYSTEM>
0

>  <SCORE.SYSTEM.CONST>
0

>  <SCORE.SYSTEM.DIHEDRAL>
0

>  <SCORE.SYSTEM.SOLV>
0

>  <SCORE.SYSTEM.norm>
0

>  <SCORE.heavy>
22

>  <SCORE.norm>
-0.305598

>  <RMSD>
6.970

$$$$
ligand
 OpenBabel11021811513D
libRbt.so/2013.1/901 2013/11/27
 22 23  0  0  0  0  0  0  0  0999 V2000
  -32.9925    3.3271   -7.7842 N   0  0  0  0  0  0  0  0  0  0  0  0
  -30.6893    0.9227   -8.3898 C   0  0  1  0  0  0  0  0  0  0  0  0
  -30.9384    2.3293   -8.1085 O   0  0  0  0  0  0  0  0  0  0  0  0
  -29.6807    0.9559  -12.0019 P   0  0  1  0  0  0  0  0  0  0  0  0
  -32.0973    2.4156   -7.2636 C   0  0  2  0  0  0  0  0  0  0  0  0
  -34.3529    4.3129   -9.1585 N   0  0  0  0  0  0  0  0  0  0  0  0
  -33.5455    0.8355   -6.2139 O   0  0  0  0  0  0  0  0  0  0  0  0
  -32.7417    1.0876   -7.3724 C   0  0  2  0  0  0  0  0  0  0  0  0
  -34.5950    7.4549   -7.8875 N   0  0  0  0  0  0  0  0  0  0  0  0
  -30.9534   -0.0076   -6.2545 O   0  0  0  0  0  0  0  0  0  0  0  0
  -31.6174    0.1710   -7.5169 C   0  0  2  0  0  0  0  0  0  0  0  0
  -34.3679    4.9870   -7.9983 C   0  0  0  0  0  0  0  0  0  0  0  0
  -33.2587    4.7510   -5.7898 N   0  0  0  0  0  0  0  0  0  0  0  0
  -29.9984    1.3778  -10.5256 O   0  0  0  0  0  0  0  0  0  0  0  0
  -30.9966    0.7032   -9.8311 C   0  0  0  0  0  0  0  0  0  0  0  0
  -31.1065    0.7849  -12.6411 O   0  0  0  0  0  0  0  0  0  0  0  0
  -33.4927    3.2854   -9.0246 C   0  0  0  0  0  0  0  0  0  0  0  0
  -36.3271    6.0939   -7.3100 O   0  0  0  0  0  0  0  0  0  0  0  0
  -35.1682    6.1923   -7.7130 C   0  0  0  0  0  0  0  0  0  0  0  0
  -33.5159    4.3705   -7.1269 C   0  0  0  0  0  0  0  0  0  0  0  0
  -28.8315    1.9980  -12.6506 O   0  5  0  0  0  0  0  0  0  0  0  0
  -28.7845   -0.2140  -12.0295 O   0  0  0  0  0  0  0  0  0  0  0  0
  1 17  1  0  0  0  0
  1 20  1  0  0  0  0
  2 15  1  6  0  0  0
  2  3  1  0  0  0  0
  2 11  1  0  0  0  0
  3  5  1  0  0  0  0
  4 16  1  6  0  0  0
  4 21  1  0  0  0  0
  4 22  2  0  0  0  0
  4 14  1  0  0  0  0
  5  1  1  6  0  0  0
  5  8  1  0  0  0  0
  6 17  2  0  0  0  0
  6 12  1  0  0  0  0
  8  7  1  1  0  0  0
  8 11  1  0  0  0  0
  9 19  1  0  0  0  0
 11 10  1  1  0  0  0
 12 20  2  0  0  0  0
 12 19  1  0  0  0  0
 13 20  1  0  0  0  0
 14 15  1  0  0  0  0
 18 19  2  0  0  0  0
M  CHG  1  21  -1
M  END
>  <CHROM.1>
55.16320844,69.23241409,44.07900823,157.76715420,-94.40267178,-32.05529264
2.47515713,-8.90363274,-3.00797299,0.88950740,-0.99495994

>  <Name>
ligand

>  <RI>
0

>  <Rbt.Current_Directory>
/home/itssahil/PROJECTS/Mol_Feturizer/New_Systems/rnas/4XWF

>  <Rbt.Executable>
rbdock ($Id: //depot/dev/client3/rdock/2013.1/src/exe/rbdock.cxx#4 $)

>  <Rbt.Library>
libRbt.so (2013.1, Build901 2013/11/27)

>  <Rbt.Parameter_File>
/export/apps/rDock/src/rDock_2013.1_src/data/scripts/dock_solv.prm

>  <Rbt.Receptor>
prm/pocket_docking_6.prm

>  <SCORE>
-6.875

>  <SCORE.INTER>
-7.40098

>  <SCORE.INTER.CONST>
1

>  <SCORE.INTER.POLAR>
0

>  <SCORE.INTER.ROT>
5

>  <SCORE.INTER.SOLV>
14.633

>  <SCORE.INTER.VDW>
-16.745

>  <SCORE.INTER.norm>
-0.336408

>  <SCORE.INTRA>
0.525978

>  <SCORE.INTRA.DIHEDRAL>
1.59849

>  <SCORE.INTRA.DIHEDRAL.0>
3.49807

>  <SCORE.INTRA.POLAR>
0

>  <SCORE.INTRA.POLAR.0>
0

>  <SCORE.INTRA.REPUL>
0

>  <SCORE.INTRA.REPUL.0>
0

>  <SCORE.INTRA.SOLV>
-0.954285

>  <SCORE.INTRA.SOLV.lig_0>
-73.062

>  <SCORE.INTRA.VDW>
0.203873

>  <SCORE.INTRA.VDW.0>
-1.83782

>  <SCORE.INTRA.norm>
0.0239081

>  <SCORE.RESTR>
0

>  <SCORE.RESTR.CAVITY>
0

>  <SCORE.RESTR.norm>
0

>  <SCORE.SYSTEM>
0

>  <SCORE.SYSTEM.CONST>
0

>  <SCORE.SYSTEM.DIHEDRAL>
0

>  <SCORE.SYSTEM.SOLV>
0

>  <SCORE.SYSTEM.norm>
0

>  <SCORE.heavy>
22

>  <SCORE.norm>
-0.3125

>  <RMSD>
6.973

$$$$
ligand
 OpenBabel11021811513D
libRbt.so/2013.1/901 2013/11/27
 22 23  0  0  0  0  0  0  0  0999 V2000
  -28.2512    2.7303  -13.6659 N   0  0  0  0  0  0  0  0  0  0  0  0
  -30.2025    0.6517  -11.8427 C   0  0  1  0  0  0  0  0  0  0  0  0
  -29.9714    1.2901  -13.1307 O   0  0  0  0  0  0  0  0  0  0  0  0
  -32.5312    1.7405   -9.0642 P   0  0  1  0  0  0  0  0  0  0  0  0
  -28.5527    1.4325  -13.3084 C   0  0  2  0  0  0  0  0  0  0  0  0
  -27.9124    4.8701  -13.5332 N   0  0  0  0  0  0  0  0  0  0  0  0
  -26.6204    0.7952  -12.0611 O   0  0  0  0  0  0  0  0  0  0  0  0
  -27.9822    1.2273  -11.9582 C   0  0  2  0  0  0  0  0  0  0  0  0
  -27.9705    5.5190  -17.0092 N   0  0  0  0  0  0  0  0  0  0  0  0
  -28.6075   -1.0648  -11.9086 O   0  0  0  0  0  0  0  0  0  0  0  0
  -28.8678    0.2372  -11.3578 C   0  0  2  0  0  0  0  0  0  0  0  0
  -27.6266    4.4775  -14.7841 C   0  0  0  0  0  0  0  0  0  0  0  0
  -27.6281    2.3218  -16.0155 N   0  0  0  0  0  0  0  0  0  0  0  0
  -31.5993    0.9586  -10.0536 O   0  0  0  0  0  0  0  0  0  0  0  0
  -30.8142    1.6757  -10.9499 C   0  0  0  0  0  0  0  0  0  0  0  0
  -33.5730    2.4278  -10.0196 O   0  0  0  0  0  0  0  0  0  0  0  0
  -28.3062    3.7834  -12.8422 C   0  0  0  0  0  0  0  0  0  0  0  0
  -26.0792    5.9251  -15.8075 O   0  0  0  0  0  0  0  0  0  0  0  0
  -27.1671    5.3534  -15.8778 C   0  0  0  0  0  0  0  0  0  0  0  0
  -27.8346    3.1307  -14.8746 C   0  0  0  0  0  0  0  0  0  0  0  0
  -33.1263    0.7910   -8.0783 O   0  5  0  0  0  0  0  0  0  0  0  0
  -31.7393    2.6200   -8.1856 O   0  0  0  0  0  0  0  0  0  0  0  0
  1 17  1  0  0  0  0
  1 20  1  0  0  0  0
  2 15  1  1  0  0  0
  2  3  1  0  0  0  0
  2 11  1  0  0  0  0
  3  5  1  0  0  0  0
  4 16  1  6  0  0  0
  4 21  1  0  0  0  0
  4 22  2  0  0  0  0
  4 14  1  0  0  0  0
  5  1  1  1  0  0  0
  5  8  1  0  0  0  0
  6 17  2  0  0  0  0
  6 12  1  0  0  0  0
  8  7  1  6  0  0  0
  8 11  1  0  0  0  0
  9 19  1  0  0  0  0
 11 10  1  6  0  0  0
 12 20  2  0  0  0  0
 12 19  1  0  0  0  0
 13 20  1  0  0  0  0
 14 15  1  0  0  0  0
 18 19  2  0  0  0  0
M  CHG  1  21  -1
M  END
>  <CHROM.1>
72.35239627,151.24977952,65.44825556,-172.83979203,-116.05353807,-29.48167663
2.31174711,-12.26799538,-0.69598098,-0.69857714,2.67932696

>  <Name>
ligand

>  <RI>
0

>  <Rbt.Current_Directory>
/home/itssahil/PROJECTS/Mol_Feturizer/New_Systems/rnas/4XWF

>  <Rbt.Executable>
rbdock ($Id: //depot/dev/client3/rdock/2013.1/src/exe/rbdock.cxx#4 $)

>  <Rbt.Library>
libRbt.so (2013.1, Build901 2013/11/27)

>  <Rbt.Parameter_File>
/export/apps/rDock/src/rDock_2013.1_src/data/scripts/dock_solv.prm

>  <Rbt.Receptor>
prm/pocket_docking_5.prm

>  <SCORE>
-4.54047

>  <SCORE.INTER>
-4.81408

>  <SCORE.INTER.CONST>
1

>  <SCORE.INTER.POLAR>
0

>  <SCORE.INTER.ROT>
5

>  <SCORE.INTER.SOLV>
9.9957

>  <SCORE.INTER.VDW>
-13.4746

>  <SCORE.INTER.norm>
-0.218822

>  <SCORE.INTRA>
0.273605

>  <SCORE.INTRA.DIHEDRAL>
0.729637

>  <SCORE.INTRA.DIHEDRAL.0>
3.49807

>  <SCORE.INTRA.POLAR>
0

>  <SCORE.INTRA.POLAR.0>
0

>  <SCORE.INTRA.REPUL>
0

>  <SCORE.INTRA.REPUL.0>
0

>  <SCORE.INTRA.SOLV>
-1.16427

>  <SCORE.INTRA.SOLV.lig_0>
-73.062

>  <SCORE.INTRA.VDW>
0.490923

>  <SCORE.INTRA.VDW.0>
-1.83782

>  <SCORE.INTRA.norm>
0.0124366

>  <SCORE.RESTR>
0

>  <SCORE.RESTR.CAVITY>
0

>  <SCORE.RESTR.norm>
0

>  <SCORE.SYSTEM>
0

>  <SCORE.SYSTEM.CONST>
0

>  <SCORE.SYSTEM.DIHEDRAL>
0

>  <SCORE.SYSTEM.SOLV>
0

>  <SCORE.SYSTEM.norm>
0

>  <SCORE.heavy>
22

>  <SCORE.norm>
-0.206385

>  <RMSD>
6.977

$$$$
ligand
 OpenBabel11021811513D
libRbt.so/2013.1/901 2013/11/27
 22 23  0  0  0  0  0  0  0  0999 V2000
  -30.8017    4.7610   -8.8385 N   0  0  0  0  0  0  0  0  0  0  0  0
  -31.8691    7.2757   -6.8412 C   0  0  1  0  0  0  0  0  0  0  0  0
  -31.4055    5.8981   -6.9248 O   0  0  0  0  0  0  0  0  0  0  0  0
  -35.4290    6.0344   -6.6353 P   0  0  1  0  0  0  0  0  0  0  0  0
  -30.4656    5.8100   -8.0079 C   0  0  2  0  0  0  0  0  0  0  0  0
  -31.9772    3.4031  -10.0574 N   0  0  0  0  0  0  0  0  0  0  0  0
  -29.4953    7.3664   -9.5350 O   0  0  0  0  0  0  0  0  0  0  0  0
  -30.6772    7.0480   -8.7911 C   0  0  2  0  0  0  0  0  0  0  0  0
  -29.1564    2.1633  -11.9007 N   0  0  0  0  0  0  0  0  0  0  0  0
  -29.8435    8.4364   -7.0520 O   0  0  0  0  0  0  0  0  0  0  0  0
  -31.0185    8.0404   -7.7793 C   0  0  2  0  0  0  0  0  0  0  0  0
  -30.6870    3.0489  -10.1608 C   0  0  0  0  0  0  0  0  0  0  0  0
  -28.5343    3.8867   -9.2512 N   0  0  0  0  0  0  0  0  0  0  0  0
  -33.9637    6.5022   -6.3308 O   0  0  0  0  0  0  0  0  0  0  0  0
  -33.2968    7.2840   -7.2677 C   0  0  0  0  0  0  0  0  0  0  0  0
  -36.1412    7.3592   -7.0915 O   0  0  0  0  0  0  0  0  0  0  0  0
  -32.0462    4.4636   -9.2302 C   0  0  0  0  0  0  0  0  0  0  0  0
  -30.6166    0.7908  -10.8192 O   0  0  0  0  0  0  0  0  0  0  0  0
  -30.1637    1.9265  -10.9615 C   0  0  0  0  0  0  0  0  0  0  0  0
  -29.9403    3.9012   -9.3985 C   0  0  0  0  0  0  0  0  0  0  0  0
  -35.4078    4.9552   -7.6662 O   0  5  0  0  0  0  0  0  0  0  0  0
  -36.0021    5.3250   -5.4773 O   0  0  0  0  0  0  0  0  0  0  0  0
  1 17  1  0  0  0  0
  1 20  1  0  0  0  0
  2 15  1  6  0  0  0
  2  3  1  0  0  0  0
  2 11  1  0  0  0  0
  3  5  1  0  0  0  0
  4 16  1  6  0  0  0
  4 21  1  0  0  0  0
  4 22  2  0  0  0  0
  4 14  1  0  0  0  0
  5  1  1  6  0  0  0
  5  8  1  0  0  0  0
  6 17  2  0  0  0  0
  6 12  1  0  0  0  0
  8  7  1  1  0  0  0
  8 11  1  0  0  0  0
  9 19  1  0  0  0  0
 11 10  1  1  0  0  0
 12 20  2  0  0  0  0
 12 19  1  0  0  0  0
 13 20  1  0  0  0  0
 14 15  1  0  0  0  0
 18 19  2  0  0  0  0
M  CHG  1  21  -1
M  END
>  <CHROM.1>
42.43546790,63.03694436,-48.60973620,-166.86005334,125.74926188,-32.04632243
5.35119335,-8.29188656,-0.75059306,0.33514041,0.48551030

>  <Name>
ligand

>  <RI>
0

>  <Rbt.Current_Directory>
/home/itssahil/PROJECTS/Mol_Feturizer/New_Systems/rnas/4XWF

>  <Rbt.Executable>
rbdock ($Id: //depot/dev/client3/rdock/2013.1/src/exe/rbdock.cxx#4 $)

>  <Rbt.Library>
libRbt.so (2013.1, Build901 2013/11/27)

>  <Rbt.Parameter_File>
/export/apps/rDock/src/rDock_2013.1_src/data/scripts/dock_solv.prm

>  <Rbt.Receptor>
prm/pocket_docking_7.prm

>  <SCORE>
-5.88539

>  <SCORE.INTER>
-5.04635

>  <SCORE.INTER.CONST>
1

>  <SCORE.INTER.POLAR>
0

>  <SCORE.INTER.ROT>
5

>  <SCORE.INTER.SOLV>
10.2074

>  <SCORE.INTER.VDW>
-13.7

>  <SCORE.INTER.norm>
-0.22938

>  <SCORE.INTRA>
-0.839033

>  <SCORE.INTRA.DIHEDRAL>
-0.94997

>  <SCORE.INTRA.DIHEDRAL.0>
3.49807

>  <SCORE.INTRA.POLAR>
0

>  <SCORE.INTRA.POLAR.0>
0

>  <SCORE.INTRA.REPUL>
0

>  <SCORE.INTRA.REPUL.0>
0

>  <SCORE.INTRA.SOLV>
-0.0442293

>  <SCORE.INTRA.SOLV.lig_0>
-73.062

>  <SCORE.INTRA.VDW>
-0.341933

>  <SCORE.INTRA.VDW.0>
-1.83782

>  <SCORE.INTRA.norm>
-0.0381379

>  <SCORE.RESTR>
0

>  <SCORE.RESTR.CAVITY>
0

>  <SCORE.RESTR.norm>
0

>  <SCORE.SYSTEM>
0

>  <SCORE.SYSTEM.CONST>
0

>  <SCORE.SYSTEM.DIHEDRAL>
0

>  <SCORE.SYSTEM.SOLV>
0

>  <SCORE.SYSTEM.norm>
0

>  <SCORE.heavy>
22

>  <SCORE.norm>
-0.267518

>  <RMSD>
7.021

$$$$
ligand
 OpenBabel11021811513D
libRbt.so/2013.1/901 2013/11/27
 22 23  0  0  0  0  0  0  0  0999 V2000
  -30.7875    5.0315   -8.7066 N   0  0  0  0  0  0  0  0  0  0  0  0
  -32.4556    2.1140   -9.1045 C   0  0  1  0  0  0  0  0  0  0  0  0
  -31.3701    2.8164   -8.4350 O   0  0  0  0  0  0  0  0  0  0  0  0
  -29.8735    0.8368  -11.5400 P   0  0  1  0  0  0  0  0  0  0  0  0
  -31.7733    4.1827   -8.2473 C   0  0  2  0  0  0  0  0  0  0  0  0
  -29.0927    5.7919   -9.8294 N   0  0  0  0  0  0  0  0  0  0  0  0
  -33.7567    5.4354   -8.6860 O   0  0  0  0  0  0  0  0  0  0  0  0
  -32.9323    4.3602   -9.1506 C   0  0  2  0  0  0  0  0  0  0  0  0
  -29.7902    9.2276   -9.4063 N   0  0  0  0  0  0  0  0  0  0  0  0
  -34.3010    2.8876   -7.8835 O   0  0  0  0  0  0  0  0  0  0  0  0
  -33.5922    3.0606   -9.1221 C   0  0  2  0  0  0  0  0  0  0  0  0
  -29.5606    6.7826   -9.0546 C   0  0  0  0  0  0  0  0  0  0  0  0
  -31.4222    7.0442   -7.4331 N   0  0  0  0  0  0  0  0  0  0  0  0
  -30.8263    1.0508  -10.3132 O   0  0  0  0  0  0  0  0  0  0  0  0
  -31.9875    1.7968  -10.4830 C   0  0  0  0  0  0  0  0  0  0  0  0
  -29.1436   -0.5122  -11.1966 O   0  0  0  0  0  0  0  0  0  0  0  0
  -29.8532    4.7031   -9.6066 C   0  0  0  0  0  0  0  0  0  0  0  0
  -27.8711    8.3433   -8.5571 O   0  0  0  0  0  0  0  0  0  0  0  0
  -29.0112    8.1490   -8.9787 C   0  0  0  0  0  0  0  0  0  0  0  0
  -30.6298    6.3123   -8.3469 C   0  0  0  0  0  0  0  0  0  0  0  0
  -30.6749    0.8050  -12.7988 O   0  5  0  0  0  0  0  0  0  0  0  0
  -29.0282    2.0244  -11.7584 O   0  0  0  0  0  0  0  0  0  0  0  0
  1 17  1  0  0  0  0
  1 20  1  0  0  0  0
  2 15  1  6  0  0  0
  2  3  1  0  0  0  0
  2 11  1  0  0  0  0
  3  5  1  0  0  0  0
  4 16  1  1  0  0  0
  4 21  1  0  0  0  0
  4 22  2  0  0  0  0
  4 14  1  0  0  0  0
  5  1  1  6  0  0  0
  5  8  1  0  0  0  0
  6 17  2  0  0  0  0
  6 12  1  0  0  0  0
  8  7  1  1  0  0  0
  8 11  1  0  0  0  0
  9 19  1  0  0  0  0
 11 10  1  1  0  0  0
 12 20  2  0  0  0  0
 12 19  1  0  0  0  0
 13 20  1  0  0  0  0
 14 15  1  0  0  0  0
 18 19  2  0  0  0  0
M  CHG  1  21  -1
M  END
>  <CHROM.1>
22.56892833,57.35314755,-153.83179238,-165.31185326,115.14534675,-30.84904534
3.90855792,-9.63113861,1.48352082,0.44691370,0.39668501

>  <Name>
ligand

>  <RI>
0

>  <Rbt.Current_Directory>
/home/itssahil/PROJECTS/Mol_Feturizer/New_Systems/rnas/4XWF

>  <Rbt.Executable>
rbdock ($Id: //depot/dev/client3/rdock/2013.1/src/exe/rbdock.cxx#4 $)

>  <Rbt.Library>
libRbt.so (2013.1, Build901 2013/11/27)

>  <Rbt.Parameter_File>
/export/apps/rDock/src/rDock_2013.1_src/data/scripts/dock_solv.prm

>  <Rbt.Receptor>
prm/pocket_docking_5.prm

>  <SCORE>
-6.60748

>  <SCORE.INTER>
-6.88103

>  <SCORE.INTER.CONST>
1

>  <SCORE.INTER.POLAR>
0

>  <SCORE.INTER.ROT>
5

>  <SCORE.INTER.SOLV>
16.0594

>  <SCORE.INTER.VDW>
-16.8738

>  <SCORE.INTER.norm>
-0.312774

>  <SCORE.INTRA>
0.273548

>  <SCORE.INTRA.DIHEDRAL>
-0.0922757

>  <SCORE.INTRA.DIHEDRAL.0>
3.49807

>  <SCORE.INTRA.POLAR>
0

>  <SCORE.INTRA.POLAR.0>
0

>  <SCORE.INTRA.REPUL>
0

>  <SCORE.INTRA.REPUL.0>
0

>  <SCORE.INTRA.SOLV>
1.40223

>  <SCORE.INTRA.SOLV.lig_0>
-73.062

>  <SCORE.INTRA.VDW>
-0.381428

>  <SCORE.INTRA.VDW.0>
-1.83782

>  <SCORE.INTRA.norm>
0.012434

>  <SCORE.RESTR>
0

>  <SCORE.RESTR.CAVITY>
0

>  <SCORE.RESTR.norm>
0

>  <SCORE.SYSTEM>
0

>  <SCORE.SYSTEM.CONST>
0

>  <SCORE.SYSTEM.DIHEDRAL>
0

>  <SCORE.SYSTEM.SOLV>
0

>  <SCORE.SYSTEM.norm>
0

>  <SCORE.heavy>
22

>  <SCORE.norm>
-0.30034

>  <RMSD>
7.032

$$$$
ligand
 OpenBabel11021811513D
libRbt.so/2013.1/901 2013/11/27
 22 23  0  0  0  0  0  0  0  0999 V2000
  -28.4121    0.7292  -13.4064 N   0  0  0  0  0  0  0  0  0  0  0  0
  -29.0979   -0.0930  -10.1961 C   0  0  1  0  0  0  0  0  0  0  0  0
  -29.2511   -0.4376  -11.6024 O   0  0  0  0  0  0  0  0  0  0  0  0
  -32.5770    1.4043  -10.0916 P   0  0  1  0  0  0  0  0  0  0  0  0
  -28.0666   -0.0130  -12.2960 C   0  0  2  0  0  0  0  0  0  0  0  0
  -29.5319    2.0171  -14.7474 N   0  0  0  0  0  0  0  0  0  0  0  0
  -25.9963    0.9843  -11.6518 O   0  0  0  0  0  0  0  0  0  0  0  0
  -27.3974    0.9194  -11.3613 C   0  0  2  0  0  0  0  0  0  0  0  0
  -28.5638    3.2947  -17.2426 N   0  0  0  0  0  0  0  0  0  0  0  0
  -26.8993   -0.8053   -9.8043 O   0  0  0  0  0  0  0  0  0  0  0  0
  -27.6989    0.3642  -10.0476 C   0  0  2  0  0  0  0  0  0  0  0  0
  -28.3517    1.7387  -15.3222 C   0  0  0  0  0  0  0  0  0  0  0  0
  -26.3369    0.4276  -14.7019 N   0  0  0  0  0  0  0  0  0  0  0  0
  -31.3044    0.5125  -10.3008 O   0  0  0  0  0  0  0  0  0  0  0  0
  -30.0645    1.0031   -9.9060 C   0  0  0  0  0  0  0  0  0  0  0  0
  -33.6317    0.7579  -11.0613 O   0  0  0  0  0  0  0  0  0  0  0  0
  -29.5692    1.3835  -13.5597 C   0  0  0  0  0  0  0  0  0  0  0  0
  -26.9573    1.6809  -17.2168 O   0  0  0  0  0  0  0  0  0  0  0  0
  -27.9004    2.2224  -16.6401 C   0  0  0  0  0  0  0  0  0  0  0  0
  -27.6397    0.9306  -14.4823 C   0  0  0  0  0  0  0  0  0  0  0  0
  -32.9688    1.3905   -8.6513 O   0  5  0  0  0  0  0  0  0  0  0  0
  -32.2564    2.8283  -10.2963 O   0  0  0  0  0  0  0  0  0  0  0  0
  1 17  1  0  0  0  0
  1 20  1  0  0  0  0
  2 15  1  6  0  0  0
  2  3  1  0  0  0  0
  2 11  1  0  0  0  0
  3  5  1  0  0  0  0
  4 16  1  6  0  0  0
  4 21  1  0  0  0  0
  4 22  2  0  0  0  0
  4 14  1  0  0  0  0
  5  1  1  6  0  0  0
  5  8  1  0  0  0  0
  6 17  2  0  0  0  0
  6 12  1  0  0  0  0
  8  7  1  6  0  0  0
  8 11  1  0  0  0  0
  9 19  1  0  0  0  0
 11 10  1  6  0  0  0
 12 20  2  0  0  0  0
 12 19  1  0  0  0  0
 13 20  1  0  0  0  0
 14 15  1  0  0  0  0
 18 19  2  0  0  0  0
M  CHG  1  21  -1
M  END
>  <CHROM.1>
23.32800582,54.98930895,161.57626486,178.07383352,16.10251367,-29.36031486
1.06170474,-12.25871326,-0.87436600,-0.29421250,1.89484233

>  <Name>
ligand

>  <RI>
0

>  <Rbt.Current_Directory>
/home/itssahil/PROJECTS/Mol_Feturizer/New_Systems/rnas/4XWF

>  <Rbt.Executable>
rbdock ($Id: //depot/dev/client3/rdock/2013.1/src/exe/rbdock.cxx#4 $)

>  <Rbt.Library>
libRbt.so (2013.1, Build901 2013/11/27)

>  <Rbt.Parameter_File>
/export/apps/rDock/src/rDock_2013.1_src/data/scripts/dock_solv.prm

>  <Rbt.Receptor>
prm/pocket_docking_8.prm

>  <SCORE>
-7.5526

>  <SCORE.INTER>
-7.33721

>  <SCORE.INTER.CONST>
1

>  <SCORE.INTER.POLAR>
0

>  <SCORE.INTER.ROT>
5

>  <SCORE.INTER.SOLV>
16.1899

>  <SCORE.INTER.VDW>
-17.2214

>  <SCORE.INTER.norm>
-0.33351

>  <SCORE.INTRA>
-0.215391

>  <SCORE.INTRA.DIHEDRAL>
-1.05406

>  <SCORE.INTRA.DIHEDRAL.0>
3.49807

>  <SCORE.INTRA.POLAR>
0

>  <SCORE.INTRA.POLAR.0>
0

>  <SCORE.INTRA.REPUL>
0

>  <SCORE.INTRA.REPUL.0>
0

>  <SCORE.INTRA.SOLV>
0.880663

>  <SCORE.INTRA.SOLV.lig_0>
-73.062

>  <SCORE.INTRA.VDW>
-0.128694

>  <SCORE.INTRA.VDW.0>
-1.83782

>  <SCORE.INTRA.norm>
-0.0097905

>  <SCORE.RESTR>
0

>  <SCORE.RESTR.CAVITY>
0

>  <SCORE.RESTR.norm>
0

>  <SCORE.SYSTEM>
0

>  <SCORE.SYSTEM.CONST>
0

>  <SCORE.SYSTEM.DIHEDRAL>
0

>  <SCORE.SYSTEM.SOLV>
0

>  <SCORE.SYSTEM.norm>
0

>  <SCORE.heavy>
22

>  <SCORE.norm>
-0.3433

>  <RMSD>
7.038

$$$$
ligand
 OpenBabel11021811513D
libRbt.so/2013.1/901 2013/11/27
 22 23  0  0  0  0  0  0  0  0999 V2000
  -30.9869    1.5944  -10.9657 N   0  0  0  0  0  0  0  0  0  0  0  0
  -33.2070    3.0651   -8.8775 C   0  0  1  0  0  0  0  0  0  0  0  0
  -32.9317    2.5894  -10.2257 O   0  0  0  0  0  0  0  0  0  0  0  0
  -34.4304    5.7413   -7.7549 P   0  0  1  0  0  0  0  0  0  0  0  0
  -32.0709    1.4433  -10.1259 C   0  0  2  0  0  0  0  0  0  0  0  0
  -29.6047    1.2821  -12.6098 N   0  0  0  0  0  0  0  0  0  0  0  0
  -31.1389    0.1805   -8.3280 O   0  0  0  0  0  0  0  0  0  0  0  0
  -31.5401    1.4908   -8.7451 C   0  0  2  0  0  0  0  0  0  0  0  0
  -27.1764    2.8126  -13.2839 N   0  0  0  0  0  0  0  0  0  0  0  0
  -33.6661    1.0444   -7.7818 O   0  0  0  0  0  0  0  0  0  0  0  0
  -32.6463    2.0398   -7.9705 C   0  0  2  0  0  0  0  0  0  0  0  0
  -29.1928    2.3528  -11.9138 C   0  0  0  0  0  0  0  0  0  0  0  0
  -29.9976    3.5959   -9.9212 N   0  0  0  0  0  0  0  0  0  0  0  0
  -33.4850    5.3378   -8.9389 O   0  0  0  0  0  0  0  0  0  0  0  0
  -32.5081    4.3719   -8.7230 C   0  0  0  0  0  0  0  0  0  0  0  0
  -35.2372    6.9576   -8.3382 O   0  0  0  0  0  0  0  0  0  0  0  0
  -30.7164    0.8091  -12.0148 C   0  0  0  0  0  0  0  0  0  0  0  0
  -27.7252    4.1507  -11.5250 O   0  0  0  0  0  0  0  0  0  0  0  0
  -28.0026    3.1698  -12.2149 C   0  0  0  0  0  0  0  0  0  0  0  0
  -30.0599    2.5577  -10.8787 C   0  0  0  0  0  0  0  0  0  0  0  0
  -35.2701    4.5717   -7.3615 O   0  5  0  0  0  0  0  0  0  0  0  0
  -33.6548    5.9750   -6.5234 O   0  0  0  0  0  0  0  0  0  0  0  0
  1 17  1  0  0  0  0
  1 20  1  0  0  0  0
  2 15  1  1  0  0  0
  2  3  1  0  0  0  0
  2 11  1  0  0  0  0
  3  5  1  0  0  0  0
  4 16  1  6  0  0  0
  4 21  1  0  0  0  0
  4 22  2  0  0  0  0
  4 14  1  0  0  0  0
  5  1  1  6  0  0  0
  5  8  1  0  0  0  0
  6 17  2  0  0  0  0
  6 12  1  0  0  0  0
  8  7  1  1  0  0  0
  8 11  1  0  0  0  0
  9 19  1  0  0  0  0
 11 10  1  6  0  0  0
 12 20  2  0  0  0  0
 12 19  1  0  0  0  0
 13 20  1  0  0  0  0
 14 15  1  0  0  0  0
 18 19  2  0  0  0  0
M  CHG  1  21  -1
M  END
>  <CHROM.1>
-116.13922564,98.64078714,172.92648441,82.73701282,-2.16117858,-31.85236837
3.26161202,-9.57615037,0.38000071,-0.66772666,3.09760155

>  <Name>
ligand

>  <RI>
0

>  <Rbt.Current_Directory>
/home/itssahil/PROJECTS/Mol_Feturizer/New_Systems/rnas/4XWF

>  <Rbt.Executable>
rbdock ($Id: //depot/dev/client3/rdock/2013.1/src/exe/rbdock.cxx#4 $)

>  <Rbt.Library>
libRbt.so (2013.1, Build901 2013/11/27)

>  <Rbt.Parameter_File>
/export/apps/rDock/src/rDock_2013.1_src/data/scripts/dock_solv.prm

>  <Rbt.Receptor>
prm/pocket_docking_5.prm

>  <SCORE>
-3.96828

>  <SCORE.INTER>
-9.9584

>  <SCORE.INTER.CONST>
1

>  <SCORE.INTER.POLAR>
0

>  <SCORE.INTER.ROT>
5

>  <SCORE.INTER.SOLV>
13.5499

>  <SCORE.INTER.VDW>
-18.0889

>  <SCORE.INTER.norm>
-0.452654

>  <SCORE.INTRA>
5.99011

>  <SCORE.INTRA.DIHEDRAL>
4.13012

>  <SCORE.INTRA.DIHEDRAL.0>
3.49807

>  <SCORE.INTRA.POLAR>
0

>  <SCORE.INTRA.POLAR.0>
0

>  <SCORE.INTRA.REPUL>
0

>  <SCORE.INTRA.REPUL.0>
0

>  <SCORE.INTRA.SOLV>
7.41191

>  <SCORE.INTRA.SOLV.lig_0>
-73.062

>  <SCORE.INTRA.VDW>
0.219099

>  <SCORE.INTRA.VDW.0>
-1.83782

>  <SCORE.INTRA.norm>
0.272278

>  <SCORE.RESTR>
0

>  <SCORE.RESTR.CAVITY>
0

>  <SCORE.RESTR.norm>
0

>  <SCORE.SYSTEM>
0

>  <SCORE.SYSTEM.CONST>
0

>  <SCORE.SYSTEM.DIHEDRAL>
0

>  <SCORE.SYSTEM.SOLV>
0

>  <SCORE.SYSTEM.norm>
0

>  <SCORE.heavy>
22

>  <SCORE.norm>
-0.180377

>  <RMSD>
7.040

$$$$
ligand
 OpenBabel11021811513D
libRbt.so/2013.1/901 2013/11/27
 22 23  0  0  0  0  0  0  0  0999 V2000
  -33.3991    5.6180   -8.1153 N   0  0  0  0  0  0  0  0  0  0  0  0
  -30.4020    4.5467   -9.2651 C   0  0  1  0  0  0  0  0  0  0  0  0
  -31.6674    5.1950   -9.5788 O   0  0  0  0  0  0  0  0  0  0  0  0
  -31.1959    1.1760  -10.8032 P   0  0  1  0  0  0  0  0  0  0  0  0
  -32.0901    5.9302   -8.4190 C   0  0  2  0  0  0  0  0  0  0  0  0
  -35.2600    4.5137   -7.9471 N   0  0  0  0  0  0  0  0  0  0  0  0
  -31.1652    6.3625   -6.2618 O   0  0  0  0  0  0  0  0  0  0  0  0
  -31.2650    5.3947   -7.3131 C   0  0  2  0  0  0  0  0  0  0  0  0
  -37.7354    5.2955   -6.5450 N   0  0  0  0  0  0  0  0  0  0  0  0
  -29.2584    6.2992   -8.2090 O   0  0  0  0  0  0  0  0  0  0  0  0
  -29.9907    5.0893   -7.9518 C   0  0  2  0  0  0  0  0  0  0  0  0
  -35.4191    5.6980   -7.3367 C   0  0  0  0  0  0  0  0  0  0  0  0
  -33.9907    7.6822   -6.9050 N   0  0  0  0  0  0  0  0  0  0  0  0
  -30.8515    2.6774  -10.5100 O   0  0  0  0  0  0  0  0  0  0  0  0
  -30.6664    3.0822   -9.1926 C   0  0  0  0  0  0  0  0  0  0  0  0
  -32.7618    1.1350  -10.6736 O   0  0  0  0  0  0  0  0  0  0  0  0
  -34.0058    4.4691   -8.4353 C   0  0  0  0  0  0  0  0  0  0  0  0
  -36.7317    7.3175   -6.2451 O   0  0  0  0  0  0  0  0  0  0  0  0
  -36.6497    6.1661   -6.6725 C   0  0  0  0  0  0  0  0  0  0  0  0
  -34.2505    6.3979   -7.4358 C   0  0  0  0  0  0  0  0  0  0  0  0
  -30.6750    0.7947  -12.1489 O   0  5  0  0  0  0  0  0  0  0  0  0
  -30.4227    0.2813   -9.9232 O   0  0  0  0  0  0  0  0  0  0  0  0
  1 17  1  0  0  0  0
  1 20  1  0  0  0  0
  2 15  1  1  0  0  0
  2  3  1  0  0  0  0
  2 11  1  0  0  0  0
  3  5  1  0  0  0  0
  4 16  1  1  0  0  0
  4 21  1  0  0  0  0
  4 22  2  0  0  0  0
  4 14  1  0  0  0  0
  5  1  1  1  0  0  0
  5  8  1  0  0  0  0
  6 17  2  0  0  0  0
  6 12  1  0  0  0  0
  8  7  1  1  0  0  0
  8 11  1  0  0  0  0
  9 19  1  0  0  0  0
 11 10  1  6  0  0  0
 12 20  2  0  0  0  0
 12 19  1  0  0  0  0
 13 20  1  0  0  0  0
 14 15  1  0  0  0  0
 18 19  2  0  0  0  0
M  CHG  1  21  -1
M  END
>  <CHROM.1>
25.83801381,73.12558443,86.72086075,-178.25776911,5.70365514,-32.55622224
4.34534479,-8.63318880,-2.22489042,-0.13319895,-2.57660356

>  <Name>
ligand

>  <RI>
0

>  <Rbt.Current_Directory>
/home/itssahil/PROJECTS/Mol_Feturizer/New_Systems/rnas/4XWF

>  <Rbt.Executable>
rbdock ($Id: //depot/dev/client3/rdock/2013.1/src/exe/rbdock.cxx#4 $)

>  <Rbt.Library>
libRbt.so (2013.1, Build901 2013/11/27)

>  <Rbt.Parameter_File>
/export/apps/rDock/src/rDock_2013.1_src/data/scripts/dock_solv.prm

>  <Rbt.Receptor>
prm/pocket_docking_8.prm

>  <SCORE>
-9.47562

>  <SCORE.INTER>
-9.10705

>  <SCORE.INTER.CONST>
1

>  <SCORE.INTER.POLAR>
0

>  <SCORE.INTER.ROT>
5

>  <SCORE.INTER.SOLV>
20.1222

>  <SCORE.INTER.VDW>
-19.7121

>  <SCORE.INTER.norm>
-0.413957

>  <SCORE.INTRA>
-0.368576

>  <SCORE.INTRA.DIHEDRAL>
-0.454154

>  <SCORE.INTRA.DIHEDRAL.0>
3.49807

>  <SCORE.INTRA.POLAR>
0

>  <SCORE.INTRA.POLAR.0>
0

>  <SCORE.INTRA.REPUL>
0

>  <SCORE.INTRA.REPUL.0>
0

>  <SCORE.INTRA.SOLV>
0.28767

>  <SCORE.INTRA.SOLV.lig_0>
-73.062

>  <SCORE.INTRA.VDW>
-0.285334

>  <SCORE.INTRA.VDW.0>
-1.83782

>  <SCORE.INTRA.norm>
-0.0167535

>  <SCORE.RESTR>
0

>  <SCORE.RESTR.CAVITY>
0

>  <SCORE.RESTR.norm>
0

>  <SCORE.SYSTEM>
0

>  <SCORE.SYSTEM.CONST>
0

>  <SCORE.SYSTEM.DIHEDRAL>
0

>  <SCORE.SYSTEM.SOLV>
0

>  <SCORE.SYSTEM.norm>
0

>  <SCORE.heavy>
22

>  <SCORE.norm>
-0.43071

>  <RMSD>
7.045

$$$$
ligand
 OpenBabel11021811513D
libRbt.so/2013.1/901 2013/11/27
 22 23  0  0  0  0  0  0  0  0999 V2000
  -30.0704    3.2891   -9.1519 N   0  0  0  0  0  0  0  0  0  0  0  0
  -33.3739    2.9901   -9.8227 C   0  0  1  0  0  0  0  0  0  0  0  0
  -32.1335    3.7015  -10.0970 O   0  0  0  0  0  0  0  0  0  0  0  0
  -34.6160    5.7352   -7.5252 P   0  0  1  0  0  0  0  0  0  0  0  0
  -31.0485    2.7678   -9.9734 C   0  0  2  0  0  0  0  0  0  0  0  0
  -29.0946    4.1651   -7.4223 N   0  0  0  0  0  0  0  0  0  0  0  0
  -30.8732    0.4279   -9.5375 O   0  0  0  0  0  0  0  0  0  0  0  0
  -31.6275    1.6118   -9.2527 C   0  0  2  0  0  0  0  0  0  0  0  0
  -25.8060    3.1262   -8.2513 N   0  0  0  0  0  0  0  0  0  0  0  0
  -33.0451    1.0330  -11.0700 O   0  0  0  0  0  0  0  0  0  0  0  0
  -33.0027    1.5609   -9.7337 C   0  0  2  0  0  0  0  0  0  0  0  0
  -28.1572    3.9113   -8.3484 C   0  0  0  0  0  0  0  0  0  0  0  0
  -28.1287    2.9223  -10.6254 N   0  0  0  0  0  0  0  0  0  0  0  0
  -34.1062    4.8611   -8.7230 O   0  0  0  0  0  0  0  0  0  0  0  0
  -33.8938    3.5014   -8.5233 C   0  0  0  0  0  0  0  0  0  0  0  0
  -36.0585    5.1713   -7.2577 O   0  0  0  0  0  0  0  0  0  0  0  0
  -30.2834    3.7831   -7.9267 C   0  0  0  0  0  0  0  0  0  0  0  0
  -26.3098    5.3378   -8.0492 O   0  0  0  0  0  0  0  0  0  0  0  0
  -26.7150    4.1869   -8.2119 C   0  0  0  0  0  0  0  0  0  0  0  0
  -28.7636    3.3568   -9.4393 C   0  0  0  0  0  0  0  0  0  0  0  0
  -33.6761    5.6055   -6.3730 O   0  5  0  0  0  0  0  0  0  0  0  0
  -34.5006    7.1706   -7.8398 O   0  0  0  0  0  0  0  0  0  0  0  0
  1 17  1  0  0  0  0
  1 20  1  0  0  0  0
  2 15  1  1  0  0  0
  2  3  1  0  0  0  0
  2 11  1  0  0  0  0
  3  5  1  0  0  0  0
  4 16  1  1  0  0  0
  4 21  1  0  0  0  0
  4 22  2  0  0  0  0
  4 14  1  0  0  0  0
  5  1  1  1  0  0  0
  5  8  1  0  0  0  0
  6 17  2  0  0  0  0
  6 12  1  0  0  0  0
  8  7  1  6  0  0  0
  8 11  1  0  0  0  0
  9 19  1  0  0  0  0
 11 10  1  6  0  0  0
 12 20  2  0  0  0  0
 12 19  1  0  0  0  0
 13 20  1  0  0  0  0
 14 15  1  0  0  0  0
 18 19  2  0  0  0  0
M  CHG  1  21  -1
M  END
>  <CHROM.1>
51.85140656,60.63734128,-66.03414887,-177.99406095,117.85642020,-31.44920988
3.79196626,-8.70352766,0.24772804,0.02680301,-2.55966251

>  <Name>
ligand

>  <RI>
0

>  <Rbt.Current_Directory>
/home/itssahil/PROJECTS/Mol_Feturizer/New_Systems/rnas/4XWF

>  <Rbt.Executable>
rbdock ($Id: //depot/dev/client3/rdock/2013.1/src/exe/rbdock.cxx#4 $)

>  <Rbt.Library>
libRbt.so (2013.1, Build901 2013/11/27)

>  <Rbt.Parameter_File>
/export/apps/rDock/src/rDock_2013.1_src/data/scripts/dock_solv.prm

>  <Rbt.Receptor>
prm/pocket_docking_5.prm

>  <SCORE>
-7.59201

>  <SCORE.INTER>
-6.08955

>  <SCORE.INTER.CONST>
1

>  <SCORE.INTER.POLAR>
0

>  <SCORE.INTER.ROT>
5

>  <SCORE.INTER.SOLV>
12.3375

>  <SCORE.INTER.VDW>
-15.1055

>  <SCORE.INTER.norm>
-0.276798

>  <SCORE.INTRA>
-1.50246

>  <SCORE.INTRA.DIHEDRAL>
-1.88589

>  <SCORE.INTRA.DIHEDRAL.0>
3.49807

>  <SCORE.INTRA.POLAR>
0

>  <SCORE.INTRA.POLAR.0>
0

>  <SCORE.INTRA.REPUL>
0

>  <SCORE.INTRA.REPUL.0>
0

>  <SCORE.INTRA.SOLV>
-0.563888

>  <SCORE.INTRA.SOLV.lig_0>
-73.062

>  <SCORE.INTRA.VDW>
-0.277569

>  <SCORE.INTRA.VDW.0>
-1.83782

>  <SCORE.INTRA.norm>
-0.0682935

>  <SCORE.RESTR>
0

>  <SCORE.RESTR.CAVITY>
0

>  <SCORE.RESTR.norm>
0

>  <SCORE.SYSTEM>
0

>  <SCORE.SYSTEM.CONST>
0

>  <SCORE.SYSTEM.DIHEDRAL>
0

>  <SCORE.SYSTEM.SOLV>
0

>  <SCORE.SYSTEM.norm>
0

>  <SCORE.heavy>
22

>  <SCORE.norm>
-0.345091

>  <RMSD>
7.046

$$$$
ligand
 OpenBabel11021811513D
libRbt.so/2013.1/901 2013/11/27
 22 23  0  0  0  0  0  0  0  0999 V2000
  -30.0933    3.2468   -9.0941 N   0  0  0  0  0  0  0  0  0  0  0  0
  -33.3934    3.0219   -9.8093 C   0  0  1  0  0  0  0  0  0  0  0  0
  -32.1346    3.7076  -10.0640 O   0  0  0  0  0  0  0  0  0  0  0  0
  -34.6036    5.7832   -7.5142 P   0  0  1  0  0  0  0  0  0  0  0  0
  -31.0715    2.7503   -9.9306 C   0  0  2  0  0  0  0  0  0  0  0  0
  -29.1283    4.1360   -7.3652 N   0  0  0  0  0  0  0  0  0  0  0  0
  -30.9522    0.4052   -9.5036 O   0  0  0  0  0  0  0  0  0  0  0  0
  -31.6846    1.6038   -9.2231 C   0  0  2  0  0  0  0  0  0  0  0  0
  -25.8875    2.8664   -7.9787 N   0  0  0  0  0  0  0  0  0  0  0  0
  -33.0903    1.0636  -11.0614 O   0  0  0  0  0  0  0  0  0  0  0  0
  -33.0541    1.5846   -9.7222 C   0  0  2  0  0  0  0  0  0  0  0  0
  -28.1757    3.7873   -8.2436 C   0  0  0  0  0  0  0  0  0  0  0  0
  -28.1262    2.7021  -10.4759 N   0  0  0  0  0  0  0  0  0  0  0  0
  -34.0967    4.9038   -8.7093 O   0  0  0  0  0  0  0  0  0  0  0  0
  -33.9192    3.5384   -8.5144 C   0  0  0  0  0  0  0  0  0  0  0  0
  -36.0687    5.2636   -7.2823 O   0  0  0  0  0  0  0  0  0  0  0  0
  -30.3194    3.8045   -7.8989 C   0  0  0  0  0  0  0  0  0  0  0  0
  -26.2515    5.1143   -7.9719 O   0  0  0  0  0  0  0  0  0  0  0  0
  -26.7251    3.9818   -8.0632 C   0  0  0  0  0  0  0  0  0  0  0  0
  -28.7755    3.2239   -9.3336 C   0  0  0  0  0  0  0  0  0  0  0  0
  -33.6929    5.6132   -6.3438 O   0  5  0  0  0  0  0  0  0  0  0  0
  -34.4358    7.2169   -7.8126 O   0  0  0  0  0  0  0  0  0  0  0  0
  1 17  1  0  0  0  0
  1 20  1  0  0  0  0
  2 15  1  1  0  0  0
  2  3  1  0  0  0  0
  2 11  1  0  0  0  0
  3  5  1  0  0  0  0
  4 16  1  1  0  0  0
  4 21  1  0  0  0  0
  4 22  2  0  0  0  0
  4 14  1  0  0  0  0
  5  1  1  1  0  0  0
  5  8  1  0  0  0  0
  6 17  2  0  0  0  0
  6 12  1  0  0  0  0
  8  7  1  6  0  0  0
  8 11  1  0  0  0  0
  9 19  1  0  0  0  0
 11 10  1  6  0  0  0
 12 20  2  0  0  0  0
 12 19  1  0  0  0  0
 13 20  1  0  0  0  0
 14 15  1  0  0  0  0
 18 19  2  0  0  0  0
M  CHG  1  21  -1
M  END
>  <CHROM.1>
48.11960877,60.49260490,-66.67298977,-178.04459932,115.66747793,-31.46462464
3.75868883,-8.65163919,0.26475351,0.06055801,-2.55272457

>  <Name>
ligand

>  <RI>
0

>  <Rbt.Current_Directory>
/home/itssahil/PROJECTS/Mol_Feturizer/New_Systems/rnas/4XWF

>  <Rbt.Executable>
rbdock ($Id: //depot/dev/client3/rdock/2013.1/src/exe/rbdock.cxx#4 $)

>  <Rbt.Library>
libRbt.so (2013.1, Build901 2013/11/27)

>  <Rbt.Parameter_File>
/export/apps/rDock/src/rDock_2013.1_src/data/scripts/dock_solv.prm

>  <Rbt.Receptor>
prm/pocket_docking_5.prm

>  <SCORE>
-7.68857

>  <SCORE.INTER>
-6.17135

>  <SCORE.INTER.CONST>
1

>  <SCORE.INTER.POLAR>
0

>  <SCORE.INTER.ROT>
5

>  <SCORE.INTER.SOLV>
11.9099

>  <SCORE.INTER.VDW>
-15.0175

>  <SCORE.INTER.norm>
-0.280516

>  <SCORE.INTRA>
-1.51723

>  <SCORE.INTRA.DIHEDRAL>
-1.86573

>  <SCORE.INTRA.DIHEDRAL.0>
3.49807

>  <SCORE.INTRA.POLAR>
0

>  <SCORE.INTRA.POLAR.0>
0

>  <SCORE.INTRA.REPUL>
0

>  <SCORE.INTRA.REPUL.0>
0

>  <SCORE.INTRA.SOLV>
-0.467514

>  <SCORE.INTRA.SOLV.lig_0>
-73.062

>  <SCORE.INTRA.VDW>
-0.350605

>  <SCORE.INTRA.VDW.0>
-1.83782

>  <SCORE.INTRA.norm>
-0.0689648

>  <SCORE.RESTR>
0

>  <SCORE.RESTR.CAVITY>
0

>  <SCORE.RESTR.norm>
0

>  <SCORE.SYSTEM>
0

>  <SCORE.SYSTEM.CONST>
0

>  <SCORE.SYSTEM.DIHEDRAL>
0

>  <SCORE.SYSTEM.SOLV>
0

>  <SCORE.SYSTEM.norm>
0

>  <SCORE.heavy>
22

>  <SCORE.norm>
-0.349481

>  <RMSD>
7.046

$$$$
ligand
 OpenBabel11021811513D
libRbt.so/2013.1/901 2013/11/27
 22 23  0  0  0  0  0  0  0  0999 V2000
  -30.0688    3.2834   -9.0988 N   0  0  0  0  0  0  0  0  0  0  0  0
  -33.3630    2.9939   -9.8179 C   0  0  1  0  0  0  0  0  0  0  0  0
  -32.1184    3.7069  -10.0680 O   0  0  0  0  0  0  0  0  0  0  0  0
  -34.6015    5.7231   -7.5005 P   0  0  1  0  0  0  0  0  0  0  0  0
  -31.0359    2.7711   -9.9387 C   0  0  2  0  0  0  0  0  0  0  0  0
  -29.1182    4.1508   -7.3509 N   0  0  0  0  0  0  0  0  0  0  0  0
  -30.8683    0.4268   -9.5238 O   0  0  0  0  0  0  0  0  0  0  0  0
  -31.6256    1.6085   -9.2377 C   0  0  2  0  0  0  0  0  0  0  0  0
  -25.8219    3.0831   -8.1414 N   0  0  0  0  0  0  0  0  0  0  0  0
  -33.0184    1.0489  -11.0800 O   0  0  0  0  0  0  0  0  0  0  0  0
  -32.9941    1.5635   -9.7380 C   0  0  2  0  0  0  0  0  0  0  0  0
  -28.1656    3.8877   -8.2588 C   0  0  0  0  0  0  0  0  0  0  0  0
  -28.1027    2.8976  -10.5346 N   0  0  0  0  0  0  0  0  0  0  0  0
  -34.1030    4.8556   -8.7078 O   0  0  0  0  0  0  0  0  0  0  0  0
  -33.9004    3.4926   -8.5208 C   0  0  0  0  0  0  0  0  0  0  0  0
  -36.0412    5.1572   -7.2220 O   0  0  0  0  0  0  0  0  0  0  0  0
  -30.3006    3.7799   -7.8780 C   0  0  0  0  0  0  0  0  0  0  0  0
  -26.3128    5.2940   -7.9027 O   0  0  0  0  0  0  0  0  0  0  0  0
  -26.7237    4.1497   -8.0946 C   0  0  0  0  0  0  0  0  0  0  0  0
  -28.7562    3.3385   -9.3610 C   0  0  0  0  0  0  0  0  0  0  0  0
  -33.6505    5.5877   -6.3581 O   0  5  0  0  0  0  0  0  0  0  0  0
  -34.4898    7.1602   -7.8085 O   0  0  0  0  0  0  0  0  0  0  0  0
  1 17  1  0  0  0  0
  1 20  1  0  0  0  0
  2 15  1  1  0  0  0
  2  3  1  0  0  0  0
  2 11  1  0  0  0  0
  3  5  1  0  0  0  0
  4 16  1  1  0  0  0
  4 21  1  0  0  0  0
  4 22  2  0  0  0  0
  4 14  1  0  0  0  0
  5  1  1  1  0  0  0
  5  8  1  0  0  0  0
  6 17  2  0  0  0  0
  6 12  1  0  0  0  0
  8  7  1  6  0  0  0
  8 11  1  0  0  0  0
  9 19  1  0  0  0  0
 11 10  1  6  0  0  0
 12 20  2  0  0  0  0
 12 19  1  0  0  0  0
 13 20  1  0  0  0  0
 14 15  1  0  0  0  0
 18 19  2  0  0  0  0
M  CHG  1  21  -1
M  END
>  <CHROM.1>
51.01912523,60.35841866,-65.42574096,-176.87154556,119.04561167,-31.44339204
3.78049180,-8.65965410,0.24355886,0.04074812,-2.54793179

>  <Name>
ligand

>  <RI>
0

>  <Rbt.Current_Directory>
/home/itssahil/PROJECTS/Mol_Feturizer/New_Systems/rnas/4XWF

>  <Rbt.Executable>
rbdock ($Id: //depot/dev/client3/rdock/2013.1/src/exe/rbdock.cxx#4 $)

>  <Rbt.Library>
libRbt.so (2013.1, Build901 2013/11/27)

>  <Rbt.Parameter_File>
/export/apps/rDock/src/rDock_2013.1_src/data/scripts/dock_solv.prm

>  <Rbt.Receptor>
prm/pocket_docking_5.prm

>  <SCORE>
-7.63596

>  <SCORE.INTER>
-6.13619

>  <SCORE.INTER.CONST>
1

>  <SCORE.INTER.POLAR>
0

>  <SCORE.INTER.ROT>
5

>  <SCORE.INTER.SOLV>
12.0016

>  <SCORE.INTER.VDW>
-15.0247

>  <SCORE.INTER.norm>
-0.278918

>  <SCORE.INTRA>
-1.49978

>  <SCORE.INTRA.DIHEDRAL>
-1.87692

>  <SCORE.INTRA.DIHEDRAL.0>
3.49807

>  <SCORE.INTRA.POLAR>
0

>  <SCORE.INTRA.POLAR.0>
0

>  <SCORE.INTRA.REPUL>
0

>  <SCORE.INTRA.REPUL.0>
0

>  <SCORE.INTRA.SOLV>
-0.527571

>  <SCORE.INTRA.SOLV.lig_0>
-73.062

>  <SCORE.INTRA.VDW>
-0.297532

>  <SCORE.INTRA.VDW.0>
-1.83782

>  <SCORE.INTRA.norm>
-0.0681717

>  <SCORE.RESTR>
0

>  <SCORE.RESTR.CAVITY>
0

>  <SCORE.RESTR.norm>
0

>  <SCORE.SYSTEM>
0

>  <SCORE.SYSTEM.CONST>
0

>  <SCORE.SYSTEM.DIHEDRAL>
0

>  <SCORE.SYSTEM.SOLV>
0

>  <SCORE.SYSTEM.norm>
0

>  <SCORE.heavy>
22

>  <SCORE.norm>
-0.347089

>  <RMSD>
7.047

$$$$
ligand
 OpenBabel11021811513D
libRbt.so/2013.1/901 2013/11/27
 22 23  0  0  0  0  0  0  0  0999 V2000
  -29.7806    4.9039  -16.2183 N   0  0  0  0  0  0  0  0  0  0  0  0
  -27.8805    2.5854  -14.6477 C   0  0  1  0  0  0  0  0  0  0  0  0
  -28.4099    3.0743  -15.9129 O   0  0  0  0  0  0  0  0  0  0  0  0
  -29.2938    0.5752  -11.7789 P   0  0  1  0  0  0  0  0  0  0  0  0
  -28.5198    4.5042  -15.8263 C   0  0  2  0  0  0  0  0  0  0  0  0
  -31.9301    4.9127  -16.5195 N   0  0  0  0  0  0  0  0  0  0  0  0
  -27.9612    6.1465  -14.1871 O   0  0  0  0  0  0  0  0  0  0  0  0
  -28.4172    4.8024  -14.3802 C   0  0  2  0  0  0  0  0  0  0  0  0
  -33.6112    7.1590  -17.4722 N   0  0  0  0  0  0  0  0  0  0  0  0
  -26.1446    4.1158  -14.2751 O   0  0  0  0  0  0  0  0  0  0  0  0
  -27.4899    3.7919  -13.8860 C   0  0  2  0  0  0  0  0  0  0  0  0
  -31.4359    6.0667  -16.9936 C   0  0  0  0  0  0  0  0  0  0  0  0
  -29.1883    7.1104  -17.1436 N   0  0  0  0  0  0  0  0  0  0  0  0
  -28.5149    1.5913  -12.6842 O   0  0  0  0  0  0  0  0  0  0  0  0
  -28.9809    1.8440  -13.9698 C   0  0  0  0  0  0  0  0  0  0  0  0
  -30.7967    0.8342  -12.1594 O   0  0  0  0  0  0  0  0  0  0  0  0
  -30.8985    4.1894  -16.0439 C   0  0  0  0  0  0  0  0  0  0  0  0
  -31.6644    8.0300  -18.2703 O   0  0  0  0  0  0  0  0  0  0  0  0
  -32.2212    7.1487  -17.6159 C   0  0  0  0  0  0  0  0  0  0  0  0
  -30.0833    6.0698  -16.8046 C   0  0  0  0  0  0  0  0  0  0  0  0
  -28.8149   -0.8117  -12.0535 O   0  5  0  0  0  0  0  0  0  0  0  0
  -28.9181    0.7421  -10.3635 O   0  0  0  0  0  0  0  0  0  0  0  0
  1 17  1  0  0  0  0
  1 20  1  0  0  0  0
  2 15  1  1  0  0  0
  2  3  1  0  0  0  0
  2 11  1  0  0  0  0
  3  5  1  0  0  0  0
  4 16  1  6  0  0  0
  4 21  1  0  0  0  0
  4 22  2  0  0  0  0
  4 14  1  0  0  0  0
  5  1  1  1  0  0  0
  5  8  1  0  0  0  0
  6 17  2  0  0  0  0
  6 12  1  0  0  0  0
  8  7  1  6  0  0  0
  8 11  1  0  0  0  0
  9 19  1  0  0  0  0
 11 10  1  6  0  0  0
 12 20  2  0  0  0  0
 12 19  1  0  0  0  0
 13 20  1  0  0  0  0
 14 15  1  0  0  0  0
 18 19  2  0  0  0  0
M  CHG  1  21  -1
M  END
>  <CHROM.1>
31.89535799,-170.25045876,-36.43992664,-167.67723322,14.80113069,-29.52048181
3.78781900,-14.69756374,-1.86568033,0.15988032,2.46973171

>  <Name>
ligand

>  <RI>
0

>  <Rbt.Current_Directory>
/home/itssahil/PROJECTS/Mol_Feturizer/New_Systems/rnas/4XWF

>  <Rbt.Executable>
rbdock ($Id: //depot/dev/client3/rdock/2013.1/src/exe/rbdock.cxx#4 $)

>  <Rbt.Library>
libRbt.so (2013.1, Build901 2013/11/27)

>  <Rbt.Parameter_File>
/export/apps/rDock/src/rDock_2013.1_src/data/scripts/dock_solv.prm

>  <Rbt.Receptor>
prm/pocket_docking_8.prm

>  <SCORE>
-5.58657

>  <SCORE.INTER>
-6.29696

>  <SCORE.INTER.CONST>
1

>  <SCORE.INTER.POLAR>
0

>  <SCORE.INTER.ROT>
5

>  <SCORE.INTER.SOLV>
14.7472

>  <SCORE.INTER.VDW>
-16.047

>  <SCORE.INTER.norm>
-0.286225

>  <SCORE.INTRA>
0.69919

>  <SCORE.INTRA.DIHEDRAL>
0.0145866

>  <SCORE.INTRA.DIHEDRAL.0>
3.49807

>  <SCORE.INTRA.POLAR>
0

>  <SCORE.INTRA.POLAR.0>
0

>  <SCORE.INTRA.REPUL>
0

>  <SCORE.INTRA.REPUL.0>
0

>  <SCORE.INTRA.SOLV>
-0.128633

>  <SCORE.INTRA.SOLV.lig_0>
-73.062

>  <SCORE.INTRA.VDW>
0.756213

>  <SCORE.INTRA.VDW.0>
-1.83782

>  <SCORE.INTRA.norm>
0.0317814

>  <SCORE.RESTR>
0.0112002

>  <SCORE.RESTR.CAVITY>
0.0112002

>  <SCORE.RESTR.norm>
0.000509102

>  <SCORE.SYSTEM>
0

>  <SCORE.SYSTEM.CONST>
0

>  <SCORE.SYSTEM.DIHEDRAL>
0

>  <SCORE.SYSTEM.SOLV>
0

>  <SCORE.SYSTEM.norm>
0

>  <SCORE.heavy>
22

>  <SCORE.norm>
-0.253935

>  <RMSD>
7.073

$$$$
ligand
 OpenBabel11021811513D
libRbt.so/2013.1/901 2013/11/27
 22 23  0  0  0  0  0  0  0  0999 V2000
  -30.5456    4.2456   -9.6973 N   0  0  0  0  0  0  0  0  0  0  0  0
  -33.6603    3.1118   -9.0147 C   0  0  1  0  0  0  0  0  0  0  0  0
  -32.8209    3.9194   -9.8882 O   0  0  0  0  0  0  0  0  0  0  0  0
  -34.8348    6.2038   -7.1667 P   0  0  1  0  0  0  0  0  0  0  0  0
  -31.5233    3.3057   -9.9502 C   0  0  2  0  0  0  0  0  0  0  0  0
  -29.5578    6.0334   -8.9631 N   0  0  0  0  0  0  0  0  0  0  0  0
  -30.5491    1.3178   -9.0584 O   0  0  0  0  0  0  0  0  0  0  0  0
  -31.4996    2.3606   -8.8114 C   0  0  2  0  0  0  0  0  0  0  0  0
  -26.7070    6.7640   -9.1483 N   0  0  0  0  0  0  0  0  0  0  0  0
  -33.1520    0.9566   -9.7837 O   0  0  0  0  0  0  0  0  0  0  0  0
  -32.8769    1.8906   -8.7262 C   0  0  2  0  0  0  0  0  0  0  0  0
  -28.6403    5.2691   -9.5752 C   0  0  0  0  0  0  0  0  0  0  0  0
  -28.6381    3.0663  -10.7203 N   0  0  0  0  0  0  0  0  0  0  0  0
  -34.4953    5.0896   -8.2164 O   0  0  0  0  0  0  0  0  0  0  0  0
  -33.9027    3.9097   -7.7800 C   0  0  0  0  0  0  0  0  0  0  0  0
  -35.3938    7.3746   -8.0540 O   0  0  0  0  0  0  0  0  0  0  0  0
  -30.7421    5.3977   -9.0458 C   0  0  0  0  0  0  0  0  0  0  0  0
  -26.4628    4.8546  -10.3651 O   0  0  0  0  0  0  0  0  0  0  0  0
  -27.2099    5.5947   -9.7254 C   0  0  0  0  0  0  0  0  0  0  0  0
  -29.2542    4.1401  -10.0375 C   0  0  0  0  0  0  0  0  0  0  0  0
  -35.8022    5.6703   -6.1630 O   0  5  0  0  0  0  0  0  0  0  0  0
  -33.6644    6.4985   -6.3206 O   0  0  0  0  0  0  0  0  0  0  0  0
  1 17  1  0  0  0  0
  1 20  1  0  0  0  0
  2 15  1  1  0  0  0
  2  3  1  0  0  0  0
  2 11  1  0  0  0  0
  3  5  1  0  0  0  0
  4 16  1  6  0  0  0
  4 21  1  0  0  0  0
  4 22  2  0  0  0  0
  4 14  1  0  0  0  0
  5  1  1  1  0  0  0
  5  8  1  0  0  0  0
  6 17  2  0  0  0  0
  6 12  1  0  0  0  0
  8  7  1  6  0  0  0
  8 11  1  0  0  0  0
  9 19  1  0  0  0  0
 11 10  1  6  0  0  0
 12 20  2  0  0  0  0
 12 19  1  0  0  0  0
 13 20  1  0  0  0  0
 14 15  1  0  0  0  0
 18 19  2  0  0  0  0
M  CHG  1  21  -1
M  END
>  <CHROM.1>
21.70634199,57.84630785,176.69529410,-177.40359829,2.88607593,-31.74015444
4.50711496,-8.78822748,0.22668482,-0.29619905,-2.82056452

>  <Name>
ligand

>  <RI>
0

>  <Rbt.Current_Directory>
/home/itssahil/PROJECTS/Mol_Feturizer/New_Systems/rnas/4XWF

>  <Rbt.Executable>
rbdock ($Id: //depot/dev/client3/rdock/2013.1/src/exe/rbdock.cxx#4 $)

>  <Rbt.Library>
libRbt.so (2013.1, Build901 2013/11/27)

>  <Rbt.Parameter_File>
/export/apps/rDock/src/rDock_2013.1_src/data/scripts/dock_solv.prm

>  <Rbt.Receptor>
prm/pocket_docking_7.prm

>  <SCORE>
-8.57536

>  <SCORE.INTER>
-7.87201

>  <SCORE.INTER.CONST>
1

>  <SCORE.INTER.POLAR>
0

>  <SCORE.INTER.ROT>
5

>  <SCORE.INTER.SOLV>
9.0093

>  <SCORE.INTER.VDW>
-15.1844

>  <SCORE.INTER.norm>
-0.357818

>  <SCORE.INTRA>
-0.703357

>  <SCORE.INTRA.DIHEDRAL>
-1.92259

>  <SCORE.INTRA.DIHEDRAL.0>
3.49807

>  <SCORE.INTRA.POLAR>
0

>  <SCORE.INTRA.POLAR.0>
0

>  <SCORE.INTRA.REPUL>
0

>  <SCORE.INTRA.REPUL.0>
0

>  <SCORE.INTRA.SOLV>
1.01295

>  <SCORE.INTRA.SOLV.lig_0>
-73.062

>  <SCORE.INTRA.VDW>
-0.248535

>  <SCORE.INTRA.VDW.0>
-1.83782

>  <SCORE.INTRA.norm>
-0.0319708

>  <SCORE.RESTR>
0

>  <SCORE.RESTR.CAVITY>
0

>  <SCORE.RESTR.norm>
0

>  <SCORE.SYSTEM>
0

>  <SCORE.SYSTEM.CONST>
0

>  <SCORE.SYSTEM.DIHEDRAL>
0

>  <SCORE.SYSTEM.SOLV>
0

>  <SCORE.SYSTEM.norm>
0

>  <SCORE.heavy>
22

>  <SCORE.norm>
-0.389789

>  <RMSD>
7.148

$$$$
ligand
 OpenBabel11021811513D
libRbt.so/2013.1/901 2013/11/27
 22 23  0  0  0  0  0  0  0  0999 V2000
  -26.2762   -1.1761  -11.2757 N   0  0  0  0  0  0  0  0  0  0  0  0
  -28.5186    1.1064  -12.3777 C   0  0  1  0  0  0  0  0  0  0  0  0
  -27.3802    0.8352  -11.5115 O   0  0  0  0  0  0  0  0  0  0  0  0
  -31.3702    1.2624   -9.8872 P   0  0  1  0  0  0  0  0  0  0  0  0
  -26.5565   -0.1506  -12.1549 C   0  0  2  0  0  0  0  0  0  0  0  0
  -25.7629   -3.1415  -10.5108 N   0  0  0  0  0  0  0  0  0  0  0  0
  -26.6084   -1.2892  -14.2517 O   0  0  0  0  0  0  0  0  0  0  0  0
  -27.4174   -0.7287  -13.2110 C   0  0  2  0  0  0  0  0  0  0  0  0
  -26.7657   -2.6330   -7.1812 N   0  0  0  0  0  0  0  0  0  0  0  0
  -27.4551    1.2938  -14.4581 O   0  0  0  0  0  0  0  0  0  0  0  0
  -28.2328    0.3991  -13.6451 C   0  0  2  0  0  0  0  0  0  0  0  0
  -25.8682   -2.3012   -9.4700 C   0  0  0  0  0  0  0  0  0  0  0  0
  -26.3682    0.1129   -9.1767 N   0  0  0  0  0  0  0  0  0  0  0  0
  -30.1182    1.5270  -10.7932 O   0  0  0  0  0  0  0  0  0  0  0  0
  -29.7249    0.5509  -11.7022 C   0  0  0  0  0  0  0  0  0  0  0  0
  -32.5012    0.9285  -10.9263 O   0  0  0  0  0  0  0  0  0  0  0  0
  -26.0229   -2.4410  -11.6313 C   0  0  0  0  0  0  0  0  0  0  0  0
  -24.5574   -2.9606   -7.6304 O   0  0  0  0  0  0  0  0  0  0  0  0
  -25.6733   -2.6576   -8.0524 C   0  0  0  0  0  0  0  0  0  0  0  0
  -26.1882   -1.0609   -9.9439 C   0  0  0  0  0  0  0  0  0  0  0  0
  -31.0696    0.1630   -8.9234 O   0  5  0  0  0  0  0  0  0  0  0  0
  -31.6051    2.3972   -8.9762 O   0  0  0  0  0  0  0  0  0  0  0  0
  1 17  1  0  0  0  0
  1 20  1  0  0  0  0
  2 15  1  1  0  0  0
  2  3  1  0  0  0  0
  2 11  1  0  0  0  0
  3  5  1  0  0  0  0
  4 16  1  6  0  0  0
  4 21  1  0  0  0  0
  4 22  2  0  0  0  0
  4 14  1  0  0  0  0
  5  1  1  1  0  0  0
  5  8  1  0  0  0  0
  6 17  2  0  0  0  0
  6 12  1  0  0  0  0
  8  7  1  6  0  0  0
  8 11  1  0  0  0  0
  9 19  1  0  0  0  0
 11 10  1  6  0  0  0
 12 20  2  0  0  0  0
 12 19  1  0  0  0  0
 13 20  1  0  0  0  0
 14 15  1  0  0  0  0
 18 19  2  0  0  0  0
M  CHG  1  21  -1
M  END
>  <CHROM.1>
152.01717384,82.86431967,-54.97514665,-179.43631357,-112.35035665,-28.10338322
-0.29195204,-10.76365415,-0.29222549,0.53734979,-1.28756602

>  <Name>
ligand

>  <RI>
0

>  <Rbt.Current_Directory>
/home/itssahil/PROJECTS/Mol_Feturizer/New_Systems/rnas/4XWF

>  <Rbt.Executable>
rbdock ($Id: //depot/dev/client3/rdock/2013.1/src/exe/rbdock.cxx#4 $)

>  <Rbt.Library>
libRbt.so (2013.1, Build901 2013/11/27)

>  <Rbt.Parameter_File>
/export/apps/rDock/src/rDock_2013.1_src/data/scripts/dock_solv.prm

>  <Rbt.Receptor>
prm/pocket_docking_8.prm

>  <SCORE>
-4.2148

>  <SCORE.INTER>
-5.58464

>  <SCORE.INTER.CONST>
1

>  <SCORE.INTER.POLAR>
0

>  <SCORE.INTER.ROT>
5

>  <SCORE.INTER.SOLV>
10.9131

>  <SCORE.INTER.VDW>
-14.2941

>  <SCORE.INTER.norm>
-0.253847

>  <SCORE.INTRA>
1.36984

>  <SCORE.INTRA.DIHEDRAL>
-0.253992

>  <SCORE.INTRA.DIHEDRAL.0>
3.49807

>  <SCORE.INTRA.POLAR>
0

>  <SCORE.INTRA.POLAR.0>
0

>  <SCORE.INTRA.REPUL>
0

>  <SCORE.INTRA.REPUL.0>
0

>  <SCORE.INTRA.SOLV>
0.839664

>  <SCORE.INTRA.SOLV.lig_0>
-73.062

>  <SCORE.INTRA.VDW>
1.077

>  <SCORE.INTRA.VDW.0>
-1.83782

>  <SCORE.INTRA.norm>
0.0622654

>  <SCORE.RESTR>
0

>  <SCORE.RESTR.CAVITY>
0

>  <SCORE.RESTR.norm>
0

>  <SCORE.SYSTEM>
0

>  <SCORE.SYSTEM.CONST>
0

>  <SCORE.SYSTEM.DIHEDRAL>
0

>  <SCORE.SYSTEM.SOLV>
0

>  <SCORE.SYSTEM.norm>
0

>  <SCORE.heavy>
22

>  <SCORE.norm>
-0.191582

>  <RMSD>
7.164

$$$$
ligand
 OpenBabel11021811513D
libRbt.so/2013.1/901 2013/11/27
 22 23  0  0  0  0  0  0  0  0999 V2000
  -30.7023    2.9827  -10.1499 N   0  0  0  0  0  0  0  0  0  0  0  0
  -33.8350    3.2623   -8.9006 C   0  0  1  0  0  0  0  0  0  0  0  0
  -33.0073    3.0168  -10.0729 O   0  0  0  0  0  0  0  0  0  0  0  0
  -34.8408    6.3735   -6.9895 P   0  0  1  0  0  0  0  0  0  0  0  0
  -31.8139    2.3428   -9.6417 C   0  0  2  0  0  0  0  0  0  0  0  0
  -29.2139    4.5138  -10.5389 N   0  0  0  0  0  0  0  0  0  0  0  0
  -31.0023    1.5093   -7.5578 O   0  0  0  0  0  0  0  0  0  0  0  0
  -31.7779    2.5431   -8.1756 C   0  0  2  0  0  0  0  0  0  0  0  0
  -26.7796    4.3320  -12.1921 N   0  0  0  0  0  0  0  0  0  0  0  0
  -33.6965    1.1867   -7.8202 O   0  0  0  0  0  0  0  0  0  0  0  0
  -33.1843    2.5295   -7.7924 C   0  0  2  0  0  0  0  0  0  0  0  0
  -28.8444    3.3967  -11.1841 C   0  0  0  0  0  0  0  0  0  0  0  0
  -29.7480    1.0961  -11.4172 N   0  0  0  0  0  0  0  0  0  0  0  0
  -34.6978    4.9335   -7.5934 O   0  0  0  0  0  0  0  0  0  0  0  0
  -33.8292    4.7328   -8.6607 C   0  0  0  0  0  0  0  0  0  0  0  0
  -35.4239    7.2085   -8.1867 O   0  0  0  0  0  0  0  0  0  0  0  0
  -30.3720    4.2554   -9.9020 C   0  0  0  0  0  0  0  0  0  0  0  0
  -27.3892    2.1704  -12.5683 O   0  0  0  0  0  0  0  0  0  0  0  0
  -27.6372    3.2426  -12.0170 C   0  0  0  0  0  0  0  0  0  0  0  0
  -29.7752    2.4272  -10.9415 C   0  0  0  0  0  0  0  0  0  0  0  0
  -35.7164    6.3270   -5.7816 O   0  5  0  0  0  0  0  0  0  0  0  0
  -33.5633    6.8263   -6.4105 O   0  0  0  0  0  0  0  0  0  0  0  0
  1 17  1  0  0  0  0
  1 20  1  0  0  0  0
  2 15  1  1  0  0  0
  2  3  1  0  0  0  0
  2 11  1  0  0  0  0
  3  5  1  0  0  0  0
  4 16  1  6  0  0  0
  4 21  1  0  0  0  0
  4 22  2  0  0  0  0
  4 14  1  0  0  0  0
  5  1  1  6  0  0  0
  5  8  1  0  0  0  0
  6 17  2  0  0  0  0
  6 12  1  0  0  0  0
  8  7  1  1  0  0  0
  8 11  1  0  0  0  0
  9 19  1  0  0  0  0
 11 10  1  6  0  0  0
 12 20  2  0  0  0  0
 12 19  1  0  0  0  0
 13 20  1  0  0  0  0
 14 15  1  0  0  0  0
 18 19  2  0  0  0  0
M  CHG  1  21  -1
M  END
>  <CHROM.1>
60.43407592,176.14494049,62.96695896,174.85727309,-0.78773465,-31.95486960
3.87275635,-9.09203344,0.36578236,-0.61231063,3.13031936

>  <Name>
ligand

>  <RI>
0

>  <Rbt.Current_Directory>
/home/itssahil/PROJECTS/Mol_Feturizer/New_Systems/rnas/4XWF

>  <Rbt.Executable>
rbdock ($Id: //depot/dev/client3/rdock/2013.1/src/exe/rbdock.cxx#4 $)

>  <Rbt.Library>
libRbt.so (2013.1, Build901 2013/11/27)

>  <Rbt.Parameter_File>
/export/apps/rDock/src/rDock_2013.1_src/data/scripts/dock_solv.prm

>  <Rbt.Receptor>
prm/pocket_docking_7.prm

>  <SCORE>
-9.78634

>  <SCORE.INTER>
-8.81831

>  <SCORE.INTER.CONST>
1

>  <SCORE.INTER.POLAR>
0

>  <SCORE.INTER.ROT>
5

>  <SCORE.INTER.SOLV>
9.31893

>  <SCORE.INTER.VDW>
-15.9185

>  <SCORE.INTER.norm>
-0.400832

>  <SCORE.INTRA>
-0.968039

>  <SCORE.INTRA.DIHEDRAL>
-1.79682

>  <SCORE.INTRA.DIHEDRAL.0>
3.49807

>  <SCORE.INTRA.POLAR>
0

>  <SCORE.INTRA.POLAR.0>
0

>  <SCORE.INTRA.REPUL>
0

>  <SCORE.INTRA.REPUL.0>
0

>  <SCORE.INTRA.SOLV>
-0.747185

>  <SCORE.INTRA.SOLV.lig_0>
-73.062

>  <SCORE.INTRA.VDW>
0.303963

>  <SCORE.INTRA.VDW.0>
-1.83782

>  <SCORE.INTRA.norm>
-0.0440018

>  <SCORE.RESTR>
0

>  <SCORE.RESTR.CAVITY>
0

>  <SCORE.RESTR.norm>
0

>  <SCORE.SYSTEM>
0

>  <SCORE.SYSTEM.CONST>
0

>  <SCORE.SYSTEM.DIHEDRAL>
0

>  <SCORE.SYSTEM.SOLV>
0

>  <SCORE.SYSTEM.norm>
0

>  <SCORE.heavy>
22

>  <SCORE.norm>
-0.444834

>  <RMSD>
7.169

$$$$
ligand
 OpenBabel11021811513D
libRbt.so/2013.1/901 2013/11/27
 22 23  0  0  0  0  0  0  0  0999 V2000
  -31.3961    5.9126   -8.3372 N   0  0  0  0  0  0  0  0  0  0  0  0
  -32.4642    2.7277   -8.7470 C   0  0  1  0  0  0  0  0  0  0  0  0
  -31.5501    3.6282   -8.0590 O   0  0  0  0  0  0  0  0  0  0  0  0
  -29.7734    1.5632  -11.1423 P   0  0  1  0  0  0  0  0  0  0  0  0
  -32.2119    4.8926   -7.8931 C   0  0  2  0  0  0  0  0  0  0  0  0
  -29.8182    6.9692   -9.3883 N   0  0  0  0  0  0  0  0  0  0  0  0
  -34.3873    5.7399   -8.3889 O   0  0  0  0  0  0  0  0  0  0  0  0
  -33.3611    4.8405   -8.8245 C   0  0  2  0  0  0  0  0  0  0  0  0
  -31.2766   10.1893   -9.2029 N   0  0  0  0  0  0  0  0  0  0  0  0
  -34.4528    3.1386   -7.5760 O   0  0  0  0  0  0  0  0  0  0  0  0
  -33.7604    3.4387   -8.7995 C   0  0  2  0  0  0  0  0  0  0  0  0
  -30.5465    7.8700   -8.7111 C   0  0  0  0  0  0  0  0  0  0  0  0
  -32.5443    7.7971   -7.2390 N   0  0  0  0  0  0  0  0  0  0  0  0
  -30.7074    1.8317   -9.9118 O   0  0  0  0  0  0  0  0  0  0  0  0
  -31.9105    2.4999  -10.1114 C   0  0  0  0  0  0  0  0  0  0  0  0
  -29.2481    2.9972  -11.5140 O   0  0  0  0  0  0  0  0  0  0  0  0
  -30.3447    5.7530   -9.1493 C   0  0  0  0  0  0  0  0  0  0  0  0
  -29.2615    9.7803   -8.2242 O   0  0  0  0  0  0  0  0  0  0  0  0
  -30.3085    9.3251   -8.6844 C   0  0  0  0  0  0  0  0  0  0  0  0
  -31.5439    7.2126   -8.0491 C   0  0  0  0  0  0  0  0  0  0  0  0
  -28.7063    0.5918  -10.7605 O   0  5  0  0  0  0  0  0  0  0  0  0
  -30.4916    0.8155  -12.1901 O   0  0  0  0  0  0  0  0  0  0  0  0
  1 17  1  0  0  0  0
  1 20  1  0  0  0  0
  2 15  1  6  0  0  0
  2  3  1  0  0  0  0
  2 11  1  0  0  0  0
  3  5  1  0  0  0  0
  4 16  1  6  0  0  0
  4 21  1  0  0  0  0
  4 22  2  0  0  0  0
  4 14  1  0  0  0  0
  5  1  1  6  0  0  0
  5  8  1  0  0  0  0
  6 17  2  0  0  0  0
  6 12  1  0  0  0  0
  8  7  1  1  0  0  0
  8 11  1  0  0  0  0
  9 19  1  0  0  0  0
 11 10  1  1  0  0  0
 12 20  2  0  0  0  0
 12 19  1  0  0  0  0
 13 20  1  0  0  0  0
 14 15  1  0  0  0  0
 18 19  2  0  0  0  0
M  CHG  1  21  -1
M  END
>  <CHROM.1>
18.32401345,64.89113581,69.79680363,-173.60094991,116.61945898,-31.26913699
4.68322210,-9.27580060,1.69241850,0.48571554,0.27925174

>  <Name>
ligand

>  <RI>
0

>  <Rbt.Current_Directory>
/home/itssahil/PROJECTS/Mol_Feturizer/New_Systems/rnas/4XWF

>  <Rbt.Executable>
rbdock ($Id: //depot/dev/client3/rdock/2013.1/src/exe/rbdock.cxx#4 $)

>  <Rbt.Library>
libRbt.so (2013.1, Build901 2013/11/27)

>  <Rbt.Parameter_File>
/export/apps/rDock/src/rDock_2013.1_src/data/scripts/dock_solv.prm

>  <Rbt.Receptor>
prm/pocket_docking_7.prm

>  <SCORE>
-7.23574

>  <SCORE.INTER>
-6.1789

>  <SCORE.INTER.CONST>
1

>  <SCORE.INTER.POLAR>
0

>  <SCORE.INTER.ROT>
5

>  <SCORE.INTER.SOLV>
12.6393

>  <SCORE.INTER.VDW>
-15.2657

>  <SCORE.INTER.norm>
-0.280859

>  <SCORE.INTRA>
-1.05684

>  <SCORE.INTRA.DIHEDRAL>
-1.5933

>  <SCORE.INTRA.DIHEDRAL.0>
3.49807

>  <SCORE.INTRA.POLAR>
0

>  <SCORE.INTRA.POLAR.0>
0

>  <SCORE.INTRA.REPUL>
0

>  <SCORE.INTRA.REPUL.0>
0

>  <SCORE.INTRA.SOLV>
0.539502

>  <SCORE.INTRA.SOLV.lig_0>
-73.062

>  <SCORE.INTRA.VDW>
-0.529937

>  <SCORE.INTRA.VDW.0>
-1.83782

>  <SCORE.INTRA.norm>
-0.0480381

>  <SCORE.RESTR>
0

>  <SCORE.RESTR.CAVITY>
0

>  <SCORE.RESTR.norm>
0

>  <SCORE.SYSTEM>
0

>  <SCORE.SYSTEM.CONST>
0

>  <SCORE.SYSTEM.DIHEDRAL>
0

>  <SCORE.SYSTEM.SOLV>
0

>  <SCORE.SYSTEM.norm>
0

>  <SCORE.heavy>
22

>  <SCORE.norm>
-0.328897

>  <RMSD>
7.172

$$$$
ligand
 OpenBabel11021811513D
libRbt.so/2013.1/901 2013/11/27
 22 23  0  0  0  0  0  0  0  0999 V2000
  -30.4805    4.2181   -9.5561 N   0  0  0  0  0  0  0  0  0  0  0  0
  -33.6693    3.1727   -9.1184 C   0  0  1  0  0  0  0  0  0  0  0  0
  -32.7495    3.9872   -9.8997 O   0  0  0  0  0  0  0  0  0  0  0  0
  -34.8848    6.2047   -7.1997 P   0  0  1  0  0  0  0  0  0  0  0  0
  -31.4728    3.3284   -9.9125 C   0  0  2  0  0  0  0  0  0  0  0  0
  -29.4825    5.9445   -8.6990 N   0  0  0  0  0  0  0  0  0  0  0  0
  -30.6259    1.2664   -9.0600 O   0  0  0  0  0  0  0  0  0  0  0  0
  -31.5529    2.3319   -8.8210 C   0  0  2  0  0  0  0  0  0  0  0  0
  -26.4370    5.5126  -10.4991 N   0  0  0  0  0  0  0  0  0  0  0  0
  -33.1897    1.0374   -9.9578 O   0  0  0  0  0  0  0  0  0  0  0  0
  -32.9484    1.9109   -8.8420 C   0  0  2  0  0  0  0  0  0  0  0  0
  -28.5501    5.1525   -9.2504 C   0  0  0  0  0  0  0  0  0  0  0  0
  -28.5457    2.9755  -10.4439 N   0  0  0  0  0  0  0  0  0  0  0  0
  -34.5255    5.1233   -8.2767 O   0  0  0  0  0  0  0  0  0  0  0  0
  -33.9600    3.9219   -7.8636 C   0  0  0  0  0  0  0  0  0  0  0  0
  -35.4174    7.4065   -8.0615 O   0  0  0  0  0  0  0  0  0  0  0  0
  -30.6818    5.3645   -8.8958 C   0  0  0  0  0  0  0  0  0  0  0  0
  -26.4688    5.5374   -8.2222 O   0  0  0  0  0  0  0  0  0  0  0  0
  -27.0995    5.4165   -9.2723 C   0  0  0  0  0  0  0  0  0  0  0  0
  -29.1706    4.0617   -9.7894 C   0  0  0  0  0  0  0  0  0  0  0  0
  -35.8781    5.6442   -6.2368 O   0  5  0  0  0  0  0  0  0  0  0  0
  -33.7335    6.4658   -6.3172 O   0  0  0  0  0  0  0  0  0  0  0  0
  1 17  1  0  0  0  0
  1 20  1  0  0  0  0
  2 15  1  1  0  0  0
  2  3  1  0  0  0  0
  2 11  1  0  0  0  0
  3  5  1  0  0  0  0
  4 16  1  6  0  0  0
  4 21  1  0  0  0  0
  4 22  2  0  0  0  0
  4 14  1  0  0  0  0
  5  1  1  1  0  0  0
  5  8  1  0  0  0  0
  6 17  2  0  0  0  0
  6 12  1  0  0  0  0
  8  7  1  6  0  0  0
  8 11  1  0  0  0  0
  9 19  1  0  0  0  0
 11 10  1  6  0  0  0
 12 20  2  0  0  0  0
 12 19  1  0  0  0  0
 13 20  1  0  0  0  0
 14 15  1  0  0  0  0
 18 19  2  0  0  0  0
M  CHG  1  21  -1
M  END
>  <CHROM.1>
19.72489116,59.83786866,177.28269751,-176.56336240,-120.83685456,-31.72867207
4.47204445,-8.69966529,0.23712971,-0.21990165,-2.76372305

>  <Name>
ligand

>  <RI>
0

>  <Rbt.Current_Directory>
/home/itssahil/PROJECTS/Mol_Feturizer/New_Systems/rnas/4XWF

>  <Rbt.Executable>
rbdock ($Id: //depot/dev/client3/rdock/2013.1/src/exe/rbdock.cxx#4 $)

>  <Rbt.Library>
libRbt.so (2013.1, Build901 2013/11/27)

>  <Rbt.Parameter_File>
/export/apps/rDock/src/rDock_2013.1_src/data/scripts/dock_solv.prm

>  <Rbt.Receptor>
prm/pocket_docking_7.prm

>  <SCORE>
-8.70965

>  <SCORE.INTER>
-7.92299

>  <SCORE.INTER.CONST>
1

>  <SCORE.INTER.POLAR>
0

>  <SCORE.INTER.ROT>
5

>  <SCORE.INTER.SOLV>
8.49563

>  <SCORE.INTER.VDW>
-15.0472

>  <SCORE.INTER.norm>
-0.360136

>  <SCORE.INTRA>
-0.786665

>  <SCORE.INTRA.DIHEDRAL>
-1.92919

>  <SCORE.INTRA.DIHEDRAL.0>
3.49807

>  <SCORE.INTRA.POLAR>
0

>  <SCORE.INTRA.POLAR.0>
0

>  <SCORE.INTRA.REPUL>
0

>  <SCORE.INTRA.REPUL.0>
0

>  <SCORE.INTRA.SOLV>
1.16995

>  <SCORE.INTRA.SOLV.lig_0>
-73.062

>  <SCORE.INTRA.VDW>
-0.407042

>  <SCORE.INTRA.VDW.0>
-1.83782

>  <SCORE.INTRA.norm>
-0.0357575

>  <SCORE.RESTR>
0

>  <SCORE.RESTR.CAVITY>
0

>  <SCORE.RESTR.norm>
0

>  <SCORE.SYSTEM>
0

>  <SCORE.SYSTEM.CONST>
0

>  <SCORE.SYSTEM.DIHEDRAL>
0

>  <SCORE.SYSTEM.SOLV>
0

>  <SCORE.SYSTEM.norm>
0

>  <SCORE.heavy>
22

>  <SCORE.norm>
-0.395893

>  <RMSD>
7.188

$$$$
ligand
 OpenBabel11021811513D
libRbt.so/2013.1/901 2013/11/27
 22 23  0  0  0  0  0  0  0  0999 V2000
  -30.7021    2.9989  -10.1269 N   0  0  0  0  0  0  0  0  0  0  0  0
  -33.8453    3.2622   -8.9006 C   0  0  1  0  0  0  0  0  0  0  0  0
  -33.0077    3.0228  -10.0672 O   0  0  0  0  0  0  0  0  0  0  0  0
  -34.8514    6.3603   -6.9695 P   0  0  1  0  0  0  0  0  0  0  0  0
  -31.8146    2.3531   -9.6284 C   0  0  2  0  0  0  0  0  0  0  0  0
  -29.2120    4.5339  -10.4936 N   0  0  0  0  0  0  0  0  0  0  0  0
  -31.0152    1.5188   -7.5402 O   0  0  0  0  0  0  0  0  0  0  0  0
  -31.7906    2.5504   -8.1617 C   0  0  2  0  0  0  0  0  0  0  0  0
  -27.7708    3.0467  -13.3586 N   0  0  0  0  0  0  0  0  0  0  0  0
  -33.7059    1.1849   -7.8236 O   0  0  0  0  0  0  0  0  0  0  0  0
  -33.1998    2.5299   -7.7891 C   0  0  2  0  0  0  0  0  0  0  0  0
  -28.8430    3.4254  -11.1538 C   0  0  0  0  0  0  0  0  0  0  0  0
  -29.7484    1.1291  -11.4192 N   0  0  0  0  0  0  0  0  0  0  0  0
  -34.7115    4.9250   -7.5850 O   0  0  0  0  0  0  0  0  0  0  0  0
  -33.8478    4.7322   -8.6576 C   0  0  0  0  0  0  0  0  0  0  0  0
  -35.4419    7.2041   -8.1568 O   0  0  0  0  0  0  0  0  0  0  0  0
  -30.3708    4.2679   -9.8613 C   0  0  0  0  0  0  0  0  0  0  0  0
  -26.5143    3.3521  -11.4841 O   0  0  0  0  0  0  0  0  0  0  0  0
  -27.6352    3.2817  -11.9877 C   0  0  0  0  0  0  0  0  0  0  0  0
  -29.7748    2.4535  -10.9253 C   0  0  0  0  0  0  0  0  0  0  0  0
  -35.7197    6.3044   -5.7567 O   0  5  0  0  0  0  0  0  0  0  0  0
  -33.5705    6.8093   -6.3947 O   0  0  0  0  0  0  0  0  0  0  0  0
  1 17  1  0  0  0  0
  1 20  1  0  0  0  0
  2 15  1  1  0  0  0
  2  3  1  0  0  0  0
  2 11  1  0  0  0  0
  3  5  1  0  0  0  0
  4 16  1  6  0  0  0
  4 21  1  0  0  0  0
  4 22  2  0  0  0  0
  4 14  1  0  0  0  0
  5  1  1  6  0  0  0
  5  8  1  0  0  0  0
  6 17  2  0  0  0  0
  6 12  1  0  0  0  0
  8  7  1  1  0  0  0
  8 11  1  0  0  0  0
  9 19  1  0  0  0  0
 11 10  1  6  0  0  0
 12 20  2  0  0  0  0
 12 19  1  0  0  0  0
 13 20  1  0  0  0  0
 14 15  1  0  0  0  0
 18 19  2  0  0  0  0
M  CHG  1  21  -1
M  END
>  <CHROM.1>
61.26021792,176.91802889,63.05860237,174.34928329,-115.80665396,-31.96075116
3.87989854,-9.07386244,0.35390215,-0.61245217,3.12310314

>  <Name>
ligand

>  <RI>
0

>  <Rbt.Current_Directory>
/home/itssahil/PROJECTS/Mol_Feturizer/New_Systems/rnas/4XWF

>  <Rbt.Executable>
rbdock ($Id: //depot/dev/client3/rdock/2013.1/src/exe/rbdock.cxx#4 $)

>  <Rbt.Library>
libRbt.so (2013.1, Build901 2013/11/27)

>  <Rbt.Parameter_File>
/export/apps/rDock/src/rDock_2013.1_src/data/scripts/dock_solv.prm

>  <Rbt.Receptor>
prm/pocket_docking_8.prm

>  <SCORE>
-9.93466

>  <SCORE.INTER>
-8.85454

>  <SCORE.INTER.CONST>
1

>  <SCORE.INTER.POLAR>
0

>  <SCORE.INTER.ROT>
5

>  <SCORE.INTER.SOLV>
9.51585

>  <SCORE.INTER.VDW>
-16.0083

>  <SCORE.INTER.norm>
-0.402479

>  <SCORE.INTRA>
-1.08012

>  <SCORE.INTRA.DIHEDRAL>
-1.76107

>  <SCORE.INTRA.DIHEDRAL.0>
3.49807

>  <SCORE.INTRA.POLAR>
0

>  <SCORE.INTRA.POLAR.0>
0

>  <SCORE.INTRA.REPUL>
0

>  <SCORE.INTRA.REPUL.0>
0

>  <SCORE.INTRA.SOLV>
-0.710948

>  <SCORE.INTRA.SOLV.lig_0>
-73.062

>  <SCORE.INTRA.VDW>
0.15589

>  <SCORE.INTRA.VDW.0>
-1.83782

>  <SCORE.INTRA.norm>
-0.0490964

>  <SCORE.RESTR>
0

>  <SCORE.RESTR.CAVITY>
0

>  <SCORE.RESTR.norm>
0

>  <SCORE.SYSTEM>
0

>  <SCORE.SYSTEM.CONST>
0

>  <SCORE.SYSTEM.DIHEDRAL>
0

>  <SCORE.SYSTEM.SOLV>
0

>  <SCORE.SYSTEM.norm>
0

>  <SCORE.heavy>
22

>  <SCORE.norm>
-0.451575

>  <RMSD>
7.191

$$$$
ligand
 OpenBabel11021811513D
libRbt.so/2013.1/901 2013/11/27
 22 23  0  0  0  0  0  0  0  0999 V2000
  -30.7089    3.0121  -10.1157 N   0  0  0  0  0  0  0  0  0  0  0  0
  -33.8509    3.2879   -8.8893 C   0  0  1  0  0  0  0  0  0  0  0  0
  -33.0143    3.0494  -10.0568 O   0  0  0  0  0  0  0  0  0  0  0  0
  -34.8409    6.3861   -6.9475 P   0  0  1  0  0  0  0  0  0  0  0  0
  -31.8254    2.3705   -9.6209 C   0  0  2  0  0  0  0  0  0  0  0  0
  -29.2137    4.5428  -10.4800 N   0  0  0  0  0  0  0  0  0  0  0  0
  -31.0319    1.5206   -7.5367 O   0  0  0  0  0  0  0  0  0  0  0  0
  -31.8009    2.5601   -8.1532 C   0  0  2  0  0  0  0  0  0  0  0  0
  -26.6427    2.3726  -11.5723 N   0  0  0  0  0  0  0  0  0  0  0  0
  -33.7244    1.2043   -7.8230 O   0  0  0  0  0  0  0  0  0  0  0  0
  -33.2104    2.5461   -7.7814 C   0  0  2  0  0  0  0  0  0  0  0  0
  -28.8430    3.4310  -11.1335 C   0  0  0  0  0  0  0  0  0  0  0  0
  -29.7513    1.1353  -11.3948 N   0  0  0  0  0  0  0  0  0  0  0  0
  -34.6872    4.9461   -7.5487 O   0  0  0  0  0  0  0  0  0  0  0  0
  -33.8448    4.7567   -8.6388 C   0  0  0  0  0  0  0  0  0  0  0  0
  -35.4408    7.2120   -8.1427 O   0  0  0  0  0  0  0  0  0  0  0  0
  -30.3767    4.2815   -9.8533 C   0  0  0  0  0  0  0  0  0  0  0  0
  -27.4776    3.9598  -12.9756 O   0  0  0  0  0  0  0  0  0  0  0  0
  -27.6308    3.2816  -11.9599 C   0  0  0  0  0  0  0  0  0  0  0  0
  -29.7780    2.4617  -10.9064 C   0  0  0  0  0  0  0  0  0  0  0  0
  -35.7077    6.3336   -5.7335 O   0  5  0  0  0  0  0  0  0  0  0  0
  -33.5642    6.8536   -6.3783 O   0  0  0  0  0  0  0  0  0  0  0  0
  1 17  1  0  0  0  0
  1 20  1  0  0  0  0
  2 15  1  1  0  0  0
  2  3  1  0  0  0  0
  2 11  1  0  0  0  0
  3  5  1  0  0  0  0
  4 16  1  6  0  0  0
  4 21  1  0  0  0  0
  4 22  2  0  0  0  0
  4 14  1  0  0  0  0
  5  1  1  6  0  0  0
  5  8  1  0  0  0  0
  6 17  2  0  0  0  0
  6 12  1  0  0  0  0
  8  7  1  1  0  0  0
  8 11  1  0  0  0  0
  9 19  1  0  0  0  0
 11 10  1  6  0  0  0
 12 20  2  0  0  0  0
 12 19  1  0  0  0  0
 13 20  1  0  0  0  0
 14 15  1  0  0  0  0
 18 19  2  0  0  0  0
M  CHG  1  21  -1
M  END
>  <CHROM.1>
60.60781121,178.06103687,61.66154329,175.97961597,116.19725761,-31.96050678
3.89644888,-9.05619350,0.33417980,-0.62200680,3.08175670

>  <Name>
ligand

>  <RI>
0

>  <Rbt.Current_Directory>
/home/itssahil/PROJECTS/Mol_Feturizer/New_Systems/rnas/4XWF

>  <Rbt.Executable>
rbdock ($Id: //depot/dev/client3/rdock/2013.1/src/exe/rbdock.cxx#4 $)

>  <Rbt.Library>
libRbt.so (2013.1, Build901 2013/11/27)

>  <Rbt.Parameter_File>
/export/apps/rDock/src/rDock_2013.1_src/data/scripts/dock_solv.prm

>  <Rbt.Receptor>
prm/pocket_docking_6.prm

>  <SCORE>
-9.93687

>  <SCORE.INTER>
-8.80145

>  <SCORE.INTER.CONST>
1

>  <SCORE.INTER.POLAR>
0

>  <SCORE.INTER.ROT>
5

>  <SCORE.INTER.SOLV>
9.22497

>  <SCORE.INTER.VDW>
-15.876

>  <SCORE.INTER.norm>
-0.400066

>  <SCORE.INTRA>
-1.13542

>  <SCORE.INTRA.DIHEDRAL>
-1.87482

>  <SCORE.INTRA.DIHEDRAL.0>
3.49807

>  <SCORE.INTRA.POLAR>
0

>  <SCORE.INTRA.POLAR.0>
0

>  <SCORE.INTRA.REPUL>
0

>  <SCORE.INTRA.REPUL.0>
0

>  <SCORE.INTRA.SOLV>
-0.735763

>  <SCORE.INTRA.SOLV.lig_0>
-73.062

>  <SCORE.INTRA.VDW>
0.169868

>  <SCORE.INTRA.VDW.0>
-1.83782

>  <SCORE.INTRA.norm>
-0.0516101

>  <SCORE.RESTR>
0

>  <SCORE.RESTR.CAVITY>
0

>  <SCORE.RESTR.norm>
0

>  <SCORE.SYSTEM>
0

>  <SCORE.SYSTEM.CONST>
0

>  <SCORE.SYSTEM.DIHEDRAL>
0

>  <SCORE.SYSTEM.SOLV>
0

>  <SCORE.SYSTEM.norm>
0

>  <SCORE.heavy>
22

>  <SCORE.norm>
-0.451676

>  <RMSD>
7.196

$$$$
ligand
 OpenBabel11021811513D
libRbt.so/2013.1/901 2013/11/27
 22 23  0  0  0  0  0  0  0  0999 V2000
  -30.3125    4.1062   -9.4857 N   0  0  0  0  0  0  0  0  0  0  0  0
  -33.5049    2.9892   -9.3715 C   0  0  1  0  0  0  0  0  0  0  0  0
  -32.5482    3.8838  -10.0072 O   0  0  0  0  0  0  0  0  0  0  0  0
  -35.0038    5.7657   -7.2730 P   0  0  1  0  0  0  0  0  0  0  0  0
  -31.2622    3.2432   -9.9921 C   0  0  2  0  0  0  0  0  0  0  0  0
  -29.4000    5.7266   -8.3664 N   0  0  0  0  0  0  0  0  0  0  0  0
  -30.4397    1.1195   -9.2784 O   0  0  0  0  0  0  0  0  0  0  0  0
  -31.3995    2.1475   -9.0065 C   0  0  2  0  0  0  0  0  0  0  0  0
  -26.1081    4.4537   -8.3447 N   0  0  0  0  0  0  0  0  0  0  0  0
  -32.9315    0.9478  -10.3707 O   0  0  0  0  0  0  0  0  0  0  0  0
  -32.7827    1.7149   -9.1642 C   0  0  2  0  0  0  0  0  0  0  0  0
  -28.4260    5.0519   -8.9961 C   0  0  0  0  0  0  0  0  0  0  0  0
  -28.3121    3.0666  -10.4825 N   0  0  0  0  0  0  0  0  0  0  0  0
  -34.4717    4.8321   -8.4149 O   0  0  0  0  0  0  0  0  0  0  0  0
  -33.8941    3.6135   -8.0758 C   0  0  0  0  0  0  0  0  0  0  0  0
  -35.5503    7.0144   -8.0556 O   0  0  0  0  0  0  0  0  0  0  0  0
  -30.5719    5.1405   -8.6773 C   0  0  0  0  0  0  0  0  0  0  0  0
  -26.5563    6.4240   -9.3948 O   0  0  0  0  0  0  0  0  0  0  0  0
  -26.9860    5.3646   -8.9387 C   0  0  0  0  0  0  0  0  0  0  0  0
  -28.9924    4.0281   -9.7006 C   0  0  0  0  0  0  0  0  0  0  0  0
  -36.0306    5.0401   -6.4685 O   0  5  0  0  0  0  0  0  0  0  0  0
  -33.9559    6.0071   -6.2649 O   0  0  0  0  0  0  0  0  0  0  0  0
  1 17  1  0  0  0  0
  1 20  1  0  0  0  0
  2 15  1  1  0  0  0
  2  3  1  0  0  0  0
  2 11  1  0  0  0  0
  3  5  1  0  0  0  0
  4 16  1  6  0  0  0
  4 21  1  0  0  0  0
  4 22  2  0  0  0  0
  4 14  1  0  0  0  0
  5  1  1  1  0  0  0
  5  8  1  0  0  0  0
  6 17  2  0  0  0  0
  6 12  1  0  0  0  0
  8  7  1  6  0  0  0
  8 11  1  0  0  0  0
  9 19  1  0  0  0  0
 11 10  1  6  0  0  0
 12 20  2  0  0  0  0
 12 19  1  0  0  0  0
 13 20  1  0  0  0  0
 14 15  1  0  0  0  0
 18 19  2  0  0  0  0
M  CHG  1  21  -1
M  END
>  <CHROM.1>
23.56950209,60.82575603,179.40897158,179.97551795,114.85894335,-31.65075943
4.26342548,-8.71705639,0.17965402,-0.17523299,-2.71291071

>  <Name>
ligand

>  <RI>
0

>  <Rbt.Current_Directory>
/home/itssahil/PROJECTS/Mol_Feturizer/New_Systems/rnas/4XWF

>  <Rbt.Executable>
rbdock ($Id: //depot/dev/client3/rdock/2013.1/src/exe/rbdock.cxx#4 $)

>  <Rbt.Library>
libRbt.so (2013.1, Build901 2013/11/27)

>  <Rbt.Parameter_File>
/export/apps/rDock/src/rDock_2013.1_src/data/scripts/dock_solv.prm

>  <Rbt.Receptor>
prm/pocket_docking_5.prm

>  <SCORE>
-8.18685

>  <SCORE.INTER>
-7.2261

>  <SCORE.INTER.CONST>
1

>  <SCORE.INTER.POLAR>
0

>  <SCORE.INTER.ROT>
5

>  <SCORE.INTER.SOLV>
9.7252

>  <SCORE.INTER.VDW>
-14.9925

>  <SCORE.INTER.norm>
-0.328459

>  <SCORE.INTRA>
-0.960749

>  <SCORE.INTRA.DIHEDRAL>
-1.98273

>  <SCORE.INTRA.DIHEDRAL.0>
3.49807

>  <SCORE.INTRA.POLAR>
0

>  <SCORE.INTRA.POLAR.0>
0

>  <SCORE.INTRA.REPUL>
0

>  <SCORE.INTRA.REPUL.0>
0

>  <SCORE.INTRA.SOLV>
0.951285

>  <SCORE.INTRA.SOLV.lig_0>
-73.062

>  <SCORE.INTRA.VDW>
-0.445025

>  <SCORE.INTRA.VDW.0>
-1.83782

>  <SCORE.INTRA.norm>
-0.0436704

>  <SCORE.RESTR>
0

>  <SCORE.RESTR.CAVITY>
0

>  <SCORE.RESTR.norm>
0

>  <SCORE.SYSTEM>
0

>  <SCORE.SYSTEM.CONST>
0

>  <SCORE.SYSTEM.DIHEDRAL>
0

>  <SCORE.SYSTEM.SOLV>
0

>  <SCORE.SYSTEM.norm>
0

>  <SCORE.heavy>
22

>  <SCORE.norm>
-0.37213

>  <RMSD>
7.203

$$$$
ligand
 OpenBabel11021811513D
libRbt.so/2013.1/901 2013/11/27
 22 23  0  0  0  0  0  0  0  0999 V2000
  -30.5768    4.3007   -9.6064 N   0  0  0  0  0  0  0  0  0  0  0  0
  -33.7163    3.1506   -9.0839 C   0  0  1  0  0  0  0  0  0  0  0  0
  -32.8442    3.9899   -9.8931 O   0  0  0  0  0  0  0  0  0  0  0  0
  -34.9088    6.1881   -7.1597 P   0  0  1  0  0  0  0  0  0  0  0  0
  -31.5463    3.3749   -9.9324 C   0  0  2  0  0  0  0  0  0  0  0  0
  -29.6160    6.0613   -8.7768 N   0  0  0  0  0  0  0  0  0  0  0  0
  -30.6089    1.3497   -9.0865 O   0  0  0  0  0  0  0  0  0  0  0  0
  -31.5658    2.3848   -8.8324 C   0  0  2  0  0  0  0  0  0  0  0  0
  -26.3113    4.7685   -8.8312 N   0  0  0  0  0  0  0  0  0  0  0  0
  -33.1842    1.0263   -9.9199 O   0  0  0  0  0  0  0  0  0  0  0  0
  -32.9461    1.9162   -8.8164 C   0  0  2  0  0  0  0  0  0  0  0  0
  -28.6738    5.3069   -9.3631 C   0  0  0  0  0  0  0  0  0  0  0  0
  -28.6280    3.1352  -10.5652 N   0  0  0  0  0  0  0  0  0  0  0  0
  -34.5615    5.1042   -8.2382 O   0  0  0  0  0  0  0  0  0  0  0  0
  -34.0022    3.8990   -7.8277 C   0  0  0  0  0  0  0  0  0  0  0  0
  -35.3963    7.4088   -8.0215 O   0  0  0  0  0  0  0  0  0  0  0  0
  -30.7985    5.4366   -8.9349 C   0  0  0  0  0  0  0  0  0  0  0  0
  -26.8476    6.6453  -10.0041 O   0  0  0  0  0  0  0  0  0  0  0  0
  -27.2358    5.6260   -9.4337 C   0  0  0  0  0  0  0  0  0  0  0  0
  -29.2707    4.1949   -9.8852 C   0  0  0  0  0  0  0  0  0  0  0  0
  -35.9311    5.6479   -6.2158 O   0  5  0  0  0  0  0  0  0  0  0  0
  -33.7647    6.4132   -6.2580 O   0  0  0  0  0  0  0  0  0  0  0  0
  1 17  1  0  0  0  0
  1 20  1  0  0  0  0
  2 15  1  1  0  0  0
  2  3  1  0  0  0  0
  2 11  1  0  0  0  0
  3  5  1  0  0  0  0
  4 16  1  6  0  0  0
  4 21  1  0  0  0  0
  4 22  2  0  0  0  0
  4 14  1  0  0  0  0
  5  1  1  1  0  0  0
  5  8  1  0  0  0  0
  6 17  2  0  0  0  0
  6 12  1  0  0  0  0
  8  7  1  6  0  0  0
  8 11  1  0  0  0  0
  9 19  1  0  0  0  0
 11 10  1  6  0  0  0
 12 20  2  0  0  0  0
 12 19  1  0  0  0  0
 13 20  1  0  0  0  0
 14 15  1  0  0  0  0
 18 19  2  0  0  0  0
M  CHG  1  21  -1
M  END
>  <CHROM.1>
20.60225959,57.14458687,175.64600871,-176.31325710,118.19338850,-31.78998228
4.53144749,-8.72583516,0.20777816,-0.25922963,-2.80835975

>  <Name>
ligand

>  <RI>
0

>  <Rbt.Current_Directory>
/home/itssahil/PROJECTS/Mol_Feturizer/New_Systems/rnas/4XWF

>  <Rbt.Executable>
rbdock ($Id: //depot/dev/client3/rdock/2013.1/src/exe/rbdock.cxx#4 $)

>  <Rbt.Library>
libRbt.so (2013.1, Build901 2013/11/27)

>  <Rbt.Parameter_File>
/export/apps/rDock/src/rDock_2013.1_src/data/scripts/dock_solv.prm

>  <Rbt.Receptor>
prm/pocket_docking_7.prm

>  <SCORE>
-8.73572

>  <SCORE.INTER>
-7.96579

>  <SCORE.INTER.CONST>
1

>  <SCORE.INTER.POLAR>
0

>  <SCORE.INTER.ROT>
5

>  <SCORE.INTER.SOLV>
9.3957

>  <SCORE.INTER.VDW>
-15.3758

>  <SCORE.INTER.norm>
-0.362081

>  <SCORE.INTRA>
-0.769931

>  <SCORE.INTRA.DIHEDRAL>
-1.87013

>  <SCORE.INTRA.DIHEDRAL.0>
3.49807

>  <SCORE.INTRA.POLAR>
0

>  <SCORE.INTRA.POLAR.0>
0

>  <SCORE.INTRA.REPUL>
0

>  <SCORE.INTRA.REPUL.0>
0

>  <SCORE.INTRA.SOLV>
1.11711

>  <SCORE.INTRA.SOLV.lig_0>
-73.062

>  <SCORE.INTRA.VDW>
-0.39342

>  <SCORE.INTRA.VDW.0>
-1.83782

>  <SCORE.INTRA.norm>
-0.0349969

>  <SCORE.RESTR>
0

>  <SCORE.RESTR.CAVITY>
0

>  <SCORE.RESTR.norm>
0

>  <SCORE.SYSTEM>
0

>  <SCORE.SYSTEM.CONST>
0

>  <SCORE.SYSTEM.DIHEDRAL>
0

>  <SCORE.SYSTEM.SOLV>
0

>  <SCORE.SYSTEM.norm>
0

>  <SCORE.heavy>
22

>  <SCORE.norm>
-0.397078

>  <RMSD>
7.209

$$$$
ligand
 OpenBabel11021811513D
libRbt.so/2013.1/901 2013/11/27
 22 23  0  0  0  0  0  0  0  0999 V2000
  -33.4501    5.7556   -8.1102 N   0  0  0  0  0  0  0  0  0  0  0  0
  -30.4716    4.5962   -9.2225 C   0  0  1  0  0  0  0  0  0  0  0  0
  -31.7549    5.1907   -9.5686 O   0  0  0  0  0  0  0  0  0  0  0  0
  -31.8769    1.2107  -10.1639 P   0  0  1  0  0  0  0  0  0  0  0  0
  -32.1550    6.0466   -8.4862 C   0  0  2  0  0  0  0  0  0  0  0  0
  -35.3083    4.6729   -7.8169 N   0  0  0  0  0  0  0  0  0  0  0  0
  -31.1753    6.7290   -6.4197 O   0  0  0  0  0  0  0  0  0  0  0  0
  -31.2908    5.6482   -7.3526 C   0  0  2  0  0  0  0  0  0  0  0  0
  -37.7264    5.5355   -6.3660 N   0  0  0  0  0  0  0  0  0  0  0  0
  -29.3242    6.4693   -8.4041 O   0  0  0  0  0  0  0  0  0  0  0  0
  -30.0310    5.2875   -7.9912 C   0  0  2  0  0  0  0  0  0  0  0  0
  -35.4298    5.8780   -7.2393 C   0  0  0  0  0  0  0  0  0  0  0  0
  -33.9690    7.8632   -6.9422 N   0  0  0  0  0  0  0  0  0  0  0  0
  -31.3145    2.6742  -10.1397 O   0  0  0  0  0  0  0  0  0  0  0  0
  -30.7122    3.1462   -8.9786 C   0  0  0  0  0  0  0  0  0  0  0  0
  -32.2386    0.9901  -11.6775 O   0  0  0  0  0  0  0  0  0  0  0  0
  -34.0792    4.6019   -8.3626 C   0  0  0  0  0  0  0  0  0  0  0  0
  -36.6615    7.5313   -6.1049 O   0  0  0  0  0  0  0  0  0  0  0  0
  -36.6240    6.3779   -6.5330 C   0  0  0  0  0  0  0  0  0  0  0  0
  -34.2626    6.5644   -7.4171 C   0  0  0  0  0  0  0  0  0  0  0  0
  -30.8502    0.2690   -9.6282 O   0  5  0  0  0  0  0  0  0  0  0  0
  -32.9637    1.0524   -9.1808 O   0  0  0  0  0  0  0  0  0  0  0  0
  1 17  1  0  0  0  0
  1 20  1  0  0  0  0
  2 15  1  1  0  0  0
  2  3  1  0  0  0  0
  2 11  1  0  0  0  0
  3  5  1  0  0  0  0
  4 16  1  6  0  0  0
  4 21  1  0  0  0  0
  4 22  2  0  0  0  0
  4 14  1  0  0  0  0
  5  1  1  1  0  0  0
  5  8  1  0  0  0  0
  6 17  2  0  0  0  0
  6 12  1  0  0  0  0
  8  7  1  1  0  0  0
  8 11  1  0  0  0  0
  9 19  1  0  0  0  0
 11 10  1  6  0  0  0
 12 20  2  0  0  0  0
 12 19  1  0  0  0  0
 13 20  1  0  0  0  0
 14 15  1  0  0  0  0
 18 19  2  0  0  0  0
M  CHG  1  21  -1
M  END
>  <CHROM.1>
21.02322846,55.73765625,-170.87541789,-172.25384557,3.48647454,-32.76934238
4.47253401,-8.42626220,-2.17996122,-0.18217256,-2.68034618

>  <Name>
ligand

>  <RI>
0

>  <Rbt.Current_Directory>
/home/itssahil/PROJECTS/Mol_Feturizer/New_Systems/rnas/4XWF

>  <Rbt.Executable>
rbdock ($Id: //depot/dev/client3/rdock/2013.1/src/exe/rbdock.cxx#4 $)

>  <Rbt.Library>
libRbt.so (2013.1, Build901 2013/11/27)

>  <Rbt.Parameter_File>
/export/apps/rDock/src/rDock_2013.1_src/data/scripts/dock_solv.prm

>  <Rbt.Receptor>
prm/pocket_docking_8.prm

>  <SCORE>
-9.3436

>  <SCORE.INTER>
-8.91094

>  <SCORE.INTER.CONST>
1

>  <SCORE.INTER.POLAR>
0

>  <SCORE.INTER.ROT>
5

>  <SCORE.INTER.SOLV>
17.2751

>  <SCORE.INTER.VDW>
-18.6323

>  <SCORE.INTER.norm>
-0.405043

>  <SCORE.INTRA>
-0.432659

>  <SCORE.INTRA.DIHEDRAL>
-1.54852

>  <SCORE.INTRA.DIHEDRAL.0>
3.49807

>  <SCORE.INTRA.POLAR>
0

>  <SCORE.INTRA.POLAR.0>
0

>  <SCORE.INTRA.REPUL>
0

>  <SCORE.INTRA.REPUL.0>
0

>  <SCORE.INTRA.SOLV>
1.21841

>  <SCORE.INTRA.SOLV.lig_0>
-73.062

>  <SCORE.INTRA.VDW>
-0.267607

>  <SCORE.INTRA.VDW.0>
-1.83782

>  <SCORE.INTRA.norm>
-0.0196663

>  <SCORE.RESTR>
0

>  <SCORE.RESTR.CAVITY>
0

>  <SCORE.RESTR.norm>
0

>  <SCORE.SYSTEM>
0

>  <SCORE.SYSTEM.CONST>
0

>  <SCORE.SYSTEM.DIHEDRAL>
0

>  <SCORE.SYSTEM.SOLV>
0

>  <SCORE.SYSTEM.norm>
0

>  <SCORE.heavy>
22

>  <SCORE.norm>
-0.424709

>  <RMSD>
7.226

$$$$
ligand
 OpenBabel11021811513D
libRbt.so/2013.1/901 2013/11/27
 22 23  0  0  0  0  0  0  0  0999 V2000
  -31.4092    5.9892   -8.3909 N   0  0  0  0  0  0  0  0  0  0  0  0
  -32.4557    2.7888   -8.7295 C   0  0  1  0  0  0  0  0  0  0  0  0
  -31.5470    3.7104   -8.0627 O   0  0  0  0  0  0  0  0  0  0  0  0
  -29.8865    1.3571  -11.1173 P   0  0  1  0  0  0  0  0  0  0  0  0
  -32.2174    4.9735   -7.9235 C   0  0  2  0  0  0  0  0  0  0  0  0
  -29.8029    7.0266   -9.4180 N   0  0  0  0  0  0  0  0  0  0  0  0
  -34.3992    5.7947   -8.4345 O   0  0  0  0  0  0  0  0  0  0  0  0
  -33.3673    4.8932   -8.8519 C   0  0  2  0  0  0  0  0  0  0  0  0
  -29.3879    9.9326   -9.7097 N   0  0  0  0  0  0  0  0  0  0  0  0
  -34.4456    3.2114   -7.5650 O   0  0  0  0  0  0  0  0  0  0  0  0
  -33.7569    3.4895   -8.7956 C   0  0  2  0  0  0  0  0  0  0  0  0
  -30.6034    7.9455   -8.8563 C   0  0  0  0  0  0  0  0  0  0  0  0
  -32.6887    7.9029   -7.5097 N   0  0  0  0  0  0  0  0  0  0  0  0
  -30.7716    1.7518   -9.8847 O   0  0  0  0  0  0  0  0  0  0  0  0
  -31.9022    2.5351  -10.0894 C   0  0  0  0  0  0  0  0  0  0  0  0
  -30.9324    0.7862  -12.1423 O   0  0  0  0  0  0  0  0  0  0  0  0
  -30.3027    5.8116   -9.1221 C   0  0  0  0  0  0  0  0  0  0  0  0
  -31.1478   10.1618   -8.2829 O   0  0  0  0  0  0  0  0  0  0  0  0
  -30.4166    9.4067   -8.9234 C   0  0  0  0  0  0  0  0  0  0  0  0
  -31.6189    7.3000   -8.2103 C   0  0  0  0  0  0  0  0  0  0  0  0
  -29.1350    2.5531  -11.5997 O   0  5  0  0  0  0  0  0  0  0  0  0
  -28.7878    0.4642  -10.7070 O   0  0  0  0  0  0  0  0  0  0  0  0
  1 17  1  0  0  0  0
  1 20  1  0  0  0  0
  2 15  1  6  0  0  0
  2  3  1  0  0  0  0
  2 11  1  0  0  0  0
  3  5  1  0  0  0  0
  4 16  1  6  0  0  0
  4 21  1  0  0  0  0
  4 22  2  0  0  0  0
  4 14  1  0  0  0  0
  5  1  1  6  0  0  0
  5  8  1  0  0  0  0
  6 17  2  0  0  0  0
  6 12  1  0  0  0  0
  8  7  1  1  0  0  0
  8 11  1  0  0  0  0
  9 19  1  0  0  0  0
 11 10  1  1  0  0  0
 12 20  2  0  0  0  0
 12 19  1  0  0  0  0
 13 20  1  0  0  0  0
 14 15  1  0  0  0  0
 18 19  2  0  0  0  0
M  CHG  1  21  -1
M  END
>  <CHROM.1>
13.28702949,71.28853939,-50.35380873,-176.73104435,5.09745442,-31.32710511
4.68103344,-9.33214024,1.69747470,0.51286296,0.24359356

>  <Name>
ligand

>  <RI>
0

>  <Rbt.Current_Directory>
/home/itssahil/PROJECTS/Mol_Feturizer/New_Systems/rnas/4XWF

>  <Rbt.Executable>
rbdock ($Id: //depot/dev/client3/rdock/2013.1/src/exe/rbdock.cxx#4 $)

>  <Rbt.Library>
libRbt.so (2013.1, Build901 2013/11/27)

>  <Rbt.Parameter_File>
/export/apps/rDock/src/rDock_2013.1_src/data/scripts/dock_solv.prm

>  <Rbt.Receptor>
prm/pocket_docking_7.prm

>  <SCORE>
-7.7959

>  <SCORE.INTER>
-7.42254

>  <SCORE.INTER.CONST>
1

>  <SCORE.INTER.POLAR>
0

>  <SCORE.INTER.ROT>
5

>  <SCORE.INTER.SOLV>
11.3472

>  <SCORE.INTER.VDW>
-15.6641

>  <SCORE.INTER.norm>
-0.337388

>  <SCORE.INTRA>
-0.37336

>  <SCORE.INTRA.DIHEDRAL>
-1.34884

>  <SCORE.INTRA.DIHEDRAL.0>
3.49807

>  <SCORE.INTRA.POLAR>
0

>  <SCORE.INTRA.POLAR.0>
0

>  <SCORE.INTRA.REPUL>
0

>  <SCORE.INTRA.REPUL.0>
0

>  <SCORE.INTRA.SOLV>
0.582524

>  <SCORE.INTRA.SOLV.lig_0>
-73.062

>  <SCORE.INTRA.VDW>
0.00979542

>  <SCORE.INTRA.VDW.0>
-1.83782

>  <SCORE.INTRA.norm>
-0.0169709

>  <SCORE.RESTR>
0

>  <SCORE.RESTR.CAVITY>
0

>  <SCORE.RESTR.norm>
0

>  <SCORE.SYSTEM>
0

>  <SCORE.SYSTEM.CONST>
0

>  <SCORE.SYSTEM.DIHEDRAL>
0

>  <SCORE.SYSTEM.SOLV>
0

>  <SCORE.SYSTEM.norm>
0

>  <SCORE.heavy>
22

>  <SCORE.norm>
-0.354359

>  <RMSD>
7.234

$$$$
ligand
 OpenBabel11021811513D
libRbt.so/2013.1/901 2013/11/27
 22 23  0  0  0  0  0  0  0  0999 V2000
  -30.6944    4.4434   -9.5835 N   0  0  0  0  0  0  0  0  0  0  0  0
  -33.7538    3.1542   -8.9277 C   0  0  1  0  0  0  0  0  0  0  0  0
  -32.9505    4.0103   -9.7889 O   0  0  0  0  0  0  0  0  0  0  0  0
  -34.9930    6.2085   -7.0603 P   0  0  1  0  0  0  0  0  0  0  0  0
  -31.6246    3.4603   -9.8508 C   0  0  2  0  0  0  0  0  0  0  0  0
  -29.8046    6.2834   -8.8529 N   0  0  0  0  0  0  0  0  0  0  0  0
  -30.5598    1.5123   -8.9748 O   0  0  0  0  0  0  0  0  0  0  0  0
  -31.5604    2.5056   -8.7216 C   0  0  2  0  0  0  0  0  0  0  0  0
  -26.9919    7.1529   -9.0090 N   0  0  0  0  0  0  0  0  0  0  0  0
  -33.1392    1.0341   -9.7163 O   0  0  0  0  0  0  0  0  0  0  0  0
  -32.9139    1.9691   -8.6479 C   0  0  2  0  0  0  0  0  0  0  0  0
  -28.8364    5.5447   -9.4163 C   0  0  0  0  0  0  0  0  0  0  0  0
  -28.7065    3.3217  -10.5141 N   0  0  0  0  0  0  0  0  0  0  0  0
  -34.6313    5.1087   -8.1177 O   0  0  0  0  0  0  0  0  0  0  0  0
  -34.0397    3.9266   -7.6861 C   0  0  0  0  0  0  0  0  0  0  0  0
  -35.4833    7.4108   -7.9462 O   0  0  0  0  0  0  0  0  0  0  0  0
  -30.9593    5.5993   -8.9637 C   0  0  0  0  0  0  0  0  0  0  0  0
  -26.6067    5.1764  -10.0724 O   0  0  0  0  0  0  0  0  0  0  0  0
  -27.4154    5.9243   -9.5230 C   0  0  0  0  0  0  0  0  0  0  0  0
  -29.3884    4.3831   -9.8760 C   0  0  0  0  0  0  0  0  0  0  0  0
  -36.0176    5.6777   -6.1137 O   0  5  0  0  0  0  0  0  0  0  0  0
  -33.8562    6.4571   -6.1555 O   0  0  0  0  0  0  0  0  0  0  0  0
  1 17  1  0  0  0  0
  1 20  1  0  0  0  0
  2 15  1  1  0  0  0
  2  3  1  0  0  0  0
  2 11  1  0  0  0  0
  3  5  1  0  0  0  0
  4 16  1  6  0  0  0
  4 21  1  0  0  0  0
  4 22  2  0  0  0  0
  4 14  1  0  0  0  0
  5  1  1  1  0  0  0
  5  8  1  0  0  0  0
  6 17  2  0  0  0  0
  6 12  1  0  0  0  0
  8  7  1  6  0  0  0
  8 11  1  0  0  0  0
  9 19  1  0  0  0  0
 11 10  1  6  0  0  0
 12 20  2  0  0  0  0
 12 19  1  0  0  0  0
 13 20  1  0  0  0  0
 14 15  1  0  0  0  0
 18 19  2  0  0  0  0
M  CHG  1  21  -1
M  END
>  <CHROM.1>
19.16726170,55.20648308,174.25510244,-176.51809042,-0.12284990,-31.87573092
4.64400003,-8.66700952,0.18380532,-0.29946038,-2.82486403

>  <Name>
ligand

>  <RI>
0

>  <Rbt.Current_Directory>
/home/itssahil/PROJECTS/Mol_Feturizer/New_Systems/rnas/4XWF

>  <Rbt.Executable>
rbdock ($Id: //depot/dev/client3/rdock/2013.1/src/exe/rbdock.cxx#4 $)

>  <Rbt.Library>
libRbt.so (2013.1, Build901 2013/11/27)

>  <Rbt.Parameter_File>
/export/apps/rDock/src/rDock_2013.1_src/data/scripts/dock_solv.prm

>  <Rbt.Receptor>
prm/pocket_docking_8.prm

>  <SCORE>
-8.45084

>  <SCORE.INTER>
-7.93062

>  <SCORE.INTER.CONST>
1

>  <SCORE.INTER.POLAR>
0

>  <SCORE.INTER.ROT>
5

>  <SCORE.INTER.SOLV>
9.45211

>  <SCORE.INTER.VDW>
-15.3711

>  <SCORE.INTER.norm>
-0.360483

>  <SCORE.INTRA>
-0.520222

>  <SCORE.INTRA.DIHEDRAL>
-1.80067

>  <SCORE.INTRA.DIHEDRAL.0>
3.49807

>  <SCORE.INTRA.POLAR>
0

>  <SCORE.INTRA.POLAR.0>
0

>  <SCORE.INTRA.REPUL>
0

>  <SCORE.INTRA.REPUL.0>
0

>  <SCORE.INTRA.SOLV>
1.12706

>  <SCORE.INTRA.SOLV.lig_0>
-73.062

>  <SCORE.INTRA.VDW>
-0.183418

>  <SCORE.INTRA.VDW.0>
-1.83782

>  <SCORE.INTRA.norm>
-0.0236465

>  <SCORE.RESTR>
0

>  <SCORE.RESTR.CAVITY>
0

>  <SCORE.RESTR.norm>
0

>  <SCORE.SYSTEM>
0

>  <SCORE.SYSTEM.CONST>
0

>  <SCORE.SYSTEM.DIHEDRAL>
0

>  <SCORE.SYSTEM.SOLV>
0

>  <SCORE.SYSTEM.norm>
0

>  <SCORE.heavy>
22

>  <SCORE.norm>
-0.384129

>  <RMSD>
7.250

$$$$
ligand
 OpenBabel11021811513D
libRbt.so/2013.1/901 2013/11/27
 22 23  0  0  0  0  0  0  0  0999 V2000
  -30.6188    4.3060   -9.5846 N   0  0  0  0  0  0  0  0  0  0  0  0
  -33.7457    3.1246   -9.0559 C   0  0  1  0  0  0  0  0  0  0  0  0
  -32.8844    3.9758   -9.8642 O   0  0  0  0  0  0  0  0  0  0  0  0
  -35.0177    6.1154   -7.1086 P   0  0  1  0  0  0  0  0  0  0  0  0
  -31.5810    3.3730   -9.9116 C   0  0  2  0  0  0  0  0  0  0  0  0
  -29.6804    6.0962   -8.7938 N   0  0  0  0  0  0  0  0  0  0  0  0
  -30.6219    1.3522   -9.0793 O   0  0  0  0  0  0  0  0  0  0  0  0
  -31.5873    2.3772   -8.8164 C   0  0  2  0  0  0  0  0  0  0  0  0
  -26.6160    5.7311  -10.5466 N   0  0  0  0  0  0  0  0  0  0  0  0
  -33.1974    1.0095   -9.9046 O   0  0  0  0  0  0  0  0  0  0  0  0
  -32.9633    1.8960   -8.7976 C   0  0  2  0  0  0  0  0  0  0  0  0
  -28.7197    5.3088   -9.3013 C   0  0  0  0  0  0  0  0  0  0  0  0
  -28.6395    3.0835  -10.3991 N   0  0  0  0  0  0  0  0  0  0  0  0
  -34.6318    5.0537   -8.1960 O   0  0  0  0  0  0  0  0  0  0  0  0
  -34.0336    3.8642   -7.7949 C   0  0  0  0  0  0  0  0  0  0  0  0
  -35.5171    7.3376   -7.9616 O   0  0  0  0  0  0  0  0  0  0  0  0
  -30.8603    5.4733   -8.9767 C   0  0  0  0  0  0  0  0  0  0  0  0
  -26.6514    5.7512   -8.2698 O   0  0  0  0  0  0  0  0  0  0  0  0
  -27.2771    5.6141   -9.3209 C   0  0  0  0  0  0  0  0  0  0  0  0
  -29.3025    4.1782   -9.7984 C   0  0  0  0  0  0  0  0  0  0  0  0
  -36.0430    5.5418   -6.1880 O   0  5  0  0  0  0  0  0  0  0  0  0
  -33.8923    6.3514   -6.1864 O   0  0  0  0  0  0  0  0  0  0  0  0
  1 17  1  0  0  0  0
  1 20  1  0  0  0  0
  2 15  1  1  0  0  0
  2  3  1  0  0  0  0
  2 11  1  0  0  0  0
  3  5  1  0  0  0  0
  4 16  1  6  0  0  0
  4 21  1  0  0  0  0
  4 22  2  0  0  0  0
  4 14  1  0  0  0  0
  5  1  1  1  0  0  0
  5  8  1  0  0  0  0
  6 17  2  0  0  0  0
  6 12  1  0  0  0  0
  8  7  1  6  0  0  0
  8 11  1  0  0  0  0
  9 19  1  0  0  0  0
 11 10  1  6  0  0  0
 12 20  2  0  0  0  0
 12 19  1  0  0  0  0
 13 20  1  0  0  0  0
 14 15  1  0  0  0  0
 18 19  2  0  0  0  0
M  CHG  1  21  -1
M  END
>  <CHROM.1>
16.41889974,58.39382728,174.57204418,-177.45912192,-118.21333553,-31.84484355
4.50285010,-8.67743262,0.20969255,-0.25163695,-2.77170464

>  <Name>
ligand

>  <RI>
0

>  <Rbt.Current_Directory>
/home/itssahil/PROJECTS/Mol_Feturizer/New_Systems/rnas/4XWF

>  <Rbt.Executable>
rbdock ($Id: //depot/dev/client3/rdock/2013.1/src/exe/rbdock.cxx#4 $)

>  <Rbt.Library>
libRbt.so (2013.1, Build901 2013/11/27)

>  <Rbt.Parameter_File>
/export/apps/rDock/src/rDock_2013.1_src/data/scripts/dock_solv.prm

>  <Rbt.Receptor>
prm/pocket_docking_6.prm

>  <SCORE>
-8.7312

>  <SCORE.INTER>
-8.09811

>  <SCORE.INTER.CONST>
1

>  <SCORE.INTER.POLAR>
0

>  <SCORE.INTER.ROT>
5

>  <SCORE.INTER.SOLV>
9.19889

>  <SCORE.INTER.VDW>
-15.3984

>  <SCORE.INTER.norm>
-0.368096

>  <SCORE.INTRA>
-0.633097

>  <SCORE.INTRA.DIHEDRAL>
-1.89271

>  <SCORE.INTRA.DIHEDRAL.0>
3.49807

>  <SCORE.INTRA.POLAR>
0

>  <SCORE.INTRA.POLAR.0>
0

>  <SCORE.INTRA.REPUL>
0

>  <SCORE.INTRA.REPUL.0>
0

>  <SCORE.INTRA.SOLV>
1.28508

>  <SCORE.INTRA.SOLV.lig_0>
-73.062

>  <SCORE.INTRA.VDW>
-0.329284

>  <SCORE.INTRA.VDW.0>
-1.83782

>  <SCORE.INTRA.norm>
-0.0287772

>  <SCORE.RESTR>
0

>  <SCORE.RESTR.CAVITY>
0

>  <SCORE.RESTR.norm>
0

>  <SCORE.SYSTEM>
0

>  <SCORE.SYSTEM.CONST>
0

>  <SCORE.SYSTEM.DIHEDRAL>
0

>  <SCORE.SYSTEM.SOLV>
0

>  <SCORE.SYSTEM.norm>
0

>  <SCORE.heavy>
22

>  <SCORE.norm>
-0.396873

>  <RMSD>
7.256

$$$$
ligand
 OpenBabel11021811513D
libRbt.so/2013.1/901 2013/11/27
 22 23  0  0  0  0  0  0  0  0999 V2000
  -33.2759    5.7248   -7.8566 N   0  0  0  0  0  0  0  0  0  0  0  0
  -30.3150    4.8595   -9.2485 C   0  0  1  0  0  0  0  0  0  0  0  0
  -31.5113    5.6843   -9.3413 O   0  0  0  0  0  0  0  0  0  0  0  0
  -32.4461    1.7289   -9.1206 P   0  0  1  0  0  0  0  0  0  0  0  0
  -31.9338    6.0070   -8.0066 C   0  0  2  0  0  0  0  0  0  0  0  0
  -35.1869    4.7050   -7.9945 N   0  0  0  0  0  0  0  0  0  0  0  0
  -31.0858    5.5841   -5.8162 O   0  0  0  0  0  0  0  0  0  0  0  0
  -31.2064    5.0521   -7.1406 C   0  0  2  0  0  0  0  0  0  0  0  0
  -37.6986    5.3591   -6.5725 N   0  0  0  0  0  0  0  0  0  0  0  0
  -29.0961    6.0315   -7.6252 O   0  0  0  0  0  0  0  0  0  0  0  0
  -29.9289    4.8763   -7.8205 C   0  0  2  0  0  0  0  0  0  0  0  0
  -35.3517    5.8039   -7.2423 C   0  0  0  0  0  0  0  0  0  0  0  0
  -33.8890    7.6366   -6.4267 N   0  0  0  0  0  0  0  0  0  0  0  0
  -31.7747    3.1288   -8.9017 O   0  0  0  0  0  0  0  0  0  0  0  0
  -30.6920    3.4893   -9.6963 C   0  0  0  0  0  0  0  0  0  0  0  0
  -33.5289    1.6682   -7.9830 O   0  0  0  0  0  0  0  0  0  0  0  0
  -33.8973    4.6616   -8.3800 C   0  0  0  0  0  0  0  0  0  0  0  0
  -36.7291    7.3790   -6.1656 O   0  0  0  0  0  0  0  0  0  0  0  0
  -36.6164    6.2418   -6.6228 C   0  0  0  0  0  0  0  0  0  0  0  0
  -34.1520    6.4498   -7.1483 C   0  0  0  0  0  0  0  0  0  0  0  0
  -32.9966    1.6468  -10.5055 O   0  5  0  0  0  0  0  0  0  0  0  0
  -31.4309    0.6604   -9.1430 O   0  0  0  0  0  0  0  0  0  0  0  0
  1 17  1  0  0  0  0
  1 20  1  0  0  0  0
  2 15  1  1  0  0  0
  2  3  1  0  0  0  0
  2 11  1  0  0  0  0
  3  5  1  0  0  0  0
  4 16  1  1  0  0  0
  4 21  1  0  0  0  0
  4 22  2  0  0  0  0
  4 14  1  0  0  0  0
  5  1  1  6  0  0  0
  5  8  1  0  0  0  0
  6 17  2  0  0  0  0
  6 12  1  0  0  0  0
  8  7  1  1  0  0  0
  8 11  1  0  0  0  0
  9 19  1  0  0  0  0
 11 10  1  6  0  0  0
 12 20  2  0  0  0  0
 12 19  1  0  0  0  0
 13 20  1  0  0  0  0
 14 15  1  0  0  0  0
 18 19  2  0  0  0  0
M  CHG  1  21  -1
M  END
>  <CHROM.1>
38.88305706,-54.61891850,175.95940257,179.24285632,12.87880756,-32.85967676
4.52079815,-8.02915346,-2.37616486,-0.13238074,-2.70351307

>  <Name>
ligand

>  <RI>
0

>  <Rbt.Current_Directory>
/home/itssahil/PROJECTS/Mol_Feturizer/New_Systems/rnas/4XWF

>  <Rbt.Executable>
rbdock ($Id: //depot/dev/client3/rdock/2013.1/src/exe/rbdock.cxx#4 $)

>  <Rbt.Library>
libRbt.so (2013.1, Build901 2013/11/27)

>  <Rbt.Parameter_File>
/export/apps/rDock/src/rDock_2013.1_src/data/scripts/dock_solv.prm

>  <Rbt.Receptor>
prm/pocket_docking_7.prm

>  <SCORE>
-6.36679

>  <SCORE.INTER>
-6.46309

>  <SCORE.INTER.CONST>
1

>  <SCORE.INTER.POLAR>
0

>  <SCORE.INTER.ROT>
5

>  <SCORE.INTER.SOLV>
15.369

>  <SCORE.INTER.VDW>
-16.3651

>  <SCORE.INTER.norm>
-0.293777

>  <SCORE.INTRA>
0.0962995

>  <SCORE.INTRA.DIHEDRAL>
-1.66406

>  <SCORE.INTRA.DIHEDRAL.0>
3.49807

>  <SCORE.INTRA.POLAR>
0

>  <SCORE.INTRA.POLAR.0>
0

>  <SCORE.INTRA.REPUL>
0

>  <SCORE.INTRA.REPUL.0>
0

>  <SCORE.INTRA.SOLV>
1.36041

>  <SCORE.INTRA.SOLV.lig_0>
-73.062

>  <SCORE.INTRA.VDW>
0.248125

>  <SCORE.INTRA.VDW.0>
-1.83782

>  <SCORE.INTRA.norm>
0.00437725

>  <SCORE.RESTR>
0

>  <SCORE.RESTR.CAVITY>
0

>  <SCORE.RESTR.norm>
0

>  <SCORE.SYSTEM>
0

>  <SCORE.SYSTEM.CONST>
0

>  <SCORE.SYSTEM.DIHEDRAL>
0

>  <SCORE.SYSTEM.SOLV>
0

>  <SCORE.SYSTEM.norm>
0

>  <SCORE.heavy>
22

>  <SCORE.norm>
-0.2894

>  <RMSD>
7.265

$$$$
ligand
 OpenBabel11021811513D
libRbt.so/2013.1/901 2013/11/27
 22 23  0  0  0  0  0  0  0  0999 V2000
  -30.3418    4.0724   -8.9126 N   0  0  0  0  0  0  0  0  0  0  0  0
  -33.6069    3.4092   -9.5058 C   0  0  1  0  0  0  0  0  0  0  0  0
  -32.4548    4.2416   -9.8217 O   0  0  0  0  0  0  0  0  0  0  0  0
  -35.1325    6.0463   -7.2525 P   0  0  1  0  0  0  0  0  0  0  0  0
  -31.2744    3.4314   -9.7017 C   0  0  2  0  0  0  0  0  0  0  0  0
  -29.4686    5.2442   -7.3078 N   0  0  0  0  0  0  0  0  0  0  0  0
  -30.8426    1.1340   -9.2205 O   0  0  0  0  0  0  0  0  0  0  0  0
  -31.7131    2.2376   -8.9446 C   0  0  2  0  0  0  0  0  0  0  0  0
  -26.6175    5.7354   -6.7353 N   0  0  0  0  0  0  0  0  0  0  0  0
  -33.0954    1.4695  -10.7184 O   0  0  0  0  0  0  0  0  0  0  0  0
  -33.0840    2.0299   -9.3947 C   0  0  2  0  0  0  0  0  0  0  0  0
  -28.4720    4.7752   -8.0743 C   0  0  0  0  0  0  0  0  0  0  0  0
  -28.3062    3.3462  -10.0977 N   0  0  0  0  0  0  0  0  0  0  0  0
  -34.5196    5.2149   -8.4323 O   0  0  0  0  0  0  0  0  0  0  0  0
  -34.1534    3.8926   -8.2067 C   0  0  0  0  0  0  0  0  0  0  0  0
  -35.4051    7.4496   -7.9059 O   0  0  0  0  0  0  0  0  0  0  0  0
  -30.6298    4.8111   -7.8346 C   0  0  0  0  0  0  0  0  0  0  0  0
  -26.2022    4.6154   -8.6740 O   0  0  0  0  0  0  0  0  0  0  0  0
  -27.0335    5.0208   -7.8619 C   0  0  0  0  0  0  0  0  0  0  0  0
  -29.0139    4.0338   -9.0852 C   0  0  0  0  0  0  0  0  0  0  0  0
  -36.3503    5.3577   -6.7322 O   0  5  0  0  0  0  0  0  0  0  0  0
  -34.2479    6.0114   -6.0740 O   0  0  0  0  0  0  0  0  0  0  0  0
  1 17  1  0  0  0  0
  1 20  1  0  0  0  0
  2 15  1  1  0  0  0
  2  3  1  0  0  0  0
  2 11  1  0  0  0  0
  3  5  1  0  0  0  0
  4 16  1  6  0  0  0
  4 21  1  0  0  0  0
  4 22  2  0  0  0  0
  4 14  1  0  0  0  0
  5  1  1  1  0  0  0
  5  8  1  0  0  0  0
  6 17  2  0  0  0  0
  6 12  1  0  0  0  0
  8  7  1  6  0  0  0
  8 11  1  0  0  0  0
  9 19  1  0  0  0  0
 11 10  1  6  0  0  0
 12 20  2  0  0  0  0
 12 19  1  0  0  0  0
 13 20  1  0  0  0  0
 14 15  1  0  0  0  0
 18 19  2  0  0  0  0
M  CHG  1  21  -1
M  END
>  <CHROM.1>
37.00706215,60.93542573,-179.87133282,-179.54135457,3.91735242,-31.76546172
4.36277065,-8.40789747,0.19516480,-0.00136629,-2.53510529

>  <Name>
ligand

>  <RI>
0

>  <Rbt.Current_Directory>
/home/itssahil/PROJECTS/Mol_Feturizer/New_Systems/rnas/4XWF

>  <Rbt.Executable>
rbdock ($Id: //depot/dev/client3/rdock/2013.1/src/exe/rbdock.cxx#4 $)

>  <Rbt.Library>
libRbt.so (2013.1, Build901 2013/11/27)

>  <Rbt.Parameter_File>
/export/apps/rDock/src/rDock_2013.1_src/data/scripts/dock_solv.prm

>  <Rbt.Receptor>
prm/pocket_docking_6.prm

>  <SCORE>
-8.56978

>  <SCORE.INTER>
-7.47463

>  <SCORE.INTER.CONST>
1

>  <SCORE.INTER.POLAR>
0

>  <SCORE.INTER.ROT>
5

>  <SCORE.INTER.SOLV>
10.8209

>  <SCORE.INTER.VDW>
-15.5234

>  <SCORE.INTER.norm>
-0.339756

>  <SCORE.INTRA>
-1.09515

>  <SCORE.INTRA.DIHEDRAL>
-1.98786

>  <SCORE.INTRA.DIHEDRAL.0>
3.49807

>  <SCORE.INTRA.POLAR>
0

>  <SCORE.INTRA.POLAR.0>
0

>  <SCORE.INTRA.REPUL>
0

>  <SCORE.INTRA.REPUL.0>
0

>  <SCORE.INTRA.SOLV>
0.426856

>  <SCORE.INTRA.SOLV.lig_0>
-73.062

>  <SCORE.INTRA.VDW>
-0.31465

>  <SCORE.INTRA.VDW.0>
-1.83782

>  <SCORE.INTRA.norm>
-0.0497797

>  <SCORE.RESTR>
0

>  <SCORE.RESTR.CAVITY>
0

>  <SCORE.RESTR.norm>
0

>  <SCORE.SYSTEM>
0

>  <SCORE.SYSTEM.CONST>
0

>  <SCORE.SYSTEM.DIHEDRAL>
0

>  <SCORE.SYSTEM.SOLV>
0

>  <SCORE.SYSTEM.norm>
0

>  <SCORE.heavy>
22

>  <SCORE.norm>
-0.389536

>  <RMSD>
7.270

$$$$
ligand
 OpenBabel11021811513D
libRbt.so/2013.1/901 2013/11/27
 22 23  0  0  0  0  0  0  0  0999 V2000
  -30.3128    4.0471   -8.8350 N   0  0  0  0  0  0  0  0  0  0  0  0
  -33.5627    3.4066   -9.5282 C   0  0  1  0  0  0  0  0  0  0  0  0
  -32.3979    4.2358   -9.8029 O   0  0  0  0  0  0  0  0  0  0  0  0
  -35.1455    6.0294   -7.2987 P   0  0  1  0  0  0  0  0  0  0  0  0
  -31.2254    3.4183   -9.6566 C   0  0  2  0  0  0  0  0  0  0  0  0
  -29.4781    5.1800   -7.1825 N   0  0  0  0  0  0  0  0  0  0  0  0
  -30.8191    1.1143   -9.1850 O   0  0  0  0  0  0  0  0  0  0  0  0
  -31.6917    2.2198   -8.9238 C   0  0  2  0  0  0  0  0  0  0  0  0
  -26.6492    5.7836   -6.6121 N   0  0  0  0  0  0  0  0  0  0  0  0
  -33.0261    1.4756  -10.7439 O   0  0  0  0  0  0  0  0  0  0  0  0
  -33.0501    2.0236   -9.4152 C   0  0  2  0  0  0  0  0  0  0  0  0
  -28.4647    4.7487   -7.9491 C   0  0  0  0  0  0  0  0  0  0  0  0
  -28.2512    3.3860  -10.0133 N   0  0  0  0  0  0  0  0  0  0  0  0
  -34.5386    5.1928   -8.4779 O   0  0  0  0  0  0  0  0  0  0  0  0
  -34.1440    3.8806   -8.2408 C   0  0  0  0  0  0  0  0  0  0  0  0
  -35.4298    7.4270   -7.9592 O   0  0  0  0  0  0  0  0  0  0  0  0
  -30.6258    4.7477   -7.7388 C   0  0  0  0  0  0  0  0  0  0  0  0
  -26.1785    4.5582   -8.4729 O   0  0  0  0  0  0  0  0  0  0  0  0
  -27.0328    5.0072   -7.7089 C   0  0  0  0  0  0  0  0  0  0  0  0
  -28.9822    4.0319   -8.9900 C   0  0  0  0  0  0  0  0  0  0  0  0
  -36.3558    5.3388   -6.7637 O   0  5  0  0  0  0  0  0  0  0  0  0
  -34.2510    6.0064   -6.1274 O   0  0  0  0  0  0  0  0  0  0  0  0
  1 17  1  0  0  0  0
  1 20  1  0  0  0  0
  2 15  1  1  0  0  0
  2  3  1  0  0  0  0
  2 11  1  0  0  0  0
  3  5  1  0  0  0  0
  4 16  1  6  0  0  0
  4 21  1  0  0  0  0
  4 22  2  0  0  0  0
  4 14  1  0  0  0  0
  5  1  1  1  0  0  0
  5  8  1  0  0  0  0
  6 17  2  0  0  0  0
  6 12  1  0  0  0  0
  8  7  1  6  0  0  0
  8 11  1  0  0  0  0
  9 19  1  0  0  0  0
 11 10  1  6  0  0  0
 12 20  2  0  0  0  0
 12 19  1  0  0  0  0
 13 20  1  0  0  0  0
 14 15  1  0  0  0  0
 18 19  2  0  0  0  0
M  CHG  1  21  -1
M  END
>  <CHROM.1>
38.86808376,62.90257568,179.07125728,-177.37113585,-1.18251630,-31.75111004
4.34811915,-8.37596019,0.18023947,0.01957753,-2.52923966

>  <Name>
ligand

>  <RI>
0

>  <Rbt.Current_Directory>
/home/itssahil/PROJECTS/Mol_Feturizer/New_Systems/rnas/4XWF

>  <Rbt.Executable>
rbdock ($Id: //depot/dev/client3/rdock/2013.1/src/exe/rbdock.cxx#4 $)

>  <Rbt.Library>
libRbt.so (2013.1, Build901 2013/11/27)

>  <Rbt.Parameter_File>
/export/apps/rDock/src/rDock_2013.1_src/data/scripts/dock_solv.prm

>  <Rbt.Receptor>
prm/pocket_docking_6.prm

>  <SCORE>
-8.48146

>  <SCORE.INTER>
-7.37426

>  <SCORE.INTER.CONST>
1

>  <SCORE.INTER.POLAR>
0

>  <SCORE.INTER.ROT>
5

>  <SCORE.INTER.SOLV>
10.8678

>  <SCORE.INTER.VDW>
-15.4721

>  <SCORE.INTER.norm>
-0.335194

>  <SCORE.INTRA>
-1.1072

>  <SCORE.INTRA.DIHEDRAL>
-1.93901

>  <SCORE.INTRA.DIHEDRAL.0>
3.49807

>  <SCORE.INTRA.POLAR>
0

>  <SCORE.INTRA.POLAR.0>
0

>  <SCORE.INTRA.REPUL>
0

>  <SCORE.INTRA.REPUL.0>
0

>  <SCORE.INTRA.SOLV>
0.368797

>  <SCORE.INTRA.SOLV.lig_0>
-73.062

>  <SCORE.INTRA.VDW>
-0.322097

>  <SCORE.INTRA.VDW.0>
-1.83782

>  <SCORE.INTRA.norm>
-0.0503274

>  <SCORE.RESTR>
0

>  <SCORE.RESTR.CAVITY>
0

>  <SCORE.RESTR.norm>
0

>  <SCORE.SYSTEM>
0

>  <SCORE.SYSTEM.CONST>
0

>  <SCORE.SYSTEM.DIHEDRAL>
0

>  <SCORE.SYSTEM.SOLV>
0

>  <SCORE.SYSTEM.norm>
0

>  <SCORE.heavy>
22

>  <SCORE.norm>
-0.385521

>  <RMSD>
7.275

$$$$
ligand
 OpenBabel11021811513D
libRbt.so/2013.1/901 2013/11/27
 22 23  0  0  0  0  0  0  0  0999 V2000
  -33.0090    4.4498   -8.9853 N   0  0  0  0  0  0  0  0  0  0  0  0
  -35.1009    6.7100   -7.5824 C   0  0  1  0  0  0  0  0  0  0  0  0
  -34.5941    6.1162   -8.8114 O   0  0  0  0  0  0  0  0  0  0  0  0
  -32.8417    9.7072   -8.0339 P   0  0  1  0  0  0  0  0  0  0  0  0
  -34.2841    4.7388   -8.5451 C   0  0  2  0  0  0  0  0  0  0  0  0
  -30.9105    4.6791   -9.4903 N   0  0  0  0  0  0  0  0  0  0  0  0
  -34.5033    3.2904   -6.6610 O   0  0  0  0  0  0  0  0  0  0  0  0
  -34.2493    4.6399   -7.0687 C   0  0  2  0  0  0  0  0  0  0  0  0
  -30.8083    1.4964  -11.2344 N   0  0  0  0  0  0  0  0  0  0  0  0
  -36.5826    5.0415   -6.8647 O   0  0  0  0  0  0  0  0  0  0  0  0
  -35.2716    5.5852   -6.6369 C   0  0  2  0  0  0  0  0  0  0  0  0
  -31.2573    3.4016   -9.7104 C   0  0  0  0  0  0  0  0  0  0  0  0
  -33.3257    2.0518   -9.4593 N   0  0  0  0  0  0  0  0  0  0  0  0
  -34.0059    8.6580   -8.0846 O   0  0  0  0  0  0  0  0  0  0  0  0
  -34.0701    7.6738   -7.1043 C   0  0  0  0  0  0  0  0  0  0  0  0
  -31.5694    8.8483   -8.3718 O   0  0  0  0  0  0  0  0  0  0  0  0
  -32.0026    5.3296   -9.0455 C   0  0  0  0  0  0  0  0  0  0  0  0
  -29.2418    2.1872   -9.7328 O   0  0  0  0  0  0  0  0  0  0  0  0
  -30.3644    2.3415  -10.2137 C   0  0  0  0  0  0  0  0  0  0  0  0
  -32.5765    3.2488   -9.3918 C   0  0  0  0  0  0  0  0  0  0  0  0
  -33.1183   10.8116   -8.9992 O   0  5  0  0  0  0  0  0  0  0  0  0
  -32.8456   10.4303   -6.7495 O   0  0  0  0  0  0  0  0  0  0  0  0
  1 17  1  0  0  0  0
  1 20  1  0  0  0  0
  2 15  1  1  0  0  0
  2  3  1  0  0  0  0
  2 11  1  0  0  0  0
  3  5  1  0  0  0  0
  4 16  1  6  0  0  0
  4 21  1  0  0  0  0
  4 22  2  0  0  0  0
  4 14  1  0  0  0  0
  5  1  1  6  0  0  0
  5  8  1  0  0  0  0
  6 17  2  0  0  0  0
  6 12  1  0  0  0  0
  8  7  1  6  0  0  0
  8 11  1  0  0  0  0
  9 19  1  0  0  0  0
 11 10  1  6  0  0  0
 12 20  2  0  0  0  0
 12 19  1  0  0  0  0
 13 20  1  0  0  0  0
 14 15  1  0  0  0  0
 18 19  2  0  0  0  0
M  CHG  1  21  -1
M  END
>  <CHROM.1>
29.46464786,64.29097859,68.74536462,-169.33386415,-133.92976594,-33.04393546
5.85206871,-8.42989632,1.26647102,-0.49653517,-3.01764742

>  <Name>
ligand

>  <RI>
0

>  <Rbt.Current_Directory>
/home/itssahil/PROJECTS/Mol_Feturizer/New_Systems/rnas/4XWF

>  <Rbt.Executable>
rbdock ($Id: //depot/dev/client3/rdock/2013.1/src/exe/rbdock.cxx#4 $)

>  <Rbt.Library>
libRbt.so (2013.1, Build901 2013/11/27)

>  <Rbt.Parameter_File>
/export/apps/rDock/src/rDock_2013.1_src/data/scripts/dock_solv.prm

>  <Rbt.Receptor>
prm/pocket_docking_8.prm

>  <SCORE>
-9.942

>  <SCORE.INTER>
-8.82193

>  <SCORE.INTER.CONST>
1

>  <SCORE.INTER.POLAR>
0

>  <SCORE.INTER.ROT>
5

>  <SCORE.INTER.SOLV>
17.876

>  <SCORE.INTER.VDW>
-18.7733

>  <SCORE.INTER.norm>
-0.400997

>  <SCORE.INTRA>
-1.12007

>  <SCORE.INTRA.DIHEDRAL>
-1.11446

>  <SCORE.INTRA.DIHEDRAL.0>
3.49807

>  <SCORE.INTRA.POLAR>
0

>  <SCORE.INTRA.POLAR.0>
0

>  <SCORE.INTRA.REPUL>
0

>  <SCORE.INTRA.REPUL.0>
0

>  <SCORE.INTRA.SOLV>
0.198919

>  <SCORE.INTRA.SOLV.lig_0>
-73.062

>  <SCORE.INTRA.VDW>
-0.662298

>  <SCORE.INTRA.VDW.0>
-1.83782

>  <SCORE.INTRA.norm>
-0.0509123

>  <SCORE.RESTR>
0

>  <SCORE.RESTR.CAVITY>
0

>  <SCORE.RESTR.norm>
0

>  <SCORE.SYSTEM>
0

>  <SCORE.SYSTEM.CONST>
0

>  <SCORE.SYSTEM.DIHEDRAL>
0

>  <SCORE.SYSTEM.SOLV>
0

>  <SCORE.SYSTEM.norm>
0

>  <SCORE.heavy>
22

>  <SCORE.norm>
-0.451909

>  <RMSD>
7.283

$$$$
ligand
 OpenBabel11021811513D
libRbt.so/2013.1/901 2013/11/27
 22 23  0  0  0  0  0  0  0  0999 V2000
  -30.3288    4.0620   -8.9198 N   0  0  0  0  0  0  0  0  0  0  0  0
  -33.5963    3.3998   -9.5004 C   0  0  1  0  0  0  0  0  0  0  0  0
  -32.4427    4.2256   -9.8276 O   0  0  0  0  0  0  0  0  0  0  0  0
  -35.1198    6.0642   -7.2779 P   0  0  1  0  0  0  0  0  0  0  0  0
  -31.2640    3.4140   -9.6999 C   0  0  2  0  0  0  0  0  0  0  0  0
  -29.4496    5.2451   -7.3265 N   0  0  0  0  0  0  0  0  0  0  0  0
  -30.8370    1.1214   -9.1925 O   0  0  0  0  0  0  0  0  0  0  0  0
  -31.7044    2.2302   -8.9283 C   0  0  2  0  0  0  0  0  0  0  0  0
  -26.1750    3.9619   -7.5575 N   0  0  0  0  0  0  0  0  0  0  0  0
  -33.0913    1.4448  -10.6909 O   0  0  0  0  0  0  0  0  0  0  0  0
  -33.0765    2.0206   -9.3739 C   0  0  2  0  0  0  0  0  0  0  0  0
  -28.4561    4.7746   -8.0961 C   0  0  0  0  0  0  0  0  0  0  0  0
  -28.2979    3.3350  -10.1126 N   0  0  0  0  0  0  0  0  0  0  0  0
  -34.5025    5.2203   -8.4464 O   0  0  0  0  0  0  0  0  0  0  0  0
  -34.1397    3.8995   -8.2061 C   0  0  0  0  0  0  0  0  0  0  0  0
  -35.4011    7.4567   -7.9504 O   0  0  0  0  0  0  0  0  0  0  0  0
  -30.6126    4.8058   -7.8442 C   0  0  0  0  0  0  0  0  0  0  0  0
  -26.5579    6.1621   -8.0028 O   0  0  0  0  0  0  0  0  0  0  0  0
  -27.0172    5.0254   -7.8934 C   0  0  0  0  0  0  0  0  0  0  0  0
  -29.0017    4.0261   -9.0998 C   0  0  0  0  0  0  0  0  0  0  0  0
  -36.3331    5.3754   -6.7474 O   0  5  0  0  0  0  0  0  0  0  0  0
  -34.2343    6.0509   -6.0996 O   0  0  0  0  0  0  0  0  0  0  0  0
  1 17  1  0  0  0  0
  1 20  1  0  0  0  0
  2 15  1  1  0  0  0
  2  3  1  0  0  0  0
  2 11  1  0  0  0  0
  3  5  1  0  0  0  0
  4 16  1  6  0  0  0
  4 21  1  0  0  0  0
  4 22  2  0  0  0  0
  4 14  1  0  0  0  0
  5  1  1  1  0  0  0
  5  8  1  0  0  0  0
  6 17  2  0  0  0  0
  6 12  1  0  0  0  0
  8  7  1  6  0  0  0
  8 11  1  0  0  0  0
  9 19  1  0  0  0  0
 11 10  1  6  0  0  0
 12 20  2  0  0  0  0
 12 19  1  0  0  0  0
 13 20  1  0  0  0  0
 14 15  1  0  0  0  0
 18 19  2  0  0  0  0
M  CHG  1  21  -1
M  END
>  <CHROM.1>
37.53144410,60.90746974,-179.27888120,-179.92010553,114.04569117,-31.75311961
4.36232872,-8.41786833,0.19508304,-0.00380548,-2.58052777

>  <Name>
ligand

>  <RI>
0

>  <Rbt.Current_Directory>
/home/itssahil/PROJECTS/Mol_Feturizer/New_Systems/rnas/4XWF

>  <Rbt.Executable>
rbdock ($Id: //depot/dev/client3/rdock/2013.1/src/exe/rbdock.cxx#4 $)

>  <Rbt.Library>
libRbt.so (2013.1, Build901 2013/11/27)

>  <Rbt.Parameter_File>
/export/apps/rDock/src/rDock_2013.1_src/data/scripts/dock_solv.prm

>  <Rbt.Receptor>
prm/pocket_docking_6.prm

>  <SCORE>
-8.72153

>  <SCORE.INTER>
-7.47701

>  <SCORE.INTER.CONST>
1

>  <SCORE.INTER.POLAR>
0

>  <SCORE.INTER.ROT>
5

>  <SCORE.INTER.SOLV>
10.8371

>  <SCORE.INTER.VDW>
-15.5304

>  <SCORE.INTER.norm>
-0.339864

>  <SCORE.INTRA>
-1.24452

>  <SCORE.INTRA.DIHEDRAL>
-1.97811

>  <SCORE.INTRA.DIHEDRAL.0>
3.49807

>  <SCORE.INTRA.POLAR>
0

>  <SCORE.INTRA.POLAR.0>
0

>  <SCORE.INTRA.REPUL>
0

>  <SCORE.INTRA.REPUL.0>
0

>  <SCORE.INTRA.SOLV>
0.434521

>  <SCORE.INTRA.SOLV.lig_0>
-73.062

>  <SCORE.INTRA.VDW>
-0.47273

>  <SCORE.INTRA.VDW.0>
-1.83782

>  <SCORE.INTRA.norm>
-0.0565692

>  <SCORE.RESTR>
0

>  <SCORE.RESTR.CAVITY>
0

>  <SCORE.RESTR.norm>
0

>  <SCORE.SYSTEM>
0

>  <SCORE.SYSTEM.CONST>
0

>  <SCORE.SYSTEM.DIHEDRAL>
0

>  <SCORE.SYSTEM.SOLV>
0

>  <SCORE.SYSTEM.norm>
0

>  <SCORE.heavy>
22

>  <SCORE.norm>
-0.396433

>  <RMSD>
7.286

$$$$
ligand
 OpenBabel11021811513D
libRbt.so/2013.1/901 2013/11/27
 22 23  0  0  0  0  0  0  0  0999 V2000
  -31.3017    5.8803   -8.3031 N   0  0  0  0  0  0  0  0  0  0  0  0
  -32.6247    2.7906   -8.6981 C   0  0  1  0  0  0  0  0  0  0  0  0
  -31.6475    3.6193   -8.0065 O   0  0  0  0  0  0  0  0  0  0  0  0
  -30.0382    1.3369  -11.0503 P   0  0  1  0  0  0  0  0  0  0  0  0
  -32.2044    4.9356   -7.8603 C   0  0  2  0  0  0  0  0  0  0  0  0
  -29.6728    6.8093   -9.3961 N   0  0  0  0  0  0  0  0  0  0  0  0
  -34.2962    5.9547   -8.3912 O   0  0  0  0  0  0  0  0  0  0  0  0
  -33.3427    4.9694   -8.8058 C   0  0  2  0  0  0  0  0  0  0  0  0
  -28.8191    9.6320   -9.3704 N   0  0  0  0  0  0  0  0  0  0  0  0
  -34.5863    3.3759   -7.5562 O   0  0  0  0  0  0  0  0  0  0  0  0
  -33.8569    3.6057   -8.7733 C   0  0  2  0  0  0  0  0  0  0  0  0
  -30.2530    7.7471   -8.6316 C   0  0  0  0  0  0  0  0  0  0  0  0
  -32.1608    7.8178   -7.0446 N   0  0  0  0  0  0  0  0  0  0  0  0
  -30.9554    1.7097   -9.8345 O   0  0  0  0  0  0  0  0  0  0  0  0
  -32.0755    2.5044  -10.0532 C   0  0  0  0  0  0  0  0  0  0  0  0
  -31.0528    0.7557  -12.1006 O   0  0  0  0  0  0  0  0  0  0  0  0
  -30.3227    5.6488   -9.1853 C   0  0  0  0  0  0  0  0  0  0  0  0
  -30.3940    9.9251   -7.7519 O   0  0  0  0  0  0  0  0  0  0  0  0
  -29.8468    9.1623   -8.5480 C   0  0  0  0  0  0  0  0  0  0  0  0
  -31.2816    7.1704   -7.9426 C   0  0  0  0  0  0  0  0  0  0  0  0
  -29.2961    2.5479  -11.5096 O   0  5  0  0  0  0  0  0  0  0  0  0
  -28.9341    0.4593  -10.6220 O   0  0  0  0  0  0  0  0  0  0  0  0
  1 17  1  0  0  0  0
  1 20  1  0  0  0  0
  2 15  1  6  0  0  0
  2  3  1  0  0  0  0
  2 11  1  0  0  0  0
  3  5  1  0  0  0  0
  4 16  1  6  0  0  0
  4 21  1  0  0  0  0
  4 22  2  0  0  0  0
  4 14  1  0  0  0  0
  5  1  1  6  0  0  0
  5  8  1  0  0  0  0
  6 17  2  0  0  0  0
  6 12  1  0  0  0  0
  8  7  1  1  0  0  0
  8 11  1  0  0  0  0
  9 19  1  0  0  0  0
 11 10  1  1  0  0  0
 12 20  2  0  0  0  0
 12 19  1  0  0  0  0
 13 20  1  0  0  0  0
 14 15  1  0  0  0  0
 18 19  2  0  0  0  0
M  CHG  1  21  -1
M  END
>  <CHROM.1>
24.04067204,66.50905820,-51.96962305,-173.84758301,3.69783110,-31.25578064
4.62270633,-9.20553629,1.59302657,0.46421728,0.33471880

>  <Name>
ligand

>  <RI>
0

>  <Rbt.Current_Directory>
/home/itssahil/PROJECTS/Mol_Feturizer/New_Systems/rnas/4XWF

>  <Rbt.Executable>
rbdock ($Id: //depot/dev/client3/rdock/2013.1/src/exe/rbdock.cxx#4 $)

>  <Rbt.Library>
libRbt.so (2013.1, Build901 2013/11/27)

>  <Rbt.Parameter_File>
/export/apps/rDock/src/rDock_2013.1_src/data/scripts/dock_solv.prm

>  <Rbt.Receptor>
prm/pocket_docking_7.prm

>  <SCORE>
-7.86702

>  <SCORE.INTER>
-6.99116

>  <SCORE.INTER.CONST>
1

>  <SCORE.INTER.POLAR>
0

>  <SCORE.INTER.ROT>
5

>  <SCORE.INTER.SOLV>
10.3708

>  <SCORE.INTER.VDW>
-15.051

>  <SCORE.INTER.norm>
-0.31778

>  <SCORE.INTRA>
-0.875861

>  <SCORE.INTRA.DIHEDRAL>
-1.58016

>  <SCORE.INTRA.DIHEDRAL.0>
3.49807

>  <SCORE.INTRA.POLAR>
0

>  <SCORE.INTRA.POLAR.0>
0

>  <SCORE.INTRA.REPUL>
0

>  <SCORE.INTRA.REPUL.0>
0

>  <SCORE.INTRA.SOLV>
0.273949

>  <SCORE.INTRA.SOLV.lig_0>
-73.062

>  <SCORE.INTRA.VDW>
-0.222758

>  <SCORE.INTRA.VDW.0>
-1.83782

>  <SCORE.INTRA.norm>
-0.0398119

>  <SCORE.RESTR>
0

>  <SCORE.RESTR.CAVITY>
0

>  <SCORE.RESTR.norm>
0

>  <SCORE.SYSTEM>
0

>  <SCORE.SYSTEM.CONST>
0

>  <SCORE.SYSTEM.DIHEDRAL>
0

>  <SCORE.SYSTEM.SOLV>
0

>  <SCORE.SYSTEM.norm>
0

>  <SCORE.heavy>
22

>  <SCORE.norm>
-0.357592

>  <RMSD>
7.289

$$$$
ligand
 OpenBabel11021811513D
libRbt.so/2013.1/901 2013/11/27
 22 23  0  0  0  0  0  0  0  0999 V2000
  -30.3653    4.0832   -8.8954 N   0  0  0  0  0  0  0  0  0  0  0  0
  -33.6280    3.4066   -9.4865 C   0  0  1  0  0  0  0  0  0  0  0  0
  -32.4785    4.2411   -9.8060 O   0  0  0  0  0  0  0  0  0  0  0  0
  -35.1626    6.0498   -7.2466 P   0  0  1  0  0  0  0  0  0  0  0  0
  -31.2955    3.4353   -9.6816 C   0  0  2  0  0  0  0  0  0  0  0  0
  -29.4961    5.2637   -7.2948 N   0  0  0  0  0  0  0  0  0  0  0  0
  -30.8565    1.1417   -9.1891 O   0  0  0  0  0  0  0  0  0  0  0  0
  -31.7306    2.2438   -8.9189 C   0  0  2  0  0  0  0  0  0  0  0  0
  -26.3427    5.7718   -8.8091 N   0  0  0  0  0  0  0  0  0  0  0  0
  -33.1098    1.4626  -10.6894 O   0  0  0  0  0  0  0  0  0  0  0  0
  -33.1007    2.0295   -9.3685 C   0  0  2  0  0  0  0  0  0  0  0  0
  -28.4981    4.7975   -8.0611 C   0  0  0  0  0  0  0  0  0  0  0  0
  -28.3273    3.3640  -10.0808 N   0  0  0  0  0  0  0  0  0  0  0  0
  -34.5523    5.2128   -8.4237 O   0  0  0  0  0  0  0  0  0  0  0  0
  -34.1765    3.8945   -8.1899 C   0  0  0  0  0  0  0  0  0  0  0  0
  -35.4176    7.4561   -7.9007 O   0  0  0  0  0  0  0  0  0  0  0  0
  -30.6557    4.8232   -7.8191 C   0  0  0  0  0  0  0  0  0  0  0  0
  -26.4886    4.6210   -6.8495 O   0  0  0  0  0  0  0  0  0  0  0  0
  -27.0606    5.0510   -7.8510 C   0  0  0  0  0  0  0  0  0  0  0  0
  -29.0374    4.0507   -9.0694 C   0  0  0  0  0  0  0  0  0  0  0  0
  -36.3899    5.3734   -6.7328 O   0  5  0  0  0  0  0  0  0  0  0  0
  -34.2843    6.0055   -6.0638 O   0  0  0  0  0  0  0  0  0  0  0  0
  1 17  1  0  0  0  0
  1 20  1  0  0  0  0
  2 15  1  1  0  0  0
  2  3  1  0  0  0  0
  2 11  1  0  0  0  0
  3  5  1  0  0  0  0
  4 16  1  6  0  0  0
  4 21  1  0  0  0  0
  4 22  2  0  0  0  0
  4 14  1  0  0  0  0
  5  1  1  1  0  0  0
  5  8  1  0  0  0  0
  6 17  2  0  0  0  0
  6 12  1  0  0  0  0
  8  7  1  6  0  0  0
  8 11  1  0  0  0  0
  9 19  1  0  0  0  0
 11 10  1  6  0  0  0
 12 20  2  0  0  0  0
 12 19  1  0  0  0  0
 13 20  1  0  0  0  0
 14 15  1  0  0  0  0
 18 19  2  0  0  0  0
M  CHG  1  21  -1
M  END
>  <CHROM.1>
37.19026564,61.19037543,178.88595167,-179.21297207,-115.77092805,-31.78976812
4.37100173,-8.39372099,0.18717600,-0.00480318,-2.55294476

>  <Name>
ligand

>  <RI>
0

>  <Rbt.Current_Directory>
/home/itssahil/PROJECTS/Mol_Feturizer/New_Systems/rnas/4XWF

>  <Rbt.Executable>
rbdock ($Id: //depot/dev/client3/rdock/2013.1/src/exe/rbdock.cxx#4 $)

>  <Rbt.Library>
libRbt.so (2013.1, Build901 2013/11/27)

>  <Rbt.Parameter_File>
/export/apps/rDock/src/rDock_2013.1_src/data/scripts/dock_solv.prm

>  <Rbt.Receptor>
prm/pocket_docking_8.prm

>  <SCORE>
-8.69499

>  <SCORE.INTER>
-7.46451

>  <SCORE.INTER.CONST>
1

>  <SCORE.INTER.POLAR>
0

>  <SCORE.INTER.ROT>
5

>  <SCORE.INTER.SOLV>
10.9297

>  <SCORE.INTER.VDW>
-15.5529

>  <SCORE.INTER.norm>
-0.339296

>  <SCORE.INTRA>
-1.23048

>  <SCORE.INTRA.DIHEDRAL>
-1.97322

>  <SCORE.INTRA.DIHEDRAL.0>
3.49807

>  <SCORE.INTRA.POLAR>
0

>  <SCORE.INTRA.POLAR.0>
0

>  <SCORE.INTRA.REPUL>
0

>  <SCORE.INTRA.REPUL.0>
0

>  <SCORE.INTRA.SOLV>
0.467705

>  <SCORE.INTRA.SOLV.lig_0>
-73.062

>  <SCORE.INTRA.VDW>
-0.477722

>  <SCORE.INTRA.VDW.0>
-1.83782

>  <SCORE.INTRA.norm>
-0.0559309

>  <SCORE.RESTR>
0

>  <SCORE.RESTR.CAVITY>
0

>  <SCORE.RESTR.norm>
0

>  <SCORE.SYSTEM>
0

>  <SCORE.SYSTEM.CONST>
0

>  <SCORE.SYSTEM.DIHEDRAL>
0

>  <SCORE.SYSTEM.SOLV>
0

>  <SCORE.SYSTEM.norm>
0

>  <SCORE.heavy>
22

>  <SCORE.norm>
-0.395227

>  <RMSD>
7.298

$$$$
ligand
 OpenBabel11021811513D
libRbt.so/2013.1/901 2013/11/27
 22 23  0  0  0  0  0  0  0  0999 V2000
  -30.3474    4.0990   -8.8855 N   0  0  0  0  0  0  0  0  0  0  0  0
  -33.5896    3.3694   -9.5242 C   0  0  1  0  0  0  0  0  0  0  0  0
  -32.4498    4.2237   -9.8257 O   0  0  0  0  0  0  0  0  0  0  0  0
  -35.1408    6.0014   -7.2831 P   0  0  1  0  0  0  0  0  0  0  0  0
  -31.2554    3.4374   -9.6861 C   0  0  2  0  0  0  0  0  0  0  0  0
  -29.5222    5.3003   -7.2771 N   0  0  0  0  0  0  0  0  0  0  0  0
  -30.7851    1.1504   -9.1919 O   0  0  0  0  0  0  0  0  0  0  0  0
  -31.6813    2.2371   -8.9320 C   0  0  2  0  0  0  0  0  0  0  0  0
  -26.2099    4.0311   -7.5208 N   0  0  0  0  0  0  0  0  0  0  0  0
  -33.0220    1.4370  -10.7235 O   0  0  0  0  0  0  0  0  0  0  0  0
  -33.0411    2.0010   -9.4014 C   0  0  2  0  0  0  0  0  0  0  0  0
  -28.5041    4.8341   -8.0166 C   0  0  0  0  0  0  0  0  0  0  0  0
  -28.2786    3.3832  -10.0185 N   0  0  0  0  0  0  0  0  0  0  0  0
  -34.5375    5.1649   -8.4642 O   0  0  0  0  0  0  0  0  0  0  0  0
  -34.1645    3.8451   -8.2346 C   0  0  0  0  0  0  0  0  0  0  0  0
  -35.4302    7.3981   -7.9435 O   0  0  0  0  0  0  0  0  0  0  0  0
  -30.6668    4.8470   -7.8229 C   0  0  0  0  0  0  0  0  0  0  0  0
  -26.6399    6.2515   -7.7862 O   0  0  0  0  0  0  0  0  0  0  0  0
  -27.0735    5.0995   -7.7769 C   0  0  0  0  0  0  0  0  0  0  0  0
  -29.0157    4.0742   -9.0296 C   0  0  0  0  0  0  0  0  0  0  0  0
  -36.3477    5.3092   -6.7426 O   0  5  0  0  0  0  0  0  0  0  0  0
  -34.2413    5.9807   -6.1156 O   0  0  0  0  0  0  0  0  0  0  0  0
  1 17  1  0  0  0  0
  1 20  1  0  0  0  0
  2 15  1  1  0  0  0
  2  3  1  0  0  0  0
  2 11  1  0  0  0  0
  3  5  1  0  0  0  0
  4 16  1  6  0  0  0
  4 21  1  0  0  0  0
  4 22  2  0  0  0  0
  4 14  1  0  0  0  0
  5  1  1  1  0  0  0
  5  8  1  0  0  0  0
  6 17  2  0  0  0  0
  6 12  1  0  0  0  0
  8  7  1  6  0  0  0
  8 11  1  0  0  0  0
  9 19  1  0  0  0  0
 11 10  1  6  0  0  0
 12 20  2  0  0  0  0
 12 19  1  0  0  0  0
 13 20  1  0  0  0  0
 14 15  1  0  0  0  0
 18 19  2  0  0  0  0
M  CHG  1  21  -1
M  END
>  <CHROM.1>
36.21088630,60.17593224,-179.65649821,-177.77233478,119.33575885,-31.76669609
4.36349299,-8.39358057,0.17350350,0.00152540,-2.56879928

>  <Name>
ligand

>  <RI>
0

>  <Rbt.Current_Directory>
/home/itssahil/PROJECTS/Mol_Feturizer/New_Systems/rnas/4XWF

>  <Rbt.Executable>
rbdock ($Id: //depot/dev/client3/rdock/2013.1/src/exe/rbdock.cxx#4 $)

>  <Rbt.Library>
libRbt.so (2013.1, Build901 2013/11/27)

>  <Rbt.Parameter_File>
/export/apps/rDock/src/rDock_2013.1_src/data/scripts/dock_solv.prm

>  <Rbt.Receptor>
prm/pocket_docking_7.prm

>  <SCORE>
-8.72981

>  <SCORE.INTER>
-7.51379

>  <SCORE.INTER.CONST>
1

>  <SCORE.INTER.POLAR>
0

>  <SCORE.INTER.ROT>
5

>  <SCORE.INTER.SOLV>
10.7668

>  <SCORE.INTER.VDW>
-15.5314

>  <SCORE.INTER.norm>
-0.341536

>  <SCORE.INTRA>
-1.21602

>  <SCORE.INTRA.DIHEDRAL>
-1.9915

>  <SCORE.INTRA.DIHEDRAL.0>
3.49807

>  <SCORE.INTRA.POLAR>
0

>  <SCORE.INTRA.POLAR.0>
0

>  <SCORE.INTRA.REPUL>
0

>  <SCORE.INTRA.REPUL.0>
0

>  <SCORE.INTRA.SOLV>
0.523997

>  <SCORE.INTRA.SOLV.lig_0>
-73.062

>  <SCORE.INTRA.VDW>
-0.48227

>  <SCORE.INTRA.VDW.0>
-1.83782

>  <SCORE.INTRA.norm>
-0.0552737

>  <SCORE.RESTR>
0

>  <SCORE.RESTR.CAVITY>
0

>  <SCORE.RESTR.norm>
0

>  <SCORE.SYSTEM>
0

>  <SCORE.SYSTEM.CONST>
0

>  <SCORE.SYSTEM.DIHEDRAL>
0

>  <SCORE.SYSTEM.SOLV>
0

>  <SCORE.SYSTEM.norm>
0

>  <SCORE.heavy>
22

>  <SCORE.norm>
-0.396809

>  <RMSD>
7.299

$$$$
ligand
 OpenBabel11021811513D
libRbt.so/2013.1/901 2013/11/27
 22 23  0  0  0  0  0  0  0  0999 V2000
  -28.0044    1.8968  -14.5463 N   0  0  0  0  0  0  0  0  0  0  0  0
  -29.2322    0.2956  -11.8295 C   0  0  1  0  0  0  0  0  0  0  0  0
  -28.8382    0.1980  -13.2277 O   0  0  0  0  0  0  0  0  0  0  0  0
  -32.3937    1.4350  -10.0786 P   0  0  1  0  0  0  0  0  0  0  0  0
  -27.7458    1.1052  -13.4465 C   0  0  2  0  0  0  0  0  0  0  0  0
  -29.0367    3.2064  -15.9357 N   0  0  0  0  0  0  0  0  0  0  0  0
  -26.4624    2.5697  -12.0666 O   0  0  0  0  0  0  0  0  0  0  0  0
  -27.7625    2.0043  -12.2708 C   0  0  2  0  0  0  0  0  0  0  0  0
  -27.7725    4.7827  -18.1337 N   0  0  0  0  0  0  0  0  0  0  0  0
  -27.1375    0.2643  -10.7778 O   0  0  0  0  0  0  0  0  0  0  0  0
  -28.2034    1.1395  -11.1832 C   0  0  2  0  0  0  0  0  0  0  0  0
  -27.7838    3.0267  -16.3814 C   0  0  0  0  0  0  0  0  0  0  0  0
  -25.7797    1.7860  -15.6018 N   0  0  0  0  0  0  0  0  0  0  0  0
  -30.9992    0.8391  -10.4774 O   0  0  0  0  0  0  0  0  0  0  0  0
  -30.5721    0.9463  -11.7964 C   0  0  0  0  0  0  0  0  0  0  0  0
  -33.3866    0.7131  -11.0603 O   0  0  0  0  0  0  0  0  0  0  0  0
  -29.1729    2.4981  -14.7985 C   0  0  0  0  0  0  0  0  0  0  0  0
  -26.2616    3.0795  -18.1751 O   0  0  0  0  0  0  0  0  0  0  0  0
  -27.2132    3.6153  -17.6072 C   0  0  0  0  0  0  0  0  0  0  0  0
  -27.1266    2.2056  -15.5101 C   0  0  0  0  0  0  0  0  0  0  0  0
  -32.6551    1.1770   -8.6319 O   0  5  0  0  0  0  0  0  0  0  0  0
  -32.3618    2.9082  -10.1145 O   0  0  0  0  0  0  0  0  0  0  0  0
  1 17  1  0  0  0  0
  1 20  1  0  0  0  0
  2 15  1  6  0  0  0
  2  3  1  0  0  0  0
  2 11  1  0  0  0  0
  3  5  1  0  0  0  0
  4 16  1  6  0  0  0
  4 21  1  0  0  0  0
  4 22  2  0  0  0  0
  4 14  1  0  0  0  0
  5  1  1  6  0  0  0
  5  8  1  0  0  0  0
  6 17  2  0  0  0  0
  6 12  1  0  0  0  0
  8  7  1  1  0  0  0
  8 11  1  0  0  0  0
  9 19  1  0  0  0  0
 11 10  1  6  0  0  0
 12 20  2  0  0  0  0
 12 19  1  0  0  0  0
 13 20  1  0  0  0  0
 14 15  1  0  0  0  0
 18 19  2  0  0  0  0
M  CHG  1  21  -1
M  END
>  <CHROM.1>
44.86945246,171.29452623,56.18744977,179.76847466,23.63719316,-29.16040408
1.83694203,-13.05283592,-0.93592792,-0.23024531,2.00546383

>  <Name>
ligand

>  <RI>
0

>  <Rbt.Current_Directory>
/home/itssahil/PROJECTS/Mol_Feturizer/New_Systems/rnas/4XWF

>  <Rbt.Executable>
rbdock ($Id: //depot/dev/client3/rdock/2013.1/src/exe/rbdock.cxx#4 $)

>  <Rbt.Library>
libRbt.so (2013.1, Build901 2013/11/27)

>  <Rbt.Parameter_File>
/export/apps/rDock/src/rDock_2013.1_src/data/scripts/dock_solv.prm

>  <Rbt.Receptor>
prm/pocket_docking_7.prm

>  <SCORE>
-6.8583

>  <SCORE.INTER>
-5.96214

>  <SCORE.INTER.CONST>
1

>  <SCORE.INTER.POLAR>
0

>  <SCORE.INTER.ROT>
5

>  <SCORE.INTER.SOLV>
13.8068

>  <SCORE.INTER.VDW>
-15.5104

>  <SCORE.INTER.norm>
-0.271007

>  <SCORE.INTRA>
-0.896158

>  <SCORE.INTRA.DIHEDRAL>
-1.14177

>  <SCORE.INTRA.DIHEDRAL.0>
3.49807

>  <SCORE.INTRA.POLAR>
0

>  <SCORE.INTRA.POLAR.0>
0

>  <SCORE.INTRA.REPUL>
0

>  <SCORE.INTRA.REPUL.0>
0

>  <SCORE.INTRA.SOLV>
-0.572198

>  <SCORE.INTRA.SOLV.lig_0>
-73.062

>  <SCORE.INTRA.VDW>
-0.0391748

>  <SCORE.INTRA.VDW.0>
-1.83782

>  <SCORE.INTRA.norm>
-0.0407344

>  <SCORE.RESTR>
0

>  <SCORE.RESTR.CAVITY>
0

>  <SCORE.RESTR.norm>
0

>  <SCORE.SYSTEM>
0

>  <SCORE.SYSTEM.CONST>
0

>  <SCORE.SYSTEM.DIHEDRAL>
0

>  <SCORE.SYSTEM.SOLV>
0

>  <SCORE.SYSTEM.norm>
0

>  <SCORE.heavy>
22

>  <SCORE.norm>
-0.311741

>  <RMSD>
7.303

$$$$
ligand
 OpenBabel11021811513D
libRbt.so/2013.1/901 2013/11/27
 22 23  0  0  0  0  0  0  0  0999 V2000
  -30.3874    4.1200   -8.8666 N   0  0  0  0  0  0  0  0  0  0  0  0
  -33.6434    3.4356   -9.4851 C   0  0  1  0  0  0  0  0  0  0  0  0
  -32.4986    4.2853   -9.7806 O   0  0  0  0  0  0  0  0  0  0  0  0
  -35.1877    6.0192   -7.1833 P   0  0  1  0  0  0  0  0  0  0  0  0
  -31.3105    3.4848   -9.6714 C   0  0  2  0  0  0  0  0  0  0  0  0
  -29.5356    5.3024   -7.2580 N   0  0  0  0  0  0  0  0  0  0  0  0
  -30.8573    1.1831   -9.2322 O   0  0  0  0  0  0  0  0  0  0  0  0
  -31.7399    2.2725   -8.9388 C   0  0  2  0  0  0  0  0  0  0  0  0
  -26.6913    5.7209   -6.5970 N   0  0  0  0  0  0  0  0  0  0  0  0
  -33.1078    1.5245  -10.7323 O   0  0  0  0  0  0  0  0  0  0  0  0
  -33.1069    2.0597   -9.3982 C   0  0  2  0  0  0  0  0  0  0  0  0
  -28.5277    4.7974   -7.9859 C   0  0  0  0  0  0  0  0  0  0  0  0
  -28.3345    3.3275   -9.9772 N   0  0  0  0  0  0  0  0  0  0  0  0
  -34.5767    5.2118   -8.3806 O   0  0  0  0  0  0  0  0  0  0  0  0
  -34.1995    3.8886   -8.1791 C   0  0  0  0  0  0  0  0  0  0  0  0
  -35.4862    7.4272   -7.8150 O   0  0  0  0  0  0  0  0  0  0  0  0
  -30.6902    4.8849   -7.8112 C   0  0  0  0  0  0  0  0  0  0  0  0
  -26.2463    4.5953   -8.5258 O   0  0  0  0  0  0  0  0  0  0  0  0
  -27.0909    5.0155   -7.7352 C   0  0  0  0  0  0  0  0  0  0  0  0
  -29.0561    4.0491   -8.9989 C   0  0  0  0  0  0  0  0  0  0  0  0
  -36.3904    5.3073   -6.6591 O   0  5  0  0  0  0  0  0  0  0  0  0
  -34.2898    5.9808   -6.0150 O   0  0  0  0  0  0  0  0  0  0  0  0
  1 17  1  0  0  0  0
  1 20  1  0  0  0  0
  2 15  1  1  0  0  0
  2  3  1  0  0  0  0
  2 11  1  0  0  0  0
  3  5  1  0  0  0  0
  4 16  1  6  0  0  0
  4 21  1  0  0  0  0
  4 22  2  0  0  0  0
  4 14  1  0  0  0  0
  5  1  1  1  0  0  0
  5  8  1  0  0  0  0
  6 17  2  0  0  0  0
  6 12  1  0  0  0  0
  8  7  1  6  0  0  0
  8 11  1  0  0  0  0
  9 19  1  0  0  0  0
 11 10  1  6  0  0  0
 12 20  2  0  0  0  0
 12 19  1  0  0  0  0
 13 20  1  0  0  0  0
 14 15  1  0  0  0  0
 18 19  2  0  0  0  0
M  CHG  1  21  -1
M  END
>  <CHROM.1>
33.81761876,60.86480036,-179.39784583,-178.89281995,5.07764061,-31.81076002
4.37374171,-8.34985377,0.18990131,0.00618979,-2.51309655

>  <Name>
ligand

>  <RI>
0

>  <Rbt.Current_Directory>
/home/itssahil/PROJECTS/Mol_Feturizer/New_Systems/rnas/4XWF

>  <Rbt.Executable>
rbdock ($Id: //depot/dev/client3/rdock/2013.1/src/exe/rbdock.cxx#4 $)

>  <Rbt.Library>
libRbt.so (2013.1, Build901 2013/11/27)

>  <Rbt.Parameter_File>
/export/apps/rDock/src/rDock_2013.1_src/data/scripts/dock_solv.prm

>  <Rbt.Receptor>
prm/pocket_docking_8.prm

>  <SCORE>
-8.51779

>  <SCORE.INTER>
-7.47074

>  <SCORE.INTER.CONST>
1

>  <SCORE.INTER.POLAR>
0

>  <SCORE.INTER.ROT>
5

>  <SCORE.INTER.SOLV>
10.5216

>  <SCORE.INTER.VDW>
-15.421

>  <SCORE.INTER.norm>
-0.339579

>  <SCORE.INTRA>
-1.04705

>  <SCORE.INTRA.DIHEDRAL>
-1.9736

>  <SCORE.INTRA.DIHEDRAL.0>
3.49807

>  <SCORE.INTRA.POLAR>
0

>  <SCORE.INTRA.POLAR.0>
0

>  <SCORE.INTRA.REPUL>
0

>  <SCORE.INTRA.REPUL.0>
0

>  <SCORE.INTRA.SOLV>
0.537234

>  <SCORE.INTRA.SOLV.lig_0>
-73.062

>  <SCORE.INTRA.VDW>
-0.32887

>  <SCORE.INTRA.VDW.0>
-1.83782

>  <SCORE.INTRA.norm>
-0.0475933

>  <SCORE.RESTR>
0

>  <SCORE.RESTR.CAVITY>
0

>  <SCORE.RESTR.norm>
0

>  <SCORE.SYSTEM>
0

>  <SCORE.SYSTEM.CONST>
0

>  <SCORE.SYSTEM.DIHEDRAL>
0

>  <SCORE.SYSTEM.SOLV>
0

>  <SCORE.SYSTEM.norm>
0

>  <SCORE.heavy>
22

>  <SCORE.norm>
-0.387172

>  <RMSD>
7.304

$$$$
ligand
 OpenBabel11021811513D
libRbt.so/2013.1/901 2013/11/27
 22 23  0  0  0  0  0  0  0  0999 V2000
  -30.3598    4.0811   -8.9068 N   0  0  0  0  0  0  0  0  0  0  0  0
  -33.6247    3.4002   -9.4806 C   0  0  1  0  0  0  0  0  0  0  0  0
  -32.4793    4.2395   -9.8025 O   0  0  0  0  0  0  0  0  0  0  0  0
  -35.1474    6.0269   -7.2136 P   0  0  1  0  0  0  0  0  0  0  0  0
  -31.2936    3.4358   -9.6909 C   0  0  2  0  0  0  0  0  0  0  0  0
  -29.4848    5.2683   -7.3143 N   0  0  0  0  0  0  0  0  0  0  0  0
  -30.8458    1.1403   -9.2156 O   0  0  0  0  0  0  0  0  0  0  0  0
  -31.7208    2.2385   -8.9328 C   0  0  2  0  0  0  0  0  0  0  0  0
  -26.2050    3.9392   -7.5925 N   0  0  0  0  0  0  0  0  0  0  0  0
  -33.1098    1.4650  -10.6990 O   0  0  0  0  0  0  0  0  0  0  0  0
  -33.0933    2.0237   -9.3746 C   0  0  2  0  0  0  0  0  0  0  0  0
  -28.4885    4.7824   -8.0705 C   0  0  0  0  0  0  0  0  0  0  0  0
  -28.3245    3.3256  -10.0741 N   0  0  0  0  0  0  0  0  0  0  0  0
  -34.5525    5.1953   -8.4023 O   0  0  0  0  0  0  0  0  0  0  0  0
  -34.1658    3.8787   -8.1774 C   0  0  0  0  0  0  0  0  0  0  0  0
  -35.4580    7.4207   -7.8705 O   0  0  0  0  0  0  0  0  0  0  0  0
  -30.6469    4.8359   -7.8399 C   0  0  0  0  0  0  0  0  0  0  0  0
  -26.5915    6.1633   -7.8918 O   0  0  0  0  0  0  0  0  0  0  0  0
  -27.0493    5.0212   -7.8557 C   0  0  0  0  0  0  0  0  0  0  0  0
  -29.0315    4.0312   -9.0736 C   0  0  0  0  0  0  0  0  0  0  0  0
  -36.3409    5.3244   -6.6567 O   0  5  0  0  0  0  0  0  0  0  0  0
  -34.2324    6.0148   -6.0581 O   0  0  0  0  0  0  0  0  0  0  0  0
  1 17  1  0  0  0  0
  1 20  1  0  0  0  0
  2 15  1  1  0  0  0
  2  3  1  0  0  0  0
  2 11  1  0  0  0  0
  3  5  1  0  0  0  0
  4 16  1  6  0  0  0
  4 21  1  0  0  0  0
  4 22  2  0  0  0  0
  4 14  1  0  0  0  0
  5  1  1  1  0  0  0
  5  8  1  0  0  0  0
  6 17  2  0  0  0  0
  6 12  1  0  0  0  0
  8  7  1  6  0  0  0
  8 11  1  0  0  0  0
  9 19  1  0  0  0  0
 11 10  1  6  0  0  0
 12 20  2  0  0  0  0
 12 19  1  0  0  0  0
 13 20  1  0  0  0  0
 14 15  1  0  0  0  0
 18 19  2  0  0  0  0
M  CHG  1  21  -1
M  END
>  <CHROM.1>
35.76439952,61.47880741,-179.60358541,-178.69532147,118.34974653,-31.78058847
4.35654726,-8.38745725,0.19432690,-0.00649339,-2.56512857

>  <Name>
ligand

>  <RI>
0

>  <Rbt.Current_Directory>
/home/itssahil/PROJECTS/Mol_Feturizer/New_Systems/rnas/4XWF

>  <Rbt.Executable>
rbdock ($Id: //depot/dev/client3/rdock/2013.1/src/exe/rbdock.cxx#4 $)

>  <Rbt.Library>
libRbt.so (2013.1, Build901 2013/11/27)

>  <Rbt.Parameter_File>
/export/apps/rDock/src/rDock_2013.1_src/data/scripts/dock_solv.prm

>  <Rbt.Receptor>
prm/pocket_docking_7.prm

>  <SCORE>
-8.71546

>  <SCORE.INTER>
-7.49123

>  <SCORE.INTER.CONST>
1

>  <SCORE.INTER.POLAR>
0

>  <SCORE.INTER.ROT>
5

>  <SCORE.INTER.SOLV>
10.4942

>  <SCORE.INTER.VDW>
-15.4256

>  <SCORE.INTER.norm>
-0.340511

>  <SCORE.INTRA>
-1.22423

>  <SCORE.INTRA.DIHEDRAL>
-1.99675

>  <SCORE.INTRA.DIHEDRAL.0>
3.49807

>  <SCORE.INTRA.POLAR>
0

>  <SCORE.INTRA.POLAR.0>
0

>  <SCORE.INTRA.REPUL>
0

>  <SCORE.INTRA.REPUL.0>
0

>  <SCORE.INTRA.SOLV>
0.523622

>  <SCORE.INTRA.SOLV.lig_0>
-73.062

>  <SCORE.INTRA.VDW>
-0.487667

>  <SCORE.INTRA.VDW.0>
-1.83782

>  <SCORE.INTRA.norm>
-0.0556469

>  <SCORE.RESTR>
0

>  <SCORE.RESTR.CAVITY>
0

>  <SCORE.RESTR.norm>
0

>  <SCORE.SYSTEM>
0

>  <SCORE.SYSTEM.CONST>
0

>  <SCORE.SYSTEM.DIHEDRAL>
0

>  <SCORE.SYSTEM.SOLV>
0

>  <SCORE.SYSTEM.norm>
0

>  <SCORE.heavy>
22

>  <SCORE.norm>
-0.396157

>  <RMSD>
7.307

$$$$
ligand
 OpenBabel11021811513D
libRbt.so/2013.1/901 2013/11/27
 22 23  0  0  0  0  0  0  0  0999 V2000
  -32.5934    0.0416   -7.5445 N   0  0  0  0  0  0  0  0  0  0  0  0
  -32.5513    2.5338   -9.8335 C   0  0  1  0  0  0  0  0  0  0  0  0
  -32.9917    1.1848   -9.5078 O   0  0  0  0  0  0  0  0  0  0  0  0
  -29.6732    1.2072  -11.9089 P   0  0  1  0  0  0  0  0  0  0  0  0
  -33.2423    1.1279   -8.0942 C   0  0  2  0  0  0  0  0  0  0  0  0
  -31.0154   -1.3400   -6.9859 N   0  0  0  0  0  0  0  0  0  0  0  0
  -33.1859    2.7036   -6.3025 O   0  0  0  0  0  0  0  0  0  0  0  0
  -32.5794    2.3324   -7.5460 C   0  0  2  0  0  0  0  0  0  0  0  0
  -33.1010   -4.0201   -6.0249 N   0  0  0  0  0  0  0  0  0  0  0  0
  -34.1003    3.8084   -8.6209 O   0  0  0  0  0  0  0  0  0  0  0  0
  -32.7464    3.3260   -8.5996 C   0  0  2  0  0  0  0  0  0  0  0  0
  -32.1587   -1.7600   -6.4228 C   0  0  0  0  0  0  0  0  0  0  0  0
  -34.5092   -0.9631   -6.3630 N   0  0  0  0  0  0  0  0  0  0  0  0
  -31.0665    1.5962  -11.3040 O   0  0  0  0  0  0  0  0  0  0  0  0
  -31.1109    2.4466  -10.2047 C   0  0  0  0  0  0  0  0  0  0  0  0
  -30.0049    0.9180  -13.4178 O   0  0  0  0  0  0  0  0  0  0  0  0
  -31.2897   -0.2236   -7.6874 C   0  0  0  0  0  0  0  0  0  0  0  0
  -31.7655   -3.0203   -4.4749 O   0  0  0  0  0  0  0  0  0  0  0  0
  -32.3124   -2.9573   -5.5758 C   0  0  0  0  0  0  0  0  0  0  0  0
  -33.1564   -0.8933   -6.7675 C   0  0  0  0  0  0  0  0  0  0  0  0
  -28.7022    2.3195  -11.6898 O   0  5  0  0  0  0  0  0  0  0  0  0
  -29.0531    0.1175  -11.1339 O   0  0  0  0  0  0  0  0  0  0  0  0
  1 17  1  0  0  0  0
  1 20  1  0  0  0  0
  2 15  1  1  0  0  0
  2  3  1  0  0  0  0
  2 11  1  0  0  0  0
  3  5  1  0  0  0  0
  4 16  1  6  0  0  0
  4 21  1  0  0  0  0
  4 22  2  0  0  0  0
  4 14  1  0  0  0  0
  5  1  1  1  0  0  0
  5  8  1  0  0  0  0
  6 17  2  0  0  0  0
  6 12  1  0  0  0  0
  8  7  1  1  0  0  0
  8 11  1  0  0  0  0
  9 19  1  0  0  0  0
 11 10  1  6  0  0  0
 12 20  2  0  0  0  0
 12 19  1  0  0  0  0
 13 20  1  0  0  0  0
 14 15  1  0  0  0  0
 18 19  2  0  0  0  0
M  CHG  1  21  -1
M  END
>  <CHROM.1>
53.17530733,60.24929004,-152.31920275,-176.29243437,-114.83077099,-31.78761115
0.57430011,-8.73043173,2.11341730,-0.81528929,2.54286262

>  <Name>
ligand

>  <RI>
0

>  <Rbt.Current_Directory>
/home/itssahil/PROJECTS/Mol_Feturizer/New_Systems/rnas/4XWF

>  <Rbt.Executable>
rbdock ($Id: //depot/dev/client3/rdock/2013.1/src/exe/rbdock.cxx#4 $)

>  <Rbt.Library>
libRbt.so (2013.1, Build901 2013/11/27)

>  <Rbt.Parameter_File>
/export/apps/rDock/src/rDock_2013.1_src/data/scripts/dock_solv.prm

>  <Rbt.Receptor>
prm/pocket_docking_8.prm

>  <SCORE>
-7.22502

>  <SCORE.INTER>
-6.71123

>  <SCORE.INTER.CONST>
1

>  <SCORE.INTER.POLAR>
0

>  <SCORE.INTER.ROT>
5

>  <SCORE.INTER.SOLV>
11.4705

>  <SCORE.INTER.VDW>
-15.231

>  <SCORE.INTER.norm>
-0.305056

>  <SCORE.INTRA>
-0.51379

>  <SCORE.INTRA.DIHEDRAL>
-0.930588

>  <SCORE.INTRA.DIHEDRAL.0>
3.49807

>  <SCORE.INTRA.POLAR>
0

>  <SCORE.INTRA.POLAR.0>
0

>  <SCORE.INTRA.REPUL>
0

>  <SCORE.INTRA.REPUL.0>
0

>  <SCORE.INTRA.SOLV>
-0.0192482

>  <SCORE.INTRA.SOLV.lig_0>
-73.062

>  <SCORE.INTRA.VDW>
-0.0388721

>  <SCORE.INTRA.VDW.0>
-1.83782

>  <SCORE.INTRA.norm>
-0.0233541

>  <SCORE.RESTR>
0

>  <SCORE.RESTR.CAVITY>
0

>  <SCORE.RESTR.norm>
0

>  <SCORE.SYSTEM>
0

>  <SCORE.SYSTEM.CONST>
0

>  <SCORE.SYSTEM.DIHEDRAL>
0

>  <SCORE.SYSTEM.SOLV>
0

>  <SCORE.SYSTEM.norm>
0

>  <SCORE.heavy>
22

>  <SCORE.norm>
-0.32841

>  <RMSD>
7.314

$$$$
ligand
 OpenBabel11021811513D
libRbt.so/2013.1/901 2013/11/27
 22 23  0  0  0  0  0  0  0  0999 V2000
  -30.3682    4.1014   -8.8702 N   0  0  0  0  0  0  0  0  0  0  0  0
  -33.6181    3.3886   -9.4886 C   0  0  1  0  0  0  0  0  0  0  0  0
  -32.4777    4.2411   -9.7924 O   0  0  0  0  0  0  0  0  0  0  0  0
  -35.1736    5.9975   -7.2230 P   0  0  1  0  0  0  0  0  0  0  0  0
  -31.2850    3.4495   -9.6688 C   0  0  2  0  0  0  0  0  0  0  0  0
  -29.5269    5.2970   -7.2659 N   0  0  0  0  0  0  0  0  0  0  0  0
  -30.8192    1.1569   -9.1967 O   0  0  0  0  0  0  0  0  0  0  0  0
  -31.7093    2.2447   -8.9209 C   0  0  2  0  0  0  0  0  0  0  0  0
  -26.2342    3.9819   -7.4948 N   0  0  0  0  0  0  0  0  0  0  0  0
  -33.0673    1.4638  -10.7078 O   0  0  0  0  0  0  0  0  0  0  0  0
  -33.0736    2.0173   -9.3812 C   0  0  2  0  0  0  0  0  0  0  0  0
  -28.5152    4.8140   -8.0033 C   0  0  0  0  0  0  0  0  0  0  0  0
  -28.3092    3.3527   -9.9998 N   0  0  0  0  0  0  0  0  0  0  0  0
  -34.5426    5.1817   -8.4041 O   0  0  0  0  0  0  0  0  0  0  0  0
  -34.1809    3.8560   -8.1906 C   0  0  0  0  0  0  0  0  0  0  0  0
  -35.4355    7.4096   -7.8618 O   0  0  0  0  0  0  0  0  0  0  0  0
  -30.6775    4.8575   -7.8105 C   0  0  0  0  0  0  0  0  0  0  0  0
  -26.6302    6.2055   -7.7851 O   0  0  0  0  0  0  0  0  0  0  0  0
  -27.0811    5.0604   -7.7641 C   0  0  0  0  0  0  0  0  0  0  0  0
  -29.0370    4.0576   -9.0137 C   0  0  0  0  0  0  0  0  0  0  0  0
  -36.3995    5.3026   -6.7310 O   0  5  0  0  0  0  0  0  0  0  0  0
  -34.3074    5.9466   -6.0315 O   0  0  0  0  0  0  0  0  0  0  0  0
  1 17  1  0  0  0  0
  1 20  1  0  0  0  0
  2 15  1  1  0  0  0
  2  3  1  0  0  0  0
  2 11  1  0  0  0  0
  3  5  1  0  0  0  0
  4 16  1  6  0  0  0
  4 21  1  0  0  0  0
  4 22  2  0  0  0  0
  4 14  1  0  0  0  0
  5  1  1  1  0  0  0
  5  8  1  0  0  0  0
  6 17  2  0  0  0  0
  6 12  1  0  0  0  0
  8  7  1  6  0  0  0
  8 11  1  0  0  0  0
  9 19  1  0  0  0  0
 11 10  1  6  0  0  0
 12 20  2  0  0  0  0
 12 19  1  0  0  0  0
 13 20  1  0  0  0  0
 14 15  1  0  0  0  0
 18 19  2  0  0  0  0
M  CHG  1  21  -1
M  END
>  <CHROM.1>
35.19865020,59.78717933,-179.83973254,-179.71386682,118.90586904,-31.79141341
4.35957939,-8.36397212,0.18056555,-0.00015559,-2.56061769

>  <Name>
ligand

>  <RI>
0

>  <Rbt.Current_Directory>
/home/itssahil/PROJECTS/Mol_Feturizer/New_Systems/rnas/4XWF

>  <Rbt.Executable>
rbdock ($Id: //depot/dev/client3/rdock/2013.1/src/exe/rbdock.cxx#4 $)

>  <Rbt.Library>
libRbt.so (2013.1, Build901 2013/11/27)

>  <Rbt.Parameter_File>
/export/apps/rDock/src/rDock_2013.1_src/data/scripts/dock_solv.prm

>  <Rbt.Receptor>
prm/pocket_docking_7.prm

>  <SCORE>
-8.72475

>  <SCORE.INTER>
-7.51903

>  <SCORE.INTER.CONST>
1

>  <SCORE.INTER.POLAR>
0

>  <SCORE.INTER.ROT>
5

>  <SCORE.INTER.SOLV>
10.7213

>  <SCORE.INTER.VDW>
-15.5198

>  <SCORE.INTER.norm>
-0.341774

>  <SCORE.INTRA>
-1.20571

>  <SCORE.INTRA.DIHEDRAL>
-2.01571

>  <SCORE.INTRA.DIHEDRAL.0>
3.49807

>  <SCORE.INTRA.POLAR>
0

>  <SCORE.INTRA.POLAR.0>
0

>  <SCORE.INTRA.REPUL>
0

>  <SCORE.INTRA.REPUL.0>
0

>  <SCORE.INTRA.SOLV>
0.549641

>  <SCORE.INTRA.SOLV.lig_0>
-73.062

>  <SCORE.INTRA.VDW>
-0.472676

>  <SCORE.INTRA.VDW.0>
-1.83782

>  <SCORE.INTRA.norm>
-0.0548051

>  <SCORE.RESTR>
0

>  <SCORE.RESTR.CAVITY>
0

>  <SCORE.RESTR.norm>
0

>  <SCORE.SYSTEM>
0

>  <SCORE.SYSTEM.CONST>
0

>  <SCORE.SYSTEM.DIHEDRAL>
0

>  <SCORE.SYSTEM.SOLV>
0

>  <SCORE.SYSTEM.norm>
0

>  <SCORE.heavy>
22

>  <SCORE.norm>
-0.396579

>  <RMSD>
7.319

$$$$
ligand
 OpenBabel11021811513D
libRbt.so/2013.1/901 2013/11/27
 22 23  0  0  0  0  0  0  0  0999 V2000
  -28.0617    1.7667  -14.8826 N   0  0  0  0  0  0  0  0  0  0  0  0
  -29.0852    0.2919  -12.0138 C   0  0  1  0  0  0  0  0  0  0  0  0
  -28.8133    0.1354  -13.4355 O   0  0  0  0  0  0  0  0  0  0  0  0
  -32.0852    1.5225  -10.0537 P   0  0  1  0  0  0  0  0  0  0  0  0
  -27.7260    1.0095  -13.7793 C   0  0  2  0  0  0  0  0  0  0  0  0
  -29.0453    3.2356  -16.1419 N   0  0  0  0  0  0  0  0  0  0  0  0
  -26.3021    2.4934  -12.5683 O   0  0  0  0  0  0  0  0  0  0  0  0
  -27.6256    1.9503  -12.6411 C   0  0  2  0  0  0  0  0  0  0  0  0
  -27.9796    1.9789  -19.2489 N   0  0  0  0  0  0  0  0  0  0  0  0
  -26.9099    0.2515  -11.1415 O   0  0  0  0  0  0  0  0  0  0  0  0
  -27.9892    1.1352  -11.4885 C   0  0  2  0  0  0  0  0  0  0  0  0
  -28.0778    2.6470  -16.8619 C   0  0  0  0  0  0  0  0  0  0  0  0
  -26.3624    0.9015  -16.4446 N   0  0  0  0  0  0  0  0  0  0  0  0
  -30.7545    0.8593  -10.5517 O   0  0  0  0  0  0  0  0  0  0  0  0
  -30.4047    0.9733  -11.8927 C   0  0  0  0  0  0  0  0  0  0  0  0
  -33.1763    0.8823  -10.9866 O   0  0  0  0  0  0  0  0  0  0  0  0
  -29.0370    2.6823  -14.9142 C   0  0  0  0  0  0  0  0  0  0  0  0
  -27.2571    4.0317  -18.5784 O   0  0  0  0  0  0  0  0  0  0  0  0
  -27.7474    2.9463  -18.2676 C   0  0  0  0  0  0  0  0  0  0  0  0
  -27.4519    1.7230  -16.0747 C   0  0  0  0  0  0  0  0  0  0  0  0
  -32.2720    1.2434   -8.5993 O   0  5  0  0  0  0  0  0  0  0  0  0
  -31.9707    2.9920  -10.0597 O   0  0  0  0  0  0  0  0  0  0  0  0
  1 17  1  0  0  0  0
  1 20  1  0  0  0  0
  2 15  1  6  0  0  0
  2  3  1  0  0  0  0
  2 11  1  0  0  0  0
  3  5  1  0  0  0  0
  4 16  1  6  0  0  0
  4 21  1  0  0  0  0
  4 22  2  0  0  0  0
  4 14  1  0  0  0  0
  5  1  1  6  0  0  0
  5  8  1  0  0  0  0
  6 17  2  0  0  0  0
  6 12  1  0  0  0  0
  8  7  1  1  0  0  0
  8 11  1  0  0  0  0
  9 19  1  0  0  0  0
 11 10  1  6  0  0  0
 12 20  2  0  0  0  0
 12 19  1  0  0  0  0
 13 20  1  0  0  0  0
 14 15  1  0  0  0  0
 18 19  2  0  0  0  0
M  CHG  1  21  -1
M  END
>  <CHROM.1>
65.09603984,168.16170598,56.06806878,177.81361746,-112.76321062,-29.14587327
1.68511496,-13.34219359,-1.04487541,-0.24690534,1.87326611

>  <Name>
ligand

>  <RI>
0

>  <Rbt.Current_Directory>
/home/itssahil/PROJECTS/Mol_Feturizer/New_Systems/rnas/4XWF

>  <Rbt.Executable>
rbdock ($Id: //depot/dev/client3/rdock/2013.1/src/exe/rbdock.cxx#4 $)

>  <Rbt.Library>
libRbt.so (2013.1, Build901 2013/11/27)

>  <Rbt.Parameter_File>
/export/apps/rDock/src/rDock_2013.1_src/data/scripts/dock_solv.prm

>  <Rbt.Receptor>
prm/pocket_docking_7.prm

>  <SCORE>
-7.69156

>  <SCORE.INTER>
-6.81813

>  <SCORE.INTER.CONST>
1

>  <SCORE.INTER.POLAR>
0

>  <SCORE.INTER.ROT>
5

>  <SCORE.INTER.SOLV>
13.8005

>  <SCORE.INTER.VDW>
-16.0789

>  <SCORE.INTER.norm>
-0.309915

>  <SCORE.INTRA>
-0.873431

>  <SCORE.INTRA.DIHEDRAL>
-1.37192

>  <SCORE.INTRA.DIHEDRAL.0>
3.49807

>  <SCORE.INTRA.POLAR>
0

>  <SCORE.INTRA.POLAR.0>
0

>  <SCORE.INTRA.REPUL>
0

>  <SCORE.INTRA.REPUL.0>
0

>  <SCORE.INTRA.SOLV>
-0.976338

>  <SCORE.INTRA.SOLV.lig_0>
-73.062

>  <SCORE.INTRA.VDW>
0.300696

>  <SCORE.INTRA.VDW.0>
-1.83782

>  <SCORE.INTRA.norm>
-0.0397014

>  <SCORE.RESTR>
0

>  <SCORE.RESTR.CAVITY>
0

>  <SCORE.RESTR.norm>
0

>  <SCORE.SYSTEM>
0

>  <SCORE.SYSTEM.CONST>
0

>  <SCORE.SYSTEM.DIHEDRAL>
0

>  <SCORE.SYSTEM.SOLV>
0

>  <SCORE.SYSTEM.norm>
0

>  <SCORE.heavy>
22

>  <SCORE.norm>
-0.349617

>  <RMSD>
7.323

$$$$
ligand
 OpenBabel11021811513D
libRbt.so/2013.1/901 2013/11/27
 22 23  0  0  0  0  0  0  0  0999 V2000
  -28.0432    1.8015  -14.8637 N   0  0  0  0  0  0  0  0  0  0  0  0
  -29.0749    0.3170  -12.0029 C   0  0  1  0  0  0  0  0  0  0  0  0
  -28.7815    0.1609  -13.4205 O   0  0  0  0  0  0  0  0  0  0  0  0
  -32.1255    1.4916  -10.0871 P   0  0  1  0  0  0  0  0  0  0  0  0
  -27.7071    1.0549  -13.7534 C   0  0  2  0  0  0  0  0  0  0  0  0
  -29.0328    3.2526  -16.1389 N   0  0  0  0  0  0  0  0  0  0  0  0
  -26.3285    2.5707  -12.5297 O   0  0  0  0  0  0  0  0  0  0  0  0
  -27.6400    2.0015  -12.6175 C   0  0  2  0  0  0  0  0  0  0  0  0
  -27.9805    2.0027  -19.2377 N   0  0  0  0  0  0  0  0  0  0  0  0
  -26.9108    0.3223  -11.1024 O   0  0  0  0  0  0  0  0  0  0  0  0
  -28.0026    1.1835  -11.4667 C   0  0  2  0  0  0  0  0  0  0  0  0
  -28.0556    2.6684  -16.8490 C   0  0  0  0  0  0  0  0  0  0  0  0
  -26.3266    0.9418  -16.4097 N   0  0  0  0  0  0  0  0  0  0  0  0
  -30.7759    0.8525  -10.5656 O   0  0  0  0  0  0  0  0  0  0  0  0
  -30.4090    0.9727  -11.9016 C   0  0  0  0  0  0  0  0  0  0  0  0
  -33.1924    0.8249  -11.0293 O   0  0  0  0  0  0  0  0  0  0  0  0
  -29.0268    2.7077  -14.9074 C   0  0  0  0  0  0  0  0  0  0  0  0
  -27.1996    4.0331  -18.5643 O   0  0  0  0  0  0  0  0  0  0  0  0
  -27.7196    2.9612  -18.2547 C   0  0  0  0  0  0  0  0  0  0  0  0
  -27.4259    1.7555  -16.0519 C   0  0  0  0  0  0  0  0  0  0  0  0
  -32.3239    1.2166   -8.6335 O   0  5  0  0  0  0  0  0  0  0  0  0
  -32.0401    2.9631  -10.0999 O   0  0  0  0  0  0  0  0  0  0  0  0
  1 17  1  0  0  0  0
  1 20  1  0  0  0  0
  2 15  1  6  0  0  0
  2  3  1  0  0  0  0
  2 11  1  0  0  0  0
  3  5  1  0  0  0  0
  4 16  1  6  0  0  0
  4 21  1  0  0  0  0
  4 22  2  0  0  0  0
  4 14  1  0  0  0  0
  5  1  1  6  0  0  0
  5  8  1  0  0  0  0
  6 17  2  0  0  0  0
  6 12  1  0  0  0  0
  8  7  1  1  0  0  0
  8 11  1  0  0  0  0
  9 19  1  0  0  0  0
 11 10  1  6  0  0  0
 12 20  2  0  0  0  0
 12 19  1  0  0  0  0
 13 20  1  0  0  0  0
 14 15  1  0  0  0  0
 18 19  2  0  0  0  0
M  CHG  1  21  -1
M  END
>  <CHROM.1>
65.83114978,167.96168568,56.42172054,177.73195589,-110.51978203,-29.14854867
1.69997242,-13.33872096,-1.03976696,-0.21992048,1.86720373

>  <Name>
ligand

>  <RI>
0

>  <Rbt.Current_Directory>
/home/itssahil/PROJECTS/Mol_Feturizer/New_Systems/rnas/4XWF

>  <Rbt.Executable>
rbdock ($Id: //depot/dev/client3/rdock/2013.1/src/exe/rbdock.cxx#4 $)

>  <Rbt.Library>
libRbt.so (2013.1, Build901 2013/11/27)

>  <Rbt.Parameter_File>
/export/apps/rDock/src/rDock_2013.1_src/data/scripts/dock_solv.prm

>  <Rbt.Receptor>
prm/pocket_docking_7.prm

>  <SCORE>
-7.68117

>  <SCORE.INTER>
-6.84391

>  <SCORE.INTER.CONST>
1

>  <SCORE.INTER.POLAR>
0

>  <SCORE.INTER.ROT>
5

>  <SCORE.INTER.SOLV>
13.9508

>  <SCORE.INTER.VDW>
-16.1462

>  <SCORE.INTER.norm>
-0.311087

>  <SCORE.INTRA>
-0.837267

>  <SCORE.INTRA.DIHEDRAL>
-1.31541

>  <SCORE.INTRA.DIHEDRAL.0>
3.49807

>  <SCORE.INTRA.POLAR>
0

>  <SCORE.INTRA.POLAR.0>
0

>  <SCORE.INTRA.REPUL>
0

>  <SCORE.INTRA.REPUL.0>
0

>  <SCORE.INTRA.SOLV>
-1.00222

>  <SCORE.INTRA.SOLV.lig_0>
-73.062

>  <SCORE.INTRA.VDW>
0.321546

>  <SCORE.INTRA.VDW.0>
-1.83782

>  <SCORE.INTRA.norm>
-0.0380576

>  <SCORE.RESTR>
0

>  <SCORE.RESTR.CAVITY>
0

>  <SCORE.RESTR.norm>
0

>  <SCORE.SYSTEM>
0

>  <SCORE.SYSTEM.CONST>
0

>  <SCORE.SYSTEM.DIHEDRAL>
0

>  <SCORE.SYSTEM.SOLV>
0

>  <SCORE.SYSTEM.norm>
0

>  <SCORE.heavy>
22

>  <SCORE.norm>
-0.349144

>  <RMSD>
7.332

$$$$
ligand
 OpenBabel11021811513D
libRbt.so/2013.1/901 2013/11/27
 22 23  0  0  0  0  0  0  0  0999 V2000
  -30.5534    3.3645   -9.9624 N   0  0  0  0  0  0  0  0  0  0  0  0
  -33.8110    3.1928   -9.0620 C   0  0  1  0  0  0  0  0  0  0  0  0
  -32.8424    3.1512  -10.1483 O   0  0  0  0  0  0  0  0  0  0  0  0
  -35.3486    5.9571   -6.9908 P   0  0  1  0  0  0  0  0  0  0  0  0
  -31.6317    2.5657   -9.6426 C   0  0  2  0  0  0  0  0  0  0  0  0
  -29.2132    5.0701  -10.0381 N   0  0  0  0  0  0  0  0  0  0  0  0
  -30.9533    1.6198   -7.5591 O   0  0  0  0  0  0  0  0  0  0  0  0
  -31.7727    2.6232   -8.1703 C   0  0  2  0  0  0  0  0  0  0  0  0
  -26.3506    3.2356  -11.0955 N   0  0  0  0  0  0  0  0  0  0  0  0
  -33.5506    1.0465   -8.1564 O   0  0  0  0  0  0  0  0  0  0  0  0
  -33.2008    2.4260   -7.9539 C   0  0  2  0  0  0  0  0  0  0  0  0
  -28.6597    4.0708  -10.7422 C   0  0  0  0  0  0  0  0  0  0  0  0
  -29.2744    1.7289  -11.2909 N   0  0  0  0  0  0  0  0  0  0  0  0
  -35.0408    4.6355   -7.7766 O   0  0  0  0  0  0  0  0  0  0  0  0
  -33.9983    4.6251   -8.6969 C   0  0  0  0  0  0  0  0  0  0  0  0
  -34.0991    6.1148   -6.0504 O   0  0  0  0  0  0  0  0  0  0  0  0
  -30.3928    4.6304   -9.5598 C   0  0  0  0  0  0  0  0  0  0  0  0
  -27.1714    4.9631  -12.3315 O   0  0  0  0  0  0  0  0  0  0  0  0
  -27.3663    4.1283  -11.4482 C   0  0  0  0  0  0  0  0  0  0  0  0
  -29.4964    2.9923  -10.6966 C   0  0  0  0  0  0  0  0  0  0  0  0
  -35.5452    7.0801   -7.9542 O   0  5  0  0  0  0  0  0  0  0  0  0
  -36.6726    5.8857   -6.3469 O   0  0  0  0  0  0  0  0  0  0  0  0
  1 17  1  0  0  0  0
  1 20  1  0  0  0  0
  2 15  1  1  0  0  0
  2  3  1  0  0  0  0
  2 11  1  0  0  0  0
  3  5  1  0  0  0  0
  4 16  1  1  0  0  0
  4 21  1  0  0  0  0
  4 22  2  0  0  0  0
  4 14  1  0  0  0  0
  5  1  1  1  0  0  0
  5  8  1  0  0  0  0
  6 17  2  0  0  0  0
  6 12  1  0  0  0  0
  8  7  1  1  0  0  0
  8 11  1  0  0  0  0
  9 19  1  0  0  0  0
 11 10  1  6  0  0  0
 12 20  2  0  0  0  0
 12 19  1  0  0  0  0
 13 20  1  0  0  0  0
 14 15  1  0  0  0  0
 18 19  2  0  0  0  0
M  CHG  1  21  -1
M  END
>  <CHROM.1>
61.02772796,173.01358169,-68.63976919,169.65574419,120.23610635,-31.99834054
4.00962005,-8.98279086,0.20810308,-0.50983794,3.09872349

>  <Name>
ligand

>  <RI>
0

>  <Rbt.Current_Directory>
/home/itssahil/PROJECTS/Mol_Feturizer/New_Systems/rnas/4XWF

>  <Rbt.Executable>
rbdock ($Id: //depot/dev/client3/rdock/2013.1/src/exe/rbdock.cxx#4 $)

>  <Rbt.Library>
libRbt.so (2013.1, Build901 2013/11/27)

>  <Rbt.Parameter_File>
/export/apps/rDock/src/rDock_2013.1_src/data/scripts/dock_solv.prm

>  <Rbt.Receptor>
prm/pocket_docking_6.prm

>  <SCORE>
-7.17254

>  <SCORE.INTER>
-6.32891

>  <SCORE.INTER.CONST>
1

>  <SCORE.INTER.POLAR>
0

>  <SCORE.INTER.ROT>
5

>  <SCORE.INTER.SOLV>
17.3585

>  <SCORE.INTER.VDW>
-16.9388

>  <SCORE.INTER.norm>
-0.287678

>  <SCORE.INTRA>
-0.843633

>  <SCORE.INTRA.DIHEDRAL>
-1.14615

>  <SCORE.INTRA.DIHEDRAL.0>
3.49807

>  <SCORE.INTRA.POLAR>
0

>  <SCORE.INTRA.POLAR.0>
0

>  <SCORE.INTRA.REPUL>
0

>  <SCORE.INTRA.REPUL.0>
0

>  <SCORE.INTRA.SOLV>
-0.751493

>  <SCORE.INTRA.SOLV.lig_0>
-73.062

>  <SCORE.INTRA.VDW>
0.10519

>  <SCORE.INTRA.VDW.0>
-1.83782

>  <SCORE.INTRA.norm>
-0.038347

>  <SCORE.RESTR>
0

>  <SCORE.RESTR.CAVITY>
0

>  <SCORE.RESTR.norm>
0

>  <SCORE.SYSTEM>
0

>  <SCORE.SYSTEM.CONST>
0

>  <SCORE.SYSTEM.DIHEDRAL>
0

>  <SCORE.SYSTEM.SOLV>
0

>  <SCORE.SYSTEM.norm>
0

>  <SCORE.heavy>
22

>  <SCORE.norm>
-0.326025

>  <RMSD>
7.355

$$$$
ligand
 OpenBabel11021811513D
libRbt.so/2013.1/901 2013/11/27
 22 23  0  0  0  0  0  0  0  0999 V2000
  -30.5389    3.3318   -9.9794 N   0  0  0  0  0  0  0  0  0  0  0  0
  -33.7944    3.2221   -9.0616 C   0  0  1  0  0  0  0  0  0  0  0  0
  -32.8326    3.1623  -10.1531 O   0  0  0  0  0  0  0  0  0  0  0  0
  -35.3213    6.0258   -7.0334 P   0  0  1  0  0  0  0  0  0  0  0  0
  -31.6306    2.5537   -9.6539 C   0  0  2  0  0  0  0  0  0  0  0  0
  -29.1889    5.0272  -10.0987 N   0  0  0  0  0  0  0  0  0  0  0  0
  -30.9592    1.5945   -7.5742 O   0  0  0  0  0  0  0  0  0  0  0  0
  -31.7626    2.6135   -8.1809 C   0  0  2  0  0  0  0  0  0  0  0  0
  -26.2926    3.1557  -10.9493 N   0  0  0  0  0  0  0  0  0  0  0  0
  -33.5701    1.0710   -8.1577 O   0  0  0  0  0  0  0  0  0  0  0  0
  -33.1930    2.4435   -7.9569 C   0  0  2  0  0  0  0  0  0  0  0  0
  -28.6183    3.9918  -10.7335 C   0  0  0  0  0  0  0  0  0  0  0  0
  -29.2265    1.6270  -11.1823 N   0  0  0  0  0  0  0  0  0  0  0  0
  -35.0163    4.6927   -7.8005 O   0  0  0  0  0  0  0  0  0  0  0  0
  -33.9524    4.6577   -8.6953 C   0  0  0  0  0  0  0  0  0  0  0  0
  -35.5305    7.0670   -8.1921 O   0  0  0  0  0  0  0  0  0  0  0  0
  -30.3850    4.6160   -9.6364 C   0  0  0  0  0  0  0  0  0  0  0  0
  -27.0858    4.7778  -12.3369 O   0  0  0  0  0  0  0  0  0  0  0  0
  -27.3031    4.0093  -11.4002 C   0  0  0  0  0  0  0  0  0  0  0  0
  -29.4611    2.9196  -10.6600 C   0  0  0  0  0  0  0  0  0  0  0  0
  -36.5084    5.8359   -6.1487 O   0  5  0  0  0  0  0  0  0  0  0  0
  -34.2633    6.3158   -6.0490 O   0  0  0  0  0  0  0  0  0  0  0  0
  1 17  1  0  0  0  0
  1 20  1  0  0  0  0
  2 15  1  1  0  0  0
  2  3  1  0  0  0  0
  2 11  1  0  0  0  0
  3  5  1  0  0  0  0
  4 16  1  6  0  0  0
  4 21  1  0  0  0  0
  4 22  2  0  0  0  0
  4 14  1  0  0  0  0
  5  1  1  1  0  0  0
  5  8  1  0  0  0  0
  6 17  2  0  0  0  0
  6 12  1  0  0  0  0
  8  7  1  1  0  0  0
  8 11  1  0  0  0  0
  9 19  1  0  0  0  0
 11 10  1  6  0  0  0
 12 20  2  0  0  0  0
 12 19  1  0  0  0  0
 13 20  1  0  0  0  0
 14 15  1  0  0  0  0
 18 19  2  0  0  0  0
M  CHG  1  21  -1
M  END
>  <CHROM.1>
57.32501669,171.25400765,56.76350801,170.58452643,118.66237844,-31.97555878
3.99809321,-8.98387691,0.22229705,-0.50692360,3.09092109

>  <Name>
ligand

>  <RI>
0

>  <Rbt.Current_Directory>
/home/itssahil/PROJECTS/Mol_Feturizer/New_Systems/rnas/4XWF

>  <Rbt.Executable>
rbdock ($Id: //depot/dev/client3/rdock/2013.1/src/exe/rbdock.cxx#4 $)

>  <Rbt.Library>
libRbt.so (2013.1, Build901 2013/11/27)

>  <Rbt.Parameter_File>
/export/apps/rDock/src/rDock_2013.1_src/data/scripts/dock_solv.prm

>  <Rbt.Receptor>
prm/pocket_docking_6.prm

>  <SCORE>
-9.89226

>  <SCORE.INTER>
-9.00243

>  <SCORE.INTER.CONST>
1

>  <SCORE.INTER.POLAR>
0

>  <SCORE.INTER.ROT>
5

>  <SCORE.INTER.SOLV>
10.3825

>  <SCORE.INTER.VDW>
-16.3958

>  <SCORE.INTER.norm>
-0.409201

>  <SCORE.INTRA>
-0.889832

>  <SCORE.INTRA.DIHEDRAL>
-1.27011

>  <SCORE.INTRA.DIHEDRAL.0>
3.49807

>  <SCORE.INTRA.POLAR>
0

>  <SCORE.INTRA.POLAR.0>
0

>  <SCORE.INTRA.REPUL>
0

>  <SCORE.INTRA.REPUL.0>
0

>  <SCORE.INTRA.SOLV>
-0.614655

>  <SCORE.INTRA.SOLV.lig_0>
-73.062

>  <SCORE.INTRA.VDW>
0.052553

>  <SCORE.INTRA.VDW.0>
-1.83782

>  <SCORE.INTRA.norm>
-0.0404469

>  <SCORE.RESTR>
0

>  <SCORE.RESTR.CAVITY>
0

>  <SCORE.RESTR.norm>
0

>  <SCORE.SYSTEM>
0

>  <SCORE.SYSTEM.CONST>
0

>  <SCORE.SYSTEM.DIHEDRAL>
0

>  <SCORE.SYSTEM.SOLV>
0

>  <SCORE.SYSTEM.norm>
0

>  <SCORE.heavy>
22

>  <SCORE.norm>
-0.449648

>  <RMSD>
7.359

$$$$
ligand
 OpenBabel11021811513D
libRbt.so/2013.1/901 2013/11/27
 22 23  0  0  0  0  0  0  0  0999 V2000
  -30.5480    3.3445   -9.9804 N   0  0  0  0  0  0  0  0  0  0  0  0
  -33.7998    3.1864   -9.0566 C   0  0  1  0  0  0  0  0  0  0  0  0
  -32.8393    3.1410  -10.1498 O   0  0  0  0  0  0  0  0  0  0  0  0
  -35.3377    5.9687   -7.0047 P   0  0  1  0  0  0  0  0  0  0  0  0
  -31.6275    2.5502   -9.6529 C   0  0  2  0  0  0  0  0  0  0  0  0
  -29.2130    5.0526  -10.0843 N   0  0  0  0  0  0  0  0  0  0  0  0
  -30.9380    1.6009   -7.5746 O   0  0  0  0  0  0  0  0  0  0  0  0
  -31.7576    2.6079   -8.1797 C   0  0  2  0  0  0  0  0  0  0  0  0
  -27.2912    3.8521  -12.8241 N   0  0  0  0  0  0  0  0  0  0  0  0
  -33.5420    1.0388   -8.1533 O   0  0  0  0  0  0  0  0  0  0  0  0
  -33.1849    2.4167   -7.9531 C   0  0  2  0  0  0  0  0  0  0  0  0
  -28.6474    4.0374  -10.7552 C   0  0  0  0  0  0  0  0  0  0  0  0
  -29.2471    1.6797  -11.2500 N   0  0  0  0  0  0  0  0  0  0  0  0
  -35.0125    4.6338   -7.7602 O   0  0  0  0  0  0  0  0  0  0  0  0
  -33.9784    4.6194   -8.6898 C   0  0  0  0  0  0  0  0  0  0  0  0
  -35.5715    6.9944   -8.1726 O   0  0  0  0  0  0  0  0  0  0  0  0
  -30.3968    4.6211   -9.6090 C   0  0  0  0  0  0  0  0  0  0  0  0
  -26.3102    4.3029  -10.8191 O   0  0  0  0  0  0  0  0  0  0  0  0
  -27.3457    4.0814  -11.4466 C   0  0  0  0  0  0  0  0  0  0  0  0
  -29.4808    2.9573  -10.6916 C   0  0  0  0  0  0  0  0  0  0  0  0
  -36.5167    5.7664   -6.1120 O   0  5  0  0  0  0  0  0  0  0  0  0
  -34.2801    6.2876   -6.0288 O   0  0  0  0  0  0  0  0  0  0  0  0
  1 17  1  0  0  0  0
  1 20  1  0  0  0  0
  2 15  1  1  0  0  0
  2  3  1  0  0  0  0
  2 11  1  0  0  0  0
  3  5  1  0  0  0  0
  4 16  1  6  0  0  0
  4 21  1  0  0  0  0
  4 22  2  0  0  0  0
  4 14  1  0  0  0  0
  5  1  1  1  0  0  0
  5  8  1  0  0  0  0
  6 17  2  0  0  0  0
  6 12  1  0  0  0  0
  8  7  1  1  0  0  0
  8 11  1  0  0  0  0
  9 19  1  0  0  0  0
 11 10  1  6  0  0  0
 12 20  2  0  0  0  0
 12 19  1  0  0  0  0
 13 20  1  0  0  0  0
 14 15  1  0  0  0  0
 18 19  2  0  0  0  0
M  CHG  1  21  -1
M  END
>  <CHROM.1>
59.09885757,173.12193117,54.85044162,171.57682927,-119.32965601,-31.98958975
3.99109655,-8.98541713,0.23271186,-0.50710472,-3.13930484

>  <Name>
ligand

>  <RI>
0

>  <Rbt.Current_Directory>
/home/itssahil/PROJECTS/Mol_Feturizer/New_Systems/rnas/4XWF

>  <Rbt.Executable>
rbdock ($Id: //depot/dev/client3/rdock/2013.1/src/exe/rbdock.cxx#4 $)

>  <Rbt.Library>
libRbt.so (2013.1, Build901 2013/11/27)

>  <Rbt.Parameter_File>
/export/apps/rDock/src/rDock_2013.1_src/data/scripts/dock_solv.prm

>  <Rbt.Receptor>
prm/pocket_docking_6.prm

>  <SCORE>
-9.97453

>  <SCORE.INTER>
-9.07052

>  <SCORE.INTER.CONST>
1

>  <SCORE.INTER.POLAR>
0

>  <SCORE.INTER.ROT>
5

>  <SCORE.INTER.SOLV>
10.5277

>  <SCORE.INTER.VDW>
-16.4896

>  <SCORE.INTER.norm>
-0.412296

>  <SCORE.INTRA>
-0.904014

>  <SCORE.INTRA.DIHEDRAL>
-1.41428

>  <SCORE.INTRA.DIHEDRAL.0>
3.49807

>  <SCORE.INTRA.POLAR>
0

>  <SCORE.INTRA.POLAR.0>
0

>  <SCORE.INTRA.REPUL>
0

>  <SCORE.INTRA.REPUL.0>
0

>  <SCORE.INTRA.SOLV>
-0.664583

>  <SCORE.INTRA.SOLV.lig_0>
-73.062

>  <SCORE.INTRA.VDW>
0.135416

>  <SCORE.INTRA.VDW.0>
-1.83782

>  <SCORE.INTRA.norm>
-0.0410916

>  <SCORE.RESTR>
0

>  <SCORE.RESTR.CAVITY>
0

>  <SCORE.RESTR.norm>
0

>  <SCORE.SYSTEM>
0

>  <SCORE.SYSTEM.CONST>
0

>  <SCORE.SYSTEM.DIHEDRAL>
0

>  <SCORE.SYSTEM.SOLV>
0

>  <SCORE.SYSTEM.norm>
0

>  <SCORE.heavy>
22

>  <SCORE.norm>
-0.453388

>  <RMSD>
7.367

$$$$
ligand
 OpenBabel11021811513D
libRbt.so/2013.1/901 2013/11/27
 22 23  0  0  0  0  0  0  0  0999 V2000
  -30.5541    3.3442   -9.9858 N   0  0  0  0  0  0  0  0  0  0  0  0
  -33.8031    3.2194   -9.0472 C   0  0  1  0  0  0  0  0  0  0  0  0
  -32.8487    3.1745  -10.1459 O   0  0  0  0  0  0  0  0  0  0  0  0
  -35.3514    6.0127   -7.0140 P   0  0  1  0  0  0  0  0  0  0  0  0
  -31.6427    2.5608   -9.6628 C   0  0  2  0  0  0  0  0  0  0  0  0
  -29.2026    5.0396  -10.0860 N   0  0  0  0  0  0  0  0  0  0  0  0
  -30.9562    1.5760   -7.6002 O   0  0  0  0  0  0  0  0  0  0  0  0
  -31.7647    2.6017   -8.1883 C   0  0  2  0  0  0  0  0  0  0  0  0
  -26.3235    3.1787  -11.0204 N   0  0  0  0  0  0  0  0  0  0  0  0
  -33.5705    1.0572   -8.1724 O   0  0  0  0  0  0  0  0  0  0  0  0
  -33.1933    2.4274   -7.9567 C   0  0  2  0  0  0  0  0  0  0  0  0
  -28.6425    4.0175  -10.7511 C   0  0  0  0  0  0  0  0  0  0  0  0
  -29.2612    1.6642  -11.2436 N   0  0  0  0  0  0  0  0  0  0  0  0
  -35.0093    4.6708   -7.7494 O   0  0  0  0  0  0  0  0  0  0  0  0
  -33.9599    4.6500   -8.6616 C   0  0  0  0  0  0  0  0  0  0  0  0
  -35.5804    7.0221   -8.1969 O   0  0  0  0  0  0  0  0  0  0  0  0
  -30.3931    4.6203   -9.6167 C   0  0  0  0  0  0  0  0  0  0  0  0
  -27.1287    4.8396  -12.3541 O   0  0  0  0  0  0  0  0  0  0  0  0
  -27.3364    4.0477  -11.4350 C   0  0  0  0  0  0  0  0  0  0  0  0
  -29.4863    2.9453  -10.6898 C   0  0  0  0  0  0  0  0  0  0  0  0
  -36.5380    5.8132   -6.1308 O   0  5  0  0  0  0  0  0  0  0  0  0
  -34.3060    6.3512   -6.0315 O   0  0  0  0  0  0  0  0  0  0  0  0
  1 17  1  0  0  0  0
  1 20  1  0  0  0  0
  2 15  1  1  0  0  0
  2  3  1  0  0  0  0
  2 11  1  0  0  0  0
  3  5  1  0  0  0  0
  4 16  1  6  0  0  0
  4 21  1  0  0  0  0
  4 22  2  0  0  0  0
  4 14  1  0  0  0  0
  5  1  1  1  0  0  0
  5  8  1  0  0  0  0
  6 17  2  0  0  0  0
  6 12  1  0  0  0  0
  8  7  1  1  0  0  0
  8 11  1  0  0  0  0
  9 19  1  0  0  0  0
 11 10  1  6  0  0  0
 12 20  2  0  0  0  0
 12 19  1  0  0  0  0
 13 20  1  0  0  0  0
 14 15  1  0  0  0  0
 18 19  2  0  0  0  0
M  CHG  1  21  -1
M  END
>  <CHROM.1>
57.99881745,171.80896744,55.27720578,173.57204240,118.93475112,-31.99530364
4.00205013,-8.98681111,0.21761985,-0.51199914,3.09244762

>  <Name>
ligand

>  <RI>
0

>  <Rbt.Current_Directory>
/home/itssahil/PROJECTS/Mol_Feturizer/New_Systems/rnas/4XWF

>  <Rbt.Executable>
rbdock ($Id: //depot/dev/client3/rdock/2013.1/src/exe/rbdock.cxx#4 $)

>  <Rbt.Library>
libRbt.so (2013.1, Build901 2013/11/27)

>  <Rbt.Parameter_File>
/export/apps/rDock/src/rDock_2013.1_src/data/scripts/dock_solv.prm

>  <Rbt.Receptor>
prm/pocket_docking_8.prm

>  <SCORE>
-9.85871

>  <SCORE.INTER>
-8.88604

>  <SCORE.INTER.CONST>
1

>  <SCORE.INTER.POLAR>
0

>  <SCORE.INTER.ROT>
5

>  <SCORE.INTER.SOLV>
10.6213

>  <SCORE.INTER.VDW>
-16.3978

>  <SCORE.INTER.norm>
-0.403911

>  <SCORE.INTRA>
-0.972675

>  <SCORE.INTRA.DIHEDRAL>
-1.50238

>  <SCORE.INTRA.DIHEDRAL.0>
3.49807

>  <SCORE.INTRA.POLAR>
0

>  <SCORE.INTRA.POLAR.0>
0

>  <SCORE.INTRA.REPUL>
0

>  <SCORE.INTRA.REPUL.0>
0

>  <SCORE.INTRA.SOLV>
-0.69311

>  <SCORE.INTRA.SOLV.lig_0>
-73.062

>  <SCORE.INTRA.VDW>
0.125071

>  <SCORE.INTRA.VDW.0>
-1.83782

>  <SCORE.INTRA.norm>
-0.0442125

>  <SCORE.RESTR>
0

>  <SCORE.RESTR.CAVITY>
0

>  <SCORE.RESTR.norm>
0

>  <SCORE.SYSTEM>
0

>  <SCORE.SYSTEM.CONST>
0

>  <SCORE.SYSTEM.DIHEDRAL>
0

>  <SCORE.SYSTEM.SOLV>
0

>  <SCORE.SYSTEM.norm>
0

>  <SCORE.heavy>
22

>  <SCORE.norm>
-0.448123

>  <RMSD>
7.371

$$$$
ligand
 OpenBabel11021811513D
libRbt.so/2013.1/901 2013/11/27
 22 23  0  0  0  0  0  0  0  0999 V2000
  -30.5636    3.3647   -9.9944 N   0  0  0  0  0  0  0  0  0  0  0  0
  -33.8102    3.1963   -9.0541 C   0  0  1  0  0  0  0  0  0  0  0  0
  -32.8552    3.1567  -10.1525 O   0  0  0  0  0  0  0  0  0  0  0  0
  -35.3519    5.9647   -6.9889 P   0  0  1  0  0  0  0  0  0  0  0  0
  -31.6396    2.5669   -9.6640 C   0  0  2  0  0  0  0  0  0  0  0  0
  -29.2249    5.0706  -10.0868 N   0  0  0  0  0  0  0  0  0  0  0  0
  -30.9372    1.6123   -7.5925 O   0  0  0  0  0  0  0  0  0  0  0  0
  -31.7621    2.6195   -8.1899 C   0  0  2  0  0  0  0  0  0  0  0  0
  -27.3634    3.9724  -12.8927 N   0  0  0  0  0  0  0  0  0  0  0  0
  -33.5429    1.0463   -8.1594 O   0  0  0  0  0  0  0  0  0  0  0  0
  -33.1877    2.4243   -7.9564 C   0  0  2  0  0  0  0  0  0  0  0  0
  -28.6751    4.0681  -10.7893 C   0  0  0  0  0  0  0  0  0  0  0  0
  -29.2919    1.7232  -11.3226 N   0  0  0  0  0  0  0  0  0  0  0  0
  -35.0354    4.6394   -7.7648 O   0  0  0  0  0  0  0  0  0  0  0  0
  -33.9899    4.6277   -8.6816 C   0  0  0  0  0  0  0  0  0  0  0  0
  -35.6101    7.0023   -8.1409 O   0  0  0  0  0  0  0  0  0  0  0  0
  -30.4012    4.6327   -9.5991 C   0  0  0  0  0  0  0  0  0  0  0  0
  -26.3339    4.2843  -10.8856 O   0  0  0  0  0  0  0  0  0  0  0  0
  -27.3862    4.1228  -11.5035 C   0  0  0  0  0  0  0  0  0  0  0  0
  -29.5109    2.9894  -10.7332 C   0  0  0  0  0  0  0  0  0  0  0  0
  -36.5141    5.7480   -6.0777 O   0  5  0  0  0  0  0  0  0  0  0  0
  -34.2783    6.2767   -6.0284 O   0  0  0  0  0  0  0  0  0  0  0  0
  1 17  1  0  0  0  0
  1 20  1  0  0  0  0
  2 15  1  1  0  0  0
  2  3  1  0  0  0  0
  2 11  1  0  0  0  0
  3  5  1  0  0  0  0
  4 16  1  6  0  0  0
  4 21  1  0  0  0  0
  4 22  2  0  0  0  0
  4 14  1  0  0  0  0
  5  1  1  1  0  0  0
  5  8  1  0  0  0  0
  6 17  2  0  0  0  0
  6 12  1  0  0  0  0
  8  7  1  1  0  0  0
  8 11  1  0  0  0  0
  9 19  1  0  0  0  0
 11 10  1  6  0  0  0
 12 20  2  0  0  0  0
 12 19  1  0  0  0  0
 13 20  1  0  0  0  0
 14 15  1  0  0  0  0
 18 19  2  0  0  0  0
M  CHG  1  21  -1
M  END
>  <CHROM.1>
60.40336338,172.07442767,56.89564556,170.59114828,-116.94728308,-32.00719528
4.00572303,-8.99717208,0.22461065,-0.51629263,3.13806677

>  <Name>
ligand

>  <RI>
0

>  <Rbt.Current_Directory>
/home/itssahil/PROJECTS/Mol_Feturizer/New_Systems/rnas/4XWF

>  <Rbt.Executable>
rbdock ($Id: //depot/dev/client3/rdock/2013.1/src/exe/rbdock.cxx#4 $)

>  <Rbt.Library>
libRbt.so (2013.1, Build901 2013/11/27)

>  <Rbt.Parameter_File>
/export/apps/rDock/src/rDock_2013.1_src/data/scripts/dock_solv.prm

>  <Rbt.Receptor>
prm/pocket_docking_6.prm

>  <SCORE>
-9.93632

>  <SCORE.INTER>
-9.07595

>  <SCORE.INTER.CONST>
1

>  <SCORE.INTER.POLAR>
0

>  <SCORE.INTER.ROT>
5

>  <SCORE.INTER.SOLV>
10.8079

>  <SCORE.INTER.VDW>
-16.5866

>  <SCORE.INTER.norm>
-0.412543

>  <SCORE.INTRA>
-0.860369

>  <SCORE.INTRA.DIHEDRAL>
-1.29834

>  <SCORE.INTRA.DIHEDRAL.0>
3.49807

>  <SCORE.INTRA.POLAR>
0

>  <SCORE.INTRA.POLAR.0>
0

>  <SCORE.INTRA.REPUL>
0

>  <SCORE.INTRA.REPUL.0>
0

>  <SCORE.INTRA.SOLV>
-0.683619

>  <SCORE.INTRA.SOLV.lig_0>
-73.062

>  <SCORE.INTRA.VDW>
0.130612

>  <SCORE.INTRA.VDW.0>
-1.83782

>  <SCORE.INTRA.norm>
-0.0391077

>  <SCORE.RESTR>
0

>  <SCORE.RESTR.CAVITY>
0

>  <SCORE.RESTR.norm>
0

>  <SCORE.SYSTEM>
0

>  <SCORE.SYSTEM.CONST>
0

>  <SCORE.SYSTEM.DIHEDRAL>
0

>  <SCORE.SYSTEM.SOLV>
0

>  <SCORE.SYSTEM.norm>
0

>  <SCORE.heavy>
22

>  <SCORE.norm>
-0.451651

>  <RMSD>
7.372

$$$$
ligand
 OpenBabel11021811513D
libRbt.so/2013.1/901 2013/11/27
 22 23  0  0  0  0  0  0  0  0999 V2000
  -31.0341    3.4945   -9.6811 N   0  0  0  0  0  0  0  0  0  0  0  0
  -34.2007    3.9957   -8.5978 C   0  0  1  0  0  0  0  0  0  0  0  0
  -33.3354    3.6446   -9.7149 O   0  0  0  0  0  0  0  0  0  0  0  0
  -35.2078    7.2484   -6.9533 P   0  0  1  0  0  0  0  0  0  0  0  0
  -32.1983    2.9390   -9.1920 C   0  0  2  0  0  0  0  0  0  0  0  0
  -29.4550    4.9281  -10.0841 N   0  0  0  0  0  0  0  0  0  0  0  0
  -31.5236    2.1860   -7.0301 O   0  0  0  0  0  0  0  0  0  0  0  0
  -32.2173    3.2196   -7.7388 C   0  0  2  0  0  0  0  0  0  0  0  0
  -27.9662    3.0301  -12.7214 N   0  0  0  0  0  0  0  0  0  0  0  0
  -34.2165    1.9801   -7.4014 O   0  0  0  0  0  0  0  0  0  0  0  0
  -33.6382    3.2959   -7.4222 C   0  0  2  0  0  0  0  0  0  0  0  0
  -29.1121    3.7584  -10.6452 C   0  0  0  0  0  0  0  0  0  0  0  0
  -30.1172    1.4929  -10.7896 N   0  0  0  0  0  0  0  0  0  0  0  0
  -35.1419    5.7952   -7.5385 O   0  0  0  0  0  0  0  0  0  0  0  0
  -34.1307    5.4754   -8.4379 C   0  0  0  0  0  0  0  0  0  0  0  0
  -36.6738    7.3443   -6.3946 O   0  0  0  0  0  0  0  0  0  0  0  0
  -30.6527    4.7629   -9.4909 C   0  0  0  0  0  0  0  0  0  0  0  0
  -26.7735    3.6760  -10.8922 O   0  0  0  0  0  0  0  0  0  0  0  0
  -27.8770    3.4984  -11.4077 C   0  0  0  0  0  0  0  0  0  0  0  0
  -30.1002    2.8498  -10.3931 C   0  0  0  0  0  0  0  0  0  0  0  0
  -34.1398    7.4250   -5.9256 O   0  5  0  0  0  0  0  0  0  0  0  0
  -34.8068    8.2390   -7.9685 O   0  0  0  0  0  0  0  0  0  0  0  0
  1 17  1  0  0  0  0
  1 20  1  0  0  0  0
  2 15  1  1  0  0  0
  2  3  1  0  0  0  0
  2 11  1  0  0  0  0
  3  5  1  0  0  0  0
  4 16  1  1  0  0  0
  4 21  1  0  0  0  0
  4 22  2  0  0  0  0
  4 14  1  0  0  0  0
  5  1  1  6  0  0  0
  5  8  1  0  0  0  0
  6 17  2  0  0  0  0
  6 12  1  0  0  0  0
  8  7  1  1  0  0  0
  8 11  1  0  0  0  0
  9 19  1  0  0  0  0
 11 10  1  6  0  0  0
 12 20  2  0  0  0  0
 12 19  1  0  0  0  0
 13 20  1  0  0  0  0
 14 15  1  0  0  0  0
 18 19  2  0  0  0  0
M  CHG  1  21  -1
M  END
>  <CHROM.1>
60.20003518,169.43185571,162.37220042,169.96009173,-122.68472433,-32.30123690
4.49946548,-8.74510286,0.41824615,-0.55941243,3.10132939

>  <Name>
ligand

>  <RI>
0

>  <Rbt.Current_Directory>
/home/itssahil/PROJECTS/Mol_Feturizer/New_Systems/rnas/4XWF

>  <Rbt.Executable>
rbdock ($Id: //depot/dev/client3/rdock/2013.1/src/exe/rbdock.cxx#4 $)

>  <Rbt.Library>
libRbt.so (2013.1, Build901 2013/11/27)

>  <Rbt.Parameter_File>
/export/apps/rDock/src/rDock_2013.1_src/data/scripts/dock_solv.prm

>  <Rbt.Receptor>
prm/pocket_docking_8.prm

>  <SCORE>
-8.80738

>  <SCORE.INTER>
-8.69241

>  <SCORE.INTER.CONST>
1

>  <SCORE.INTER.POLAR>
0

>  <SCORE.INTER.ROT>
5

>  <SCORE.INTER.SOLV>
15.5026

>  <SCORE.INTER.VDW>
-17.8958

>  <SCORE.INTER.norm>
-0.39511

>  <SCORE.INTRA>
-0.114973

>  <SCORE.INTRA.DIHEDRAL>
-0.587175

>  <SCORE.INTRA.DIHEDRAL.0>
3.49807

>  <SCORE.INTRA.POLAR>
0

>  <SCORE.INTRA.POLAR.0>
0

>  <SCORE.INTRA.REPUL>
0

>  <SCORE.INTRA.REPUL.0>
0

>  <SCORE.INTRA.SOLV>
0.0309356

>  <SCORE.INTRA.SOLV.lig_0>
-73.062

>  <SCORE.INTRA.VDW>
0.163146

>  <SCORE.INTRA.VDW.0>
-1.83782

>  <SCORE.INTRA.norm>
-0.00522607

>  <SCORE.RESTR>
0

>  <SCORE.RESTR.CAVITY>
0

>  <SCORE.RESTR.norm>
0

>  <SCORE.SYSTEM>
0

>  <SCORE.SYSTEM.CONST>
0

>  <SCORE.SYSTEM.DIHEDRAL>
0

>  <SCORE.SYSTEM.SOLV>
0

>  <SCORE.SYSTEM.norm>
0

>  <SCORE.heavy>
22

>  <SCORE.norm>
-0.400336

>  <RMSD>
7.384

$$$$
ligand
 OpenBabel11021811513D
libRbt.so/2013.1/901 2013/11/27
 22 23  0  0  0  0  0  0  0  0999 V2000
  -30.5109    4.4258   -8.6804 N   0  0  0  0  0  0  0  0  0  0  0  0
  -33.7601    3.7674   -9.3598 C   0  0  1  0  0  0  0  0  0  0  0  0
  -32.5894    4.5761   -9.6688 O   0  0  0  0  0  0  0  0  0  0  0  0
  -35.2212    6.5408   -7.2310 P   0  0  1  0  0  0  0  0  0  0  0  0
  -31.4221    3.7612   -9.4748 C   0  0  2  0  0  0  0  0  0  0  0  0
  -29.6836    5.6781   -7.1124 N   0  0  0  0  0  0  0  0  0  0  0  0
  -31.0304    1.4818   -8.8860 O   0  0  0  0  0  0  0  0  0  0  0  0
  -31.8987    2.6032   -8.6857 C   0  0  2  0  0  0  0  0  0  0  0  0
  -26.4277    5.9394   -8.4877 N   0  0  0  0  0  0  0  0  0  0  0  0
  -33.2267    1.7753  -10.4741 O   0  0  0  0  0  0  0  0  0  0  0  0
  -33.2553    2.3893   -9.1746 C   0  0  2  0  0  0  0  0  0  0  0  0
  -28.6648    5.1260   -7.7890 C   0  0  0  0  0  0  0  0  0  0  0  0
  -28.4418    3.5559   -9.6991 N   0  0  0  0  0  0  0  0  0  0  0  0
  -34.6059    5.6488   -8.3642 O   0  0  0  0  0  0  0  0  0  0  0  0
  -34.3462    4.3082   -8.1012 C   0  0  0  0  0  0  0  0  0  0  0  0
  -36.6999    6.0185   -7.1260 O   0  0  0  0  0  0  0  0  0  0  0  0
  -30.8296    5.2460   -7.6723 C   0  0  0  0  0  0  0  0  0  0  0  0
  -26.7389    4.9838   -6.4443 O   0  0  0  0  0  0  0  0  0  0  0  0
  -27.2319    5.3406   -7.5142 C   0  0  0  0  0  0  0  0  0  0  0  0
  -29.1778    4.3337   -8.7761 C   0  0  0  0  0  0  0  0  0  0  0  0
  -34.4198    6.3888   -5.9810 O   0  5  0  0  0  0  0  0  0  0  0  0
  -35.0310    7.9714   -7.5310 O   0  0  0  0  0  0  0  0  0  0  0  0
  1 17  1  0  0  0  0
  1 20  1  0  0  0  0
  2 15  1  1  0  0  0
  2  3  1  0  0  0  0
  2 11  1  0  0  0  0
  3  5  1  0  0  0  0
  4 16  1  1  0  0  0
  4 21  1  0  0  0  0
  4 22  2  0  0  0  0
  4 14  1  0  0  0  0
  5  1  1  1  0  0  0
  5  8  1  0  0  0  0
  6 17  2  0  0  0  0
  6 12  1  0  0  0  0
  8  7  1  6  0  0  0
  8 11  1  0  0  0  0
  9 19  1  0  0  0  0
 11 10  1  6  0  0  0
 12 20  2  0  0  0  0
 12 19  1  0  0  0  0
 13 20  1  0  0  0  0
 14 15  1  0  0  0  0
 18 19  2  0  0  0  0
M  CHG  1  21  -1
M  END
>  <CHROM.1>
34.63104665,56.94772045,-71.64468931,-179.27911161,-117.35053911,-31.90913365
4.74815654,-8.21593199,0.18456203,0.03727914,-2.58083723

>  <Name>
ligand

>  <RI>
0

>  <Rbt.Current_Directory>
/home/itssahil/PROJECTS/Mol_Feturizer/New_Systems/rnas/4XWF

>  <Rbt.Executable>
rbdock ($Id: //depot/dev/client3/rdock/2013.1/src/exe/rbdock.cxx#4 $)

>  <Rbt.Library>
libRbt.so (2013.1, Build901 2013/11/27)

>  <Rbt.Parameter_File>
/export/apps/rDock/src/rDock_2013.1_src/data/scripts/dock_solv.prm

>  <Rbt.Receptor>
prm/pocket_docking_6.prm

>  <SCORE>
-8.50374

>  <SCORE.INTER>
-7.2048

>  <SCORE.INTER.CONST>
1

>  <SCORE.INTER.POLAR>
0

>  <SCORE.INTER.ROT>
5

>  <SCORE.INTER.SOLV>
12.2915

>  <SCORE.INTER.VDW>
-15.8337

>  <SCORE.INTER.norm>
-0.327491

>  <SCORE.INTRA>
-1.29894

>  <SCORE.INTRA.DIHEDRAL>
-1.71846

>  <SCORE.INTRA.DIHEDRAL.0>
3.49807

>  <SCORE.INTRA.POLAR>
0

>  <SCORE.INTRA.POLAR.0>
0

>  <SCORE.INTRA.REPUL>
0

>  <SCORE.INTRA.REPUL.0>
0

>  <SCORE.INTRA.SOLV>
0.0219703

>  <SCORE.INTRA.SOLV.lig_0>
-73.062

>  <SCORE.INTRA.VDW>
-0.450693

>  <SCORE.INTRA.VDW.0>
-1.83782

>  <SCORE.INTRA.norm>
-0.0590427

>  <SCORE.RESTR>
0

>  <SCORE.RESTR.CAVITY>
0

>  <SCORE.RESTR.norm>
0

>  <SCORE.SYSTEM>
0

>  <SCORE.SYSTEM.CONST>
0

>  <SCORE.SYSTEM.DIHEDRAL>
0

>  <SCORE.SYSTEM.SOLV>
0

>  <SCORE.SYSTEM.norm>
0

>  <SCORE.heavy>
22

>  <SCORE.norm>
-0.386534

>  <RMSD>
7.385

$$$$
ligand
 OpenBabel11021811513D
libRbt.so/2013.1/901 2013/11/27
 22 23  0  0  0  0  0  0  0  0999 V2000
  -30.6318    3.3911   -9.9683 N   0  0  0  0  0  0  0  0  0  0  0  0
  -33.8767    3.1943   -9.0278 C   0  0  1  0  0  0  0  0  0  0  0  0
  -32.9200    3.1461  -10.1242 O   0  0  0  0  0  0  0  0  0  0  0  0
  -35.3715    5.9545   -6.9297 P   0  0  1  0  0  0  0  0  0  0  0  0
  -31.6963    2.5846   -9.6225 C   0  0  2  0  0  0  0  0  0  0  0  0
  -29.3074    5.1071  -10.0779 N   0  0  0  0  0  0  0  0  0  0  0  0
  -30.9825    1.6832   -7.5311 O   0  0  0  0  0  0  0  0  0  0  0  0
  -31.8214    2.6656   -8.1499 C   0  0  2  0  0  0  0  0  0  0  0  0
  -27.4741    3.9528  -12.9065 N   0  0  0  0  0  0  0  0  0  0  0  0
  -33.5789    1.0673   -8.0887 O   0  0  0  0  0  0  0  0  0  0  0  0
  -33.2443    2.4543   -7.9138 C   0  0  2  0  0  0  0  0  0  0  0  0
  -28.7619    4.1106  -10.7920 C   0  0  0  0  0  0  0  0  0  0  0  0
  -29.3700    1.7626  -11.3216 N   0  0  0  0  0  0  0  0  0  0  0  0
  -35.1033    4.6426   -7.7456 O   0  0  0  0  0  0  0  0  0  0  0  0
  -34.0780    4.6303   -8.6850 C   0  0  0  0  0  0  0  0  0  0  0  0
  -35.6064    7.0321   -8.0497 O   0  0  0  0  0  0  0  0  0  0  0  0
  -30.4723    4.6592   -9.5722 C   0  0  0  0  0  0  0  0  0  0  0  0
  -26.4324    4.4117  -10.9342 O   0  0  0  0  0  0  0  0  0  0  0  0
  -27.4852    4.1767  -11.5271 C   0  0  0  0  0  0  0  0  0  0  0  0
  -29.5887    3.0256  -10.7252 C   0  0  0  0  0  0  0  0  0  0  0  0
  -36.5325    5.7484   -6.0145 O   0  5  0  0  0  0  0  0  0  0  0  0
  -34.2808    6.2054   -5.9706 O   0  0  0  0  0  0  0  0  0  0  0  0
  1 17  1  0  0  0  0
  1 20  1  0  0  0  0
  2 15  1  1  0  0  0
  2  3  1  0  0  0  0
  2 11  1  0  0  0  0
  3  5  1  0  0  0  0
  4 16  1  6  0  0  0
  4 21  1  0  0  0  0
  4 22  2  0  0  0  0
  4 14  1  0  0  0  0
  5  1  1  6  0  0  0
  5  8  1  0  0  0  0
  6 17  2  0  0  0  0
  6 12  1  0  0  0  0
  8  7  1  1  0  0  0
  8 11  1  0  0  0  0
  9 19  1  0  0  0  0
 11 10  1  6  0  0  0
 12 20  2  0  0  0  0
 12 19  1  0  0  0  0
 13 20  1  0  0  0  0
 14 15  1  0  0  0  0
 18 19  2  0  0  0  0
M  CHG  1  21  -1
M  END
>  <CHROM.1>
62.12316252,173.45237995,56.02116151,166.80805689,-120.64742980,-32.06494977
4.02612669,-8.96786536,0.21823755,-0.52719964,3.14097030

>  <Name>
ligand

>  <RI>
0

>  <Rbt.Current_Directory>
/home/itssahil/PROJECTS/Mol_Feturizer/New_Systems/rnas/4XWF

>  <Rbt.Executable>
rbdock ($Id: //depot/dev/client3/rdock/2013.1/src/exe/rbdock.cxx#4 $)

>  <Rbt.Library>
libRbt.so (2013.1, Build901 2013/11/27)

>  <Rbt.Parameter_File>
/export/apps/rDock/src/rDock_2013.1_src/data/scripts/dock_solv.prm

>  <Rbt.Receptor>
prm/pocket_docking_8.prm

>  <SCORE>
-9.80282

>  <SCORE.INTER>
-9.21084

>  <SCORE.INTER.CONST>
1

>  <SCORE.INTER.POLAR>
0

>  <SCORE.INTER.ROT>
5

>  <SCORE.INTER.SOLV>
11.064

>  <SCORE.INTER.VDW>
-16.7619

>  <SCORE.INTER.norm>
-0.418675

>  <SCORE.INTRA>
-0.591978

>  <SCORE.INTRA.DIHEDRAL>
-0.964837

>  <SCORE.INTRA.DIHEDRAL.0>
3.49807

>  <SCORE.INTRA.POLAR>
0

>  <SCORE.INTRA.POLAR.0>
0

>  <SCORE.INTRA.REPUL>
0

>  <SCORE.INTRA.REPUL.0>
0

>  <SCORE.INTRA.SOLV>
-0.621322

>  <SCORE.INTRA.SOLV.lig_0>
-73.062

>  <SCORE.INTRA.VDW>
0.201102

>  <SCORE.INTRA.VDW.0>
-1.83782

>  <SCORE.INTRA.norm>
-0.0269081

>  <SCORE.RESTR>
0

>  <SCORE.RESTR.CAVITY>
0

>  <SCORE.RESTR.norm>
0

>  <SCORE.SYSTEM>
0

>  <SCORE.SYSTEM.CONST>
0

>  <SCORE.SYSTEM.DIHEDRAL>
0

>  <SCORE.SYSTEM.SOLV>
0

>  <SCORE.SYSTEM.norm>
0

>  <SCORE.heavy>
22

>  <SCORE.norm>
-0.445583

>  <RMSD>
7.398

$$$$
ligand
 OpenBabel11021811513D
libRbt.so/2013.1/901 2013/11/27
 22 23  0  0  0  0  0  0  0  0999 V2000
  -30.4809    4.4402   -8.6737 N   0  0  0  0  0  0  0  0  0  0  0  0
  -33.7365    3.7887   -9.3288 C   0  0  1  0  0  0  0  0  0  0  0  0
  -32.5646    4.5906   -9.6510 O   0  0  0  0  0  0  0  0  0  0  0  0
  -35.2398    6.5665   -7.2356 P   0  0  1  0  0  0  0  0  0  0  0  0
  -31.3992    3.7728   -9.4576 C   0  0  2  0  0  0  0  0  0  0  0  0
  -29.6390    5.6923   -7.1133 N   0  0  0  0  0  0  0  0  0  0  0  0
  -31.0125    1.4966   -8.8534 O   0  0  0  0  0  0  0  0  0  0  0  0
  -31.8754    2.6228   -8.6567 C   0  0  2  0  0  0  0  0  0  0  0  0
  -26.3777    4.2849   -7.2126 N   0  0  0  0  0  0  0  0  0  0  0  0
  -33.2170    1.7860  -10.4307 O   0  0  0  0  0  0  0  0  0  0  0  0
  -33.2357    2.4102   -9.1359 C   0  0  2  0  0  0  0  0  0  0  0  0
  -28.6266    5.1481   -7.8057 C   0  0  0  0  0  0  0  0  0  0  0  0
  -28.4212    3.5850   -9.7235 N   0  0  0  0  0  0  0  0  0  0  0  0
  -34.5829    5.6773   -8.3476 O   0  0  0  0  0  0  0  0  0  0  0  0
  -34.3131    4.3414   -8.0710 C   0  0  0  0  0  0  0  0  0  0  0  0
  -36.7011    5.9961   -7.1365 O   0  0  0  0  0  0  0  0  0  0  0  0
  -30.7903    5.2555   -7.6588 C   0  0  0  0  0  0  0  0  0  0  0  0
  -26.7105    6.5011   -7.6169 O   0  0  0  0  0  0  0  0  0  0  0  0
  -27.1913    5.3699   -7.5500 C   0  0  0  0  0  0  0  0  0  0  0  0
  -29.1487    4.3559   -8.7881 C   0  0  0  0  0  0  0  0  0  0  0  0
  -34.4468    6.4623   -5.9754 O   0  5  0  0  0  0  0  0  0  0  0  0
  -35.0948    7.9975   -7.5578 O   0  0  0  0  0  0  0  0  0  0  0  0
  1 17  1  0  0  0  0
  1 20  1  0  0  0  0
  2 15  1  1  0  0  0
  2  3  1  0  0  0  0
  2 11  1  0  0  0  0
  3  5  1  0  0  0  0
  4 16  1  1  0  0  0
  4 21  1  0  0  0  0
  4 22  2  0  0  0  0
  4 14  1  0  0  0  0
  5  1  1  1  0  0  0
  5  8  1  0  0  0  0
  6 17  2  0  0  0  0
  6 12  1  0  0  0  0
  8  7  1  6  0  0  0
  8 11  1  0  0  0  0
  9 19  1  0  0  0  0
 11 10  1  6  0  0  0
 12 20  2  0  0  0  0
 12 19  1  0  0  0  0
 13 20  1  0  0  0  0
 14 15  1  0  0  0  0
 18 19  2  0  0  0  0
M  CHG  1  21  -1
M  END
>  <CHROM.1>
35.56718561,57.57817675,-69.97389816,178.53805430,118.97476944,-31.89381323
4.77081912,-8.21206167,0.19116579,0.03253164,-2.61311212

>  <Name>
ligand

>  <RI>
0

>  <Rbt.Current_Directory>
/home/itssahil/PROJECTS/Mol_Feturizer/New_Systems/rnas/4XWF

>  <Rbt.Executable>
rbdock ($Id: //depot/dev/client3/rdock/2013.1/src/exe/rbdock.cxx#4 $)

>  <Rbt.Library>
libRbt.so (2013.1, Build901 2013/11/27)

>  <Rbt.Parameter_File>
/export/apps/rDock/src/rDock_2013.1_src/data/scripts/dock_solv.prm

>  <Rbt.Receptor>
prm/pocket_docking_8.prm

>  <SCORE>
-8.57157

>  <SCORE.INTER>
-7.20911

>  <SCORE.INTER.CONST>
1

>  <SCORE.INTER.POLAR>
0

>  <SCORE.INTER.ROT>
5

>  <SCORE.INTER.SOLV>
12.5435

>  <SCORE.INTER.VDW>
-15.9206

>  <SCORE.INTER.norm>
-0.327687

>  <SCORE.INTRA>
-1.36246

>  <SCORE.INTRA.DIHEDRAL>
-1.79263

>  <SCORE.INTRA.DIHEDRAL.0>
3.49807

>  <SCORE.INTRA.POLAR>
0

>  <SCORE.INTRA.POLAR.0>
0

>  <SCORE.INTRA.REPUL>
0

>  <SCORE.INTRA.REPUL.0>
0

>  <SCORE.INTRA.SOLV>
-0.0403465

>  <SCORE.INTRA.SOLV.lig_0>
-73.062

>  <SCORE.INTRA.VDW>
-0.445977

>  <SCORE.INTRA.VDW.0>
-1.83782

>  <SCORE.INTRA.norm>
-0.0619302

>  <SCORE.RESTR>
0

>  <SCORE.RESTR.CAVITY>
0

>  <SCORE.RESTR.norm>
0

>  <SCORE.SYSTEM>
0

>  <SCORE.SYSTEM.CONST>
0

>  <SCORE.SYSTEM.DIHEDRAL>
0

>  <SCORE.SYSTEM.SOLV>
0

>  <SCORE.SYSTEM.norm>
0

>  <SCORE.heavy>
22

>  <SCORE.norm>
-0.389617

>  <RMSD>
7.404

$$$$
ligand
 OpenBabel11021811513D
libRbt.so/2013.1/901 2013/11/27
 22 23  0  0  0  0  0  0  0  0999 V2000
  -30.4945    4.4511   -8.6670 N   0  0  0  0  0  0  0  0  0  0  0  0
  -33.7518    3.8024   -9.3164 C   0  0  1  0  0  0  0  0  0  0  0  0
  -32.5803    4.6043   -9.6394 O   0  0  0  0  0  0  0  0  0  0  0  0
  -35.2513    6.5761   -7.2151 P   0  0  1  0  0  0  0  0  0  0  0  0
  -31.4148    3.7857   -9.4502 C   0  0  2  0  0  0  0  0  0  0  0  0
  -29.6490    5.7030   -7.1085 N   0  0  0  0  0  0  0  0  0  0  0  0
  -31.0279    1.5081   -8.8515 O   0  0  0  0  0  0  0  0  0  0  0  0
  -31.8899    2.6343   -8.6506 C   0  0  2  0  0  0  0  0  0  0  0  0
  -26.3941    4.2837   -7.1975 N   0  0  0  0  0  0  0  0  0  0  0  0
  -33.2357    1.8017  -10.4234 O   0  0  0  0  0  0  0  0  0  0  0  0
  -33.2512    2.4232   -9.1274 C   0  0  2  0  0  0  0  0  0  0  0  0
  -28.6381    5.1535   -7.7991 C   0  0  0  0  0  0  0  0  0  0  0  0
  -28.4374    3.5859   -9.7137 N   0  0  0  0  0  0  0  0  0  0  0  0
  -34.5927    5.6900   -8.3286 O   0  0  0  0  0  0  0  0  0  0  0  0
  -34.3254    4.3528   -8.0562 C   0  0  0  0  0  0  0  0  0  0  0  0
  -36.7140    6.0084   -7.1230 O   0  0  0  0  0  0  0  0  0  0  0  0
  -30.8015    5.2696   -7.6539 C   0  0  0  0  0  0  0  0  0  0  0  0
  -26.7161    6.4988   -7.6162 O   0  0  0  0  0  0  0  0  0  0  0  0
  -27.2021    5.3703   -7.5429 C   0  0  0  0  0  0  0  0  0  0  0  0
  -29.1626    4.3614   -8.7803 C   0  0  0  0  0  0  0  0  0  0  0  0
  -34.4625    6.4651   -5.9528 O   0  5  0  0  0  0  0  0  0  0  0  0
  -35.1022    8.0081   -7.5310 O   0  0  0  0  0  0  0  0  0  0  0  0
  1 17  1  0  0  0  0
  1 20  1  0  0  0  0
  2 15  1  1  0  0  0
  2  3  1  0  0  0  0
  2 11  1  0  0  0  0
  3  5  1  0  0  0  0
  4 16  1  1  0  0  0
  4 21  1  0  0  0  0
  4 22  2  0  0  0  0
  4 14  1  0  0  0  0
  5  1  1  1  0  0  0
  5  8  1  0  0  0  0
  6 17  2  0  0  0  0
  6 12  1  0  0  0  0
  8  7  1  6  0  0  0
  8 11  1  0  0  0  0
  9 19  1  0  0  0  0
 11 10  1  6  0  0  0
 12 20  2  0  0  0  0
 12 19  1  0  0  0  0
 13 20  1  0  0  0  0
 14 15  1  0  0  0  0
 18 19  2  0  0  0  0
M  CHG  1  21  -1
M  END
>  <CHROM.1>
35.22544693,57.45973203,-70.03521334,178.29864361,118.71902612,-31.90687243
4.77980429,-8.20061379,0.19294706,0.03199959,-2.61088591

>  <Name>
ligand

>  <RI>
0

>  <Rbt.Current_Directory>
/home/itssahil/PROJECTS/Mol_Feturizer/New_Systems/rnas/4XWF

>  <Rbt.Executable>
rbdock ($Id: //depot/dev/client3/rdock/2013.1/src/exe/rbdock.cxx#4 $)

>  <Rbt.Library>
libRbt.so (2013.1, Build901 2013/11/27)

>  <Rbt.Parameter_File>
/export/apps/rDock/src/rDock_2013.1_src/data/scripts/dock_solv.prm

>  <Rbt.Receptor>
prm/pocket_docking_8.prm

>  <SCORE>
-8.56088

>  <SCORE.INTER>
-7.2083

>  <SCORE.INTER.CONST>
1

>  <SCORE.INTER.POLAR>
0

>  <SCORE.INTER.ROT>
5

>  <SCORE.INTER.SOLV>
12.5123

>  <SCORE.INTER.VDW>
-15.9096

>  <SCORE.INTER.norm>
-0.32765

>  <SCORE.INTRA>
-1.35258

>  <SCORE.INTRA.DIHEDRAL>
-1.78469

>  <SCORE.INTRA.DIHEDRAL.0>
3.49807

>  <SCORE.INTRA.POLAR>
0

>  <SCORE.INTRA.POLAR.0>
0

>  <SCORE.INTRA.REPUL>
0

>  <SCORE.INTRA.REPUL.0>
0

>  <SCORE.INTRA.SOLV>
-0.0309897

>  <SCORE.INTRA.SOLV.lig_0>
-73.062

>  <SCORE.INTRA.VDW>
-0.444743

>  <SCORE.INTRA.VDW.0>
-1.83782

>  <SCORE.INTRA.norm>
-0.0614811

>  <SCORE.RESTR>
0

>  <SCORE.RESTR.CAVITY>
0

>  <SCORE.RESTR.norm>
0

>  <SCORE.SYSTEM>
0

>  <SCORE.SYSTEM.CONST>
0

>  <SCORE.SYSTEM.DIHEDRAL>
0

>  <SCORE.SYSTEM.SOLV>
0

>  <SCORE.SYSTEM.norm>
0

>  <SCORE.heavy>
22

>  <SCORE.norm>
-0.389131

>  <RMSD>
7.413

$$$$
ligand
 OpenBabel11021811513D
libRbt.so/2013.1/901 2013/11/27
 22 23  0  0  0  0  0  0  0  0999 V2000
  -30.5057    4.4489   -8.6742 N   0  0  0  0  0  0  0  0  0  0  0  0
  -33.7515    3.7512   -9.3302 C   0  0  1  0  0  0  0  0  0  0  0  0
  -32.5930    4.5739   -9.6476 O   0  0  0  0  0  0  0  0  0  0  0  0
  -35.3358    6.4756   -7.2264 P   0  0  1  0  0  0  0  0  0  0  0  0
  -31.4145    3.7732   -9.4621 C   0  0  2  0  0  0  0  0  0  0  0  0
  -29.6826    5.7153   -7.1154 N   0  0  0  0  0  0  0  0  0  0  0  0
  -30.9911    1.4988   -8.8760 O   0  0  0  0  0  0  0  0  0  0  0  0
  -31.8714    2.6097   -8.6695 C   0  0  2  0  0  0  0  0  0  0  0  0
  -26.8526    6.2814   -6.5121 N   0  0  0  0  0  0  0  0  0  0  0  0
  -33.2021    1.7655  -10.4482 O   0  0  0  0  0  0  0  0  0  0  0  0
  -33.2288    2.3793   -9.1486 C   0  0  2  0  0  0  0  0  0  0  0  0
  -28.6619    5.1681   -7.7932 C   0  0  0  0  0  0  0  0  0  0  0  0
  -28.4335    3.5905   -9.6965 N   0  0  0  0  0  0  0  0  0  0  0  0
  -34.6699    5.6053   -8.3478 O   0  0  0  0  0  0  0  0  0  0  0  0
  -34.3350    4.2850   -8.0674 C   0  0  0  0  0  0  0  0  0  0  0  0
  -36.7710    5.8493   -7.0905 O   0  0  0  0  0  0  0  0  0  0  0  0
  -30.8272    5.2715   -7.6689 C   0  0  0  0  0  0  0  0  0  0  0  0
  -26.3688    4.8240   -8.1936 O   0  0  0  0  0  0  0  0  0  0  0  0
  -27.2298    5.3954   -7.5248 C   0  0  0  0  0  0  0  0  0  0  0  0
  -29.1723    4.3669   -8.7745 C   0  0  0  0  0  0  0  0  0  0  0  0
  -34.5110    6.4109   -5.9840 O   0  5  0  0  0  0  0  0  0  0  0  0
  -35.2544    7.9090   -7.5601 O   0  0  0  0  0  0  0  0  0  0  0  0
  1 17  1  0  0  0  0
  1 20  1  0  0  0  0
  2 15  1  1  0  0  0
  2  3  1  0  0  0  0
  2 11  1  0  0  0  0
  3  5  1  0  0  0  0
  4 16  1  1  0  0  0
  4 21  1  0  0  0  0
  4 22  2  0  0  0  0
  4 14  1  0  0  0  0
  5  1  1  1  0  0  0
  5  8  1  0  0  0  0
  6 17  2  0  0  0  0
  6 12  1  0  0  0  0
  8  7  1  6  0  0  0
  8 11  1  0  0  0  0
  9 19  1  0  0  0  0
 11 10  1  6  0  0  0
 12 20  2  0  0  0  0
 12 19  1  0  0  0  0
 13 20  1  0  0  0  0
 14 15  1  0  0  0  0
 18 19  2  0  0  0  0
M  CHG  1  21  -1
M  END
>  <CHROM.1>
34.21883996,59.62501356,-70.32602350,179.24789817,-2.09477154,-31.93461631
4.74518304,-8.20804299,0.17944977,0.02780311,-2.57677018

>  <Name>
ligand

>  <RI>
0

>  <Rbt.Current_Directory>
/home/itssahil/PROJECTS/Mol_Feturizer/New_Systems/rnas/4XWF

>  <Rbt.Executable>
rbdock ($Id: //depot/dev/client3/rdock/2013.1/src/exe/rbdock.cxx#4 $)

>  <Rbt.Library>
libRbt.so (2013.1, Build901 2013/11/27)

>  <Rbt.Parameter_File>
/export/apps/rDock/src/rDock_2013.1_src/data/scripts/dock_solv.prm

>  <Rbt.Receptor>
prm/pocket_docking_8.prm

>  <SCORE>
-8.43366

>  <SCORE.INTER>
-7.20215

>  <SCORE.INTER.CONST>
1

>  <SCORE.INTER.POLAR>
0

>  <SCORE.INTER.ROT>
5

>  <SCORE.INTER.SOLV>
13.0374

>  <SCORE.INTER.VDW>
-16.0806

>  <SCORE.INTER.norm>
-0.32737

>  <SCORE.INTRA>
-1.23151

>  <SCORE.INTRA.DIHEDRAL>
-1.80316

>  <SCORE.INTRA.DIHEDRAL.0>
3.49807

>  <SCORE.INTRA.POLAR>
0

>  <SCORE.INTRA.POLAR.0>
0

>  <SCORE.INTRA.REPUL>
0

>  <SCORE.INTRA.REPUL.0>
0

>  <SCORE.INTRA.SOLV>
-0.0473117

>  <SCORE.INTRA.SOLV.lig_0>
-73.062

>  <SCORE.INTRA.VDW>
-0.306279

>  <SCORE.INTRA.VDW.0>
-1.83782

>  <SCORE.INTRA.norm>
-0.0559779

>  <SCORE.RESTR>
0

>  <SCORE.RESTR.CAVITY>
0

>  <SCORE.RESTR.norm>
0

>  <SCORE.SYSTEM>
0

>  <SCORE.SYSTEM.CONST>
0

>  <SCORE.SYSTEM.DIHEDRAL>
0

>  <SCORE.SYSTEM.SOLV>
0

>  <SCORE.SYSTEM.norm>
0

>  <SCORE.heavy>
22

>  <SCORE.norm>
-0.383348

>  <RMSD>
7.416

$$$$
ligand
 OpenBabel11021811513D
libRbt.so/2013.1/901 2013/11/27
 22 23  0  0  0  0  0  0  0  0999 V2000
  -33.9325    4.6363   -8.4799 N   0  0  0  0  0  0  0  0  0  0  0  0
  -32.1239    1.9522   -9.4684 C   0  0  1  0  0  0  0  0  0  0  0  0
  -33.3361    2.7386   -9.6473 O   0  0  0  0  0  0  0  0  0  0  0  0
  -31.1962   -0.8824   -7.1311 P   0  0  1  0  0  0  0  0  0  0  0  0
  -33.0196    4.1127   -9.3719 C   0  0  2  0  0  0  0  0  0  0  0  0
  -35.3020    6.0184   -7.5181 N   0  0  0  0  0  0  0  0  0  0  0  0
  -31.0321    5.3109   -8.8151 O   0  0  0  0  0  0  0  0  0  0  0  0
  -31.7216    4.0647   -8.6622 C   0  0  2  0  0  0  0  0  0  0  0  0
  -37.2218    5.4411   -5.3384 N   0  0  0  0  0  0  0  0  0  0  0  0
  -30.5594    3.2930  -10.5860 O   0  0  0  0  0  0  0  0  0  0  0  0
  -31.0353    2.9354   -9.2776 C   0  0  2  0  0  0  0  0  0  0  0  0
  -35.3493    4.8525   -6.8554 C   0  0  0  0  0  0  0  0  0  0  0  0
  -34.2613    2.6326   -7.0824 N   0  0  0  0  0  0  0  0  0  0  0  0
  -31.2830    0.1887   -8.2730 O   0  0  0  0  0  0  0  0  0  0  0  0
  -32.3216    1.1132   -8.2530 C   0  0  0  0  0  0  0  0  0  0  0  0
  -29.9965   -1.7921   -7.5827 O   0  0  0  0  0  0  0  0  0  0  0  0
  -34.4162    5.8831   -8.5233 C   0  0  0  0  0  0  0  0  0  0  0  0
  -35.9673    3.5751   -4.9783 O   0  0  0  0  0  0  0  0  0  0  0  0
  -36.1852    4.5664   -5.6747 C   0  0  0  0  0  0  0  0  0  0  0  0
  -34.4919    3.9761   -7.4571 C   0  0  0  0  0  0  0  0  0  0  0  0
  -30.9977   -0.2015   -5.8178 O   0  5  0  0  0  0  0  0  0  0  0  0
  -32.5009   -1.5379   -6.9293 O   0  0  0  0  0  0  0  0  0  0  0  0
  1 17  1  0  0  0  0
  1 20  1  0  0  0  0
  2 15  1  1  0  0  0
  2  3  1  0  0  0  0
  2 11  1  0  0  0  0
  3  5  1  0  0  0  0
  4 16  1  6  0  0  0
  4 21  1  0  0  0  0
  4 22  2  0  0  0  0
  4 14  1  0  0  0  0
  5  1  1  1  0  0  0
  5  8  1  0  0  0  0
  6 17  2  0  0  0  0
  6 12  1  0  0  0  0
  8  7  1  6  0  0  0
  8 11  1  0  0  0  0
  9 19  1  0  0  0  0
 11 10  1  6  0  0  0
 12 20  2  0  0  0  0
 12 19  1  0  0  0  0
 13 20  1  0  0  0  0
 14 15  1  0  0  0  0
 18 19  2  0  0  0  0
M  CHG  1  21  -1
M  END
>  <CHROM.1>
-142.31494654,167.93139737,175.00251853,-179.05826979,13.96619727,-32.91347857
2.54429051,-7.77173512,-2.45783604,-0.67814534,2.60123487

>  <Name>
ligand

>  <RI>
0

>  <Rbt.Current_Directory>
/home/itssahil/PROJECTS/Mol_Feturizer/New_Systems/rnas/4XWF

>  <Rbt.Executable>
rbdock ($Id: //depot/dev/client3/rdock/2013.1/src/exe/rbdock.cxx#4 $)

>  <Rbt.Library>
libRbt.so (2013.1, Build901 2013/11/27)

>  <Rbt.Parameter_File>
/export/apps/rDock/src/rDock_2013.1_src/data/scripts/dock_solv.prm

>  <Rbt.Receptor>
prm/pocket_docking_7.prm

>  <SCORE>
-5.52725

>  <SCORE.INTER>
-7.73792

>  <SCORE.INTER.CONST>
1

>  <SCORE.INTER.POLAR>
0

>  <SCORE.INTER.ROT>
5

>  <SCORE.INTER.SOLV>
13.5665

>  <SCORE.INTER.VDW>
-16.6141

>  <SCORE.INTER.norm>
-0.351724

>  <SCORE.INTRA>
2.21067

>  <SCORE.INTRA.DIHEDRAL>
-1.16532

>  <SCORE.INTRA.DIHEDRAL.0>
3.49807

>  <SCORE.INTRA.POLAR>
0

>  <SCORE.INTRA.POLAR.0>
0

>  <SCORE.INTRA.REPUL>
0

>  <SCORE.INTRA.REPUL.0>
0

>  <SCORE.INTRA.SOLV>
4.73151

>  <SCORE.INTRA.SOLV.lig_0>
-73.062

>  <SCORE.INTRA.VDW>
0.427575

>  <SCORE.INTRA.VDW.0>
-1.83782

>  <SCORE.INTRA.norm>
0.100485

>  <SCORE.RESTR>
0

>  <SCORE.RESTR.CAVITY>
0

>  <SCORE.RESTR.norm>
0

>  <SCORE.SYSTEM>
0

>  <SCORE.SYSTEM.CONST>
0

>  <SCORE.SYSTEM.DIHEDRAL>
0

>  <SCORE.SYSTEM.SOLV>
0

>  <SCORE.SYSTEM.norm>
0

>  <SCORE.heavy>
22

>  <SCORE.norm>
-0.251239

>  <RMSD>
7.418

$$$$
ligand
 OpenBabel11021811513D
libRbt.so/2013.1/901 2013/11/27
 22 23  0  0  0  0  0  0  0  0999 V2000
  -27.9459    1.8348  -14.6498 N   0  0  0  0  0  0  0  0  0  0  0  0
  -28.8773    4.6120  -16.3446 C   0  0  1  0  0  0  0  0  0  0  0  0
  -28.2280    4.0661  -15.1612 O   0  0  0  0  0  0  0  0  0  0  0  0
  -32.4707    4.9949  -17.4526 P   0  0  1  0  0  0  0  0  0  0  0  0
  -27.5901    2.8334  -15.5326 C   0  0  2  0  0  0  0  0  0  0  0  0
  -29.1533    0.5324  -13.4019 N   0  0  0  0  0  0  0  0  0  0  0  0
  -27.3076    1.6230  -17.5700 O   0  0  0  0  0  0  0  0  0  0  0  0
  -28.1943    2.4749  -16.8353 C   0  0  2  0  0  0  0  0  0  0  0  0
  -26.6016   -0.7688  -11.3927 N   0  0  0  0  0  0  0  0  0  0  0  0
  -27.1914    4.3204  -17.9469 O   0  0  0  0  0  0  0  0  0  0  0  0
  -28.4293    3.7652  -17.4717 C   0  0  2  0  0  0  0  0  0  0  0  0
  -27.8778    0.1227  -13.3242 C   0  0  0  0  0  0  0  0  0  0  0  0
  -25.7183    0.8313  -14.3232 N   0  0  0  0  0  0  0  0  0  0  0  0
  -30.9277    5.1426  -17.2166 O   0  0  0  0  0  0  0  0  0  0  0  0
  -30.3472    4.5006  -16.1282 C   0  0  0  0  0  0  0  0  0  0  0  0
  -33.0706    5.1402  -16.0071 O   0  0  0  0  0  0  0  0  0  0  0  0
  -29.1917    1.6003  -14.2215 C   0  0  0  0  0  0  0  0  0  0  0  0
  -27.6470   -2.1708  -12.8512 O   0  0  0  0  0  0  0  0  0  0  0  0
  -27.3856   -1.0135  -12.5234 C   0  0  0  0  0  0  0  0  0  0  0  0
  -27.1119    0.9361  -14.1098 C   0  0  0  0  0  0  0  0  0  0  0  0
  -32.9321    6.0315  -18.4224 O   0  5  0  0  0  0  0  0  0  0  0  0
  -32.7704    3.7515  -18.1853 O   0  0  0  0  0  0  0  0  0  0  0  0
  1 17  1  0  0  0  0
  1 20  1  0  0  0  0
  2 15  1  1  0  0  0
  2  3  1  0  0  0  0
  2 11  1  0  0  0  0
  3  5  1  0  0  0  0
  4 16  1  1  0  0  0
  4 21  1  0  0  0  0
  4 22  2  0  0  0  0
  4 14  1  0  0  0  0
  5  1  1  1  0  0  0
  5  8  1  0  0  0  0
  6 17  2  0  0  0  0
  6 12  1  0  0  0  0
  8  7  1  6  0  0  0
  8 11  1  0  0  0  0
  9 19  1  0  0  0  0
 11 10  1  1  0  0  0
 12 20  2  0  0  0  0
 12 19  1  0  0  0  0
 13 20  1  0  0  0  0
 14 15  1  0  0  0  0
 18 19  2  0  0  0  0
M  CHG  1  21  -1
M  END
>  <CHROM.1>
45.47353443,174.57905331,42.40446330,169.05722525,-109.80622284,-29.21966663
2.72302332,-15.69531475,-0.95100043,0.18848484,-0.81397874

>  <Name>
ligand

>  <RI>
0

>  <Rbt.Current_Directory>
/home/itssahil/PROJECTS/Mol_Feturizer/New_Systems/rnas/4XWF

>  <Rbt.Executable>
rbdock ($Id: //depot/dev/client3/rdock/2013.1/src/exe/rbdock.cxx#4 $)

>  <Rbt.Library>
libRbt.so (2013.1, Build901 2013/11/27)

>  <Rbt.Parameter_File>
/export/apps/rDock/src/rDock_2013.1_src/data/scripts/dock_solv.prm

>  <Rbt.Receptor>
prm/pocket_docking_8.prm

>  <SCORE>
-9.68608

>  <SCORE.INTER>
-9.2892

>  <SCORE.INTER.CONST>
1

>  <SCORE.INTER.POLAR>
0

>  <SCORE.INTER.ROT>
5

>  <SCORE.INTER.SOLV>
12.196

>  <SCORE.INTER.VDW>
-17.1915

>  <SCORE.INTER.norm>
-0.422236

>  <SCORE.INTRA>
-0.396878

>  <SCORE.INTRA.DIHEDRAL>
-0.683836

>  <SCORE.INTRA.DIHEDRAL.0>
3.49807

>  <SCORE.INTRA.POLAR>
0

>  <SCORE.INTRA.POLAR.0>
0

>  <SCORE.INTRA.REPUL>
0

>  <SCORE.INTRA.REPUL.0>
0

>  <SCORE.INTRA.SOLV>
-0.380534

>  <SCORE.INTRA.SOLV.lig_0>
-73.062

>  <SCORE.INTRA.VDW>
0.135307

>  <SCORE.INTRA.VDW.0>
-1.83782

>  <SCORE.INTRA.norm>
-0.0180399

>  <SCORE.RESTR>
0

>  <SCORE.RESTR.CAVITY>
0

>  <SCORE.RESTR.norm>
0

>  <SCORE.SYSTEM>
0

>  <SCORE.SYSTEM.CONST>
0

>  <SCORE.SYSTEM.DIHEDRAL>
0

>  <SCORE.SYSTEM.SOLV>
0

>  <SCORE.SYSTEM.norm>
0

>  <SCORE.heavy>
22

>  <SCORE.norm>
-0.440276

>  <RMSD>
7.442

$$$$
ligand
 OpenBabel11021811513D
libRbt.so/2013.1/901 2013/11/27
 22 23  0  0  0  0  0  0  0  0999 V2000
  -30.6631    3.5014   -9.8775 N   0  0  0  0  0  0  0  0  0  0  0  0
  -33.9065    3.3660   -8.9210 C   0  0  1  0  0  0  0  0  0  0  0  0
  -32.9561    3.2985  -10.0220 O   0  0  0  0  0  0  0  0  0  0  0  0
  -35.5969    6.2212   -7.0955 P   0  0  1  0  0  0  0  0  0  0  0  0
  -31.7406    2.7152   -9.5253 C   0  0  2  0  0  0  0  0  0  0  0  0
  -29.3046    5.1903   -9.9917 N   0  0  0  0  0  0  0  0  0  0  0  0
  -31.0335    1.8040   -7.4359 O   0  0  0  0  0  0  0  0  0  0  0  0
  -31.8571    2.8008   -8.0522 C   0  0  2  0  0  0  0  0  0  0  0  0
  -27.5390    4.2021  -12.8600 N   0  0  0  0  0  0  0  0  0  0  0  0
  -33.6435    1.2354   -7.9800 O   0  0  0  0  0  0  0  0  0  0  0  0
  -33.2825    2.6162   -7.8090 C   0  0  2  0  0  0  0  0  0  0  0  0
  -28.7867    4.1863  -10.7158 C   0  0  0  0  0  0  0  0  0  0  0  0
  -29.4482    1.8540  -11.2508 N   0  0  0  0  0  0  0  0  0  0  0  0
  -35.1963    4.8550   -7.7524 O   0  0  0  0  0  0  0  0  0  0  0  0
  -34.0795    4.8060   -8.5796 C   0  0  0  0  0  0  0  0  0  0  0  0
  -37.1238    6.0312   -6.7746 O   0  0  0  0  0  0  0  0  0  0  0  0
  -30.4737    4.7640   -9.4769 C   0  0  0  0  0  0  0  0  0  0  0  0
  -26.4401    4.2750  -10.8668 O   0  0  0  0  0  0  0  0  0  0  0  0
  -27.5160    4.2298  -11.4630 C   0  0  0  0  0  0  0  0  0  0  0  0
  -29.6350    3.1182  -10.6463 C   0  0  0  0  0  0  0  0  0  0  0  0
  -34.7391    6.4746   -5.9005 O   0  5  0  0  0  0  0  0  0  0  0  0
  -35.2266    7.3493   -7.9689 O   0  0  0  0  0  0  0  0  0  0  0  0
  1 17  1  0  0  0  0
  1 20  1  0  0  0  0
  2 15  1  1  0  0  0
  2  3  1  0  0  0  0
  2 11  1  0  0  0  0
  3  5  1  0  0  0  0
  4 16  1  1  0  0  0
  4 21  1  0  0  0  0
  4 22  2  0  0  0  0
  4 14  1  0  0  0  0
  5  1  1  6  0  0  0
  5  8  1  0  0  0  0
  6 17  2  0  0  0  0
  6 12  1  0  0  0  0
  8  7  1  1  0  0  0
  8 11  1  0  0  0  0
  9 19  1  0  0  0  0
 11 10  1  6  0  0  0
 12 20  2  0  0  0  0
 12 19  1  0  0  0  0
 13 20  1  0  0  0  0
 14 15  1  0  0  0  0
 18 19  2  0  0  0  0
M  CHG  1  21  -1
M  END
>  <CHROM.1>
62.60049967,166.93223986,157.49602244,174.65942366,-111.65482924,-32.14796811
4.18443421,-8.95067614,0.20902826,-0.50667963,3.07244480

>  <Name>
ligand

>  <RI>
0

>  <Rbt.Current_Directory>
/home/itssahil/PROJECTS/Mol_Feturizer/New_Systems/rnas/4XWF

>  <Rbt.Executable>
rbdock ($Id: //depot/dev/client3/rdock/2013.1/src/exe/rbdock.cxx#4 $)

>  <Rbt.Library>
libRbt.so (2013.1, Build901 2013/11/27)

>  <Rbt.Parameter_File>
/export/apps/rDock/src/rDock_2013.1_src/data/scripts/dock_solv.prm

>  <Rbt.Receptor>
prm/pocket_docking_6.prm

>  <SCORE>
-8.96442

>  <SCORE.INTER>
-8.97109

>  <SCORE.INTER.CONST>
1

>  <SCORE.INTER.POLAR>
0

>  <SCORE.INTER.ROT>
5

>  <SCORE.INTER.SOLV>
15.9127

>  <SCORE.INTER.VDW>
-18.2183

>  <SCORE.INTER.norm>
-0.407777

>  <SCORE.INTRA>
0.00667388

>  <SCORE.INTRA.DIHEDRAL>
-0.385245

>  <SCORE.INTRA.DIHEDRAL.0>
3.49807

>  <SCORE.INTRA.POLAR>
0

>  <SCORE.INTRA.POLAR.0>
0

>  <SCORE.INTRA.REPUL>
0

>  <SCORE.INTRA.REPUL.0>
0

>  <SCORE.INTRA.SOLV>
-0.204733

>  <SCORE.INTRA.SOLV.lig_0>
-73.062

>  <SCORE.INTRA.VDW>
0.301662

>  <SCORE.INTRA.VDW.0>
-1.83782

>  <SCORE.INTRA.norm>
0.000303358

>  <SCORE.RESTR>
0

>  <SCORE.RESTR.CAVITY>
0

>  <SCORE.RESTR.norm>
0

>  <SCORE.SYSTEM>
0

>  <SCORE.SYSTEM.CONST>
0

>  <SCORE.SYSTEM.DIHEDRAL>
0

>  <SCORE.SYSTEM.SOLV>
0

>  <SCORE.SYSTEM.norm>
0

>  <SCORE.heavy>
22

>  <SCORE.norm>
-0.407474

>  <RMSD>
7.457

$$$$
ligand
 OpenBabel11021811513D
libRbt.so/2013.1/901 2013/11/27
 22 23  0  0  0  0  0  0  0  0999 V2000
  -30.5713    3.8723   -9.6521 N   0  0  0  0  0  0  0  0  0  0  0  0
  -33.8507    3.3861   -8.9724 C   0  0  1  0  0  0  0  0  0  0  0  0
  -32.8238    3.5151   -9.9965 O   0  0  0  0  0  0  0  0  0  0  0  0
  -35.8761    5.8825   -6.9676 P   0  0  1  0  0  0  0  0  0  0  0  0
  -31.6014    2.9725   -9.4715 C   0  0  2  0  0  0  0  0  0  0  0  0
  -29.4149    5.7080   -9.5904 N   0  0  0  0  0  0  0  0  0  0  0  0
  -30.9676    1.8868   -7.4429 O   0  0  0  0  0  0  0  0  0  0  0  0
  -31.8266    2.8820   -8.0114 C   0  0  2  0  0  0  0  0  0  0  0  0
  -26.2384    4.2134  -10.0512 N   0  0  0  0  0  0  0  0  0  0  0  0
  -33.4769    1.1885   -8.2474 O   0  0  0  0  0  0  0  0  0  0  0  0
  -33.2451    2.5644   -7.9017 C   0  0  2  0  0  0  0  0  0  0  0  0
  -28.6573    4.7543  -10.1535 C   0  0  0  0  0  0  0  0  0  0  0  0
  -28.9366    2.3462  -10.6886 N   0  0  0  0  0  0  0  0  0  0  0  0
  -35.3011    4.6217   -7.7013 O   0  0  0  0  0  0  0  0  0  0  0  0
  -34.1666    4.7611   -8.4933 C   0  0  0  0  0  0  0  0  0  0  0  0
  -37.3906    5.5171   -6.7594 O   0  0  0  0  0  0  0  0  0  0  0  0
  -30.6060    5.1587   -9.2854 C   0  0  0  0  0  0  0  0  0  0  0  0
  -27.0390    5.7099  -11.5696 O   0  0  0  0  0  0  0  0  0  0  0  0
  -27.2793    4.9296  -10.6484 C   0  0  0  0  0  0  0  0  0  0  0  0
  -29.3776    3.5946  -10.1931 C   0  0  0  0  0  0  0  0  0  0  0  0
  -35.1162    6.1190   -5.7049 O   0  5  0  0  0  0  0  0  0  0  0  0
  -35.5766    7.1102   -7.7263 O   0  0  0  0  0  0  0  0  0  0  0  0
  1 17  1  0  0  0  0
  1 20  1  0  0  0  0
  2 15  1  1  0  0  0
  2  3  1  0  0  0  0
  2 11  1  0  0  0  0
  3  5  1  0  0  0  0
  4 16  1  1  0  0  0
  4 21  1  0  0  0  0
  4 22  2  0  0  0  0
  4 14  1  0  0  0  0
  5  1  1  1  0  0  0
  5  8  1  0  0  0  0
  6 17  2  0  0  0  0
  6 12  1  0  0  0  0
  8  7  1  6  0  0  0
  8 11  1  0  0  0  0
  9 19  1  0  0  0  0
 11 10  1  6  0  0  0
 12 20  2  0  0  0  0
 12 19  1  0  0  0  0
 13 20  1  0  0  0  0
 14 15  1  0  0  0  0
 18 19  2  0  0  0  0
M  CHG  1  21  -1
M  END
>  <CHROM.1>
51.50567632,169.77753717,155.39286502,177.02116761,116.76123843,-32.13808136
4.31686733,-8.71477393,0.12554437,-0.40522009,3.12546856

>  <Name>
ligand

>  <RI>
0

>  <Rbt.Current_Directory>
/home/itssahil/PROJECTS/Mol_Feturizer/New_Systems/rnas/4XWF

>  <Rbt.Executable>
rbdock ($Id: //depot/dev/client3/rdock/2013.1/src/exe/rbdock.cxx#4 $)

>  <Rbt.Library>
libRbt.so (2013.1, Build901 2013/11/27)

>  <Rbt.Parameter_File>
/export/apps/rDock/src/rDock_2013.1_src/data/scripts/dock_solv.prm

>  <Rbt.Receptor>
prm/pocket_docking_6.prm

>  <SCORE>
-8.84716

>  <SCORE.INTER>
-8.62028

>  <SCORE.INTER.CONST>
1

>  <SCORE.INTER.POLAR>
0

>  <SCORE.INTER.ROT>
5

>  <SCORE.INTER.SOLV>
14.3746

>  <SCORE.INTER.VDW>
-17.4717

>  <SCORE.INTER.norm>
-0.391831

>  <SCORE.INTRA>
-0.226876

>  <SCORE.INTRA.DIHEDRAL>
-0.674319

>  <SCORE.INTRA.DIHEDRAL.0>
3.49807

>  <SCORE.INTRA.POLAR>
0

>  <SCORE.INTRA.POLAR.0>
0

>  <SCORE.INTRA.REPUL>
0

>  <SCORE.INTRA.REPUL.0>
0

>  <SCORE.INTRA.SOLV>
0.0676787

>  <SCORE.INTRA.SOLV.lig_0>
-73.062

>  <SCORE.INTRA.VDW>
0.0764443

>  <SCORE.INTRA.VDW.0>
-1.83782

>  <SCORE.INTRA.norm>
-0.0103125

>  <SCORE.RESTR>
0

>  <SCORE.RESTR.CAVITY>
0

>  <SCORE.RESTR.norm>
0

>  <SCORE.SYSTEM>
0

>  <SCORE.SYSTEM.CONST>
0

>  <SCORE.SYSTEM.DIHEDRAL>
0

>  <SCORE.SYSTEM.SOLV>
0

>  <SCORE.SYSTEM.norm>
0

>  <SCORE.heavy>
22

>  <SCORE.norm>
-0.402144

>  <RMSD>
7.618

$$$$
ligand
 OpenBabel11021811513D
libRbt.so/2013.1/901 2013/11/27
 22 23  0  0  0  0  0  0  0  0999 V2000
  -32.2848    4.5502   -9.2033 N   0  0  0  0  0  0  0  0  0  0  0  0
  -32.2805    1.1692   -9.3502 C   0  0  1  0  0  0  0  0  0  0  0  0
  -32.9932    2.4020   -9.6540 O   0  0  0  0  0  0  0  0  0  0  0  0
  -34.3293    0.0543   -6.3695 P   0  0  1  0  0  0  0  0  0  0  0  0
  -32.0201    3.4180   -9.9458 C   0  0  2  0  0  0  0  0  0  0  0  0
  -32.0433    6.4923   -8.2646 N   0  0  0  0  0  0  0  0  0  0  0  0
  -29.6407    3.4794  -10.1210 O   0  0  0  0  0  0  0  0  0  0  0  0
  -30.7423    2.8724   -9.4355 C   0  0  2  0  0  0  0  0  0  0  0  0
  -35.5051    7.1365   -7.8081 N   0  0  0  0  0  0  0  0  0  0  0  0
  -30.6860    1.1466  -11.0682 O   0  0  0  0  0  0  0  0  0  0  0  0
  -30.8620    1.4389   -9.6718 C   0  0  2  0  0  0  0  0  0  0  0  0
  -33.2829    6.0510   -8.0015 C   0  0  0  0  0  0  0  0  0  0  0  0
  -34.6117    4.0338   -8.5751 N   0  0  0  0  0  0  0  0  0  0  0  0
  -33.8137    0.5729   -7.7565 O   0  0  0  0  0  0  0  0  0  0  0  0
  -32.4697    0.9009   -7.8968 C   0  0  0  0  0  0  0  0  0  0  0  0
  -35.8553   -0.2159   -6.6319 O   0  0  0  0  0  0  0  0  0  0  0  0
  -31.4232    5.5549   -9.0065 C   0  0  0  0  0  0  0  0  0  0  0  0
  -34.0895    7.0444   -6.0267 O   0  0  0  0  0  0  0  0  0  0  0  0
  -34.3001    6.7638   -7.2066 C   0  0  0  0  0  0  0  0  0  0  0  0
  -33.4435    4.8299   -8.5918 C   0  0  0  0  0  0  0  0  0  0  0  0
  -33.5476   -1.1500   -5.9613 O   0  5  0  0  0  0  0  0  0  0  0  0
  -33.9876    1.0053   -5.2964 O   0  0  0  0  0  0  0  0  0  0  0  0
  1 17  1  0  0  0  0
  1 20  1  0  0  0  0
  2 15  1  1  0  0  0
  2  3  1  0  0  0  0
  2 11  1  0  0  0  0
  3  5  1  0  0  0  0
  4 16  1  6  0  0  0
  4 21  1  0  0  0  0
  4 22  2  0  0  0  0
  4 14  1  0  0  0  0
  5  1  1  1  0  0  0
  5  8  1  0  0  0  0
  6 17  2  0  0  0  0
  6 12  1  0  0  0  0
  8  7  1  6  0  0  0
  8 11  1  0  0  0  0
  9 19  1  0  0  0  0
 11 10  1  6  0  0  0
 12 20  2  0  0  0  0
 12 19  1  0  0  0  0
 13 20  1  0  0  0  0
 14 15  1  0  0  0  0
 18 19  2  0  0  0  0
M  CHG  1  21  -1
M  END
>  <CHROM.1>
164.22658777,69.04265801,-179.22301212,172.48277714,118.50519421,-33.01167877
2.88170185,-8.13150819,-1.40381063,-0.75612449,3.04821984

>  <Name>
ligand

>  <RI>
0

>  <Rbt.Current_Directory>
/home/itssahil/PROJECTS/Mol_Feturizer/New_Systems/rnas/4XWF

>  <Rbt.Executable>
rbdock ($Id: //depot/dev/client3/rdock/2013.1/src/exe/rbdock.cxx#4 $)

>  <Rbt.Library>
libRbt.so (2013.1, Build901 2013/11/27)

>  <Rbt.Parameter_File>
/export/apps/rDock/src/rDock_2013.1_src/data/scripts/dock_solv.prm

>  <Rbt.Receptor>
prm/pocket_docking_8.prm

>  <SCORE>
-4.89135

>  <SCORE.INTER>
-6.26502

>  <SCORE.INTER.CONST>
1

>  <SCORE.INTER.POLAR>
0

>  <SCORE.INTER.ROT>
5

>  <SCORE.INTER.SOLV>
17.2958

>  <SCORE.INTER.VDW>
-16.8753

>  <SCORE.INTER.norm>
-0.284774

>  <SCORE.INTRA>
1.37367

>  <SCORE.INTRA.DIHEDRAL>
-1.43463

>  <SCORE.INTRA.DIHEDRAL.0>
3.49807

>  <SCORE.INTRA.POLAR>
0

>  <SCORE.INTRA.POLAR.0>
0

>  <SCORE.INTRA.REPUL>
0

>  <SCORE.INTRA.REPUL.0>
0

>  <SCORE.INTRA.SOLV>
2.78959

>  <SCORE.INTRA.SOLV.lig_0>
-73.062

>  <SCORE.INTRA.VDW>
0.696191

>  <SCORE.INTRA.VDW.0>
-1.83782

>  <SCORE.INTRA.norm>
0.0624394

>  <SCORE.RESTR>
0

>  <SCORE.RESTR.CAVITY>
0

>  <SCORE.RESTR.norm>
0

>  <SCORE.SYSTEM>
0

>  <SCORE.SYSTEM.CONST>
0

>  <SCORE.SYSTEM.DIHEDRAL>
0

>  <SCORE.SYSTEM.SOLV>
0

>  <SCORE.SYSTEM.norm>
0

>  <SCORE.heavy>
22

>  <SCORE.norm>
-0.222334

>  <RMSD>
7.658

$$$$
ligand
 OpenBabel11021811513D
libRbt.so/2013.1/901 2013/11/27
 22 23  0  0  0  0  0  0  0  0999 V2000
  -33.1125    1.0372   -7.3113 N   0  0  0  0  0  0  0  0  0  0  0  0
  -32.7494    4.1144   -8.6719 C   0  0  1  0  0  0  0  0  0  0  0  0
  -32.4613    3.2373   -7.5461 O   0  0  0  0  0  0  0  0  0  0  0  0
  -35.4669    6.1318   -6.9818 P   0  0  1  0  0  0  0  0  0  0  0  0
  -32.3262    1.8981   -8.0487 C   0  0  2  0  0  0  0  0  0  0  0  0
  -34.8076    0.2271   -6.2243 N   0  0  0  0  0  0  0  0  0  0  0  0
  -32.3748    0.8915  -10.2121 O   0  0  0  0  0  0  0  0  0  0  0  0
  -32.9156    1.9445   -9.4056 C   0  0  2  0  0  0  0  0  0  0  0  0
  -35.0298   -2.3807   -4.8602 N   0  0  0  0  0  0  0  0  0  0  0  0
  -31.1874    3.3452  -10.2413 O   0  0  0  0  0  0  0  0  0  0  0  0
  -32.5776    3.2803   -9.8815 C   0  0  2  0  0  0  0  0  0  0  0  0
  -33.8468   -0.7090   -6.2602 C   0  0  0  0  0  0  0  0  0  0  0  0
  -31.5673   -0.8814   -7.2285 N   0  0  0  0  0  0  0  0  0  0  0  0
  -34.1785    5.3150   -7.3443 O   0  0  0  0  0  0  0  0  0  0  0  0
  -34.1589    4.5730   -8.5203 C   0  0  0  0  0  0  0  0  0  0  0  0
  -35.5473    7.2033   -8.1289 O   0  0  0  0  0  0  0  0  0  0  0  0
  -34.3463    1.3133   -6.8730 C   0  0  0  0  0  0  0  0  0  0  0  0
  -33.0363   -2.8782   -5.8420 O   0  0  0  0  0  0  0  0  0  0  0  0
  -33.9308   -2.0527   -5.6586 C   0  0  0  0  0  0  0  0  0  0  0  0
  -32.7773   -0.2073   -6.9457 C   0  0  0  0  0  0  0  0  0  0  0  0
  -36.6405    5.2126   -6.9087 O   0  5  0  0  0  0  0  0  0  0  0  0
  -35.3964    6.6308   -5.5966 O   0  0  0  0  0  0  0  0  0  0  0  0
  1 17  1  0  0  0  0
  1 20  1  0  0  0  0
  2 15  1  1  0  0  0
  2  3  1  0  0  0  0
  2 11  1  0  0  0  0
  3  5  1  0  0  0  0
  4 16  1  6  0  0  0
  4 21  1  0  0  0  0
  4 22  2  0  0  0  0
  4 14  1  0  0  0  0
  5  1  1  1  0  0  0
  5  8  1  0  0  0  0
  6 17  2  0  0  0  0
  6 12  1  0  0  0  0
  8  7  1  6  0  0  0
  8 11  1  0  0  0  0
  9 19  1  0  0  0  0
 11 10  1  1  0  0  0
 12 20  2  0  0  0  0
 12 19  1  0  0  0  0
 13 20  1  0  0  0  0
 14 15  1  0  0  0  0
 18 19  2  0  0  0  0
M  CHG  1  21  -1
M  END
>  <CHROM.1>
40.23696241,63.79724503,-64.72631902,171.06344674,-6.85008861,-33.76954909
2.47857853,-7.47905796,-1.24256753,0.80187450,-0.37092189

>  <Name>
ligand

>  <RI>
0

>  <Rbt.Current_Directory>
/home/itssahil/PROJECTS/Mol_Feturizer/New_Systems/rnas/4XWF

>  <Rbt.Executable>
rbdock ($Id: //depot/dev/client3/rdock/2013.1/src/exe/rbdock.cxx#4 $)

>  <Rbt.Library>
libRbt.so (2013.1, Build901 2013/11/27)

>  <Rbt.Parameter_File>
/export/apps/rDock/src/rDock_2013.1_src/data/scripts/dock_solv.prm

>  <Rbt.Receptor>
prm/pocket_docking_8.prm

>  <SCORE>
-8.05055

>  <SCORE.INTER>
-6.92098

>  <SCORE.INTER.CONST>
1

>  <SCORE.INTER.POLAR>
0

>  <SCORE.INTER.ROT>
5

>  <SCORE.INTER.SOLV>
14.4467

>  <SCORE.INTER.VDW>
-16.3629

>  <SCORE.INTER.norm>
-0.31459

>  <SCORE.INTRA>
-1.12957

>  <SCORE.INTRA.DIHEDRAL>
-1.46755

>  <SCORE.INTRA.DIHEDRAL.0>
3.49807

>  <SCORE.INTRA.POLAR>
0

>  <SCORE.INTRA.POLAR.0>
0

>  <SCORE.INTRA.REPUL>
0

>  <SCORE.INTRA.REPUL.0>
0

>  <SCORE.INTRA.SOLV>
-0.364173

>  <SCORE.INTRA.SOLV.lig_0>
-73.062

>  <SCORE.INTRA.VDW>
-0.213707

>  <SCORE.INTRA.VDW.0>
-1.83782

>  <SCORE.INTRA.norm>
-0.0513439

>  <SCORE.RESTR>
0

>  <SCORE.RESTR.CAVITY>
0

>  <SCORE.RESTR.norm>
0

>  <SCORE.SYSTEM>
0

>  <SCORE.SYSTEM.CONST>
0

>  <SCORE.SYSTEM.DIHEDRAL>
0

>  <SCORE.SYSTEM.SOLV>
0

>  <SCORE.SYSTEM.norm>
0

>  <SCORE.heavy>
22

>  <SCORE.norm>
-0.365934

>  <RMSD>
7.681

$$$$
ligand
 OpenBabel11021811513D
libRbt.so/2013.1/901 2013/11/27
 22 23  0  0  0  0  0  0  0  0999 V2000
  -33.1712    1.0237   -7.3223 N   0  0  0  0  0  0  0  0  0  0  0  0
  -32.7301    4.1111   -8.6363 C   0  0  1  0  0  0  0  0  0  0  0  0
  -32.4811    3.2161   -7.5151 O   0  0  0  0  0  0  0  0  0  0  0  0
  -35.4332    6.1840   -7.0002 P   0  0  1  0  0  0  0  0  0  0  0  0
  -32.3552    1.8811   -8.0311 C   0  0  2  0  0  0  0  0  0  0  0  0
  -34.9006    0.2297   -6.2784 N   0  0  0  0  0  0  0  0  0  0  0  0
  -32.3701    0.9014  -10.2073 O   0  0  0  0  0  0  0  0  0  0  0  0
  -32.9129    1.9530   -9.4003 C   0  0  2  0  0  0  0  0  0  0  0  0
  -35.2503   -2.4339   -5.0639 N   0  0  0  0  0  0  0  0  0  0  0  0
  -31.1448    3.3364  -10.1795 O   0  0  0  0  0  0  0  0  0  0  0  0
  -32.5437    3.2889   -9.8519 C   0  0  2  0  0  0  0  0  0  0  0  0
  -33.9582   -0.7249   -6.3145 C   0  0  0  0  0  0  0  0  0  0  0  0
  -31.6663   -0.9270   -7.2472 N   0  0  0  0  0  0  0  0  0  0  0  0
  -34.1735    5.3067   -7.3199 O   0  0  0  0  0  0  0  0  0  0  0  0
  -34.1355    4.5897   -8.5108 C   0  0  0  0  0  0  0  0  0  0  0  0
  -36.6179    5.1543   -7.0816 O   0  0  0  0  0  0  0  0  0  0  0  0
  -34.4065    1.3173   -6.9000 C   0  0  0  0  0  0  0  0  0  0  0  0
  -33.1549   -2.8838   -5.8337 O   0  0  0  0  0  0  0  0  0  0  0  0
  -34.0794   -2.0769   -5.7382 C   0  0  0  0  0  0  0  0  0  0  0  0
  -32.8673   -0.2334   -6.9730 C   0  0  0  0  0  0  0  0  0  0  0  0
  -35.2674    6.8340   -5.6668 O   0  5  0  0  0  0  0  0  0  0  0  0
  -35.4947    7.3549   -7.8935 O   0  0  0  0  0  0  0  0  0  0  0  0
  1 17  1  0  0  0  0
  1 20  1  0  0  0  0
  2 15  1  1  0  0  0
  2  3  1  0  0  0  0
  2 11  1  0  0  0  0
  3  5  1  0  0  0  0
  4 16  1  6  0  0  0
  4 21  1  0  0  0  0
  4 22  2  0  0  0  0
  4 14  1  0  0  0  0
  5  1  1  1  0  0  0
  5  8  1  0  0  0  0
  6 17  2  0  0  0  0
  6 12  1  0  0  0  0
  8  7  1  6  0  0  0
  8 11  1  0  0  0  0
  9 19  1  0  0  0  0
 11 10  1  1  0  0  0
 12 20  2  0  0  0  0
 12 19  1  0  0  0  0
 13 20  1  0  0  0  0
 14 15  1  0  0  0  0
 18 19  2  0  0  0  0
M  CHG  1  21  -1
M  END
>  <CHROM.1>
39.72287686,63.22877238,56.30352203,168.57015887,-1.27091164,-33.79358831
2.48989326,-7.49003581,-1.28337676,0.78468966,-0.32367709

>  <Name>
ligand

>  <RI>
0

>  <Rbt.Current_Directory>
/home/itssahil/PROJECTS/Mol_Feturizer/New_Systems/rnas/4XWF

>  <Rbt.Executable>
rbdock ($Id: //depot/dev/client3/rdock/2013.1/src/exe/rbdock.cxx#4 $)

>  <Rbt.Library>
libRbt.so (2013.1, Build901 2013/11/27)

>  <Rbt.Parameter_File>
/export/apps/rDock/src/rDock_2013.1_src/data/scripts/dock_solv.prm

>  <Rbt.Receptor>
prm/pocket_docking_8.prm

>  <SCORE>
-6.93974

>  <SCORE.INTER>
-5.93416

>  <SCORE.INTER.CONST>
1

>  <SCORE.INTER.POLAR>
0

>  <SCORE.INTER.ROT>
5

>  <SCORE.INTER.SOLV>
16.4583

>  <SCORE.INTER.VDW>
-16.3756

>  <SCORE.INTER.norm>
-0.269735

>  <SCORE.INTRA>
-1.00558

>  <SCORE.INTRA.DIHEDRAL>
-1.30719

>  <SCORE.INTRA.DIHEDRAL.0>
3.49807

>  <SCORE.INTRA.POLAR>
0

>  <SCORE.INTRA.POLAR.0>
0

>  <SCORE.INTRA.REPUL>
0

>  <SCORE.INTRA.REPUL.0>
0

>  <SCORE.INTRA.SOLV>
-0.369494

>  <SCORE.INTRA.SOLV.lig_0>
-73.062

>  <SCORE.INTRA.VDW>
-0.167234

>  <SCORE.INTRA.VDW.0>
-1.83782

>  <SCORE.INTRA.norm>
-0.0457081

>  <SCORE.RESTR>
0

>  <SCORE.RESTR.CAVITY>
0

>  <SCORE.RESTR.norm>
0

>  <SCORE.SYSTEM>
0

>  <SCORE.SYSTEM.CONST>
0

>  <SCORE.SYSTEM.DIHEDRAL>
0

>  <SCORE.SYSTEM.SOLV>
0

>  <SCORE.SYSTEM.norm>
0

>  <SCORE.heavy>
22

>  <SCORE.norm>
-0.315443

>  <RMSD>
7.691

$$$$
ligand
 OpenBabel11021811513D
libRbt.so/2013.1/901 2013/11/27
 22 23  0  0  0  0  0  0  0  0999 V2000
  -32.4583    4.7155   -9.0977 N   0  0  0  0  0  0  0  0  0  0  0  0
  -32.7072    1.3408   -9.1451 C   0  0  1  0  0  0  0  0  0  0  0  0
  -33.2240    2.6086   -9.6405 O   0  0  0  0  0  0  0  0  0  0  0  0
  -33.3156   -0.6791   -5.9978 P   0  0  1  0  0  0  0  0  0  0  0  0
  -32.1274    3.5330   -9.7264 C   0  0  2  0  0  0  0  0  0  0  0  0
  -32.3151    6.7368   -8.3200 N   0  0  0  0  0  0  0  0  0  0  0  0
  -29.7748    3.4050   -9.3455 O   0  0  0  0  0  0  0  0  0  0  0  0
  -31.0516    2.9163   -8.9181 C   0  0  2  0  0  0  0  0  0  0  0  0
  -34.4012    8.3483   -6.9985 N   0  0  0  0  0  0  0  0  0  0  0  0
  -30.7689    1.1167  -10.4441 O   0  0  0  0  0  0  0  0  0  0  0  0
  -31.2351    1.4866   -9.1356 C   0  0  2  0  0  0  0  0  0  0  0  0
  -33.5540    6.2816   -8.0779 C   0  0  0  0  0  0  0  0  0  0  0  0
  -34.7987    4.1831   -8.5367 N   0  0  0  0  0  0  0  0  0  0  0  0
  -32.8615   -0.1264   -7.3931 O   0  0  0  0  0  0  0  0  0  0  0  0
  -33.2467    1.1559   -7.7686 C   0  0  0  0  0  0  0  0  0  0  0  0
  -32.7274   -2.1365   -5.9802 O   0  0  0  0  0  0  0  0  0  0  0  0
  -31.6345    5.7593   -8.9484 C   0  0  0  0  0  0  0  0  0  0  0  0
  -35.7114    6.4929   -7.1624 O   0  0  0  0  0  0  0  0  0  0  0  0
  -34.6276    7.0278   -7.3960 C   0  0  0  0  0  0  0  0  0  0  0  0
  -33.6528    5.0104   -8.5675 C   0  0  0  0  0  0  0  0  0  0  0  0
  -32.8022    0.2098   -4.9142 O   0  5  0  0  0  0  0  0  0  0  0  0
  -34.7731   -0.5380   -5.8292 O   0  0  0  0  0  0  0  0  0  0  0  0
  1 17  1  0  0  0  0
  1 20  1  0  0  0  0
  2 15  1  1  0  0  0
  2  3  1  0  0  0  0
  2 11  1  0  0  0  0
  3  5  1  0  0  0  0
  4 16  1  1  0  0  0
  4 21  1  0  0  0  0
  4 22  2  0  0  0  0
  4 14  1  0  0  0  0
  5  1  1  1  0  0  0
  5  8  1  0  0  0  0
  6 17  2  0  0  0  0
  6 12  1  0  0  0  0
  8  7  1  6  0  0  0
  8 11  1  0  0  0  0
  9 19  1  0  0  0  0
 11 10  1  6  0  0  0
 12 20  2  0  0  0  0
 12 19  1  0  0  0  0
 13 20  1  0  0  0  0
 14 15  1  0  0  0  0
 18 19  2  0  0  0  0
M  CHG  1  21  -1
M  END
>  <CHROM.1>
176.86944166,173.27939910,178.28832398,-177.69482625,2.91677781,-32.91886514
2.78785542,-7.91323518,-1.68851239,-0.76123797,2.84106424

>  <Name>
ligand

>  <RI>
0

>  <Rbt.Current_Directory>
/home/itssahil/PROJECTS/Mol_Feturizer/New_Systems/rnas/4XWF

>  <Rbt.Executable>
rbdock ($Id: //depot/dev/client3/rdock/2013.1/src/exe/rbdock.cxx#4 $)

>  <Rbt.Library>
libRbt.so (2013.1, Build901 2013/11/27)

>  <Rbt.Parameter_File>
/export/apps/rDock/src/rDock_2013.1_src/data/scripts/dock_solv.prm

>  <Rbt.Receptor>
prm/pocket_docking_7.prm

>  <SCORE>
-4.28111

>  <SCORE.INTER>
-5.78031

>  <SCORE.INTER.CONST>
1

>  <SCORE.INTER.POLAR>
0

>  <SCORE.INTER.ROT>
5

>  <SCORE.INTER.SOLV>
15.2102

>  <SCORE.INTER.VDW>
-15.8569

>  <SCORE.INTER.norm>
-0.262741

>  <SCORE.INTRA>
1.4992

>  <SCORE.INTRA.DIHEDRAL>
-1.78459

>  <SCORE.INTRA.DIHEDRAL.0>
3.49807

>  <SCORE.INTRA.POLAR>
0

>  <SCORE.INTRA.POLAR.0>
0

>  <SCORE.INTRA.REPUL>
0

>  <SCORE.INTRA.REPUL.0>
0

>  <SCORE.INTRA.SOLV>
3.00617

>  <SCORE.INTRA.SOLV.lig_0>
-73.062

>  <SCORE.INTRA.VDW>
0.88841

>  <SCORE.INTRA.VDW.0>
-1.83782

>  <SCORE.INTRA.norm>
0.0681456

>  <SCORE.RESTR>
0

>  <SCORE.RESTR.CAVITY>
0

>  <SCORE.RESTR.norm>
0

>  <SCORE.SYSTEM>
0

>  <SCORE.SYSTEM.CONST>
0

>  <SCORE.SYSTEM.DIHEDRAL>
0

>  <SCORE.SYSTEM.SOLV>
0

>  <SCORE.SYSTEM.norm>
0

>  <SCORE.heavy>
22

>  <SCORE.norm>
-0.194596

>  <RMSD>
7.776

$$$$
ligand
 OpenBabel11021811513D
libRbt.so/2013.1/901 2013/11/27
 22 23  0  0  0  0  0  0  0  0999 V2000
  -33.8069    4.9530   -8.5294 N   0  0  0  0  0  0  0  0  0  0  0  0
  -32.3100    2.1298   -9.6435 C   0  0  1  0  0  0  0  0  0  0  0  0
  -33.3305    3.1419   -9.8759 O   0  0  0  0  0  0  0  0  0  0  0  0
  -33.8310    1.3336   -6.2665 P   0  0  1  0  0  0  0  0  0  0  0  0
  -32.8496    4.3881   -9.3466 C   0  0  2  0  0  0  0  0  0  0  0  0
  -35.5689    5.1749   -7.2815 N   0  0  0  0  0  0  0  0  0  0  0  0
  -30.8221    5.1196   -8.3218 O   0  0  0  0  0  0  0  0  0  0  0  0
  -31.7190    4.0124   -8.4684 C   0  0  2  0  0  0  0  0  0  0  0  0
  -36.4936    7.5612   -5.8171 N   0  0  0  0  0  0  0  0  0  0  0  0
  -30.3807    3.2909  -10.2947 O   0  0  0  0  0  0  0  0  0  0  0  0
  -31.1271    2.8636   -9.1429 C   0  0  2  0  0  0  0  0  0  0  0  0
  -34.8989    6.3375   -7.2709 C   0  0  0  0  0  0  0  0  0  0  0  0
  -32.8010    7.1904   -8.2884 N   0  0  0  0  0  0  0  0  0  0  0  0
  -33.2764    2.0044   -7.5707 O   0  0  0  0  0  0  0  0  0  0  0  0
  -32.8473    1.1940   -8.6161 C   0  0  0  0  0  0  0  0  0  0  0  0
  -35.0031    0.4309   -6.7976 O   0  0  0  0  0  0  0  0  0  0  0  0
  -34.8913    4.3182   -8.0692 C   0  0  0  0  0  0  0  0  0  0  0  0
  -34.5954    8.5649   -6.5753 O   0  0  0  0  0  0  0  0  0  0  0  0
  -35.2978    7.5547   -6.5403 C   0  0  0  0  0  0  0  0  0  0  0  0
  -33.7865    6.2046   -8.0521 C   0  0  0  0  0  0  0  0  0  0  0  0
  -32.7355    0.5871   -5.5807 O   0  5  0  0  0  0  0  0  0  0  0  0
  -34.1693    2.3536   -5.2577 O   0  0  0  0  0  0  0  0  0  0  0  0
  1 17  1  0  0  0  0
  1 20  1  0  0  0  0
  2 15  1  1  0  0  0
  2  3  1  0  0  0  0
  2 11  1  0  0  0  0
  3  5  1  0  0  0  0
  4 16  1  6  0  0  0
  4 21  1  0  0  0  0
  4 22  2  0  0  0  0
  4 14  1  0  0  0  0
  5  1  1  1  0  0  0
  5  8  1  0  0  0  0
  6 17  2  0  0  0  0
  6 12  1  0  0  0  0
  8  7  1  6  0  0  0
  8 11  1  0  0  0  0
  9 19  1  0  0  0  0
 11 10  1  6  0  0  0
 12 20  2  0  0  0  0
 12 19  1  0  0  0  0
 13 20  1  0  0  0  0
 14 15  1  0  0  0  0
 18 19  2  0  0  0  0
M  CHG  1  21  -1
M  END
>  <CHROM.1>
13.13969035,-51.10457492,-56.54011370,-176.47589358,-2.29536624,-33.46364393
3.89506265,-7.69992271,-2.01199643,-0.76220883,2.92646846

>  <Name>
ligand

>  <RI>
0

>  <Rbt.Current_Directory>
/home/itssahil/PROJECTS/Mol_Feturizer/New_Systems/rnas/4XWF

>  <Rbt.Executable>
rbdock ($Id: //depot/dev/client3/rdock/2013.1/src/exe/rbdock.cxx#4 $)

>  <Rbt.Library>
libRbt.so (2013.1, Build901 2013/11/27)

>  <Rbt.Parameter_File>
/export/apps/rDock/src/rDock_2013.1_src/data/scripts/dock_solv.prm

>  <Rbt.Receptor>
prm/pocket_docking_7.prm

>  <SCORE>
-7.77748

>  <SCORE.INTER>
-8.08363

>  <SCORE.INTER.CONST>
1

>  <SCORE.INTER.POLAR>
0

>  <SCORE.INTER.ROT>
5

>  <SCORE.INTER.SOLV>
13.0911

>  <SCORE.INTER.VDW>
-16.6861

>  <SCORE.INTER.norm>
-0.367438

>  <SCORE.INTRA>
0.306147

>  <SCORE.INTRA.DIHEDRAL>
-1.64142

>  <SCORE.INTRA.DIHEDRAL.0>
3.49807

>  <SCORE.INTRA.POLAR>
0

>  <SCORE.INTRA.POLAR.0>
0

>  <SCORE.INTRA.REPUL>
0

>  <SCORE.INTRA.REPUL.0>
0

>  <SCORE.INTRA.SOLV>
2.21723

>  <SCORE.INTRA.SOLV.lig_0>
-73.062

>  <SCORE.INTRA.VDW>
0.0182427

>  <SCORE.INTRA.VDW.0>
-1.83782

>  <SCORE.INTRA.norm>
0.0139158

>  <SCORE.RESTR>
0

>  <SCORE.RESTR.CAVITY>
0

>  <SCORE.RESTR.norm>
0

>  <SCORE.SYSTEM>
0

>  <SCORE.SYSTEM.CONST>
0

>  <SCORE.SYSTEM.DIHEDRAL>
0

>  <SCORE.SYSTEM.SOLV>
0

>  <SCORE.SYSTEM.norm>
0

>  <SCORE.heavy>
22

>  <SCORE.norm>
-0.353522

>  <RMSD>
7.841

$$$$
ligand
 OpenBabel11021811513D
libRbt.so/2013.1/901 2013/11/27
 22 23  0  0  0  0  0  0  0  0999 V2000
  -33.8606    5.0551   -8.4990 N   0  0  0  0  0  0  0  0  0  0  0  0
  -32.0652    2.4496   -9.6992 C   0  0  1  0  0  0  0  0  0  0  0  0
  -33.1375    3.4048   -9.9390 O   0  0  0  0  0  0  0  0  0  0  0  0
  -33.8181    1.2635   -6.5576 P   0  0  1  0  0  0  0  0  0  0  0  0
  -32.7987    4.6309   -9.2709 C   0  0  2  0  0  0  0  0  0  0  0  0
  -35.7070    5.0333   -7.3583 N   0  0  0  0  0  0  0  0  0  0  0  0
  -30.9246    5.4099   -8.0152 O   0  0  0  0  0  0  0  0  0  0  0  0
  -31.7189    4.2600   -8.3290 C   0  0  2  0  0  0  0  0  0  0  0  0
  -36.9164    7.2121   -5.7812 N   0  0  0  0  0  0  0  0  0  0  0  0
  -30.1833    3.7938  -10.0817 O   0  0  0  0  0  0  0  0  0  0  0  0
  -30.9872    3.2177   -9.0385 C   0  0  2  0  0  0  0  0  0  0  0  0
  -35.1750    6.2621   -7.2709 C   0  0  0  0  0  0  0  0  0  0  0  0
  -33.1311    7.3803   -8.1286 N   0  0  0  0  0  0  0  0  0  0  0  0
  -33.2140    2.0794   -7.7526 O   0  0  0  0  0  0  0  0  0  0  0  0
  -32.6121    1.3934   -8.8018 C   0  0  0  0  0  0  0  0  0  0  0  0
  -34.7019    2.3255   -5.8082 O   0  0  0  0  0  0  0  0  0  0  0  0
  -34.8912    4.2870   -8.1271 C   0  0  0  0  0  0  0  0  0  0  0  0
  -35.2257    8.5112   -6.5807 O   0  0  0  0  0  0  0  0  0  0  0  0
  -35.7520    7.3996   -6.5308 C   0  0  0  0  0  0  0  0  0  0  0  0
  -34.0105    6.2828   -7.9842 C   0  0  0  0  0  0  0  0  0  0  0  0
  -34.5733    0.0881   -7.0828 O   0  5  0  0  0  0  0  0  0  0  0  0
  -32.7512    0.6059   -5.7818 O   0  0  0  0  0  0  0  0  0  0  0  0
  1 17  1  0  0  0  0
  1 20  1  0  0  0  0
  2 15  1  1  0  0  0
  2  3  1  0  0  0  0
  2 11  1  0  0  0  0
  3  5  1  0  0  0  0
  4 16  1  1  0  0  0
  4 21  1  0  0  0  0
  4 22  2  0  0  0  0
  4 14  1  0  0  0  0
  5  1  1  1  0  0  0
  5  8  1  0  0  0  0
  6 17  2  0  0  0  0
  6 12  1  0  0  0  0
  8  7  1  6  0  0  0
  8 11  1  0  0  0  0
  9 19  1  0  0  0  0
 11 10  1  6  0  0  0
 12 20  2  0  0  0  0
 12 19  1  0  0  0  0
 13 20  1  0  0  0  0
 14 15  1  0  0  0  0
 18 19  2  0  0  0  0
M  CHG  1  21  -1
M  END
>  <CHROM.1>
17.06343632,-49.76159905,-165.87613301,-175.93400146,3.66577248,-33.52955317
3.96314022,-7.75502672,-2.07583171,-0.65309338,2.95382282

>  <Name>
ligand

>  <RI>
0

>  <Rbt.Current_Directory>
/home/itssahil/PROJECTS/Mol_Feturizer/New_Systems/rnas/4XWF

>  <Rbt.Executable>
rbdock ($Id: //depot/dev/client3/rdock/2013.1/src/exe/rbdock.cxx#4 $)

>  <Rbt.Library>
libRbt.so (2013.1, Build901 2013/11/27)

>  <Rbt.Parameter_File>
/export/apps/rDock/src/rDock_2013.1_src/data/scripts/dock_solv.prm

>  <Rbt.Receptor>
prm/pocket_docking_8.prm

>  <SCORE>
-7.70922

>  <SCORE.INTER>
-8.05948

>  <SCORE.INTER.CONST>
1

>  <SCORE.INTER.POLAR>
0

>  <SCORE.INTER.ROT>
5

>  <SCORE.INTER.SOLV>
15.6404

>  <SCORE.INTER.VDW>
-17.5198

>  <SCORE.INTER.norm>
-0.36634

>  <SCORE.INTRA>
0.350254

>  <SCORE.INTRA.DIHEDRAL>
-1.27343

>  <SCORE.INTRA.DIHEDRAL.0>
3.49807

>  <SCORE.INTRA.POLAR>
0

>  <SCORE.INTRA.POLAR.0>
0

>  <SCORE.INTRA.REPUL>
0

>  <SCORE.INTRA.REPUL.0>
0

>  <SCORE.INTRA.SOLV>
2.13048

>  <SCORE.INTRA.SOLV.lig_0>
-73.062

>  <SCORE.INTRA.VDW>
-0.0782681

>  <SCORE.INTRA.VDW.0>
-1.83782

>  <SCORE.INTRA.norm>
0.0159206

>  <SCORE.RESTR>
0

>  <SCORE.RESTR.CAVITY>
0

>  <SCORE.RESTR.norm>
0

>  <SCORE.SYSTEM>
0

>  <SCORE.SYSTEM.CONST>
0

>  <SCORE.SYSTEM.DIHEDRAL>
0

>  <SCORE.SYSTEM.SOLV>
0

>  <SCORE.SYSTEM.norm>
0

>  <SCORE.heavy>
22

>  <SCORE.norm>
-0.350419

>  <RMSD>
7.857

$$$$
ligand
 OpenBabel11021811513D
libRbt.so/2013.1/901 2013/11/27
 22 23  0  0  0  0  0  0  0  0999 V2000
  -31.6688    6.2034   -8.1074 N   0  0  0  0  0  0  0  0  0  0  0  0
  -33.6233    3.4410   -8.1448 C   0  0  1  0  0  0  0  0  0  0  0  0
  -32.4669    4.1086   -7.5645 O   0  0  0  0  0  0  0  0  0  0  0  0
  -31.4889    1.2487  -10.3726 P   0  0  1  0  0  0  0  0  0  0  0  0
  -32.7299    5.5210   -7.5492 C   0  0  2  0  0  0  0  0  0  0  0  0
  -29.9284    6.6513   -9.3246 N   0  0  0  0  0  0  0  0  0  0  0  0
  -34.5826    6.9021   -8.1459 O   0  0  0  0  0  0  0  0  0  0  0  0
  -33.8740    5.7004   -8.4710 C   0  0  2  0  0  0  0  0  0  0  0  0
  -30.2144   10.1523   -9.3164 N   0  0  0  0  0  0  0  0  0  0  0  0
  -35.3706    4.5407   -7.0349 O   0  0  0  0  0  0  0  0  0  0  0  0
  -34.6600    4.4872   -8.2832 C   0  0  2  0  0  0  0  0  0  0  0  0
  -30.2672    7.7625   -8.6530 C   0  0  0  0  0  0  0  0  0  0  0  0
  -32.0505    8.3949   -7.0457 N   0  0  0  0  0  0  0  0  0  0  0  0
  -32.2784    1.9098   -9.1901 O   0  0  0  0  0  0  0  0  0  0  0  0
  -33.2023    2.9102   -9.4718 C   0  0  0  0  0  0  0  0  0  0  0  0
  -32.6287    0.7864  -11.3512 O   0  0  0  0  0  0  0  0  0  0  0  0
  -30.7974    5.6823   -8.9789 C   0  0  0  0  0  0  0  0  0  0  0  0
  -28.4264    9.1831   -8.2921 O   0  0  0  0  0  0  0  0  0  0  0  0
  -29.5708    9.0602   -8.7283 C   0  0  0  0  0  0  0  0  0  0  0  0
  -31.3642    7.4892   -7.8867 C   0  0  0  0  0  0  0  0  0  0  0  0
  -30.5351    2.2381  -10.9552 O   0  5  0  0  0  0  0  0  0  0  0  0
  -30.5688    0.2119   -9.8714 O   0  0  0  0  0  0  0  0  0  0  0  0
  1 17  1  0  0  0  0
  1 20  1  0  0  0  0
  2 15  1  6  0  0  0
  2  3  1  0  0  0  0
  2 11  1  0  0  0  0
  3  5  1  0  0  0  0
  4 16  1  6  0  0  0
  4 21  1  0  0  0  0
  4 22  2  0  0  0  0
  4 14  1  0  0  0  0
  5  1  1  6  0  0  0
  5  8  1  0  0  0  0
  6 17  2  0  0  0  0
  6 12  1  0  0  0  0
  8  7  1  1  0  0  0
  8 11  1  0  0  0  0
  9 19  1  0  0  0  0
 11 10  1  1  0  0  0
 12 20  2  0  0  0  0
 12 19  1  0  0  0  0
 13 20  1  0  0  0  0
 14 15  1  0  0  0  0
 18 19  2  0  0  0  0
M  CHG  1  21  -1
M  END
>  <CHROM.1>
24.08124553,67.28274628,-53.43520206,-172.47547757,112.08327426,-31.92218574
4.88230720,-8.87064767,1.35917308,0.39738157,0.31956918

>  <Name>
ligand

>  <RI>
0

>  <Rbt.Current_Directory>
/home/itssahil/PROJECTS/Mol_Feturizer/New_Systems/rnas/4XWF

>  <Rbt.Executable>
rbdock ($Id: //depot/dev/client3/rdock/2013.1/src/exe/rbdock.cxx#4 $)

>  <Rbt.Library>
libRbt.so (2013.1, Build901 2013/11/27)

>  <Rbt.Parameter_File>
/export/apps/rDock/src/rDock_2013.1_src/data/scripts/dock_solv.prm

>  <Rbt.Receptor>
prm/pocket_docking_6.prm

>  <SCORE>
-8.54262

>  <SCORE.INTER>
-7.57097

>  <SCORE.INTER.CONST>
1

>  <SCORE.INTER.POLAR>
0

>  <SCORE.INTER.ROT>
5

>  <SCORE.INTER.SOLV>
15.7044

>  <SCORE.INTER.VDW>
-17.2154

>  <SCORE.INTER.norm>
-0.344135

>  <SCORE.INTRA>
-0.971646

>  <SCORE.INTRA.DIHEDRAL>
-1.43713

>  <SCORE.INTRA.DIHEDRAL.0>
3.49807

>  <SCORE.INTRA.POLAR>
0

>  <SCORE.INTRA.POLAR.0>
0

>  <SCORE.INTRA.REPUL>
0

>  <SCORE.INTRA.REPUL.0>
0

>  <SCORE.INTRA.SOLV>
0.330672

>  <SCORE.INTRA.SOLV.lig_0>
-73.062

>  <SCORE.INTRA.VDW>
-0.418415

>  <SCORE.INTRA.VDW.0>
-1.83782

>  <SCORE.INTRA.norm>
-0.0441657

>  <SCORE.RESTR>
0

>  <SCORE.RESTR.CAVITY>
0

>  <SCORE.RESTR.norm>
0

>  <SCORE.SYSTEM>
0

>  <SCORE.SYSTEM.CONST>
0

>  <SCORE.SYSTEM.DIHEDRAL>
0

>  <SCORE.SYSTEM.SOLV>
0

>  <SCORE.SYSTEM.norm>
0

>  <SCORE.heavy>
22

>  <SCORE.norm>
-0.388301

>  <RMSD>
7.893

$$$$
ligand
 OpenBabel11021811513D
libRbt.so/2013.1/901 2013/11/27
 22 23  0  0  0  0  0  0  0  0999 V2000
  -31.7247    6.2484   -8.1541 N   0  0  0  0  0  0  0  0  0  0  0  0
  -33.6222    3.4464   -8.1274 C   0  0  1  0  0  0  0  0  0  0  0  0
  -32.4730    4.1461   -7.5709 O   0  0  0  0  0  0  0  0  0  0  0  0
  -31.4936    1.2420  -10.3523 P   0  0  1  0  0  0  0  0  0  0  0  0
  -32.7649    5.5529   -7.5732 C   0  0  2  0  0  0  0  0  0  0  0  0
  -29.9717    6.6970   -9.3529 N   0  0  0  0  0  0  0  0  0  0  0  0
  -34.6525    6.8868   -8.1679 O   0  0  0  0  0  0  0  0  0  0  0  0
  -33.9231    5.6952   -8.4837 C   0  0  2  0  0  0  0  0  0  0  0  0
  -30.4655   10.1775   -9.6026 N   0  0  0  0  0  0  0  0  0  0  0  0
  -35.3787    4.5267   -7.0129 O   0  0  0  0  0  0  0  0  0  0  0  0
  -34.6817    4.4690   -8.2688 C   0  0  2  0  0  0  0  0  0  0  0  0
  -30.3931    7.8369   -8.7838 C   0  0  0  0  0  0  0  0  0  0  0  0
  -32.2609    8.4919   -7.2853 N   0  0  0  0  0  0  0  0  0  0  0  0
  -32.2501    1.9354   -9.1668 O   0  0  0  0  0  0  0  0  0  0  0  0
  -33.2059    2.9045   -9.4515 C   0  0  0  0  0  0  0  0  0  0  0  0
  -32.6595    0.7667  -11.2932 O   0  0  0  0  0  0  0  0  0  0  0  0
  -30.7974    5.7104   -8.9549 C   0  0  0  0  0  0  0  0  0  0  0  0
  -28.6319    9.3745   -8.5169 O   0  0  0  0  0  0  0  0  0  0  0  0
  -29.7666    9.1622   -8.9441 C   0  0  0  0  0  0  0  0  0  0  0  0
  -31.4984    7.5630   -8.0298 C   0  0  0  0  0  0  0  0  0  0  0  0
  -30.5469    2.2108  -10.9793 O   0  5  0  0  0  0  0  0  0  0  0  0
  -30.5693    0.2097   -9.8496 O   0  0  0  0  0  0  0  0  0  0  0  0
  1 17  1  0  0  0  0
  1 20  1  0  0  0  0
  2 15  1  6  0  0  0
  2  3  1  0  0  0  0
  2 11  1  0  0  0  0
  3  5  1  0  0  0  0
  4 16  1  6  0  0  0
  4 21  1  0  0  0  0
  4 22  2  0  0  0  0
  4 14  1  0  0  0  0
  5  1  1  6  0  0  0
  5  8  1  0  0  0  0
  6 17  2  0  0  0  0
  6 12  1  0  0  0  0
  8  7  1  1  0  0  0
  8 11  1  0  0  0  0
  9 19  1  0  0  0  0
 11 10  1  1  0  0  0
 12 20  2  0  0  0  0
 12 19  1  0  0  0  0
 13 20  1  0  0  0  0
 14 15  1  0  0  0  0
 18 19  2  0  0  0  0
M  CHG  1  21  -1
M  END
>  <CHROM.1>
19.14305024,66.79778377,-51.29094027,-174.48471493,113.97481564,-31.98221715
4.90974208,-8.91802524,1.38439975,0.42494361,0.28480399

>  <Name>
ligand

>  <RI>
0

>  <Rbt.Current_Directory>
/home/itssahil/PROJECTS/Mol_Feturizer/New_Systems/rnas/4XWF

>  <Rbt.Executable>
rbdock ($Id: //depot/dev/client3/rdock/2013.1/src/exe/rbdock.cxx#4 $)

>  <Rbt.Library>
libRbt.so (2013.1, Build901 2013/11/27)

>  <Rbt.Parameter_File>
/export/apps/rDock/src/rDock_2013.1_src/data/scripts/dock_solv.prm

>  <Rbt.Receptor>
prm/pocket_docking_8.prm

>  <SCORE>
-8.63546

>  <SCORE.INTER>
-7.80037

>  <SCORE.INTER.CONST>
1

>  <SCORE.INTER.POLAR>
0

>  <SCORE.INTER.ROT>
5

>  <SCORE.INTER.SOLV>
16.4609

>  <SCORE.INTER.VDW>
-17.6205

>  <SCORE.INTER.norm>
-0.354562

>  <SCORE.INTRA>
-0.835094

>  <SCORE.INTRA.DIHEDRAL>
-1.56714

>  <SCORE.INTRA.DIHEDRAL.0>
3.49807

>  <SCORE.INTRA.POLAR>
0

>  <SCORE.INTRA.POLAR.0>
0

>  <SCORE.INTRA.REPUL>
0

>  <SCORE.INTRA.REPUL.0>
0

>  <SCORE.INTRA.SOLV>
0.468497

>  <SCORE.INTRA.SOLV.lig_0>
-73.062

>  <SCORE.INTRA.VDW>
-0.285771

>  <SCORE.INTRA.VDW.0>
-1.83782

>  <SCORE.INTRA.norm>
-0.0379588

>  <SCORE.RESTR>
0

>  <SCORE.RESTR.CAVITY>
0

>  <SCORE.RESTR.norm>
0

>  <SCORE.SYSTEM>
0

>  <SCORE.SYSTEM.CONST>
0

>  <SCORE.SYSTEM.DIHEDRAL>
0

>  <SCORE.SYSTEM.SOLV>
0

>  <SCORE.SYSTEM.norm>
0

>  <SCORE.heavy>
22

>  <SCORE.norm>
-0.392521

>  <RMSD>
7.903

$$$$
ligand
 OpenBabel11021811513D
libRbt.so/2013.1/901 2013/11/27
 22 23  0  0  0  0  0  0  0  0999 V2000
  -31.7680    6.2969   -8.0852 N   0  0  0  0  0  0  0  0  0  0  0  0
  -33.6382    3.4765   -8.0768 C   0  0  1  0  0  0  0  0  0  0  0  0
  -32.4923    4.1813   -7.5201 O   0  0  0  0  0  0  0  0  0  0  0  0
  -31.5284    1.2883  -10.3350 P   0  0  1  0  0  0  0  0  0  0  0  0
  -32.7977    5.5851   -7.5053 C   0  0  2  0  0  0  0  0  0  0  0  0
  -30.0320    6.7774   -9.2963 N   0  0  0  0  0  0  0  0  0  0  0  0
  -34.7019    6.9070   -8.0734 O   0  0  0  0  0  0  0  0  0  0  0  0
  -33.9632    5.7259   -8.4068 C   0  0  2  0  0  0  0  0  0  0  0  0
  -28.7168    9.3896   -9.6680 N   0  0  0  0  0  0  0  0  0  0  0  0
  -35.3977    4.5276   -6.9394 O   0  0  0  0  0  0  0  0  0  0  0  0
  -34.7084    4.4902   -8.2002 C   0  0  2  0  0  0  0  0  0  0  0  0
  -30.4520    7.9040   -8.7004 C   0  0  0  0  0  0  0  0  0  0  0  0
  -32.3046    8.5206   -7.1671 N   0  0  0  0  0  0  0  0  0  0  0  0
  -32.2838    1.9658   -9.1396 O   0  0  0  0  0  0  0  0  0  0  0  0
  -33.2253    2.9530   -9.4093 C   0  0  0  0  0  0  0  0  0  0  0  0
  -32.6963    0.7912  -11.2621 O   0  0  0  0  0  0  0  0  0  0  0  0
  -30.8480    5.7791   -8.9074 C   0  0  0  0  0  0  0  0  0  0  0  0
  -30.2844   10.2037   -8.2308 O   0  0  0  0  0  0  0  0  0  0  0  0
  -29.8340    9.2353   -8.8428 C   0  0  0  0  0  0  0  0  0  0  0  0
  -31.5467    7.6100   -7.9385 C   0  0  0  0  0  0  0  0  0  0  0  0
  -30.6085    2.2759  -10.9724 O   0  5  0  0  0  0  0  0  0  0  0  0
  -30.5781    0.2738   -9.8447 O   0  0  0  0  0  0  0  0  0  0  0  0
  1 17  1  0  0  0  0
  1 20  1  0  0  0  0
  2 15  1  6  0  0  0
  2  3  1  0  0  0  0
  2 11  1  0  0  0  0
  3  5  1  0  0  0  0
  4 16  1  6  0  0  0
  4 21  1  0  0  0  0
  4 22  2  0  0  0  0
  4 14  1  0  0  0  0
  5  1  1  6  0  0  0
  5  8  1  0  0  0  0
  6 17  2  0  0  0  0
  6 12  1  0  0  0  0
  8  7  1  1  0  0  0
  8 11  1  0  0  0  0
  9 19  1  0  0  0  0
 11 10  1  1  0  0  0
 12 20  2  0  0  0  0
 12 19  1  0  0  0  0
 13 20  1  0  0  0  0
 14 15  1  0  0  0  0
 18 19  2  0  0  0  0
M  CHG  1  21  -1
M  END
>  <CHROM.1>
19.78121955,68.30296484,-53.72390640,-174.20570171,0.53348054,-32.02240807
4.95519244,-8.85679723,1.39118030,0.45464513,0.30168263

>  <Name>
ligand

>  <RI>
0

>  <Rbt.Current_Directory>
/home/itssahil/PROJECTS/Mol_Feturizer/New_Systems/rnas/4XWF

>  <Rbt.Executable>
rbdock ($Id: //depot/dev/client3/rdock/2013.1/src/exe/rbdock.cxx#4 $)

>  <Rbt.Library>
libRbt.so (2013.1, Build901 2013/11/27)

>  <Rbt.Parameter_File>
/export/apps/rDock/src/rDock_2013.1_src/data/scripts/dock_solv.prm

>  <Rbt.Receptor>
prm/pocket_docking_7.prm

>  <SCORE>
-8.25958

>  <SCORE.INTER>
-7.5218

>  <SCORE.INTER.CONST>
1

>  <SCORE.INTER.POLAR>
0

>  <SCORE.INTER.ROT>
5

>  <SCORE.INTER.SOLV>
15.9094

>  <SCORE.INTER.VDW>
-17.251

>  <SCORE.INTER.norm>
-0.3419

>  <SCORE.INTRA>
-0.737782

>  <SCORE.INTRA.DIHEDRAL>
-1.55376

>  <SCORE.INTRA.DIHEDRAL.0>
3.49807

>  <SCORE.INTRA.POLAR>
0

>  <SCORE.INTRA.POLAR.0>
0

>  <SCORE.INTRA.REPUL>
0

>  <SCORE.INTRA.REPUL.0>
0

>  <SCORE.INTRA.SOLV>
0.42142

>  <SCORE.INTRA.SOLV.lig_0>
-73.062

>  <SCORE.INTRA.VDW>
-0.171612

>  <SCORE.INTRA.VDW.0>
-1.83782

>  <SCORE.INTRA.norm>
-0.0335355

>  <SCORE.RESTR>
0

>  <SCORE.RESTR.CAVITY>
0

>  <SCORE.RESTR.norm>
0

>  <SCORE.SYSTEM>
0

>  <SCORE.SYSTEM.CONST>
0

>  <SCORE.SYSTEM.DIHEDRAL>
0

>  <SCORE.SYSTEM.SOLV>
0

>  <SCORE.SYSTEM.norm>
0

>  <SCORE.heavy>
22

>  <SCORE.norm>
-0.375435

>  <RMSD>
7.962

$$$$
ligand
 OpenBabel11021811513D
libRbt.so/2013.1/901 2013/11/27
 22 23  0  0  0  0  0  0  0  0999 V2000
  -31.8621    6.3830   -8.0863 N   0  0  0  0  0  0  0  0  0  0  0  0
  -33.7139    3.5507   -8.0528 C   0  0  1  0  0  0  0  0  0  0  0  0
  -32.5755    4.2697   -7.4989 O   0  0  0  0  0  0  0  0  0  0  0  0
  -31.6340    1.2915  -10.2694 P   0  0  1  0  0  0  0  0  0  0  0  0
  -32.8901    5.6716   -7.5029 C   0  0  2  0  0  0  0  0  0  0  0  0
  -30.1328    6.8639   -9.3067 N   0  0  0  0  0  0  0  0  0  0  0  0
  -34.7999    6.9739   -8.0969 O   0  0  0  0  0  0  0  0  0  0  0  0
  -34.0517    5.7937   -8.4120 C   0  0  2  0  0  0  0  0  0  0  0  0
  -30.6483   10.3570   -9.4344 N   0  0  0  0  0  0  0  0  0  0  0  0
  -35.4861    4.6041   -6.9373 O   0  0  0  0  0  0  0  0  0  0  0  0
  -34.7901    4.5558   -8.1941 C   0  0  2  0  0  0  0  0  0  0  0  0
  -30.5451    7.9889   -8.7024 C   0  0  0  0  0  0  0  0  0  0  0  0
  -32.3853    8.6038   -7.1536 N   0  0  0  0  0  0  0  0  0  0  0  0
  -32.3809    2.0024   -9.0881 O   0  0  0  0  0  0  0  0  0  0  0  0
  -33.2907    3.0137   -9.3766 C   0  0  0  0  0  0  0  0  0  0  0  0
  -32.8070    0.8151  -11.2009 O   0  0  0  0  0  0  0  0  0  0  0  0
  -30.9493    5.8664   -8.9172 C   0  0  0  0  0  0  0  0  0  0  0  0
  -28.7716    9.5159   -8.4566 O   0  0  0  0  0  0  0  0  0  0  0  0
  -29.9238    9.3189   -8.8424 C   0  0  0  0  0  0  0  0  0  0  0  0
  -31.6356    7.6947   -7.9346 C   0  0  0  0  0  0  0  0  0  0  0  0
  -30.6828    2.2470  -10.9098 O   0  5  0  0  0  0  0  0  0  0  0  0
  -30.7151    0.2578   -9.7597 O   0  0  0  0  0  0  0  0  0  0  0  0
  1 17  1  0  0  0  0
  1 20  1  0  0  0  0
  2 15  1  6  0  0  0
  2  3  1  0  0  0  0
  2 11  1  0  0  0  0
  3  5  1  0  0  0  0
  4 16  1  6  0  0  0
  4 21  1  0  0  0  0
  4 22  2  0  0  0  0
  4 14  1  0  0  0  0
  5  1  1  6  0  0  0
  5  8  1  0  0  0  0
  6 17  2  0  0  0  0
  6 12  1  0  0  0  0
  8  7  1  1  0  0  0
  8 11  1  0  0  0  0
  9 19  1  0  0  0  0
 11 10  1  1  0  0  0
 12 20  2  0  0  0  0
 12 19  1  0  0  0  0
 13 20  1  0  0  0  0
 14 15  1  0  0  0  0
 18 19  2  0  0  0  0
M  CHG  1  21  -1
M  END
>  <CHROM.1>
21.10282677,70.43084730,-53.90232294,-174.88678974,115.47988153,-32.11597555
5.01278668,-8.83674367,1.39063398,0.42627421,0.28270960

>  <Name>
ligand

>  <RI>
0

>  <Rbt.Current_Directory>
/home/itssahil/PROJECTS/Mol_Feturizer/New_Systems/rnas/4XWF

>  <Rbt.Executable>
rbdock ($Id: //depot/dev/client3/rdock/2013.1/src/exe/rbdock.cxx#4 $)

>  <Rbt.Library>
libRbt.so (2013.1, Build901 2013/11/27)

>  <Rbt.Parameter_File>
/export/apps/rDock/src/rDock_2013.1_src/data/scripts/dock_solv.prm

>  <Rbt.Receptor>
prm/pocket_docking_8.prm

>  <SCORE>
-8.74607

>  <SCORE.INTER>
-7.85841

>  <SCORE.INTER.CONST>
1

>  <SCORE.INTER.POLAR>
0

>  <SCORE.INTER.ROT>
5

>  <SCORE.INTER.SOLV>
16.2037

>  <SCORE.INTER.VDW>
-17.5735

>  <SCORE.INTER.norm>
-0.3572

>  <SCORE.INTRA>
-0.887662

>  <SCORE.INTRA.DIHEDRAL>
-1.43846

>  <SCORE.INTRA.DIHEDRAL.0>
3.49807

>  <SCORE.INTRA.POLAR>
0

>  <SCORE.INTRA.POLAR.0>
0

>  <SCORE.INTRA.REPUL>
0

>  <SCORE.INTRA.REPUL.0>
0

>  <SCORE.INTRA.SOLV>
0.368607

>  <SCORE.INTRA.SOLV.lig_0>
-73.062

>  <SCORE.INTRA.VDW>
-0.352734

>  <SCORE.INTRA.VDW.0>
-1.83782

>  <SCORE.INTRA.norm>
-0.0403483

>  <SCORE.RESTR>
0

>  <SCORE.RESTR.CAVITY>
0

>  <SCORE.RESTR.norm>
0

>  <SCORE.SYSTEM>
0

>  <SCORE.SYSTEM.CONST>
0

>  <SCORE.SYSTEM.DIHEDRAL>
0

>  <SCORE.SYSTEM.SOLV>
0

>  <SCORE.SYSTEM.norm>
0

>  <SCORE.heavy>
22

>  <SCORE.norm>
-0.397549

>  <RMSD>
8.012

$$$$
ligand
 OpenBabel11021811513D
libRbt.so/2013.1/901 2013/11/27
 22 23  0  0  0  0  0  0  0  0999 V2000
  -31.9204    6.4719   -8.0871 N   0  0  0  0  0  0  0  0  0  0  0  0
  -33.6675    3.5738   -8.0539 C   0  0  1  0  0  0  0  0  0  0  0  0
  -32.5580    4.3351   -7.4978 O   0  0  0  0  0  0  0  0  0  0  0  0
  -31.5511    1.3352  -10.2582 P   0  0  1  0  0  0  0  0  0  0  0  0
  -32.9237    5.7245   -7.5056 C   0  0  2  0  0  0  0  0  0  0  0  0
  -30.1971    7.0103   -9.2918 N   0  0  0  0  0  0  0  0  0  0  0  0
  -34.8778    6.9549   -8.1084 O   0  0  0  0  0  0  0  0  0  0  0  0
  -34.0860    5.8023   -8.4187 C   0  0  2  0  0  0  0  0  0  0  0  0
  -29.1022    9.7030   -9.8139 N   0  0  0  0  0  0  0  0  0  0  0  0
  -35.4807    4.5637   -6.9463 O   0  0  0  0  0  0  0  0  0  0  0  0
  -34.7792    4.5386   -8.2007 C   0  0  2  0  0  0  0  0  0  0  0  0
  -30.6685    8.1253   -8.7129 C   0  0  0  0  0  0  0  0  0  0  0  0
  -32.5569    8.6820   -7.2004 N   0  0  0  0  0  0  0  0  0  0  0  0
  -32.3026    2.0480   -9.0809 O   0  0  0  0  0  0  0  0  0  0  0  0
  -33.2206    3.0501   -9.3753 C   0  0  0  0  0  0  0  0  0  0  0  0
  -32.7198    0.8692  -11.2002 O   0  0  0  0  0  0  0  0  0  0  0  0
  -30.9733    5.9834   -8.8963 C   0  0  0  0  0  0  0  0  0  0  0  0
  -30.5019   10.4068   -8.1613 O   0  0  0  0  0  0  0  0  0  0  0  0
  -30.1058    9.4797   -8.8674 C   0  0  0  0  0  0  0  0  0  0  0  0
  -31.7556    7.7948   -7.9551 C   0  0  0  0  0  0  0  0  0  0  0  0
  -30.5885    2.2860  -10.8885 O   0  5  0  0  0  0  0  0  0  0  0  0
  -30.6433    0.2940   -9.7441 O   0  0  0  0  0  0  0  0  0  0  0  0
  1 17  1  0  0  0  0
  1 20  1  0  0  0  0
  2 15  1  6  0  0  0
  2  3  1  0  0  0  0
  2 11  1  0  0  0  0
  3  5  1  0  0  0  0
  4 16  1  6  0  0  0
  4 21  1  0  0  0  0
  4 22  2  0  0  0  0
  4 14  1  0  0  0  0
  5  1  1  6  0  0  0
  5  8  1  0  0  0  0
  6 17  2  0  0  0  0
  6 12  1  0  0  0  0
  8  7  1  1  0  0  0
  8 11  1  0  0  0  0
  9 19  1  0  0  0  0
 11 10  1  1  0  0  0
 12 20  2  0  0  0  0
 12 19  1  0  0  0  0
 13 20  1  0  0  0  0
 14 15  1  0  0  0  0
 18 19  2  0  0  0  0
M  CHG  1  21  -1
M  END
>  <CHROM.1>
19.92553215,72.02127670,-52.78988906,-175.99856690,8.67550974,-32.13939772
5.07749598,-8.83953367,1.42893367,0.46353681,0.27023020

>  <Name>
ligand

>  <RI>
0

>  <Rbt.Current_Directory>
/home/itssahil/PROJECTS/Mol_Feturizer/New_Systems/rnas/4XWF

>  <Rbt.Executable>
rbdock ($Id: //depot/dev/client3/rdock/2013.1/src/exe/rbdock.cxx#4 $)

>  <Rbt.Library>
libRbt.so (2013.1, Build901 2013/11/27)

>  <Rbt.Parameter_File>
/export/apps/rDock/src/rDock_2013.1_src/data/scripts/dock_solv.prm

>  <Rbt.Receptor>
prm/pocket_docking_8.prm

>  <SCORE>
-8.3111

>  <SCORE.INTER>
-7.67815

>  <SCORE.INTER.CONST>
1

>  <SCORE.INTER.POLAR>
0

>  <SCORE.INTER.ROT>
5

>  <SCORE.INTER.SOLV>
15.9087

>  <SCORE.INTER.VDW>
-17.355

>  <SCORE.INTER.norm>
-0.349007

>  <SCORE.INTRA>
-0.632941

>  <SCORE.INTRA.DIHEDRAL>
-1.27193

>  <SCORE.INTRA.DIHEDRAL.0>
3.49807

>  <SCORE.INTRA.POLAR>
0

>  <SCORE.INTRA.POLAR.0>
0

>  <SCORE.INTRA.REPUL>
0

>  <SCORE.INTRA.REPUL.0>
0

>  <SCORE.INTRA.SOLV>
0.331845

>  <SCORE.INTRA.SOLV.lig_0>
-73.062

>  <SCORE.INTRA.VDW>
-0.162898

>  <SCORE.INTRA.VDW.0>
-1.83782

>  <SCORE.INTRA.norm>
-0.0287701

>  <SCORE.RESTR>
0

>  <SCORE.RESTR.CAVITY>
0

>  <SCORE.RESTR.norm>
0

>  <SCORE.SYSTEM>
0

>  <SCORE.SYSTEM.CONST>
0

>  <SCORE.SYSTEM.DIHEDRAL>
0

>  <SCORE.SYSTEM.SOLV>
0

>  <SCORE.SYSTEM.norm>
0

>  <SCORE.heavy>
22

>  <SCORE.norm>
-0.377777

>  <RMSD>
8.031

$$$$
ligand
 OpenBabel11021811513D
libRbt.so/2013.1/901 2013/11/27
 22 23  0  0  0  0  0  0  0  0999 V2000
  -32.7107    1.1490   -7.4914 N   0  0  0  0  0  0  0  0  0  0  0  0
  -33.3059    4.4804   -7.4946 C   0  0  1  0  0  0  0  0  0  0  0  0
  -32.5249    3.3818   -6.9440 O   0  0  0  0  0  0  0  0  0  0  0  0
  -36.4730    6.1244   -6.2455 P   0  0  1  0  0  0  0  0  0  0  0  0
  -32.3605    2.3932   -7.9735 C   0  0  2  0  0  0  0  0  0  0  0  0
  -33.9108   -0.5114   -6.7744 N   0  0  0  0  0  0  0  0  0  0  0  0
  -32.9750    2.2297  -10.2739 O   0  0  0  0  0  0  0  0  0  0  0  0
  -33.3703    2.7446   -8.9970 C   0  0  2  0  0  0  0  0  0  0  0  0
  -31.1977   -2.3864   -5.4495 N   0  0  0  0  0  0  0  0  0  0  0  0
  -32.2614    4.7658   -9.5735 O   0  0  0  0  0  0  0  0  0  0  0  0
  -33.4226    4.2004   -8.9424 C   0  0  2  0  0  0  0  0  0  0  0  0
  -32.6328   -0.9153   -6.8390 C   0  0  0  0  0  0  0  0  0  0  0  0
  -30.4770    0.1073   -7.5247 N   0  0  0  0  0  0  0  0  0  0  0  0
  -35.1776    5.7156   -7.0288 O   0  0  0  0  0  0  0  0  0  0  0  0
  -34.6360    4.4514   -6.8237 C   0  0  0  0  0  0  0  0  0  0  0  0
  -37.5949    5.2652   -6.9338 O   0  0  0  0  0  0  0  0  0  0  0  0
  -33.9554    0.7737   -7.1746 C   0  0  0  0  0  0  0  0  0  0  0  0
  -32.5238   -3.2530   -7.0854 O   0  0  0  0  0  0  0  0  0  0  0  0
  -32.1340   -2.2554   -6.4786 C   0  0  0  0  0  0  0  0  0  0  0  0
  -31.8714    0.1239   -7.2926 C   0  0  0  0  0  0  0  0  0  0  0  0
  -36.2875    5.8502   -4.7901 O   0  5  0  0  0  0  0  0  0  0  0  0
  -36.6462    7.5881   -6.2501 O   0  0  0  0  0  0  0  0  0  0  0  0
  1 17  1  0  0  0  0
  1 20  1  0  0  0  0
  2 15  1  1  0  0  0
  2  3  1  0  0  0  0
  2 11  1  0  0  0  0
  3  5  1  0  0  0  0
  4 16  1  6  0  0  0
  4 21  1  0  0  0  0
  4 22  2  0  0  0  0
  4 14  1  0  0  0  0
  5  1  1  1  0  0  0
  5  8  1  0  0  0  0
  6 17  2  0  0  0  0
  6 12  1  0  0  0  0
  8  7  1  6  0  0  0
  8 11  1  0  0  0  0
  9 19  1  0  0  0  0
 11 10  1  6  0  0  0
 12 20  2  0  0  0  0
 12 19  1  0  0  0  0
 13 20  1  0  0  0  0
 14 15  1  0  0  0  0
 18 19  2  0  0  0  0
M  CHG  1  21  -1
M  END
>  <CHROM.1>
68.85487291,161.26923492,-71.85932585,-169.51861104,-119.09592516,-33.78866888
2.69313187,-7.23514895,-0.85234673,0.75879477,-0.48014515

>  <Name>
ligand

>  <RI>
0

>  <Rbt.Current_Directory>
/home/itssahil/PROJECTS/Mol_Feturizer/New_Systems/rnas/4XWF

>  <Rbt.Executable>
rbdock ($Id: //depot/dev/client3/rdock/2013.1/src/exe/rbdock.cxx#4 $)

>  <Rbt.Library>
libRbt.so (2013.1, Build901 2013/11/27)

>  <Rbt.Parameter_File>
/export/apps/rDock/src/rDock_2013.1_src/data/scripts/dock_solv.prm

>  <Rbt.Receptor>
prm/pocket_docking_7.prm

>  <SCORE>
-6.1154

>  <SCORE.INTER>
-6.0068

>  <SCORE.INTER.CONST>
1

>  <SCORE.INTER.POLAR>
0

>  <SCORE.INTER.ROT>
5

>  <SCORE.INTER.SOLV>
14.7361

>  <SCORE.INTER.VDW>
-15.8499

>  <SCORE.INTER.norm>
-0.273037

>  <SCORE.INTRA>
-0.108601

>  <SCORE.INTRA.DIHEDRAL>
-0.0421384

>  <SCORE.INTRA.DIHEDRAL.0>
3.49807

>  <SCORE.INTRA.POLAR>
0

>  <SCORE.INTRA.POLAR.0>
0

>  <SCORE.INTRA.REPUL>
0

>  <SCORE.INTRA.REPUL.0>
0

>  <SCORE.INTRA.SOLV>
-0.926644

>  <SCORE.INTRA.SOLV.lig_0>
-73.062

>  <SCORE.INTRA.VDW>
0.375791

>  <SCORE.INTRA.VDW.0>
-1.83782

>  <SCORE.INTRA.norm>
-0.00493639

>  <SCORE.RESTR>
0

>  <SCORE.RESTR.CAVITY>
0

>  <SCORE.RESTR.norm>
0

>  <SCORE.SYSTEM>
0

>  <SCORE.SYSTEM.CONST>
0

>  <SCORE.SYSTEM.DIHEDRAL>
0

>  <SCORE.SYSTEM.SOLV>
0

>  <SCORE.SYSTEM.norm>
0

>  <SCORE.heavy>
22

>  <SCORE.norm>
-0.277973

>  <RMSD>
8.157

$$$$
ligand
 OpenBabel11021811513D
libRbt.so/2013.1/901 2013/11/27
 22 23  0  0  0  0  0  0  0  0999 V2000
  -32.0402    6.6525   -7.9976 N   0  0  0  0  0  0  0  0  0  0  0  0
  -33.8594    3.8044   -7.8199 C   0  0  1  0  0  0  0  0  0  0  0  0
  -32.7020    4.5441   -7.3369 O   0  0  0  0  0  0  0  0  0  0  0  0
  -31.8350    1.5608  -10.1031 P   0  0  1  0  0  0  0  0  0  0  0  0
  -33.0306    5.9428   -7.3506 C   0  0  2  0  0  0  0  0  0  0  0  0
  -30.3468    7.1161   -9.2738 N   0  0  0  0  0  0  0  0  0  0  0  0
  -34.9807    7.2161   -7.8718 O   0  0  0  0  0  0  0  0  0  0  0  0
  -34.2373    6.0372   -8.2025 C   0  0  2  0  0  0  0  0  0  0  0  0
  -29.6195   10.2909   -7.9375 N   0  0  0  0  0  0  0  0  0  0  0  0
  -35.5842    4.8622   -6.6365 O   0  0  0  0  0  0  0  0  0  0  0  0
  -34.9513    4.7968   -7.9254 C   0  0  2  0  0  0  0  0  0  0  0  0
  -30.7991    8.2633   -8.7446 C   0  0  0  0  0  0  0  0  0  0  0  0
  -32.6456    8.9106   -7.2166 N   0  0  0  0  0  0  0  0  0  0  0  0
  -32.5319    2.2795   -8.8962 O   0  0  0  0  0  0  0  0  0  0  0  0
  -33.4974    3.2467   -9.1533 C   0  0  0  0  0  0  0  0  0  0  0  0
  -33.0451    1.1024  -10.9953 O   0  0  0  0  0  0  0  0  0  0  0  0
  -31.1161    6.1160   -8.8031 C   0  0  0  0  0  0  0  0  0  0  0  0
  -30.3181   10.1268  -10.0986 O   0  0  0  0  0  0  0  0  0  0  0  0
  -30.2359    9.6044   -8.9871 C   0  0  0  0  0  0  0  0  0  0  0  0
  -31.8673    7.9798   -7.9422 C   0  0  0  0  0  0  0  0  0  0  0  0
  -30.8929    2.5045  -10.7736 O   0  5  0  0  0  0  0  0  0  0  0  0
  -30.9139    0.5136   -9.6262 O   0  0  0  0  0  0  0  0  0  0  0  0
  1 17  1  0  0  0  0
  1 20  1  0  0  0  0
  2 15  1  6  0  0  0
  2  3  1  0  0  0  0
  2 11  1  0  0  0  0
  3  5  1  0  0  0  0
  4 16  1  6  0  0  0
  4 21  1  0  0  0  0
  4 22  2  0  0  0  0
  4 14  1  0  0  0  0
  5  1  1  6  0  0  0
  5  8  1  0  0  0  0
  6 17  2  0  0  0  0
  6 12  1  0  0  0  0
  8  7  1  1  0  0  0
  8 11  1  0  0  0  0
  9 19  1  0  0  0  0
 11 10  1  1  0  0  0
 12 20  2  0  0  0  0
 12 19  1  0  0  0  0
 13 20  1  0  0  0  0
 14 15  1  0  0  0  0
 18 19  2  0  0  0  0
M  CHG  1  21  -1
M  END
>  <CHROM.1>
16.99066068,68.53955034,-49.98610973,-175.10245044,-113.36629429,-32.32160173
5.28012763,-8.72811918,1.39334535,0.51050955,0.26456726

>  <Name>
ligand

>  <RI>
0

>  <Rbt.Current_Directory>
/home/itssahil/PROJECTS/Mol_Feturizer/New_Systems/rnas/4XWF

>  <Rbt.Executable>
rbdock ($Id: //depot/dev/client3/rdock/2013.1/src/exe/rbdock.cxx#4 $)

>  <Rbt.Library>
libRbt.so (2013.1, Build901 2013/11/27)

>  <Rbt.Parameter_File>
/export/apps/rDock/src/rDock_2013.1_src/data/scripts/dock_solv.prm

>  <Rbt.Receptor>
prm/pocket_docking_6.prm

>  <SCORE>
-8.62635

>  <SCORE.INTER>
-7.93155

>  <SCORE.INTER.CONST>
1

>  <SCORE.INTER.POLAR>
0

>  <SCORE.INTER.ROT>
5

>  <SCORE.INTER.SOLV>
15.5783

>  <SCORE.INTER.VDW>
-17.4138

>  <SCORE.INTER.norm>
-0.360525

>  <SCORE.INTRA>
-0.694801

>  <SCORE.INTRA.DIHEDRAL>
-1.44618

>  <SCORE.INTRA.DIHEDRAL.0>
3.49807

>  <SCORE.INTRA.POLAR>
0

>  <SCORE.INTRA.POLAR.0>
0

>  <SCORE.INTRA.REPUL>
0

>  <SCORE.INTRA.REPUL.0>
0

>  <SCORE.INTRA.SOLV>
0.513348

>  <SCORE.INTRA.SOLV.lig_0>
-73.062

>  <SCORE.INTRA.VDW>
-0.228383

>  <SCORE.INTRA.VDW.0>
-1.83782

>  <SCORE.INTRA.norm>
-0.0315819

>  <SCORE.RESTR>
0

>  <SCORE.RESTR.CAVITY>
0

>  <SCORE.RESTR.norm>
0

>  <SCORE.SYSTEM>
0

>  <SCORE.SYSTEM.CONST>
0

>  <SCORE.SYSTEM.DIHEDRAL>
0

>  <SCORE.SYSTEM.SOLV>
0

>  <SCORE.SYSTEM.norm>
0

>  <SCORE.heavy>
22

>  <SCORE.norm>
-0.392107

>  <RMSD>
8.172

$$$$
ligand
 OpenBabel11021811513D
libRbt.so/2013.1/901 2013/11/27
 22 23  0  0  0  0  0  0  0  0999 V2000
  -32.3702    7.1576   -7.7219 N   0  0  0  0  0  0  0  0  0  0  0  0
  -34.4128    4.4819   -7.3743 C   0  0  1  0  0  0  0  0  0  0  0  0
  -33.1833    5.1397   -6.9557 O   0  0  0  0  0  0  0  0  0  0  0  0
  -32.4634    2.1804   -9.6549 P   0  0  1  0  0  0  0  0  0  0  0  0
  -33.3949    6.5595   -7.0180 C   0  0  2  0  0  0  0  0  0  0  0  0
  -30.6950    7.4299   -9.0748 N   0  0  0  0  0  0  0  0  0  0  0  0
  -35.2483    7.9712   -7.5356 O   0  0  0  0  0  0  0  0  0  0  0  0
  -34.6163    6.7219   -7.8382 C   0  0  2  0  0  0  0  0  0  0  0  0
  -29.6058   10.5433   -7.8595 N   0  0  0  0  0  0  0  0  0  0  0  0
  -36.0053    5.7263   -6.1869 O   0  0  0  0  0  0  0  0  0  0  0  0
  -35.4215    5.5578   -7.4896 C   0  0  2  0  0  0  0  0  0  0  0  0
  -31.0164    8.6266   -8.5599 C   0  0  0  0  0  0  0  0  0  0  0  0
  -32.7303    9.4803   -6.9796 N   0  0  0  0  0  0  0  0  0  0  0  0
  -33.1644    2.8864   -8.4430 O   0  0  0  0  0  0  0  0  0  0  0  0
  -34.1411    3.8441   -8.6932 C   0  0  0  0  0  0  0  0  0  0  0  0
  -31.6372    3.3416  -10.3180 O   0  0  0  0  0  0  0  0  0  0  0  0
  -31.5339    6.5179   -8.5477 C   0  0  0  0  0  0  0  0  0  0  0  0
  -30.4335   10.4125   -9.9769 O   0  0  0  0  0  0  0  0  0  0  0  0
  -30.3414    9.9028   -8.8603 C   0  0  0  0  0  0  0  0  0  0  0  0
  -32.0725    8.4637   -7.7092 C   0  0  0  0  0  0  0  0  0  0  0  0
  -31.6403    1.0368   -9.1625 O   0  5  0  0  0  0  0  0  0  0  0  0
  -33.4532    1.4889  -10.5004 O   0  0  0  0  0  0  0  0  0  0  0  0
  1 17  1  0  0  0  0
  1 20  1  0  0  0  0
  2 15  1  6  0  0  0
  2  3  1  0  0  0  0
  2 11  1  0  0  0  0
  3  5  1  0  0  0  0
  4 16  1  6  0  0  0
  4 21  1  0  0  0  0
  4 22  2  0  0  0  0
  4 14  1  0  0  0  0
  5  1  1  6  0  0  0
  5  8  1  0  0  0  0
  6 17  2  0  0  0  0
  6 12  1  0  0  0  0
  8  7  1  1  0  0  0
  8 11  1  0  0  0  0
  9 19  1  0  0  0  0
 11 10  1  1  0  0  0
 12 20  2  0  0  0  0
 12 19  1  0  0  0  0
 13 20  1  0  0  0  0
 14 15  1  0  0  0  0
 18 19  2  0  0  0  0
M  CHG  1  21  -1
M  END
>  <CHROM.1>
18.15995760,63.51584719,67.46710941,-169.92819141,-112.48868272,-32.72900397
5.83451777,-8.38768882,1.30560686,0.51979111,0.27180805

>  <Name>
ligand

>  <RI>
0

>  <Rbt.Current_Directory>
/home/itssahil/PROJECTS/Mol_Feturizer/New_Systems/rnas/4XWF

>  <Rbt.Executable>
rbdock ($Id: //depot/dev/client3/rdock/2013.1/src/exe/rbdock.cxx#4 $)

>  <Rbt.Library>
libRbt.so (2013.1, Build901 2013/11/27)

>  <Rbt.Parameter_File>
/export/apps/rDock/src/rDock_2013.1_src/data/scripts/dock_solv.prm

>  <Rbt.Receptor>
prm/pocket_docking_7.prm

>  <SCORE>
-8.26286

>  <SCORE.INTER>
-7.27467

>  <SCORE.INTER.CONST>
1

>  <SCORE.INTER.POLAR>
0

>  <SCORE.INTER.ROT>
5

>  <SCORE.INTER.SOLV>
14.4169

>  <SCORE.INTER.VDW>
-16.5887

>  <SCORE.INTER.norm>
-0.330667

>  <SCORE.INTRA>
-0.988182

>  <SCORE.INTRA.DIHEDRAL>
-1.33955

>  <SCORE.INTRA.DIHEDRAL.0>
3.49807

>  <SCORE.INTRA.POLAR>
0

>  <SCORE.INTRA.POLAR.0>
0

>  <SCORE.INTRA.REPUL>
0

>  <SCORE.INTRA.REPUL.0>
0

>  <SCORE.INTRA.SOLV>
0.512373

>  <SCORE.INTRA.SOLV.lig_0>
-73.062

>  <SCORE.INTRA.VDW>
-0.574594

>  <SCORE.INTRA.VDW.0>
-1.83782

>  <SCORE.INTRA.norm>
-0.0449174

>  <SCORE.RESTR>
0

>  <SCORE.RESTR.CAVITY>
0

>  <SCORE.RESTR.norm>
0

>  <SCORE.SYSTEM>
0

>  <SCORE.SYSTEM.CONST>
0

>  <SCORE.SYSTEM.DIHEDRAL>
0

>  <SCORE.SYSTEM.SOLV>
0

>  <SCORE.SYSTEM.norm>
0

>  <SCORE.heavy>
22

>  <SCORE.norm>
-0.375584

>  <RMSD>
8.613

$$$$
ligand
 OpenBabel11021811513D
libRbt.so/2013.1/901 2013/11/27
 22 23  0  0  0  0  0  0  0  0999 V2000
  -32.3541    7.2000   -7.7619 N   0  0  0  0  0  0  0  0  0  0  0  0
  -34.4556    4.5781   -7.3596 C   0  0  1  0  0  0  0  0  0  0  0  0
  -33.2079    5.2131   -6.9599 O   0  0  0  0  0  0  0  0  0  0  0  0
  -32.5494    2.2199   -9.6089 P   0  0  1  0  0  0  0  0  0  0  0  0
  -33.3869    6.6363   -7.0417 C   0  0  2  0  0  0  0  0  0  0  0  0
  -30.6589    7.4057   -9.1017 N   0  0  0  0  0  0  0  0  0  0  0  0
  -35.2109    8.0833   -7.5664 O   0  0  0  0  0  0  0  0  0  0  0  0
  -34.6105    6.8153   -7.8551 C   0  0  2  0  0  0  0  0  0  0  0  0
  -29.6667   10.6264   -8.0304 N   0  0  0  0  0  0  0  0  0  0  0  0
  -36.0094    5.8767   -6.1790 O   0  0  0  0  0  0  0  0  0  0  0  0
  -35.4399    5.6755   -7.4834 C   0  0  2  0  0  0  0  0  0  0  0  0
  -30.9944    8.6275   -8.6598 C   0  0  0  0  0  0  0  0  0  0  0  0
  -32.7374    9.5585   -7.1569 N   0  0  0  0  0  0  0  0  0  0  0  0
  -33.2768    2.9173   -8.4077 O   0  0  0  0  0  0  0  0  0  0  0  0
  -34.2091    3.9150   -8.6709 C   0  0  0  0  0  0  0  0  0  0  0  0
  -31.6890    3.3795  -10.2297 O   0  0  0  0  0  0  0  0  0  0  0  0
  -31.5016    6.5198   -8.5374 C   0  0  0  0  0  0  0  0  0  0  0  0
  -30.3438   10.3016  -10.1802 O   0  0  0  0  0  0  0  0  0  0  0  0
  -30.3209    9.8888   -9.0208 C   0  0  0  0  0  0  0  0  0  0  0  0
  -32.0630    8.5064   -7.8180 C   0  0  0  0  0  0  0  0  0  0  0  0
  -31.7561    1.0582   -9.1098 O   0  5  0  0  0  0  0  0  0  0  0  0
  -33.5225    1.5542  -10.4936 O   0  0  0  0  0  0  0  0  0  0  0  0
  1 17  1  0  0  0  0
  1 20  1  0  0  0  0
  2 15  1  6  0  0  0
  2  3  1  0  0  0  0
  2 11  1  0  0  0  0
  3  5  1  0  0  0  0
  4 16  1  6  0  0  0
  4 21  1  0  0  0  0
  4 22  2  0  0  0  0
  4 14  1  0  0  0  0
  5  1  1  6  0  0  0
  5  8  1  0  0  0  0
  6 17  2  0  0  0  0
  6 12  1  0  0  0  0
  8  7  1  1  0  0  0
  8 11  1  0  0  0  0
  9 19  1  0  0  0  0
 11 10  1  1  0  0  0
 12 20  2  0  0  0  0
 12 19  1  0  0  0  0
 13 20  1  0  0  0  0
 14 15  1  0  0  0  0
 18 19  2  0  0  0  0
M  CHG  1  21  -1
M  END
>  <CHROM.1>
14.97826769,64.90470514,65.88031224,-166.75263084,-115.99419492,-32.75165849
5.88372126,-8.41625398,1.28656636,0.52866803,0.25979928

>  <Name>
ligand

>  <RI>
0

>  <Rbt.Current_Directory>
/home/itssahil/PROJECTS/Mol_Feturizer/New_Systems/rnas/4XWF

>  <Rbt.Executable>
rbdock ($Id: //depot/dev/client3/rdock/2013.1/src/exe/rbdock.cxx#4 $)

>  <Rbt.Library>
libRbt.so (2013.1, Build901 2013/11/27)

>  <Rbt.Parameter_File>
/export/apps/rDock/src/rDock_2013.1_src/data/scripts/dock_solv.prm

>  <Rbt.Receptor>
prm/pocket_docking_8.prm

>  <SCORE>
-8.26404

>  <SCORE.INTER>
-7.51318

>  <SCORE.INTER.CONST>
1

>  <SCORE.INTER.POLAR>
0

>  <SCORE.INTER.ROT>
5

>  <SCORE.INTER.SOLV>
15.0461

>  <SCORE.INTER.VDW>
-16.9575

>  <SCORE.INTER.norm>
-0.341508

>  <SCORE.INTRA>
-0.750858

>  <SCORE.INTRA.DIHEDRAL>
-1.02472

>  <SCORE.INTRA.DIHEDRAL.0>
3.49807

>  <SCORE.INTRA.POLAR>
0

>  <SCORE.INTRA.POLAR.0>
0

>  <SCORE.INTRA.REPUL>
0

>  <SCORE.INTRA.REPUL.0>
0

>  <SCORE.INTRA.SOLV>
0.644269

>  <SCORE.INTRA.SOLV.lig_0>
-73.062

>  <SCORE.INTRA.VDW>
-0.560631

>  <SCORE.INTRA.VDW.0>
-1.83782

>  <SCORE.INTRA.norm>
-0.0341299

>  <SCORE.RESTR>
0

>  <SCORE.RESTR.CAVITY>
0

>  <SCORE.RESTR.norm>
0

>  <SCORE.SYSTEM>
0

>  <SCORE.SYSTEM.CONST>
0

>  <SCORE.SYSTEM.DIHEDRAL>
0

>  <SCORE.SYSTEM.SOLV>
0

>  <SCORE.SYSTEM.norm>
0

>  <SCORE.heavy>
22

>  <SCORE.norm>
-0.375638

>  <RMSD>
8.631

$$$$
ligand
 OpenBabel11021811513D
libRbt.so/2013.1/901 2013/11/27
 22 23  0  0  0  0  0  0  0  0999 V2000
  -33.2673    4.2297   -8.4440 N   0  0  0  0  0  0  0  0  0  0  0  0
  -34.7016    6.5864   -6.4841 C   0  0  1  0  0  0  0  0  0  0  0  0
  -34.3190    5.1891   -6.6293 O   0  0  0  0  0  0  0  0  0  0  0  0
  -37.4757    5.7837   -5.5004 P   0  0  1  0  0  0  0  0  0  0  0  0
  -33.1173    5.1363   -7.4151 C   0  0  2  0  0  0  0  0  0  0  0  0
  -34.1276    3.1479  -10.1176 N   0  0  0  0  0  0  0  0  0  0  0  0
  -31.6592    6.7576   -8.3852 O   0  0  0  0  0  0  0  0  0  0  0  0
  -33.0211    6.4721   -8.0453 C   0  0  2  0  0  0  0  0  0  0  0  0
  -30.8505    1.6652  -10.8958 N   0  0  0  0  0  0  0  0  0  0  0  0
  -32.6323    7.5591   -5.9681 O   0  0  0  0  0  0  0  0  0  0  0  0
  -33.5741    7.3682   -7.0372 C   0  0  2  0  0  0  0  0  0  0  0  0
  -32.8880    2.6787   -9.9081 C   0  0  0  0  0  0  0  0  0  0  0  0
  -31.0386    3.1829   -8.3304 N   0  0  0  0  0  0  0  0  0  0  0  0
  -36.7879    5.7419   -6.9088 O   0  0  0  0  0  0  0  0  0  0  0  0
  -35.9459    6.7846   -7.2795 C   0  0  0  0  0  0  0  0  0  0  0  0
  -38.0374    7.2494   -5.4185 O   0  0  0  0  0  0  0  0  0  0  0  0
  -34.3629    4.1074   -9.2025 C   0  0  0  0  0  0  0  0  0  0  0  0
  -32.8875    0.6788  -11.1482 O   0  0  0  0  0  0  0  0  0  0  0  0
  -32.2302    1.6088  -10.6809 C   0  0  0  0  0  0  0  0  0  0  0  0
  -32.3387    3.3571   -8.8577 C   0  0  0  0  0  0  0  0  0  0  0  0
  -38.5153    4.7158   -5.4171 O   0  5  0  0  0  0  0  0  0  0  0  0
  -36.5349    5.3622   -4.4468 O   0  0  0  0  0  0  0  0  0  0  0  0
  1 17  1  0  0  0  0
  1 20  1  0  0  0  0
  2 15  1  6  0  0  0
  2  3  1  0  0  0  0
  2 11  1  0  0  0  0
  3  5  1  0  0  0  0
  4 16  1  1  0  0  0
  4 21  1  0  0  0  0
  4 22  2  0  0  0  0
  4 14  1  0  0  0  0
  5  1  1  6  0  0  0
  5  8  1  0  0  0  0
  6 17  2  0  0  0  0
  6 12  1  0  0  0  0
  8  7  1  1  0  0  0
  8 11  1  0  0  0  0
  9 19  1  0  0  0  0
 11 10  1  1  0  0  0
 12 20  2  0  0  0  0
 12 19  1  0  0  0  0
 13 20  1  0  0  0  0
 14 15  1  0  0  0  0
 18 19  2  0  0  0  0
M  CHG  1  21  -1
M  END
>  <CHROM.1>
42.72205451,48.46168408,47.07859564,73.64875127,146.10571413,-34.36458061
4.89618622,-7.63317971,-0.82517958,0.34571300,0.57137337

>  <Name>
ligand

>  <RI>
0

>  <Rbt.Current_Directory>
/home/itssahil/PROJECTS/Mol_Feturizer/New_Systems/rnas/4XWF

>  <Rbt.Executable>
rbdock ($Id: //depot/dev/client3/rdock/2013.1/src/exe/rbdock.cxx#4 $)

>  <Rbt.Library>
libRbt.so (2013.1, Build901 2013/11/27)

>  <Rbt.Parameter_File>
/export/apps/rDock/src/rDock_2013.1_src/data/scripts/dock_solv.prm

>  <Rbt.Receptor>
prm/pocket_docking_8.prm

>  <SCORE>
-11.1433

>  <SCORE.INTER>
-12.4803

>  <SCORE.INTER.CONST>
1

>  <SCORE.INTER.POLAR>
0

>  <SCORE.INTER.ROT>
5

>  <SCORE.INTER.SOLV>
11.8491

>  <SCORE.INTER.VDW>
-19.2032

>  <SCORE.INTER.norm>
-0.567284

>  <SCORE.INTRA>
1.33694

>  <SCORE.INTRA.DIHEDRAL>
0.297364

>  <SCORE.INTRA.DIHEDRAL.0>
3.49807

>  <SCORE.INTRA.POLAR>
0

>  <SCORE.INTRA.POLAR.0>
0

>  <SCORE.INTRA.REPUL>
0

>  <SCORE.INTRA.REPUL.0>
0

>  <SCORE.INTRA.SOLV>
2.03611

>  <SCORE.INTRA.SOLV.lig_0>
-73.062

>  <SCORE.INTRA.VDW>
0.170206

>  <SCORE.INTRA.VDW.0>
-1.83782

>  <SCORE.INTRA.norm>
0.0607701

>  <SCORE.RESTR>
0

>  <SCORE.RESTR.CAVITY>
0

>  <SCORE.RESTR.norm>
0

>  <SCORE.SYSTEM>
0

>  <SCORE.SYSTEM.CONST>
0

>  <SCORE.SYSTEM.DIHEDRAL>
0

>  <SCORE.SYSTEM.SOLV>
0

>  <SCORE.SYSTEM.norm>
0

>  <SCORE.heavy>
22

>  <SCORE.norm>
-0.506514

>  <RMSD>
8.635

$$$$
ligand
 OpenBabel11021811513D
libRbt.so/2013.1/901 2013/11/27
 22 23  0  0  0  0  0  0  0  0999 V2000
  -32.3606    7.2008   -7.7028 N   0  0  0  0  0  0  0  0  0  0  0  0
  -34.4003    4.5207   -7.3718 C   0  0  1  0  0  0  0  0  0  0  0  0
  -33.1725    5.1783   -6.9477 O   0  0  0  0  0  0  0  0  0  0  0  0
  -32.4669    2.2041   -9.6509 P   0  0  1  0  0  0  0  0  0  0  0  0
  -33.3859    6.5980   -7.0037 C   0  0  2  0  0  0  0  0  0  0  0  0
  -30.6822    7.4814   -9.0501 N   0  0  0  0  0  0  0  0  0  0  0  0
  -35.2401    8.0097   -7.5184 O   0  0  0  0  0  0  0  0  0  0  0  0
  -34.6058    6.7627   -7.8256 C   0  0  2  0  0  0  0  0  0  0  0  0
  -29.3159    9.9906   -9.7821 N   0  0  0  0  0  0  0  0  0  0  0  0
  -35.9968    5.7575   -6.1818 O   0  0  0  0  0  0  0  0  0  0  0  0
  -35.4102    5.5958   -7.4841 C   0  0  2  0  0  0  0  0  0  0  0  0
  -31.0079    8.6756   -8.5321 C   0  0  0  0  0  0  0  0  0  0  0  0
  -32.7282    9.5202   -6.9539 N   0  0  0  0  0  0  0  0  0  0  0  0
  -33.1681    2.9128   -8.4407 O   0  0  0  0  0  0  0  0  0  0  0  0
  -34.1251    3.8896   -8.6932 C   0  0  0  0  0  0  0  0  0  0  0  0
  -31.6129    3.3555  -10.2954 O   0  0  0  0  0  0  0  0  0  0  0  0
  -31.5206    6.5657   -8.5283 C   0  0  0  0  0  0  0  0  0  0  0  0
  -30.6531   10.9820   -8.2281 O   0  0  0  0  0  0  0  0  0  0  0  0
  -30.3349    9.9544   -8.8264 C   0  0  0  0  0  0  0  0  0  0  0  0
  -32.0659    8.5075   -7.6850 C   0  0  0  0  0  0  0  0  0  0  0  0
  -31.6699    1.0418   -9.1593 O   0  5  0  0  0  0  0  0  0  0  0  0
  -33.4598    1.5375  -10.5126 O   0  0  0  0  0  0  0  0  0  0  0  0
  1 17  1  0  0  0  0
  1 20  1  0  0  0  0
  2 15  1  6  0  0  0
  2  3  1  0  0  0  0
  2 11  1  0  0  0  0
  3  5  1  0  0  0  0
  4 16  1  6  0  0  0
  4 21  1  0  0  0  0
  4 22  2  0  0  0  0
  4 14  1  0  0  0  0
  5  1  1  6  0  0  0
  5  8  1  0  0  0  0
  6 17  2  0  0  0  0
  6 12  1  0  0  0  0
  8  7  1  1  0  0  0
  8 11  1  0  0  0  0
  9 19  1  0  0  0  0
 11 10  1  1  0  0  0
 12 20  2  0  0  0  0
 12 19  1  0  0  0  0
 13 20  1  0  0  0  0
 14 15  1  0  0  0  0
 18 19  2  0  0  0  0
M  CHG  1  21  -1
M  END
>  <CHROM.1>
18.05158001,64.73441457,67.49677696,-169.97537928,4.16450013,-32.72239020
5.87159781,-8.37370567,1.31276885,0.51737053,0.27221687

>  <Name>
ligand

>  <RI>
0

>  <Rbt.Current_Directory>
/home/itssahil/PROJECTS/Mol_Feturizer/New_Systems/rnas/4XWF

>  <Rbt.Executable>
rbdock ($Id: //depot/dev/client3/rdock/2013.1/src/exe/rbdock.cxx#4 $)

>  <Rbt.Library>
libRbt.so (2013.1, Build901 2013/11/27)

>  <Rbt.Parameter_File>
/export/apps/rDock/src/rDock_2013.1_src/data/scripts/dock_solv.prm

>  <Rbt.Receptor>
prm/pocket_docking_7.prm

>  <SCORE>
-8.08077

>  <SCORE.INTER>
-7.23487

>  <SCORE.INTER.CONST>
1

>  <SCORE.INTER.POLAR>
0

>  <SCORE.INTER.ROT>
5

>  <SCORE.INTER.SOLV>
14.126

>  <SCORE.INTER.VDW>
-16.4652

>  <SCORE.INTER.norm>
-0.328858

>  <SCORE.INTRA>
-0.8459

>  <SCORE.INTRA.DIHEDRAL>
-1.35296

>  <SCORE.INTRA.DIHEDRAL.0>
3.49807

>  <SCORE.INTRA.POLAR>
0

>  <SCORE.INTRA.POLAR.0>
0

>  <SCORE.INTRA.REPUL>
0

>  <SCORE.INTRA.REPUL.0>
0

>  <SCORE.INTRA.SOLV>
0.482685

>  <SCORE.INTRA.SOLV.lig_0>
-73.062

>  <SCORE.INTRA.VDW>
-0.410765

>  <SCORE.INTRA.VDW.0>
-1.83782

>  <SCORE.INTRA.norm>
-0.03845

>  <SCORE.RESTR>
0

>  <SCORE.RESTR.CAVITY>
0

>  <SCORE.RESTR.norm>
0

>  <SCORE.SYSTEM>
0

>  <SCORE.SYSTEM.CONST>
0

>  <SCORE.SYSTEM.DIHEDRAL>
0

>  <SCORE.SYSTEM.SOLV>
0

>  <SCORE.SYSTEM.norm>
0

>  <SCORE.heavy>
22

>  <SCORE.norm>
-0.367308

>  <RMSD>
8.639

$$$$
ligand
 OpenBabel11021811513D
libRbt.so/2013.1/901 2013/11/27
 22 23  0  0  0  0  0  0  0  0999 V2000
  -31.9670    2.0158   -9.7985 N   0  0  0  0  0  0  0  0  0  0  0  0
  -33.3719    2.0358   -6.7198 C   0  0  1  0  0  0  0  0  0  0  0  0
  -32.1494    1.9156   -7.5014 O   0  0  0  0  0  0  0  0  0  0  0  0
  -36.1619   -0.3633   -5.8190 P   0  0  1  0  0  0  0  0  0  0  0  0
  -32.2851    2.7416   -8.6692 C   0  0  2  0  0  0  0  0  0  0  0  0
  -32.1775    0.7978  -11.5826 N   0  0  0  0  0  0  0  0  0  0  0  0
  -33.9451    4.2459   -9.4923 O   0  0  0  0  0  0  0  0  0  0  0  0
  -33.7331    3.0360   -8.7553 C   0  0  2  0  0  0  0  0  0  0  0  0
  -28.8172   -0.1909  -11.8800 N   0  0  0  0  0  0  0  0  0  0  0  0
  -33.7071    4.3550   -6.7788 O   0  0  0  0  0  0  0  0  0  0  0  0
  -34.1506    3.1178   -7.3610 C   0  0  2  0  0  0  0  0  0  0  0  0
  -30.8810    1.1139  -11.4417 C   0  0  0  0  0  0  0  0  0  0  0  0
  -29.5398    2.4440   -9.8307 N   0  0  0  0  0  0  0  0  0  0  0  0
  -35.2164    0.8710   -6.0218 O   0  0  0  0  0  0  0  0  0  0  0  0
  -34.0790    0.7273   -6.8089 C   0  0  0  0  0  0  0  0  0  0  0  0
  -35.2932   -1.3416   -4.9479 O   0  0  0  0  0  0  0  0  0  0  0  0
  -32.8492    1.3545  -10.5567 C   0  0  0  0  0  0  0  0  0  0  0  0
  -29.7239    1.1394  -13.4905 O   0  0  0  0  0  0  0  0  0  0  0  0
  -29.7905    0.6985  -12.3432 C   0  0  0  0  0  0  0  0  0  0  0  0
  -30.7410    1.8834  -10.3221 C   0  0  0  0  0  0  0  0  0  0  0  0
  -37.4332    0.0784   -5.1737 O   0  5  0  0  0  0  0  0  0  0  0  0
  -36.6489   -0.8670   -7.1158 O   0  0  0  0  0  0  0  0  0  0  0  0
  1 17  1  0  0  0  0
  1 20  1  0  0  0  0
  2 15  1  6  0  0  0
  2  3  1  0  0  0  0
  2 11  1  0  0  0  0
  3  5  1  0  0  0  0
  4 16  1  1  0  0  0
  4 21  1  0  0  0  0
  4 22  2  0  0  0  0
  4 14  1  0  0  0  0
  5  1  1  6  0  0  0
  5  8  1  0  0  0  0
  6 17  2  0  0  0  0
  6 12  1  0  0  0  0
  8  7  1  1  0  0  0
  8 11  1  0  0  0  0
  9 19  1  0  0  0  0
 11 10  1  1  0  0  0
 12 20  2  0  0  0  0
 12 19  1  0  0  0  0
 13 20  1  0  0  0  0
 14 15  1  0  0  0  0
 18 19  2  0  0  0  0
M  CHG  1  21  -1
M  END
>  <CHROM.1>
93.24545796,178.35975439,68.39417701,-176.38075296,-112.51155700,-33.20966199
1.33445937,-8.48949783,-0.00976143,0.80798948,0.21377930

>  <Name>
ligand

>  <RI>
0

>  <Rbt.Current_Directory>
/home/itssahil/PROJECTS/Mol_Feturizer/New_Systems/rnas/4XWF

>  <Rbt.Executable>
rbdock ($Id: //depot/dev/client3/rdock/2013.1/src/exe/rbdock.cxx#4 $)

>  <Rbt.Library>
libRbt.so (2013.1, Build901 2013/11/27)

>  <Rbt.Parameter_File>
/export/apps/rDock/src/rDock_2013.1_src/data/scripts/dock_solv.prm

>  <Rbt.Receptor>
prm/pocket_docking_7.prm

>  <SCORE>
-7.59054

>  <SCORE.INTER>
-7.9821

>  <SCORE.INTER.CONST>
1

>  <SCORE.INTER.POLAR>
0

>  <SCORE.INTER.ROT>
5

>  <SCORE.INTER.SOLV>
16.3938

>  <SCORE.INTER.VDW>
-17.7193

>  <SCORE.INTER.norm>
-0.362823

>  <SCORE.INTRA>
0.39156

>  <SCORE.INTRA.DIHEDRAL>
-1.71175

>  <SCORE.INTRA.DIHEDRAL.0>
3.49807

>  <SCORE.INTRA.POLAR>
0

>  <SCORE.INTRA.POLAR.0>
0

>  <SCORE.INTRA.REPUL>
0

>  <SCORE.INTRA.REPUL.0>
0

>  <SCORE.INTRA.SOLV>
-0.85127

>  <SCORE.INTRA.SOLV.lig_0>
-73.062

>  <SCORE.INTRA.VDW>
1.67307

>  <SCORE.INTRA.VDW.0>
-1.83782

>  <SCORE.INTRA.norm>
0.0177982

>  <SCORE.RESTR>
0

>  <SCORE.RESTR.CAVITY>
0

>  <SCORE.RESTR.norm>
0

>  <SCORE.SYSTEM>
0

>  <SCORE.SYSTEM.CONST>
0

>  <SCORE.SYSTEM.DIHEDRAL>
0

>  <SCORE.SYSTEM.SOLV>
0

>  <SCORE.SYSTEM.norm>
0

>  <SCORE.heavy>
22

>  <SCORE.norm>
-0.345024

>  <RMSD>
8.828

$$$$
ligand
 OpenBabel11021811513D
libRbt.so/2013.1/901 2013/11/27
 22 23  0  0  0  0  0  0  0  0999 V2000
  -33.9055    4.9950   -7.8813 N   0  0  0  0  0  0  0  0  0  0  0  0
  -36.0584    5.9219   -5.4404 C   0  0  1  0  0  0  0  0  0  0  0  0
  -34.8162    5.2409   -5.7766 O   0  0  0  0  0  0  0  0  0  0  0  0
  -38.2591    2.9235   -4.7728 P   0  0  1  0  0  0  0  0  0  0  0  0
  -34.2318    5.9127   -6.9042 C   0  0  2  0  0  0  0  0  0  0  0  0
  -34.1026    3.5608   -9.4985 N   0  0  0  0  0  0  0  0  0  0  0  0
  -34.7843    7.8427   -8.1948 O   0  0  0  0  0  0  0  0  0  0  0  0
  -35.3267    6.7410   -7.4573 C   0  0  2  0  0  0  0  0  0  0  0  0
  -30.4932    3.7557  -10.1752 N   0  0  0  0  0  0  0  0  0  0  0  0
  -35.3780    8.1621   -5.5534 O   0  0  0  0  0  0  0  0  0  0  0  0
  -36.0843    7.1410   -6.2778 C   0  0  2  0  0  0  0  0  0  0  0  0
  -32.7954    3.7365   -9.2513 C   0  0  0  0  0  0  0  0  0  0  0  0
  -31.4513    5.1195   -7.6880 N   0  0  0  0  0  0  0  0  0  0  0  0
  -37.0781    3.9495   -4.8780 O   0  0  0  0  0  0  0  0  0  0  0  0
  -37.1732    4.9965   -5.7883 C   0  0  0  0  0  0  0  0  0  0  0  0
  -37.5240    1.5361   -4.7010 O   0  0  0  0  0  0  0  0  0  0  0  0
  -34.7902    4.3395   -8.6416 C   0  0  0  0  0  0  0  0  0  0  0  0
  -31.8136    1.9099  -10.3634 O   0  0  0  0  0  0  0  0  0  0  0  0
  -31.6879    3.0646   -9.9559 C   0  0  0  0  0  0  0  0  0  0  0  0
  -32.6632    4.6406   -8.2362 C   0  0  0  0  0  0  0  0  0  0  0  0
  -39.0976    3.2433   -3.5801 O   0  5  0  0  0  0  0  0  0  0  0  0
  -39.2218    3.1206   -5.8715 O   0  0  0  0  0  0  0  0  0  0  0  0
  1 17  1  0  0  0  0
  1 20  1  0  0  0  0
  2 15  1  6  0  0  0
  2  3  1  0  0  0  0
  2 11  1  0  0  0  0
  3  5  1  0  0  0  0
  4 16  1  1  0  0  0
  4 21  1  0  0  0  0
  4 22  2  0  0  0  0
  4 14  1  0  0  0  0
  5  1  1  6  0  0  0
  5  8  1  0  0  0  0
  6 17  2  0  0  0  0
  6 12  1  0  0  0  0
  8  7  1  1  0  0  0
  8 11  1  0  0  0  0
  9 19  1  0  0  0  0
 11 10  1  1  0  0  0
 12 20  2  0  0  0  0
 12 19  1  0  0  0  0
 13 20  1  0  0  0  0
 14 15  1  0  0  0  0
 18 19  2  0  0  0  0
M  CHG  1  21  -1
M  END
>  <CHROM.1>
71.30905731,68.57785757,136.31678184,168.42313081,145.34733550,-35.21696684
4.52448071,-6.92185462,-0.04835257,0.65453688,0.17613468

>  <Name>
ligand

>  <RI>
0

>  <Rbt.Current_Directory>
/home/itssahil/PROJECTS/Mol_Feturizer/New_Systems/rnas/4XWF

>  <Rbt.Executable>
rbdock ($Id: //depot/dev/client3/rdock/2013.1/src/exe/rbdock.cxx#4 $)

>  <Rbt.Library>
libRbt.so (2013.1, Build901 2013/11/27)

>  <Rbt.Parameter_File>
/export/apps/rDock/src/rDock_2013.1_src/data/scripts/dock_solv.prm

>  <Rbt.Receptor>
prm/pocket_docking_8.prm

>  <SCORE>
-7.54467

>  <SCORE.INTER>
-9.08782

>  <SCORE.INTER.CONST>
1

>  <SCORE.INTER.POLAR>
0

>  <SCORE.INTER.ROT>
5

>  <SCORE.INTER.SOLV>
14.6498

>  <SCORE.INTER.VDW>
-17.8751

>  <SCORE.INTER.norm>
-0.413083

>  <SCORE.INTRA>
1.54315

>  <SCORE.INTRA.DIHEDRAL>
1.61009

>  <SCORE.INTRA.DIHEDRAL.0>
3.49807

>  <SCORE.INTRA.POLAR>
0

>  <SCORE.INTRA.POLAR.0>
0

>  <SCORE.INTRA.REPUL>
0

>  <SCORE.INTRA.REPUL.0>
0

>  <SCORE.INTRA.SOLV>
-0.377874

>  <SCORE.INTRA.SOLV.lig_0>
-73.062

>  <SCORE.INTRA.VDW>
0.927043

>  <SCORE.INTRA.VDW.0>
-1.83782

>  <SCORE.INTRA.norm>
0.0701432

>  <SCORE.RESTR>
0

>  <SCORE.RESTR.CAVITY>
0

>  <SCORE.RESTR.norm>
0

>  <SCORE.SYSTEM>
0

>  <SCORE.SYSTEM.CONST>
0

>  <SCORE.SYSTEM.DIHEDRAL>
0

>  <SCORE.SYSTEM.SOLV>
0

>  <SCORE.SYSTEM.norm>
0

>  <SCORE.heavy>
22

>  <SCORE.norm>
-0.34294

>  <RMSD>
10.006

$$$$
ligand
 OpenBabel11021811513D
libRbt.so/2013.1/901 2013/11/27
 22 23  0  0  0  0  0  0  0  0999 V2000
  -31.5742    4.3269  -18.6502 N   0  0  0  0  0  0  0  0  0  0  0  0
  -33.0062    7.3776  -18.9578 C   0  0  1  0  0  0  0  0  0  0  0  0
  -32.7986    6.0630  -19.5482 O   0  0  0  0  0  0  0  0  0  0  0  0
  -30.6238    9.2555  -21.1979 P   0  0  1  0  0  0  0  0  0  0  0  0
  -32.6996    5.1065  -18.4806 C   0  0  2  0  0  0  0  0  0  0  0  0
  -29.5498    3.5719  -18.4433 N   0  0  0  0  0  0  0  0  0  0  0  0
  -32.8895    5.2007  -16.1034 O   0  0  0  0  0  0  0  0  0  0  0  0
  -32.4654    5.9206  -17.2669 C   0  0  2  0  0  0  0  0  0  0  0  0
  -28.5260    1.6459  -20.6964 N   0  0  0  0  0  0  0  0  0  0  0  0
  -34.6358    6.8852  -17.3464 O   0  0  0  0  0  0  0  0  0  0  0  0
  -33.2306    7.1363  -17.5156 C   0  0  2  0  0  0  0  0  0  0  0  0
  -30.2228    2.7476  -19.2607 C   0  0  0  0  0  0  0  0  0  0  0  0
  -32.5374    2.6243  -20.1500 N   0  0  0  0  0  0  0  0  0  0  0  0
  -31.6163    8.2136  -20.5749 O   0  0  0  0  0  0  0  0  0  0  0  0
  -31.7631    8.1646  -19.1930 C   0  0  0  0  0  0  0  0  0  0  0  0
  -30.6614    8.9144  -22.7318 O   0  0  0  0  0  0  0  0  0  0  0  0
  -30.3902    4.5558  -18.0703 C   0  0  0  0  0  0  0  0  0  0  0  0
  -30.2301    0.4508  -19.7725 O   0  0  0  0  0  0  0  0  0  0  0  0
  -29.6754    1.5412  -19.9085 C   0  0  0  0  0  0  0  0  0  0  0  0
  -31.4993    3.2148  -19.3934 C   0  0  0  0  0  0  0  0  0  0  0  0
  -31.0701   10.6390  -20.8593 O   0  5  0  0  0  0  0  0  0  0  0  0
  -29.3135    9.1955  -20.5256 O   0  0  0  0  0  0  0  0  0  0  0  0
  1 17  1  0  0  0  0
  1 20  1  0  0  0  0
  2 15  1  1  0  0  0
  2  3  1  0  0  0  0
  2 11  1  0  0  0  0
  3  5  1  0  0  0  0
  4 16  1  6  0  0  0
  4 21  1  0  0  0  0
  4 22  2  0  0  0  0
  4 14  1  0  0  0  0
  5  1  1  6  0  0  0
  5  8  1  0  0  0  0
  6 17  2  0  0  0  0
  6 12  1  0  0  0  0
  8  7  1  1  0  0  0
  8 11  1  0  0  0  0
  9 19  1  0  0  0  0
 11 10  1  6  0  0  0
 12 20  2  0  0  0  0
 12 19  1  0  0  0  0
 13 20  1  0  0  0  0
 14 15  1  0  0  0  0
 18 19  2  0  0  0  0
M  CHG  1  21  -1
M  END
>  <CHROM.1>
95.51150430,59.80779984,175.60537112,164.76670707,-55.32182954,-31.38553416
5.88795293,-19.43673468,1.44152578,-0.78155342,2.85828330

>  <Name>
ligand

>  <RI>
0

>  <Rbt.Current_Directory>
/home/itssahil/PROJECTS/Mol_Feturizer/New_Systems/rnas/4XWF

>  <Rbt.Executable>
rbdock ($Id: //depot/dev/client3/rdock/2013.1/src/exe/rbdock.cxx#4 $)

>  <Rbt.Library>
libRbt.so (2013.1, Build901 2013/11/27)

>  <Rbt.Parameter_File>
/export/apps/rDock/src/rDock_2013.1_src/data/scripts/dock_solv.prm

>  <Rbt.Receptor>
prm/blind_docking_40.prm

>  <SCORE>
-2.9571

>  <SCORE.INTER>
-5.39254

>  <SCORE.INTER.CONST>
1

>  <SCORE.INTER.POLAR>
0

>  <SCORE.INTER.ROT>
5

>  <SCORE.INTER.SOLV>
25.3246

>  <SCORE.INTER.VDW>
-18.9699

>  <SCORE.INTER.norm>
-0.245116

>  <SCORE.INTRA>
1.956

>  <SCORE.INTRA.DIHEDRAL>
0.822516

>  <SCORE.INTRA.DIHEDRAL.0>
3.49807

>  <SCORE.INTRA.POLAR>
0

>  <SCORE.INTRA.POLAR.0>
0

>  <SCORE.INTRA.REPUL>
0

>  <SCORE.INTRA.REPUL.0>
0

>  <SCORE.INTRA.SOLV>
-0.401094

>  <SCORE.INTRA.SOLV.lig_0>
-73.062

>  <SCORE.INTRA.VDW>
1.74529

>  <SCORE.INTRA.VDW.0>
-1.83782

>  <SCORE.INTRA.norm>
0.0889091

>  <SCORE.RESTR>
0.479444

>  <SCORE.RESTR.CAVITY>
0.479444

>  <SCORE.RESTR.norm>
0.0217929

>  <SCORE.SYSTEM>
0

>  <SCORE.SYSTEM.CONST>
0

>  <SCORE.SYSTEM.DIHEDRAL>
0

>  <SCORE.SYSTEM.SOLV>
0

>  <SCORE.SYSTEM.norm>
0

>  <SCORE.heavy>
22

>  <SCORE.norm>
-0.134414

>  <RMSD>
10.494

$$$$
ligand
 OpenBabel11021811513D
libRbt.so/2013.1/901 2013/11/27
 22 23  0  0  0  0  0  0  0  0999 V2000
  -31.5837    4.3409  -18.6295 N   0  0  0  0  0  0  0  0  0  0  0  0
  -33.0426    7.3788  -18.9382 C   0  0  1  0  0  0  0  0  0  0  0  0
  -32.8269    6.0643  -19.5261 O   0  0  0  0  0  0  0  0  0  0  0  0
  -30.6389    9.2264  -21.1912 P   0  0  1  0  0  0  0  0  0  0  0  0
  -32.7147    5.1116  -18.4564 C   0  0  2  0  0  0  0  0  0  0  0  0
  -29.5541    3.5993  -18.4253 N   0  0  0  0  0  0  0  0  0  0  0  0
  -32.8938    5.2108  -16.0786 O   0  0  0  0  0  0  0  0  0  0  0  0
  -32.4814    5.9310  -17.2461 C   0  0  2  0  0  0  0  0  0  0  0  0
  -28.5453    1.7007  -20.7286 N   0  0  0  0  0  0  0  0  0  0  0  0
  -34.6601    6.8772  -17.3175 O   0  0  0  0  0  0  0  0  0  0  0  0
  -33.2578    7.1395  -17.4944 C   0  0  2  0  0  0  0  0  0  0  0  0
  -30.2208    2.7745  -19.2473 C   0  0  0  0  0  0  0  0  0  0  0  0
  -32.5340    2.6394  -20.1386 N   0  0  0  0  0  0  0  0  0  0  0  0
  -31.6688    8.2239  -20.5645 O   0  0  0  0  0  0  0  0  0  0  0  0
  -31.8072    8.1754  -19.1817 C   0  0  0  0  0  0  0  0  0  0  0  0
  -29.2764    8.7984  -20.5349 O   0  0  0  0  0  0  0  0  0  0  0  0
  -30.4017    4.5752  -18.0477 C   0  0  0  0  0  0  0  0  0  0  0  0
  -30.1859    0.4728  -19.7353 O   0  0  0  0  0  0  0  0  0  0  0  0
  -29.6645    1.5754  -19.9011 C   0  0  0  0  0  0  0  0  0  0  0  0
  -31.5005    3.2332  -19.3784 C   0  0  0  0  0  0  0  0  0  0  0  0
  -30.6719    9.1158  -22.6793 O   0  5  0  0  0  0  0  0  0  0  0  0
  -31.0766   10.6194  -20.9892 O   0  0  0  0  0  0  0  0  0  0  0  0
  1 17  1  0  0  0  0
  1 20  1  0  0  0  0
  2 15  1  1  0  0  0
  2  3  1  0  0  0  0
  2 11  1  0  0  0  0
  3  5  1  0  0  0  0
  4 16  1  1  0  0  0
  4 21  1  0  0  0  0
  4 22  2  0  0  0  0
  4 14  1  0  0  0  0
  5  1  1  6  0  0  0
  5  8  1  0  0  0  0
  6 17  2  0  0  0  0
  6 12  1  0  0  0  0
  8  7  1  1  0  0  0
  8 11  1  0  0  0  0
  9 19  1  0  0  0  0
 11 10  1  6  0  0  0
 12 20  2  0  0  0  0
 12 19  1  0  0  0  0
 13 20  1  0  0  0  0
 14 15  1  0  0  0  0
 18 19  2  0  0  0  0
M  CHG  1  21  -1
M  END
>  <CHROM.1>
96.06517350,59.91064737,58.14852674,167.60993296,-57.73195986,-31.39603341
5.88608175,-19.42755482,1.43148969,-0.77808374,2.84314025

>  <Name>
ligand

>  <RI>
0

>  <Rbt.Current_Directory>
/home/itssahil/PROJECTS/Mol_Feturizer/New_Systems/rnas/4XWF

>  <Rbt.Executable>
rbdock ($Id: //depot/dev/client3/rdock/2013.1/src/exe/rbdock.cxx#4 $)

>  <Rbt.Library>
libRbt.so (2013.1, Build901 2013/11/27)

>  <Rbt.Parameter_File>
/export/apps/rDock/src/rDock_2013.1_src/data/scripts/dock_solv.prm

>  <Rbt.Receptor>
prm/blind_docking_40.prm

>  <SCORE>
-4.2574

>  <SCORE.INTER>
-6.20317

>  <SCORE.INTER.CONST>
1

>  <SCORE.INTER.POLAR>
0

>  <SCORE.INTER.ROT>
5

>  <SCORE.INTER.SOLV>
24.8373

>  <SCORE.INTER.VDW>
-19.3479

>  <SCORE.INTER.norm>
-0.281962

>  <SCORE.INTRA>
1.47283

>  <SCORE.INTRA.DIHEDRAL>
0.453657

>  <SCORE.INTRA.DIHEDRAL.0>
3.49807

>  <SCORE.INTRA.POLAR>
0

>  <SCORE.INTRA.POLAR.0>
0

>  <SCORE.INTRA.REPUL>
0

>  <SCORE.INTRA.REPUL.0>
0

>  <SCORE.INTRA.SOLV>
-1.07019

>  <SCORE.INTRA.SOLV.lig_0>
-73.062

>  <SCORE.INTRA.VDW>
1.7811

>  <SCORE.INTRA.VDW.0>
-1.83782

>  <SCORE.INTRA.norm>
0.066947

>  <SCORE.RESTR>
0.472936

>  <SCORE.RESTR.CAVITY>
0.472936

>  <SCORE.RESTR.norm>
0.0214971

>  <SCORE.SYSTEM>
0

>  <SCORE.SYSTEM.CONST>
0

>  <SCORE.SYSTEM.DIHEDRAL>
0

>  <SCORE.SYSTEM.SOLV>
0

>  <SCORE.SYSTEM.norm>
0

>  <SCORE.heavy>
22

>  <SCORE.norm>
-0.193518

>  <RMSD>
10.495

$$$$
ligand
 OpenBabel11021811513D
libRbt.so/2013.1/901 2013/11/27
 22 23  0  0  0  0  0  0  0  0999 V2000
  -35.4963    0.7145  -19.2605 N   0  0  0  0  0  0  0  0  0  0  0  0
  -32.9532    2.8141  -20.0201 C   0  0  1  0  0  0  0  0  0  0  0  0
  -33.3718    1.4384  -19.7919 O   0  0  0  0  0  0  0  0  0  0  0  0
  -31.8972    5.6408  -17.7347 P   0  0  1  0  0  0  0  0  0  0  0  0
  -34.7295    1.3059  -20.2431 C   0  0  2  0  0  0  0  0  0  0  0  0
  -36.8607    0.4705  -17.5902 N   0  0  0  0  0  0  0  0  0  0  0  0
  -36.3054    2.7476  -21.3079 O   0  0  0  0  0  0  0  0  0  0  0  0
  -35.2191    2.6964  -20.3756 C   0  0  2  0  0  0  0  0  0  0  0  0
  -37.5318   -2.0523  -16.1778 N   0  0  0  0  0  0  0  0  0  0  0  0
  -33.7609    3.1664  -22.1922 O   0  0  0  0  0  0  0  0  0  0  0  0
  -34.0397    3.4361  -20.8080 C   0  0  2  0  0  0  0  0  0  0  0  0
  -36.5046   -0.7491  -18.0219 C   0  0  0  0  0  0  0  0  0  0  0  0
  -35.0582   -1.6431  -19.8309 N   0  0  0  0  0  0  0  0  0  0  0  0
  -32.3264    4.7340  -18.9397 O   0  0  0  0  0  0  0  0  0  0  0  0
  -32.8115    3.4562  -18.6831 C   0  0  0  0  0  0  0  0  0  0  0  0
  -33.1253    5.5454  -16.7583 O   0  0  0  0  0  0  0  0  0  0  0  0
  -36.2279    1.3782  -18.3578 C   0  0  0  0  0  0  0  0  0  0  0  0
  -36.8269   -3.0792  -18.0842 O   0  0  0  0  0  0  0  0  0  0  0  0
  -36.9600   -2.0310  -17.4528 C   0  0  0  0  0  0  0  0  0  0  0  0
  -35.6478   -0.6036  -19.0755 C   0  0  0  0  0  0  0  0  0  0  0  0
  -30.6113    5.1423  -17.1639 O   0  5  0  0  0  0  0  0  0  0  0  0
  -31.5109    6.9839  -18.2032 O   0  0  0  0  0  0  0  0  0  0  0  0
  1 17  1  0  0  0  0
  1 20  1  0  0  0  0
  2 15  1  1  0  0  0
  2  3  1  0  0  0  0
  2 11  1  0  0  0  0
  3  5  1  0  0  0  0
  4 16  1  1  0  0  0
  4 21  1  0  0  0  0
  4 22  2  0  0  0  0
  4 14  1  0  0  0  0
  5  1  1  1  0  0  0
  5  8  1  0  0  0  0
  6 17  2  0  0  0  0
  6 12  1  0  0  0  0
  8  7  1  6  0  0  0
  8 11  1  0  0  0  0
  9 19  1  0  0  0  0
 11 10  1  6  0  0  0
 12 20  2  0  0  0  0
 12 19  1  0  0  0  0
 13 20  1  0  0  0  0
 14 15  1  0  0  0  0
 18 19  2  0  0  0  0
M  CHG  1  21  -1
M  END
>  <CHROM.1>
94.75993151,176.12820415,-49.42843772,-172.87235092,-17.16985122,-34.30802238
2.20047053,-18.85783213,3.01933157,0.97253047,1.71633516

>  <Name>
ligand

>  <RI>
0

>  <Rbt.Current_Directory>
/home/itssahil/PROJECTS/Mol_Feturizer/New_Systems/rnas/4XWF

>  <Rbt.Executable>
rbdock ($Id: //depot/dev/client3/rdock/2013.1/src/exe/rbdock.cxx#4 $)

>  <Rbt.Library>
libRbt.so (2013.1, Build901 2013/11/27)

>  <Rbt.Parameter_File>
/export/apps/rDock/src/rDock_2013.1_src/data/scripts/dock_solv.prm

>  <Rbt.Receptor>
prm/blind_docking_80.prm

>  <SCORE>
-11.6339

>  <SCORE.INTER>
-12.6201

>  <SCORE.INTER.CONST>
1

>  <SCORE.INTER.POLAR>
0

>  <SCORE.INTER.ROT>
5

>  <SCORE.INTER.SOLV>
15.0599

>  <SCORE.INTER.VDW>
-20.3667

>  <SCORE.INTER.norm>
-0.573641

>  <SCORE.INTRA>
0.986228

>  <SCORE.INTRA.DIHEDRAL>
-1.2075

>  <SCORE.INTRA.DIHEDRAL.0>
3.49807

>  <SCORE.INTRA.POLAR>
0

>  <SCORE.INTRA.POLAR.0>
0

>  <SCORE.INTRA.REPUL>
0

>  <SCORE.INTRA.REPUL.0>
0

>  <SCORE.INTRA.SOLV>
-0.975076

>  <SCORE.INTRA.SOLV.lig_0>
-73.062

>  <SCORE.INTRA.VDW>
2.07751

>  <SCORE.INTRA.VDW.0>
-1.83782

>  <SCORE.INTRA.norm>
0.0448286

>  <SCORE.RESTR>
0

>  <SCORE.RESTR.CAVITY>
0

>  <SCORE.RESTR.norm>
0

>  <SCORE.SYSTEM>
0

>  <SCORE.SYSTEM.CONST>
0

>  <SCORE.SYSTEM.DIHEDRAL>
0

>  <SCORE.SYSTEM.SOLV>
0

>  <SCORE.SYSTEM.norm>
0

>  <SCORE.heavy>
22

>  <SCORE.norm>
-0.528812

>  <RMSD>
10.928

$$$$
ligand
 OpenBabel11021811513D
libRbt.so/2013.1/901 2013/11/27
 22 23  0  0  0  0  0  0  0  0999 V2000
  -33.6881    4.8980  -20.3659 N   0  0  0  0  0  0  0  0  0  0  0  0
  -32.6239    7.9908  -19.4975 C   0  0  1  0  0  0  0  0  0  0  0  0
  -32.4953    6.8713  -20.4195 O   0  0  0  0  0  0  0  0  0  0  0  0
  -31.7922    5.5709  -16.7285 P   0  0  1  0  0  0  0  0  0  0  0  0
  -33.7879    6.2601  -20.5602 C   0  0  2  0  0  0  0  0  0  0  0  0
  -32.9719    2.9708  -19.6701 N   0  0  0  0  0  0  0  0  0  0  0  0
  -35.9769    6.7248  -19.7303 O   0  0  0  0  0  0  0  0  0  0  0  0
  -34.5787    6.7875  -19.4255 C   0  0  2  0  0  0  0  0  0  0  0  0
  -36.1160    1.3748  -20.7208 N   0  0  0  0  0  0  0  0  0  0  0  0
  -34.5835    8.9982  -20.2974 O   0  0  0  0  0  0  0  0  0  0  0  0
  -34.0754    8.1453  -19.2578 C   0  0  2  0  0  0  0  0  0  0  0  0
  -34.0934    2.7699  -20.3791 C   0  0  0  0  0  0  0  0  0  0  0  0
  -35.7200    4.2104  -21.5801 N   0  0  0  0  0  0  0  0  0  0  0  0
  -32.5164    6.4506  -17.8058 O   0  0  0  0  0  0  0  0  0  0  0  0
  -31.9010    7.6158  -18.2498 C   0  0  0  0  0  0  0  0  0  0  0  0
  -32.9624    4.7204  -16.1138 O   0  0  0  0  0  0  0  0  0  0  0  0
  -32.7190    4.2935  -19.6687 C   0  0  0  0  0  0  0  0  0  0  0  0
  -34.0352    0.4513  -20.7765 O   0  0  0  0  0  0  0  0  0  0  0  0
  -34.7235    1.4628  -20.6418 C   0  0  0  0  0  0  0  0  0  0  0  0
  -34.5520    3.9792  -20.8180 C   0  0  0  0  0  0  0  0  0  0  0  0
  -30.7158    4.7663  -17.3780 O   0  5  0  0  0  0  0  0  0  0  0  0
  -31.0131    6.4138  -15.8037 O   0  0  0  0  0  0  0  0  0  0  0  0
  1 17  1  0  0  0  0
  1 20  1  0  0  0  0
  2 15  1  1  0  0  0
  2  3  1  0  0  0  0
  2 11  1  0  0  0  0
  3  5  1  0  0  0  0
  4 16  1  1  0  0  0
  4 21  1  0  0  0  0
  4 22  2  0  0  0  0
  4 14  1  0  0  0  0
  5  1  1  1  0  0  0
  5  8  1  0  0  0  0
  6 17  2  0  0  0  0
  6 12  1  0  0  0  0
  8  7  1  6  0  0  0
  8 11  1  0  0  0  0
  9 19  1  0  0  0  0
 11 10  1  6  0  0  0
 12 20  2  0  0  0  0
 12 19  1  0  0  0  0
 13 20  1  0  0  0  0
 14 15  1  0  0  0  0
 18 19  2  0  0  0  0
M  CHG  1  21  -1
M  END
>  <CHROM.1>
23.82570559,-58.58957823,159.41146851,164.46287356,145.83662860,-33.40089808
5.23873883,-19.15471126,2.25700872,0.85869714,-3.12012039

>  <Name>
ligand

>  <RI>
0

>  <Rbt.Current_Directory>
/home/itssahil/PROJECTS/Mol_Feturizer/New_Systems/rnas/4XWF

>  <Rbt.Executable>
rbdock ($Id: //depot/dev/client3/rdock/2013.1/src/exe/rbdock.cxx#4 $)

>  <Rbt.Library>
libRbt.so (2013.1, Build901 2013/11/27)

>  <Rbt.Parameter_File>
/export/apps/rDock/src/rDock_2013.1_src/data/scripts/dock_solv.prm

>  <Rbt.Receptor>
prm/blind_docking_100.prm

>  <SCORE>
-11.0106

>  <SCORE.INTER>
-12.6621

>  <SCORE.INTER.CONST>
1

>  <SCORE.INTER.POLAR>
0

>  <SCORE.INTER.ROT>
5

>  <SCORE.INTER.SOLV>
13.3627

>  <SCORE.INTER.VDW>
-19.829

>  <SCORE.INTER.norm>
-0.575552

>  <SCORE.INTRA>
1.65152

>  <SCORE.INTRA.DIHEDRAL>
0.476434

>  <SCORE.INTRA.DIHEDRAL.0>
3.49807

>  <SCORE.INTRA.POLAR>
0

>  <SCORE.INTRA.POLAR.0>
0

>  <SCORE.INTRA.REPUL>
0

>  <SCORE.INTRA.REPUL.0>
0

>  <SCORE.INTRA.SOLV>
2.90539

>  <SCORE.INTRA.SOLV.lig_0>
-73.062

>  <SCORE.INTRA.VDW>
-0.039394

>  <SCORE.INTRA.VDW.0>
-1.83782

>  <SCORE.INTRA.norm>
0.075069

>  <SCORE.RESTR>
0

>  <SCORE.RESTR.CAVITY>
0

>  <SCORE.RESTR.norm>
0

>  <SCORE.SYSTEM>
0

>  <SCORE.SYSTEM.CONST>
0

>  <SCORE.SYSTEM.DIHEDRAL>
0

>  <SCORE.SYSTEM.SOLV>
0

>  <SCORE.SYSTEM.norm>
0

>  <SCORE.heavy>
22

>  <SCORE.norm>
-0.500483

>  <RMSD>
10.943

$$$$
ligand
 OpenBabel11021811513D
libRbt.so/2013.1/901 2013/11/27
 22 23  0  0  0  0  0  0  0  0999 V2000
  -35.5407    0.7288  -19.2729 N   0  0  0  0  0  0  0  0  0  0  0  0
  -32.9900    2.8228  -20.0222 C   0  0  1  0  0  0  0  0  0  0  0  0
  -33.4131    1.4478  -19.7986 O   0  0  0  0  0  0  0  0  0  0  0  0
  -31.9261    5.6385  -17.7271 P   0  0  1  0  0  0  0  0  0  0  0  0
  -34.7704    1.3206  -20.2525 C   0  0  2  0  0  0  0  0  0  0  0  0
  -36.9588    0.4775  -17.6490 N   0  0  0  0  0  0  0  0  0  0  0  0
  -36.3401    2.7701  -21.3159 O   0  0  0  0  0  0  0  0  0  0  0  0
  -35.2556    2.7129  -20.3819 C   0  0  2  0  0  0  0  0  0  0  0  0
  -35.9840   -2.7208  -16.6106 N   0  0  0  0  0  0  0  0  0  0  0  0
  -33.7929    3.1837  -22.1947 O   0  0  0  0  0  0  0  0  0  0  0  0
  -34.0733    3.4504  -20.8102 C   0  0  2  0  0  0  0  0  0  0  0  0
  -36.5080   -0.7358  -18.0032 C   0  0  0  0  0  0  0  0  0  0  0  0
  -34.9307   -1.6202  -19.7041 N   0  0  0  0  0  0  0  0  0  0  0  0
  -32.3592    4.7377  -18.9352 O   0  0  0  0  0  0  0  0  0  0  0  0
  -32.8487    3.4608  -18.6831 C   0  0  0  0  0  0  0  0  0  0  0  0
  -33.1594    5.5544  -16.7564 O   0  0  0  0  0  0  0  0  0  0  0  0
  -36.3514    1.3863  -18.4356 C   0  0  0  0  0  0  0  0  0  0  0  0
  -38.0355   -2.4719  -17.5672 O   0  0  0  0  0  0  0  0  0  0  0  0
  -36.9064   -2.0156  -17.3884 C   0  0  0  0  0  0  0  0  0  0  0  0
  -35.6169   -0.5860  -19.0273 C   0  0  0  0  0  0  0  0  0  0  0  0
  -30.6479    5.1262  -17.1513 O   0  5  0  0  0  0  0  0  0  0  0  0
  -31.5240    6.9782  -18.1921 O   0  0  0  0  0  0  0  0  0  0  0  0
  1 17  1  0  0  0  0
  1 20  1  0  0  0  0
  2 15  1  1  0  0  0
  2  3  1  0  0  0  0
  2 11  1  0  0  0  0
  3  5  1  0  0  0  0
  4 16  1  1  0  0  0
  4 21  1  0  0  0  0
  4 22  2  0  0  0  0
  4 14  1  0  0  0  0
  5  1  1  1  0  0  0
  5  8  1  0  0  0  0
  6 17  2  0  0  0  0
  6 12  1  0  0  0  0
  8  7  1  6  0  0  0
  8 11  1  0  0  0  0
  9 19  1  0  0  0  0
 11 10  1  6  0  0  0
 12 20  2  0  0  0  0
 12 19  1  0  0  0  0
 13 20  1  0  0  0  0
 14 15  1  0  0  0  0
 18 19  2  0  0  0  0
M  CHG  1  21  -1
M  END
>  <CHROM.1>
100.16290907,176.12049951,-49.92349297,-172.73010279,-110.18711234,-34.32415195
2.20949192,-18.84626352,2.88835213,0.95518522,1.86879160

>  <Name>
ligand

>  <RI>
0

>  <Rbt.Current_Directory>
/home/itssahil/PROJECTS/Mol_Feturizer/New_Systems/rnas/4XWF

>  <Rbt.Executable>
rbdock ($Id: //depot/dev/client3/rdock/2013.1/src/exe/rbdock.cxx#4 $)

>  <Rbt.Library>
libRbt.so (2013.1, Build901 2013/11/27)

>  <Rbt.Parameter_File>
/export/apps/rDock/src/rDock_2013.1_src/data/scripts/dock_solv.prm

>  <Rbt.Receptor>
prm/blind_docking_80.prm

>  <SCORE>
-11.6915

>  <SCORE.INTER>
-12.729

>  <SCORE.INTER.CONST>
1

>  <SCORE.INTER.POLAR>
0

>  <SCORE.INTER.ROT>
5

>  <SCORE.INTER.SOLV>
14.4684

>  <SCORE.INTER.VDW>
-20.2422

>  <SCORE.INTER.norm>
-0.578592

>  <SCORE.INTRA>
1.03752

>  <SCORE.INTRA.DIHEDRAL>
-1.39494

>  <SCORE.INTRA.DIHEDRAL.0>
3.49807

>  <SCORE.INTRA.POLAR>
0

>  <SCORE.INTRA.POLAR.0>
0

>  <SCORE.INTRA.REPUL>
0

>  <SCORE.INTRA.REPUL.0>
0

>  <SCORE.INTRA.SOLV>
-0.86105

>  <SCORE.INTRA.SOLV.lig_0>
-73.062

>  <SCORE.INTRA.VDW>
2.16552

>  <SCORE.INTRA.VDW.0>
-1.83782

>  <SCORE.INTRA.norm>
0.0471601

>  <SCORE.RESTR>
0

>  <SCORE.RESTR.CAVITY>
0

>  <SCORE.RESTR.norm>
0

>  <SCORE.SYSTEM>
0

>  <SCORE.SYSTEM.CONST>
0

>  <SCORE.SYSTEM.DIHEDRAL>
0

>  <SCORE.SYSTEM.SOLV>
0

>  <SCORE.SYSTEM.norm>
0

>  <SCORE.heavy>
22

>  <SCORE.norm>
-0.531432

>  <RMSD>
10.944

$$$$
ligand
 OpenBabel11021811513D
libRbt.so/2013.1/901 2013/11/27
 22 23  0  0  0  0  0  0  0  0999 V2000
  -35.5009    0.6777  -19.1977 N   0  0  0  0  0  0  0  0  0  0  0  0
  -32.9812    2.8204  -19.9131 C   0  0  1  0  0  0  0  0  0  0  0  0
  -33.3715    1.4442  -19.6422 O   0  0  0  0  0  0  0  0  0  0  0  0
  -32.2105    5.8073  -17.7145 P   0  0  1  0  0  0  0  0  0  0  0  0
  -34.6960    1.2467  -20.1628 C   0  0  2  0  0  0  0  0  0  0  0  0
  -36.9083    0.4730  -17.5580 N   0  0  0  0  0  0  0  0  0  0  0  0
  -36.2491    2.5851  -21.3845 O   0  0  0  0  0  0  0  0  0  0  0  0
  -35.2180    2.6129  -20.3906 C   0  0  2  0  0  0  0  0  0  0  0  0
  -37.5536   -2.0572  -16.1090 N   0  0  0  0  0  0  0  0  0  0  0  0
  -33.6710    3.0440  -22.1422 O   0  0  0  0  0  0  0  0  0  0  0  0
  -34.0378    3.3692  -20.7909 C   0  0  2  0  0  0  0  0  0  0  0  0
  -36.5778   -0.7563  -17.9824 C   0  0  0  0  0  0  0  0  0  0  0  0
  -35.1181   -1.6916  -19.7595 N   0  0  0  0  0  0  0  0  0  0  0  0
  -32.3326    4.7530  -18.8688 O   0  0  0  0  0  0  0  0  0  0  0  0
  -32.9367    3.5290  -18.6031 C   0  0  0  0  0  0  0  0  0  0  0  0
  -31.7207    4.9474  -16.4933 O   0  0  0  0  0  0  0  0  0  0  0  0
  -36.2330    1.3621  -18.3110 C   0  0  0  0  0  0  0  0  0  0  0  0
  -37.0771   -3.0529  -18.1008 O   0  0  0  0  0  0  0  0  0  0  0  0
  -37.0823   -2.0246  -17.4242 C   0  0  0  0  0  0  0  0  0  0  0  0
  -35.6942   -0.6356  -19.0168 C   0  0  0  0  0  0  0  0  0  0  0  0
  -31.2723    6.8937  -18.1237 O   0  5  0  0  0  0  0  0  0  0  0  0
  -33.4718    6.5525  -17.5520 O   0  0  0  0  0  0  0  0  0  0  0  0
  1 17  1  0  0  0  0
  1 20  1  0  0  0  0
  2 15  1  1  0  0  0
  2  3  1  0  0  0  0
  2 11  1  0  0  0  0
  3  5  1  0  0  0  0
  4 16  1  1  0  0  0
  4 21  1  0  0  0  0
  4 22  2  0  0  0  0
  4 14  1  0  0  0  0
  5  1  1  1  0  0  0
  5  8  1  0  0  0  0
  6 17  2  0  0  0  0
  6 12  1  0  0  0  0
  8  7  1  6  0  0  0
  8 11  1  0  0  0  0
  9 19  1  0  0  0  0
 11 10  1  6  0  0  0
 12 20  2  0  0  0  0
 12 19  1  0  0  0  0
 13 20  1  0  0  0  0
 14 15  1  0  0  0  0
 18 19  2  0  0  0  0
M  CHG  1  21  -1
M  END
>  <CHROM.1>
89.91701275,169.49221574,44.67929045,175.88564373,-23.86428586,-34.42172239
2.22941469,-18.82220238,-3.13361721,1.01285246,1.55811828

>  <Name>
ligand

>  <RI>
0

>  <Rbt.Current_Directory>
/home/itssahil/PROJECTS/Mol_Feturizer/New_Systems/rnas/4XWF

>  <Rbt.Executable>
rbdock ($Id: //depot/dev/client3/rdock/2013.1/src/exe/rbdock.cxx#4 $)

>  <Rbt.Library>
libRbt.so (2013.1, Build901 2013/11/27)

>  <Rbt.Parameter_File>
/export/apps/rDock/src/rDock_2013.1_src/data/scripts/dock_solv.prm

>  <Rbt.Receptor>
prm/blind_docking_100.prm

>  <SCORE>
-11.006

>  <SCORE.INTER>
-12.026

>  <SCORE.INTER.CONST>
1

>  <SCORE.INTER.POLAR>
0

>  <SCORE.INTER.ROT>
5

>  <SCORE.INTER.SOLV>
17.3972

>  <SCORE.INTER.VDW>
-20.7497

>  <SCORE.INTER.norm>
-0.546635

>  <SCORE.INTRA>
1.01998

>  <SCORE.INTRA.DIHEDRAL>
-0.524184

>  <SCORE.INTRA.DIHEDRAL.0>
3.49807

>  <SCORE.INTRA.POLAR>
0

>  <SCORE.INTRA.POLAR.0>
0

>  <SCORE.INTRA.REPUL>
0

>  <SCORE.INTRA.REPUL.0>
0

>  <SCORE.INTRA.SOLV>
-1.07906

>  <SCORE.INTRA.SOLV.lig_0>
-73.062

>  <SCORE.INTRA.VDW>
1.8216

>  <SCORE.INTRA.VDW.0>
-1.83782

>  <SCORE.INTRA.norm>
0.0463626

>  <SCORE.RESTR>
0

>  <SCORE.RESTR.CAVITY>
0

>  <SCORE.RESTR.norm>
0

>  <SCORE.SYSTEM>
0

>  <SCORE.SYSTEM.CONST>
0

>  <SCORE.SYSTEM.DIHEDRAL>
0

>  <SCORE.SYSTEM.SOLV>
0

>  <SCORE.SYSTEM.norm>
0

>  <SCORE.heavy>
22

>  <SCORE.norm>
-0.500272

>  <RMSD>
10.951

$$$$
ligand
 OpenBabel11021811513D
libRbt.so/2013.1/901 2013/11/27
 22 23  0  0  0  0  0  0  0  0999 V2000
  -35.9920    0.5929  -18.9249 N   0  0  0  0  0  0  0  0  0  0  0  0
  -33.3029    2.4100  -19.8839 C   0  0  1  0  0  0  0  0  0  0  0  0
  -33.8160    1.1046  -19.4932 O   0  0  0  0  0  0  0  0  0  0  0  0
  -32.2296    5.4968  -17.9727 P   0  0  1  0  0  0  0  0  0  0  0  0
  -35.1724    1.0031  -19.9560 C   0  0  2  0  0  0  0  0  0  0  0  0
  -37.5199    0.6170  -17.3834 N   0  0  0  0  0  0  0  0  0  0  0  0
  -36.6319    2.3951  -21.2320 O   0  0  0  0  0  0  0  0  0  0  0  0
  -35.5659    2.3938  -20.2752 C   0  0  2  0  0  0  0  0  0  0  0  0
  -37.8612   -2.9283  -17.1814 N   0  0  0  0  0  0  0  0  0  0  0  0
  -34.0519    2.5326  -22.1017 O   0  0  0  0  0  0  0  0  0  0  0  0
  -34.3332    2.9946  -20.7698 C   0  0  2  0  0  0  0  0  0  0  0  0
  -36.9959   -0.6172  -17.4347 C   0  0  0  0  0  0  0  0  0  0  0  0
  -35.2587   -1.7567  -18.7938 N   0  0  0  0  0  0  0  0  0  0  0  0
  -32.4425    4.3485  -19.0190 O   0  0  0  0  0  0  0  0  0  0  0  0
  -33.1391    3.2075  -18.6360 C   0  0  0  0  0  0  0  0  0  0  0  0
  -31.8952    4.7185  -16.6487 O   0  0  0  0  0  0  0  0  0  0  0  0
  -36.8899    1.3686  -18.3064 C   0  0  0  0  0  0  0  0  0  0  0  0
  -37.3205   -1.6756  -15.3582 O   0  0  0  0  0  0  0  0  0  0  0  0
  -37.3898   -1.7560  -16.5845 C   0  0  0  0  0  0  0  0  0  0  0  0
  -36.0351   -0.6411  -18.4051 C   0  0  0  0  0  0  0  0  0  0  0  0
  -31.1486    6.4118  -18.4440 O   0  5  0  0  0  0  0  0  0  0  0  0
  -33.3923    6.4024  -17.9473 O   0  0  0  0  0  0  0  0  0  0  0  0
  1 17  1  0  0  0  0
  1 20  1  0  0  0  0
  2 15  1  1  0  0  0
  2  3  1  0  0  0  0
  2 11  1  0  0  0  0
  3  5  1  0  0  0  0
  4 16  1  1  0  0  0
  4 21  1  0  0  0  0
  4 22  2  0  0  0  0
  4 14  1  0  0  0  0
  5  1  1  1  0  0  0
  5  8  1  0  0  0  0
  6 17  2  0  0  0  0
  6 12  1  0  0  0  0
  8  7  1  6  0  0  0
  8 11  1  0  0  0  0
  9 19  1  0  0  0  0
 11 10  1  6  0  0  0
 12 20  2  0  0  0  0
 12 19  1  0  0  0  0
 13 20  1  0  0  0  0
 14 15  1  0  0  0  0
 18 19  2  0  0  0  0
M  CHG  1  21  -1
M  END
>  <CHROM.1>
108.80608563,170.20180263,41.00936077,173.36863626,121.47698832,-34.69255408
2.06958165,-18.64524872,2.94467269,0.93575959,1.66134108

>  <Name>
ligand

>  <RI>
0

>  <Rbt.Current_Directory>
/home/itssahil/PROJECTS/Mol_Feturizer/New_Systems/rnas/4XWF

>  <Rbt.Executable>
rbdock ($Id: //depot/dev/client3/rdock/2013.1/src/exe/rbdock.cxx#4 $)

>  <Rbt.Library>
libRbt.so (2013.1, Build901 2013/11/27)

>  <Rbt.Parameter_File>
/export/apps/rDock/src/rDock_2013.1_src/data/scripts/dock_solv.prm

>  <Rbt.Receptor>
prm/blind_docking_60.prm

>  <SCORE>
-11.3441

>  <SCORE.INTER>
-13.1136

>  <SCORE.INTER.CONST>
1

>  <SCORE.INTER.POLAR>
0

>  <SCORE.INTER.ROT>
5

>  <SCORE.INTER.SOLV>
15.8271

>  <SCORE.INTER.VDW>
-20.9515

>  <SCORE.INTER.norm>
-0.596074

>  <SCORE.INTRA>
1.76952

>  <SCORE.INTRA.DIHEDRAL>
-0.813893

>  <SCORE.INTRA.DIHEDRAL.0>
3.49807

>  <SCORE.INTRA.POLAR>
0

>  <SCORE.INTRA.POLAR.0>
0

>  <SCORE.INTRA.REPUL>
0

>  <SCORE.INTRA.REPUL.0>
0

>  <SCORE.INTRA.SOLV>
-0.675699

>  <SCORE.INTRA.SOLV.lig_0>
-73.062

>  <SCORE.INTRA.VDW>
2.51431

>  <SCORE.INTRA.VDW.0>
-1.83782

>  <SCORE.INTRA.norm>
0.0804325

>  <SCORE.RESTR>
0

>  <SCORE.RESTR.CAVITY>
0

>  <SCORE.RESTR.norm>
0

>  <SCORE.SYSTEM>
0

>  <SCORE.SYSTEM.CONST>
0

>  <SCORE.SYSTEM.DIHEDRAL>
0

>  <SCORE.SYSTEM.SOLV>
0

>  <SCORE.SYSTEM.norm>
0

>  <SCORE.heavy>
22

>  <SCORE.norm>
-0.515642

>  <RMSD>
11.018

$$$$
ligand
 OpenBabel11021811513D
libRbt.so/2013.1/901 2013/11/27
 22 23  0  0  0  0  0  0  0  0999 V2000
  -35.9459    1.7750  -20.0229 N   0  0  0  0  0  0  0  0  0  0  0  0
  -32.9087    3.2669  -20.0679 C   0  0  1  0  0  0  0  0  0  0  0  0
  -33.6549    2.0184  -20.1322 O   0  0  0  0  0  0  0  0  0  0  0  0
  -32.1274    5.7292  -17.3128 P   0  0  1  0  0  0  0  0  0  0  0  0
  -34.9101    2.2831  -20.7793 C   0  0  2  0  0  0  0  0  0  0  0  0
  -37.9171    1.5168  -19.1518 N   0  0  0  0  0  0  0  0  0  0  0  0
  -35.9203    4.1938  -21.7916 O   0  0  0  0  0  0  0  0  0  0  0  0
  -35.0488    3.7563  -20.7424 C   0  0  2  0  0  0  0  0  0  0  0  0
  -37.6387   -1.8705  -18.2810 N   0  0  0  0  0  0  0  0  0  0  0  0
  -33.2333    4.0872  -22.2396 O   0  0  0  0  0  0  0  0  0  0  0  0
  -33.6785    4.2340  -20.8807 C   0  0  2  0  0  0  0  0  0  0  0  0
  -37.1328    0.5187  -18.7168 C   0  0  0  0  0  0  0  0  0  0  0  0
  -34.7776   -0.1787  -19.0775 N   0  0  0  0  0  0  0  0  0  0  0  0
  -32.1280    4.8569  -18.6157 O   0  0  0  0  0  0  0  0  0  0  0  0
  -32.8595    3.6744  -18.6355 C   0  0  0  0  0  0  0  0  0  0  0  0
  -31.9523    4.6656  -16.1688 O   0  0  0  0  0  0  0  0  0  0  0  0
  -37.1753    2.2994  -19.9585 C   0  0  0  0  0  0  0  0  0  0  0  0
  -37.8137   -0.3172  -16.6251 O   0  0  0  0  0  0  0  0  0  0  0  0
  -37.5426   -0.5618  -17.8006 C   0  0  0  0  0  0  0  0  0  0  0  0
  -35.8907    0.6727  -19.2634 C   0  0  0  0  0  0  0  0  0  0  0  0
  -31.0355    6.7440  -17.3882 O   0  5  0  0  0  0  0  0  0  0  0  0
  -33.3245    6.5875  -17.2582 O   0  0  0  0  0  0  0  0  0  0  0  0
  1 17  1  0  0  0  0
  1 20  1  0  0  0  0
  2 15  1  1  0  0  0
  2  3  1  0  0  0  0
  2 11  1  0  0  0  0
  3  5  1  0  0  0  0
  4 16  1  1  0  0  0
  4 21  1  0  0  0  0
  4 22  2  0  0  0  0
  4 14  1  0  0  0  0
  5  1  1  1  0  0  0
  5  8  1  0  0  0  0
  6 17  2  0  0  0  0
  6 12  1  0  0  0  0
  8  7  1  6  0  0  0
  8 11  1  0  0  0  0
  9 19  1  0  0  0  0
 11 10  1  6  0  0  0
 12 20  2  0  0  0  0
 12 19  1  0  0  0  0
 13 20  1  0  0  0  0
 14 15  1  0  0  0  0
 18 19  2  0  0  0  0
M  CHG  1  21  -1
M  END
>  <CHROM.1>
148.58148046,179.30499726,43.53227452,167.36402041,111.38894424,-34.51988889
2.98722004,-19.00822993,3.09535631,0.84111405,1.76161285

>  <Name>
ligand

>  <RI>
0

>  <Rbt.Current_Directory>
/home/itssahil/PROJECTS/Mol_Feturizer/New_Systems/rnas/4XWF

>  <Rbt.Executable>
rbdock ($Id: //depot/dev/client3/rdock/2013.1/src/exe/rbdock.cxx#4 $)

>  <Rbt.Library>
libRbt.so (2013.1, Build901 2013/11/27)

>  <Rbt.Parameter_File>
/export/apps/rDock/src/rDock_2013.1_src/data/scripts/dock_solv.prm

>  <Rbt.Receptor>
prm/blind_docking_60.prm

>  <SCORE>
-11.2161

>  <SCORE.INTER>
-12.9097

>  <SCORE.INTER.CONST>
1

>  <SCORE.INTER.POLAR>
0

>  <SCORE.INTER.ROT>
5

>  <SCORE.INTER.SOLV>
18.6476

>  <SCORE.INTER.VDW>
-21.7557

>  <SCORE.INTER.norm>
-0.586805

>  <SCORE.INTRA>
1.69365

>  <SCORE.INTRA.DIHEDRAL>
-0.713396

>  <SCORE.INTRA.DIHEDRAL.0>
3.49807

>  <SCORE.INTRA.POLAR>
0

>  <SCORE.INTRA.POLAR.0>
0

>  <SCORE.INTRA.REPUL>
0

>  <SCORE.INTRA.REPUL.0>
0

>  <SCORE.INTRA.SOLV>
0.939077

>  <SCORE.INTRA.SOLV.lig_0>
-73.062

>  <SCORE.INTRA.VDW>
1.58081

>  <SCORE.INTRA.VDW.0>
-1.83782

>  <SCORE.INTRA.norm>
0.076984

>  <SCORE.RESTR>
0

>  <SCORE.RESTR.CAVITY>
0

>  <SCORE.RESTR.norm>
0

>  <SCORE.SYSTEM>
0

>  <SCORE.SYSTEM.CONST>
0

>  <SCORE.SYSTEM.DIHEDRAL>
0

>  <SCORE.SYSTEM.SOLV>
0

>  <SCORE.SYSTEM.norm>
0

>  <SCORE.heavy>
22

>  <SCORE.norm>
-0.509821

>  <RMSD>
11.079

$$$$
ligand
 OpenBabel11021811513D
libRbt.so/2013.1/901 2013/11/27
 22 23  0  0  0  0  0  0  0  0999 V2000
  -35.2433    1.1470  -19.6971 N   0  0  0  0  0  0  0  0  0  0  0  0
  -33.1490    3.5904  -20.7442 C   0  0  1  0  0  0  0  0  0  0  0  0
  -33.2826    2.2245  -20.2579 O   0  0  0  0  0  0  0  0  0  0  0  0
  -32.0373    4.9282  -17.3777 P   0  0  1  0  0  0  0  0  0  0  0  0
  -34.5304    1.7006  -20.7404 C   0  0  2  0  0  0  0  0  0  0  0  0
  -36.5512    0.9616  -17.9749 N   0  0  0  0  0  0  0  0  0  0  0  0
  -36.2693    2.5127  -22.1592 O   0  0  0  0  0  0  0  0  0  0  0  0
  -35.2920    2.8903  -21.1824 C   0  0  2  0  0  0  0  0  0  0  0  0
  -37.1791   -2.5249  -18.3909 N   0  0  0  0  0  0  0  0  0  0  0  0
  -33.8011    3.3283  -22.9804 O   0  0  0  0  0  0  0  0  0  0  0  0
  -34.2629    3.7849  -21.6980 C   0  0  2  0  0  0  0  0  0  0  0  0
  -36.1499   -0.2685  -18.3305 C   0  0  0  0  0  0  0  0  0  0  0  0
  -34.7107   -1.2234  -20.1139 N   0  0  0  0  0  0  0  0  0  0  0  0
  -32.2109    4.1609  -18.7340 O   0  0  0  0  0  0  0  0  0  0  0  0
  -33.2775    4.4901  -19.5635 C   0  0  0  0  0  0  0  0  0  0  0  0
  -32.9959    4.1539  -16.4020 O   0  0  0  0  0  0  0  0  0  0  0  0
  -35.9814    1.8397  -18.8221 C   0  0  0  0  0  0  0  0  0  0  0  0
  -36.2946   -1.6941  -16.4640 O   0  0  0  0  0  0  0  0  0  0  0  0
  -36.5303   -1.5258  -17.6603 C   0  0  0  0  0  0  0  0  0  0  0  0
  -35.3283   -0.1602  -19.4162 C   0  0  0  0  0  0  0  0  0  0  0  0
  -30.6003    4.9161  -16.9741 O   0  5  0  0  0  0  0  0  0  0  0  0
  -32.2807    6.3707  -17.5586 O   0  0  0  0  0  0  0  0  0  0  0  0
  1 17  1  0  0  0  0
  1 20  1  0  0  0  0
  2 15  1  1  0  0  0
  2  3  1  0  0  0  0
  2 11  1  0  0  0  0
  3  5  1  0  0  0  0
  4 16  1  1  0  0  0
  4 21  1  0  0  0  0
  4 22  2  0  0  0  0
  4 14  1  0  0  0  0
  5  1  1  1  0  0  0
  5  8  1  0  0  0  0
  6 17  2  0  0  0  0
  6 12  1  0  0  0  0
  8  7  1  6  0  0  0
  8 11  1  0  0  0  0
  9 19  1  0  0  0  0
 11 10  1  6  0  0  0
 12 20  2  0  0  0  0
 12 19  1  0  0  0  0
 13 20  1  0  0  0  0
 14 15  1  0  0  0  0
 18 19  2  0  0  0  0
M  CHG  1  21  -1
M  END
>  <CHROM.1>
80.72293239,62.31859158,83.81563900,179.98232636,121.36405936,-34.24459832
2.31699731,-19.12227011,2.94050251,0.94350047,1.90440807

>  <Name>
ligand

>  <RI>
0

>  <Rbt.Current_Directory>
/home/itssahil/PROJECTS/Mol_Feturizer/New_Systems/rnas/4XWF

>  <Rbt.Executable>
rbdock ($Id: //depot/dev/client3/rdock/2013.1/src/exe/rbdock.cxx#4 $)

>  <Rbt.Library>
libRbt.so (2013.1, Build901 2013/11/27)

>  <Rbt.Parameter_File>
/export/apps/rDock/src/rDock_2013.1_src/data/scripts/dock_solv.prm

>  <Rbt.Receptor>
prm/blind_docking_80.prm

>  <SCORE>
-13.5607

>  <SCORE.INTER>
-13.4323

>  <SCORE.INTER.CONST>
1

>  <SCORE.INTER.POLAR>
0

>  <SCORE.INTER.ROT>
5

>  <SCORE.INTER.SOLV>
17.9267

>  <SCORE.INTER.VDW>
-21.8638

>  <SCORE.INTER.norm>
-0.610559

>  <SCORE.INTRA>
-0.128385

>  <SCORE.INTRA.DIHEDRAL>
-1.18323

>  <SCORE.INTRA.DIHEDRAL.0>
3.49807

>  <SCORE.INTRA.POLAR>
0

>  <SCORE.INTRA.POLAR.0>
0

>  <SCORE.INTRA.REPUL>
0

>  <SCORE.INTRA.REPUL.0>
0

>  <SCORE.INTRA.SOLV>
-0.841267

>  <SCORE.INTRA.SOLV.lig_0>
-73.062

>  <SCORE.INTRA.VDW>
0.883862

>  <SCORE.INTRA.VDW.0>
-1.83782

>  <SCORE.INTRA.norm>
-0.00583566

>  <SCORE.RESTR>
0

>  <SCORE.RESTR.CAVITY>
0

>  <SCORE.RESTR.norm>
0

>  <SCORE.SYSTEM>
0

>  <SCORE.SYSTEM.CONST>
0

>  <SCORE.SYSTEM.DIHEDRAL>
0

>  <SCORE.SYSTEM.SOLV>
0

>  <SCORE.SYSTEM.norm>
0

>  <SCORE.heavy>
22

>  <SCORE.norm>
-0.616395

>  <RMSD>
11.143

$$$$
ligand
 OpenBabel11021811513D
libRbt.so/2013.1/901 2013/11/27
 22 23  0  0  0  0  0  0  0  0999 V2000
  -36.1946    1.6424  -19.8941 N   0  0  0  0  0  0  0  0  0  0  0  0
  -33.1827    3.0722  -20.4743 C   0  0  1  0  0  0  0  0  0  0  0  0
  -33.9333    1.8361  -20.3051 O   0  0  0  0  0  0  0  0  0  0  0  0
  -31.8920    5.7137  -18.0838 P   0  0  1  0  0  0  0  0  0  0  0  0
  -35.2572    2.0453  -20.8227 C   0  0  2  0  0  0  0  0  0  0  0  0
  -38.0423    1.5229  -18.7615 N   0  0  0  0  0  0  0  0  0  0  0  0
  -36.3793    3.8443  -21.9184 O   0  0  0  0  0  0  0  0  0  0  0  0
  -35.3879    3.5151  -20.9383 C   0  0  2  0  0  0  0  0  0  0  0  0
  -37.7265    0.0392  -15.9531 N   0  0  0  0  0  0  0  0  0  0  0  0
  -33.7666    3.6457  -22.6708 O   0  0  0  0  0  0  0  0  0  0  0  0
  -34.0436    3.9526  -21.2941 C   0  0  2  0  0  0  0  0  0  0  0  0
  -37.2208    0.5553  -18.3264 C   0  0  0  0  0  0  0  0  0  0  0  0
  -34.9386   -0.2331  -18.9039 N   0  0  0  0  0  0  0  0  0  0  0  0
  -32.3053    4.8478  -19.3239 O   0  0  0  0  0  0  0  0  0  0  0  0
  -32.9595    3.6387  -19.1145 C   0  0  0  0  0  0  0  0  0  0  0  0
  -33.2528    5.9304  -17.3276 O   0  0  0  0  0  0  0  0  0  0  0  0
  -37.3997    2.2009  -19.7316 C   0  0  0  0  0  0  0  0  0  0  0  0
  -37.5840   -1.6202  -17.5061 O   0  0  0  0  0  0  0  0  0  0  0  0
  -37.5237   -0.4159  -17.2588 C   0  0  0  0  0  0  0  0  0  0  0  0
  -36.0564    0.6222  -19.0370 C   0  0  0  0  0  0  0  0  0  0  0  0
  -30.8510    4.9937  -17.2927 O   0  5  0  0  0  0  0  0  0  0  0  0
  -31.1578    6.9188  -18.5095 O   0  0  0  0  0  0  0  0  0  0  0  0
  1 17  1  0  0  0  0
  1 20  1  0  0  0  0
  2 15  1  1  0  0  0
  2  3  1  0  0  0  0
  2 11  1  0  0  0  0
  3  5  1  0  0  0  0
  4 16  1  1  0  0  0
  4 21  1  0  0  0  0
  4 22  2  0  0  0  0
  4 14  1  0  0  0  0
  5  1  1  1  0  0  0
  5  8  1  0  0  0  0
  6 17  2  0  0  0  0
  6 12  1  0  0  0  0
  8  7  1  6  0  0  0
  8 11  1  0  0  0  0
  9 19  1  0  0  0  0
 11 10  1  6  0  0  0
 12 20  2  0  0  0  0
 12 19  1  0  0  0  0
 13 20  1  0  0  0  0
 14 15  1  0  0  0  0
 18 19  2  0  0  0  0
M  CHG  1  21  -1
M  END
>  <CHROM.1>
147.69126156,-176.93194397,-56.43363281,-179.10456579,-64.18453128,-34.60582516
2.90267837,-19.18928930,2.92175655,0.77534627,1.80186724

>  <Name>
ligand

>  <RI>
0

>  <Rbt.Current_Directory>
/home/itssahil/PROJECTS/Mol_Feturizer/New_Systems/rnas/4XWF

>  <Rbt.Executable>
rbdock ($Id: //depot/dev/client3/rdock/2013.1/src/exe/rbdock.cxx#4 $)

>  <Rbt.Library>
libRbt.so (2013.1, Build901 2013/11/27)

>  <Rbt.Parameter_File>
/export/apps/rDock/src/rDock_2013.1_src/data/scripts/dock_solv.prm

>  <Rbt.Receptor>
prm/blind_docking_100.prm

>  <SCORE>
-11.1826

>  <SCORE.INTER>
-12.8197

>  <SCORE.INTER.CONST>
1

>  <SCORE.INTER.POLAR>
0

>  <SCORE.INTER.ROT>
5

>  <SCORE.INTER.SOLV>
16.8719

>  <SCORE.INTER.VDW>
-21.1038

>  <SCORE.INTER.norm>
-0.582713

>  <SCORE.INTRA>
1.6371

>  <SCORE.INTRA.DIHEDRAL>
-0.332116

>  <SCORE.INTRA.DIHEDRAL.0>
3.49807

>  <SCORE.INTRA.POLAR>
0

>  <SCORE.INTRA.POLAR.0>
0

>  <SCORE.INTRA.REPUL>
0

>  <SCORE.INTRA.REPUL.0>
0

>  <SCORE.INTRA.SOLV>
0.610737

>  <SCORE.INTRA.SOLV.lig_0>
-73.062

>  <SCORE.INTRA.VDW>
1.49779

>  <SCORE.INTRA.VDW.0>
-1.83782

>  <SCORE.INTRA.norm>
0.0744138

>  <SCORE.RESTR>
0

>  <SCORE.RESTR.CAVITY>
0

>  <SCORE.RESTR.norm>
0

>  <SCORE.SYSTEM>
0

>  <SCORE.SYSTEM.CONST>
0

>  <SCORE.SYSTEM.DIHEDRAL>
0

>  <SCORE.SYSTEM.SOLV>
0

>  <SCORE.SYSTEM.norm>
0

>  <SCORE.heavy>
22

>  <SCORE.norm>
-0.508299

>  <RMSD>
11.221

$$$$
ligand
 OpenBabel11021811513D
libRbt.so/2013.1/901 2013/11/27
 22 23  0  0  0  0  0  0  0  0999 V2000
  -35.3221    0.9769  -19.4909 N   0  0  0  0  0  0  0  0  0  0  0  0
  -33.0138    3.1893  -20.5998 C   0  0  1  0  0  0  0  0  0  0  0  0
  -33.2754    1.8454  -20.1045 O   0  0  0  0  0  0  0  0  0  0  0  0
  -32.3192    6.4940  -18.8872 P   0  0  1  0  0  0  0  0  0  0  0  0
  -34.5822    1.4521  -20.5539 C   0  0  2  0  0  0  0  0  0  0  0  0
  -36.6031    0.9301  -17.7394 N   0  0  0  0  0  0  0  0  0  0  0  0
  -36.2628    2.4367  -21.9330 O   0  0  0  0  0  0  0  0  0  0  0  0
  -35.2278    2.7133  -20.9822 C   0  0  2  0  0  0  0  0  0  0  0  0
  -37.4165   -1.4272  -16.1482 N   0  0  0  0  0  0  0  0  0  0  0  0
  -33.7449    2.9919  -22.8182 O   0  0  0  0  0  0  0  0  0  0  0  0
  -34.1251    3.4960  -21.5268 C   0  0  2  0  0  0  0  0  0  0  0  0
  -36.3315   -0.3353  -18.0937 C   0  0  0  0  0  0  0  0  0  0  0  0
  -35.0323   -1.4365  -19.9001 N   0  0  0  0  0  0  0  0  0  0  0  0
  -32.5757    5.3263  -19.9018 O   0  0  0  0  0  0  0  0  0  0  0  0
  -33.0194    4.0996  -19.4202 C   0  0  0  0  0  0  0  0  0  0  0  0
  -31.8459    7.6746  -19.8107 O   0  0  0  0  0  0  0  0  0  0  0  0
  -35.9695    1.7435  -18.6058 C   0  0  0  0  0  0  0  0  0  0  0  0
  -36.6863   -2.6552  -17.9216 O   0  0  0  0  0  0  0  0  0  0  0  0
  -36.8175   -1.5455  -17.4053 C   0  0  0  0  0  0  0  0  0  0  0  0
  -35.5278   -0.3141  -19.1978 C   0  0  0  0  0  0  0  0  0  0  0  0
  -33.5663    6.7721  -18.1157 O   0  5  0  0  0  0  0  0  0  0  0  0
  -31.4004    6.0644  -17.8177 O   0  0  0  0  0  0  0  0  0  0  0  0
  1 17  1  0  0  0  0
  1 20  1  0  0  0  0
  2 15  1  1  0  0  0
  2  3  1  0  0  0  0
  2 11  1  0  0  0  0
  3  5  1  0  0  0  0
  4 16  1  6  0  0  0
  4 21  1  0  0  0  0
  4 22  2  0  0  0  0
  4 14  1  0  0  0  0
  5  1  1  1  0  0  0
  5  8  1  0  0  0  0
  6 17  2  0  0  0  0
  6 12  1  0  0  0  0
  8  7  1  6  0  0  0
  8 11  1  0  0  0  0
  9 19  1  0  0  0  0
 11 10  1  6  0  0  0
 12 20  2  0  0  0  0
 12 19  1  0  0  0  0
 13 20  1  0  0  0  0
 14 15  1  0  0  0  0
 18 19  2  0  0  0  0
M  CHG  1  21  -1
M  END
>  <CHROM.1>
81.14727316,171.51871193,-179.80207496,-173.87745598,-12.09340322,-34.38100839
2.63829947,-19.40837599,-3.12236499,1.06760476,1.40069394

>  <Name>
ligand

>  <RI>
0

>  <Rbt.Current_Directory>
/home/itssahil/PROJECTS/Mol_Feturizer/New_Systems/rnas/4XWF

>  <Rbt.Executable>
rbdock ($Id: //depot/dev/client3/rdock/2013.1/src/exe/rbdock.cxx#4 $)

>  <Rbt.Library>
libRbt.so (2013.1, Build901 2013/11/27)

>  <Rbt.Parameter_File>
/export/apps/rDock/src/rDock_2013.1_src/data/scripts/dock_solv.prm

>  <Rbt.Receptor>
prm/blind_docking_80.prm

>  <SCORE>
-9.67252

>  <SCORE.INTER>
-9.96942

>  <SCORE.INTER.CONST>
1

>  <SCORE.INTER.POLAR>
0

>  <SCORE.INTER.ROT>
5

>  <SCORE.INTER.SOLV>
15.7448

>  <SCORE.INTER.VDW>
-18.8279

>  <SCORE.INTER.norm>
-0.453156

>  <SCORE.INTRA>
0.296901

>  <SCORE.INTRA.DIHEDRAL>
-1.36908

>  <SCORE.INTRA.DIHEDRAL.0>
3.49807

>  <SCORE.INTRA.POLAR>
0

>  <SCORE.INTRA.POLAR.0>
0

>  <SCORE.INTRA.REPUL>
0

>  <SCORE.INTRA.REPUL.0>
0

>  <SCORE.INTRA.SOLV>
-0.403406

>  <SCORE.INTRA.SOLV.lig_0>
-73.062

>  <SCORE.INTRA.VDW>
1.18315

>  <SCORE.INTRA.VDW.0>
-1.83782

>  <SCORE.INTRA.norm>
0.0134955

>  <SCORE.RESTR>
0

>  <SCORE.RESTR.CAVITY>
0

>  <SCORE.RESTR.norm>
0

>  <SCORE.SYSTEM>
0

>  <SCORE.SYSTEM.CONST>
0

>  <SCORE.SYSTEM.DIHEDRAL>
0

>  <SCORE.SYSTEM.SOLV>
0

>  <SCORE.SYSTEM.norm>
0

>  <SCORE.heavy>
22

>  <SCORE.norm>
-0.43966

>  <RMSD>
11.260

$$$$
ligand
 OpenBabel11021811513D
libRbt.so/2013.1/901 2013/11/27
 22 23  0  0  0  0  0  0  0  0999 V2000
  -34.3808    3.8687  -20.5134 N   0  0  0  0  0  0  0  0  0  0  0  0
  -33.4145    7.0438  -21.1747 C   0  0  1  0  0  0  0  0  0  0  0  0
  -33.3249    5.6393  -21.5477 O   0  0  0  0  0  0  0  0  0  0  0  0
  -32.3939    6.4037  -17.5848 P   0  0  1  0  0  0  0  0  0  0  0  0
  -34.5854    5.0181  -21.2483 C   0  0  2  0  0  0  0  0  0  0  0  0
  -33.5042    2.4479  -19.1263 N   0  0  0  0  0  0  0  0  0  0  0  0
  -36.6884    5.7778  -20.4139 O   0  0  0  0  0  0  0  0  0  0  0  0
  -35.2708    5.9731  -20.3488 C   0  0  2  0  0  0  0  0  0  0  0  0
  -36.3810    0.4930  -18.5794 N   0  0  0  0  0  0  0  0  0  0  0  0
  -35.5110    7.6028  -22.0616 O   0  0  0  0  0  0  0  0  0  0  0  0
  -34.8355    7.2765  -20.8355 C   0  0  2  0  0  0  0  0  0  0  0  0
  -34.6313    1.9117  -19.6188 C   0  0  0  0  0  0  0  0  0  0  0  0
  -36.3973    2.6328  -21.2078 N   0  0  0  0  0  0  0  0  0  0  0  0
  -33.0137    6.3641  -19.0245 O   0  0  0  0  0  0  0  0  0  0  0  0
  -32.5311    7.2398  -19.9910 C   0  0  0  0  0  0  0  0  0  0  0  0
  -32.6524    7.8838  -17.1232 O   0  0  0  0  0  0  0  0  0  0  0  0
  -33.3477    3.6615  -19.6885 C   0  0  0  0  0  0  0  0  0  0  0  0
  -34.5657   -0.4404  -19.5889 O   0  0  0  0  0  0  0  0  0  0  0  0
  -35.1738    0.5835  -19.2775 C   0  0  0  0  0  0  0  0  0  0  0  0
  -35.1906    2.8017  -20.4908 C   0  0  0  0  0  0  0  0  0  0  0  0
  -33.0419    5.3656  -16.7301 O   0  5  0  0  0  0  0  0  0  0  0  0
  -30.9955    5.9381  -17.6050 O   0  0  0  0  0  0  0  0  0  0  0  0
  1 17  1  0  0  0  0
  1 20  1  0  0  0  0
  2 15  1  1  0  0  0
  2  3  1  0  0  0  0
  2 11  1  0  0  0  0
  3  5  1  0  0  0  0
  4 16  1  1  0  0  0
  4 21  1  0  0  0  0
  4 22  2  0  0  0  0
  4 14  1  0  0  0  0
  5  1  1  1  0  0  0
  5  8  1  0  0  0  0
  6 17  2  0  0  0  0
  6 12  1  0  0  0  0
  8  7  1  6  0  0  0
  8 11  1  0  0  0  0
  9 19  1  0  0  0  0
 11 10  1  6  0  0  0
 12 20  2  0  0  0  0
 12 19  1  0  0  0  0
 13 20  1  0  0  0  0
 14 15  1  0  0  0  0
 18 19  2  0  0  0  0
M  CHG  1  21  -1
M  END
>  <CHROM.1>
28.61525123,-58.22392404,58.67511572,-174.25830529,113.42142249,-34.04626995
4.78624183,-19.56985760,2.18016729,0.86671414,2.79593611

>  <Name>
ligand

>  <RI>
0

>  <Rbt.Current_Directory>
/home/itssahil/PROJECTS/Mol_Feturizer/New_Systems/rnas/4XWF

>  <Rbt.Executable>
rbdock ($Id: //depot/dev/client3/rdock/2013.1/src/exe/rbdock.cxx#4 $)

>  <Rbt.Library>
libRbt.so (2013.1, Build901 2013/11/27)

>  <Rbt.Parameter_File>
/export/apps/rDock/src/rDock_2013.1_src/data/scripts/dock_solv.prm

>  <Rbt.Receptor>
prm/blind_docking_60.prm

>  <SCORE>
-10.2944

>  <SCORE.INTER>
-10.2479

>  <SCORE.INTER.CONST>
1

>  <SCORE.INTER.POLAR>
0

>  <SCORE.INTER.ROT>
5

>  <SCORE.INTER.SOLV>
12.9415

>  <SCORE.INTER.VDW>
-18.0791

>  <SCORE.INTER.norm>
-0.465813

>  <SCORE.INTRA>
-0.046552

>  <SCORE.INTRA.DIHEDRAL>
-1.79115

>  <SCORE.INTRA.DIHEDRAL.0>
3.49807

>  <SCORE.INTRA.POLAR>
0

>  <SCORE.INTRA.POLAR.0>
0

>  <SCORE.INTRA.REPUL>
0

>  <SCORE.INTRA.REPUL.0>
0

>  <SCORE.INTRA.SOLV>
1.58067

>  <SCORE.INTRA.SOLV.lig_0>
-73.062

>  <SCORE.INTRA.VDW>
0.0586878

>  <SCORE.INTRA.VDW.0>
-1.83782

>  <SCORE.INTRA.norm>
-0.002116

>  <SCORE.RESTR>
0

>  <SCORE.RESTR.CAVITY>
0

>  <SCORE.RESTR.norm>
0

>  <SCORE.SYSTEM>
0

>  <SCORE.SYSTEM.CONST>
0

>  <SCORE.SYSTEM.DIHEDRAL>
0

>  <SCORE.SYSTEM.SOLV>
0

>  <SCORE.SYSTEM.norm>
0

>  <SCORE.heavy>
22

>  <SCORE.norm>
-0.467929

>  <RMSD>
11.393

$$$$
ligand
 OpenBabel11021811513D
libRbt.so/2013.1/901 2013/11/27
 22 23  0  0  0  0  0  0  0  0999 V2000
  -35.4207    2.6396  -21.1443 N   0  0  0  0  0  0  0  0  0  0  0  0
  -32.6614    4.5267  -20.6173 C   0  0  1  0  0  0  0  0  0  0  0  0
  -33.2366    3.3674  -21.2844 O   0  0  0  0  0  0  0  0  0  0  0  0
  -31.6051    6.4241  -18.4065 P   0  0  1  0  0  0  0  0  0  0  0  0
  -34.6095    3.6639  -21.5870 C   0  0  2  0  0  0  0  0  0  0  0  0
  -37.1041    1.2795  -20.9793 N   0  0  0  0  0  0  0  0  0  0  0  0
  -36.0237    5.5691  -21.3299 O   0  0  0  0  0  0  0  0  0  0  0  0
  -34.9320    4.8433  -20.7528 C   0  0  2  0  0  0  0  0  0  0  0  0
  -37.5392   -0.7990  -18.9088 N   0  0  0  0  0  0  0  0  0  0  0  0
  -33.4665    6.2606  -21.9736 O   0  0  0  0  0  0  0  0  0  0  0  0
  -33.6820    5.5926  -20.7192 C   0  0  2  0  0  0  0  0  0  0  0  0
  -36.1757    0.9075  -20.0848 C   0  0  0  0  0  0  0  0  0  0  0  0
  -33.9139    1.6987  -19.4355 N   0  0  0  0  0  0  0  0  0  0  0  0
  -31.3461    4.9247  -18.7849 O   0  0  0  0  0  0  0  0  0  0  0  0
  -32.4159    4.1391  -19.1997 C   0  0  0  0  0  0  0  0  0  0  0  0
  -32.9236    6.3564  -17.5535 O   0  0  0  0  0  0  0  0  0  0  0  0
  -36.6349    2.3599  -21.6322 C   0  0  0  0  0  0  0  0  0  0  0  0
  -35.2914   -0.6619  -18.5707 O   0  0  0  0  0  0  0  0  0  0  0  0
  -36.2870   -0.2271  -19.1494 C   0  0  0  0  0  0  0  0  0  0  0  0
  -35.1113    1.7574  -20.1848 C   0  0  0  0  0  0  0  0  0  0  0  0
  -30.4225    6.9698  -17.6775 O   0  5  0  0  0  0  0  0  0  0  0  0
  -31.6249    7.2713  -19.6125 O   0  0  0  0  0  0  0  0  0  0  0  0
  1 17  1  0  0  0  0
  1 20  1  0  0  0  0
  2 15  1  1  0  0  0
  2  3  1  0  0  0  0
  2 11  1  0  0  0  0
  3  5  1  0  0  0  0
  4 16  1  1  0  0  0
  4 21  1  0  0  0  0
  4 22  2  0  0  0  0
  4 14  1  0  0  0  0
  5  1  1  1  0  0  0
  5  8  1  0  0  0  0
  6 17  2  0  0  0  0
  6 12  1  0  0  0  0
  8  7  1  6  0  0  0
  8 11  1  0  0  0  0
  9 19  1  0  0  0  0
 11 10  1  6  0  0  0
 12 20  2  0  0  0  0
 12 19  1  0  0  0  0
 13 20  1  0  0  0  0
 14 15  1  0  0  0  0
 18 19  2  0  0  0  0
M  CHG  1  21  -1
M  END
>  <CHROM.1>
-156.20440476,151.84444460,43.39758194,78.08276573,-16.19180675,-33.96904686
3.84500777,-19.86345244,2.56722049,0.75919364,2.49768737

>  <Name>
ligand

>  <RI>
0

>  <Rbt.Current_Directory>
/home/itssahil/PROJECTS/Mol_Feturizer/New_Systems/rnas/4XWF

>  <Rbt.Executable>
rbdock ($Id: //depot/dev/client3/rdock/2013.1/src/exe/rbdock.cxx#4 $)

>  <Rbt.Library>
libRbt.so (2013.1, Build901 2013/11/27)

>  <Rbt.Parameter_File>
/export/apps/rDock/src/rDock_2013.1_src/data/scripts/dock_solv.prm

>  <Rbt.Receptor>
prm/blind_docking_100.prm

>  <SCORE>
-4.77399

>  <SCORE.INTER>
-9.92466

>  <SCORE.INTER.CONST>
1

>  <SCORE.INTER.POLAR>
0

>  <SCORE.INTER.ROT>
5

>  <SCORE.INTER.SOLV>
13.8003

>  <SCORE.INTER.VDW>
-18.1499

>  <SCORE.INTER.norm>
-0.451121

>  <SCORE.INTRA>
5.15068

>  <SCORE.INTRA.DIHEDRAL>
2.60406

>  <SCORE.INTRA.DIHEDRAL.0>
3.49807

>  <SCORE.INTRA.POLAR>
0

>  <SCORE.INTRA.POLAR.0>
0

>  <SCORE.INTRA.REPUL>
0

>  <SCORE.INTRA.REPUL.0>
0

>  <SCORE.INTRA.SOLV>
6.95254

>  <SCORE.INTRA.SOLV.lig_0>
-73.062

>  <SCORE.INTRA.VDW>
0.372381

>  <SCORE.INTRA.VDW.0>
-1.83782

>  <SCORE.INTRA.norm>
0.234122

>  <SCORE.RESTR>
0

>  <SCORE.RESTR.CAVITY>
0

>  <SCORE.RESTR.norm>
0

>  <SCORE.SYSTEM>
0

>  <SCORE.SYSTEM.CONST>
0

>  <SCORE.SYSTEM.DIHEDRAL>
0

>  <SCORE.SYSTEM.SOLV>
0

>  <SCORE.SYSTEM.norm>
0

>  <SCORE.heavy>
22

>  <SCORE.norm>
-0.216999

>  <RMSD>
11.457

$$$$
ligand
 OpenBabel11021811513D
libRbt.so/2013.1/901 2013/11/27
 22 23  0  0  0  0  0  0  0  0999 V2000
  -35.3157    1.2489  -19.7890 N   0  0  0  0  0  0  0  0  0  0  0  0
  -33.1253    3.6140  -20.8188 C   0  0  1  0  0  0  0  0  0  0  0  0
  -33.3152    2.2463  -20.3570 O   0  0  0  0  0  0  0  0  0  0  0  0
  -32.9615    6.9780  -19.0829 P   0  0  1  0  0  0  0  0  0  0  0  0
  -34.5921    1.7898  -20.8316 C   0  0  2  0  0  0  0  0  0  0  0  0
  -36.7512    1.0478  -18.1734 N   0  0  0  0  0  0  0  0  0  0  0  0
  -36.3105    2.7087  -22.2096 O   0  0  0  0  0  0  0  0  0  0  0  0
  -35.3039    3.0217  -21.2398 C   0  0  2  0  0  0  0  0  0  0  0  0
  -37.4037   -1.3514  -16.5866 N   0  0  0  0  0  0  0  0  0  0  0  0
  -33.8185    3.4264  -23.0501 O   0  0  0  0  0  0  0  0  0  0  0  0
  -34.2416    3.8782  -21.7527 C   0  0  2  0  0  0  0  0  0  0  0  0
  -36.1308   -0.1314  -18.3318 C   0  0  0  0  0  0  0  0  0  0  0  0
  -34.3848   -1.0327  -19.8492 N   0  0  0  0  0  0  0  0  0  0  0  0
  -32.9223    5.7753  -20.0881 O   0  0  0  0  0  0  0  0  0  0  0  0
  -33.1964    4.4951  -19.6193 C   0  0  0  0  0  0  0  0  0  0  0  0
  -31.7961    6.6470  -18.0815 O   0  0  0  0  0  0  0  0  0  0  0  0
  -36.2384    1.9055  -19.0762 C   0  0  0  0  0  0  0  0  0  0  0  0
  -35.6884   -2.3543  -17.6990 O   0  0  0  0  0  0  0  0  0  0  0  0
  -36.3809   -1.3494  -17.5389 C   0  0  0  0  0  0  0  0  0  0  0  0
  -35.2276   -0.0136  -19.3494 C   0  0  0  0  0  0  0  0  0  0  0  0
  -32.7936    8.2607  -19.8274 O   0  5  0  0  0  0  0  0  0  0  0  0
  -34.3122    7.1409  -18.5157 O   0  0  0  0  0  0  0  0  0  0  0  0
  1 17  1  0  0  0  0
  1 20  1  0  0  0  0
  2 15  1  1  0  0  0
  2  3  1  0  0  0  0
  2 11  1  0  0  0  0
  3  5  1  0  0  0  0
  4 16  1  1  0  0  0
  4 21  1  0  0  0  0
  4 22  2  0  0  0  0
  4 14  1  0  0  0  0
  5  1  1  1  0  0  0
  5  8  1  0  0  0  0
  6 17  2  0  0  0  0
  6 12  1  0  0  0  0
  8  7  1  6  0  0  0
  8 11  1  0  0  0  0
  9 19  1  0  0  0  0
 11 10  1  6  0  0  0
 12 20  2  0  0  0  0
 12 19  1  0  0  0  0
 13 20  1  0  0  0  0
 14 15  1  0  0  0  0
 18 19  2  0  0  0  0
M  CHG  1  21  -1
M  END
>  <CHROM.1>
96.39484311,176.13526620,63.99252524,177.96279512,4.52884755,-34.49266880
2.99165651,-19.62626228,-3.07171572,1.18257528,1.33882460

>  <Name>
ligand

>  <RI>
0

>  <Rbt.Current_Directory>
/home/itssahil/PROJECTS/Mol_Feturizer/New_Systems/rnas/4XWF

>  <Rbt.Executable>
rbdock ($Id: //depot/dev/client3/rdock/2013.1/src/exe/rbdock.cxx#4 $)

>  <Rbt.Library>
libRbt.so (2013.1, Build901 2013/11/27)

>  <Rbt.Parameter_File>
/export/apps/rDock/src/rDock_2013.1_src/data/scripts/dock_solv.prm

>  <Rbt.Receptor>
prm/blind_docking_60.prm

>  <SCORE>
-9.71064

>  <SCORE.INTER>
-10.3589

>  <SCORE.INTER.CONST>
1

>  <SCORE.INTER.POLAR>
0

>  <SCORE.INTER.ROT>
5

>  <SCORE.INTER.SOLV>
16.3502

>  <SCORE.INTER.VDW>
-19.2894

>  <SCORE.INTER.norm>
-0.470861

>  <SCORE.INTRA>
0.648288

>  <SCORE.INTRA.DIHEDRAL>
-1.82939

>  <SCORE.INTRA.DIHEDRAL.0>
3.49807

>  <SCORE.INTRA.POLAR>
0

>  <SCORE.INTRA.POLAR.0>
0

>  <SCORE.INTRA.REPUL>
0

>  <SCORE.INTRA.REPUL.0>
0

>  <SCORE.INTRA.SOLV>
-0.799998

>  <SCORE.INTRA.SOLV.lig_0>
-73.062

>  <SCORE.INTRA.VDW>
1.96298

>  <SCORE.INTRA.VDW.0>
-1.83782

>  <SCORE.INTRA.norm>
0.0294676

>  <SCORE.RESTR>
0

>  <SCORE.RESTR.CAVITY>
0

>  <SCORE.RESTR.norm>
0

>  <SCORE.SYSTEM>
0

>  <SCORE.SYSTEM.CONST>
0

>  <SCORE.SYSTEM.DIHEDRAL>
0

>  <SCORE.SYSTEM.SOLV>
0

>  <SCORE.SYSTEM.norm>
0

>  <SCORE.heavy>
22

>  <SCORE.norm>
-0.441393

>  <RMSD>
11.474

$$$$
ligand
 OpenBabel11021811513D
libRbt.so/2013.1/901 2013/11/27
 22 23  0  0  0  0  0  0  0  0999 V2000
  -32.7304    5.0269  -19.2629 N   0  0  0  0  0  0  0  0  0  0  0  0
  -31.7689    8.2465  -18.8601 C   0  0  1  0  0  0  0  0  0  0  0  0
  -32.8782    7.3120  -18.9868 O   0  0  0  0  0  0  0  0  0  0  0  0
  -32.0272    9.4831  -22.4307 P   0  0  1  0  0  0  0  0  0  0  0  0
  -32.4808    6.0665  -18.3910 C   0  0  2  0  0  0  0  0  0  0  0  0
  -32.6734    3.0632  -20.1858 N   0  0  0  0  0  0  0  0  0  0  0  0
  -30.5473    5.2901  -17.2271 O   0  0  0  0  0  0  0  0  0  0  0  0
  -31.0092    6.1625  -18.2650 C   0  0  2  0  0  0  0  0  0  0  0  0
  -35.6946    3.1195  -21.8943 N   0  0  0  0  0  0  0  0  0  0  0  0
  -31.1388    7.8838  -16.6317 O   0  0  0  0  0  0  0  0  0  0  0  0
  -30.7795    7.5754  -17.9889 C   0  0  2  0  0  0  0  0  0  0  0  0
  -33.5490    3.8201  -20.8649 C   0  0  0  0  0  0  0  0  0  0  0  0
  -34.4054    6.1435  -20.6854 N   0  0  0  0  0  0  0  0  0  0  0  0
  -32.2187    9.1743  -20.9054 O   0  0  0  0  0  0  0  0  0  0  0  0
  -31.2271    8.4713  -20.2298 C   0  0  0  0  0  0  0  0  0  0  0  0
  -32.5627    8.1816  -23.1305 O   0  0  0  0  0  0  0  0  0  0  0  0
  -32.1617    3.8176  -19.1945 C   0  0  0  0  0  0  0  0  0  0  0  0
  -33.7901    3.2517  -23.1356 O   0  0  0  0  0  0  0  0  0  0  0  0
  -34.3310    3.3892  -22.0386 C   0  0  0  0  0  0  0  0  0  0  0  0
  -33.5926    5.0572  -20.2878 C   0  0  0  0  0  0  0  0  0  0  0  0
  -32.7680   10.7287  -22.7879 O   0  5  0  0  0  0  0  0  0  0  0  0
  -30.6351    9.8766  -22.7132 O   0  0  0  0  0  0  0  0  0  0  0  0
  1 17  1  0  0  0  0
  1 20  1  0  0  0  0
  2 15  1  6  0  0  0
  2  3  1  0  0  0  0
  2 11  1  0  0  0  0
  3  5  1  0  0  0  0
  4 16  1  6  0  0  0
  4 21  1  0  0  0  0
  4 22  2  0  0  0  0
  4 14  1  0  0  0  0
  5  1  1  6  0  0  0
  5  8  1  0  0  0  0
  6 17  2  0  0  0  0
  6 12  1  0  0  0  0
  8  7  1  1  0  0  0
  8 11  1  0  0  0  0
  9 19  1  0  0  0  0
 11 10  1  1  0  0  0
 12 20  2  0  0  0  0
 12 19  1  0  0  0  0
 13 20  1  0  0  0  0
 14 15  1  0  0  0  0
 18 19  2  0  0  0  0
M  CHG  1  21  -1
M  END
>  <CHROM.1>
160.54914187,68.45859136,85.27531216,-175.11916104,105.46055126,-32.44316147
6.68749991,-20.42324727,-2.18694676,-1.05521911,-0.72731068

>  <Name>
ligand

>  <RI>
0

>  <Rbt.Current_Directory>
/home/itssahil/PROJECTS/Mol_Feturizer/New_Systems/rnas/4XWF

>  <Rbt.Executable>
rbdock ($Id: //depot/dev/client3/rdock/2013.1/src/exe/rbdock.cxx#4 $)

>  <Rbt.Library>
libRbt.so (2013.1, Build901 2013/11/27)

>  <Rbt.Parameter_File>
/export/apps/rDock/src/rDock_2013.1_src/data/scripts/dock_solv.prm

>  <Rbt.Receptor>
prm/blind_docking_100.prm

>  <SCORE>
-7.88838

>  <SCORE.INTER>
-9.46044

>  <SCORE.INTER.CONST>
1

>  <SCORE.INTER.POLAR>
0

>  <SCORE.INTER.ROT>
5

>  <SCORE.INTER.SOLV>
13.7874

>  <SCORE.INTER.VDW>
-17.8361

>  <SCORE.INTER.norm>
-0.43002

>  <SCORE.INTRA>
1.56135

>  <SCORE.INTRA.DIHEDRAL>
-0.60555

>  <SCORE.INTRA.DIHEDRAL.0>
3.49807

>  <SCORE.INTRA.POLAR>
0

>  <SCORE.INTRA.POLAR.0>
0

>  <SCORE.INTRA.REPUL>
0

>  <SCORE.INTRA.REPUL.0>
0

>  <SCORE.INTRA.SOLV>
2.51376

>  <SCORE.INTRA.SOLV.lig_0>
-73.062

>  <SCORE.INTRA.VDW>
0.607244

>  <SCORE.INTRA.VDW.0>
-1.83782

>  <SCORE.INTRA.norm>
0.0709703

>  <SCORE.RESTR>
0.010712

>  <SCORE.RESTR.CAVITY>
0.010712

>  <SCORE.RESTR.norm>
0.000486911

>  <SCORE.SYSTEM>
0

>  <SCORE.SYSTEM.CONST>
0

>  <SCORE.SYSTEM.DIHEDRAL>
0

>  <SCORE.SYSTEM.SOLV>
0

>  <SCORE.SYSTEM.norm>
0

>  <SCORE.heavy>
22

>  <SCORE.norm>
-0.358563

>  <RMSD>
11.519

$$$$
ligand
 OpenBabel11021811513D
libRbt.so/2013.1/901 2013/11/27
 22 23  0  0  0  0  0  0  0  0999 V2000
  -36.1441    1.1833  -20.4950 N   0  0  0  0  0  0  0  0  0  0  0  0
  -33.2259    2.8955  -20.4230 C   0  0  1  0  0  0  0  0  0  0  0  0
  -33.8759    1.5987  -20.5479 O   0  0  0  0  0  0  0  0  0  0  0  0
  -32.3081    5.1119  -17.4961 P   0  0  1  0  0  0  0  0  0  0  0  0
  -35.1355    1.7945  -21.2109 C   0  0  2  0  0  0  0  0  0  0  0  0
  -38.1204    0.6865  -19.7478 N   0  0  0  0  0  0  0  0  0  0  0  0
  -36.2665    3.6624  -22.1740 O   0  0  0  0  0  0  0  0  0  0  0  0
  -35.3840    3.2510  -21.1234 C   0  0  2  0  0  0  0  0  0  0  0  0
  -37.3401   -1.0209  -16.8673 N   0  0  0  0  0  0  0  0  0  0  0  0
  -33.5715    3.7709  -22.5698 O   0  0  0  0  0  0  0  0  0  0  0  0
  -34.0507    3.8331  -21.2160 C   0  0  2  0  0  0  0  0  0  0  0  0
  -37.2376   -0.1564  -19.1902 C   0  0  0  0  0  0  0  0  0  0  0  0
  -34.7854   -0.5155  -19.3358 N   0  0  0  0  0  0  0  0  0  0  0  0
  -32.3906    4.3522  -18.8653 O   0  0  0  0  0  0  0  0  0  0  0  0
  -33.2328    3.2512  -18.9761 C   0  0  0  0  0  0  0  0  0  0  0  0
  -32.2105    3.9476  -16.4448 O   0  0  0  0  0  0  0  0  0  0  0  0
  -37.4373    1.5218  -20.5535 C   0  0  0  0  0  0  0  0  0  0  0  0
  -38.0025   -2.3086  -18.6247 O   0  0  0  0  0  0  0  0  0  0  0  0
  -37.5590   -1.2298  -18.2316 C   0  0  0  0  0  0  0  0  0  0  0  0
  -35.9912    0.1483  -19.6583 C   0  0  0  0  0  0  0  0  0  0  0  0
  -31.1379    6.0384  -17.5054 O   0  5  0  0  0  0  0  0  0  0  0  0
  -33.4308    6.0564  -17.3542 O   0  0  0  0  0  0  0  0  0  0  0  0
  1 17  1  0  0  0  0
  1 20  1  0  0  0  0
  2 15  1  1  0  0  0
  2  3  1  0  0  0  0
  2 11  1  0  0  0  0
  3  5  1  0  0  0  0
  4 16  1  1  0  0  0
  4 21  1  0  0  0  0
  4 22  2  0  0  0  0
  4 14  1  0  0  0  0
  5  1  1  1  0  0  0
  5  8  1  0  0  0  0
  6 17  2  0  0  0  0
  6 12  1  0  0  0  0
  8  7  1  6  0  0  0
  8 11  1  0  0  0  0
  9 19  1  0  0  0  0
 11 10  1  6  0  0  0
 12 20  2  0  0  0  0
 12 19  1  0  0  0  0
 13 20  1  0  0  0  0
 14 15  1  0  0  0  0
 18 19  2  0  0  0  0
M  CHG  1  21  -1
M  END
>  <CHROM.1>
156.43770776,168.95455902,44.57915123,172.08457716,-100.40724129,-34.71325490
2.42807379,-19.35282412,3.03072029,0.85201263,1.91083024

>  <Name>
ligand

>  <RI>
0

>  <Rbt.Current_Directory>
/home/itssahil/PROJECTS/Mol_Feturizer/New_Systems/rnas/4XWF

>  <Rbt.Executable>
rbdock ($Id: //depot/dev/client3/rdock/2013.1/src/exe/rbdock.cxx#4 $)

>  <Rbt.Library>
libRbt.so (2013.1, Build901 2013/11/27)

>  <Rbt.Parameter_File>
/export/apps/rDock/src/rDock_2013.1_src/data/scripts/dock_solv.prm

>  <Rbt.Receptor>
prm/blind_docking_80.prm

>  <SCORE>
-10.8278

>  <SCORE.INTER>
-12.4382

>  <SCORE.INTER.CONST>
1

>  <SCORE.INTER.POLAR>
0

>  <SCORE.INTER.ROT>
5

>  <SCORE.INTER.SOLV>
19.0079

>  <SCORE.INTER.VDW>
-21.5614

>  <SCORE.INTER.norm>
-0.565371

>  <SCORE.INTRA>
1.61037

>  <SCORE.INTRA.DIHEDRAL>
-0.473355

>  <SCORE.INTRA.DIHEDRAL.0>
3.49807

>  <SCORE.INTRA.POLAR>
0

>  <SCORE.INTRA.POLAR.0>
0

>  <SCORE.INTRA.REPUL>
0

>  <SCORE.INTRA.REPUL.0>
0

>  <SCORE.INTRA.SOLV>
1.18852

>  <SCORE.INTRA.SOLV.lig_0>
-73.062

>  <SCORE.INTRA.VDW>
1.25279

>  <SCORE.INTRA.VDW.0>
-1.83782

>  <SCORE.INTRA.norm>
0.0731987

>  <SCORE.RESTR>
0

>  <SCORE.RESTR.CAVITY>
0

>  <SCORE.RESTR.norm>
0

>  <SCORE.SYSTEM>
0

>  <SCORE.SYSTEM.CONST>
0

>  <SCORE.SYSTEM.DIHEDRAL>
0

>  <SCORE.SYSTEM.SOLV>
0

>  <SCORE.SYSTEM.norm>
0

>  <SCORE.heavy>
22

>  <SCORE.norm>
-0.492172

>  <RMSD>
11.561

$$$$
ligand
 OpenBabel11021811513D
libRbt.so/2013.1/901 2013/11/27
 22 23  0  0  0  0  0  0  0  0999 V2000
  -35.4444    2.9393  -21.5300 N   0  0  0  0  0  0  0  0  0  0  0  0
  -33.0951    5.2605  -20.7913 C   0  0  1  0  0  0  0  0  0  0  0  0
  -33.4664    4.1223  -21.6198 O   0  0  0  0  0  0  0  0  0  0  0  0
  -31.6980    5.6231  -17.2918 P   0  0  1  0  0  0  0  0  0  0  0  0
  -34.8877    4.1665  -21.8254 C   0  0  2  0  0  0  0  0  0  0  0  0
  -36.8155    1.2568  -21.5173 N   0  0  0  0  0  0  0  0  0  0  0  0
  -36.6381    5.6699  -21.2153 O   0  0  0  0  0  0  0  0  0  0  0  0
  -35.3868    5.1099  -20.7999 C   0  0  2  0  0  0  0  0  0  0  0  0
  -36.6738   -1.0938  -19.6747 N   0  0  0  0  0  0  0  0  0  0  0  0
  -34.3213    6.9733  -21.8196 O   0  0  0  0  0  0  0  0  0  0  0  0
  -34.3147    6.0910  -20.6848 C   0  0  2  0  0  0  0  0  0  0  0  0
  -35.7537    0.9377  -20.7613 C   0  0  0  0  0  0  0  0  0  0  0  0
  -33.6330    2.0534  -20.1123 N   0  0  0  0  0  0  0  0  0  0  0  0
  -32.3407    5.8348  -18.7063 O   0  0  0  0  0  0  0  0  0  0  0  0
  -32.6841    4.7209  -19.4646 C   0  0  0  0  0  0  0  0  0  0  0  0
  -32.8718    4.9982  -16.4539 O   0  0  0  0  0  0  0  0  0  0  0  0
  -36.6234    2.5035  -21.9887 C   0  0  0  0  0  0  0  0  0  0  0  0
  -34.4280   -0.7257  -19.7550 O   0  0  0  0  0  0  0  0  0  0  0  0
  -35.5592   -0.3356  -20.0434 C   0  0  0  0  0  0  0  0  0  0  0  0
  -34.8845    1.9911  -20.7669 C   0  0  0  0  0  0  0  0  0  0  0  0
  -30.4914    4.7529  -17.4134 O   0  5  0  0  0  0  0  0  0  0  0  0
  -31.1073    6.8782  -16.7933 O   0  0  0  0  0  0  0  0  0  0  0  0
  1 17  1  0  0  0  0
  1 20  1  0  0  0  0
  2 15  1  1  0  0  0
  2  3  1  0  0  0  0
  2 11  1  0  0  0  0
  3  5  1  0  0  0  0
  4 16  1  1  0  0  0
  4 21  1  0  0  0  0
  4 22  2  0  0  0  0
  4 14  1  0  0  0  0
  5  1  1  1  0  0  0
  5  8  1  0  0  0  0
  6 17  2  0  0  0  0
  6 12  1  0  0  0  0
  8  7  1  6  0  0  0
  8 11  1  0  0  0  0
  9 19  1  0  0  0  0
 11 10  1  6  0  0  0
 12 20  2  0  0  0  0
 12 19  1  0  0  0  0
 13 20  1  0  0  0  0
 14 15  1  0  0  0  0
 18 19  2  0  0  0  0
M  CHG  1  21  -1
M  END
>  <CHROM.1>
-158.11897529,-179.91972069,-67.70510667,-173.00719438,-25.01820939,-34.01430632
3.82331525,-19.83256237,2.59108688,0.83469627,2.80866439

>  <Name>
ligand

>  <RI>
0

>  <Rbt.Current_Directory>
/home/itssahil/PROJECTS/Mol_Feturizer/New_Systems/rnas/4XWF

>  <Rbt.Executable>
rbdock ($Id: //depot/dev/client3/rdock/2013.1/src/exe/rbdock.cxx#4 $)

>  <Rbt.Library>
libRbt.so (2013.1, Build901 2013/11/27)

>  <Rbt.Parameter_File>
/export/apps/rDock/src/rDock_2013.1_src/data/scripts/dock_solv.prm

>  <Rbt.Receptor>
prm/blind_docking_100.prm

>  <SCORE>
-9.78376

>  <SCORE.INTER>
-11.5294

>  <SCORE.INTER.CONST>
1

>  <SCORE.INTER.POLAR>
0

>  <SCORE.INTER.ROT>
5

>  <SCORE.INTER.SOLV>
13.8157

>  <SCORE.INTER.VDW>
-19.2248

>  <SCORE.INTER.norm>
-0.524064

>  <SCORE.INTRA>
1.74566

>  <SCORE.INTRA.DIHEDRAL>
-0.979792

>  <SCORE.INTRA.DIHEDRAL.0>
3.49807

>  <SCORE.INTRA.POLAR>
0

>  <SCORE.INTRA.POLAR.0>
0

>  <SCORE.INTRA.REPUL>
0

>  <SCORE.INTRA.REPUL.0>
0

>  <SCORE.INTRA.SOLV>
3.62488

>  <SCORE.INTRA.SOLV.lig_0>
-73.062

>  <SCORE.INTRA.VDW>
0.423113

>  <SCORE.INTRA.VDW.0>
-1.83782

>  <SCORE.INTRA.norm>
0.079348

>  <SCORE.RESTR>
0

>  <SCORE.RESTR.CAVITY>
0

>  <SCORE.RESTR.norm>
0

>  <SCORE.SYSTEM>
0

>  <SCORE.SYSTEM.CONST>
0

>  <SCORE.SYSTEM.DIHEDRAL>
0

>  <SCORE.SYSTEM.SOLV>
0

>  <SCORE.SYSTEM.norm>
0

>  <SCORE.heavy>
22

>  <SCORE.norm>
-0.444716

>  <RMSD>
11.671

$$$$
ligand
 OpenBabel11021811513D
libRbt.so/2013.1/901 2013/11/27
 22 23  0  0  0  0  0  0  0  0999 V2000
  -37.2727    0.4359  -18.3773 N   0  0  0  0  0  0  0  0  0  0  0  0
  -34.9444    1.3957  -20.6379 C   0  0  1  0  0  0  0  0  0  0  0  0
  -35.6357    0.2871  -19.9953 O   0  0  0  0  0  0  0  0  0  0  0  0
  -32.2026    3.7715  -19.5442 P   0  0  1  0  0  0  0  0  0  0  0  0
  -36.9752    0.7117  -19.6959 C   0  0  2  0  0  0  0  0  0  0  0  0
  -38.1141    0.6063  -16.3838 N   0  0  0  0  0  0  0  0  0  0  0  0
  -38.2503    2.6896  -20.0933 O   0  0  0  0  0  0  0  0  0  0  0  0
  -36.9381    2.1864  -19.8166 C   0  0  2  0  0  0  0  0  0  0  0  0
  -37.5169   -2.8648  -15.5869 N   0  0  0  0  0  0  0  0  0  0  0  0
  -36.5753    2.1075  -22.1638 O   0  0  0  0  0  0  0  0  0  0  0  0
  -35.9819    2.4191  -20.8921 C   0  0  2  0  0  0  0  0  0  0  0  0
  -37.4208   -0.5407  -16.4493 C   0  0  0  0  0  0  0  0  0  0  0  0
  -36.1113   -1.7303  -18.1910 N   0  0  0  0  0  0  0  0  0  0  0  0
  -33.3240    2.9791  -20.3014 O   0  0  0  0  0  0  0  0  0  0  0  0
  -33.9166    1.8867  -19.6775 C   0  0  0  0  0  0  0  0  0  0  0  0
  -30.9391    2.8511  -19.7088 O   0  0  0  0  0  0  0  0  0  0  0  0
  -38.0153    1.2141  -17.5814 C   0  0  0  0  0  0  0  0  0  0  0  0
  -36.9099   -1.1386  -14.2315 O   0  0  0  0  0  0  0  0  0  0  0  0
  -37.2573   -1.5119  -15.3517 C   0  0  0  0  0  0  0  0  0  0  0  0
  -36.8905   -0.6566  -17.7025 C   0  0  0  0  0  0  0  0  0  0  0  0
  -32.0599    5.1326  -20.1398 O   0  5  0  0  0  0  0  0  0  0  0  0
  -32.6278    4.0939  -18.1702 O   0  0  0  0  0  0  0  0  0  0  0  0
  1 17  1  0  0  0  0
  1 20  1  0  0  0  0
  2 15  1  1  0  0  0
  2  3  1  0  0  0  0
  2 11  1  0  0  0  0
  3  5  1  0  0  0  0
  4 16  1  6  0  0  0
  4 21  1  0  0  0  0
  4 22  2  0  0  0  0
  4 14  1  0  0  0  0
  5  1  1  1  0  0  0
  5  8  1  0  0  0  0
  6 17  2  0  0  0  0
  6 12  1  0  0  0  0
  8  7  1  6  0  0  0
  8 11  1  0  0  0  0
  9 19  1  0  0  0  0
 11 10  1  6  0  0  0
 12 20  2  0  0  0  0
 12 19  1  0  0  0  0
 13 20  1  0  0  0  0
 14 15  1  0  0  0  0
 18 19  2  0  0  0  0
M  CHG  1  21  -1
M  END
>  <CHROM.1>
143.28481321,-177.33191181,77.71245341,178.55765014,129.81634288,-35.43657994
1.41878806,-18.77302526,2.33159551,0.40860582,2.11694680

>  <Name>
ligand

>  <RI>
0

>  <Rbt.Current_Directory>
/home/itssahil/PROJECTS/Mol_Feturizer/New_Systems/rnas/4XWF

>  <Rbt.Executable>
rbdock ($Id: //depot/dev/client3/rdock/2013.1/src/exe/rbdock.cxx#4 $)

>  <Rbt.Library>
libRbt.so (2013.1, Build901 2013/11/27)

>  <Rbt.Parameter_File>
/export/apps/rDock/src/rDock_2013.1_src/data/scripts/dock_solv.prm

>  <Rbt.Receptor>
prm/blind_docking_60.prm

>  <SCORE>
-14.0106

>  <SCORE.INTER>
-15.2263

>  <SCORE.INTER.CONST>
1

>  <SCORE.INTER.POLAR>
0

>  <SCORE.INTER.ROT>
5

>  <SCORE.INTER.SOLV>
19.0681

>  <SCORE.INTER.VDW>
-23.4402

>  <SCORE.INTER.norm>
-0.692106

>  <SCORE.INTRA>
1.21574

>  <SCORE.INTRA.DIHEDRAL>
-1.4488

>  <SCORE.INTRA.DIHEDRAL.0>
3.49807

>  <SCORE.INTRA.POLAR>
0

>  <SCORE.INTRA.POLAR.0>
0

>  <SCORE.INTRA.REPUL>
0

>  <SCORE.INTRA.REPUL.0>
0

>  <SCORE.INTRA.SOLV>
0.78077

>  <SCORE.INTRA.SOLV.lig_0>
-73.062

>  <SCORE.INTRA.VDW>
1.54975

>  <SCORE.INTRA.VDW.0>
-1.83782

>  <SCORE.INTRA.norm>
0.0552607

>  <SCORE.RESTR>
0

>  <SCORE.RESTR.CAVITY>
0

>  <SCORE.RESTR.norm>
0

>  <SCORE.SYSTEM>
0

>  <SCORE.SYSTEM.CONST>
0

>  <SCORE.SYSTEM.DIHEDRAL>
0

>  <SCORE.SYSTEM.SOLV>
0

>  <SCORE.SYSTEM.norm>
0

>  <SCORE.heavy>
22

>  <SCORE.norm>
-0.636845

>  <RMSD>
11.808

$$$$
ligand
 OpenBabel11021811513D
libRbt.so/2013.1/901 2013/11/27
 22 23  0  0  0  0  0  0  0  0999 V2000
  -37.2702    0.3949  -18.3392 N   0  0  0  0  0  0  0  0  0  0  0  0
  -34.9777    1.3146  -20.6525 C   0  0  1  0  0  0  0  0  0  0  0  0
  -35.6591    0.2175  -19.9801 O   0  0  0  0  0  0  0  0  0  0  0  0
  -32.2597    3.7428  -19.6156 P   0  0  1  0  0  0  0  0  0  0  0  0
  -36.9936    0.6480  -19.6668 C   0  0  2  0  0  0  0  0  0  0  0  0
  -38.0876    0.5947  -16.3384 N   0  0  0  0  0  0  0  0  0  0  0  0
  -38.2742    2.6195  -20.0778 O   0  0  0  0  0  0  0  0  0  0  0  0
  -36.9579    2.1204  -19.8133 C   0  0  2  0  0  0  0  0  0  0  0  0
  -37.3763   -2.8589  -15.4968 N   0  0  0  0  0  0  0  0  0  0  0  0
  -36.6323    2.0011  -22.1643 O   0  0  0  0  0  0  0  0  0  0  0  0
  -36.0188    2.3341  -20.9077 C   0  0  2  0  0  0  0  0  0  0  0  0
  -37.3806   -0.5447  -16.3903 C   0  0  0  0  0  0  0  0  0  0  0  0
  -36.0789   -1.7524  -18.1254 N   0  0  0  0  0  0  0  0  0  0  0  0
  -33.3942    2.9400  -20.3417 O   0  0  0  0  0  0  0  0  0  0  0  0
  -33.9347    1.8214  -19.7169 C   0  0  0  0  0  0  0  0  0  0  0  0
  -31.0063    2.8059  -19.7629 O   0  0  0  0  0  0  0  0  0  0  0  0
  -38.0122    1.1796  -17.5491 C   0  0  0  0  0  0  0  0  0  0  0  0
  -36.8850   -1.0861  -14.1546 O   0  0  0  0  0  0  0  0  0  0  0  0
  -37.1904   -1.4916  -15.2760 C   0  0  0  0  0  0  0  0  0  0  0  0
  -36.8653   -0.6789  -17.6480 C   0  0  0  0  0  0  0  0  0  0  0  0
  -32.1086    5.0849  -20.2510 O   0  5  0  0  0  0  0  0  0  0  0  0
  -32.6715    4.1085  -18.2484 O   0  0  0  0  0  0  0  0  0  0  0  0
  1 17  1  0  0  0  0
  1 20  1  0  0  0  0
  2 15  1  1  0  0  0
  2  3  1  0  0  0  0
  2 11  1  0  0  0  0
  3  5  1  0  0  0  0
  4 16  1  1  0  0  0
  4 21  1  0  0  0  0
  4 22  2  0  0  0  0
  4 14  1  0  0  0  0
  5  1  1  1  0  0  0
  5  8  1  0  0  0  0
  6 17  2  0  0  0  0
  6 12  1  0  0  0  0
  8  7  1  6  0  0  0
  8 11  1  0  0  0  0
  9 19  1  0  0  0  0
 11 10  1  6  0  0  0
 12 20  2  0  0  0  0
 12 19  1  0  0  0  0
 13 20  1  0  0  0  0
 14 15  1  0  0  0  0
 18 19  2  0  0  0  0
M  CHG  1  21  -1
M  END
>  <CHROM.1>
144.06781986,-174.64740333,73.74968864,179.35287079,132.73127418,-35.44851016
1.38208155,-18.77166258,2.31344963,0.41165684,2.10333791

>  <Name>
ligand

>  <RI>
0

>  <Rbt.Current_Directory>
/home/itssahil/PROJECTS/Mol_Feturizer/New_Systems/rnas/4XWF

>  <Rbt.Executable>
rbdock ($Id: //depot/dev/client3/rdock/2013.1/src/exe/rbdock.cxx#4 $)

>  <Rbt.Library>
libRbt.so (2013.1, Build901 2013/11/27)

>  <Rbt.Parameter_File>
/export/apps/rDock/src/rDock_2013.1_src/data/scripts/dock_solv.prm

>  <Rbt.Receptor>
prm/blind_docking_100.prm

>  <SCORE>
-14.0267

>  <SCORE.INTER>
-15.2655

>  <SCORE.INTER.CONST>
1

>  <SCORE.INTER.POLAR>
0

>  <SCORE.INTER.ROT>
5

>  <SCORE.INTER.SOLV>
19.0452

>  <SCORE.INTER.VDW>
-23.4587

>  <SCORE.INTER.norm>
-0.693886

>  <SCORE.INTRA>
1.23749

>  <SCORE.INTRA.DIHEDRAL>
-1.47298

>  <SCORE.INTRA.DIHEDRAL.0>
3.49807

>  <SCORE.INTRA.POLAR>
0

>  <SCORE.INTRA.POLAR.0>
0

>  <SCORE.INTRA.REPUL>
0

>  <SCORE.INTRA.REPUL.0>
0

>  <SCORE.INTRA.SOLV>
0.820347

>  <SCORE.INTRA.SOLV.lig_0>
-73.062

>  <SCORE.INTRA.VDW>
1.56381

>  <SCORE.INTRA.VDW.0>
-1.83782

>  <SCORE.INTRA.norm>
0.0562496

>  <SCORE.RESTR>
0.00132063

>  <SCORE.RESTR.CAVITY>
0.00132063

>  <SCORE.RESTR.norm>
6.00286e-05

>  <SCORE.SYSTEM>
0

>  <SCORE.SYSTEM.CONST>
0

>  <SCORE.SYSTEM.DIHEDRAL>
0

>  <SCORE.SYSTEM.SOLV>
0

>  <SCORE.SYSTEM.norm>
0

>  <SCORE.heavy>
22

>  <SCORE.norm>
-0.637577

>  <RMSD>
11.828

$$$$
ligand
 OpenBabel11021811513D
libRbt.so/2013.1/901 2013/11/27
 22 23  0  0  0  0  0  0  0  0999 V2000
  -37.1270    0.2225  -18.4030 N   0  0  0  0  0  0  0  0  0  0  0  0
  -34.9039    1.3980  -20.6675 C   0  0  1  0  0  0  0  0  0  0  0  0
  -35.5342    0.2289  -20.0711 O   0  0  0  0  0  0  0  0  0  0  0  0
  -32.2220    3.8136  -19.5150 P   0  0  1  0  0  0  0  0  0  0  0  0
  -36.8791    0.5837  -19.7112 C   0  0  2  0  0  0  0  0  0  0  0  0
  -37.8302    0.2970  -16.3509 N   0  0  0  0  0  0  0  0  0  0  0  0
  -38.2380    2.5299  -19.9590 O   0  0  0  0  0  0  0  0  0  0  0  0
  -36.9004    2.0632  -19.7478 C   0  0  2  0  0  0  0  0  0  0  0  0
  -37.9372   -3.1192  -15.6703 N   0  0  0  0  0  0  0  0  0  0  0  0
  -36.6044    2.1311  -22.1047 O   0  0  0  0  0  0  0  0  0  0  0  0
  -35.9857    2.3931  -20.8339 C   0  0  2  0  0  0  0  0  0  0  0  0
  -37.2639   -0.9020  -16.5564 C   0  0  0  0  0  0  0  0  0  0  0  0
  -36.1867   -2.0550  -18.4732 N   0  0  0  0  0  0  0  0  0  0  0  0
  -33.3219    3.0116  -20.2932 O   0  0  0  0  0  0  0  0  0  0  0  0
  -33.8670    1.8735  -19.7089 C   0  0  0  0  0  0  0  0  0  0  0  0
  -30.9375    2.9253  -19.6917 O   0  0  0  0  0  0  0  0  0  0  0  0
  -37.7382    0.9960  -17.4983 C   0  0  0  0  0  0  0  0  0  0  0  0
  -36.3499   -1.8716  -14.6169 O   0  0  0  0  0  0  0  0  0  0  0  0
  -37.1386   -1.9780  -15.5559 C   0  0  0  0  0  0  0  0  0  0  0  0
  -36.8214   -0.9577  -17.8474 C   0  0  0  0  0  0  0  0  0  0  0  0
  -32.1074    5.1893  -20.0827 O   0  5  0  0  0  0  0  0  0  0  0  0
  -32.6603    4.0988  -18.1369 O   0  0  0  0  0  0  0  0  0  0  0  0
  1 17  1  0  0  0  0
  1 20  1  0  0  0  0
  2 15  1  1  0  0  0
  2  3  1  0  0  0  0
  2 11  1  0  0  0  0
  3  5  1  0  0  0  0
  4 16  1  6  0  0  0
  4 21  1  0  0  0  0
  4 22  2  0  0  0  0
  4 14  1  0  0  0  0
  5  1  1  1  0  0  0
  5  8  1  0  0  0  0
  6 17  2  0  0  0  0
  6 12  1  0  0  0  0
  8  7  1  6  0  0  0
  8 11  1  0  0  0  0
  9 19  1  0  0  0  0
 11 10  1  6  0  0  0
 12 20  2  0  0  0  0
 12 19  1  0  0  0  0
 13 20  1  0  0  0  0
 14 15  1  0  0  0  0
 18 19  2  0  0  0  0
M  CHG  1  21  -1
M  END
>  <CHROM.1>
134.93214378,-178.08793908,76.01684360,177.57559353,107.61635350,-35.38204518
1.27839014,-18.80460591,2.30080774,0.43225199,2.19304204

>  <Name>
ligand

>  <RI>
0

>  <Rbt.Current_Directory>
/home/itssahil/PROJECTS/Mol_Feturizer/New_Systems/rnas/4XWF

>  <Rbt.Executable>
rbdock ($Id: //depot/dev/client3/rdock/2013.1/src/exe/rbdock.cxx#4 $)

>  <Rbt.Library>
libRbt.so (2013.1, Build901 2013/11/27)

>  <Rbt.Parameter_File>
/export/apps/rDock/src/rDock_2013.1_src/data/scripts/dock_solv.prm

>  <Rbt.Receptor>
prm/blind_docking_100.prm

>  <SCORE>
-13.9163

>  <SCORE.INTER>
-15.1135

>  <SCORE.INTER.CONST>
1

>  <SCORE.INTER.POLAR>
0

>  <SCORE.INTER.ROT>
5

>  <SCORE.INTER.SOLV>
18.6413

>  <SCORE.INTER.VDW>
-23.2228

>  <SCORE.INTER.norm>
-0.686977

>  <SCORE.INTRA>
1.19717

>  <SCORE.INTRA.DIHEDRAL>
-1.47053

>  <SCORE.INTRA.DIHEDRAL.0>
3.49807

>  <SCORE.INTRA.POLAR>
0

>  <SCORE.INTRA.POLAR.0>
0

>  <SCORE.INTRA.REPUL>
0

>  <SCORE.INTRA.REPUL.0>
0

>  <SCORE.INTRA.SOLV>
0.181198

>  <SCORE.INTRA.SOLV.lig_0>
-73.062

>  <SCORE.INTRA.VDW>
1.84184

>  <SCORE.INTRA.VDW.0>
-1.83782

>  <SCORE.INTRA.norm>
0.0544168

>  <SCORE.RESTR>
0

>  <SCORE.RESTR.CAVITY>
0

>  <SCORE.RESTR.norm>
0

>  <SCORE.SYSTEM>
0

>  <SCORE.SYSTEM.CONST>
0

>  <SCORE.SYSTEM.DIHEDRAL>
0

>  <SCORE.SYSTEM.SOLV>
0

>  <SCORE.SYSTEM.norm>
0

>  <SCORE.heavy>
22

>  <SCORE.norm>
-0.63256

>  <RMSD>
11.830

$$$$
ligand
 OpenBabel11021811513D
libRbt.so/2013.1/901 2013/11/27
 22 23  0  0  0  0  0  0  0  0999 V2000
  -37.1717    0.2880  -18.4577 N   0  0  0  0  0  0  0  0  0  0  0  0
  -34.9182    1.4657  -20.6909 C   0  0  1  0  0  0  0  0  0  0  0  0
  -35.5702    0.2970  -20.1175 O   0  0  0  0  0  0  0  0  0  0  0  0
  -32.1901    3.8066  -19.4927 P   0  0  1  0  0  0  0  0  0  0  0  0
  -36.9112    0.6671  -19.7583 C   0  0  2  0  0  0  0  0  0  0  0  0
  -37.9114    0.3259  -16.4175 N   0  0  0  0  0  0  0  0  0  0  0  0
  -38.2375    2.6389  -19.9799 O   0  0  0  0  0  0  0  0  0  0  0  0
  -36.9086    2.1472  -19.7699 C   0  0  2  0  0  0  0  0  0  0  0  0
  -36.0388   -1.9831  -14.8158 N   0  0  0  0  0  0  0  0  0  0  0  0
  -36.5992    2.2501  -22.1238 O   0  0  0  0  0  0  0  0  0  0  0  0
  -35.9831    2.4807  -20.8457 C   0  0  2  0  0  0  0  0  0  0  0  0
  -37.3103   -0.8561  -16.6233 C   0  0  0  0  0  0  0  0  0  0  0  0
  -36.1707   -1.9633  -18.5308 N   0  0  0  0  0  0  0  0  0  0  0  0
  -33.3186    3.0520  -20.2772 O   0  0  0  0  0  0  0  0  0  0  0  0
  -33.8790    1.9082  -19.7191 C   0  0  0  0  0  0  0  0  0  0  0  0
  -30.9374    2.8762  -19.6821 O   0  0  0  0  0  0  0  0  0  0  0  0
  -37.8184    1.0372  -17.5572 C   0  0  0  0  0  0  0  0  0  0  0  0
  -38.0414   -2.8039  -15.5238 O   0  0  0  0  0  0  0  0  0  0  0  0
  -37.1737   -1.9373  -15.6299 C   0  0  0  0  0  0  0  0  0  0  0  0
  -36.8446   -0.8886  -17.9068 C   0  0  0  0  0  0  0  0  0  0  0  0
  -32.0287    5.1837  -20.0453 O   0  5  0  0  0  0  0  0  0  0  0  0
  -32.6156    4.0915  -18.1105 O   0  0  0  0  0  0  0  0  0  0  0  0
  1 17  1  0  0  0  0
  1 20  1  0  0  0  0
  2 15  1  1  0  0  0
  2  3  1  0  0  0  0
  2 11  1  0  0  0  0
  3  5  1  0  0  0  0
  4 16  1  6  0  0  0
  4 21  1  0  0  0  0
  4 22  2  0  0  0  0
  4 14  1  0  0  0  0
  5  1  1  1  0  0  0
  5  8  1  0  0  0  0
  6 17  2  0  0  0  0
  6 12  1  0  0  0  0
  8  7  1  6  0  0  0
  8 11  1  0  0  0  0
  9 19  1  0  0  0  0
 11 10  1  6  0  0  0
 12 20  2  0  0  0  0
 12 19  1  0  0  0  0
 13 20  1  0  0  0  0
 14 15  1  0  0  0  0
 18 19  2  0  0  0  0
M  CHG  1  21  -1
M  END
>  <CHROM.1>
137.49596645,-177.71589418,74.45618788,178.88039791,-91.31028822,-35.38978632
1.32345475,-18.83173036,2.30765235,0.40111891,2.21770334

>  <Name>
ligand

>  <RI>
0

>  <Rbt.Current_Directory>
/home/itssahil/PROJECTS/Mol_Feturizer/New_Systems/rnas/4XWF

>  <Rbt.Executable>
rbdock ($Id: //depot/dev/client3/rdock/2013.1/src/exe/rbdock.cxx#4 $)

>  <Rbt.Library>
libRbt.so (2013.1, Build901 2013/11/27)

>  <Rbt.Parameter_File>
/export/apps/rDock/src/rDock_2013.1_src/data/scripts/dock_solv.prm

>  <Rbt.Receptor>
prm/blind_docking_60.prm

>  <SCORE>
-13.4477

>  <SCORE.INTER>
-14.8339

>  <SCORE.INTER.CONST>
1

>  <SCORE.INTER.POLAR>
0

>  <SCORE.INTER.ROT>
5

>  <SCORE.INTER.SOLV>
18.5743

>  <SCORE.INTER.VDW>
-23.014

>  <SCORE.INTER.norm>
-0.674267

>  <SCORE.INTRA>
1.38614

>  <SCORE.INTRA.DIHEDRAL>
-0.921616

>  <SCORE.INTRA.DIHEDRAL.0>
3.49807

>  <SCORE.INTRA.POLAR>
0

>  <SCORE.INTRA.POLAR.0>
0

>  <SCORE.INTRA.REPUL>
0

>  <SCORE.INTRA.REPUL.0>
0

>  <SCORE.INTRA.SOLV>
0.215759

>  <SCORE.INTRA.SOLV.lig_0>
-73.062

>  <SCORE.INTRA.VDW>
1.73907

>  <SCORE.INTRA.VDW.0>
-1.83782

>  <SCORE.INTRA.norm>
0.0630063

>  <SCORE.RESTR>
0

>  <SCORE.RESTR.CAVITY>
0

>  <SCORE.RESTR.norm>
0

>  <SCORE.SYSTEM>
0

>  <SCORE.SYSTEM.CONST>
0

>  <SCORE.SYSTEM.DIHEDRAL>
0

>  <SCORE.SYSTEM.SOLV>
0

>  <SCORE.SYSTEM.norm>
0

>  <SCORE.heavy>
22

>  <SCORE.norm>
-0.611261

>  <RMSD>
11.831

$$$$
ligand
 OpenBabel11021811513D
libRbt.so/2013.1/901 2013/11/27
 22 23  0  0  0  0  0  0  0  0999 V2000
  -33.1215    7.3045  -18.7412 N   0  0  0  0  0  0  0  0  0  0  0  0
  -32.0441    4.2108  -19.5902 C   0  0  1  0  0  0  0  0  0  0  0  0
  -32.0155    5.6360  -19.8868 O   0  0  0  0  0  0  0  0  0  0  0  0
  -34.6028    1.4671  -20.1232 P   0  0  1  0  0  0  0  0  0  0  0  0
  -32.1290    6.3510  -18.6458 C   0  0  2  0  0  0  0  0  0  0  0  0
  -34.8690    8.5027  -18.2703 N   0  0  0  0  0  0  0  0  0  0  0  0
  -32.2483    5.7332  -16.3436 O   0  0  0  0  0  0  0  0  0  0  0  0
  -32.6092    5.3433  -17.6738 C   0  0  2  0  0  0  0  0  0  0  0  0
  -35.7077   11.0332  -19.5834 N   0  0  0  0  0  0  0  0  0  0  0  0
  -30.5793    4.1110  -17.7630 O   0  0  0  0  0  0  0  0  0  0  0  0
  -31.9727    4.1087  -18.1162 C   0  0  2  0  0  0  0  0  0  0  0  0
  -34.3229    8.9833  -19.3979 C   0  0  0  0  0  0  0  0  0  0  0  0
  -32.3477    8.4264  -20.7950 N   0  0  0  0  0  0  0  0  0  0  0  0
  -33.3602    2.3420  -19.7370 O   0  0  0  0  0  0  0  0  0  0  0  0
  -33.3349    3.6807  -20.1126 C   0  0  0  0  0  0  0  0  0  0  0  0
  -34.3929    1.2033  -21.6584 O   0  0  0  0  0  0  0  0  0  0  0  0
  -34.1238    7.4557  -17.8677 C   0  0  0  0  0  0  0  0  0  0  0  0
  -34.4977   10.2748  -21.3572 O   0  0  0  0  0  0  0  0  0  0  0  0
  -34.8296   10.1252  -20.1814 C   0  0  0  0  0  0  0  0  0  0  0  0
  -33.2202    8.2358  -19.6992 C   0  0  0  0  0  0  0  0  0  0  0  0
  -34.6312    0.2353  -19.2807 O   0  5  0  0  0  0  0  0  0  0  0  0
  -35.8551    2.1305  -19.7180 O   0  0  0  0  0  0  0  0  0  0  0  0
  1 17  1  0  0  0  0
  1 20  1  0  0  0  0
  2 15  1  1  0  0  0
  2  3  1  0  0  0  0
  2 11  1  0  0  0  0
  3  5  1  0  0  0  0
  4 16  1  6  0  0  0
  4 21  1  0  0  0  0
  4 22  2  0  0  0  0
  4 14  1  0  0  0  0
  5  1  1  6  0  0  0
  5  8  1  0  0  0  0
  6 17  2  0  0  0  0
  6 12  1  0  0  0  0
  8  7  1  1  0  0  0
  8 11  1  0  0  0  0
  9 19  1  0  0  0  0
 11 10  1  6  0  0  0
 12 20  2  0  0  0  0
 12 19  1  0  0  0  0
 13 20  1  0  0  0  0
 14 15  1  0  0  0  0
 18 19  2  0  0  0  0
M  CHG  1  21  -1
M  END
>  <CHROM.1>
128.89318667,-176.38188651,75.34145186,179.61558403,18.66499030,-33.54704830
5.39651132,-19.35804519,-1.59123525,0.68950261,-3.10365312

>  <Name>
ligand

>  <RI>
0

>  <Rbt.Current_Directory>
/home/itssahil/PROJECTS/Mol_Feturizer/New_Systems/rnas/4XWF

>  <Rbt.Executable>
rbdock ($Id: //depot/dev/client3/rdock/2013.1/src/exe/rbdock.cxx#4 $)

>  <Rbt.Library>
libRbt.so (2013.1, Build901 2013/11/27)

>  <Rbt.Parameter_File>
/export/apps/rDock/src/rDock_2013.1_src/data/scripts/dock_solv.prm

>  <Rbt.Receptor>
prm/blind_docking_80.prm

>  <SCORE>
-11.4157

>  <SCORE.INTER>
-12.9735

>  <SCORE.INTER.CONST>
1

>  <SCORE.INTER.POLAR>
0

>  <SCORE.INTER.ROT>
5

>  <SCORE.INTER.SOLV>
15.3603

>  <SCORE.INTER.VDW>
-20.7025

>  <SCORE.INTER.norm>
-0.589706

>  <SCORE.INTRA>
1.55781

>  <SCORE.INTRA.DIHEDRAL>
-1.25499

>  <SCORE.INTRA.DIHEDRAL.0>
3.49807

>  <SCORE.INTRA.POLAR>
0

>  <SCORE.INTRA.POLAR.0>
0

>  <SCORE.INTRA.REPUL>
0

>  <SCORE.INTRA.REPUL.0>
0

>  <SCORE.INTRA.SOLV>
-0.0854389

>  <SCORE.INTRA.SOLV.lig_0>
-73.062

>  <SCORE.INTRA.VDW>
2.22803

>  <SCORE.INTRA.VDW.0>
-1.83782

>  <SCORE.INTRA.norm>
0.0708097

>  <SCORE.RESTR>
0

>  <SCORE.RESTR.CAVITY>
0

>  <SCORE.RESTR.norm>
0

>  <SCORE.SYSTEM>
0

>  <SCORE.SYSTEM.CONST>
0

>  <SCORE.SYSTEM.DIHEDRAL>
0

>  <SCORE.SYSTEM.SOLV>
0

>  <SCORE.SYSTEM.norm>
0

>  <SCORE.heavy>
22

>  <SCORE.norm>
-0.518896

>  <RMSD>
12.004

$$$$
ligand
 OpenBabel11021811513D
libRbt.so/2013.1/901 2013/11/27
 22 23  0  0  0  0  0  0  0  0999 V2000
  -37.2776    0.1408  -18.4701 N   0  0  0  0  0  0  0  0  0  0  0  0
  -35.1466    1.2560  -20.8508 C   0  0  1  0  0  0  0  0  0  0  0  0
  -35.7856    0.1052  -20.2286 O   0  0  0  0  0  0  0  0  0  0  0  0
  -32.3879    3.6185  -19.7732 P   0  0  1  0  0  0  0  0  0  0  0  0
  -37.0927    0.5066  -19.7873 C   0  0  2  0  0  0  0  0  0  0  0  0
  -37.8469    0.2235  -16.3772 N   0  0  0  0  0  0  0  0  0  0  0  0
  -38.3878    2.5056  -19.9380 O   0  0  0  0  0  0  0  0  0  0  0  0
  -37.0591    1.9862  -19.8097 C   0  0  2  0  0  0  0  0  0  0  0  0
  -38.0400   -3.2269  -15.7739 N   0  0  0  0  0  0  0  0  0  0  0  0
  -36.8986    2.0687  -22.1792 O   0  0  0  0  0  0  0  0  0  0  0  0
  -36.1973    2.2932  -20.9447 C   0  0  2  0  0  0  0  0  0  0  0  0
  -37.3590   -1.0005  -16.6306 C   0  0  0  0  0  0  0  0  0  0  0  0
  -36.4657   -2.1815  -18.6232 N   0  0  0  0  0  0  0  0  0  0  0  0
  -33.5351    2.8485  -20.5146 O   0  0  0  0  0  0  0  0  0  0  0  0
  -34.0382    1.6813  -19.9505 C   0  0  0  0  0  0  0  0  0  0  0  0
  -32.2475    4.9434  -20.6072 O   0  0  0  0  0  0  0  0  0  0  0  0
  -37.7895    0.9326  -17.5206 C   0  0  0  0  0  0  0  0  0  0  0  0
  -36.4254   -2.0131  -14.7226 O   0  0  0  0  0  0  0  0  0  0  0  0
  -37.2290   -2.0954  -15.6513 C   0  0  0  0  0  0  0  0  0  0  0  0
  -37.0012   -1.0613  -17.9472 C   0  0  0  0  0  0  0  0  0  0  0  0
  -32.7628    3.8230  -18.3430 O   0  5  0  0  0  0  0  0  0  0  0  0
  -31.1881    2.7717  -19.6454 O   0  0  0  0  0  0  0  0  0  0  0  0
  1 17  1  0  0  0  0
  1 20  1  0  0  0  0
  2 15  1  1  0  0  0
  2  3  1  0  0  0  0
  2 11  1  0  0  0  0
  3  5  1  0  0  0  0
  4 16  1  6  0  0  0
  4 21  1  0  0  0  0
  4 22  2  0  0  0  0
  4 14  1  0  0  0  0
  5  1  1  1  0  0  0
  5  8  1  0  0  0  0
  6 17  2  0  0  0  0
  6 12  1  0  0  0  0
  8  7  1  6  0  0  0
  8 11  1  0  0  0  0
  9 19  1  0  0  0  0
 11 10  1  6  0  0  0
 12 20  2  0  0  0  0
 12 19  1  0  0  0  0
 13 20  1  0  0  0  0
 14 15  1  0  0  0  0
 18 19  2  0  0  0  0
M  CHG  1  21  -1
M  END
>  <CHROM.1>
134.05715810,-174.72827153,-172.60519477,176.86187221,111.31811486,-35.54801619
1.14777975,-18.94114774,2.27152355,0.39898902,2.20441895

>  <Name>
ligand

>  <RI>
0

>  <Rbt.Current_Directory>
/home/itssahil/PROJECTS/Mol_Feturizer/New_Systems/rnas/4XWF

>  <Rbt.Executable>
rbdock ($Id: //depot/dev/client3/rdock/2013.1/src/exe/rbdock.cxx#4 $)

>  <Rbt.Library>
libRbt.so (2013.1, Build901 2013/11/27)

>  <Rbt.Parameter_File>
/export/apps/rDock/src/rDock_2013.1_src/data/scripts/dock_solv.prm

>  <Rbt.Receptor>
prm/blind_docking_60.prm

>  <SCORE>
-13.124

>  <SCORE.INTER>
-14.6478

>  <SCORE.INTER.CONST>
1

>  <SCORE.INTER.POLAR>
0

>  <SCORE.INTER.ROT>
5

>  <SCORE.INTER.SOLV>
20.8413

>  <SCORE.INTER.VDW>
-23.6456

>  <SCORE.INTER.norm>
-0.665808

>  <SCORE.INTRA>
1.52379

>  <SCORE.INTRA.DIHEDRAL>
-1.71428

>  <SCORE.INTRA.DIHEDRAL.0>
3.49807

>  <SCORE.INTRA.POLAR>
0

>  <SCORE.INTRA.POLAR.0>
0

>  <SCORE.INTRA.REPUL>
0

>  <SCORE.INTRA.REPUL.0>
0

>  <SCORE.INTRA.SOLV>
0.76072

>  <SCORE.INTRA.SOLV.lig_0>
-73.062

>  <SCORE.INTRA.VDW>
2.00057

>  <SCORE.INTRA.VDW.0>
-1.83782

>  <SCORE.INTRA.norm>
0.0692632

>  <SCORE.RESTR>
0

>  <SCORE.RESTR.CAVITY>
0

>  <SCORE.RESTR.norm>
0

>  <SCORE.SYSTEM>
0

>  <SCORE.SYSTEM.CONST>
0

>  <SCORE.SYSTEM.DIHEDRAL>
0

>  <SCORE.SYSTEM.SOLV>
0

>  <SCORE.SYSTEM.norm>
0

>  <SCORE.heavy>
22

>  <SCORE.norm>
-0.596545

>  <RMSD>
12.089

$$$$
ligand
 OpenBabel11021811513D
libRbt.so/2013.1/901 2013/11/27
 22 23  0  0  0  0  0  0  0  0999 V2000
  -34.8667   -5.9225  -14.6851 N   0  0  0  0  0  0  0  0  0  0  0  0
  -34.3976   -2.6161  -15.2329 C   0  0  1  0  0  0  0  0  0  0  0  0
  -33.8781   -3.8391  -14.6380 O   0  0  0  0  0  0  0  0  0  0  0  0
  -35.6184   -1.0381  -12.0123 P   0  0  1  0  0  0  0  0  0  0  0  0
  -34.2850   -4.9428  -15.4630 C   0  0  2  0  0  0  0  0  0  0  0  0
  -36.2541   -7.4437  -13.9980 N   0  0  0  0  0  0  0  0  0  0  0  0
  -35.4722   -5.1674  -17.5211 O   0  0  0  0  0  0  0  0  0  0  0  0
  -35.3606   -4.3954  -16.3197 C   0  0  2  0  0  0  0  0  0  0  0  0
  -34.5651   -9.5102  -12.0326 N   0  0  0  0  0  0  0  0  0  0  0  0
  -33.8678   -2.9637  -17.4897 O   0  0  0  0  0  0  0  0  0  0  0  0
  -34.9507   -3.0148  -16.5457 C   0  0  2  0  0  0  0  0  0  0  0  0
  -35.2305   -7.3883  -13.1320 C   0  0  0  0  0  0  0  0  0  0  0  0
  -33.1297   -6.0789  -12.9432 N   0  0  0  0  0  0  0  0  0  0  0  0
  -34.7879   -1.5972  -13.2191 O   0  0  0  0  0  0  0  0  0  0  0  0
  -35.4621   -2.1049  -14.3243 C   0  0  0  0  0  0  0  0  0  0  0  0
  -36.6938   -0.1271  -12.7080 O   0  0  0  0  0  0  0  0  0  0  0  0
  -36.0284   -6.5275  -14.9588 C   0  0  0  0  0  0  0  0  0  0  0  0
  -35.4208   -7.7830  -10.8201 O   0  0  0  0  0  0  0  0  0  0  0  0
  -35.0813   -8.2164  -11.9210 C   0  0  0  0  0  0  0  0  0  0  0  0
  -34.3512   -6.4347  -13.5596 C   0  0  0  0  0  0  0  0  0  0  0  0
  -36.1835   -2.1720  -11.2231 O   0  5  0  0  0  0  0  0  0  0  0  0
  -34.7341   -0.4003  -11.0204 O   0  0  0  0  0  0  0  0  0  0  0  0
  1 17  1  0  0  0  0
  1 20  1  0  0  0  0
  2 15  1  1  0  0  0
  2  3  1  0  0  0  0
  2 11  1  0  0  0  0
  3  5  1  0  0  0  0
  4 16  1  6  0  0  0
  4 21  1  0  0  0  0
  4 22  2  0  0  0  0
  4 14  1  0  0  0  0
  5  1  1  1  0  0  0
  5  8  1  0  0  0  0
  6 17  2  0  0  0  0
  6 12  1  0  0  0  0
  8  7  1  6  0  0  0
  8 11  1  0  0  0  0
  9 19  1  0  0  0  0
 11 10  1  6  0  0  0
 12 20  2  0  0  0  0
 12 19  1  0  0  0  0
 13 20  1  0  0  0  0
 14 15  1  0  0  0  0
 18 19  2  0  0  0  0
M  CHG  1  21  -1
M  END
>  <CHROM.1>
131.95685983,73.06573736,-46.81126473,-176.78284165,82.26543748,-35.06338533
-4.22317586,-13.77424765,-1.06458961,1.43721548,-0.44632265

>  <Name>
ligand

>  <RI>
0

>  <Rbt.Current_Directory>
/home/itssahil/PROJECTS/Mol_Feturizer/New_Systems/rnas/4XWF

>  <Rbt.Executable>
rbdock ($Id: //depot/dev/client3/rdock/2013.1/src/exe/rbdock.cxx#4 $)

>  <Rbt.Library>
libRbt.so (2013.1, Build901 2013/11/27)

>  <Rbt.Parameter_File>
/export/apps/rDock/src/rDock_2013.1_src/data/scripts/dock_solv.prm

>  <Rbt.Receptor>
prm/blind_docking_40.prm

>  <SCORE>
-5.65902

>  <SCORE.INTER>
-7.53074

>  <SCORE.INTER.CONST>
1

>  <SCORE.INTER.POLAR>
0

>  <SCORE.INTER.ROT>
5

>  <SCORE.INTER.SOLV>
22.7145

>  <SCORE.INTER.VDW>
-19.5253

>  <SCORE.INTER.norm>
-0.342306

>  <SCORE.INTRA>
1.79644

>  <SCORE.INTRA.DIHEDRAL>
0.00560021

>  <SCORE.INTRA.DIHEDRAL.0>
3.49807

>  <SCORE.INTRA.POLAR>
0

>  <SCORE.INTRA.POLAR.0>
0

>  <SCORE.INTRA.REPUL>
0

>  <SCORE.INTRA.REPUL.0>
0

>  <SCORE.INTRA.SOLV>
-0.368137

>  <SCORE.INTRA.SOLV.lig_0>
-73.062

>  <SCORE.INTRA.VDW>
1.97771

>  <SCORE.INTRA.VDW.0>
-1.83782

>  <SCORE.INTRA.norm>
0.0816565

>  <SCORE.RESTR>
0.0752741

>  <SCORE.RESTR.CAVITY>
0.0752741

>  <SCORE.RESTR.norm>
0.00342155

>  <SCORE.SYSTEM>
0

>  <SCORE.SYSTEM.CONST>
0

>  <SCORE.SYSTEM.DIHEDRAL>
0

>  <SCORE.SYSTEM.SOLV>
0

>  <SCORE.SYSTEM.norm>
0

>  <SCORE.heavy>
22

>  <SCORE.norm>
-0.257228

>  <RMSD>
12.232

$$$$
ligand
 OpenBabel11021811513D
libRbt.so/2013.1/901 2013/11/27
 22 23  0  0  0  0  0  0  0  0999 V2000
  -35.7696    7.3563  -20.6931 N   0  0  0  0  0  0  0  0  0  0  0  0
  -32.5852    8.1721  -19.8892 C   0  0  1  0  0  0  0  0  0  0  0  0
  -33.4639    7.3082  -20.6647 O   0  0  0  0  0  0  0  0  0  0  0  0
  -31.7286    5.6110  -17.2356 P   0  0  1  0  0  0  0  0  0  0  0  0
  -34.6322    8.0653  -21.0197 C   0  0  2  0  0  0  0  0  0  0  0  0
  -37.1486    6.0691  -19.6195 N   0  0  0  0  0  0  0  0  0  0  0  0
  -35.3429   10.3223  -20.7085 O   0  0  0  0  0  0  0  0  0  0  0  0
  -34.6027    9.2439  -20.1247 C   0  0  2  0  0  0  0  0  0  0  0  0
  -40.1075    7.3133  -21.1339 N   0  0  0  0  0  0  0  0  0  0  0  0
  -32.6615   10.1376  -21.1641 O   0  0  0  0  0  0  0  0  0  0  0  0
  -33.1802    9.5239  -19.9722 C   0  0  2  0  0  0  0  0  0  0  0  0
  -37.7848    6.5614  -20.6935 C   0  0  0  0  0  0  0  0  0  0  0  0
  -37.2081    8.1072  -22.5486 N   0  0  0  0  0  0  0  0  0  0  0  0
  -32.0216    6.3911  -18.5638 O   0  0  0  0  0  0  0  0  0  0  0  0
  -32.5891    7.6586  -18.4905 C   0  0  0  0  0  0  0  0  0  0  0  0
  -33.1624    5.3615  -16.6420 O   0  0  0  0  0  0  0  0  0  0  0  0
  -35.8946    6.5599  -19.6251 C   0  0  0  0  0  0  0  0  0  0  0  0
  -39.5314    5.1191  -21.3312 O   0  0  0  0  0  0  0  0  0  0  0  0
  -39.1788    6.2706  -21.0769 C   0  0  0  0  0  0  0  0  0  0  0  0
  -36.9239    7.3753  -21.3729 C   0  0  0  0  0  0  0  0  0  0  0  0
  -30.9597    4.3689  -17.5418 O   0  5  0  0  0  0  0  0  0  0  0  0
  -30.7703    6.3515  -16.3954 O   0  0  0  0  0  0  0  0  0  0  0  0
  1 17  1  0  0  0  0
  1 20  1  0  0  0  0
  2 15  1  1  0  0  0
  2  3  1  0  0  0  0
  2 11  1  0  0  0  0
  3  5  1  0  0  0  0
  4 16  1  1  0  0  0
  4 21  1  0  0  0  0
  4 22  2  0  0  0  0
  4 14  1  0  0  0  0
  5  1  1  1  0  0  0
  5  8  1  0  0  0  0
  6 17  2  0  0  0  0
  6 12  1  0  0  0  0
  8  7  1  6  0  0  0
  8 11  1  0  0  0  0
  9 19  1  0  0  0  0
 11 10  1  6  0  0  0
 12 20  2  0  0  0  0
 12 19  1  0  0  0  0
 13 20  1  0  0  0  0
 14 15  1  0  0  0  0
 18 19  2  0  0  0  0
M  CHG  1  21  -1
M  END
>  <CHROM.1>
35.22650403,64.28290117,65.11040007,173.60631679,118.22753789,-34.59660295
7.13435031,-19.64664538,-2.77041340,0.37123082,2.56624328

>  <Name>
ligand

>  <RI>
0

>  <Rbt.Current_Directory>
/home/itssahil/PROJECTS/Mol_Feturizer/New_Systems/rnas/4XWF

>  <Rbt.Executable>
rbdock ($Id: //depot/dev/client3/rdock/2013.1/src/exe/rbdock.cxx#4 $)

>  <Rbt.Library>
libRbt.so (2013.1, Build901 2013/11/27)

>  <Rbt.Parameter_File>
/export/apps/rDock/src/rDock_2013.1_src/data/scripts/dock_solv.prm

>  <Rbt.Receptor>
prm/blind_docking_100.prm

>  <SCORE>
-8.96478

>  <SCORE.INTER>
-7.55221

>  <SCORE.INTER.CONST>
1

>  <SCORE.INTER.POLAR>
0

>  <SCORE.INTER.ROT>
5

>  <SCORE.INTER.SOLV>
8.399

>  <SCORE.INTER.VDW>
-14.7678

>  <SCORE.INTER.norm>
-0.343282

>  <SCORE.INTRA>
-1.41258

>  <SCORE.INTRA.DIHEDRAL>
-1.72118

>  <SCORE.INTRA.DIHEDRAL.0>
3.49807

>  <SCORE.INTRA.POLAR>
0

>  <SCORE.INTRA.POLAR.0>
0

>  <SCORE.INTRA.REPUL>
0

>  <SCORE.INTRA.REPUL.0>
0

>  <SCORE.INTRA.SOLV>
-0.121867

>  <SCORE.INTRA.SOLV.lig_0>
-73.062

>  <SCORE.INTRA.VDW>
-0.491055

>  <SCORE.INTRA.VDW.0>
-1.83782

>  <SCORE.INTRA.norm>
-0.064208

>  <SCORE.RESTR>
0

>  <SCORE.RESTR.CAVITY>
0

>  <SCORE.RESTR.norm>
0

>  <SCORE.SYSTEM>
0

>  <SCORE.SYSTEM.CONST>
0

>  <SCORE.SYSTEM.DIHEDRAL>
0

>  <SCORE.SYSTEM.SOLV>
0

>  <SCORE.SYSTEM.norm>
0

>  <SCORE.heavy>
22

>  <SCORE.norm>
-0.40749

>  <RMSD>
12.279

$$$$
ligand
 OpenBabel11021811513D
libRbt.so/2013.1/901 2013/11/27
 22 23  0  0  0  0  0  0  0  0999 V2000
  -33.1778    7.2371  -19.6398 N   0  0  0  0  0  0  0  0  0  0  0  0
  -32.2741    3.9759  -19.6120 C   0  0  1  0  0  0  0  0  0  0  0  0
  -32.1271    5.2765  -20.2497 O   0  0  0  0  0  0  0  0  0  0  0  0
  -34.7640    1.1501  -20.0156 P   0  0  1  0  0  0  0  0  0  0  0  0
  -32.2628    6.2865  -19.2369 C   0  0  2  0  0  0  0  0  0  0  0  0
  -34.1950    9.1410  -19.8662 N   0  0  0  0  0  0  0  0  0  0  0  0
  -32.5612    6.2767  -16.8690 O   0  0  0  0  0  0  0  0  0  0  0  0
  -32.8697    5.5839  -18.0842 C   0  0  2  0  0  0  0  0  0  0  0  0
  -36.5183    9.7928  -21.5604 N   0  0  0  0  0  0  0  0  0  0  0  0
  -30.9305    4.2616  -17.7126 O   0  0  0  0  0  0  0  0  0  0  0  0
  -32.2972    4.2452  -18.1576 C   0  0  2  0  0  0  0  0  0  0  0  0
  -34.8172    8.2390  -20.6406 C   0  0  0  0  0  0  0  0  0  0  0  0
  -34.5071    5.8330  -21.1687 N   0  0  0  0  0  0  0  0  0  0  0  0
  -33.5772    2.0923  -19.6128 O   0  0  0  0  0  0  0  0  0  0  0  0
  -33.5661    3.4014  -20.0817 C   0  0  0  0  0  0  0  0  0  0  0  0
  -34.5534    0.9476  -21.5600 O   0  0  0  0  0  0  0  0  0  0  0  0
  -33.1804    8.5142  -19.2407 C   0  0  0  0  0  0  0  0  0  0  0  0
  -36.5192    7.5878  -22.1294 O   0  0  0  0  0  0  0  0  0  0  0  0
  -35.9923    8.4999  -21.4925 C   0  0  0  0  0  0  0  0  0  0  0  0
  -34.1805    7.0382  -20.5058 C   0  0  0  0  0  0  0  0  0  0  0  0
  -34.7033   -0.1061  -19.2117 O   0  5  0  0  0  0  0  0  0  0  0  0
  -36.0526    1.7174  -19.5794 O   0  0  0  0  0  0  0  0  0  0  0  0
  1 17  1  0  0  0  0
  1 20  1  0  0  0  0
  2 15  1  6  0  0  0
  2  3  1  0  0  0  0
  2 11  1  0  0  0  0
  3  5  1  0  0  0  0
  4 16  1  6  0  0  0
  4 21  1  0  0  0  0
  4 22  2  0  0  0  0
  4 14  1  0  0  0  0
  5  1  1  6  0  0  0
  5  8  1  0  0  0  0
  6 17  2  0  0  0  0
  6 12  1  0  0  0  0
  8  7  1  1  0  0  0
  8 11  1  0  0  0  0
  9 19  1  0  0  0  0
 11 10  1  6  0  0  0
 12 20  2  0  0  0  0
 12 19  1  0  0  0  0
 13 20  1  0  0  0  0
 14 15  1  0  0  0  0
 18 19  2  0  0  0  0
M  CHG  1  21  -1
M  END
>  <CHROM.1>
-152.87353433,171.52792007,67.77990604,-175.71122536,1.86638121,-33.93821339
4.95183946,-19.82496904,-1.65522055,0.67689861,3.08715213

>  <Name>
ligand

>  <RI>
0

>  <Rbt.Current_Directory>
/home/itssahil/PROJECTS/Mol_Feturizer/New_Systems/rnas/4XWF

>  <Rbt.Executable>
rbdock ($Id: //depot/dev/client3/rdock/2013.1/src/exe/rbdock.cxx#4 $)

>  <Rbt.Library>
libRbt.so (2013.1, Build901 2013/11/27)

>  <Rbt.Parameter_File>
/export/apps/rDock/src/rDock_2013.1_src/data/scripts/dock_solv.prm

>  <Rbt.Receptor>
prm/blind_docking_100.prm

>  <SCORE>
-7.90556

>  <SCORE.INTER>
-9.35893

>  <SCORE.INTER.CONST>
1

>  <SCORE.INTER.POLAR>
0

>  <SCORE.INTER.ROT>
5

>  <SCORE.INTER.SOLV>
12.7853

>  <SCORE.INTER.VDW>
-17.4344

>  <SCORE.INTER.norm>
-0.425406

>  <SCORE.INTRA>
1.45337

>  <SCORE.INTRA.DIHEDRAL>
-1.53403

>  <SCORE.INTRA.DIHEDRAL.0>
3.49807

>  <SCORE.INTRA.POLAR>
0

>  <SCORE.INTRA.POLAR.0>
0

>  <SCORE.INTRA.REPUL>
0

>  <SCORE.INTRA.REPUL.0>
0

>  <SCORE.INTRA.SOLV>
3.79405

>  <SCORE.INTRA.SOLV.lig_0>
-73.062

>  <SCORE.INTRA.VDW>
0.323365

>  <SCORE.INTRA.VDW.0>
-1.83782

>  <SCORE.INTRA.norm>
0.0660623

>  <SCORE.RESTR>
0

>  <SCORE.RESTR.CAVITY>
0

>  <SCORE.RESTR.norm>
0

>  <SCORE.SYSTEM>
0

>  <SCORE.SYSTEM.CONST>
0

>  <SCORE.SYSTEM.DIHEDRAL>
0

>  <SCORE.SYSTEM.SOLV>
0

>  <SCORE.SYSTEM.norm>
0

>  <SCORE.heavy>
22

>  <SCORE.norm>
-0.359344

>  <RMSD>
12.360

$$$$
ligand
 OpenBabel11021811513D
libRbt.so/2013.1/901 2013/11/27
 22 23  0  0  0  0  0  0  0  0999 V2000
  -32.9880    7.2549  -19.4006 N   0  0  0  0  0  0  0  0  0  0  0  0
  -32.0148    4.0138  -19.4264 C   0  0  1  0  0  0  0  0  0  0  0  0
  -32.0129    5.2930  -20.1217 O   0  0  0  0  0  0  0  0  0  0  0  0
  -34.9071    2.8951  -21.6039 P   0  0  1  0  0  0  0  0  0  0  0  0
  -31.9940    6.3362  -19.1339 C   0  0  2  0  0  0  0  0  0  0  0  0
  -34.9557    8.1416  -19.6301 N   0  0  0  0  0  0  0  0  0  0  0  0
  -31.8740    6.4063  -16.7513 O   0  0  0  0  0  0  0  0  0  0  0  0
  -32.3731    5.6647  -17.8705 C   0  0  2  0  0  0  0  0  0  0  0  0
  -35.5705   11.0380  -19.9465 N   0  0  0  0  0  0  0  0  0  0  0  0
  -30.3674    4.3920  -17.8023 O   0  0  0  0  0  0  0  0  0  0  0  0
  -31.7901    4.3348  -17.9999 C   0  0  2  0  0  0  0  0  0  0  0  0
  -34.0379    9.0884  -19.8788 C   0  0  0  0  0  0  0  0  0  0  0  0
  -31.5580    9.2035  -19.8843 N   0  0  0  0  0  0  0  0  0  0  0  0
  -33.5716    3.4682  -21.0153 O   0  0  0  0  0  0  0  0  0  0  0  0
  -33.3547    3.3994  -19.6435 C   0  0  0  0  0  0  0  0  0  0  0  0
  -34.6532    1.3441  -21.6262 O   0  0  0  0  0  0  0  0  0  0  0  0
  -34.3004    7.0017  -19.3392 C   0  0  0  0  0  0  0  0  0  0  0  0
  -33.4770   11.1647  -20.8335 O   0  0  0  0  0  0  0  0  0  0  0  0
  -34.3223   10.4872  -20.2492 C   0  0  0  0  0  0  0  0  0  0  0  0
  -32.7963    8.5384  -19.7333 C   0  0  0  0  0  0  0  0  0  0  0  0
  -36.0559    3.3230  -20.7524 O   0  5  0  0  0  0  0  0  0  0  0  0
  -35.2334    3.5435  -22.8868 O   0  0  0  0  0  0  0  0  0  0  0  0
  1 17  1  0  0  0  0
  1 20  1  0  0  0  0
  2 15  1  1  0  0  0
  2  3  1  0  0  0  0
  2 11  1  0  0  0  0
  3  5  1  0  0  0  0
  4 16  1  6  0  0  0
  4 21  1  0  0  0  0
  4 22  2  0  0  0  0
  4 14  1  0  0  0  0
  5  1  1  6  0  0  0
  5  8  1  0  0  0  0
  6 17  2  0  0  0  0
  6 12  1  0  0  0  0
  8  7  1  1  0  0  0
  8 11  1  0  0  0  0
  9 19  1  0  0  0  0
 11 10  1  6  0  0  0
 12 20  2  0  0  0  0
 12 19  1  0  0  0  0
 13 20  1  0  0  0  0
 14 15  1  0  0  0  0
 18 19  2  0  0  0  0
M  CHG  1  21  -1
M  END
>  <CHROM.1>
65.98929455,50.06176925,-78.41900975,179.71285111,20.96884955,-33.45781217
5.91281024,-19.92481403,-1.44807742,0.72459005,-3.04410611

>  <Name>
ligand

>  <RI>
0

>  <Rbt.Current_Directory>
/home/itssahil/PROJECTS/Mol_Feturizer/New_Systems/rnas/4XWF

>  <Rbt.Executable>
rbdock ($Id: //depot/dev/client3/rdock/2013.1/src/exe/rbdock.cxx#4 $)

>  <Rbt.Library>
libRbt.so (2013.1, Build901 2013/11/27)

>  <Rbt.Parameter_File>
/export/apps/rDock/src/rDock_2013.1_src/data/scripts/dock_solv.prm

>  <Rbt.Receptor>
prm/blind_docking_100.prm

>  <SCORE>
-9.81744

>  <SCORE.INTER>
-9.55017

>  <SCORE.INTER.CONST>
1

>  <SCORE.INTER.POLAR>
0

>  <SCORE.INTER.ROT>
5

>  <SCORE.INTER.SOLV>
16.9506

>  <SCORE.INTER.VDW>
-18.9503

>  <SCORE.INTER.norm>
-0.434098

>  <SCORE.INTRA>
-0.299841

>  <SCORE.INTRA.DIHEDRAL>
-0.599249

>  <SCORE.INTRA.DIHEDRAL.0>
3.49807

>  <SCORE.INTRA.POLAR>
0

>  <SCORE.INTRA.POLAR.0>
0

>  <SCORE.INTRA.REPUL>
0

>  <SCORE.INTRA.REPUL.0>
0

>  <SCORE.INTRA.SOLV>
-0.892714

>  <SCORE.INTRA.SOLV.lig_0>
-73.062

>  <SCORE.INTRA.VDW>
0.44614

>  <SCORE.INTRA.VDW.0>
-1.83782

>  <SCORE.INTRA.norm>
-0.0136291

>  <SCORE.RESTR>
0.0325697

>  <SCORE.RESTR.CAVITY>
0.0325697

>  <SCORE.RESTR.norm>
0.00148044

>  <SCORE.SYSTEM>
0

>  <SCORE.SYSTEM.CONST>
0

>  <SCORE.SYSTEM.DIHEDRAL>
0

>  <SCORE.SYSTEM.SOLV>
0

>  <SCORE.SYSTEM.norm>
0

>  <SCORE.heavy>
22

>  <SCORE.norm>
-0.446247

>  <RMSD>
12.366

$$$$
ligand
 OpenBabel11021811513D
libRbt.so/2013.1/901 2013/11/27
 22 23  0  0  0  0  0  0  0  0999 V2000
  -35.7113    2.0115  -20.2647 N   0  0  0  0  0  0  0  0  0  0  0  0
  -35.1840    5.1262  -21.4785 C   0  0  1  0  0  0  0  0  0  0  0  0
  -34.8428    3.7130  -21.5572 O   0  0  0  0  0  0  0  0  0  0  0  0
  -34.2764    7.9237  -19.0903 P   0  0  1  0  0  0  0  0  0  0  0  0
  -36.0162    2.9529  -21.2260 C   0  0  2  0  0  0  0  0  0  0  0  0
  -34.6386    0.9288  -18.7194 N   0  0  0  0  0  0  0  0  0  0  0  0
  -38.2834    3.4850  -20.7039 O   0  0  0  0  0  0  0  0  0  0  0  0
  -36.9264    3.9273  -20.5834 C   0  0  2  0  0  0  0  0  0  0  0  0
  -35.4367   -1.7496  -17.6269 N   0  0  0  0  0  0  0  0  0  0  0  0
  -37.2429    5.1459  -22.5988 O   0  0  0  0  0  0  0  0  0  0  0  0
  -36.6504    5.1725  -21.2893 C   0  0  2  0  0  0  0  0  0  0  0  0
  -35.8428    0.3570  -18.8725 C   0  0  0  0  0  0  0  0  0  0  0  0
  -37.8392    0.7677  -20.2900 N   0  0  0  0  0  0  0  0  0  0  0  0
  -34.8069    7.0328  -20.2666 O   0  0  0  0  0  0  0  0  0  0  0  0
  -34.4634    5.6858  -20.3005 C   0  0  0  0  0  0  0  0  0  0  0  0
  -35.0688    7.3832  -17.8451 O   0  0  0  0  0  0  0  0  0  0  0  0
  -34.5572    1.9529  -19.5901 C   0  0  0  0  0  0  0  0  0  0  0  0
  -37.5517   -0.9664  -17.9420 O   0  0  0  0  0  0  0  0  0  0  0  0
  -36.3442   -0.8091  -18.1218 C   0  0  0  0  0  0  0  0  0  0  0  0
  -36.5254    1.0352  -19.8418 C   0  0  0  0  0  0  0  0  0  0  0  0
  -32.7934    7.7891  -18.9876 O   0  5  0  0  0  0  0  0  0  0  0  0
  -34.4211    9.3547  -19.4125 O   0  0  0  0  0  0  0  0  0  0  0  0
  1 17  1  0  0  0  0
  1 20  1  0  0  0  0
  2 15  1  1  0  0  0
  2  3  1  0  0  0  0
  2 11  1  0  0  0  0
  3  5  1  0  0  0  0
  4 16  1  1  0  0  0
  4 21  1  0  0  0  0
  4 22  2  0  0  0  0
  4 14  1  0  0  0  0
  5  1  1  1  0  0  0
  5  8  1  0  0  0  0
  6 17  2  0  0  0  0
  6 12  1  0  0  0  0
  8  7  1  6  0  0  0
  8 11  1  0  0  0  0
  9 19  1  0  0  0  0
 11 10  1  6  0  0  0
 12 20  2  0  0  0  0
 12 19  1  0  0  0  0
 13 20  1  0  0  0  0
 14 15  1  0  0  0  0
 18 19  2  0  0  0  0
M  CHG  1  21  -1
M  END
>  <CHROM.1>
9.74171083,179.58461652,-69.36289559,176.77709098,-28.10777280,-35.61518179
3.93050632,-19.81259548,1.96176352,0.86890003,2.75238465

>  <Name>
ligand

>  <RI>
0

>  <Rbt.Current_Directory>
/home/itssahil/PROJECTS/Mol_Feturizer/New_Systems/rnas/4XWF

>  <Rbt.Executable>
rbdock ($Id: //depot/dev/client3/rdock/2013.1/src/exe/rbdock.cxx#4 $)

>  <Rbt.Library>
libRbt.so (2013.1, Build901 2013/11/27)

>  <Rbt.Parameter_File>
/export/apps/rDock/src/rDock_2013.1_src/data/scripts/dock_solv.prm

>  <Rbt.Receptor>
prm/blind_docking_100.prm

>  <SCORE>
-7.88787

>  <SCORE.INTER>
-7.98485

>  <SCORE.INTER.CONST>
1

>  <SCORE.INTER.POLAR>
0

>  <SCORE.INTER.ROT>
5

>  <SCORE.INTER.SOLV>
14.9946

>  <SCORE.INTER.VDW>
-17.2547

>  <SCORE.INTER.norm>
-0.362948

>  <SCORE.INTRA>
0.0969815

>  <SCORE.INTRA.DIHEDRAL>
-1.04392

>  <SCORE.INTRA.DIHEDRAL.0>
3.49807

>  <SCORE.INTRA.POLAR>
0

>  <SCORE.INTRA.POLAR.0>
0

>  <SCORE.INTRA.REPUL>
0

>  <SCORE.INTRA.REPUL.0>
0

>  <SCORE.INTRA.SOLV>
0.84779

>  <SCORE.INTRA.SOLV.lig_0>
-73.062

>  <SCORE.INTRA.VDW>
0.195045

>  <SCORE.INTRA.VDW.0>
-1.83782

>  <SCORE.INTRA.norm>
0.00440825

>  <SCORE.RESTR>
0

>  <SCORE.RESTR.CAVITY>
0

>  <SCORE.RESTR.norm>
0

>  <SCORE.SYSTEM>
0

>  <SCORE.SYSTEM.CONST>
0

>  <SCORE.SYSTEM.DIHEDRAL>
0

>  <SCORE.SYSTEM.SOLV>
0

>  <SCORE.SYSTEM.norm>
0

>  <SCORE.heavy>
22

>  <SCORE.norm>
-0.358539

>  <RMSD>
12.385

$$$$
ligand
 OpenBabel11021811513D
libRbt.so/2013.1/901 2013/11/27
 22 23  0  0  0  0  0  0  0  0999 V2000
  -33.2302    7.1298  -19.0980 N   0  0  0  0  0  0  0  0  0  0  0  0
  -32.4821    4.0369  -20.2498 C   0  0  1  0  0  0  0  0  0  0  0  0
  -32.4310    5.4722  -20.4885 O   0  0  0  0  0  0  0  0  0  0  0  0
  -35.1909    1.4085  -20.5393 P   0  0  1  0  0  0  0  0  0  0  0  0
  -32.2879    6.1295  -19.2190 C   0  0  2  0  0  0  0  0  0  0  0  0
  -34.8100    8.3738  -18.2807 N   0  0  0  0  0  0  0  0  0  0  0  0
  -32.0345    5.4048  -16.9592 O   0  0  0  0  0  0  0  0  0  0  0  0
  -32.6427    5.0975  -18.2191 C   0  0  2  0  0  0  0  0  0  0  0  0
  -34.3757   11.3381  -19.8887 N   0  0  0  0  0  0  0  0  0  0  0  0
  -30.7273    3.7820  -18.7168 O   0  0  0  0  0  0  0  0  0  0  0  0
  -32.1592    3.8591  -18.8172 C   0  0  2  0  0  0  0  0  0  0  0  0
  -34.4323    8.8957  -19.4578 C   0  0  0  0  0  0  0  0  0  0  0  0
  -32.7467    8.3362  -21.1925 N   0  0  0  0  0  0  0  0  0  0  0  0
  -33.8440    2.2055  -20.4423 O   0  0  0  0  0  0  0  0  0  0  0  0
  -33.8704    3.5911  -20.5562 C   0  0  0  0  0  0  0  0  0  0  0  0
  -34.7170   -0.0868  -20.6389 O   0  0  0  0  0  0  0  0  0  0  0  0
  -34.0656    7.2730  -18.0625 C   0  0  0  0  0  0  0  0  0  0  0  0
  -36.0224   10.0334  -20.7673 O   0  0  0  0  0  0  0  0  0  0  0  0
  -34.9996   10.1033  -20.0860 C   0  0  0  0  0  0  0  0  0  0  0  0
  -33.4357    8.1196  -19.9772 C   0  0  0  0  0  0  0  0  0  0  0  0
  -36.0408    1.7116  -19.3503 O   0  5  0  0  0  0  0  0  0  0  0  0
  -36.0260    1.9259  -21.6382 O   0  0  0  0  0  0  0  0  0  0  0  0
  1 17  1  0  0  0  0
  1 20  1  0  0  0  0
  2 15  1  1  0  0  0
  2  3  1  0  0  0  0
  2 11  1  0  0  0  0
  3  5  1  0  0  0  0
  4 16  1  6  0  0  0
  4 21  1  0  0  0  0
  4 22  2  0  0  0  0
  4 14  1  0  0  0  0
  5  1  1  6  0  0  0
  5  8  1  0  0  0  0
  6 17  2  0  0  0  0
  6 12  1  0  0  0  0
  8  7  1  1  0  0  0
  8 11  1  0  0  0  0
  9 19  1  0  0  0  0
 11 10  1  6  0  0  0
 12 20  2  0  0  0  0
 12 19  1  0  0  0  0
 13 20  1  0  0  0  0
 14 15  1  0  0  0  0
 18 19  2  0  0  0  0
M  CHG  1  21  -1
M  END
>  <CHROM.1>
128.06875295,174.41247645,169.72408422,173.02456116,94.74069605,-33.84309053
5.27408120,-19.73396663,-1.51888360,0.51523058,-3.08576786

>  <Name>
ligand

>  <RI>
0

>  <Rbt.Current_Directory>
/home/itssahil/PROJECTS/Mol_Feturizer/New_Systems/rnas/4XWF

>  <Rbt.Executable>
rbdock ($Id: //depot/dev/client3/rdock/2013.1/src/exe/rbdock.cxx#4 $)

>  <Rbt.Library>
libRbt.so (2013.1, Build901 2013/11/27)

>  <Rbt.Parameter_File>
/export/apps/rDock/src/rDock_2013.1_src/data/scripts/dock_solv.prm

>  <Rbt.Receptor>
prm/blind_docking_60.prm

>  <SCORE>
-10.9963

>  <SCORE.INTER>
-12.8394

>  <SCORE.INTER.CONST>
1

>  <SCORE.INTER.POLAR>
0

>  <SCORE.INTER.ROT>
5

>  <SCORE.INTER.SOLV>
14.0304

>  <SCORE.INTER.VDW>
-20.1698

>  <SCORE.INTER.norm>
-0.583611

>  <SCORE.INTRA>
1.8431

>  <SCORE.INTRA.DIHEDRAL>
-0.843069

>  <SCORE.INTRA.DIHEDRAL.0>
3.49807

>  <SCORE.INTRA.POLAR>
0

>  <SCORE.INTRA.POLAR.0>
0

>  <SCORE.INTRA.REPUL>
0

>  <SCORE.INTRA.REPUL.0>
0

>  <SCORE.INTRA.SOLV>
0.495549

>  <SCORE.INTRA.SOLV.lig_0>
-73.062

>  <SCORE.INTRA.VDW>
2.01686

>  <SCORE.INTRA.VDW.0>
-1.83782

>  <SCORE.INTRA.norm>
0.0837774

>  <SCORE.RESTR>
0

>  <SCORE.RESTR.CAVITY>
0

>  <SCORE.RESTR.norm>
0

>  <SCORE.SYSTEM>
0

>  <SCORE.SYSTEM.CONST>
0

>  <SCORE.SYSTEM.DIHEDRAL>
0

>  <SCORE.SYSTEM.SOLV>
0

>  <SCORE.SYSTEM.norm>
0

>  <SCORE.heavy>
22

>  <SCORE.norm>
-0.499834

>  <RMSD>
12.401

$$$$
ligand
 OpenBabel11021811513D
libRbt.so/2013.1/901 2013/11/27
 22 23  0  0  0  0  0  0  0  0999 V2000
  -33.5210    6.6939  -19.9580 N   0  0  0  0  0  0  0  0  0  0  0  0
  -32.0992    3.7646  -19.0359 C   0  0  1  0  0  0  0  0  0  0  0  0
  -32.3358    4.7209  -20.1080 O   0  0  0  0  0  0  0  0  0  0  0  0
  -34.7772    1.3931  -20.2779 P   0  0  1  0  0  0  0  0  0  0  0  0
  -32.3876    6.0347  -19.5287 C   0  0  2  0  0  0  0  0  0  0  0  0
  -35.6010    7.1207  -20.4079 N   0  0  0  0  0  0  0  0  0  0  0  0
  -32.0893    6.9284  -17.3359 O   0  0  0  0  0  0  0  0  0  0  0  0
  -32.5648    5.7994  -18.0782 C   0  0  2  0  0  0  0  0  0  0  0  0
  -35.2140   10.6626  -20.5296 N   0  0  0  0  0  0  0  0  0  0  0  0
  -30.3987    4.8509  -17.8431 O   0  0  0  0  0  0  0  0  0  0  0  0
  -31.8097    4.5766  -17.8338 C   0  0  2  0  0  0  0  0  0  0  0  0
  -34.8763    8.2110  -20.7025 C   0  0  0  0  0  0  0  0  0  0  0  0
  -32.4797    8.8440  -20.5650 N   0  0  0  0  0  0  0  0  0  0  0  0
  -33.4802    2.2439  -20.0490 O   0  0  0  0  0  0  0  0  0  0  0  0
  -33.3504    2.9724  -18.8717 C   0  0  0  0  0  0  0  0  0  0  0  0
  -34.8747    0.5280  -18.9692 O   0  0  0  0  0  0  0  0  0  0  0  0
  -34.7553    6.1774  -19.9512 C   0  0  0  0  0  0  0  0  0  0  0  0
  -36.0254    9.4927  -22.3069 O   0  0  0  0  0  0  0  0  0  0  0  0
  -35.4058    9.4766  -21.2434 C   0  0  0  0  0  0  0  0  0  0  0  0
  -33.5658    7.9510  -20.4189 C   0  0  0  0  0  0  0  0  0  0  0  0
  -35.9393    2.3009  -20.5089 O   0  5  0  0  0  0  0  0  0  0  0  0
  -34.7082    0.6702  -21.5606 O   0  0  0  0  0  0  0  0  0  0  0  0
  1 17  1  0  0  0  0
  1 20  1  0  0  0  0
  2 15  1  1  0  0  0
  2  3  1  0  0  0  0
  2 11  1  0  0  0  0
  3  5  1  0  0  0  0
  4 16  1  1  0  0  0
  4 21  1  0  0  0  0
  4 22  2  0  0  0  0
  4 14  1  0  0  0  0
  5  1  1  6  0  0  0
  5  8  1  0  0  0  0
  6 17  2  0  0  0  0
  6 12  1  0  0  0  0
  8  7  1  1  0  0  0
  8 11  1  0  0  0  0
  9 19  1  0  0  0  0
 11 10  1  6  0  0  0
 12 20  2  0  0  0  0
 12 19  1  0  0  0  0
 13 20  1  0  0  0  0
 14 15  1  0  0  0  0
 18 19  2  0  0  0  0
M  CHG  1  21  -1
M  END
>  <CHROM.1>
48.33279652,66.20973845,-52.21965244,-174.16670865,121.03548585,-33.78836100
5.17745442,-19.84217707,-1.61619705,0.63408796,3.06883536

>  <Name>
ligand

>  <RI>
0

>  <Rbt.Current_Directory>
/home/itssahil/PROJECTS/Mol_Feturizer/New_Systems/rnas/4XWF

>  <Rbt.Executable>
rbdock ($Id: //depot/dev/client3/rdock/2013.1/src/exe/rbdock.cxx#4 $)

>  <Rbt.Library>
libRbt.so (2013.1, Build901 2013/11/27)

>  <Rbt.Parameter_File>
/export/apps/rDock/src/rDock_2013.1_src/data/scripts/dock_solv.prm

>  <Rbt.Receptor>
prm/blind_docking_100.prm

>  <SCORE>
-8.8508

>  <SCORE.INTER>
-7.51916

>  <SCORE.INTER.CONST>
1

>  <SCORE.INTER.POLAR>
0

>  <SCORE.INTER.ROT>
5

>  <SCORE.INTER.SOLV>
14.4101

>  <SCORE.INTER.VDW>
-16.7495

>  <SCORE.INTER.norm>
-0.34178

>  <SCORE.INTRA>
-1.33298

>  <SCORE.INTRA.DIHEDRAL>
-1.62042

>  <SCORE.INTRA.DIHEDRAL.0>
3.49807

>  <SCORE.INTRA.POLAR>
0

>  <SCORE.INTRA.POLAR.0>
0

>  <SCORE.INTRA.REPUL>
0

>  <SCORE.INTRA.REPUL.0>
0

>  <SCORE.INTRA.SOLV>
-0.511421

>  <SCORE.INTRA.SOLV.lig_0>
-73.062

>  <SCORE.INTRA.VDW>
-0.267054

>  <SCORE.INTRA.VDW.0>
-1.83782

>  <SCORE.INTRA.norm>
-0.0605898

>  <SCORE.RESTR>
0.00133614

>  <SCORE.RESTR.CAVITY>
0.00133614

>  <SCORE.RESTR.norm>
6.07337e-05

>  <SCORE.SYSTEM>
0

>  <SCORE.SYSTEM.CONST>
0

>  <SCORE.SYSTEM.DIHEDRAL>
0

>  <SCORE.SYSTEM.SOLV>
0

>  <SCORE.SYSTEM.norm>
0

>  <SCORE.heavy>
22

>  <SCORE.norm>
-0.402309

>  <RMSD>
12.413

$$$$
ligand
 OpenBabel11021811513D
libRbt.so/2013.1/901 2013/11/27
 22 23  0  0  0  0  0  0  0  0999 V2000
  -32.9802    7.3327  -19.7070 N   0  0  0  0  0  0  0  0  0  0  0  0
  -32.1881    4.0436  -19.6240 C   0  0  1  0  0  0  0  0  0  0  0  0
  -31.9553    5.3385  -20.2477 O   0  0  0  0  0  0  0  0  0  0  0  0
  -34.8341    1.3650  -20.0409 P   0  0  1  0  0  0  0  0  0  0  0  0
  -32.1265    6.3527  -19.2445 C   0  0  2  0  0  0  0  0  0  0  0  0
  -33.9442    9.2600  -19.9665 N   0  0  0  0  0  0  0  0  0  0  0  0
  -32.5859    6.3533  -16.9025 O   0  0  0  0  0  0  0  0  0  0  0  0
  -32.8334    5.6707  -18.1372 C   0  0  2  0  0  0  0  0  0  0  0  0
  -35.2993    8.6058  -23.1760 N   0  0  0  0  0  0  0  0  0  0  0  0
  -30.9685    4.2854  -17.6369 O   0  0  0  0  0  0  0  0  0  0  0  0
  -32.3016    4.3139  -18.1741 C   0  0  2  0  0  0  0  0  0  0  0  0
  -34.4867    8.3991  -20.8413 C   0  0  0  0  0  0  0  0  0  0  0  0
  -34.1472    6.0111  -21.4296 N   0  0  0  0  0  0  0  0  0  0  0  0
  -33.6230    2.2585  -19.6009 O   0  0  0  0  0  0  0  0  0  0  0  0
  -33.4632    3.5118  -20.1819 C   0  0  0  0  0  0  0  0  0  0  0  0
  -34.4477    0.9303  -21.5011 O   0  0  0  0  0  0  0  0  0  0  0  0
  -33.0126    8.5931  -19.2588 C   0  0  0  0  0  0  0  0  0  0  0  0
  -36.6650    9.0783  -21.4162 O   0  0  0  0  0  0  0  0  0  0  0  0
  -35.5567    8.7118  -21.8066 C   0  0  0  0  0  0  0  0  0  0  0  0
  -33.8826    7.1840  -20.6860 C   0  0  0  0  0  0  0  0  0  0  0  0
  -34.9992    0.2343  -19.0806 O   0  5  0  0  0  0  0  0  0  0  0  0
  -36.1069    2.0878  -19.8670 O   0  0  0  0  0  0  0  0  0  0  0  0
  1 17  1  0  0  0  0
  1 20  1  0  0  0  0
  2 15  1  6  0  0  0
  2  3  1  0  0  0  0
  2 11  1  0  0  0  0
  3  5  1  0  0  0  0
  4 16  1  6  0  0  0
  4 21  1  0  0  0  0
  4 22  2  0  0  0  0
  4 14  1  0  0  0  0
  5  1  1  6  0  0  0
  5  8  1  0  0  0  0
  6 17  2  0  0  0  0
  6 12  1  0  0  0  0
  8  7  1  1  0  0  0
  8 11  1  0  0  0  0
  9 19  1  0  0  0  0
 11 10  1  1  0  0  0
 12 20  2  0  0  0  0
 12 19  1  0  0  0  0
 13 20  1  0  0  0  0
 14 15  1  0  0  0  0
 18 19  2  0  0  0  0
M  CHG  1  21  -1
M  END
>  <CHROM.1>
-156.38487776,177.86458353,70.94731501,-176.10158601,117.45451641,-33.81504612
5.09834017,-19.91551856,-1.59450208,0.73875296,3.01004647

>  <Name>
ligand

>  <RI>
0

>  <Rbt.Current_Directory>
/home/itssahil/PROJECTS/Mol_Feturizer/New_Systems/rnas/4XWF

>  <Rbt.Executable>
rbdock ($Id: //depot/dev/client3/rdock/2013.1/src/exe/rbdock.cxx#4 $)

>  <Rbt.Library>
libRbt.so (2013.1, Build901 2013/11/27)

>  <Rbt.Parameter_File>
/export/apps/rDock/src/rDock_2013.1_src/data/scripts/dock_solv.prm

>  <Rbt.Receptor>
prm/blind_docking_100.prm

>  <SCORE>
-7.56257

>  <SCORE.INTER>
-8.79899

>  <SCORE.INTER.CONST>
1

>  <SCORE.INTER.POLAR>
0

>  <SCORE.INTER.ROT>
5

>  <SCORE.INTER.SOLV>
13.6955

>  <SCORE.INTER.VDW>
-17.3645

>  <SCORE.INTER.norm>
-0.399954

>  <SCORE.INTRA>
1.23642

>  <SCORE.INTRA.DIHEDRAL>
-1.69677

>  <SCORE.INTRA.DIHEDRAL.0>
3.49807

>  <SCORE.INTRA.POLAR>
0

>  <SCORE.INTRA.POLAR.0>
0

>  <SCORE.INTRA.REPUL>
0

>  <SCORE.INTRA.REPUL.0>
0

>  <SCORE.INTRA.SOLV>
3.77214

>  <SCORE.INTRA.SOLV.lig_0>
-73.062

>  <SCORE.INTRA.VDW>
0.198734

>  <SCORE.INTRA.VDW.0>
-1.83782

>  <SCORE.INTRA.norm>
0.0562009

>  <SCORE.RESTR>
0

>  <SCORE.RESTR.CAVITY>
0

>  <SCORE.RESTR.norm>
0

>  <SCORE.SYSTEM>
0

>  <SCORE.SYSTEM.CONST>
0

>  <SCORE.SYSTEM.DIHEDRAL>
0

>  <SCORE.SYSTEM.SOLV>
0

>  <SCORE.SYSTEM.norm>
0

>  <SCORE.heavy>
22

>  <SCORE.norm>
-0.343753

>  <RMSD>
12.438

$$$$
ligand
 OpenBabel11021811513D
libRbt.so/2013.1/901 2013/11/27
 22 23  0  0  0  0  0  0  0  0999 V2000
  -35.7096    7.4100  -20.7388 N   0  0  0  0  0  0  0  0  0  0  0  0
  -32.3999    7.9197  -20.2502 C   0  0  1  0  0  0  0  0  0  0  0  0
  -33.4283    7.2636  -21.0451 O   0  0  0  0  0  0  0  0  0  0  0  0
  -31.6995    4.7464  -18.3014 P   0  0  1  0  0  0  0  0  0  0  0  0
  -34.5791    8.1230  -21.0805 C   0  0  2  0  0  0  0  0  0  0  0  0
  -37.0683    6.1150  -19.6489 N   0  0  0  0  0  0  0  0  0  0  0  0
  -35.0894   10.3001  -20.2464 O   0  0  0  0  0  0  0  0  0  0  0  0
  -34.3539    9.0980  -19.9899 C   0  0  2  0  0  0  0  0  0  0  0  0
  -40.0586    7.3562  -21.0886 N   0  0  0  0  0  0  0  0  0  0  0  0
  -32.5087   10.1008  -21.1019 O   0  0  0  0  0  0  0  0  0  0  0  0
  -32.9081    9.2841  -19.9885 C   0  0  2  0  0  0  0  0  0  0  0  0
  -37.7229    6.6108  -20.7102 C   0  0  0  0  0  0  0  0  0  0  0  0
  -37.1795    8.1663  -22.5673 N   0  0  0  0  0  0  0  0  0  0  0  0
  -31.9064    5.8546  -19.3912 O   0  0  0  0  0  0  0  0  0  0  0  0
  -32.2565    7.1389  -18.9893 C   0  0  0  0  0  0  0  0  0  0  0  0
  -31.5559    3.4310  -19.1497 O   0  0  0  0  0  0  0  0  0  0  0  0
  -35.8156    6.6085  -19.6726 C   0  0  0  0  0  0  0  0  0  0  0  0
  -39.4725    5.1706  -21.3443 O   0  0  0  0  0  0  0  0  0  0  0  0
  -39.1223    6.3189  -21.0723 C   0  0  0  0  0  0  0  0  0  0  0  0
  -36.8748    7.4297  -21.3998 C   0  0  0  0  0  0  0  0  0  0  0  0
  -30.5076    5.0790  -17.4667 O   0  5  0  0  0  0  0  0  0  0  0  0
  -32.7813    4.7891  -17.3011 O   0  0  0  0  0  0  0  0  0  0  0  0
  1 17  1  0  0  0  0
  1 20  1  0  0  0  0
  2 15  1  1  0  0  0
  2  3  1  0  0  0  0
  2 11  1  0  0  0  0
  3  5  1  0  0  0  0
  4 16  1  6  0  0  0
  4 21  1  0  0  0  0
  4 22  2  0  0  0  0
  4 14  1  0  0  0  0
  5  1  1  1  0  0  0
  5  8  1  0  0  0  0
  6 17  2  0  0  0  0
  6 12  1  0  0  0  0
  8  7  1  6  0  0  0
  8 11  1  0  0  0  0
  9 19  1  0  0  0  0
 11 10  1  6  0  0  0
 12 20  2  0  0  0  0
 12 19  1  0  0  0  0
 13 20  1  0  0  0  0
 14 15  1  0  0  0  0
 18 19  2  0  0  0  0
M  CHG  1  21  -1
M  END
>  <CHROM.1>
48.63978221,59.08764951,171.12707655,-178.82810264,117.20861725,-34.49912363
6.85989490,-19.98153843,-2.78795334,0.27300832,2.77093332

>  <Name>
ligand

>  <RI>
0

>  <Rbt.Current_Directory>
/home/itssahil/PROJECTS/Mol_Feturizer/New_Systems/rnas/4XWF

>  <Rbt.Executable>
rbdock ($Id: //depot/dev/client3/rdock/2013.1/src/exe/rbdock.cxx#4 $)

>  <Rbt.Library>
libRbt.so (2013.1, Build901 2013/11/27)

>  <Rbt.Parameter_File>
/export/apps/rDock/src/rDock_2013.1_src/data/scripts/dock_solv.prm

>  <Rbt.Receptor>
prm/blind_docking_100.prm

>  <SCORE>
-8.32265

>  <SCORE.INTER>
-7.1782

>  <SCORE.INTER.CONST>
1

>  <SCORE.INTER.POLAR>
0

>  <SCORE.INTER.ROT>
5

>  <SCORE.INTER.SOLV>
8.28639

>  <SCORE.INTER.VDW>
-14.4809

>  <SCORE.INTER.norm>
-0.326282

>  <SCORE.INTRA>
-1.14446

>  <SCORE.INTRA.DIHEDRAL>
-1.82606

>  <SCORE.INTRA.DIHEDRAL.0>
3.49807

>  <SCORE.INTRA.POLAR>
0

>  <SCORE.INTRA.POLAR.0>
0

>  <SCORE.INTRA.REPUL>
0

>  <SCORE.INTRA.REPUL.0>
0

>  <SCORE.INTRA.SOLV>
0.114569

>  <SCORE.INTRA.SOLV.lig_0>
-73.062

>  <SCORE.INTRA.VDW>
-0.288713

>  <SCORE.INTRA.VDW.0>
-1.83782

>  <SCORE.INTRA.norm>
-0.0520207

>  <SCORE.RESTR>
0

>  <SCORE.RESTR.CAVITY>
0

>  <SCORE.RESTR.norm>
0

>  <SCORE.SYSTEM>
0

>  <SCORE.SYSTEM.CONST>
0

>  <SCORE.SYSTEM.DIHEDRAL>
0

>  <SCORE.SYSTEM.SOLV>
0

>  <SCORE.SYSTEM.norm>
0

>  <SCORE.heavy>
22

>  <SCORE.norm>
-0.378302

>  <RMSD>
12.447

$$$$
ligand
 OpenBabel11021811513D
libRbt.so/2013.1/901 2013/11/27
 22 23  0  0  0  0  0  0  0  0999 V2000
  -37.0765    0.5626  -18.9942 N   0  0  0  0  0  0  0  0  0  0  0  0
  -35.3846    2.3820  -21.2919 C   0  0  1  0  0  0  0  0  0  0  0  0
  -35.5600    1.0864  -20.6512 O   0  0  0  0  0  0  0  0  0  0  0  0
  -33.6363    5.5937  -20.3244 P   0  0  1  0  0  0  0  0  0  0  0  0
  -36.9493    0.9411  -20.3147 C   0  0  2  0  0  0  0  0  0  0  0  0
  -37.5851    0.6117  -16.8847 N   0  0  0  0  0  0  0  0  0  0  0  0
  -38.9162    2.2500  -20.6520 O   0  0  0  0  0  0  0  0  0  0  0  0
  -37.5051    2.3093  -20.4132 C   0  0  2  0  0  0  0  0  0  0  0  0
  -35.5699   -2.2552  -16.0689 N   0  0  0  0  0  0  0  0  0  0  0  0
  -37.2047    2.3937  -22.7689 O   0  0  0  0  0  0  0  0  0  0  0  0
  -36.7500    2.9091  -21.5064 C   0  0  2  0  0  0  0  0  0  0  0  0
  -37.0481   -0.5871  -17.1584 C   0  0  0  0  0  0  0  0  0  0  0  0
  -36.1613   -1.7183  -19.1827 N   0  0  0  0  0  0  0  0  0  0  0  0
  -34.2727    4.3726  -21.0744 O   0  0  0  0  0  0  0  0  0  0  0  0
  -34.6113    3.2365  -20.3475 C   0  0  0  0  0  0  0  0  0  0  0  0
  -34.8456    6.1881  -19.5153 O   0  0  0  0  0  0  0  0  0  0  0  0
  -37.5960    1.3264  -18.0260 C   0  0  0  0  0  0  0  0  0  0  0  0
  -37.7683   -2.0910  -15.4980 O   0  0  0  0  0  0  0  0  0  0  0  0
  -36.8369   -1.6778  -16.1886 C   0  0  0  0  0  0  0  0  0  0  0  0
  -36.7281   -0.6267  -18.4856 C   0  0  0  0  0  0  0  0  0  0  0  0
  -32.4961    5.1269  -19.4817 O   0  5  0  0  0  0  0  0  0  0  0  0
  -32.9534    6.4914  -21.2733 O   0  0  0  0  0  0  0  0  0  0  0  0
  1 17  1  0  0  0  0
  1 20  1  0  0  0  0
  2 15  1  1  0  0  0
  2  3  1  0  0  0  0
  2 11  1  0  0  0  0
  3  5  1  0  0  0  0
  4 16  1  1  0  0  0
  4 21  1  0  0  0  0
  4 22  2  0  0  0  0
  4 14  1  0  0  0  0
  5  1  1  1  0  0  0
  5  8  1  0  0  0  0
  6 17  2  0  0  0  0
  6 12  1  0  0  0  0
  8  7  1  6  0  0  0
  8 11  1  0  0  0  0
  9 19  1  0  0  0  0
 11 10  1  6  0  0  0
 12 20  2  0  0  0  0
 12 19  1  0  0  0  0
 13 20  1  0  0  0  0
 14 15  1  0  0  0  0
 18 19  2  0  0  0  0
M  CHG  1  21  -1
M  END
>  <CHROM.1>
112.24689306,170.32289369,-72.34369374,170.74965925,-127.19801811,-35.88260384
2.08094835,-19.48176094,2.10589709,0.70523404,2.27118234

>  <Name>
ligand

>  <RI>
0

>  <Rbt.Current_Directory>
/home/itssahil/PROJECTS/Mol_Feturizer/New_Systems/rnas/4XWF

>  <Rbt.Executable>
rbdock ($Id: //depot/dev/client3/rdock/2013.1/src/exe/rbdock.cxx#4 $)

>  <Rbt.Library>
libRbt.so (2013.1, Build901 2013/11/27)

>  <Rbt.Parameter_File>
/export/apps/rDock/src/rDock_2013.1_src/data/scripts/dock_solv.prm

>  <Rbt.Receptor>
prm/blind_docking_60.prm

>  <SCORE>
-7.95971

>  <SCORE.INTER>
-9.44431

>  <SCORE.INTER.CONST>
1

>  <SCORE.INTER.POLAR>
0

>  <SCORE.INTER.ROT>
5

>  <SCORE.INTER.SOLV>
15.1317

>  <SCORE.INTER.VDW>
-18.2734

>  <SCORE.INTER.norm>
-0.429287

>  <SCORE.INTRA>
1.4846

>  <SCORE.INTRA.DIHEDRAL>
-0.898457

>  <SCORE.INTRA.DIHEDRAL.0>
3.49807

>  <SCORE.INTRA.POLAR>
0

>  <SCORE.INTRA.POLAR.0>
0

>  <SCORE.INTRA.REPUL>
0

>  <SCORE.INTRA.REPUL.0>
0

>  <SCORE.INTRA.SOLV>
-0.446122

>  <SCORE.INTRA.SOLV.lig_0>
-73.062

>  <SCORE.INTRA.VDW>
2.15689

>  <SCORE.INTRA.VDW.0>
-1.83782

>  <SCORE.INTRA.norm>
0.0674819

>  <SCORE.RESTR>
0

>  <SCORE.RESTR.CAVITY>
0

>  <SCORE.RESTR.norm>
0

>  <SCORE.SYSTEM>
0

>  <SCORE.SYSTEM.CONST>
0

>  <SCORE.SYSTEM.DIHEDRAL>
0

>  <SCORE.SYSTEM.SOLV>
0

>  <SCORE.SYSTEM.norm>
0

>  <SCORE.heavy>
22

>  <SCORE.norm>
-0.361805

>  <RMSD>
12.454

$$$$
ligand
 OpenBabel11021811513D
libRbt.so/2013.1/901 2013/11/27
 22 23  0  0  0  0  0  0  0  0999 V2000
  -32.3613    8.1437  -19.4623 N   0  0  0  0  0  0  0  0  0  0  0  0
  -32.2395    4.7910  -19.9061 C   0  0  1  0  0  0  0  0  0  0  0  0
  -31.7600    6.0962  -20.3377 O   0  0  0  0  0  0  0  0  0  0  0  0
  -35.0989    2.6819  -21.2198 P   0  0  1  0  0  0  0  0  0  0  0  0
  -31.7151    6.9562  -19.1875 C   0  0  2  0  0  0  0  0  0  0  0  0
  -32.7021   10.2456  -19.8828 N   0  0  0  0  0  0  0  0  0  0  0  0
  -32.1403    6.6832  -16.8550 O   0  0  0  0  0  0  0  0  0  0  0  0
  -32.5319    6.2620  -18.1669 C   0  0  2  0  0  0  0  0  0  0  0  0
  -35.9528    9.7625  -21.2975 N   0  0  0  0  0  0  0  0  0  0  0  0
  -30.9752    4.4788  -17.9571 O   0  0  0  0  0  0  0  0  0  0  0  0
  -32.2814    4.8500  -18.4286 C   0  0  2  0  0  0  0  0  0  0  0  0
  -33.8827    9.6103  -19.9388 C   0  0  0  0  0  0  0  0  0  0  0  0
  -34.6565    7.2676  -19.6622 N   0  0  0  0  0  0  0  0  0  0  0  0
  -33.7875    3.2356  -20.5623 O   0  0  0  0  0  0  0  0  0  0  0  0
  -33.6009    4.6114  -20.4844 C   0  0  0  0  0  0  0  0  0  0  0  0
  -34.8082    1.1436  -21.3604 O   0  0  0  0  0  0  0  0  0  0  0  0
  -31.7592    9.3328  -19.5805 C   0  0  0  0  0  0  0  0  0  0  0  0
  -35.5915   11.1816  -19.5536 O   0  0  0  0  0  0  0  0  0  0  0  0
  -35.1851   10.2375  -20.2307 C   0  0  0  0  0  0  0  0  0  0  0  0
  -33.6758    8.2857  -19.6781 C   0  0  0  0  0  0  0  0  0  0  0  0
  -36.2718    3.0150  -20.3589 O   0  5  0  0  0  0  0  0  0  0  0  0
  -35.4182    3.4234  -22.4531 O   0  0  0  0  0  0  0  0  0  0  0  0
  1 17  1  0  0  0  0
  1 20  1  0  0  0  0
  2 15  1  6  0  0  0
  2  3  1  0  0  0  0
  2 11  1  0  0  0  0
  3  5  1  0  0  0  0
  4 16  1  6  0  0  0
  4 21  1  0  0  0  0
  4 22  2  0  0  0  0
  4 14  1  0  0  0  0
  5  1  1  6  0  0  0
  5  8  1  0  0  0  0
  6 17  2  0  0  0  0
  6 12  1  0  0  0  0
  8  7  1  1  0  0  0
  8 11  1  0  0  0  0
  9 19  1  0  0  0  0
 11 10  1  1  0  0  0
 12 20  2  0  0  0  0
 12 19  1  0  0  0  0
 13 20  1  0  0  0  0
 14 15  1  0  0  0  0
 18 19  2  0  0  0  0
M  CHG  1  21  -1
M  END
>  <CHROM.1>
-111.30677127,155.21186263,169.71060296,-176.12046134,123.38549474,-33.67114695
6.13583404,-19.92972113,-1.42573357,0.59020228,-3.03999424

>  <Name>
ligand

>  <RI>
0

>  <Rbt.Current_Directory>
/home/itssahil/PROJECTS/Mol_Feturizer/New_Systems/rnas/4XWF

>  <Rbt.Executable>
rbdock ($Id: //depot/dev/client3/rdock/2013.1/src/exe/rbdock.cxx#4 $)

>  <Rbt.Library>
libRbt.so (2013.1, Build901 2013/11/27)

>  <Rbt.Parameter_File>
/export/apps/rDock/src/rDock_2013.1_src/data/scripts/dock_solv.prm

>  <Rbt.Receptor>
prm/blind_docking_80.prm

>  <SCORE>
-6.87051

>  <SCORE.INTER>
-9.75024

>  <SCORE.INTER.CONST>
1

>  <SCORE.INTER.POLAR>
0

>  <SCORE.INTER.ROT>
5

>  <SCORE.INTER.SOLV>
12.7609

>  <SCORE.INTER.VDW>
-17.6871

>  <SCORE.INTER.norm>
-0.443193

>  <SCORE.INTRA>
2.87974

>  <SCORE.INTRA.DIHEDRAL>
0.161404

>  <SCORE.INTRA.DIHEDRAL.0>
3.49807

>  <SCORE.INTRA.POLAR>
0

>  <SCORE.INTRA.POLAR.0>
0

>  <SCORE.INTRA.REPUL>
0

>  <SCORE.INTRA.REPUL.0>
0

>  <SCORE.INTRA.SOLV>
4.97841

>  <SCORE.INTRA.SOLV.lig_0>
-73.062

>  <SCORE.INTRA.VDW>
0.309831

>  <SCORE.INTRA.VDW.0>
-1.83782

>  <SCORE.INTRA.norm>
0.130897

>  <SCORE.RESTR>
0

>  <SCORE.RESTR.CAVITY>
0

>  <SCORE.RESTR.norm>
0

>  <SCORE.SYSTEM>
0

>  <SCORE.SYSTEM.CONST>
0

>  <SCORE.SYSTEM.DIHEDRAL>
0

>  <SCORE.SYSTEM.SOLV>
0

>  <SCORE.SYSTEM.norm>
0

>  <SCORE.heavy>
22

>  <SCORE.norm>
-0.312296

>  <RMSD>
12.483

$$$$
ligand
 OpenBabel11021811513D
libRbt.so/2013.1/901 2013/11/27
 22 23  0  0  0  0  0  0  0  0999 V2000
  -33.6863    6.5578  -20.2642 N   0  0  0  0  0  0  0  0  0  0  0  0
  -32.0746    3.8073  -19.1286 C   0  0  1  0  0  0  0  0  0  0  0  0
  -32.3796    4.6572  -20.2708 O   0  0  0  0  0  0  0  0  0  0  0  0
  -34.7929    1.4169  -20.2384 P   0  0  1  0  0  0  0  0  0  0  0  0
  -32.5102    6.0077  -19.7980 C   0  0  2  0  0  0  0  0  0  0  0  0
  -35.7827    6.7891  -20.7769 N   0  0  0  0  0  0  0  0  0  0  0  0
  -32.2522    7.0925  -17.6879 O   0  0  0  0  0  0  0  0  0  0  0  0
  -32.6609    5.8797  -18.3312 C   0  0  2  0  0  0  0  0  0  0  0  0
  -35.8185   10.3225  -20.8624 N   0  0  0  0  0  0  0  0  0  0  0  0
  -30.4372    5.0906  -18.0486 O   0  0  0  0  0  0  0  0  0  0  0  0
  -31.8279    4.7303  -17.9993 C   0  0  2  0  0  0  0  0  0  0  0  0
  -35.1532    7.9406  -21.0574 C   0  0  0  0  0  0  0  0  0  0  0  0
  -32.8302    8.7926  -20.8546 N   0  0  0  0  0  0  0  0  0  0  0  0
  -33.5031    2.2959  -20.0883 O   0  0  0  0  0  0  0  0  0  0  0  0
  -33.2717    2.9542  -18.8855 C   0  0  0  0  0  0  0  0  0  0  0  0
  -35.9558    2.4727  -20.1787 O   0  0  0  0  0  0  0  0  0  0  0  0
  -34.8675    5.9296  -20.2899 C   0  0  0  0  0  0  0  0  0  0  0  0
  -36.2827    9.1289  -22.7454 O   0  0  0  0  0  0  0  0  0  0  0  0
  -35.7809    9.1498  -21.6216 C   0  0  0  0  0  0  0  0  0  0  0  0
  -33.8333    7.8037  -20.7343 C   0  0  0  0  0  0  0  0  0  0  0  0
  -34.7259    0.6397  -21.5109 O   0  5  0  0  0  0  0  0  0  0  0  0
  -34.8095    0.3379  -19.2343 O   0  0  0  0  0  0  0  0  0  0  0  0
  1 17  1  0  0  0  0
  1 20  1  0  0  0  0
  2 15  1  1  0  0  0
  2  3  1  0  0  0  0
  2 11  1  0  0  0  0
  3  5  1  0  0  0  0
  4 16  1  1  0  0  0
  4 21  1  0  0  0  0
  4 22  2  0  0  0  0
  4 14  1  0  0  0  0
  5  1  1  6  0  0  0
  5  8  1  0  0  0  0
  6 17  2  0  0  0  0
  6 12  1  0  0  0  0
  8  7  1  1  0  0  0
  8 11  1  0  0  0  0
  9 19  1  0  0  0  0
 11 10  1  6  0  0  0
 12 20  2  0  0  0  0
 12 19  1  0  0  0  0
 13 20  1  0  0  0  0
 14 15  1  0  0  0  0
 18 19  2  0  0  0  0
M  CHG  1  21  -1
M  END
>  <CHROM.1>
43.17171408,56.08438374,66.56872849,-173.64209655,115.71740258,-33.91197555
5.11501794,-20.02841699,-1.68147259,0.61030387,3.04919406

>  <Name>
ligand

>  <RI>
0

>  <Rbt.Current_Directory>
/home/itssahil/PROJECTS/Mol_Feturizer/New_Systems/rnas/4XWF

>  <Rbt.Executable>
rbdock ($Id: //depot/dev/client3/rdock/2013.1/src/exe/rbdock.cxx#4 $)

>  <Rbt.Library>
libRbt.so (2013.1, Build901 2013/11/27)

>  <Rbt.Parameter_File>
/export/apps/rDock/src/rDock_2013.1_src/data/scripts/dock_solv.prm

>  <Rbt.Receptor>
prm/blind_docking_100.prm

>  <SCORE>
-8.81668

>  <SCORE.INTER>
-7.25397

>  <SCORE.INTER.CONST>
1

>  <SCORE.INTER.POLAR>
0

>  <SCORE.INTER.ROT>
5

>  <SCORE.INTER.SOLV>
14.7675

>  <SCORE.INTER.VDW>
-16.6918

>  <SCORE.INTER.norm>
-0.329726

>  <SCORE.INTRA>
-1.56271

>  <SCORE.INTRA.DIHEDRAL>
-1.7035

>  <SCORE.INTRA.DIHEDRAL.0>
3.49807

>  <SCORE.INTRA.POLAR>
0

>  <SCORE.INTRA.POLAR.0>
0

>  <SCORE.INTRA.REPUL>
0

>  <SCORE.INTRA.REPUL.0>
0

>  <SCORE.INTRA.SOLV>
-0.377144

>  <SCORE.INTRA.SOLV.lig_0>
-73.062

>  <SCORE.INTRA.VDW>
-0.522388

>  <SCORE.INTRA.VDW.0>
-1.83782

>  <SCORE.INTRA.norm>
-0.0710322

>  <SCORE.RESTR>
0

>  <SCORE.RESTR.CAVITY>
0

>  <SCORE.RESTR.norm>
0

>  <SCORE.SYSTEM>
0

>  <SCORE.SYSTEM.CONST>
0

>  <SCORE.SYSTEM.DIHEDRAL>
0

>  <SCORE.SYSTEM.SOLV>
0

>  <SCORE.SYSTEM.norm>
0

>  <SCORE.heavy>
22

>  <SCORE.norm>
-0.400758

>  <RMSD>
12.543

$$$$
ligand
 OpenBabel11021811513D
libRbt.so/2013.1/901 2013/11/27
 22 23  0  0  0  0  0  0  0  0999 V2000
  -32.5013    6.6797  -20.3967 N   0  0  0  0  0  0  0  0  0  0  0  0
  -32.2902    3.5617  -19.0982 C   0  0  1  0  0  0  0  0  0  0  0  0
  -31.7235    4.5426  -20.0129 O   0  0  0  0  0  0  0  0  0  0  0  0
  -35.0930    1.0306  -19.4052 P   0  0  1  0  0  0  0  0  0  0  0  0
  -31.9356    5.8483  -19.4523 C   0  0  2  0  0  0  0  0  0  0  0  0
  -33.7943    7.4055  -21.9818 N   0  0  0  0  0  0  0  0  0  0  0  0
  -32.8732    6.6849  -17.4233 O   0  0  0  0  0  0  0  0  0  0  0  0
  -32.9618    5.6457  -18.4051 C   0  0  2  0  0  0  0  0  0  0  0  0
  -33.2140   10.8682  -21.3262 N   0  0  0  0  0  0  0  0  0  0  0  0
  -31.4954    4.3634  -17.0439 O   0  0  0  0  0  0  0  0  0  0  0  0
  -32.6620    4.3182  -17.8826 C   0  0  2  0  0  0  0  0  0  0  0  0
  -32.9937    8.4124  -21.6002 C   0  0  0  0  0  0  0  0  0  0  0  0
  -31.2042    8.7177  -19.9066 N   0  0  0  0  0  0  0  0  0  0  0  0
  -33.8718    1.9104  -18.9656 O   0  0  0  0  0  0  0  0  0  0  0  0
  -33.4877    2.9799  -19.7671 C   0  0  0  0  0  0  0  0  0  0  0  0
  -36.2995    2.0363  -19.3471 O   0  0  0  0  0  0  0  0  0  0  0  0
  -33.4820    6.3282  -21.2365 C   0  0  0  0  0  0  0  0  0  0  0  0
  -32.8138    9.9508  -23.3717 O   0  0  0  0  0  0  0  0  0  0  0  0
  -32.9926    9.7739  -22.1668 C   0  0  0  0  0  0  0  0  0  0  0  0
  -32.1786    7.9640  -20.6002 C   0  0  0  0  0  0  0  0  0  0  0  0
  -34.8340    0.4505  -20.7559 O   0  5  0  0  0  0  0  0  0  0  0  0
  -35.1872   -0.1842  -18.5757 O   0  0  0  0  0  0  0  0  0  0  0  0
  1 17  1  0  0  0  0
  1 20  1  0  0  0  0
  2 15  1  6  0  0  0
  2  3  1  0  0  0  0
  2 11  1  0  0  0  0
  3  5  1  0  0  0  0
  4 16  1  1  0  0  0
  4 21  1  0  0  0  0
  4 22  2  0  0  0  0
  4 14  1  0  0  0  0
  5  1  1  6  0  0  0
  5  8  1  0  0  0  0
  6 17  2  0  0  0  0
  6 12  1  0  0  0  0
  8  7  1  1  0  0  0
  8 11  1  0  0  0  0
  9 19  1  0  0  0  0
 11 10  1  1  0  0  0
 12 20  2  0  0  0  0
 12 19  1  0  0  0  0
 13 20  1  0  0  0  0
 14 15  1  0  0  0  0
 18 19  2  0  0  0  0
M  CHG  1  21  -1
M  END
>  <CHROM.1>
42.28963652,170.82752404,-64.26953713,-178.07412221,122.23223424,-33.31290082
5.05471222,-19.86916477,-1.17477094,0.89486715,2.55070510

>  <Name>
ligand

>  <RI>
0

>  <Rbt.Current_Directory>
/home/itssahil/PROJECTS/Mol_Feturizer/New_Systems/rnas/4XWF

>  <Rbt.Executable>
rbdock ($Id: //depot/dev/client3/rdock/2013.1/src/exe/rbdock.cxx#4 $)

>  <Rbt.Library>
libRbt.so (2013.1, Build901 2013/11/27)

>  <Rbt.Parameter_File>
/export/apps/rDock/src/rDock_2013.1_src/data/scripts/dock_solv.prm

>  <Rbt.Receptor>
prm/blind_docking_80.prm

>  <SCORE>
-10.1386

>  <SCORE.INTER>
-8.96313

>  <SCORE.INTER.CONST>
1

>  <SCORE.INTER.POLAR>
0

>  <SCORE.INTER.ROT>
5

>  <SCORE.INTER.SOLV>
17.3444

>  <SCORE.INTER.VDW>
-18.6902

>  <SCORE.INTER.norm>
-0.407415

>  <SCORE.INTRA>
-1.17547

>  <SCORE.INTRA.DIHEDRAL>
-1.65852

>  <SCORE.INTRA.DIHEDRAL.0>
3.49807

>  <SCORE.INTRA.POLAR>
0

>  <SCORE.INTRA.POLAR.0>
0

>  <SCORE.INTRA.REPUL>
0

>  <SCORE.INTRA.REPUL.0>
0

>  <SCORE.INTRA.SOLV>
-0.266829

>  <SCORE.INTRA.SOLV.lig_0>
-73.062

>  <SCORE.INTRA.VDW>
-0.212792

>  <SCORE.INTRA.VDW.0>
-1.83782

>  <SCORE.INTRA.norm>
-0.0534304

>  <SCORE.RESTR>
0

>  <SCORE.RESTR.CAVITY>
0

>  <SCORE.RESTR.norm>
0

>  <SCORE.SYSTEM>
0

>  <SCORE.SYSTEM.CONST>
0

>  <SCORE.SYSTEM.DIHEDRAL>
0

>  <SCORE.SYSTEM.SOLV>
0

>  <SCORE.SYSTEM.norm>
0

>  <SCORE.heavy>
22

>  <SCORE.norm>
-0.460845

>  <RMSD>
12.569

$$$$
ligand
 OpenBabel11021811513D
libRbt.so/2013.1/901 2013/11/27
 22 23  0  0  0  0  0  0  0  0999 V2000
  -36.6813    6.5503  -20.7730 N   0  0  0  0  0  0  0  0  0  0  0  0
  -33.3119    6.8261  -20.6197 C   0  0  1  0  0  0  0  0  0  0  0  0
  -34.4550    5.9513  -20.8388 O   0  0  0  0  0  0  0  0  0  0  0  0
  -32.0957    5.7852  -17.2067 P   0  0  1  0  0  0  0  0  0  0  0  0
  -35.4958    6.7256  -21.4564 C   0  0  2  0  0  0  0  0  0  0  0  0
  -38.0896    6.2545  -19.1481 N   0  0  0  0  0  0  0  0  0  0  0  0
  -35.6952    8.9724  -22.2361 O   0  0  0  0  0  0  0  0  0  0  0  0
  -35.0940    8.1340  -21.2424 C   0  0  2  0  0  0  0  0  0  0  0  0
  -40.9391    7.4623  -20.9022 N   0  0  0  0  0  0  0  0  0  0  0  0
  -33.2100    7.9427  -22.6781 O   0  0  0  0  0  0  0  0  0  0  0  0
  -33.6386    8.0907  -21.3141 C   0  0  2  0  0  0  0  0  0  0  0  0
  -38.7865    6.3941  -20.2863 C   0  0  0  0  0  0  0  0  0  0  0  0
  -38.2325    6.7949  -22.6729 N   0  0  0  0  0  0  0  0  0  0  0  0
  -32.6975    5.8235  -18.6541 O   0  0  0  0  0  0  0  0  0  0  0  0
  -33.1896    7.0266  -19.1483 C   0  0  0  0  0  0  0  0  0  0  0  0
  -33.2793    5.2197  -16.3407 O   0  0  0  0  0  0  0  0  0  0  0  0
  -36.7814    6.3458  -19.4544 C   0  0  0  0  0  0  0  0  0  0  0  0
  -40.8814    5.3458  -20.0641 O   0  0  0  0  0  0  0  0  0  0  0  0
  -40.2554    6.3483  -20.4077 C   0  0  0  0  0  0  0  0  0  0  0  0
  -37.9066    6.5838  -21.3135 C   0  0  0  0  0  0  0  0  0  0  0  0
  -30.8633    4.9432  -17.1972 O   0  5  0  0  0  0  0  0  0  0  0  0
  -31.5550    7.1038  -16.8306 O   0  0  0  0  0  0  0  0  0  0  0  0
  1 17  1  0  0  0  0
  1 20  1  0  0  0  0
  2 15  1  1  0  0  0
  2  3  1  0  0  0  0
  2 11  1  0  0  0  0
  3  5  1  0  0  0  0
  4 16  1  1  0  0  0
  4 21  1  0  0  0  0
  4 22  2  0  0  0  0
  4 14  1  0  0  0  0
  5  1  1  1  0  0  0
  5  8  1  0  0  0  0
  6 17  2  0  0  0  0
  6 12  1  0  0  0  0
  8  7  1  6  0  0  0
  8 11  1  0  0  0  0
  9 19  1  0  0  0  0
 11 10  1  6  0  0  0
 12 20  2  0  0  0  0
 12 19  1  0  0  0  0
 13 20  1  0  0  0  0
 14 15  1  0  0  0  0
 18 19  2  0  0  0  0
M  CHG  1  21  -1
M  END
>  <CHROM.1>
32.99315139,73.23262197,98.77326378,164.25461141,119.68235525,-35.28866670
6.60386620,-19.83536621,-2.73049985,0.12626940,2.04880047

>  <Name>
ligand

>  <RI>
0

>  <Rbt.Current_Directory>
/home/itssahil/PROJECTS/Mol_Feturizer/New_Systems/rnas/4XWF

>  <Rbt.Executable>
rbdock ($Id: //depot/dev/client3/rdock/2013.1/src/exe/rbdock.cxx#4 $)

>  <Rbt.Library>
libRbt.so (2013.1, Build901 2013/11/27)

>  <Rbt.Parameter_File>
/export/apps/rDock/src/rDock_2013.1_src/data/scripts/dock_solv.prm

>  <Rbt.Receptor>
prm/blind_docking_100.prm

>  <SCORE>
-7.21949

>  <SCORE.INTER>
-7.80276

>  <SCORE.INTER.CONST>
1

>  <SCORE.INTER.POLAR>
0

>  <SCORE.INTER.ROT>
5

>  <SCORE.INTER.SOLV>
9.13121

>  <SCORE.INTER.VDW>
-15.1789

>  <SCORE.INTER.norm>
-0.354671

>  <SCORE.INTRA>
0.575502

>  <SCORE.INTRA.DIHEDRAL>
1.38092

>  <SCORE.INTRA.DIHEDRAL.0>
3.49807

>  <SCORE.INTRA.POLAR>
0

>  <SCORE.INTRA.POLAR.0>
0

>  <SCORE.INTRA.REPUL>
0

>  <SCORE.INTRA.REPUL.0>
0

>  <SCORE.INTRA.SOLV>
0.221548

>  <SCORE.INTRA.SOLV.lig_0>
-73.062

>  <SCORE.INTRA.VDW>
-0.225731

>  <SCORE.INTRA.VDW.0>
-1.83782

>  <SCORE.INTRA.norm>
0.0261592

>  <SCORE.RESTR>
0.00776786

>  <SCORE.RESTR.CAVITY>
0.00776786

>  <SCORE.RESTR.norm>
0.000353084

>  <SCORE.SYSTEM>
0

>  <SCORE.SYSTEM.CONST>
0

>  <SCORE.SYSTEM.DIHEDRAL>
0

>  <SCORE.SYSTEM.SOLV>
0

>  <SCORE.SYSTEM.norm>
0

>  <SCORE.heavy>
22

>  <SCORE.norm>
-0.328159

>  <RMSD>
12.576

$$$$
ligand
 OpenBabel11021811513D
libRbt.so/2013.1/901 2013/11/27
 22 23  0  0  0  0  0  0  0  0999 V2000
  -33.3840    6.5365  -20.3054 N   0  0  0  0  0  0  0  0  0  0  0  0
  -32.1061    3.6113  -19.1817 C   0  0  1  0  0  0  0  0  0  0  0  0
  -32.2747    4.5144  -20.3113 O   0  0  0  0  0  0  0  0  0  0  0  0
  -34.8759    1.3240  -20.3868 P   0  0  1  0  0  0  0  0  0  0  0  0
  -32.2902    5.8596  -19.8069 C   0  0  2  0  0  0  0  0  0  0  0  0
  -35.4252    6.9966  -20.8823 N   0  0  0  0  0  0  0  0  0  0  0  0
  -32.0173    6.8627  -17.6586 O   0  0  0  0  0  0  0  0  0  0  0  0
  -32.5167    5.7129  -18.3515 C   0  0  2  0  0  0  0  0  0  0  0  0
  -35.0670   10.5150  -20.9419 N   0  0  0  0  0  0  0  0  0  0  0  0
  -30.3974    4.6969  -18.0001 O   0  0  0  0  0  0  0  0  0  0  0  0
  -31.8179    4.4778  -18.0179 C   0  0  2  0  0  0  0  0  0  0  0  0
  -34.6660    8.0743  -21.1328 C   0  0  0  0  0  0  0  0  0  0  0  0
  -32.2721    8.6681  -20.8493 N   0  0  0  0  0  0  0  0  0  0  0  0
  -33.5708    2.1720  -20.1963 O   0  0  0  0  0  0  0  0  0  0  0  0
  -33.3920    2.8780  -19.0116 C   0  0  0  0  0  0  0  0  0  0  0  0
  -34.6537    0.6314  -21.7801 O   0  0  0  0  0  0  0  0  0  0  0  0
  -34.6249    6.0404  -20.3738 C   0  0  0  0  0  0  0  0  0  0  0  0
  -35.6119    9.3854  -22.8427 O   0  0  0  0  0  0  0  0  0  0  0  0
  -35.1403    9.3474  -21.7063 C   0  0  0  0  0  0  0  0  0  0  0  0
  -33.3798    7.7933  -20.7693 C   0  0  0  0  0  0  0  0  0  0  0  0
  -35.0322    0.3786  -19.2424 O   0  5  0  0  0  0  0  0  0  0  0  0
  -36.0743    2.1690  -20.2371 O   0  0  0  0  0  0  0  0  0  0  0  0
  1 17  1  0  0  0  0
  1 20  1  0  0  0  0
  2 15  1  1  0  0  0
  2  3  1  0  0  0  0
  2 11  1  0  0  0  0
  3  5  1  0  0  0  0
  4 16  1  6  0  0  0
  4 21  1  0  0  0  0
  4 22  2  0  0  0  0
  4 14  1  0  0  0  0
  5  1  1  6  0  0  0
  5  8  1  0  0  0  0
  6 17  2  0  0  0  0
  6 12  1  0  0  0  0
  8  7  1  1  0  0  0
  8 11  1  0  0  0  0
  9 19  1  0  0  0  0
 11 10  1  6  0  0  0
 12 20  2  0  0  0  0
 12 19  1  0  0  0  0
 13 20  1  0  0  0  0
 14 15  1  0  0  0  0
 18 19  2  0  0  0  0
M  CHG  1  21  -1
M  END
>  <CHROM.1>
44.48965576,61.61155870,-176.69907832,-177.47043114,116.14179666,-33.72629705
5.05540934,-20.09580483,-1.56120799,0.64609531,2.99432310

>  <Name>
ligand

>  <RI>
0

>  <Rbt.Current_Directory>
/home/itssahil/PROJECTS/Mol_Feturizer/New_Systems/rnas/4XWF

>  <Rbt.Executable>
rbdock ($Id: //depot/dev/client3/rdock/2013.1/src/exe/rbdock.cxx#4 $)

>  <Rbt.Library>
libRbt.so (2013.1, Build901 2013/11/27)

>  <Rbt.Parameter_File>
/export/apps/rDock/src/rDock_2013.1_src/data/scripts/dock_solv.prm

>  <Rbt.Receptor>
prm/blind_docking_80.prm

>  <SCORE>
-10.3161

>  <SCORE.INTER>
-9.0532

>  <SCORE.INTER.CONST>
1

>  <SCORE.INTER.POLAR>
0

>  <SCORE.INTER.ROT>
5

>  <SCORE.INTER.SOLV>
10.3689

>  <SCORE.INTER.VDW>
-16.4251

>  <SCORE.INTER.norm>
-0.411509

>  <SCORE.INTRA>
-1.26549

>  <SCORE.INTRA.DIHEDRAL>
-1.94589

>  <SCORE.INTRA.DIHEDRAL.0>
3.49807

>  <SCORE.INTRA.POLAR>
0

>  <SCORE.INTRA.POLAR.0>
0

>  <SCORE.INTRA.REPUL>
0

>  <SCORE.INTRA.REPUL.0>
0

>  <SCORE.INTRA.SOLV>
0.235004

>  <SCORE.INTRA.SOLV.lig_0>
-73.062

>  <SCORE.INTRA.VDW>
-0.410042

>  <SCORE.INTRA.VDW.0>
-1.83782

>  <SCORE.INTRA.norm>
-0.0575221

>  <SCORE.RESTR>
0.00262148

>  <SCORE.RESTR.CAVITY>
0.00262148

>  <SCORE.RESTR.norm>
0.000119158

>  <SCORE.SYSTEM>
0

>  <SCORE.SYSTEM.CONST>
0

>  <SCORE.SYSTEM.DIHEDRAL>
0

>  <SCORE.SYSTEM.SOLV>
0

>  <SCORE.SYSTEM.norm>
0

>  <SCORE.heavy>
22

>  <SCORE.norm>
-0.468912

>  <RMSD>
12.591

$$$$
ligand
 OpenBabel11021811513D
libRbt.so/2013.1/901 2013/11/27
 22 23  0  0  0  0  0  0  0  0999 V2000
  -33.6236    6.4699  -20.2841 N   0  0  0  0  0  0  0  0  0  0  0  0
  -32.1420    3.6332  -19.1837 C   0  0  1  0  0  0  0  0  0  0  0  0
  -32.3968    4.5169  -20.3124 O   0  0  0  0  0  0  0  0  0  0  0  0
  -34.8728    1.2742  -20.3356 P   0  0  1  0  0  0  0  0  0  0  0  0
  -32.4774    5.8623  -19.8147 C   0  0  2  0  0  0  0  0  0  0  0  0
  -35.7017    6.7981  -20.8178 N   0  0  0  0  0  0  0  0  0  0  0  0
  -32.2018    6.8946  -17.6806 O   0  0  0  0  0  0  0  0  0  0  0  0
  -32.6521    5.7125  -18.3526 C   0  0  2  0  0  0  0  0  0  0  0  0
  -35.5964   10.3293  -20.8295 N   0  0  0  0  0  0  0  0  0  0  0  0
  -30.4669    4.8262  -18.0588 O   0  0  0  0  0  0  0  0  0  0  0  0
  -31.8718    4.5232  -18.0334 C   0  0  2  0  0  0  0  0  0  0  0  0
  -35.0217    7.9277  -21.0670 C   0  0  0  0  0  0  0  0  0  0  0  0
  -32.6684    8.6785  -20.8182 N   0  0  0  0  0  0  0  0  0  0  0  0
  -33.5860    2.1550  -20.1715 O   0  0  0  0  0  0  0  0  0  0  0  0
  -33.3765    2.8263  -18.9719 C   0  0  0  0  0  0  0  0  0  0  0  0
  -34.6710    0.6023  -21.7422 O   0  0  0  0  0  0  0  0  0  0  0  0
  -34.8292    5.8918  -20.3371 C   0  0  0  0  0  0  0  0  0  0  0  0
  -36.0740    9.1965  -22.7463 O   0  0  0  0  0  0  0  0  0  0  0  0
  -35.5915    9.1729  -21.6142 C   0  0  0  0  0  0  0  0  0  0  0  0
  -33.7129    7.7298  -20.7305 C   0  0  0  0  0  0  0  0  0  0  0  0
  -34.9721    0.3130  -19.1980 O   0  5  0  0  0  0  0  0  0  0  0  0
  -36.0887    2.0850  -20.1437 O   0  0  0  0  0  0  0  0  0  0  0  0
  1 17  1  0  0  0  0
  1 20  1  0  0  0  0
  2 15  1  1  0  0  0
  2  3  1  0  0  0  0
  2 11  1  0  0  0  0
  3  5  1  0  0  0  0
  4 16  1  6  0  0  0
  4 21  1  0  0  0  0
  4 22  2  0  0  0  0
  4 14  1  0  0  0  0
  5  1  1  6  0  0  0
  5  8  1  0  0  0  0
  6 17  2  0  0  0  0
  6 12  1  0  0  0  0
  8  7  1  1  0  0  0
  8 11  1  0  0  0  0
  9 19  1  0  0  0  0
 11 10  1  6  0  0  0
 12 20  2  0  0  0  0
 12 19  1  0  0  0  0
 13 20  1  0  0  0  0
 14 15  1  0  0  0  0
 18 19  2  0  0  0  0
M  CHG  1  21  -1
M  END
>  <CHROM.1>
43.12966764,58.65834849,-175.09712217,-175.95175947,115.42299834,-33.89216922
5.00234709,-20.06161326,-1.63331973,0.62011253,3.03677852

>  <Name>
ligand

>  <RI>
0

>  <Rbt.Current_Directory>
/home/itssahil/PROJECTS/Mol_Feturizer/New_Systems/rnas/4XWF

>  <Rbt.Executable>
rbdock ($Id: //depot/dev/client3/rdock/2013.1/src/exe/rbdock.cxx#4 $)

>  <Rbt.Library>
libRbt.so (2013.1, Build901 2013/11/27)

>  <Rbt.Parameter_File>
/export/apps/rDock/src/rDock_2013.1_src/data/scripts/dock_solv.prm

>  <Rbt.Receptor>
prm/blind_docking_80.prm

>  <SCORE>
-10.2656

>  <SCORE.INTER>
-9.07087

>  <SCORE.INTER.CONST>
1

>  <SCORE.INTER.POLAR>
0

>  <SCORE.INTER.ROT>
5

>  <SCORE.INTER.SOLV>
10.6705

>  <SCORE.INTER.VDW>
-16.5374

>  <SCORE.INTER.norm>
-0.412312

>  <SCORE.INTRA>
-1.19471

>  <SCORE.INTRA.DIHEDRAL>
-1.88553

>  <SCORE.INTRA.DIHEDRAL.0>
3.49807

>  <SCORE.INTRA.POLAR>
0

>  <SCORE.INTRA.POLAR.0>
0

>  <SCORE.INTRA.REPUL>
0

>  <SCORE.INTRA.REPUL.0>
0

>  <SCORE.INTRA.SOLV>
0.321503

>  <SCORE.INTRA.SOLV.lig_0>
-73.062

>  <SCORE.INTRA.VDW>
-0.412699

>  <SCORE.INTRA.VDW.0>
-1.83782

>  <SCORE.INTRA.norm>
-0.0543051

>  <SCORE.RESTR>
0

>  <SCORE.RESTR.CAVITY>
0

>  <SCORE.RESTR.norm>
0

>  <SCORE.SYSTEM>
0

>  <SCORE.SYSTEM.CONST>
0

>  <SCORE.SYSTEM.DIHEDRAL>
0

>  <SCORE.SYSTEM.SOLV>
0

>  <SCORE.SYSTEM.norm>
0

>  <SCORE.heavy>
22

>  <SCORE.norm>
-0.466617

>  <RMSD>
12.594

$$$$
ligand
 OpenBabel11021811513D
libRbt.so/2013.1/901 2013/11/27
 22 23  0  0  0  0  0  0  0  0999 V2000
  -33.4397    7.2877  -19.9102 N   0  0  0  0  0  0  0  0  0  0  0  0
  -32.5249    4.0311  -20.0115 C   0  0  1  0  0  0  0  0  0  0  0  0
  -32.4497    5.3390  -20.6467 O   0  0  0  0  0  0  0  0  0  0  0  0
  -35.0926    1.2477  -20.0247 P   0  0  1  0  0  0  0  0  0  0  0  0
  -32.4842    6.3376  -19.6142 C   0  0  2  0  0  0  0  0  0  0  0  0
  -35.3447    8.1927  -20.4229 N   0  0  0  0  0  0  0  0  0  0  0  0
  -32.5368    6.3013  -17.2284 O   0  0  0  0  0  0  0  0  0  0  0  0
  -32.9662    5.6198  -18.4128 C   0  0  2  0  0  0  0  0  0  0  0  0
  -34.0398   11.3825  -21.2708 N   0  0  0  0  0  0  0  0  0  0  0  0
  -30.9937    4.3036  -18.2577 O   0  0  0  0  0  0  0  0  0  0  0  0
  -32.3990    4.2849  -18.5596 C   0  0  2  0  0  0  0  0  0  0  0  0
  -34.4559    9.1764  -20.2153 C   0  0  0  0  0  0  0  0  0  0  0  0
  -32.0615    9.3031  -19.5716 N   0  0  0  0  0  0  0  0  0  0  0  0
  -33.8748    2.1983  -19.7567 O   0  0  0  0  0  0  0  0  0  0  0  0
  -33.8562    3.4549  -20.3518 C   0  0  0  0  0  0  0  0  0  0  0  0
  -34.8483    0.7581  -21.4982 O   0  0  0  0  0  0  0  0  0  0  0  0
  -34.7089    7.0200  -20.2386 C   0  0  0  0  0  0  0  0  0  0  0  0
  -35.5471   11.1615  -19.5782 O   0  0  0  0  0  0  0  0  0  0  0  0
  -34.7298   10.6214  -20.3234 C   0  0  0  0  0  0  0  0  0  0  0  0
  -33.2547    8.6144  -19.8890 C   0  0  0  0  0  0  0  0  0  0  0  0
  -35.1133    0.1581  -19.0048 O   0  5  0  0  0  0  0  0  0  0  0  0
  -36.3650    1.9373  -19.7454 O   0  0  0  0  0  0  0  0  0  0  0  0
  1 17  1  0  0  0  0
  1 20  1  0  0  0  0
  2 15  1  1  0  0  0
  2  3  1  0  0  0  0
  2 11  1  0  0  0  0
  3  5  1  0  0  0  0
  4 16  1  6  0  0  0
  4 21  1  0  0  0  0
  4 22  2  0  0  0  0
  4 14  1  0  0  0  0
  5  1  1  6  0  0  0
  5  8  1  0  0  0  0
  6 17  2  0  0  0  0
  6 12  1  0  0  0  0
  8  7  1  1  0  0  0
  8 11  1  0  0  0  0
  9 19  1  0  0  0  0
 11 10  1  6  0  0  0
 12 20  2  0  0  0  0
 12 19  1  0  0  0  0
 13 20  1  0  0  0  0
 14 15  1  0  0  0  0
 18 19  2  0  0  0  0
M  CHG  1  21  -1
M  END
>  <CHROM.1>
50.77395998,178.57541095,74.14320395,-174.42336681,-118.22090171,-33.85551289
5.46170541,-19.74884849,-1.49562602,0.46045517,3.08903077

>  <Name>
ligand

>  <RI>
0

>  <Rbt.Current_Directory>
/home/itssahil/PROJECTS/Mol_Feturizer/New_Systems/rnas/4XWF

>  <Rbt.Executable>
rbdock ($Id: //depot/dev/client3/rdock/2013.1/src/exe/rbdock.cxx#4 $)

>  <Rbt.Library>
libRbt.so (2013.1, Build901 2013/11/27)

>  <Rbt.Parameter_File>
/export/apps/rDock/src/rDock_2013.1_src/data/scripts/dock_solv.prm

>  <Rbt.Receptor>
prm/blind_docking_60.prm

>  <SCORE>
-10.7577

>  <SCORE.INTER>
-9.677

>  <SCORE.INTER.CONST>
1

>  <SCORE.INTER.POLAR>
0

>  <SCORE.INTER.ROT>
5

>  <SCORE.INTER.SOLV>
15.7336

>  <SCORE.INTER.VDW>
-18.6292

>  <SCORE.INTER.norm>
-0.439864

>  <SCORE.INTRA>
-1.08141

>  <SCORE.INTRA.DIHEDRAL>
-1.57691

>  <SCORE.INTRA.DIHEDRAL.0>
3.49807

>  <SCORE.INTRA.POLAR>
0

>  <SCORE.INTRA.POLAR.0>
0

>  <SCORE.INTRA.REPUL>
0

>  <SCORE.INTRA.REPUL.0>
0

>  <SCORE.INTRA.SOLV>
-0.495323

>  <SCORE.INTRA.SOLV.lig_0>
-73.062

>  <SCORE.INTRA.VDW>
-0.0452894

>  <SCORE.INTRA.VDW.0>
-1.83782

>  <SCORE.INTRA.norm>
-0.0491549

>  <SCORE.RESTR>
0.000741473

>  <SCORE.RESTR.CAVITY>
0.000741473

>  <SCORE.RESTR.norm>
3.37033e-05

>  <SCORE.SYSTEM>
0

>  <SCORE.SYSTEM.CONST>
0

>  <SCORE.SYSTEM.DIHEDRAL>
0

>  <SCORE.SYSTEM.SOLV>
0

>  <SCORE.SYSTEM.norm>
0

>  <SCORE.heavy>
22

>  <SCORE.norm>
-0.488985

>  <RMSD>
12.608

$$$$
ligand
 OpenBabel11021811513D
libRbt.so/2013.1/901 2013/11/27
 22 23  0  0  0  0  0  0  0  0999 V2000
  -33.3029    6.5639  -19.9575 N   0  0  0  0  0  0  0  0  0  0  0  0
  -33.0382    3.2431  -20.5529 C   0  0  1  0  0  0  0  0  0  0  0  0
  -33.0007    4.5882  -21.1087 O   0  0  0  0  0  0  0  0  0  0  0  0
  -35.8371    0.8376  -19.6960 P   0  0  1  0  0  0  0  0  0  0  0  0
  -32.4748    5.4703  -20.1038 C   0  0  2  0  0  0  0  0  0  0  0  0
  -35.0490    7.7703  -19.5029 N   0  0  0  0  0  0  0  0  0  0  0  0
  -31.6151    5.1944  -17.8946 O   0  0  0  0  0  0  0  0  0  0  0  0
  -32.5697    4.7020  -18.8422 C   0  0  2  0  0  0  0  0  0  0  0  0
  -35.3386   10.7019  -19.6219 N   0  0  0  0  0  0  0  0  0  0  0  0
  -30.9300    3.1275  -19.5347 O   0  0  0  0  0  0  0  0  0  0  0  0
  -32.3267    3.3263  -19.2586 C   0  0  2  0  0  0  0  0  0  0  0  0
  -34.0581    8.5928  -19.8798 C   0  0  0  0  0  0  0  0  0  0  0  0
  -31.6903    8.3227  -20.5757 N   0  0  0  0  0  0  0  0  0  0  0  0
  -34.4745    1.5360  -20.0340 O   0  0  0  0  0  0  0  0  0  0  0  0
  -34.4727    2.8865  -20.3656 C   0  0  0  0  0  0  0  0  0  0  0  0
  -36.2158    1.4472  -18.2976 O   0  0  0  0  0  0  0  0  0  0  0  0
  -34.5788    6.5096  -19.5580 C   0  0  0  0  0  0  0  0  0  0  0  0
  -33.1876   10.7235  -20.3693 O   0  0  0  0  0  0  0  0  0  0  0  0
  -34.1468   10.0619  -19.9726 C   0  0  0  0  0  0  0  0  0  0  0  0
  -32.9542    7.8407  -20.1647 C   0  0  0  0  0  0  0  0  0  0  0  0
  -36.8252    1.1128  -20.7803 O   0  5  0  0  0  0  0  0  0  0  0  0
  -35.7077   -0.6283  -19.7799 O   0  0  0  0  0  0  0  0  0  0  0  0
  1 17  1  0  0  0  0
  1 20  1  0  0  0  0
  2 15  1  1  0  0  0
  2  3  1  0  0  0  0
  2 11  1  0  0  0  0
  3  5  1  0  0  0  0
  4 16  1  1  0  0  0
  4 21  1  0  0  0  0
  4 22  2  0  0  0  0
  4 14  1  0  0  0  0
  5  1  1  1  0  0  0
  5  8  1  0  0  0  0
  6 17  2  0  0  0  0
  6 12  1  0  0  0  0
  8  7  1  1  0  0  0
  8 11  1  0  0  0  0
  9 19  1  0  0  0  0
 11 10  1  6  0  0  0
 12 20  2  0  0  0  0
 12 19  1  0  0  0  0
 13 20  1  0  0  0  0
 14 15  1  0  0  0  0
 18 19  2  0  0  0  0
M  CHG  1  21  -1
M  END
>  <CHROM.1>
62.15452341,171.06895918,-71.15863608,177.09220707,1.39921193,-33.93386452
4.80541008,-19.80078548,-1.35586476,0.06663002,3.10355102

>  <Name>
ligand

>  <RI>
0

>  <Rbt.Current_Directory>
/home/itssahil/PROJECTS/Mol_Feturizer/New_Systems/rnas/4XWF

>  <Rbt.Executable>
rbdock ($Id: //depot/dev/client3/rdock/2013.1/src/exe/rbdock.cxx#4 $)

>  <Rbt.Library>
libRbt.so (2013.1, Build901 2013/11/27)

>  <Rbt.Parameter_File>
/export/apps/rDock/src/rDock_2013.1_src/data/scripts/dock_solv.prm

>  <Rbt.Receptor>
prm/blind_docking_80.prm

>  <SCORE>
-11.0278

>  <SCORE.INTER>
-10.2161

>  <SCORE.INTER.CONST>
1

>  <SCORE.INTER.POLAR>
0

>  <SCORE.INTER.ROT>
5

>  <SCORE.INTER.SOLV>
15.2304

>  <SCORE.INTER.VDW>
-18.8209

>  <SCORE.INTER.norm>
-0.464367

>  <SCORE.INTRA>
-0.811743

>  <SCORE.INTRA.DIHEDRAL>
-1.4248

>  <SCORE.INTRA.DIHEDRAL.0>
3.49807

>  <SCORE.INTRA.POLAR>
0

>  <SCORE.INTRA.POLAR.0>
0

>  <SCORE.INTRA.REPUL>
0

>  <SCORE.INTRA.REPUL.0>
0

>  <SCORE.INTRA.SOLV>
-0.826556

>  <SCORE.INTRA.SOLV.lig_0>
-73.062

>  <SCORE.INTRA.VDW>
0.313936

>  <SCORE.INTRA.VDW.0>
-1.83782

>  <SCORE.INTRA.norm>
-0.0368974

>  <SCORE.RESTR>
0

>  <SCORE.RESTR.CAVITY>
0

>  <SCORE.RESTR.norm>
0

>  <SCORE.SYSTEM>
0

>  <SCORE.SYSTEM.CONST>
0

>  <SCORE.SYSTEM.DIHEDRAL>
0

>  <SCORE.SYSTEM.SOLV>
0

>  <SCORE.SYSTEM.norm>
0

>  <SCORE.heavy>
22

>  <SCORE.norm>
-0.501264

>  <RMSD>
12.620

$$$$
ligand
 OpenBabel11021811513D
libRbt.so/2013.1/901 2013/11/27
 22 23  0  0  0  0  0  0  0  0999 V2000
  -33.0878    6.5135  -20.5696 N   0  0  0  0  0  0  0  0  0  0  0  0
  -31.9723    3.7947  -18.8915 C   0  0  1  0  0  0  0  0  0  0  0  0
  -31.9862    4.5317  -20.1471 O   0  0  0  0  0  0  0  0  0  0  0  0
  -34.6402    1.4675  -20.2356 P   0  0  1  0  0  0  0  0  0  0  0  0
  -32.0714    5.9326  -19.8397 C   0  0  2  0  0  0  0  0  0  0  0  0
  -35.0094    6.8170  -21.5321 N   0  0  0  0  0  0  0  0  0  0  0  0
  -32.0945    7.2247  -17.8333 O   0  0  0  0  0  0  0  0  0  0  0  0
  -32.4939    5.9814  -18.4220 C   0  0  2  0  0  0  0  0  0  0  0  0
  -34.0006    9.5170  -23.5940 N   0  0  0  0  0  0  0  0  0  0  0  0
  -30.4413    5.0647  -17.6515 O   0  0  0  0  0  0  0  0  0  0  0  0
  -31.8460    4.8173  -17.8302 C   0  0  2  0  0  0  0  0  0  0  0  0
  -34.2712    7.9229  -21.7126 C   0  0  0  0  0  0  0  0  0  0  0  0
  -32.0015    8.6747  -21.0440 N   0  0  0  0  0  0  0  0  0  0  0  0
  -33.3314    2.2792  -19.9415 O   0  0  0  0  0  0  0  0  0  0  0  0
  -33.2687    3.0663  -18.7968 C   0  0  0  0  0  0  0  0  0  0  0  0
  -34.8094    0.5807  -18.9490 O   0  0  0  0  0  0  0  0  0  0  0  0
  -34.2693    5.9405  -20.8267 C   0  0  0  0  0  0  0  0  0  0  0  0
  -35.6418    9.8070  -22.0421 O   0  0  0  0  0  0  0  0  0  0  0  0
  -34.6948    9.1312  -22.4441 C   0  0  0  0  0  0  0  0  0  0  0  0
  -33.0608    7.7406  -21.1067 C   0  0  0  0  0  0  0  0  0  0  0  0
  -35.7690    2.4099  -20.4918 O   0  5  0  0  0  0  0  0  0  0  0  0
  -34.5412    0.7674  -21.5290 O   0  0  0  0  0  0  0  0  0  0  0  0
  1 17  1  0  0  0  0
  1 20  1  0  0  0  0
  2 15  1  1  0  0  0
  2  3  1  0  0  0  0
  2 11  1  0  0  0  0
  3  5  1  0  0  0  0
  4 16  1  1  0  0  0
  4 21  1  0  0  0  0
  4 22  2  0  0  0  0
  4 14  1  0  0  0  0
  5  1  1  6  0  0  0
  5  8  1  0  0  0  0
  6 17  2  0  0  0  0
  6 12  1  0  0  0  0
  8  7  1  1  0  0  0
  8 11  1  0  0  0  0
  9 19  1  0  0  0  0
 11 10  1  6  0  0  0
 12 20  2  0  0  0  0
 12 19  1  0  0  0  0
 13 20  1  0  0  0  0
 14 15  1  0  0  0  0
 18 19  2  0  0  0  0
M  CHG  1  21  -1
M  END
>  <CHROM.1>
38.75635419,57.06774696,-57.26092848,-174.42979910,-117.31835347,-33.49320221
5.13150149,-20.21275061,-1.53351001,0.75339431,2.85035465

>  <Name>
ligand

>  <RI>
0

>  <Rbt.Current_Directory>
/home/itssahil/PROJECTS/Mol_Feturizer/New_Systems/rnas/4XWF

>  <Rbt.Executable>
rbdock ($Id: //depot/dev/client3/rdock/2013.1/src/exe/rbdock.cxx#4 $)

>  <Rbt.Library>
libRbt.so (2013.1, Build901 2013/11/27)

>  <Rbt.Parameter_File>
/export/apps/rDock/src/rDock_2013.1_src/data/scripts/dock_solv.prm

>  <Rbt.Receptor>
prm/blind_docking_100.prm

>  <SCORE>
-8.86467

>  <SCORE.INTER>
-7.47791

>  <SCORE.INTER.CONST>
1

>  <SCORE.INTER.POLAR>
0

>  <SCORE.INTER.ROT>
5

>  <SCORE.INTER.SOLV>
15.2455

>  <SCORE.INTER.VDW>
-17.0005

>  <SCORE.INTER.norm>
-0.339905

>  <SCORE.INTRA>
-1.38675

>  <SCORE.INTRA.DIHEDRAL>
-1.82326

>  <SCORE.INTRA.DIHEDRAL.0>
3.49807

>  <SCORE.INTRA.POLAR>
0

>  <SCORE.INTRA.POLAR.0>
0

>  <SCORE.INTRA.REPUL>
0

>  <SCORE.INTRA.REPUL.0>
0

>  <SCORE.INTRA.SOLV>
-0.074485

>  <SCORE.INTRA.SOLV.lig_0>
-73.062

>  <SCORE.INTRA.VDW>
-0.437882

>  <SCORE.INTRA.VDW.0>
-1.83782

>  <SCORE.INTRA.norm>
-0.0630342

>  <SCORE.RESTR>
0

>  <SCORE.RESTR.CAVITY>
0

>  <SCORE.RESTR.norm>
0

>  <SCORE.SYSTEM>
0

>  <SCORE.SYSTEM.CONST>
0

>  <SCORE.SYSTEM.DIHEDRAL>
0

>  <SCORE.SYSTEM.SOLV>
0

>  <SCORE.SYSTEM.norm>
0

>  <SCORE.heavy>
22

>  <SCORE.norm>
-0.402939

>  <RMSD>
12.635

$$$$
ligand
 OpenBabel11021811513D
libRbt.so/2013.1/901 2013/11/27
 22 23  0  0  0  0  0  0  0  0999 V2000
  -36.9650    4.5340  -20.4297 N   0  0  0  0  0  0  0  0  0  0  0  0
  -33.6445    4.0905  -20.9089 C   0  0  1  0  0  0  0  0  0  0  0  0
  -34.7818    3.9153  -20.0169 O   0  0  0  0  0  0  0  0  0  0  0  0
  -32.6805    7.2102  -18.9881 P   0  0  1  0  0  0  0  0  0  0  0  0
  -35.9489    3.6880  -20.8235 C   0  0  2  0  0  0  0  0  0  0  0  0
  -38.0070    6.3077  -19.7375 N   0  0  0  0  0  0  0  0  0  0  0  0
  -36.3690    3.4553  -23.1612 O   0  0  0  0  0  0  0  0  0  0  0  0
  -35.5539    4.1140  -22.1848 C   0  0  2  0  0  0  0  0  0  0  0  0
  -40.8985    6.6735  -19.2805 N   0  0  0  0  0  0  0  0  0  0  0  0
  -33.9962    2.3351  -22.4220 O   0  0  0  0  0  0  0  0  0  0  0  0
  -34.1428    3.7560  -22.2610 C   0  0  2  0  0  0  0  0  0  0  0  0
  -38.9212    5.3631  -20.0067 C   0  0  0  0  0  0  0  0  0  0  0  0
  -38.8714    3.0307  -20.8559 N   0  0  0  0  0  0  0  0  0  0  0  0
  -33.0450    5.7601  -19.4600 O   0  0  0  0  0  0  0  0  0  0  0  0
  -33.2316    5.5191  -20.8168 C   0  0  0  0  0  0  0  0  0  0  0  0
  -32.7495    7.1059  -17.4213 O   0  0  0  0  0  0  0  0  0  0  0  0
  -36.7918    5.7877  -19.9955 C   0  0  0  0  0  0  0  0  0  0  0  0
  -41.1407    4.6076  -20.2074 O   0  0  0  0  0  0  0  0  0  0  0  0
  -40.3805    5.5081  -19.8520 C   0  0  0  0  0  0  0  0  0  0  0  0
  -38.2729    4.2441  -20.4460 C   0  0  0  0  0  0  0  0  0  0  0  0
  -31.3413    7.5917  -19.5257 O   0  5  0  0  0  0  0  0  0  0  0  0
  -33.5530    8.2055  -19.6368 O   0  0  0  0  0  0  0  0  0  0  0  0
  1 17  1  0  0  0  0
  1 20  1  0  0  0  0
  2 15  1  6  0  0  0
  2  3  1  0  0  0  0
  2 11  1  0  0  0  0
  3  5  1  0  0  0  0
  4 16  1  1  0  0  0
  4 21  1  0  0  0  0
  4 22  2  0  0  0  0
  4 14  1  0  0  0  0
  5  1  1  1  0  0  0
  5  8  1  0  0  0  0
  6 17  2  0  0  0  0
  6 12  1  0  0  0  0
  8  7  1  6  0  0  0
  8 11  1  0  0  0  0
  9 19  1  0  0  0  0
 11 10  1  1  0  0  0
 12 20  2  0  0  0  0
 12 19  1  0  0  0  0
 13 20  1  0  0  0  0
 14 15  1  0  0  0  0
 18 19  2  0  0  0  0
M  CHG  1  21  -1
M  END
>  <CHROM.1>
35.14505727,53.41320110,172.67653705,-176.49161636,-5.44682737,-35.68290522
5.25886663,-20.29783509,-2.85874928,0.06236613,0.67366714

>  <Name>
ligand

>  <RI>
0

>  <Rbt.Current_Directory>
/home/itssahil/PROJECTS/Mol_Feturizer/New_Systems/rnas/4XWF

>  <Rbt.Executable>
rbdock ($Id: //depot/dev/client3/rdock/2013.1/src/exe/rbdock.cxx#4 $)

>  <Rbt.Library>
libRbt.so (2013.1, Build901 2013/11/27)

>  <Rbt.Parameter_File>
/export/apps/rDock/src/rDock_2013.1_src/data/scripts/dock_solv.prm

>  <Rbt.Receptor>
prm/blind_docking_60.prm

>  <SCORE>
-7.38242

>  <SCORE.INTER>
-6.57359

>  <SCORE.INTER.CONST>
1

>  <SCORE.INTER.POLAR>
0

>  <SCORE.INTER.ROT>
5

>  <SCORE.INTER.SOLV>
14.3613

>  <SCORE.INTER.VDW>
-16.1028

>  <SCORE.INTER.norm>
-0.298799

>  <SCORE.INTRA>
-0.808831

>  <SCORE.INTRA.DIHEDRAL>
-1.67136

>  <SCORE.INTRA.DIHEDRAL.0>
3.49807

>  <SCORE.INTRA.POLAR>
0

>  <SCORE.INTRA.POLAR.0>
0

>  <SCORE.INTRA.REPUL>
0

>  <SCORE.INTRA.REPUL.0>
0

>  <SCORE.INTRA.SOLV>
0.536458

>  <SCORE.INTRA.SOLV.lig_0>
-73.062

>  <SCORE.INTRA.VDW>
-0.24138

>  <SCORE.INTRA.VDW.0>
-1.83782

>  <SCORE.INTRA.norm>
-0.036765

>  <SCORE.RESTR>
0

>  <SCORE.RESTR.CAVITY>
0

>  <SCORE.RESTR.norm>
0

>  <SCORE.SYSTEM>
0

>  <SCORE.SYSTEM.CONST>
0

>  <SCORE.SYSTEM.DIHEDRAL>
0

>  <SCORE.SYSTEM.SOLV>
0

>  <SCORE.SYSTEM.norm>
0

>  <SCORE.heavy>
22

>  <SCORE.norm>
-0.335564

>  <RMSD>
12.658

$$$$
ligand
 OpenBabel11021811513D
libRbt.so/2013.1/901 2013/11/27
 22 23  0  0  0  0  0  0  0  0999 V2000
  -32.4186    6.6107  -20.3715 N   0  0  0  0  0  0  0  0  0  0  0  0
  -32.3084    3.4874  -19.0735 C   0  0  1  0  0  0  0  0  0  0  0  0
  -31.7077    4.4509  -19.9849 O   0  0  0  0  0  0  0  0  0  0  0  0
  -34.5606    0.6568  -20.1971 P   0  0  1  0  0  0  0  0  0  0  0  0
  -31.8830    5.7623  -19.4247 C   0  0  2  0  0  0  0  0  0  0  0  0
  -33.6751    7.3725  -21.9690 N   0  0  0  0  0  0  0  0  0  0  0  0
  -32.8049    6.6262  -17.3999 O   0  0  0  0  0  0  0  0  0  0  0  0
  -32.9200    5.5905  -18.3826 C   0  0  2  0  0  0  0  0  0  0  0  0
  -33.6557   10.0507  -23.2022 N   0  0  0  0  0  0  0  0  0  0  0  0
  -31.4998    4.2640  -17.0149 O   0  0  0  0  0  0  0  0  0  0  0  0
  -32.6631    4.2543  -17.8593 C   0  0  2  0  0  0  0  0  0  0  0  0
  -32.8586    8.3601  -21.5711 C   0  0  0  0  0  0  0  0  0  0  0  0
  -31.0854    8.6180  -19.8526 N   0  0  0  0  0  0  0  0  0  0  0  0
  -33.4769    1.5702  -19.5261 O   0  0  0  0  0  0  0  0  0  0  0  0
  -33.5196    2.9422  -19.7485 C   0  0  0  0  0  0  0  0  0  0  0  0
  -34.1287   -0.7908  -19.7629 O   0  0  0  0  0  0  0  0  0  0  0  0
  -33.3954    6.2847  -21.2260 C   0  0  0  0  0  0  0  0  0  0  0  0
  -32.0534   10.5691  -21.6694 O   0  0  0  0  0  0  0  0  0  0  0  0
  -32.8214    9.7244  -22.1296 C   0  0  0  0  0  0  0  0  0  0  0  0
  -32.0663    7.8890  -20.5632 C   0  0  0  0  0  0  0  0  0  0  0  0
  -35.9190    1.0643  -19.7317 O   0  5  0  0  0  0  0  0  0  0  0  0
  -34.6504    0.9287  -21.6430 O   0  0  0  0  0  0  0  0  0  0  0  0
  1 17  1  0  0  0  0
  1 20  1  0  0  0  0
  2 15  1  6  0  0  0
  2  3  1  0  0  0  0
  2 11  1  0  0  0  0
  3  5  1  0  0  0  0
  4 16  1  1  0  0  0
  4 21  1  0  0  0  0
  4 22  2  0  0  0  0
  4 14  1  0  0  0  0
  5  1  1  6  0  0  0
  5  8  1  0  0  0  0
  6 17  2  0  0  0  0
  6 12  1  0  0  0  0
  8  7  1  1  0  0  0
  8 11  1  0  0  0  0
  9 19  1  0  0  0  0
 11 10  1  1  0  0  0
 12 20  2  0  0  0  0
 12 19  1  0  0  0  0
 13 20  1  0  0  0  0
 14 15  1  0  0  0  0
 18 19  2  0  0  0  0
M  CHG  1  21  -1
M  END
>  <CHROM.1>
41.52468034,135.97034516,177.44034037,-175.49428503,-2.60109943,-33.10899781
4.90335790,-20.07089231,-1.16437103,1.01226432,2.61680705

>  <Name>
ligand

>  <RI>
0

>  <Rbt.Current_Directory>
/home/itssahil/PROJECTS/Mol_Feturizer/New_Systems/rnas/4XWF

>  <Rbt.Executable>
rbdock ($Id: //depot/dev/client3/rdock/2013.1/src/exe/rbdock.cxx#4 $)

>  <Rbt.Library>
libRbt.so (2013.1, Build901 2013/11/27)

>  <Rbt.Parameter_File>
/export/apps/rDock/src/rDock_2013.1_src/data/scripts/dock_solv.prm

>  <Rbt.Receptor>
prm/blind_docking_80.prm

>  <SCORE>
-7.3681

>  <SCORE.INTER>
-8.50449

>  <SCORE.INTER.CONST>
1

>  <SCORE.INTER.POLAR>
0

>  <SCORE.INTER.ROT>
5

>  <SCORE.INTER.SOLV>
18.3472

>  <SCORE.INTER.VDW>
-18.7187

>  <SCORE.INTER.norm>
-0.386568

>  <SCORE.INTRA>
1.13639

>  <SCORE.INTRA.DIHEDRAL>
2.40434

>  <SCORE.INTRA.DIHEDRAL.0>
3.49807

>  <SCORE.INTRA.POLAR>
0

>  <SCORE.INTRA.POLAR.0>
0

>  <SCORE.INTRA.REPUL>
0

>  <SCORE.INTRA.REPUL.0>
0

>  <SCORE.INTRA.SOLV>
0.12983

>  <SCORE.INTRA.SOLV.lig_0>
-73.062

>  <SCORE.INTRA.VDW>
-0.130691

>  <SCORE.INTRA.VDW.0>
-1.83782

>  <SCORE.INTRA.norm>
0.0516543

>  <SCORE.RESTR>
0

>  <SCORE.RESTR.CAVITY>
0

>  <SCORE.RESTR.norm>
0

>  <SCORE.SYSTEM>
0

>  <SCORE.SYSTEM.CONST>
0

>  <SCORE.SYSTEM.DIHEDRAL>
0

>  <SCORE.SYSTEM.SOLV>
0

>  <SCORE.SYSTEM.norm>
0

>  <SCORE.heavy>
22

>  <SCORE.norm>
-0.334914

>  <RMSD>
12.660

$$$$
ligand
 OpenBabel11021811513D
libRbt.so/2013.1/901 2013/11/27
 22 23  0  0  0  0  0  0  0  0999 V2000
  -33.3110    6.6350  -19.9409 N   0  0  0  0  0  0  0  0  0  0  0  0
  -33.0743    3.3198  -20.5781 C   0  0  1  0  0  0  0  0  0  0  0  0
  -33.0247    4.6716  -21.1168 O   0  0  0  0  0  0  0  0  0  0  0  0
  -35.9001    0.9065  -19.8402 P   0  0  1  0  0  0  0  0  0  0  0  0
  -32.4922    5.5362  -20.1003 C   0  0  2  0  0  0  0  0  0  0  0  0
  -35.0343    7.8551  -19.4382 N   0  0  0  0  0  0  0  0  0  0  0  0
  -31.6371    5.2251  -17.8940 O   0  0  0  0  0  0  0  0  0  0  0  0
  -32.5949    4.7529  -18.8487 C   0  0  2  0  0  0  0  0  0  0  0  0
  -35.3455   10.7780  -19.6681 N   0  0  0  0  0  0  0  0  0  0  0  0
  -30.9682    3.1733  -19.5596 O   0  0  0  0  0  0  0  0  0  0  0  0
  -32.3633    3.3806  -19.2823 C   0  0  2  0  0  0  0  0  0  0  0  0
  -34.0576    8.6674  -19.8704 C   0  0  0  0  0  0  0  0  0  0  0  0
  -31.7209    8.3769  -20.6571 N   0  0  0  0  0  0  0  0  0  0  0  0
  -34.5230    1.6287  -20.0419 O   0  0  0  0  0  0  0  0  0  0  0  0
  -34.5120    2.9732  -20.3966 C   0  0  0  0  0  0  0  0  0  0  0  0
  -36.5837    1.0369  -21.2495 O   0  0  0  0  0  0  0  0  0  0  0  0
  -34.5697    6.5921  -19.4888 C   0  0  0  0  0  0  0  0  0  0  0  0
  -33.1812   10.7919  -20.3760 O   0  0  0  0  0  0  0  0  0  0  0  0
  -34.1466   10.1347  -19.9871 C   0  0  0  0  0  0  0  0  0  0  0  0
  -32.9681    7.9067  -20.1860 C   0  0  0  0  0  0  0  0  0  0  0  0
  -35.6696   -0.4980  -19.3906 O   0  5  0  0  0  0  0  0  0  0  0  0
  -36.6218    1.4711  -18.6857 O   0  0  0  0  0  0  0  0  0  0  0  0
  1 17  1  0  0  0  0
  1 20  1  0  0  0  0
  2 15  1  1  0  0  0
  2  3  1  0  0  0  0
  2 11  1  0  0  0  0
  3  5  1  0  0  0  0
  4 16  1  6  0  0  0
  4 21  1  0  0  0  0
  4 22  2  0  0  0  0
  4 14  1  0  0  0  0
  5  1  1  1  0  0  0
  5  8  1  0  0  0  0
  6 17  2  0  0  0  0
  6 12  1  0  0  0  0
  8  7  1  1  0  0  0
  8 11  1  0  0  0  0
  9 19  1  0  0  0  0
 11 10  1  6  0  0  0
 12 20  2  0  0  0  0
 12 19  1  0  0  0  0
 13 20  1  0  0  0  0
 14 15  1  0  0  0  0
 18 19  2  0  0  0  0
M  CHG  1  21  -1
M  END
>  <CHROM.1>
65.16147236,172.83777782,60.72935767,-176.97938296,-2.00688785,-33.95977517
4.86776749,-19.84317558,-1.35048676,0.08592941,3.10834416

>  <Name>
ligand

>  <RI>
0

>  <Rbt.Current_Directory>
/home/itssahil/PROJECTS/Mol_Feturizer/New_Systems/rnas/4XWF

>  <Rbt.Executable>
rbdock ($Id: //depot/dev/client3/rdock/2013.1/src/exe/rbdock.cxx#4 $)

>  <Rbt.Library>
libRbt.so (2013.1, Build901 2013/11/27)

>  <Rbt.Parameter_File>
/export/apps/rDock/src/rDock_2013.1_src/data/scripts/dock_solv.prm

>  <Rbt.Receptor>
prm/blind_docking_60.prm

>  <SCORE>
-10.6175

>  <SCORE.INTER>
-9.70689

>  <SCORE.INTER.CONST>
1

>  <SCORE.INTER.POLAR>
0

>  <SCORE.INTER.ROT>
5

>  <SCORE.INTER.SOLV>
15.5592

>  <SCORE.INTER.VDW>
-18.591

>  <SCORE.INTER.norm>
-0.441222

>  <SCORE.INTRA>
-0.910602

>  <SCORE.INTRA.DIHEDRAL>
-1.751

>  <SCORE.INTRA.DIHEDRAL.0>
3.49807

>  <SCORE.INTRA.POLAR>
0

>  <SCORE.INTRA.POLAR.0>
0

>  <SCORE.INTRA.REPUL>
0

>  <SCORE.INTRA.REPUL.0>
0

>  <SCORE.INTRA.SOLV>
-1.018

>  <SCORE.INTRA.SOLV.lig_0>
-73.062

>  <SCORE.INTRA.VDW>
0.473899

>  <SCORE.INTRA.VDW.0>
-1.83782

>  <SCORE.INTRA.norm>
-0.041391

>  <SCORE.RESTR>
0

>  <SCORE.RESTR.CAVITY>
0

>  <SCORE.RESTR.norm>
0

>  <SCORE.SYSTEM>
0

>  <SCORE.SYSTEM.CONST>
0

>  <SCORE.SYSTEM.DIHEDRAL>
0

>  <SCORE.SYSTEM.SOLV>
0

>  <SCORE.SYSTEM.norm>
0

>  <SCORE.heavy>
22

>  <SCORE.norm>
-0.482613

>  <RMSD>
12.662

$$$$
ligand
 OpenBabel11021811513D
libRbt.so/2013.1/901 2013/11/27
 22 23  0  0  0  0  0  0  0  0999 V2000
  -35.3602   -3.3979  -15.1432 N   0  0  0  0  0  0  0  0  0  0  0  0
  -35.2577   -6.2763  -16.9199 C   0  0  1  0  0  0  0  0  0  0  0  0
  -36.0900   -5.2576  -16.2958 O   0  0  0  0  0  0  0  0  0  0  0  0
  -33.6120   -6.9305  -13.5727 P   0  0  1  0  0  0  0  0  0  0  0  0
  -35.3968   -4.0022  -16.3829 C   0  0  2  0  0  0  0  0  0  0  0  0
  -34.8806   -3.0096  -13.0623 N   0  0  0  0  0  0  0  0  0  0  0  0
  -33.3464   -3.2673  -17.3585 O   0  0  0  0  0  0  0  0  0  0  0  0
  -34.0003   -4.3658  -16.7123 C   0  0  2  0  0  0  0  0  0  0  0  0
  -35.3517   -0.4781  -11.5709 N   0  0  0  0  0  0  0  0  0  0  0  0
  -34.5885   -5.1643  -18.8718 O   0  0  0  0  0  0  0  0  0  0  0  0
  -34.1427   -5.5439  -17.5590 C   0  0  2  0  0  0  0  0  0  0  0  0
  -35.6268   -1.9914  -13.5173 C   0  0  0  0  0  0  0  0  0  0  0  0
  -36.6798   -1.3871  -15.6829 N   0  0  0  0  0  0  0  0  0  0  0  0
  -34.1353   -6.3318  -14.9241 O   0  0  0  0  0  0  0  0  0  0  0  0
  -34.7713   -7.1711  -15.8323 C   0  0  0  0  0  0  0  0  0  0  0  0
  -34.9346   -7.2764  -12.7972 O   0  0  0  0  0  0  0  0  0  0  0  0
  -34.7216   -3.8852  -14.0730 C   0  0  0  0  0  0  0  0  0  0  0  0
  -37.0184   -0.1435  -13.0862 O   0  0  0  0  0  0  0  0  0  0  0  0
  -36.0499   -0.8162  -12.7333 C   0  0  0  0  0  0  0  0  0  0  0  0
  -35.9302   -2.2272  -14.8279 C   0  0  0  0  0  0  0  0  0  0  0  0
  -32.7314   -8.1033  -13.8505 O   0  5  0  0  0  0  0  0  0  0  0  0
  -32.6705   -6.0029  -12.9202 O   0  0  0  0  0  0  0  0  0  0  0  0
  1 17  1  0  0  0  0
  1 20  1  0  0  0  0
  2 15  1  1  0  0  0
  2  3  1  0  0  0  0
  2 11  1  0  0  0  0
  3  5  1  0  0  0  0
  4 16  1  1  0  0  0
  4 21  1  0  0  0  0
  4 22  2  0  0  0  0
  4 14  1  0  0  0  0
  5  1  1  1  0  0  0
  5  8  1  0  0  0  0
  6 17  2  0  0  0  0
  6 12  1  0  0  0  0
  8  7  1  6  0  0  0
  8 11  1  0  0  0  0
  9 19  1  0  0  0  0
 11 10  1  6  0  0  0
 12 20  2  0  0  0  0
 12 19  1  0  0  0  0
 13 20  1  0  0  0  0
 14 15  1  0  0  0  0
 18 19  2  0  0  0  0
M  CHG  1  21  -1
M  END
>  <CHROM.1>
64.54694615,-55.79753121,-68.92075657,174.38633505,20.20568596,-34.77573640
-4.45344961,-14.83565274,2.68351329,-1.18358596,1.36765894

>  <Name>
ligand

>  <RI>
0

>  <Rbt.Current_Directory>
/home/itssahil/PROJECTS/Mol_Feturizer/New_Systems/rnas/4XWF

>  <Rbt.Executable>
rbdock ($Id: //depot/dev/client3/rdock/2013.1/src/exe/rbdock.cxx#4 $)

>  <Rbt.Library>
libRbt.so (2013.1, Build901 2013/11/27)

>  <Rbt.Parameter_File>
/export/apps/rDock/src/rDock_2013.1_src/data/scripts/dock_solv.prm

>  <Rbt.Receptor>
prm/blind_docking_40.prm

>  <SCORE>
-5.59853

>  <SCORE.INTER>
-7.40027

>  <SCORE.INTER.CONST>
1

>  <SCORE.INTER.POLAR>
0

>  <SCORE.INTER.ROT>
5

>  <SCORE.INTER.SOLV>
18.1733

>  <SCORE.INTER.VDW>
-17.9246

>  <SCORE.INTER.norm>
-0.336376

>  <SCORE.INTRA>
0.5948

>  <SCORE.INTRA.DIHEDRAL>
-1.14379

>  <SCORE.INTRA.DIHEDRAL.0>
3.49807

>  <SCORE.INTRA.POLAR>
0

>  <SCORE.INTRA.POLAR.0>
0

>  <SCORE.INTRA.REPUL>
0

>  <SCORE.INTRA.REPUL.0>
0

>  <SCORE.INTRA.SOLV>
0.688184

>  <SCORE.INTRA.SOLV.lig_0>
-73.062

>  <SCORE.INTRA.VDW>
0.822602

>  <SCORE.INTRA.VDW.0>
-1.83782

>  <SCORE.INTRA.norm>
0.0270364

>  <SCORE.RESTR>
1.20695

>  <SCORE.RESTR.CAVITY>
1.20695

>  <SCORE.RESTR.norm>
0.0548611

>  <SCORE.SYSTEM>
0

>  <SCORE.SYSTEM.CONST>
0

>  <SCORE.SYSTEM.DIHEDRAL>
0

>  <SCORE.SYSTEM.SOLV>
0

>  <SCORE.SYSTEM.norm>
0

>  <SCORE.heavy>
22

>  <SCORE.norm>
-0.254478

>  <RMSD>
12.678

$$$$
ligand
 OpenBabel11021811513D
libRbt.so/2013.1/901 2013/11/27
 22 23  0  0  0  0  0  0  0  0999 V2000
  -33.4367    7.1263  -20.0321 N   0  0  0  0  0  0  0  0  0  0  0  0
  -32.6258    3.8467  -20.2301 C   0  0  1  0  0  0  0  0  0  0  0  0
  -32.5691    5.1570  -20.8622 O   0  0  0  0  0  0  0  0  0  0  0  0
  -35.2330    1.0980  -20.1611 P   0  0  1  0  0  0  0  0  0  0  0  0
  -32.4862    6.1480  -19.8252 C   0  0  2  0  0  0  0  0  0  0  0  0
  -35.3452    8.0849  -20.4191 N   0  0  0  0  0  0  0  0  0  0  0  0
  -32.3332    6.0945  -17.4441 O   0  0  0  0  0  0  0  0  0  0  0  0
  -32.8824    5.4343  -18.5905 C   0  0  2  0  0  0  0  0  0  0  0  0
  -33.9397   11.3113  -21.0719 N   0  0  0  0  0  0  0  0  0  0  0  0
  -30.9416    4.0632  -18.6142 O   0  0  0  0  0  0  0  0  0  0  0  0
  -32.3677    4.0856  -18.7932 C   0  0  2  0  0  0  0  0  0  0  0  0
  -34.4326    9.0431  -20.1964 C   0  0  0  0  0  0  0  0  0  0  0  0
  -32.0128    9.1006  -19.6443 N   0  0  0  0  0  0  0  0  0  0  0  0
  -33.9329    1.9714  -20.0859 O   0  0  0  0  0  0  0  0  0  0  0  0
  -33.9972    3.3100  -20.4569 C   0  0  0  0  0  0  0  0  0  0  0  0
  -34.6865   -0.3706  -20.0384 O   0  0  0  0  0  0  0  0  0  0  0  0
  -34.7222    6.8949  -20.3225 C   0  0  0  0  0  0  0  0  0  0  0  0
  -35.5369   10.9937  -19.4800 O   0  0  0  0  0  0  0  0  0  0  0  0
  -34.6863   10.4956  -20.2174 C   0  0  0  0  0  0  0  0  0  0  0  0
  -33.2289    8.4471  -19.9488 C   0  0  0  0  0  0  0  0  0  0  0  0
  -36.1733    1.5023  -19.0747 O   0  5  0  0  0  0  0  0  0  0  0  0
  -36.0151    1.4281  -21.3661 O   0  0  0  0  0  0  0  0  0  0  0  0
  1 17  1  0  0  0  0
  1 20  1  0  0  0  0
  2 15  1  1  0  0  0
  2  3  1  0  0  0  0
  2 11  1  0  0  0  0
  3  5  1  0  0  0  0
  4 16  1  1  0  0  0
  4 21  1  0  0  0  0
  4 22  2  0  0  0  0
  4 14  1  0  0  0  0
  5  1  1  6  0  0  0
  5  8  1  0  0  0  0
  6 17  2  0  0  0  0
  6 12  1  0  0  0  0
  8  7  1  1  0  0  0
  8 11  1  0  0  0  0
  9 19  1  0  0  0  0
 11 10  1  6  0  0  0
 12 20  2  0  0  0  0
 12 19  1  0  0  0  0
 13 20  1  0  0  0  0
 14 15  1  0  0  0  0
 18 19  2  0  0  0  0
M  CHG  1  21  -1
M  END
>  <CHROM.1>
46.95166456,168.31607939,165.85745759,178.29936024,-123.63032364,-33.88725586
5.30415839,-19.86051200,-1.47558035,0.38286806,3.11012922

>  <Name>
ligand

>  <RI>
0

>  <Rbt.Current_Directory>
/home/itssahil/PROJECTS/Mol_Feturizer/New_Systems/rnas/4XWF

>  <Rbt.Executable>
rbdock ($Id: //depot/dev/client3/rdock/2013.1/src/exe/rbdock.cxx#4 $)

>  <Rbt.Library>
libRbt.so (2013.1, Build901 2013/11/27)

>  <Rbt.Parameter_File>
/export/apps/rDock/src/rDock_2013.1_src/data/scripts/dock_solv.prm

>  <Rbt.Receptor>
prm/blind_docking_80.prm

>  <SCORE>
-9.80503

>  <SCORE.INTER>
-9.22625

>  <SCORE.INTER.CONST>
1

>  <SCORE.INTER.POLAR>
0

>  <SCORE.INTER.ROT>
5

>  <SCORE.INTER.SOLV>
16.2254

>  <SCORE.INTER.VDW>
-18.4926

>  <SCORE.INTER.norm>
-0.419375

>  <SCORE.INTRA>
-0.578779

>  <SCORE.INTRA.DIHEDRAL>
-1.16638

>  <SCORE.INTRA.DIHEDRAL.0>
3.49807

>  <SCORE.INTRA.POLAR>
0

>  <SCORE.INTRA.POLAR.0>
0

>  <SCORE.INTRA.REPUL>
0

>  <SCORE.INTRA.REPUL.0>
0

>  <SCORE.INTRA.SOLV>
0.249304

>  <SCORE.INTRA.SOLV.lig_0>
-73.062

>  <SCORE.INTRA.VDW>
-0.120241

>  <SCORE.INTRA.VDW.0>
-1.83782

>  <SCORE.INTRA.norm>
-0.0263081

>  <SCORE.RESTR>
0

>  <SCORE.RESTR.CAVITY>
0

>  <SCORE.RESTR.norm>
0

>  <SCORE.SYSTEM>
0

>  <SCORE.SYSTEM.CONST>
0

>  <SCORE.SYSTEM.DIHEDRAL>
0

>  <SCORE.SYSTEM.SOLV>
0

>  <SCORE.SYSTEM.norm>
0

>  <SCORE.heavy>
22

>  <SCORE.norm>
-0.445683

>  <RMSD>
12.684

$$$$
ligand
 OpenBabel11021811513D
libRbt.so/2013.1/901 2013/11/27
 22 23  0  0  0  0  0  0  0  0999 V2000
  -33.7098    6.4744  -20.4837 N   0  0  0  0  0  0  0  0  0  0  0  0
  -32.1435    3.7544  -19.2184 C   0  0  1  0  0  0  0  0  0  0  0  0
  -32.4215    4.5632  -20.3967 O   0  0  0  0  0  0  0  0  0  0  0  0
  -34.8202    1.2820  -20.2534 P   0  0  1  0  0  0  0  0  0  0  0  0
  -32.5469    5.9318  -19.9774 C   0  0  2  0  0  0  0  0  0  0  0  0
  -35.8034    6.7262  -20.9981 N   0  0  0  0  0  0  0  0  0  0  0  0
  -32.3131    7.0933  -17.9057 O   0  0  0  0  0  0  0  0  0  0  0  0
  -32.7228    5.8607  -18.5095 C   0  0  2  0  0  0  0  0  0  0  0  0
  -35.6877   10.2434  -21.4367 N   0  0  0  0  0  0  0  0  0  0  0  0
  -30.5118    5.0630  -18.1602 O   0  0  0  0  0  0  0  0  0  0  0  0
  -31.9065    4.7173  -18.1206 C   0  0  2  0  0  0  0  0  0  0  0  0
  -35.1402    7.8242  -21.3920 C   0  0  0  0  0  0  0  0  0  0  0  0
  -32.7884    8.6133  -21.2909 N   0  0  0  0  0  0  0  0  0  0  0  0
  -33.5567    2.2031  -20.1360 O   0  0  0  0  0  0  0  0  0  0  0  0
  -33.3526    2.9220  -18.9633 C   0  0  0  0  0  0  0  0  0  0  0  0
  -34.6574    0.6285  -21.6735 O   0  0  0  0  0  0  0  0  0  0  0  0
  -34.9111    5.8865  -20.4395 C   0  0  0  0  0  0  0  0  0  0  0  0
  -36.2826    8.8776  -23.1590 O   0  0  0  0  0  0  0  0  0  0  0  0
  -35.7347    8.9950  -22.0631 C   0  0  0  0  0  0  0  0  0  0  0  0
  -33.8217    7.6744  -21.0687 C   0  0  0  0  0  0  0  0  0  0  0  0
  -34.8394    0.3090  -19.1217 O   0  5  0  0  0  0  0  0  0  0  0  0
  -36.0524    2.0509  -20.0021 O   0  0  0  0  0  0  0  0  0  0  0  0
  1 17  1  0  0  0  0
  1 20  1  0  0  0  0
  2 15  1  1  0  0  0
  2  3  1  0  0  0  0
  2 11  1  0  0  0  0
  3  5  1  0  0  0  0
  4 16  1  6  0  0  0
  4 21  1  0  0  0  0
  4 22  2  0  0  0  0
  4 14  1  0  0  0  0
  5  1  1  6  0  0  0
  5  8  1  0  0  0  0
  6 17  2  0  0  0  0
  6 12  1  0  0  0  0
  8  7  1  1  0  0  0
  8 11  1  0  0  0  0
  9 19  1  0  0  0  0
 11 10  1  6  0  0  0
 12 20  2  0  0  0  0
 12 19  1  0  0  0  0
 13 20  1  0  0  0  0
 14 15  1  0  0  0  0
 18 19  2  0  0  0  0
M  CHG  1  21  -1
M  END
>  <CHROM.1>
47.03413344,57.09855458,-178.19373693,-175.95889385,117.72799107,-33.93531850
5.01613331,-20.20177879,-1.66774552,0.63370475,2.98717310

>  <Name>
ligand

>  <RI>
0

>  <Rbt.Current_Directory>
/home/itssahil/PROJECTS/Mol_Feturizer/New_Systems/rnas/4XWF

>  <Rbt.Executable>
rbdock ($Id: //depot/dev/client3/rdock/2013.1/src/exe/rbdock.cxx#4 $)

>  <Rbt.Library>
libRbt.so (2013.1, Build901 2013/11/27)

>  <Rbt.Parameter_File>
/export/apps/rDock/src/rDock_2013.1_src/data/scripts/dock_solv.prm

>  <Rbt.Receptor>
prm/blind_docking_80.prm

>  <SCORE>
-10.2543

>  <SCORE.INTER>
-9.06714

>  <SCORE.INTER.CONST>
1

>  <SCORE.INTER.POLAR>
0

>  <SCORE.INTER.ROT>
5

>  <SCORE.INTER.SOLV>
10.6818

>  <SCORE.INTER.VDW>
-16.5387

>  <SCORE.INTER.norm>
-0.412143

>  <SCORE.INTRA>
-1.18713

>  <SCORE.INTRA.DIHEDRAL>
-1.89532

>  <SCORE.INTRA.DIHEDRAL.0>
3.49807

>  <SCORE.INTRA.POLAR>
0

>  <SCORE.INTRA.POLAR.0>
0

>  <SCORE.INTRA.REPUL>
0

>  <SCORE.INTRA.REPUL.0>
0

>  <SCORE.INTRA.SOLV>
0.220297

>  <SCORE.INTRA.SOLV.lig_0>
-73.062

>  <SCORE.INTRA.VDW>
-0.349623

>  <SCORE.INTRA.VDW.0>
-1.83782

>  <SCORE.INTRA.norm>
-0.0539607

>  <SCORE.RESTR>
0

>  <SCORE.RESTR.CAVITY>
0

>  <SCORE.RESTR.norm>
0

>  <SCORE.SYSTEM>
0

>  <SCORE.SYSTEM.CONST>
0

>  <SCORE.SYSTEM.DIHEDRAL>
0

>  <SCORE.SYSTEM.SOLV>
0

>  <SCORE.SYSTEM.norm>
0

>  <SCORE.heavy>
22

>  <SCORE.norm>
-0.466104

>  <RMSD>
12.713

$$$$
ligand
 OpenBabel11021811513D
libRbt.so/2013.1/901 2013/11/27
 22 23  0  0  0  0  0  0  0  0999 V2000
  -33.0524    6.5630  -20.4399 N   0  0  0  0  0  0  0  0  0  0  0  0
  -32.0212    3.6136  -19.1397 C   0  0  1  0  0  0  0  0  0  0  0  0
  -31.9842    4.5255  -20.2742 O   0  0  0  0  0  0  0  0  0  0  0  0
  -34.9196    2.0672  -21.0071 P   0  0  1  0  0  0  0  0  0  0  0  0
  -32.0677    5.8679  -19.7688 C   0  0  2  0  0  0  0  0  0  0  0  0
  -34.9590    7.0535  -21.3539 N   0  0  0  0  0  0  0  0  0  0  0  0
  -32.1500    6.8546  -17.5973 O   0  0  0  0  0  0  0  0  0  0  0  0
  -32.5395    5.7159  -18.3742 C   0  0  2  0  0  0  0  0  0  0  0  0
  -33.8035    9.8417  -23.2122 N   0  0  0  0  0  0  0  0  0  0  0  0
  -30.5236    4.6683  -17.6770 O   0  0  0  0  0  0  0  0  0  0  0  0
  -31.9233    4.4692  -17.9369 C   0  0  2  0  0  0  0  0  0  0  0  0
  -34.1570    8.1244  -21.4571 C   0  0  0  0  0  0  0  0  0  0  0  0
  -31.8418    8.6863  -20.7588 N   0  0  0  0  0  0  0  0  0  0  0  0
  -33.5164    2.5863  -20.5379 O   0  0  0  0  0  0  0  0  0  0  0  0
  -33.3265    2.8975  -19.1959 C   0  0  0  0  0  0  0  0  0  0  0  0
  -34.6300    0.5810  -21.4287 O   0  0  0  0  0  0  0  0  0  0  0  0
  -34.2679    6.0826  -20.7268 C   0  0  0  0  0  0  0  0  0  0  0  0
  -35.4153   10.1058  -21.6253 O   0  0  0  0  0  0  0  0  0  0  0  0
  -34.5125    9.4088  -22.0884 C   0  0  0  0  0  0  0  0  0  0  0  0
  -32.9556    7.8242  -20.8811 C   0  0  0  0  0  0  0  0  0  0  0  0
  -35.9069    2.2156  -19.8975 O   0  5  0  0  0  0  0  0  0  0  0  0
  -35.4910    2.9597  -22.0315 O   0  0  0  0  0  0  0  0  0  0  0  0
  1 17  1  0  0  0  0
  1 20  1  0  0  0  0
  2 15  1  1  0  0  0
  2  3  1  0  0  0  0
  2 11  1  0  0  0  0
  3  5  1  0  0  0  0
  4 16  1  6  0  0  0
  4 21  1  0  0  0  0
  4 22  2  0  0  0  0
  4 14  1  0  0  0  0
  5  1  1  6  0  0  0
  5  8  1  0  0  0  0
  6 17  2  0  0  0  0
  6 12  1  0  0  0  0
  8  7  1  1  0  0  0
  8 11  1  0  0  0  0
  9 19  1  0  0  0  0
 11 10  1  6  0  0  0
 12 20  2  0  0  0  0
 12 19  1  0  0  0  0
 13 20  1  0  0  0  0
 14 15  1  0  0  0  0
 18 19  2  0  0  0  0
M  CHG  1  21  -1
M  END
>  <CHROM.1>
44.17891246,41.94742050,-113.13652647,-168.48611770,-117.38702324,-33.54378827
5.28799010,-20.35678101,-1.48524191,0.75838708,2.93320304

>  <Name>
ligand

>  <RI>
0

>  <Rbt.Current_Directory>
/home/itssahil/PROJECTS/Mol_Feturizer/New_Systems/rnas/4XWF

>  <Rbt.Executable>
rbdock ($Id: //depot/dev/client3/rdock/2013.1/src/exe/rbdock.cxx#4 $)

>  <Rbt.Library>
libRbt.so (2013.1, Build901 2013/11/27)

>  <Rbt.Parameter_File>
/export/apps/rDock/src/rDock_2013.1_src/data/scripts/dock_solv.prm

>  <Rbt.Receptor>
prm/blind_docking_100.prm

>  <SCORE>
-8.00084

>  <SCORE.INTER>
-9.36395

>  <SCORE.INTER.CONST>
1

>  <SCORE.INTER.POLAR>
0

>  <SCORE.INTER.ROT>
5

>  <SCORE.INTER.SOLV>
10.7751

>  <SCORE.INTER.VDW>
-16.7677

>  <SCORE.INTER.norm>
-0.425634

>  <SCORE.INTRA>
1.36311

>  <SCORE.INTRA.DIHEDRAL>
1.98642

>  <SCORE.INTRA.DIHEDRAL.0>
3.49807

>  <SCORE.INTRA.POLAR>
0

>  <SCORE.INTRA.POLAR.0>
0

>  <SCORE.INTRA.REPUL>
0

>  <SCORE.INTRA.REPUL.0>
0

>  <SCORE.INTRA.SOLV>
0.481536

>  <SCORE.INTRA.SOLV.lig_0>
-73.062

>  <SCORE.INTRA.VDW>
0.129136

>  <SCORE.INTRA.VDW.0>
-1.83782

>  <SCORE.INTRA.norm>
0.0619597

>  <SCORE.RESTR>
0

>  <SCORE.RESTR.CAVITY>
0

>  <SCORE.RESTR.norm>
0

>  <SCORE.SYSTEM>
0

>  <SCORE.SYSTEM.CONST>
0

>  <SCORE.SYSTEM.DIHEDRAL>
0

>  <SCORE.SYSTEM.SOLV>
0

>  <SCORE.SYSTEM.norm>
0

>  <SCORE.heavy>
22

>  <SCORE.norm>
-0.363675

>  <RMSD>
12.719

$$$$
ligand
 OpenBabel11021811513D
libRbt.so/2013.1/901 2013/11/27
 22 23  0  0  0  0  0  0  0  0999 V2000
  -34.5794    7.1597  -20.0061 N   0  0  0  0  0  0  0  0  0  0  0  0
  -31.6172    8.6602  -19.3534 C   0  0  1  0  0  0  0  0  0  0  0  0
  -33.0566    8.8179  -19.5049 O   0  0  0  0  0  0  0  0  0  0  0  0
  -31.3793    9.7251  -22.9767 P   0  0  1  0  0  0  0  0  0  0  0  0
  -33.6866    7.6076  -19.0546 C   0  0  2  0  0  0  0  0  0  0  0  0
  -35.7841    5.8273  -21.2246 N   0  0  0  0  0  0  0  0  0  0  0  0
  -32.9241    5.5654  -18.0830 O   0  0  0  0  0  0  0  0  0  0  0  0
  -32.5935    6.6109  -19.0046 C   0  0  2  0  0  0  0  0  0  0  0  0
  -37.7706    6.5190  -23.2902 N   0  0  0  0  0  0  0  0  0  0  0  0
  -31.4997    7.7195  -17.2097 O   0  0  0  0  0  0  0  0  0  0  0  0
  -31.4307    7.3958  -18.6085 C   0  0  2  0  0  0  0  0  0  0  0  0
  -36.0870    7.0907  -21.5603 C   0  0  0  0  0  0  0  0  0  0  0  0
  -35.3672    9.3487  -20.8206 N   0  0  0  0  0  0  0  0  0  0  0  0
  -31.6166    9.6269  -21.4299 O   0  0  0  0  0  0  0  0  0  0  0  0
  -31.0391    8.5770  -20.7241 C   0  0  0  0  0  0  0  0  0  0  0  0
  -32.1323    8.4640  -23.5363 O   0  0  0  0  0  0  0  0  0  0  0  0
  -34.8425    5.8731  -20.2628 C   0  0  0  0  0  0  0  0  0  0  0  0
  -37.2552    8.6893  -22.8320 O   0  0  0  0  0  0  0  0  0  0  0  0
  -37.0661    7.4984  -22.5848 C   0  0  0  0  0  0  0  0  0  0  0  0
  -35.3346    7.9355  -20.7951 C   0  0  0  0  0  0  0  0  0  0  0  0
  -31.8962   11.0309  -23.4823 O   0  5  0  0  0  0  0  0  0  0  0  0
  -29.9411    9.8406  -23.2782 O   0  0  0  0  0  0  0  0  0  0  0  0
  1 17  1  0  0  0  0
  1 20  1  0  0  0  0
  2 15  1  6  0  0  0
  2  3  1  0  0  0  0
  2 11  1  0  0  0  0
  3  5  1  0  0  0  0
  4 16  1  6  0  0  0
  4 21  1  0  0  0  0
  4 22  2  0  0  0  0
  4 14  1  0  0  0  0
  5  1  1  6  0  0  0
  5  8  1  0  0  0  0
  6 17  2  0  0  0  0
  6 12  1  0  0  0  0
  8  7  1  1  0  0  0
  8 11  1  0  0  0  0
  9 19  1  0  0  0  0
 11 10  1  1  0  0  0
 12 20  2  0  0  0  0
 12 19  1  0  0  0  0
 13 20  1  0  0  0  0
 14 15  1  0  0  0  0
 18 19  2  0  0  0  0
M  CHG  1  21  -1
M  END
>  <CHROM.1>
146.21584884,47.52082016,66.69612829,-171.79629205,0.35013370,-33.38232108
8.13310735,-21.02557401,-2.96258081,-0.36226871,-1.06543266

>  <Name>
ligand

>  <RI>
0

>  <Rbt.Current_Directory>
/home/itssahil/PROJECTS/Mol_Feturizer/New_Systems/rnas/4XWF

>  <Rbt.Executable>
rbdock ($Id: //depot/dev/client3/rdock/2013.1/src/exe/rbdock.cxx#4 $)

>  <Rbt.Library>
libRbt.so (2013.1, Build901 2013/11/27)

>  <Rbt.Parameter_File>
/export/apps/rDock/src/rDock_2013.1_src/data/scripts/dock_solv.prm

>  <Rbt.Receptor>
prm/blind_docking_100.prm

>  <SCORE>
-3.65464

>  <SCORE.INTER>
-4.87433

>  <SCORE.INTER.CONST>
1

>  <SCORE.INTER.POLAR>
0

>  <SCORE.INTER.ROT>
5

>  <SCORE.INTER.SOLV>
13.8311

>  <SCORE.INTER.VDW>
-14.7933

>  <SCORE.INTER.norm>
-0.221561

>  <SCORE.INTRA>
1.21969

>  <SCORE.INTRA.DIHEDRAL>
-1.12977

>  <SCORE.INTRA.DIHEDRAL.0>
3.49807

>  <SCORE.INTRA.POLAR>
0

>  <SCORE.INTRA.POLAR.0>
0

>  <SCORE.INTRA.REPUL>
0

>  <SCORE.INTRA.REPUL.0>
0

>  <SCORE.INTRA.SOLV>
1.11708

>  <SCORE.INTRA.SOLV.lig_0>
-73.062

>  <SCORE.INTRA.VDW>
1.22604

>  <SCORE.INTRA.VDW.0>
-1.83782

>  <SCORE.INTRA.norm>
0.0554407

>  <SCORE.RESTR>
0

>  <SCORE.RESTR.CAVITY>
0

>  <SCORE.RESTR.norm>
0

>  <SCORE.SYSTEM>
0

>  <SCORE.SYSTEM.CONST>
0

>  <SCORE.SYSTEM.DIHEDRAL>
0

>  <SCORE.SYSTEM.SOLV>
0

>  <SCORE.SYSTEM.norm>
0

>  <SCORE.heavy>
22

>  <SCORE.norm>
-0.16612

>  <RMSD>
12.727

$$$$
ligand
 OpenBabel11021811513D
libRbt.so/2013.1/901 2013/11/27
 22 23  0  0  0  0  0  0  0  0999 V2000
  -33.5900    7.0355  -20.2020 N   0  0  0  0  0  0  0  0  0  0  0  0
  -32.6324    3.7899  -20.1602 C   0  0  1  0  0  0  0  0  0  0  0  0
  -32.6304    5.0525  -20.8852 O   0  0  0  0  0  0  0  0  0  0  0  0
  -35.1339    0.9686  -19.8114 P   0  0  1  0  0  0  0  0  0  0  0  0
  -32.5981    6.1184  -19.9223 C   0  0  2  0  0  0  0  0  0  0  0  0
  -35.5497    7.8881  -20.5809 N   0  0  0  0  0  0  0  0  0  0  0  0
  -32.4573    6.2435  -17.5431 O   0  0  0  0  0  0  0  0  0  0  0  0
  -32.9695    5.4784  -18.6404 C   0  0  2  0  0  0  0  0  0  0  0  0
  -34.6238   11.2456  -19.8175 N   0  0  0  0  0  0  0  0  0  0  0  0
  -30.9693    4.1978  -18.5594 O   0  0  0  0  0  0  0  0  0  0  0  0
  -32.3939    4.1431  -18.7436 C   0  0  2  0  0  0  0  0  0  0  0  0
  -34.6518    8.8853  -20.5807 C   0  0  0  0  0  0  0  0  0  0  0  0
  -32.2003    9.0710  -20.2359 N   0  0  0  0  0  0  0  0  0  0  0  0
  -33.9184    1.9524  -19.6955 O   0  0  0  0  0  0  0  0  0  0  0  0
  -33.9770    3.1772  -20.3515 C   0  0  0  0  0  0  0  0  0  0  0  0
  -34.9972    0.3993  -21.2700 O   0  0  0  0  0  0  0  0  0  0  0  0
  -34.8862    6.7389  -20.3514 C   0  0  0  0  0  0  0  0  0  0  0  0
  -35.4938   10.6824  -21.8451 O   0  0  0  0  0  0  0  0  0  0  0  0
  -34.9495   10.3121  -20.8051 C   0  0  0  0  0  0  0  0  0  0  0  0
  -33.4158    8.3566  -20.3397 C   0  0  0  0  0  0  0  0  0  0  0  0
  -35.0514   -0.0609  -18.7338 O   0  5  0  0  0  0  0  0  0  0  0  0
  -36.3940    1.6527  -19.4698 O   0  0  0  0  0  0  0  0  0  0  0  0
  1 17  1  0  0  0  0
  1 20  1  0  0  0  0
  2 15  1  1  0  0  0
  2  3  1  0  0  0  0
  2 11  1  0  0  0  0
  3  5  1  0  0  0  0
  4 16  1  6  0  0  0
  4 21  1  0  0  0  0
  4 22  2  0  0  0  0
  4 14  1  0  0  0  0
  5  1  1  6  0  0  0
  5  8  1  0  0  0  0
  6 17  2  0  0  0  0
  6 12  1  0  0  0  0
  8  7  1  1  0  0  0
  8 11  1  0  0  0  0
  9 19  1  0  0  0  0
 11 10  1  6  0  0  0
 12 20  2  0  0  0  0
 12 19  1  0  0  0  0
 13 20  1  0  0  0  0
 14 15  1  0  0  0  0
 18 19  2  0  0  0  0
M  CHG  1  21  -1
M  END
>  <CHROM.1>
53.74130339,177.48946694,74.61472170,-174.17140732,121.12231941,-33.95552017
5.21418528,-19.91127887,-1.51725966,0.44264810,3.02654711

>  <Name>
ligand

>  <RI>
0

>  <Rbt.Current_Directory>
/home/itssahil/PROJECTS/Mol_Feturizer/New_Systems/rnas/4XWF

>  <Rbt.Executable>
rbdock ($Id: //depot/dev/client3/rdock/2013.1/src/exe/rbdock.cxx#4 $)

>  <Rbt.Library>
libRbt.so (2013.1, Build901 2013/11/27)

>  <Rbt.Parameter_File>
/export/apps/rDock/src/rDock_2013.1_src/data/scripts/dock_solv.prm

>  <Rbt.Receptor>
prm/blind_docking_60.prm

>  <SCORE>
-10.0567

>  <SCORE.INTER>
-9.01

>  <SCORE.INTER.CONST>
1

>  <SCORE.INTER.POLAR>
0

>  <SCORE.INTER.ROT>
5

>  <SCORE.INTER.SOLV>
13.5903

>  <SCORE.INTER.VDW>
-17.4701

>  <SCORE.INTER.norm>
-0.409546

>  <SCORE.INTRA>
-1.04667

>  <SCORE.INTRA.DIHEDRAL>
-1.52802

>  <SCORE.INTRA.DIHEDRAL.0>
3.49807

>  <SCORE.INTRA.POLAR>
0

>  <SCORE.INTRA.POLAR.0>
0

>  <SCORE.INTRA.REPUL>
0

>  <SCORE.INTRA.REPUL.0>
0

>  <SCORE.INTRA.SOLV>
-0.569289

>  <SCORE.INTRA.SOLV.lig_0>
-73.062

>  <SCORE.INTRA.VDW>
0.00198697

>  <SCORE.INTRA.VDW.0>
-1.83782

>  <SCORE.INTRA.norm>
-0.0475759

>  <SCORE.RESTR>
0

>  <SCORE.RESTR.CAVITY>
0

>  <SCORE.RESTR.norm>
0

>  <SCORE.SYSTEM>
0

>  <SCORE.SYSTEM.CONST>
0

>  <SCORE.SYSTEM.DIHEDRAL>
0

>  <SCORE.SYSTEM.SOLV>
0

>  <SCORE.SYSTEM.norm>
0

>  <SCORE.heavy>
22

>  <SCORE.norm>
-0.457121

>  <RMSD>
12.729

$$$$
ligand
 OpenBabel11021811513D
libRbt.so/2013.1/901 2013/11/27
 22 23  0  0  0  0  0  0  0  0999 V2000
  -36.1660   -1.3360  -18.3378 N   0  0  0  0  0  0  0  0  0  0  0  0
  -36.8131    1.1045  -20.5911 C   0  0  1  0  0  0  0  0  0  0  0  0
  -36.7855   -0.3250  -20.3161 O   0  0  0  0  0  0  0  0  0  0  0  0
  -34.1569    3.6765  -21.4203 P   0  0  1  0  0  0  0  0  0  0  0  0
  -37.1060   -0.5174  -18.9288 C   0  0  2  0  0  0  0  0  0  0  0  0
  -34.3071   -2.3940  -17.9685 N   0  0  0  0  0  0  0  0  0  0  0  0
  -37.7290    0.9139  -17.1235 O   0  0  0  0  0  0  0  0  0  0  0  0
  -36.9408    0.8197  -18.3158 C   0  0  2  0  0  0  0  0  0  0  0  0
  -35.6843   -4.5897  -15.5027 N   0  0  0  0  0  0  0  0  0  0  0  0
  -38.7919    1.7258  -19.4989 O   0  0  0  0  0  0  0  0  0  0  0  0
  -37.3602    1.7351  -19.3699 C   0  0  2  0  0  0  0  0  0  0  0  0
  -35.1439   -2.6496  -16.9511 C   0  0  0  0  0  0  0  0  0  0  0  0
  -37.4498   -1.9698  -16.3314 N   0  0  0  0  0  0  0  0  0  0  0  0
  -35.4807    2.8878  -21.1305 O   0  0  0  0  0  0  0  0  0  0  0  0
  -35.4072    1.5294  -20.8423 C   0  0  0  0  0  0  0  0  0  0  0  0
  -33.7704    3.2089  -22.8703 O   0  0  0  0  0  0  0  0  0  0  0  0
  -34.9470   -1.5824  -18.8318 C   0  0  0  0  0  0  0  0  0  0  0  0
  -33.8847   -3.2661  -15.0613 O   0  0  0  0  0  0  0  0  0  0  0  0
  -34.8488   -3.5065  -15.7878 C   0  0  0  0  0  0  0  0  0  0  0  0
  -36.3155   -1.9843  -17.1750 C   0  0  0  0  0  0  0  0  0  0  0  0
  -34.4060    5.1422  -21.2874 O   0  5  0  0  0  0  0  0  0  0  0  0
  -33.1678    3.4475  -20.3517 O   0  0  0  0  0  0  0  0  0  0  0  0
  1 17  1  0  0  0  0
  1 20  1  0  0  0  0
  2 15  1  1  0  0  0
  2  3  1  0  0  0  0
  2 11  1  0  0  0  0
  3  5  1  0  0  0  0
  4 16  1  6  0  0  0
  4 21  1  0  0  0  0
  4 22  2  0  0  0  0
  4 14  1  0  0  0  0
  5  1  1  1  0  0  0
  5  8  1  0  0  0  0
  6 17  2  0  0  0  0
  6 12  1  0  0  0  0
  8  7  1  1  0  0  0
  8 11  1  0  0  0  0
  9 19  1  0  0  0  0
 11 10  1  6  0  0  0
 12 20  2  0  0  0  0
 12 19  1  0  0  0  0
 13 20  1  0  0  0  0
 14 15  1  0  0  0  0
 18 19  2  0  0  0  0
M  CHG  1  21  -1
M  END
>  <CHROM.1>
18.78928718,178.64299488,74.80083747,178.71799322,-123.29244797,-35.65767187
0.41041839,-19.02891663,1.68226886,-0.11095838,2.48897078

>  <Name>
ligand

>  <RI>
0

>  <Rbt.Current_Directory>
/home/itssahil/PROJECTS/Mol_Feturizer/New_Systems/rnas/4XWF

>  <Rbt.Executable>
rbdock ($Id: //depot/dev/client3/rdock/2013.1/src/exe/rbdock.cxx#4 $)

>  <Rbt.Library>
libRbt.so (2013.1, Build901 2013/11/27)

>  <Rbt.Parameter_File>
/export/apps/rDock/src/rDock_2013.1_src/data/scripts/dock_solv.prm

>  <Rbt.Receptor>
prm/blind_docking_60.prm

>  <SCORE>
-12.3493

>  <SCORE.INTER>
-11.7214

>  <SCORE.INTER.CONST>
1

>  <SCORE.INTER.POLAR>
0

>  <SCORE.INTER.ROT>
5

>  <SCORE.INTER.SOLV>
17.9395

>  <SCORE.INTER.VDW>
-20.7275

>  <SCORE.INTER.norm>
-0.532791

>  <SCORE.INTRA>
-0.627867

>  <SCORE.INTRA.DIHEDRAL>
-1.70587

>  <SCORE.INTRA.DIHEDRAL.0>
3.49807

>  <SCORE.INTRA.POLAR>
0

>  <SCORE.INTRA.POLAR.0>
0

>  <SCORE.INTRA.REPUL>
0

>  <SCORE.INTRA.REPUL.0>
0

>  <SCORE.INTRA.SOLV>
0.721155

>  <SCORE.INTRA.SOLV.lig_0>
-73.062

>  <SCORE.INTRA.VDW>
-0.135507

>  <SCORE.INTRA.VDW.0>
-1.83782

>  <SCORE.INTRA.norm>
-0.0285394

>  <SCORE.RESTR>
0

>  <SCORE.RESTR.CAVITY>
0

>  <SCORE.RESTR.norm>
0

>  <SCORE.SYSTEM>
0

>  <SCORE.SYSTEM.CONST>
0

>  <SCORE.SYSTEM.DIHEDRAL>
0

>  <SCORE.SYSTEM.SOLV>
0

>  <SCORE.SYSTEM.norm>
0

>  <SCORE.heavy>
22

>  <SCORE.norm>
-0.561331

>  <RMSD>
12.732

$$$$
ligand
 OpenBabel11021811513D
libRbt.so/2013.1/901 2013/11/27
 22 23  0  0  0  0  0  0  0  0999 V2000
  -33.2900    6.6983  -19.9556 N   0  0  0  0  0  0  0  0  0  0  0  0
  -33.1089    3.3797  -20.5930 C   0  0  1  0  0  0  0  0  0  0  0  0
  -33.0010    4.7310  -21.1242 O   0  0  0  0  0  0  0  0  0  0  0  0
  -36.0258    1.0146  -20.1005 P   0  0  1  0  0  0  0  0  0  0  0  0
  -32.4929    5.5795  -20.0820 C   0  0  2  0  0  0  0  0  0  0  0  0
  -35.0014    7.9612  -19.5226 N   0  0  0  0  0  0  0  0  0  0  0  0
  -31.7457    5.2415  -17.8407 O   0  0  0  0  0  0  0  0  0  0  0  0
  -32.6714    4.7961  -18.8389 C   0  0  2  0  0  0  0  0  0  0  0  0
  -35.2053   10.8980  -19.6846 N   0  0  0  0  0  0  0  0  0  0  0  0
  -31.0549    3.1773  -19.4818 O   0  0  0  0  0  0  0  0  0  0  0  0
  -32.4554    3.4193  -19.2664 C   0  0  2  0  0  0  0  0  0  0  0  0
  -33.9882    8.7486  -19.9149 C   0  0  0  0  0  0  0  0  0  0  0  0
  -31.6296    8.3997  -20.6067 N   0  0  0  0  0  0  0  0  0  0  0  0
  -34.6239    1.7127  -20.1783 O   0  0  0  0  0  0  0  0  0  0  0  0
  -34.5616    3.0693  -20.4772 C   0  0  0  0  0  0  0  0  0  0  0  0
  -36.5987    1.1971  -21.5528 O   0  0  0  0  0  0  0  0  0  0  0  0
  -34.5666    6.6870  -19.5547 C   0  0  0  0  0  0  0  0  0  0  0  0
  -33.0625   10.8439  -20.4535 O   0  0  0  0  0  0  0  0  0  0  0  0
  -34.0359   10.2177  -20.0349 C   0  0  0  0  0  0  0  0  0  0  0  0
  -32.9061    7.9609  -20.1864 C   0  0  0  0  0  0  0  0  0  0  0  0
  -35.8566   -0.4060  -19.6748 O   0  5  0  0  0  0  0  0  0  0  0  0
  -36.8215    1.5633  -18.9877 O   0  0  0  0  0  0  0  0  0  0  0  0
  1 17  1  0  0  0  0
  1 20  1  0  0  0  0
  2 15  1  1  0  0  0
  2  3  1  0  0  0  0
  2 11  1  0  0  0  0
  3  5  1  0  0  0  0
  4 16  1  6  0  0  0
  4 21  1  0  0  0  0
  4 22  2  0  0  0  0
  4 14  1  0  0  0  0
  5  1  1  1  0  0  0
  5  8  1  0  0  0  0
  6 17  2  0  0  0  0
  6 12  1  0  0  0  0
  8  7  1  1  0  0  0
  8 11  1  0  0  0  0
  9 19  1  0  0  0  0
 11 10  1  6  0  0  0
 12 20  2  0  0  0  0
 12 19  1  0  0  0  0
 13 20  1  0  0  0  0
 14 15  1  0  0  0  0
 18 19  2  0  0  0  0
M  CHG  1  21  -1
M  END
>  <CHROM.1>
65.47797591,170.63174342,61.49580148,-175.05245043,1.94663829,-33.98769342
4.94130924,-19.92613558,-1.32293184,0.14784639,3.11515263

>  <Name>
ligand

>  <RI>
0

>  <Rbt.Current_Directory>
/home/itssahil/PROJECTS/Mol_Feturizer/New_Systems/rnas/4XWF

>  <Rbt.Executable>
rbdock ($Id: //depot/dev/client3/rdock/2013.1/src/exe/rbdock.cxx#4 $)

>  <Rbt.Library>
libRbt.so (2013.1, Build901 2013/11/27)

>  <Rbt.Parameter_File>
/export/apps/rDock/src/rDock_2013.1_src/data/scripts/dock_solv.prm

>  <Rbt.Receptor>
prm/blind_docking_80.prm

>  <SCORE>
-10.7338

>  <SCORE.INTER>
-9.894

>  <SCORE.INTER.CONST>
1

>  <SCORE.INTER.POLAR>
0

>  <SCORE.INTER.ROT>
5

>  <SCORE.INTER.SOLV>
15.3233

>  <SCORE.INTER.VDW>
-18.6371

>  <SCORE.INTER.norm>
-0.449727

>  <SCORE.INTRA>
-0.839832

>  <SCORE.INTRA.DIHEDRAL>
-1.54978

>  <SCORE.INTRA.DIHEDRAL.0>
3.49807

>  <SCORE.INTRA.POLAR>
0

>  <SCORE.INTRA.POLAR.0>
0

>  <SCORE.INTRA.REPUL>
0

>  <SCORE.INTRA.REPUL.0>
0

>  <SCORE.INTRA.SOLV>
-1.04223

>  <SCORE.INTRA.SOLV.lig_0>
-73.062

>  <SCORE.INTRA.VDW>
0.456176

>  <SCORE.INTRA.VDW.0>
-1.83782

>  <SCORE.INTRA.norm>
-0.0381742

>  <SCORE.RESTR>
0

>  <SCORE.RESTR.CAVITY>
0

>  <SCORE.RESTR.norm>
0

>  <SCORE.SYSTEM>
0

>  <SCORE.SYSTEM.CONST>
0

>  <SCORE.SYSTEM.DIHEDRAL>
0

>  <SCORE.SYSTEM.SOLV>
0

>  <SCORE.SYSTEM.norm>
0

>  <SCORE.heavy>
22

>  <SCORE.norm>
-0.487901

>  <RMSD>
12.751

$$$$
ligand
 OpenBabel11021811513D
libRbt.so/2013.1/901 2013/11/27
 22 23  0  0  0  0  0  0  0  0999 V2000
  -33.5755    6.4476  -20.2521 N   0  0  0  0  0  0  0  0  0  0  0  0
  -33.2548    3.0912  -20.5433 C   0  0  1  0  0  0  0  0  0  0  0  0
  -33.2706    4.3782  -21.2240 O   0  0  0  0  0  0  0  0  0  0  0  0
  -35.9765    0.6739  -19.4920 P   0  0  1  0  0  0  0  0  0  0  0  0
  -32.7278    5.3619  -20.3283 C   0  0  2  0  0  0  0  0  0  0  0  0
  -35.3866    7.6282  -20.0590 N   0  0  0  0  0  0  0  0  0  0  0  0
  -31.7780    5.3139  -18.1394 O   0  0  0  0  0  0  0  0  0  0  0  0
  -32.7561    4.7148  -18.9974 C   0  0  2  0  0  0  0  0  0  0  0  0
  -35.6712   10.5654  -20.1242 N   0  0  0  0  0  0  0  0  0  0  0  0
  -31.1071    3.1151  -19.6046 O   0  0  0  0  0  0  0  0  0  0  0  0
  -32.4965    3.3110  -19.2923 C   0  0  2  0  0  0  0  0  0  0  0  0
  -34.3439    8.4696  -20.1337 C   0  0  0  0  0  0  0  0  0  0  0  0
  -31.8807    8.2353  -20.3366 N   0  0  0  0  0  0  0  0  0  0  0  0
  -34.6313    1.4053  -19.8300 O   0  0  0  0  0  0  0  0  0  0  0  0
  -34.6722    2.7252  -20.2658 C   0  0  0  0  0  0  0  0  0  0  0  0
  -35.5272   -0.8140  -19.2581 O   0  0  0  0  0  0  0  0  0  0  0  0
  -34.9067    6.3725  -20.1389 C   0  0  0  0  0  0  0  0  0  0  0  0
  -33.3958   10.6218  -20.0557 O   0  0  0  0  0  0  0  0  0  0  0  0
  -34.4209    9.9417  -20.0962 C   0  0  0  0  0  0  0  0  0  0  0  0
  -33.1996    7.7334  -20.2524 C   0  0  0  0  0  0  0  0  0  0  0  0
  -36.6169    1.3214  -18.3094 O   0  5  0  0  0  0  0  0  0  0  0  0
  -36.9818    0.9177  -20.5421 O   0  0  0  0  0  0  0  0  0  0  0  0
  1 17  1  0  0  0  0
  1 20  1  0  0  0  0
  2 15  1  1  0  0  0
  2  3  1  0  0  0  0
  2 11  1  0  0  0  0
  3  5  1  0  0  0  0
  4 16  1  1  0  0  0
  4 21  1  0  0  0  0
  4 22  2  0  0  0  0
  4 14  1  0  0  0  0
  5  1  1  1  0  0  0
  5  8  1  0  0  0  0
  6 17  2  0  0  0  0
  6 12  1  0  0  0  0
  8  7  1  1  0  0  0
  8 11  1  0  0  0  0
  9 19  1  0  0  0  0
 11 10  1  6  0  0  0
 12 20  2  0  0  0  0
 12 19  1  0  0  0  0
 13 20  1  0  0  0  0
 14 15  1  0  0  0  0
 18 19  2  0  0  0  0
M  CHG  1  21  -1
M  END
>  <CHROM.1>
43.80272324,170.11478482,171.86325980,-177.89206641,-7.12988740,-34.14345323
4.69348375,-19.83825118,-1.37068428,0.06025299,3.06422342

>  <Name>
ligand

>  <RI>
0

>  <Rbt.Current_Directory>
/home/itssahil/PROJECTS/Mol_Feturizer/New_Systems/rnas/4XWF

>  <Rbt.Executable>
rbdock ($Id: //depot/dev/client3/rdock/2013.1/src/exe/rbdock.cxx#4 $)

>  <Rbt.Library>
libRbt.so (2013.1, Build901 2013/11/27)

>  <Rbt.Parameter_File>
/export/apps/rDock/src/rDock_2013.1_src/data/scripts/dock_solv.prm

>  <Rbt.Receptor>
prm/blind_docking_60.prm

>  <SCORE>
-9.66541

>  <SCORE.INTER>
-9.01116

>  <SCORE.INTER.CONST>
1

>  <SCORE.INTER.POLAR>
0

>  <SCORE.INTER.ROT>
5

>  <SCORE.INTER.SOLV>
16.3061

>  <SCORE.INTER.VDW>
-18.3762

>  <SCORE.INTER.norm>
-0.409598

>  <SCORE.INTRA>
-0.654247

>  <SCORE.INTRA.DIHEDRAL>
-1.47568

>  <SCORE.INTRA.DIHEDRAL.0>
3.49807

>  <SCORE.INTRA.POLAR>
0

>  <SCORE.INTRA.POLAR.0>
0

>  <SCORE.INTRA.REPUL>
0

>  <SCORE.INTRA.REPUL.0>
0

>  <SCORE.INTRA.SOLV>
0.217208

>  <SCORE.INTRA.SOLV.lig_0>
-73.062

>  <SCORE.INTRA.VDW>
-0.0250126

>  <SCORE.INTRA.VDW.0>
-1.83782

>  <SCORE.INTRA.norm>
-0.0297385

>  <SCORE.RESTR>
0

>  <SCORE.RESTR.CAVITY>
0

>  <SCORE.RESTR.norm>
0

>  <SCORE.SYSTEM>
0

>  <SCORE.SYSTEM.CONST>
0

>  <SCORE.SYSTEM.DIHEDRAL>
0

>  <SCORE.SYSTEM.SOLV>
0

>  <SCORE.SYSTEM.norm>
0

>  <SCORE.heavy>
22

>  <SCORE.norm>
-0.439337

>  <RMSD>
12.756

$$$$
ligand
 OpenBabel11021811513D
libRbt.so/2013.1/901 2013/11/27
 22 23  0  0  0  0  0  0  0  0999 V2000
  -32.8632    6.9787  -20.3614 N   0  0  0  0  0  0  0  0  0  0  0  0
  -32.1761    4.1326  -18.6644 C   0  0  1  0  0  0  0  0  0  0  0  0
  -31.7815    5.0416  -19.7310 O   0  0  0  0  0  0  0  0  0  0  0  0
  -34.2406    2.7145  -21.4833 P   0  0  1  0  0  0  0  0  0  0  0  0
  -32.1573    6.3729  -19.3427 C   0  0  2  0  0  0  0  0  0  0  0  0
  -34.4136    7.3851  -21.8251 N   0  0  0  0  0  0  0  0  0  0  0  0
  -33.1393    7.3538  -17.4012 O   0  0  0  0  0  0  0  0  0  0  0  0
  -33.1117    6.1839  -18.2272 C   0  0  2  0  0  0  0  0  0  0  0  0
  -33.7678   10.8128  -22.2687 N   0  0  0  0  0  0  0  0  0  0  0  0
  -31.4380    5.3161  -16.7805 O   0  0  0  0  0  0  0  0  0  0  0  0
  -32.6123    4.9962  -17.5453 C   0  0  2  0  0  0  0  0  0  0  0  0
  -33.5100    8.3754  -21.8858 C   0  0  0  0  0  0  0  0  0  0  0  0
  -31.4074    8.9400  -20.6926 N   0  0  0  0  0  0  0  0  0  0  0  0
  -33.0755    3.2046  -20.5554 O   0  0  0  0  0  0  0  0  0  0  0  0
  -33.3004    3.3061  -19.1869 C   0  0  0  0  0  0  0  0  0  0  0  0
  -33.7299    3.0799  -22.9242 O   0  0  0  0  0  0  0  0  0  0  0  0
  -34.0059    6.5154  -20.8812 C   0  0  0  0  0  0  0  0  0  0  0  0
  -33.4434    9.3831  -24.0112 O   0  0  0  0  0  0  0  0  0  0  0  0
  -33.5630    9.5348  -22.7956 C   0  0  0  0  0  0  0  0  0  0  0  0
  -32.5323    8.1280  -20.9649 C   0  0  0  0  0  0  0  0  0  0  0  0
  -34.4806    1.2581  -21.2615 O   0  5  0  0  0  0  0  0  0  0  0  0
  -35.5271    3.2937  -21.0567 O   0  0  0  0  0  0  0  0  0  0  0  0
  1 17  1  0  0  0  0
  1 20  1  0  0  0  0
  2 15  1  6  0  0  0
  2  3  1  0  0  0  0
  2 11  1  0  0  0  0
  3  5  1  0  0  0  0
  4 16  1  6  0  0  0
  4 21  1  0  0  0  0
  4 22  2  0  0  0  0
  4 14  1  0  0  0  0
  5  1  1  6  0  0  0
  5  8  1  0  0  0  0
  6 17  2  0  0  0  0
  6 12  1  0  0  0  0
  8  7  1  1  0  0  0
  8 11  1  0  0  0  0
  9 19  1  0  0  0  0
 11 10  1  1  0  0  0
 12 20  2  0  0  0  0
 12 19  1  0  0  0  0
 13 20  1  0  0  0  0
 14 15  1  0  0  0  0
 18 19  2  0  0  0  0
M  CHG  1  21  -1
M  END
>  <CHROM.1>
58.97180153,30.21803462,166.25058508,-164.71419890,112.63111754,-33.25786844
5.73766268,-20.49707091,-1.36475148,1.15460413,2.72080006

>  <Name>
ligand

>  <RI>
0

>  <Rbt.Current_Directory>
/home/itssahil/PROJECTS/Mol_Feturizer/New_Systems/rnas/4XWF

>  <Rbt.Executable>
rbdock ($Id: //depot/dev/client3/rdock/2013.1/src/exe/rbdock.cxx#4 $)

>  <Rbt.Library>
libRbt.so (2013.1, Build901 2013/11/27)

>  <Rbt.Parameter_File>
/export/apps/rDock/src/rDock_2013.1_src/data/scripts/dock_solv.prm

>  <Rbt.Receptor>
prm/blind_docking_80.prm

>  <SCORE>
-8.54587

>  <SCORE.INTER>
-9.98262

>  <SCORE.INTER.CONST>
1

>  <SCORE.INTER.POLAR>
0

>  <SCORE.INTER.ROT>
5

>  <SCORE.INTER.SOLV>
14.9379

>  <SCORE.INTER.VDW>
-18.5677

>  <SCORE.INTER.norm>
-0.453756

>  <SCORE.INTRA>
1.43675

>  <SCORE.INTRA.DIHEDRAL>
2.0317

>  <SCORE.INTRA.DIHEDRAL.0>
3.49807

>  <SCORE.INTRA.POLAR>
0

>  <SCORE.INTRA.POLAR.0>
0

>  <SCORE.INTRA.REPUL>
0

>  <SCORE.INTRA.REPUL.0>
0

>  <SCORE.INTRA.SOLV>
0.330046

>  <SCORE.INTRA.SOLV.lig_0>
-73.062

>  <SCORE.INTRA.VDW>
0.25588

>  <SCORE.INTRA.VDW.0>
-1.83782

>  <SCORE.INTRA.norm>
0.0653069

>  <SCORE.RESTR>
0

>  <SCORE.RESTR.CAVITY>
0

>  <SCORE.RESTR.norm>
0

>  <SCORE.SYSTEM>
0

>  <SCORE.SYSTEM.CONST>
0

>  <SCORE.SYSTEM.DIHEDRAL>
0

>  <SCORE.SYSTEM.SOLV>
0

>  <SCORE.SYSTEM.norm>
0

>  <SCORE.heavy>
22

>  <SCORE.norm>
-0.388449

>  <RMSD>
12.765

$$$$
ligand
 OpenBabel11021811513D
libRbt.so/2013.1/901 2013/11/27
 22 23  0  0  0  0  0  0  0  0999 V2000
  -32.6843    6.7526  -20.6833 N   0  0  0  0  0  0  0  0  0  0  0  0
  -32.3379    3.6532  -19.3693 C   0  0  1  0  0  0  0  0  0  0  0  0
  -31.8558    4.6280  -20.3374 O   0  0  0  0  0  0  0  0  0  0  0  0
  -35.1334    1.0957  -19.4198 P   0  0  1  0  0  0  0  0  0  0  0  0
  -32.0368    5.9385  -19.7770 C   0  0  2  0  0  0  0  0  0  0  0  0
  -34.1214    7.4548  -22.1504 N   0  0  0  0  0  0  0  0  0  0  0  0
  -32.8196    6.7913  -17.6899 O   0  0  0  0  0  0  0  0  0  0  0  0
  -32.9746    5.7391  -18.6494 C   0  0  2  0  0  0  0  0  0  0  0  0
  -33.6364   10.9056  -21.6857 N   0  0  0  0  0  0  0  0  0  0  0  0
  -31.3915    4.4882  -17.3940 O   0  0  0  0  0  0  0  0  0  0  0  0
  -32.6203    4.4212  -18.1369 C   0  0  2  0  0  0  0  0  0  0  0  0
  -33.2736    8.4592  -21.8803 C   0  0  0  0  0  0  0  0  0  0  0  0
  -31.3186    8.7827  -20.3848 N   0  0  0  0  0  0  0  0  0  0  0  0
  -33.8819    1.9836  -19.0968 O   0  0  0  0  0  0  0  0  0  0  0  0
  -33.5783    3.0515  -19.9342 C   0  0  0  0  0  0  0  0  0  0  0  0
  -36.3337    2.0997  -19.2716 O   0  0  0  0  0  0  0  0  0  0  0  0
  -33.7492    6.3936  -21.4097 C   0  0  0  0  0  0  0  0  0  0  0  0
  -33.0773    9.9613  -23.6811 O   0  0  0  0  0  0  0  0  0  0  0  0
  -33.3125    9.8045  -22.4831 C   0  0  0  0  0  0  0  0  0  0  0  0
  -32.3675    8.0256  -20.9550 C   0  0  0  0  0  0  0  0  0  0  0  0
  -34.9885    0.4991  -20.7803 O   0  5  0  0  0  0  0  0  0  0  0  0
  -35.1527   -0.1086  -18.5702 O   0  0  0  0  0  0  0  0  0  0  0  0
  1 17  1  0  0  0  0
  1 20  1  0  0  0  0
  2 15  1  6  0  0  0
  2  3  1  0  0  0  0
  2 11  1  0  0  0  0
  3  5  1  0  0  0  0
  4 16  1  1  0  0  0
  4 21  1  0  0  0  0
  4 22  2  0  0  0  0
  4 14  1  0  0  0  0
  5  1  1  6  0  0  0
  5  8  1  0  0  0  0
  6 17  2  0  0  0  0
  6 12  1  0  0  0  0
  8  7  1  1  0  0  0
  8 11  1  0  0  0  0
  9 19  1  0  0  0  0
 11 10  1  1  0  0  0
 12 20  2  0  0  0  0
 12 19  1  0  0  0  0
 13 20  1  0  0  0  0
 14 15  1  0  0  0  0
 18 19  2  0  0  0  0
M  CHG  1  21  -1
M  END
>  <CHROM.1>
44.36688222,170.49079264,-63.65730800,-178.79324218,112.54600902,-33.42794991
5.12443970,-20.08141251,-1.24916765,0.82971340,2.59060918

>  <Name>
ligand

>  <RI>
0

>  <Rbt.Current_Directory>
/home/itssahil/PROJECTS/Mol_Feturizer/New_Systems/rnas/4XWF

>  <Rbt.Executable>
rbdock ($Id: //depot/dev/client3/rdock/2013.1/src/exe/rbdock.cxx#4 $)

>  <Rbt.Library>
libRbt.so (2013.1, Build901 2013/11/27)

>  <Rbt.Parameter_File>
/export/apps/rDock/src/rDock_2013.1_src/data/scripts/dock_solv.prm

>  <Rbt.Receptor>
prm/blind_docking_80.prm

>  <SCORE>
-9.99722

>  <SCORE.INTER>
-8.79435

>  <SCORE.INTER.CONST>
1

>  <SCORE.INTER.POLAR>
0

>  <SCORE.INTER.ROT>
5

>  <SCORE.INTER.SOLV>
16.0309

>  <SCORE.INTER.VDW>
-18.1399

>  <SCORE.INTER.norm>
-0.399743

>  <SCORE.INTRA>
-1.20288

>  <SCORE.INTRA.DIHEDRAL>
-1.60967

>  <SCORE.INTRA.DIHEDRAL.0>
3.49807

>  <SCORE.INTRA.POLAR>
0

>  <SCORE.INTRA.POLAR.0>
0

>  <SCORE.INTRA.REPUL>
0

>  <SCORE.INTRA.REPUL.0>
0

>  <SCORE.INTRA.SOLV>
-0.397977

>  <SCORE.INTRA.SOLV.lig_0>
-73.062

>  <SCORE.INTRA.VDW>
-0.199054

>  <SCORE.INTRA.VDW.0>
-1.83782

>  <SCORE.INTRA.norm>
-0.0546762

>  <SCORE.RESTR>
0

>  <SCORE.RESTR.CAVITY>
0

>  <SCORE.RESTR.norm>
0

>  <SCORE.SYSTEM>
0

>  <SCORE.SYSTEM.CONST>
0

>  <SCORE.SYSTEM.DIHEDRAL>
0

>  <SCORE.SYSTEM.SOLV>
0

>  <SCORE.SYSTEM.norm>
0

>  <SCORE.heavy>
22

>  <SCORE.norm>
-0.454419

>  <RMSD>
12.765

$$$$
ligand
 OpenBabel11021811513D
libRbt.so/2013.1/901 2013/11/27
 22 23  0  0  0  0  0  0  0  0999 V2000
  -33.4256    6.7592  -20.1068 N   0  0  0  0  0  0  0  0  0  0  0  0
  -32.9642    3.4229  -20.4363 C   0  0  1  0  0  0  0  0  0  0  0  0
  -32.8861    4.7327  -21.0672 O   0  0  0  0  0  0  0  0  0  0  0  0
  -35.7736    0.9279  -19.9459 P   0  0  1  0  0  0  0  0  0  0  0  0
  -32.5495    5.6948  -20.0546 C   0  0  2  0  0  0  0  0  0  0  0  0
  -35.2709    7.9018  -20.0860 N   0  0  0  0  0  0  0  0  0  0  0  0
  -32.0296    5.5884  -17.7277 O   0  0  0  0  0  0  0  0  0  0  0  0
  -32.8112    5.0002  -18.7740 C   0  0  2  0  0  0  0  0  0  0  0  0
  -33.5899   10.9167  -21.2372 N   0  0  0  0  0  0  0  0  0  0  0  0
  -31.0341    3.4579  -19.1066 O   0  0  0  0  0  0  0  0  0  0  0  0
  -32.4623    3.6135  -19.0579 C   0  0  2  0  0  0  0  0  0  0  0  0
  -34.2469    8.7617  -20.1986 C   0  0  0  0  0  0  0  0  0  0  0  0
  -31.7727    8.5785  -20.2908 N   0  0  0  0  0  0  0  0  0  0  0  0
  -34.4067    1.6923  -20.0236 O   0  0  0  0  0  0  0  0  0  0  0  0
  -34.3980    3.0176  -20.4444 C   0  0  0  0  0  0  0  0  0  0  0  0
  -36.3531    1.0800  -21.3990 O   0  0  0  0  0  0  0  0  0  0  0  0
  -34.7580    6.6577  -20.0354 C   0  0  0  0  0  0  0  0  0  0  0  0
  -35.1162   10.8495  -19.5485 O   0  0  0  0  0  0  0  0  0  0  0  0
  -34.3610   10.2287  -20.2964 C   0  0  0  0  0  0  0  0  0  0  0  0
  -33.0814    8.0498  -20.2093 C   0  0  0  0  0  0  0  0  0  0  0  0
  -35.5370   -0.4822  -19.5173 O   0  5  0  0  0  0  0  0  0  0  0  0
  -36.5959    1.4398  -18.8349 O   0  0  0  0  0  0  0  0  0  0  0  0
  1 17  1  0  0  0  0
  1 20  1  0  0  0  0
  2 15  1  1  0  0  0
  2  3  1  0  0  0  0
  2 11  1  0  0  0  0
  3  5  1  0  0  0  0
  4 16  1  6  0  0  0
  4 21  1  0  0  0  0
  4 22  2  0  0  0  0
  4 14  1  0  0  0  0
  5  1  1  6  0  0  0
  5  8  1  0  0  0  0
  6 17  2  0  0  0  0
  6 12  1  0  0  0  0
  8  7  1  1  0  0  0
  8 11  1  0  0  0  0
  9 19  1  0  0  0  0
 11 10  1  6  0  0  0
 12 20  2  0  0  0  0
 12 19  1  0  0  0  0
 13 20  1  0  0  0  0
 14 15  1  0  0  0  0
 18 19  2  0  0  0  0
M  CHG  1  21  -1
M  END
>  <CHROM.1>
55.07658155,171.30755358,55.64033760,-178.61828113,-135.69643609,-34.00661074
4.97896383,-19.91282967,-1.38350749,0.23020498,3.06642140

>  <Name>
ligand

>  <RI>
0

>  <Rbt.Current_Directory>
/home/itssahil/PROJECTS/Mol_Feturizer/New_Systems/rnas/4XWF

>  <Rbt.Executable>
rbdock ($Id: //depot/dev/client3/rdock/2013.1/src/exe/rbdock.cxx#4 $)

>  <Rbt.Library>
libRbt.so (2013.1, Build901 2013/11/27)

>  <Rbt.Parameter_File>
/export/apps/rDock/src/rDock_2013.1_src/data/scripts/dock_solv.prm

>  <Rbt.Receptor>
prm/blind_docking_100.prm

>  <SCORE>
-9.97895

>  <SCORE.INTER>
-9.02028

>  <SCORE.INTER.CONST>
1

>  <SCORE.INTER.POLAR>
0

>  <SCORE.INTER.ROT>
5

>  <SCORE.INTER.SOLV>
13.137

>  <SCORE.INTER.VDW>
-17.3258

>  <SCORE.INTER.norm>
-0.410013

>  <SCORE.INTRA>
-0.958664

>  <SCORE.INTRA.DIHEDRAL>
-1.43116

>  <SCORE.INTRA.DIHEDRAL.0>
3.49807

>  <SCORE.INTRA.POLAR>
0

>  <SCORE.INTRA.POLAR.0>
0

>  <SCORE.INTRA.REPUL>
0

>  <SCORE.INTRA.REPUL.0>
0

>  <SCORE.INTRA.SOLV>
-0.637299

>  <SCORE.INTRA.SOLV.lig_0>
-73.062

>  <SCORE.INTRA.VDW>
0.0755668

>  <SCORE.INTRA.VDW.0>
-1.83782

>  <SCORE.INTRA.norm>
-0.0435756

>  <SCORE.RESTR>
0

>  <SCORE.RESTR.CAVITY>
0

>  <SCORE.RESTR.norm>
0

>  <SCORE.SYSTEM>
0

>  <SCORE.SYSTEM.CONST>
0

>  <SCORE.SYSTEM.DIHEDRAL>
0

>  <SCORE.SYSTEM.SOLV>
0

>  <SCORE.SYSTEM.norm>
0

>  <SCORE.heavy>
22

>  <SCORE.norm>
-0.453589

>  <RMSD>
12.767

$$$$
ligand
 OpenBabel11021811513D
libRbt.so/2013.1/901 2013/11/27
 22 23  0  0  0  0  0  0  0  0999 V2000
  -33.5267    8.3893  -18.9184 N   0  0  0  0  0  0  0  0  0  0  0  0
  -35.0028   10.1392  -21.4107 C   0  0  1  0  0  0  0  0  0  0  0  0
  -34.6814   10.0726  -19.9922 O   0  0  0  0  0  0  0  0  0  0  0  0
  -36.6851    6.7454  -21.4039 P   0  0  1  0  0  0  0  0  0  0  0  0
  -33.4202    9.3985  -19.8530 C   0  0  2  0  0  0  0  0  0  0  0  0
  -34.3882    6.9221  -17.5707 N   0  0  0  0  0  0  0  0  0  0  0  0
  -31.8019    8.5108  -21.3659 O   0  0  0  0  0  0  0  0  0  0  0  0
  -33.2010    8.7375  -21.1591 C   0  0  2  0  0  0  0  0  0  0  0  0
  -32.9958    4.7994  -16.0571 N   0  0  0  0  0  0  0  0  0  0  0  0
  -32.9389   10.8057  -22.2998 O   0  0  0  0  0  0  0  0  0  0  0  0
  -33.7928    9.6639  -22.1165 C   0  0  2  0  0  0  0  0  0  0  0  0
  -33.0532    6.7924  -17.5333 C   0  0  0  0  0  0  0  0  0  0  0  0
  -31.1276    7.8901  -18.6516 N   0  0  0  0  0  0  0  0  0  0  0  0
  -35.7359    7.9784  -21.2111 O   0  0  0  0  0  0  0  0  0  0  0  0
  -36.1613    9.2308  -21.6403 C   0  0  0  0  0  0  0  0  0  0  0  0
  -37.0275    6.7921  -22.9372 O   0  0  0  0  0  0  0  0  0  0  0  0
  -34.6794    7.9193  -18.4277 C   0  0  0  0  0  0  0  0  0  0  0  0
  -31.0839    5.9163  -16.5890 O   0  0  0  0  0  0  0  0  0  0  0  0
  -32.3050    5.8224  -16.7123 C   0  0  0  0  0  0  0  0  0  0  0  0
  -32.5037    7.7109  -18.3817 C   0  0  0  0  0  0  0  0  0  0  0  0
  -35.9887    5.5014  -20.9618 O   0  5  0  0  0  0  0  0  0  0  0  0
  -37.8146    6.8028  -20.4586 O   0  0  0  0  0  0  0  0  0  0  0  0
  1 17  1  0  0  0  0
  1 20  1  0  0  0  0
  2 15  1  1  0  0  0
  2  3  1  0  0  0  0
  2 11  1  0  0  0  0
  3  5  1  0  0  0  0
  4 16  1  6  0  0  0
  4 21  1  0  0  0  0
  4 22  2  0  0  0  0
  4 14  1  0  0  0  0
  5  1  1  1  0  0  0
  5  8  1  0  0  0  0
  6 17  2  0  0  0  0
  6 12  1  0  0  0  0
  8  7  1  6  0  0  0
  8 11  1  0  0  0  0
  9 19  1  0  0  0  0
 11 10  1  1  0  0  0
 12 20  2  0  0  0  0
 12 19  1  0  0  0  0
 13 20  1  0  0  0  0
 14 15  1  0  0  0  0
 18 19  2  0  0  0  0
M  CHG  1  21  -1
M  END
>  <CHROM.1>
13.15332848,-58.12397600,53.59226832,-175.73722631,10.49387494,-34.27350858
7.78334841,-19.96327301,-0.80614411,-0.50770118,-0.77901465

>  <Name>
ligand

>  <RI>
0

>  <Rbt.Current_Directory>
/home/itssahil/PROJECTS/Mol_Feturizer/New_Systems/rnas/4XWF

>  <Rbt.Executable>
rbdock ($Id: //depot/dev/client3/rdock/2013.1/src/exe/rbdock.cxx#4 $)

>  <Rbt.Library>
libRbt.so (2013.1, Build901 2013/11/27)

>  <Rbt.Parameter_File>
/export/apps/rDock/src/rDock_2013.1_src/data/scripts/dock_solv.prm

>  <Rbt.Receptor>
prm/blind_docking_60.prm

>  <SCORE>
-7.85298

>  <SCORE.INTER>
-8.28989

>  <SCORE.INTER.CONST>
1

>  <SCORE.INTER.POLAR>
0

>  <SCORE.INTER.ROT>
5

>  <SCORE.INTER.SOLV>
12.8812

>  <SCORE.INTER.VDW>
-16.7537

>  <SCORE.INTER.norm>
-0.376813

>  <SCORE.INTRA>
0.43691

>  <SCORE.INTRA.DIHEDRAL>
-1.67227

>  <SCORE.INTRA.DIHEDRAL.0>
3.49807

>  <SCORE.INTRA.POLAR>
0

>  <SCORE.INTRA.POLAR.0>
0

>  <SCORE.INTRA.REPUL>
0

>  <SCORE.INTRA.REPUL.0>
0

>  <SCORE.INTRA.SOLV>
1.88503

>  <SCORE.INTRA.SOLV.lig_0>
-73.062

>  <SCORE.INTRA.VDW>
0.330529

>  <SCORE.INTRA.VDW.0>
-1.83782

>  <SCORE.INTRA.norm>
0.0198596

>  <SCORE.RESTR>
0

>  <SCORE.RESTR.CAVITY>
0

>  <SCORE.RESTR.norm>
0

>  <SCORE.SYSTEM>
0

>  <SCORE.SYSTEM.CONST>
0

>  <SCORE.SYSTEM.DIHEDRAL>
0

>  <SCORE.SYSTEM.SOLV>
0

>  <SCORE.SYSTEM.norm>
0

>  <SCORE.heavy>
22

>  <SCORE.norm>
-0.356954

>  <RMSD>
12.771

$$$$
ligand
 OpenBabel11021811513D
libRbt.so/2013.1/901 2013/11/27
 22 23  0  0  0  0  0  0  0  0999 V2000
  -33.2029    6.4102  -20.7710 N   0  0  0  0  0  0  0  0  0  0  0  0
  -32.0205    3.7301  -19.0763 C   0  0  1  0  0  0  0  0  0  0  0  0
  -32.0933    4.4325  -20.3496 O   0  0  0  0  0  0  0  0  0  0  0  0
  -34.7277    1.3207  -20.1786 P   0  0  1  0  0  0  0  0  0  0  0  0
  -32.1546    5.8419  -20.0772 C   0  0  2  0  0  0  0  0  0  0  0  0
  -35.1818    6.7237  -21.6057 N   0  0  0  0  0  0  0  0  0  0  0  0
  -32.0688    7.1886  -18.1087 O   0  0  0  0  0  0  0  0  0  0  0  0
  -32.5048    5.9327  -18.6420 C   0  0  2  0  0  0  0  0  0  0  0  0
  -34.1315    9.3145  -23.8552 N   0  0  0  0  0  0  0  0  0  0  0  0
  -30.4215    5.0223  -17.9504 O   0  0  0  0  0  0  0  0  0  0  0  0
  -31.8349    4.7805  -18.0514 C   0  0  2  0  0  0  0  0  0  0  0  0
  -34.4192    7.7800  -21.9273 C   0  0  0  0  0  0  0  0  0  0  0  0
  -32.0774    8.4807  -21.4934 N   0  0  0  0  0  0  0  0  0  0  0  0
  -33.4205    2.1667  -19.9940 O   0  0  0  0  0  0  0  0  0  0  0  0
  -33.3148    3.0142  -18.8966 C   0  0  0  0  0  0  0  0  0  0  0  0
  -34.7979    0.4751  -18.8555 O   0  0  0  0  0  0  0  0  0  0  0  0
  -34.4216    5.8712  -20.8924 C   0  0  0  0  0  0  0  0  0  0  0  0
  -35.8349    9.6063  -22.3722 O   0  0  0  0  0  0  0  0  0  0  0  0
  -34.8538    8.9474  -22.7165 C   0  0  0  0  0  0  0  0  0  0  0  0
  -33.1725    7.5913  -21.4026 C   0  0  0  0  0  0  0  0  0  0  0  0
  -35.8898    2.2323  -20.3942 O   0  5  0  0  0  0  0  0  0  0  0  0
  -34.6945    0.5790  -21.4520 O   0  0  0  0  0  0  0  0  0  0  0  0
  1 17  1  0  0  0  0
  1 20  1  0  0  0  0
  2 15  1  1  0  0  0
  2  3  1  0  0  0  0
  2 11  1  0  0  0  0
  3  5  1  0  0  0  0
  4 16  1  1  0  0  0
  4 21  1  0  0  0  0
  4 22  2  0  0  0  0
  4 14  1  0  0  0  0
  5  1  1  6  0  0  0
  5  8  1  0  0  0  0
  6 17  2  0  0  0  0
  6 12  1  0  0  0  0
  8  7  1  1  0  0  0
  8 11  1  0  0  0  0
  9 19  1  0  0  0  0
 11 10  1  6  0  0  0
 12 20  2  0  0  0  0
 12 19  1  0  0  0  0
 13 20  1  0  0  0  0
 14 15  1  0  0  0  0
 18 19  2  0  0  0  0
M  CHG  1  21  -1
M  END
>  <CHROM.1>
42.50501429,58.82053902,-58.58043591,-175.87754913,-125.31348620,-33.57992191
5.01402244,-20.36202684,-1.54494526,0.70727667,2.81736851

>  <Name>
ligand

>  <RI>
0

>  <Rbt.Current_Directory>
/home/itssahil/PROJECTS/Mol_Feturizer/New_Systems/rnas/4XWF

>  <Rbt.Executable>
rbdock ($Id: //depot/dev/client3/rdock/2013.1/src/exe/rbdock.cxx#4 $)

>  <Rbt.Library>
libRbt.so (2013.1, Build901 2013/11/27)

>  <Rbt.Parameter_File>
/export/apps/rDock/src/rDock_2013.1_src/data/scripts/dock_solv.prm

>  <Rbt.Receptor>
prm/blind_docking_100.prm

>  <SCORE>
-8.80376

>  <SCORE.INTER>
-7.37072

>  <SCORE.INTER.CONST>
1

>  <SCORE.INTER.POLAR>
0

>  <SCORE.INTER.ROT>
5

>  <SCORE.INTER.SOLV>
16.4415

>  <SCORE.INTER.VDW>
-17.3277

>  <SCORE.INTER.norm>
-0.335033

>  <SCORE.INTRA>
-1.43304

>  <SCORE.INTRA.DIHEDRAL>
-1.89857

>  <SCORE.INTRA.DIHEDRAL.0>
3.49807

>  <SCORE.INTRA.POLAR>
0

>  <SCORE.INTRA.POLAR.0>
0

>  <SCORE.INTRA.REPUL>
0

>  <SCORE.INTRA.REPUL.0>
0

>  <SCORE.INTRA.SOLV>
-0.203493

>  <SCORE.INTRA.SOLV.lig_0>
-73.062

>  <SCORE.INTRA.VDW>
-0.38201

>  <SCORE.INTRA.VDW.0>
-1.83782

>  <SCORE.INTRA.norm>
-0.0651383

>  <SCORE.RESTR>
0

>  <SCORE.RESTR.CAVITY>
0

>  <SCORE.RESTR.norm>
0

>  <SCORE.SYSTEM>
0

>  <SCORE.SYSTEM.CONST>
0

>  <SCORE.SYSTEM.DIHEDRAL>
0

>  <SCORE.SYSTEM.SOLV>
0

>  <SCORE.SYSTEM.norm>
0

>  <SCORE.heavy>
22

>  <SCORE.norm>
-0.400171

>  <RMSD>
12.775

$$$$
ligand
 OpenBabel11021811513D
libRbt.so/2013.1/901 2013/11/27
 22 23  0  0  0  0  0  0  0  0999 V2000
  -33.5258   -6.5738  -14.1605 N   0  0  0  0  0  0  0  0  0  0  0  0
  -34.8609   -3.5180  -14.7370 C   0  0  1  0  0  0  0  0  0  0  0  0
  -33.6851   -4.3719  -14.8284 O   0  0  0  0  0  0  0  0  0  0  0  0
  -35.8082   -1.0267  -12.0455 P   0  0  1  0  0  0  0  0  0  0  0  0
  -34.1301   -5.7185  -15.0586 C   0  0  2  0  0  0  0  0  0  0  0  0
  -32.5705   -7.3188  -12.3596 N   0  0  0  0  0  0  0  0  0  0  0  0
  -36.2485   -6.7642  -15.3976 O   0  0  0  0  0  0  0  0  0  0  0  0
  -35.5701   -5.7023  -14.7166 C   0  0  2  0  0  0  0  0  0  0  0  0
  -31.1110  -10.2079  -13.4375 N   0  0  0  0  0  0  0  0  0  0  0  0
  -36.1164   -4.2998  -16.5555 O   0  0  0  0  0  0  0  0  0  0  0  0
  -36.0051   -4.3719  -15.1242 C   0  0  2  0  0  0  0  0  0  0  0  0
  -32.7375   -8.3495  -13.2023 C   0  0  0  0  0  0  0  0  0  0  0  0
  -33.7143   -8.6574  -15.4639 N   0  0  0  0  0  0  0  0  0  0  0  0
  -35.6157   -1.8412  -13.3714 O   0  0  0  0  0  0  0  0  0  0  0  0
  -34.9681   -3.0707  -13.3197 C   0  0  0  0  0  0  0  0  0  0  0  0
  -36.4618   -2.0739  -11.0725 O   0  0  0  0  0  0  0  0  0  0  0  0
  -33.0557   -6.2154  -12.9601 C   0  0  0  0  0  0  0  0  0  0  0  0
  -33.0725  -10.5049  -12.3196 O   0  0  0  0  0  0  0  0  0  0  0  0
  -32.3348   -9.7449  -12.9466 C   0  0  0  0  0  0  0  0  0  0  0  0
  -33.3412   -7.8888  -14.3375 C   0  0  0  0  0  0  0  0  0  0  0  0
  -34.4914   -0.4930  -11.5880 O   0  5  0  0  0  0  0  0  0  0  0  0
  -36.5578    0.2166  -12.3003 O   0  0  0  0  0  0  0  0  0  0  0  0
  1 17  1  0  0  0  0
  1 20  1  0  0  0  0
  2 15  1  1  0  0  0
  2  3  1  0  0  0  0
  2 11  1  0  0  0  0
  3  5  1  0  0  0  0
  4 16  1  1  0  0  0
  4 21  1  0  0  0  0
  4 22  2  0  0  0  0
  4 14  1  0  0  0  0
  5  1  1  1  0  0  0
  5  8  1  0  0  0  0
  6 17  2  0  0  0  0
  6 12  1  0  0  0  0
  8  7  1  6  0  0  0
  8 11  1  0  0  0  0
  9 19  1  0  0  0  0
 11 10  1  6  0  0  0
 12 20  2  0  0  0  0
 12 19  1  0  0  0  0
 13 20  1  0  0  0  0
 14 15  1  0  0  0  0
 18 19  2  0  0  0  0
M  CHG  1  21  -1
M  END
>  <CHROM.1>
25.06099803,152.09194170,-51.56504253,-175.75455926,-96.41786274,-34.50878797
-5.02500090,-13.59112132,0.88183424,0.97989245,-2.39718939

>  <Name>
ligand

>  <RI>
0

>  <Rbt.Current_Directory>
/home/itssahil/PROJECTS/Mol_Feturizer/New_Systems/rnas/4XWF

>  <Rbt.Executable>
rbdock ($Id: //depot/dev/client3/rdock/2013.1/src/exe/rbdock.cxx#4 $)

>  <Rbt.Library>
libRbt.so (2013.1, Build901 2013/11/27)

>  <Rbt.Parameter_File>
/export/apps/rDock/src/rDock_2013.1_src/data/scripts/dock_solv.prm

>  <Rbt.Receptor>
prm/blind_docking_40.prm

>  <SCORE>
-6.29371

>  <SCORE.INTER>
-7.42663

>  <SCORE.INTER.CONST>
1

>  <SCORE.INTER.POLAR>
0

>  <SCORE.INTER.ROT>
5

>  <SCORE.INTER.SOLV>
24.624

>  <SCORE.INTER.VDW>
-20.0924

>  <SCORE.INTER.norm>
-0.337574

>  <SCORE.INTRA>
0.295365

>  <SCORE.INTRA.DIHEDRAL>
0.994859

>  <SCORE.INTRA.DIHEDRAL.0>
3.49807

>  <SCORE.INTRA.POLAR>
0

>  <SCORE.INTRA.POLAR.0>
0

>  <SCORE.INTRA.REPUL>
0

>  <SCORE.INTRA.REPUL.0>
0

>  <SCORE.INTRA.SOLV>
0.0252029

>  <SCORE.INTRA.SOLV.lig_0>
-73.062

>  <SCORE.INTRA.VDW>
-0.214666

>  <SCORE.INTRA.VDW.0>
-1.83782

>  <SCORE.INTRA.norm>
0.0134257

>  <SCORE.RESTR>
0.837562

>  <SCORE.RESTR.CAVITY>
0.837562

>  <SCORE.RESTR.norm>
0.038071

>  <SCORE.SYSTEM>
0

>  <SCORE.SYSTEM.CONST>
0

>  <SCORE.SYSTEM.DIHEDRAL>
0

>  <SCORE.SYSTEM.SOLV>
0

>  <SCORE.SYSTEM.norm>
0

>  <SCORE.heavy>
22

>  <SCORE.norm>
-0.286078

>  <RMSD>
12.775

$$$$
ligand
 OpenBabel11021811513D
libRbt.so/2013.1/901 2013/11/27
 22 23  0  0  0  0  0  0  0  0999 V2000
  -33.7840    6.4168  -20.5802 N   0  0  0  0  0  0  0  0  0  0  0  0
  -32.1542    3.7842  -19.2143 C   0  0  1  0  0  0  0  0  0  0  0  0
  -32.4379    4.5509  -20.4191 O   0  0  0  0  0  0  0  0  0  0  0  0
  -34.8230    1.3151  -20.2708 P   0  0  1  0  0  0  0  0  0  0  0  0
  -32.6131    5.9258  -20.0406 C   0  0  2  0  0  0  0  0  0  0  0  0
  -35.8797    6.5995  -21.1144 N   0  0  0  0  0  0  0  0  0  0  0  0
  -32.4505    7.1509  -17.9989 O   0  0  0  0  0  0  0  0  0  0  0  0
  -32.8112    5.8897  -18.5742 C   0  0  2  0  0  0  0  0  0  0  0  0
  -37.1994    8.7372  -22.6597 N   0  0  0  0  0  0  0  0  0  0  0  0
  -30.5823    5.1728  -18.1677 O   0  0  0  0  0  0  0  0  0  0  0  0
  -31.9659    4.7841  -18.1404 C   0  0  2  0  0  0  0  0  0  0  0  0
  -35.2356    7.6860  -21.5675 C   0  0  0  0  0  0  0  0  0  0  0  0
  -32.8996    8.5241  -21.5037 N   0  0  0  0  0  0  0  0  0  0  0  0
  -33.5495    2.2201  -20.1378 O   0  0  0  0  0  0  0  0  0  0  0  0
  -33.3406    2.9210  -18.9550 C   0  0  0  0  0  0  0  0  0  0  0  0
  -34.6688    0.6867  -21.7033 O   0  0  0  0  0  0  0  0  0  0  0  0
  -34.9741    5.8096  -20.5066 C   0  0  0  0  0  0  0  0  0  0  0  0
  -35.1798    9.7887  -22.6225 O   0  0  0  0  0  0  0  0  0  0  0  0
  -35.8493    8.8057  -22.3053 C   0  0  0  0  0  0  0  0  0  0  0  0
  -33.9159    7.5797  -21.2322 C   0  0  0  0  0  0  0  0  0  0  0  0
  -34.8514    0.3211  -19.1576 O   0  5  0  0  0  0  0  0  0  0  0  0
  -36.0465    2.0924  -20.0035 O   0  0  0  0  0  0  0  0  0  0  0  0
  1 17  1  0  0  0  0
  1 20  1  0  0  0  0
  2 15  1  1  0  0  0
  2  3  1  0  0  0  0
  2 11  1  0  0  0  0
  3  5  1  0  0  0  0
  4 16  1  6  0  0  0
  4 21  1  0  0  0  0
  4 22  2  0  0  0  0
  4 14  1  0  0  0  0
  5  1  1  6  0  0  0
  5  8  1  0  0  0  0
  6 17  2  0  0  0  0
  6 12  1  0  0  0  0
  8  7  1  1  0  0  0
  8 11  1  0  0  0  0
  9 19  1  0  0  0  0
 11 10  1  6  0  0  0
 12 20  2  0  0  0  0
 12 19  1  0  0  0  0
 13 20  1  0  0  0  0
 14 15  1  0  0  0  0
 18 19  2  0  0  0  0
M  CHG  1  21  -1
M  END
>  <CHROM.1>
48.95960570,53.75422816,-178.59053632,-173.73063667,-4.28460722,-33.99060649
4.98807679,-20.28581611,-1.69003665,0.62731135,2.95710935

>  <Name>
ligand

>  <RI>
0

>  <Rbt.Current_Directory>
/home/itssahil/PROJECTS/Mol_Feturizer/New_Systems/rnas/4XWF

>  <Rbt.Executable>
rbdock ($Id: //depot/dev/client3/rdock/2013.1/src/exe/rbdock.cxx#4 $)

>  <Rbt.Library>
libRbt.so (2013.1, Build901 2013/11/27)

>  <Rbt.Parameter_File>
/export/apps/rDock/src/rDock_2013.1_src/data/scripts/dock_solv.prm

>  <Rbt.Receptor>
prm/blind_docking_80.prm

>  <SCORE>
-9.9011

>  <SCORE.INTER>
-9.0344

>  <SCORE.INTER.CONST>
1

>  <SCORE.INTER.POLAR>
0

>  <SCORE.INTER.ROT>
5

>  <SCORE.INTER.SOLV>
10.2865

>  <SCORE.INTER.VDW>
-16.3851

>  <SCORE.INTER.norm>
-0.410655

>  <SCORE.INTRA>
-0.866698

>  <SCORE.INTRA.DIHEDRAL>
-1.66581

>  <SCORE.INTRA.DIHEDRAL.0>
3.49807

>  <SCORE.INTRA.POLAR>
0

>  <SCORE.INTRA.POLAR.0>
0

>  <SCORE.INTRA.REPUL>
0

>  <SCORE.INTRA.REPUL.0>
0

>  <SCORE.INTRA.SOLV>
0.199325

>  <SCORE.INTRA.SOLV.lig_0>
-73.062

>  <SCORE.INTRA.VDW>
-0.133456

>  <SCORE.INTRA.VDW.0>
-1.83782

>  <SCORE.INTRA.norm>
-0.0393954

>  <SCORE.RESTR>
0

>  <SCORE.RESTR.CAVITY>
0

>  <SCORE.RESTR.norm>
0

>  <SCORE.SYSTEM>
0

>  <SCORE.SYSTEM.CONST>
0

>  <SCORE.SYSTEM.DIHEDRAL>
0

>  <SCORE.SYSTEM.SOLV>
0

>  <SCORE.SYSTEM.norm>
0

>  <SCORE.heavy>
22

>  <SCORE.norm>
-0.45005

>  <RMSD>
12.793

$$$$
ligand
 OpenBabel11021811513D
libRbt.so/2013.1/901 2013/11/27
 22 23  0  0  0  0  0  0  0  0999 V2000
  -32.7026    6.7022  -20.6853 N   0  0  0  0  0  0  0  0  0  0  0  0
  -32.3183    3.5628  -19.4815 C   0  0  1  0  0  0  0  0  0  0  0  0
  -31.8560    4.5728  -20.4228 O   0  0  0  0  0  0  0  0  0  0  0  0
  -35.0503    0.9418  -19.6332 P   0  0  1  0  0  0  0  0  0  0  0  0
  -32.0373    5.8625  -19.8160 C   0  0  2  0  0  0  0  0  0  0  0  0
  -34.1657    7.4443  -22.1064 N   0  0  0  0  0  0  0  0  0  0  0  0
  -32.7960    6.6393  -17.6907 O   0  0  0  0  0  0  0  0  0  0  0  0
  -32.9579    5.6189  -18.6829 C   0  0  2  0  0  0  0  0  0  0  0  0
  -34.4100   10.1531  -23.2455 N   0  0  0  0  0  0  0  0  0  0  0  0
  -31.3494    4.3372  -17.4925 O   0  0  0  0  0  0  0  0  0  0  0  0
  -32.5881    4.2870  -18.2201 C   0  0  2  0  0  0  0  0  0  0  0  0
  -33.3182    8.4437  -21.8172 C   0  0  0  0  0  0  0  0  0  0  0  0
  -31.3413    8.7283  -20.3426 N   0  0  0  0  0  0  0  0  0  0  0  0
  -33.8184    1.8441  -19.2771 O   0  0  0  0  0  0  0  0  0  0  0  0
  -33.5628    2.9720  -20.0491 C   0  0  0  0  0  0  0  0  0  0  0  0
  -34.7302    0.4574  -21.0938 O   0  0  0  0  0  0  0  0  0  0  0  0
  -33.7772    6.3616  -21.4063 C   0  0  0  0  0  0  0  0  0  0  0  0
  -32.5059   10.6349  -22.0930 O   0  0  0  0  0  0  0  0  0  0  0  0
  -33.3725    9.8075  -22.3753 C   0  0  0  0  0  0  0  0  0  0  0  0
  -32.3958    7.9849  -20.9205 C   0  0  0  0  0  0  0  0  0  0  0  0
  -35.1759   -0.1559  -18.6296 O   0  5  0  0  0  0  0  0  0  0  0  0
  -36.3121    1.6754  -19.4273 O   0  0  0  0  0  0  0  0  0  0  0  0
  1 17  1  0  0  0  0
  1 20  1  0  0  0  0
  2 15  1  6  0  0  0
  2  3  1  0  0  0  0
  2 11  1  0  0  0  0
  3  5  1  0  0  0  0
  4 16  1  6  0  0  0
  4 21  1  0  0  0  0
  4 22  2  0  0  0  0
  4 14  1  0  0  0  0
  5  1  1  6  0  0  0
  5  8  1  0  0  0  0
  6 17  2  0  0  0  0
  6 12  1  0  0  0  0
  8  7  1  1  0  0  0
  8 11  1  0  0  0  0
  9 19  1  0  0  0  0
 11 10  1  1  0  0  0
 12 20  2  0  0  0  0
 12 19  1  0  0  0  0
 13 20  1  0  0  0  0
 14 15  1  0  0  0  0
 18 19  2  0  0  0  0
M  CHG  1  21  -1
M  END
>  <CHROM.1>
44.52894082,168.19353456,60.89147120,-178.05001398,2.72848103,-33.41269906
5.03349203,-20.13840212,-1.27587297,0.79489782,2.65225642

>  <Name>
ligand

>  <RI>
0

>  <Rbt.Current_Directory>
/home/itssahil/PROJECTS/Mol_Feturizer/New_Systems/rnas/4XWF

>  <Rbt.Executable>
rbdock ($Id: //depot/dev/client3/rdock/2013.1/src/exe/rbdock.cxx#4 $)

>  <Rbt.Library>
libRbt.so (2013.1, Build901 2013/11/27)

>  <Rbt.Parameter_File>
/export/apps/rDock/src/rDock_2013.1_src/data/scripts/dock_solv.prm

>  <Rbt.Receptor>
prm/blind_docking_80.prm

>  <SCORE>
-10.5862

>  <SCORE.INTER>
-9.51609

>  <SCORE.INTER.CONST>
1

>  <SCORE.INTER.POLAR>
0

>  <SCORE.INTER.ROT>
5

>  <SCORE.INTER.SOLV>
14.0348

>  <SCORE.INTER.VDW>
-17.9557

>  <SCORE.INTER.norm>
-0.432549

>  <SCORE.INTRA>
-1.07015

>  <SCORE.INTRA.DIHEDRAL>
-1.51826

>  <SCORE.INTRA.DIHEDRAL.0>
3.49807

>  <SCORE.INTRA.POLAR>
0

>  <SCORE.INTRA.POLAR.0>
0

>  <SCORE.INTRA.REPUL>
0

>  <SCORE.INTRA.REPUL.0>
0

>  <SCORE.INTRA.SOLV>
-0.500175

>  <SCORE.INTRA.SOLV.lig_0>
-73.062

>  <SCORE.INTRA.VDW>
-0.0609316

>  <SCORE.INTRA.VDW.0>
-1.83782

>  <SCORE.INTRA.norm>
-0.0486432

>  <SCORE.RESTR>
0

>  <SCORE.RESTR.CAVITY>
0

>  <SCORE.RESTR.norm>
0

>  <SCORE.SYSTEM>
0

>  <SCORE.SYSTEM.CONST>
0

>  <SCORE.SYSTEM.DIHEDRAL>
0

>  <SCORE.SYSTEM.SOLV>
0

>  <SCORE.SYSTEM.norm>
0

>  <SCORE.heavy>
22

>  <SCORE.norm>
-0.481193

>  <RMSD>
12.817

$$$$
ligand
 OpenBabel11021811513D
libRbt.so/2013.1/901 2013/11/27
 22 23  0  0  0  0  0  0  0  0999 V2000
  -33.7966    6.2592  -20.5584 N   0  0  0  0  0  0  0  0  0  0  0  0
  -33.3076    2.9111  -20.4968 C   0  0  1  0  0  0  0  0  0  0  0  0
  -33.4125    4.1132  -21.3115 O   0  0  0  0  0  0  0  0  0  0  0  0
  -35.8598    0.5040  -19.0658 P   0  0  1  0  0  0  0  0  0  0  0  0
  -32.8953    5.2148  -20.5477 C   0  0  2  0  0  0  0  0  0  0  0  0
  -35.6712    7.3531  -20.5391 N   0  0  0  0  0  0  0  0  0  0  0  0
  -31.8774    5.4542  -18.4023 O   0  0  0  0  0  0  0  0  0  0  0  0
  -32.8483    4.7171  -19.1545 C   0  0  2  0  0  0  0  0  0  0  0  0
  -36.0621   10.2767  -20.7966 N   0  0  0  0  0  0  0  0  0  0  0  0
  -31.1363    3.1436  -19.6448 O   0  0  0  0  0  0  0  0  0  0  0  0
  -32.5239    3.3039  -19.3052 C   0  0  2  0  0  0  0  0  0  0  0  0
  -34.6667    8.2428  -20.5302 C   0  0  0  0  0  0  0  0  0  0  0  0
  -32.1870    8.1253  -20.5117 N   0  0  0  0  0  0  0  0  0  0  0  0
  -34.5670    1.2609  -19.5287 O   0  0  0  0  0  0  0  0  0  0  0  0
  -34.6945    2.5083  -20.1300 C   0  0  0  0  0  0  0  0  0  0  0  0
  -35.3023   -0.8647  -18.5308 O   0  0  0  0  0  0  0  0  0  0  0  0
  -35.1276    6.1212  -20.5628 C   0  0  0  0  0  0  0  0  0  0  0  0
  -33.8515   10.4352  -20.2729 O   0  0  0  0  0  0  0  0  0  0  0  0
  -34.8160    9.7099  -20.5154 C   0  0  0  0  0  0  0  0  0  0  0  0
  -33.4831    7.5615  -20.5392 C   0  0  0  0  0  0  0  0  0  0  0  0
  -36.5819    1.3204  -18.0460 O   0  5  0  0  0  0  0  0  0  0  0  0
  -36.8512    0.4489  -20.1552 O   0  0  0  0  0  0  0  0  0  0  0  0
  1 17  1  0  0  0  0
  1 20  1  0  0  0  0
  2 15  1  1  0  0  0
  2  3  1  0  0  0  0
  2 11  1  0  0  0  0
  3  5  1  0  0  0  0
  4 16  1  1  0  0  0
  4 21  1  0  0  0  0
  4 22  2  0  0  0  0
  4 14  1  0  0  0  0
  5  1  1  1  0  0  0
  5  8  1  0  0  0  0
  6 17  2  0  0  0  0
  6 12  1  0  0  0  0
  8  7  1  1  0  0  0
  8 11  1  0  0  0  0
  9 19  1  0  0  0  0
 11 10  1  6  0  0  0
 12 20  2  0  0  0  0
 12 19  1  0  0  0  0
 13 20  1  0  0  0  0
 14 15  1  0  0  0  0
 18 19  2  0  0  0  0
M  CHG  1  21  -1
M  END
>  <CHROM.1>
34.71973323,171.41548146,176.81363318,-177.48065251,-13.64023610,-34.25585359
4.54018453,-19.87909153,-1.42521591,0.04354227,2.97729995

>  <Name>
ligand

>  <RI>
0

>  <Rbt.Current_Directory>
/home/itssahil/PROJECTS/Mol_Feturizer/New_Systems/rnas/4XWF

>  <Rbt.Executable>
rbdock ($Id: //depot/dev/client3/rdock/2013.1/src/exe/rbdock.cxx#4 $)

>  <Rbt.Library>
libRbt.so (2013.1, Build901 2013/11/27)

>  <Rbt.Parameter_File>
/export/apps/rDock/src/rDock_2013.1_src/data/scripts/dock_solv.prm

>  <Rbt.Receptor>
prm/blind_docking_80.prm

>  <SCORE>
-9.50644

>  <SCORE.INTER>
-8.87705

>  <SCORE.INTER.CONST>
1

>  <SCORE.INTER.POLAR>
0

>  <SCORE.INTER.ROT>
5

>  <SCORE.INTER.SOLV>
15.5415

>  <SCORE.INTER.VDW>
-18.0319

>  <SCORE.INTER.norm>
-0.403502

>  <SCORE.INTRA>
-0.629392

>  <SCORE.INTRA.DIHEDRAL>
-1.52363

>  <SCORE.INTRA.DIHEDRAL.0>
3.49807

>  <SCORE.INTRA.POLAR>
0

>  <SCORE.INTRA.POLAR.0>
0

>  <SCORE.INTRA.REPUL>
0

>  <SCORE.INTRA.REPUL.0>
0

>  <SCORE.INTRA.SOLV>
0.501547

>  <SCORE.INTRA.SOLV.lig_0>
-73.062

>  <SCORE.INTRA.VDW>
-0.118352

>  <SCORE.INTRA.VDW.0>
-1.83782

>  <SCORE.INTRA.norm>
-0.0286087

>  <SCORE.RESTR>
0

>  <SCORE.RESTR.CAVITY>
0

>  <SCORE.RESTR.norm>
0

>  <SCORE.SYSTEM>
0

>  <SCORE.SYSTEM.CONST>
0

>  <SCORE.SYSTEM.DIHEDRAL>
0

>  <SCORE.SYSTEM.SOLV>
0

>  <SCORE.SYSTEM.norm>
0

>  <SCORE.heavy>
22

>  <SCORE.norm>
-0.432111

>  <RMSD>
12.823

$$$$
ligand
 OpenBabel11021811513D
libRbt.so/2013.1/901 2013/11/27
 22 23  0  0  0  0  0  0  0  0999 V2000
  -33.2497    6.5603  -20.7535 N   0  0  0  0  0  0  0  0  0  0  0  0
  -32.5202    3.3799  -19.8559 C   0  0  1  0  0  0  0  0  0  0  0  0
  -32.3455    4.4401  -20.8384 O   0  0  0  0  0  0  0  0  0  0  0  0
  -35.1796    0.7302  -19.3416 P   0  0  1  0  0  0  0  0  0  0  0  0
  -32.3625    5.6976  -20.1436 C   0  0  2  0  0  0  0  0  0  0  0  0
  -35.0428    7.3229  -21.7095 N   0  0  0  0  0  0  0  0  0  0  0  0
  -32.5091    6.3635  -17.8564 O   0  0  0  0  0  0  0  0  0  0  0  0
  -32.9309    5.3846  -18.8133 C   0  0  2  0  0  0  0  0  0  0  0  0
  -34.5725   10.7283  -21.0000 N   0  0  0  0  0  0  0  0  0  0  0  0
  -31.0448    4.0866  -18.1772 O   0  0  0  0  0  0  0  0  0  0  0  0
  -32.4361    4.0418  -18.5356 C   0  0  2  0  0  0  0  0  0  0  0  0
  -34.1836    8.3423  -21.5568 C   0  0  0  0  0  0  0  0  0  0  0  0
  -31.9137    8.6254  -20.5920 N   0  0  0  0  0  0  0  0  0  0  0  0
  -33.8784    1.6051  -19.3545 O   0  0  0  0  0  0  0  0  0  0  0  0
  -33.8682    2.7881  -20.0854 C   0  0  0  0  0  0  0  0  0  0  0  0
  -36.1389    1.5278  -18.3855 O   0  0  0  0  0  0  0  0  0  0  0  0
  -34.4574    6.2156  -21.2150 C   0  0  0  0  0  0  0  0  0  0  0  0
  -34.4970   10.0301  -23.1662 O   0  0  0  0  0  0  0  0  0  0  0  0
  -34.4195    9.7371  -21.9732 C   0  0  0  0  0  0  0  0  0  0  0  0
  -33.0532    7.8704  -20.9526 C   0  0  0  0  0  0  0  0  0  0  0  0
  -35.6888    0.5665  -20.7351 O   0  5  0  0  0  0  0  0  0  0  0  0
  -34.8685   -0.6633  -18.9756 O   0  0  0  0  0  0  0  0  0  0  0  0
  1 17  1  0  0  0  0
  1 20  1  0  0  0  0
  2 15  1  6  0  0  0
  2  3  1  0  0  0  0
  2 11  1  0  0  0  0
  3  5  1  0  0  0  0
  4 16  1  1  0  0  0
  4 21  1  0  0  0  0
  4 22  2  0  0  0  0
  4 14  1  0  0  0  0
  5  1  1  6  0  0  0
  5  8  1  0  0  0  0
  6 17  2  0  0  0  0
  6 12  1  0  0  0  0
  8  7  1  1  0  0  0
  8 11  1  0  0  0  0
  9 19  1  0  0  0  0
 11 10  1  6  0  0  0
 12 20  2  0  0  0  0
 12 19  1  0  0  0  0
 13 20  1  0  0  0  0
 14 15  1  0  0  0  0
 18 19  2  0  0  0  0
M  CHG  1  21  -1
M  END
>  <CHROM.1>
41.60213608,166.76374649,-75.14064911,178.48091434,111.65253555,-33.78010154
4.86654671,-20.09520316,-1.43982296,0.58049046,2.80626625

>  <Name>
ligand

>  <RI>
0

>  <Rbt.Current_Directory>
/home/itssahil/PROJECTS/Mol_Feturizer/New_Systems/rnas/4XWF

>  <Rbt.Executable>
rbdock ($Id: //depot/dev/client3/rdock/2013.1/src/exe/rbdock.cxx#4 $)

>  <Rbt.Library>
libRbt.so (2013.1, Build901 2013/11/27)

>  <Rbt.Parameter_File>
/export/apps/rDock/src/rDock_2013.1_src/data/scripts/dock_solv.prm

>  <Rbt.Receptor>
prm/blind_docking_80.prm

>  <SCORE>
-10.1274

>  <SCORE.INTER>
-9.27598

>  <SCORE.INTER.CONST>
1

>  <SCORE.INTER.POLAR>
0

>  <SCORE.INTER.ROT>
5

>  <SCORE.INTER.SOLV>
12.938

>  <SCORE.INTER.VDW>
-17.43

>  <SCORE.INTER.norm>
-0.421635

>  <SCORE.INTRA>
-0.851401

>  <SCORE.INTRA.DIHEDRAL>
-0.948082

>  <SCORE.INTRA.DIHEDRAL.0>
3.49807

>  <SCORE.INTRA.POLAR>
0

>  <SCORE.INTRA.POLAR.0>
0

>  <SCORE.INTRA.REPUL>
0

>  <SCORE.INTRA.REPUL.0>
0

>  <SCORE.INTRA.SOLV>
-0.245801

>  <SCORE.INTRA.SOLV.lig_0>
-73.062

>  <SCORE.INTRA.VDW>
-0.254459

>  <SCORE.INTRA.VDW.0>
-1.83782

>  <SCORE.INTRA.norm>
-0.0387

>  <SCORE.RESTR>
0

>  <SCORE.RESTR.CAVITY>
0

>  <SCORE.RESTR.norm>
0

>  <SCORE.SYSTEM>
0

>  <SCORE.SYSTEM.CONST>
0

>  <SCORE.SYSTEM.DIHEDRAL>
0

>  <SCORE.SYSTEM.SOLV>
0

>  <SCORE.SYSTEM.norm>
0

>  <SCORE.heavy>
22

>  <SCORE.norm>
-0.460335

>  <RMSD>
12.827

$$$$
ligand
 OpenBabel11021811513D
libRbt.so/2013.1/901 2013/11/27
 22 23  0  0  0  0  0  0  0  0999 V2000
  -35.1516   -5.3770  -13.2836 N   0  0  0  0  0  0  0  0  0  0  0  0
  -35.0458   -3.0729  -15.7600 C   0  0  1  0  0  0  0  0  0  0  0  0
  -35.5445   -4.3682  -15.3202 O   0  0  0  0  0  0  0  0  0  0  0  0
  -33.0831   -3.7608  -18.5995 P   0  0  1  0  0  0  0  0  0  0  0  0
  -35.7596   -4.3035  -13.9011 C   0  0  2  0  0  0  0  0  0  0  0  0
  -34.4295   -6.7151  -11.7347 N   0  0  0  0  0  0  0  0  0  0  0  0
  -35.5759   -2.6004  -12.2393 O   0  0  0  0  0  0  0  0  0  0  0  0
  -35.0224   -3.0969  -13.4636 C   0  0  2  0  0  0  0  0  0  0  0  0
  -34.1684   -9.7367  -13.0543 N   0  0  0  0  0  0  0  0  0  0  0  0
  -36.4955   -1.6301  -14.6150 O   0  0  0  0  0  0  0  0  0  0  0  0
  -35.1675   -2.1795  -14.5873 C   0  0  2  0  0  0  0  0  0  0  0  0
  -34.1406   -7.2594  -12.9267 C   0  0  0  0  0  0  0  0  0  0  0  0
  -34.5105   -6.6385  -15.3018 N   0  0  0  0  0  0  0  0  0  0  0  0
  -33.6518   -4.1815  -17.2001 O   0  0  0  0  0  0  0  0  0  0  0  0
  -33.6221   -3.2634  -16.1562 C   0  0  0  0  0  0  0  0  0  0  0  0
  -31.6030   -3.3433  -18.2747 O   0  0  0  0  0  0  0  0  0  0  0  0
  -35.0523   -5.5424  -11.9594 C   0  0  0  0  0  0  0  0  0  0  0  0
  -32.2403   -8.5703  -13.3822 O   0  0  0  0  0  0  0  0  0  0  0  0
  -33.4472   -8.5429  -13.1419 C   0  0  0  0  0  0  0  0  0  0  0  0
  -34.5949   -6.4240  -13.9070 C   0  0  0  0  0  0  0  0  0  0  0  0
  -33.2104   -4.8993  -19.5564 O   0  5  0  0  0  0  0  0  0  0  0  0
  -33.9468   -2.7469  -19.2310 O   0  0  0  0  0  0  0  0  0  0  0  0
  1 17  1  0  0  0  0
  1 20  1  0  0  0  0
  2 15  1  1  0  0  0
  2  3  1  0  0  0  0
  2 11  1  0  0  0  0
  3  5  1  0  0  0  0
  4 16  1  1  0  0  0
  4 21  1  0  0  0  0
  4 22  2  0  0  0  0
  4 14  1  0  0  0  0
  5  1  1  1  0  0  0
  5  8  1  0  0  0  0
  6 17  2  0  0  0  0
  6 12  1  0  0  0  0
  8  7  1  1  0  0  0
  8 11  1  0  0  0  0
  9 19  1  0  0  0  0
 11 10  1  1  0  0  0
 12 20  2  0  0  0  0
 12 19  1  0  0  0  0
 13 20  1  0  0  0  0
 14 15  1  0  0  0  0
 18 19  2  0  0  0  0
M  CHG  1  21  -1
M  END
>  <CHROM.1>
173.14403663,61.11428510,57.18167617,119.99190268,81.26199588,-34.24946724
-4.79024107,-15.19853633,1.80865108,-1.02811329,2.38142999

>  <Name>
ligand

>  <RI>
0

>  <Rbt.Current_Directory>
/home/itssahil/PROJECTS/Mol_Feturizer/New_Systems/rnas/4XWF

>  <Rbt.Executable>
rbdock ($Id: //depot/dev/client3/rdock/2013.1/src/exe/rbdock.cxx#4 $)

>  <Rbt.Library>
libRbt.so (2013.1, Build901 2013/11/27)

>  <Rbt.Parameter_File>
/export/apps/rDock/src/rDock_2013.1_src/data/scripts/dock_solv.prm

>  <Rbt.Receptor>
prm/blind_docking_40.prm

>  <SCORE>
-3.37592

>  <SCORE.INTER>
-8.68572

>  <SCORE.INTER.CONST>
1

>  <SCORE.INTER.POLAR>
0

>  <SCORE.INTER.ROT>
5

>  <SCORE.INTER.SOLV>
14.3288

>  <SCORE.INTER.VDW>
-17.5001

>  <SCORE.INTER.norm>
-0.394806

>  <SCORE.INTRA>
5.30939

>  <SCORE.INTRA.DIHEDRAL>
6.41181

>  <SCORE.INTRA.DIHEDRAL.0>
3.49807

>  <SCORE.INTRA.POLAR>
0

>  <SCORE.INTRA.POLAR.0>
0

>  <SCORE.INTRA.REPUL>
0

>  <SCORE.INTRA.REPUL.0>
0

>  <SCORE.INTRA.SOLV>
3.18332

>  <SCORE.INTRA.SOLV.lig_0>
-73.062

>  <SCORE.INTRA.VDW>
0.511831

>  <SCORE.INTRA.VDW.0>
-1.83782

>  <SCORE.INTRA.norm>
0.241336

>  <SCORE.RESTR>
0.000408575

>  <SCORE.RESTR.CAVITY>
0.000408575

>  <SCORE.RESTR.norm>
1.85716e-05

>  <SCORE.SYSTEM>
0

>  <SCORE.SYSTEM.CONST>
0

>  <SCORE.SYSTEM.DIHEDRAL>
0

>  <SCORE.SYSTEM.SOLV>
0

>  <SCORE.SYSTEM.norm>
0

>  <SCORE.heavy>
22

>  <SCORE.norm>
-0.153451

>  <RMSD>
12.829

$$$$
ligand
 OpenBabel11021811513D
libRbt.so/2013.1/901 2013/11/27
 22 23  0  0  0  0  0  0  0  0999 V2000
  -32.7033    6.7692  -20.6831 N   0  0  0  0  0  0  0  0  0  0  0  0
  -32.3204    3.6339  -19.4684 C   0  0  1  0  0  0  0  0  0  0  0  0
  -31.8505    4.6443  -20.4055 O   0  0  0  0  0  0  0  0  0  0  0  0
  -35.0439    1.0057  -19.6437 P   0  0  1  0  0  0  0  0  0  0  0  0
  -32.0455    5.9342  -19.8037 C   0  0  2  0  0  0  0  0  0  0  0  0
  -34.1648    7.5105  -22.1063 N   0  0  0  0  0  0  0  0  0  0  0  0
  -32.8355    6.7114  -17.6899 O   0  0  0  0  0  0  0  0  0  0  0  0
  -32.9797    5.6885  -18.6822 C   0  0  2  0  0  0  0  0  0  0  0  0
  -32.3520   10.2320  -23.3454 N   0  0  0  0  0  0  0  0  0  0  0  0
  -31.3811    4.4164  -17.4684 O   0  0  0  0  0  0  0  0  0  0  0  0
  -32.6099    4.3591  -18.2121 C   0  0  2  0  0  0  0  0  0  0  0  0
  -33.2979    8.5001  -21.8421 C   0  0  0  0  0  0  0  0  0  0  0  0
  -31.3047    8.7775  -20.3882 N   0  0  0  0  0  0  0  0  0  0  0  0
  -33.8229    1.9164  -19.2718 O   0  0  0  0  0  0  0  0  0  0  0  0
  -33.5546    3.0364  -20.0512 C   0  0  0  0  0  0  0  0  0  0  0  0
  -34.7227    0.5581  -21.1158 O   0  0  0  0  0  0  0  0  0  0  0  0
  -33.7892    6.4341  -21.3894 C   0  0  0  0  0  0  0  0  0  0  0  0
  -34.2084   10.6550  -22.0963 O   0  0  0  0  0  0  0  0  0  0  0  0
  -33.3333    9.8543  -22.4249 C   0  0  0  0  0  0  0  0  0  0  0  0
  -32.3764    8.0419  -20.9443 C   0  0  0  0  0  0  0  0  0  0  0  0
  -35.1511   -0.1156  -18.6643 O   0  5  0  0  0  0  0  0  0  0  0  0
  -36.3146    1.7175  -19.4174 O   0  0  0  0  0  0  0  0  0  0  0  0
  1 17  1  0  0  0  0
  1 20  1  0  0  0  0
  2 15  1  6  0  0  0
  2  3  1  0  0  0  0
  2 11  1  0  0  0  0
  3  5  1  0  0  0  0
  4 16  1  6  0  0  0
  4 21  1  0  0  0  0
  4 22  2  0  0  0  0
  4 14  1  0  0  0  0
  5  1  1  6  0  0  0
  5  8  1  0  0  0  0
  6 17  2  0  0  0  0
  6 12  1  0  0  0  0
  8  7  1  1  0  0  0
  8 11  1  0  0  0  0
  9 19  1  0  0  0  0
 11 10  1  1  0  0  0
 12 20  2  0  0  0  0
 12 19  1  0  0  0  0
 13 20  1  0  0  0  0
 14 15  1  0  0  0  0
 18 19  2  0  0  0  0
M  CHG  1  21  -1
M  END
>  <CHROM.1>
46.50053376,168.79017076,58.42305496,-177.75164053,-109.51595115,-33.40700913
5.09732655,-20.14732908,-1.26681716,0.81326328,2.63551085

>  <Name>
ligand

>  <RI>
0

>  <Rbt.Current_Directory>
/home/itssahil/PROJECTS/Mol_Feturizer/New_Systems/rnas/4XWF

>  <Rbt.Executable>
rbdock ($Id: //depot/dev/client3/rdock/2013.1/src/exe/rbdock.cxx#4 $)

>  <Rbt.Library>
libRbt.so (2013.1, Build901 2013/11/27)

>  <Rbt.Parameter_File>
/export/apps/rDock/src/rDock_2013.1_src/data/scripts/dock_solv.prm

>  <Rbt.Receptor>
prm/blind_docking_100.prm

>  <SCORE>
-10.6279

>  <SCORE.INTER>
-9.46193

>  <SCORE.INTER.CONST>
1

>  <SCORE.INTER.POLAR>
0

>  <SCORE.INTER.ROT>
5

>  <SCORE.INTER.SOLV>
14.205

>  <SCORE.INTER.VDW>
-17.9763

>  <SCORE.INTER.norm>
-0.430088

>  <SCORE.INTRA>
-1.16593

>  <SCORE.INTRA.DIHEDRAL>
-1.4207

>  <SCORE.INTRA.DIHEDRAL.0>
3.49807

>  <SCORE.INTRA.POLAR>
0

>  <SCORE.INTRA.POLAR.0>
0

>  <SCORE.INTRA.REPUL>
0

>  <SCORE.INTRA.REPUL.0>
0

>  <SCORE.INTRA.SOLV>
-0.568484

>  <SCORE.INTRA.SOLV.lig_0>
-73.062

>  <SCORE.INTRA.VDW>
-0.171338

>  <SCORE.INTRA.VDW.0>
-1.83782

>  <SCORE.INTRA.norm>
-0.0529968

>  <SCORE.RESTR>
0

>  <SCORE.RESTR.CAVITY>
0

>  <SCORE.RESTR.norm>
0

>  <SCORE.SYSTEM>
0

>  <SCORE.SYSTEM.CONST>
0

>  <SCORE.SYSTEM.DIHEDRAL>
0

>  <SCORE.SYSTEM.SOLV>
0

>  <SCORE.SYSTEM.norm>
0

>  <SCORE.heavy>
22

>  <SCORE.norm>
-0.483085

>  <RMSD>
12.836

$$$$
ligand
 OpenBabel11021811513D
libRbt.so/2013.1/901 2013/11/27
 22 23  0  0  0  0  0  0  0  0999 V2000
  -35.1879   -5.4132  -13.4290 N   0  0  0  0  0  0  0  0  0  0  0  0
  -35.2363   -3.0980  -15.8968 C   0  0  1  0  0  0  0  0  0  0  0  0
  -35.7391   -4.3763  -15.4142 O   0  0  0  0  0  0  0  0  0  0  0  0
  -32.7601   -3.5860  -18.7165 P   0  0  1  0  0  0  0  0  0  0  0  0
  -35.8116   -4.3132  -13.9806 C   0  0  2  0  0  0  0  0  0  0  0  0
  -34.3744   -6.7908  -11.9622 N   0  0  0  0  0  0  0  0  0  0  0  0
  -35.4008   -2.6297  -12.3397 O   0  0  0  0  0  0  0  0  0  0  0  0
  -34.9893   -3.1384  -13.6139 C   0  0  2  0  0  0  0  0  0  0  0  0
  -32.2218   -8.8076  -13.2431 N   0  0  0  0  0  0  0  0  0  0  0  0
  -36.5105   -1.6089  -14.6108 O   0  0  0  0  0  0  0  0  0  0  0  0
  -35.2083   -2.2086  -14.7151 C   0  0  2  0  0  0  0  0  0  0  0  0
  -34.2157   -7.3329  -13.1794 C   0  0  0  0  0  0  0  0  0  0  0  0
  -34.7800   -6.6760  -15.5061 N   0  0  0  0  0  0  0  0  0  0  0  0
  -33.9831   -3.2085  -17.8107 O   0  0  0  0  0  0  0  0  0  0  0  0
  -33.8667   -3.3397  -16.4312 C   0  0  0  0  0  0  0  0  0  0  0  0
  -32.8222   -5.1557  -18.7675 O   0  0  0  0  0  0  0  0  0  0  0  0
  -34.9733   -5.5951  -12.1208 C   0  0  0  0  0  0  0  0  0  0  0  0
  -34.2610   -9.5684  -13.9127 O   0  0  0  0  0  0  0  0  0  0  0  0
  -33.5909   -8.6375  -13.4662 C   0  0  0  0  0  0  0  0  0  0  0  0
  -34.7283   -6.4726  -14.1081 C   0  0  0  0  0  0  0  0  0  0  0  0
  -32.8927   -2.9169  -20.0441 O   0  5  0  0  0  0  0  0  0  0  0  0
  -31.5208   -2.9765  -18.2016 O   0  0  0  0  0  0  0  0  0  0  0  0
  1 17  1  0  0  0  0
  1 20  1  0  0  0  0
  2 15  1  1  0  0  0
  2  3  1  0  0  0  0
  2 11  1  0  0  0  0
  3  5  1  0  0  0  0
  4 16  1  6  0  0  0
  4 21  1  0  0  0  0
  4 22  2  0  0  0  0
  4 14  1  0  0  0  0
  5  1  1  1  0  0  0
  5  8  1  0  0  0  0
  6 17  2  0  0  0  0
  6 12  1  0  0  0  0
  8  7  1  1  0  0  0
  8 11  1  0  0  0  0
  9 19  1  0  0  0  0
 11 10  1  1  0  0  0
 12 20  2  0  0  0  0
 12 19  1  0  0  0  0
 13 20  1  0  0  0  0
 14 15  1  0  0  0  0
 18 19  2  0  0  0  0
M  CHG  1  21  -1
M  END
>  <CHROM.1>
173.57815537,109.33635810,78.51653071,-172.01714579,-67.81577163,-34.21909461
-4.76276620,-15.37005308,1.91236336,-1.00346000,2.49798396

>  <Name>
ligand

>  <RI>
0

>  <Rbt.Current_Directory>
/home/itssahil/PROJECTS/Mol_Feturizer/New_Systems/rnas/4XWF

>  <Rbt.Executable>
rbdock ($Id: //depot/dev/client3/rdock/2013.1/src/exe/rbdock.cxx#4 $)

>  <Rbt.Library>
libRbt.so (2013.1, Build901 2013/11/27)

>  <Rbt.Parameter_File>
/export/apps/rDock/src/rDock_2013.1_src/data/scripts/dock_solv.prm

>  <Rbt.Receptor>
prm/blind_docking_40.prm

>  <SCORE>
-1.86151

>  <SCORE.INTER>
-6.10855

>  <SCORE.INTER.CONST>
1

>  <SCORE.INTER.POLAR>
0

>  <SCORE.INTER.ROT>
5

>  <SCORE.INTER.SOLV>
20.1301

>  <SCORE.INTER.VDW>
-17.7157

>  <SCORE.INTER.norm>
-0.277661

>  <SCORE.INTRA>
4.16745

>  <SCORE.INTRA.DIHEDRAL>
5.14473

>  <SCORE.INTRA.DIHEDRAL.0>
3.49807

>  <SCORE.INTRA.POLAR>
0

>  <SCORE.INTRA.POLAR.0>
0

>  <SCORE.INTRA.REPUL>
0

>  <SCORE.INTRA.REPUL.0>
0

>  <SCORE.INTRA.SOLV>
2.08877

>  <SCORE.INTRA.SOLV.lig_0>
-73.062

>  <SCORE.INTRA.VDW>
0.550704

>  <SCORE.INTRA.VDW.0>
-1.83782

>  <SCORE.INTRA.norm>
0.18943

>  <SCORE.RESTR>
0.0795824

>  <SCORE.RESTR.CAVITY>
0.0795824

>  <SCORE.RESTR.norm>
0.00361738

>  <SCORE.SYSTEM>
0

>  <SCORE.SYSTEM.CONST>
0

>  <SCORE.SYSTEM.DIHEDRAL>
0

>  <SCORE.SYSTEM.SOLV>
0

>  <SCORE.SYSTEM.norm>
0

>  <SCORE.heavy>
22

>  <SCORE.norm>
-0.0846143

>  <RMSD>
12.846

$$$$
ligand
 OpenBabel11021811513D
libRbt.so/2013.1/901 2013/11/27
 22 23  0  0  0  0  0  0  0  0999 V2000
  -34.1827   -5.8977  -13.8279 N   0  0  0  0  0  0  0  0  0  0  0  0
  -34.7134   -3.7294  -16.3715 C   0  0  1  0  0  0  0  0  0  0  0  0
  -34.9144   -5.0757  -15.8550 O   0  0  0  0  0  0  0  0  0  0  0  0
  -32.3436   -2.8736  -19.1008 P   0  0  1  0  0  0  0  0  0  0  0  0
  -35.0333   -4.9907  -14.4256 C   0  0  2  0  0  0  0  0  0  0  0  0
  -32.5965   -6.7206  -12.5960 N   0  0  0  0  0  0  0  0  0  0  0  0
  -35.0660   -3.2119  -12.8349 O   0  0  0  0  0  0  0  0  0  0  0  0
  -34.5173   -3.6460  -14.0848 C   0  0  2  0  0  0  0  0  0  0  0  0
  -33.9616  -10.1076  -13.0010 N   0  0  0  0  0  0  0  0  0  0  0  0
  -36.3301   -2.5447  -15.1562 O   0  0  0  0  0  0  0  0  0  0  0  0
  -34.9217   -2.8250  -15.2195 C   0  0  2  0  0  0  0  0  0  0  0  0
  -33.2439   -7.7398  -13.1814 C   0  0  0  0  0  0  0  0  0  0  0  0
  -35.1764   -7.9682  -14.7230 N   0  0  0  0  0  0  0  0  0  0  0  0
  -33.3393   -2.7179  -17.8995 O   0  0  0  0  0  0  0  0  0  0  0  0
  -33.3130   -3.6583  -16.8755 C   0  0  0  0  0  0  0  0  0  0  0  0
  -30.9929   -3.2656  -18.3991 O   0  0  0  0  0  0  0  0  0  0  0  0
  -33.1782   -5.5767  -13.0043 C   0  0  0  0  0  0  0  0  0  0  0  0
  -31.7594   -9.5406  -12.8800 O   0  0  0  0  0  0  0  0  0  0  0  0
  -32.9252   -9.1702  -13.0172 C   0  0  0  0  0  0  0  0  0  0  0  0
  -34.2461   -7.2297  -13.9564 C   0  0  0  0  0  0  0  0  0  0  0  0
  -32.8651   -3.8949  -20.0564 O   0  5  0  0  0  0  0  0  0  0  0  0
  -32.3414   -1.6604  -19.9380 O   0  0  0  0  0  0  0  0  0  0  0  0
  1 17  1  0  0  0  0
  1 20  1  0  0  0  0
  2 15  1  1  0  0  0
  2  3  1  0  0  0  0
  2 11  1  0  0  0  0
  3  5  1  0  0  0  0
  4 16  1  1  0  0  0
  4 21  1  0  0  0  0
  4 22  2  0  0  0  0
  4 14  1  0  0  0  0
  5  1  1  1  0  0  0
  5  8  1  0  0  0  0
  6 17  2  0  0  0  0
  6 12  1  0  0  0  0
  8  7  1  1  0  0  0
  8 11  1  0  0  0  0
  9 19  1  0  0  0  0
 11 10  1  1  0  0  0
 12 20  2  0  0  0  0
 12 19  1  0  0  0  0
 13 20  1  0  0  0  0
 14 15  1  0  0  0  0
 18 19  2  0  0  0  0
M  CHG  1  21  -1
M  END
>  <CHROM.1>
118.61860175,151.00719969,-42.81709990,-149.03591608,144.44061187,-33.63605435
-4.96899904,-15.60403226,1.70737550,-0.84506675,2.43169455

>  <Name>
ligand

>  <RI>
0

>  <Rbt.Current_Directory>
/home/itssahil/PROJECTS/Mol_Feturizer/New_Systems/rnas/4XWF

>  <Rbt.Executable>
rbdock ($Id: //depot/dev/client3/rdock/2013.1/src/exe/rbdock.cxx#4 $)

>  <Rbt.Library>
libRbt.so (2013.1, Build901 2013/11/27)

>  <Rbt.Parameter_File>
/export/apps/rDock/src/rDock_2013.1_src/data/scripts/dock_solv.prm

>  <Rbt.Receptor>
prm/blind_docking_40.prm

>  <SCORE>
-0.292778

>  <SCORE.INTER>
-5.26305

>  <SCORE.INTER.CONST>
1

>  <SCORE.INTER.POLAR>
0

>  <SCORE.INTER.ROT>
5

>  <SCORE.INTER.SOLV>
17.7203

>  <SCORE.INTER.VDW>
-16.3488

>  <SCORE.INTER.norm>
-0.23923

>  <SCORE.INTRA>
4.89359

>  <SCORE.INTRA.DIHEDRAL>
5.21884

>  <SCORE.INTRA.DIHEDRAL.0>
3.49807

>  <SCORE.INTRA.POLAR>
0

>  <SCORE.INTRA.POLAR.0>
0

>  <SCORE.INTRA.REPUL>
0

>  <SCORE.INTRA.REPUL.0>
0

>  <SCORE.INTRA.SOLV>
-0.404067

>  <SCORE.INTRA.SOLV.lig_0>
-73.062

>  <SCORE.INTRA.VDW>
2.4862

>  <SCORE.INTRA.VDW.0>
-1.83782

>  <SCORE.INTRA.norm>
0.222436

>  <SCORE.RESTR>
0.0766844

>  <SCORE.RESTR.CAVITY>
0.0766844

>  <SCORE.RESTR.norm>
0.00348565

>  <SCORE.SYSTEM>
0

>  <SCORE.SYSTEM.CONST>
0

>  <SCORE.SYSTEM.DIHEDRAL>
0

>  <SCORE.SYSTEM.SOLV>
0

>  <SCORE.SYSTEM.norm>
0

>  <SCORE.heavy>
22

>  <SCORE.norm>
-0.0133081

>  <RMSD>
12.851

$$$$
ligand
 OpenBabel11021811513D
libRbt.so/2013.1/901 2013/11/27
 22 23  0  0  0  0  0  0  0  0999 V2000
  -33.2571    6.5473  -20.7962 N   0  0  0  0  0  0  0  0  0  0  0  0
  -32.5237    3.3822  -19.8495 C   0  0  1  0  0  0  0  0  0  0  0  0
  -32.3426    4.4304  -20.8436 O   0  0  0  0  0  0  0  0  0  0  0  0
  -35.1852    0.7393  -19.3125 P   0  0  1  0  0  0  0  0  0  0  0  0
  -32.3730    5.6967  -20.1653 C   0  0  2  0  0  0  0  0  0  0  0  0
  -35.0610    7.3042  -21.7366 N   0  0  0  0  0  0  0  0  0  0  0  0
  -32.5482    6.3913  -17.8888 O   0  0  0  0  0  0  0  0  0  0  0  0
  -32.9549    5.3982  -18.8376 C   0  0  2  0  0  0  0  0  0  0  0  0
  -34.5080   10.7255  -21.2467 N   0  0  0  0  0  0  0  0  0  0  0  0
  -31.0703    4.1171  -18.1636 O   0  0  0  0  0  0  0  0  0  0  0  0
  -32.4573    4.0614  -18.5370 C   0  0  2  0  0  0  0  0  0  0  0  0
  -34.1697    8.3053  -21.6735 C   0  0  0  0  0  0  0  0  0  0  0  0
  -31.8609    8.5787  -20.8028 N   0  0  0  0  0  0  0  0  0  0  0  0
  -33.8834    1.6131  -19.3321 O   0  0  0  0  0  0  0  0  0  0  0  0
  -33.8664    2.7813  -20.0863 C   0  0  0  0  0  0  0  0  0  0  0  0
  -36.1344    1.5310  -18.3415 O   0  0  0  0  0  0  0  0  0  0  0  0
  -34.4890    6.2113  -21.1962 C   0  0  0  0  0  0  0  0  0  0  0  0
  -34.4635    9.9077  -23.3715 O   0  0  0  0  0  0  0  0  0  0  0  0
  -34.3820    9.6794  -22.1647 C   0  0  0  0  0  0  0  0  0  0  0  0
  -33.0323    7.8372  -21.0798 C   0  0  0  0  0  0  0  0  0  0  0  0
  -35.7081    0.5858  -20.7021 O   0  5  0  0  0  0  0  0  0  0  0  0
  -34.8718   -0.6570  -18.9594 O   0  0  0  0  0  0  0  0  0  0  0  0
  1 17  1  0  0  0  0
  1 20  1  0  0  0  0
  2 15  1  6  0  0  0
  2  3  1  0  0  0  0
  2 11  1  0  0  0  0
  3  5  1  0  0  0  0
  4 16  1  1  0  0  0
  4 21  1  0  0  0  0
  4 22  2  0  0  0  0
  4 14  1  0  0  0  0
  5  1  1  6  0  0  0
  5  8  1  0  0  0  0
  6 17  2  0  0  0  0
  6 12  1  0  0  0  0
  8  7  1  1  0  0  0
  8 11  1  0  0  0  0
  9 19  1  0  0  0  0
 11 10  1  6  0  0  0
 12 20  2  0  0  0  0
 12 19  1  0  0  0  0
 13 20  1  0  0  0  0
 14 15  1  0  0  0  0
 18 19  2  0  0  0  0
M  CHG  1  21  -1
M  END
>  <CHROM.1>
45.75636520,167.21805307,-77.00456911,178.07257895,110.05122066,-33.78000474
4.85840060,-20.13729391,-1.43431235,0.59171856,2.77805983

>  <Name>
ligand

>  <RI>
0

>  <Rbt.Current_Directory>
/home/itssahil/PROJECTS/Mol_Feturizer/New_Systems/rnas/4XWF

>  <Rbt.Executable>
rbdock ($Id: //depot/dev/client3/rdock/2013.1/src/exe/rbdock.cxx#4 $)

>  <Rbt.Library>
libRbt.so (2013.1, Build901 2013/11/27)

>  <Rbt.Parameter_File>
/export/apps/rDock/src/rDock_2013.1_src/data/scripts/dock_solv.prm

>  <Rbt.Receptor>
prm/blind_docking_100.prm

>  <SCORE>
-10.1624

>  <SCORE.INTER>
-9.35693

>  <SCORE.INTER.CONST>
1

>  <SCORE.INTER.POLAR>
0

>  <SCORE.INTER.ROT>
5

>  <SCORE.INTER.SOLV>
12.9746

>  <SCORE.INTER.VDW>
-17.4962

>  <SCORE.INTER.norm>
-0.425315

>  <SCORE.INTRA>
-0.805474

>  <SCORE.INTRA.DIHEDRAL>
-0.85256

>  <SCORE.INTRA.DIHEDRAL.0>
3.49807

>  <SCORE.INTRA.POLAR>
0

>  <SCORE.INTRA.POLAR.0>
0

>  <SCORE.INTRA.REPUL>
0

>  <SCORE.INTRA.REPUL.0>
0

>  <SCORE.INTRA.SOLV>
-0.365841

>  <SCORE.INTRA.SOLV.lig_0>
-73.062

>  <SCORE.INTRA.VDW>
-0.196273

>  <SCORE.INTRA.VDW.0>
-1.83782

>  <SCORE.INTRA.norm>
-0.0366124

>  <SCORE.RESTR>
0

>  <SCORE.RESTR.CAVITY>
0

>  <SCORE.RESTR.norm>
0

>  <SCORE.SYSTEM>
0

>  <SCORE.SYSTEM.CONST>
0

>  <SCORE.SYSTEM.DIHEDRAL>
0

>  <SCORE.SYSTEM.SOLV>
0

>  <SCORE.SYSTEM.norm>
0

>  <SCORE.heavy>
22

>  <SCORE.norm>
-0.461927

>  <RMSD>
12.864

$$$$
ligand
 OpenBabel11021811513D
libRbt.so/2013.1/901 2013/11/27
 22 23  0  0  0  0  0  0  0  0999 V2000
  -35.1292   -5.4327  -13.5120 N   0  0  0  0  0  0  0  0  0  0  0  0
  -35.2348   -3.0410  -15.9039 C   0  0  1  0  0  0  0  0  0  0  0  0
  -35.7050   -4.3468  -15.4636 O   0  0  0  0  0  0  0  0  0  0  0  0
  -32.7662   -3.6804  -18.7042 P   0  0  1  0  0  0  0  0  0  0  0  0
  -35.7805   -4.3319  -14.0289 C   0  0  2  0  0  0  0  0  0  0  0  0
  -34.2881   -6.8394  -12.0890 N   0  0  0  0  0  0  0  0  0  0  0  0
  -35.4144   -2.6923  -12.3338 O   0  0  0  0  0  0  0  0  0  0  0  0
  -34.9889   -3.1489  -13.6230 C   0  0  2  0  0  0  0  0  0  0  0  0
  -33.5586   -9.6893  -12.7788 N   0  0  0  0  0  0  0  0  0  0  0  0
  -36.5480   -1.6275  -14.5727 O   0  0  0  0  0  0  0  0  0  0  0  0
  -35.2307   -2.1899  -14.6940 C   0  0  2  0  0  0  0  0  0  0  0  0
  -34.1026   -7.3310  -13.3237 C   0  0  0  0  0  0  0  0  0  0  0  0
  -34.6655   -6.6051  -15.6301 N   0  0  0  0  0  0  0  0  0  0  0  0
  -34.0184   -3.3517  -17.8196 O   0  0  0  0  0  0  0  0  0  0  0  0
  -33.8589   -3.2301  -16.4435 C   0  0  0  0  0  0  0  0  0  0  0  0
  -32.8151   -5.2466  -18.8277 O   0  0  0  0  0  0  0  0  0  0  0  0
  -34.9209   -5.6567  -12.2093 C   0  0  0  0  0  0  0  0  0  0  0  0
  -32.7652   -8.7148  -14.6779 O   0  0  0  0  0  0  0  0  0  0  0  0
  -33.4367   -8.6051  -13.6521 C   0  0  0  0  0  0  0  0  0  0  0  0
  -34.6323   -6.4523  -14.2251 C   0  0  0  0  0  0  0  0  0  0  0  0
  -32.8642   -2.9527  -20.0037 O   0  5  0  0  0  0  0  0  0  0  0  0
  -31.5473   -3.0874  -18.1253 O   0  0  0  0  0  0  0  0  0  0  0  0
  1 17  1  0  0  0  0
  1 20  1  0  0  0  0
  2 15  1  1  0  0  0
  2  3  1  0  0  0  0
  2 11  1  0  0  0  0
  3  5  1  0  0  0  0
  4 16  1  6  0  0  0
  4 21  1  0  0  0  0
  4 22  2  0  0  0  0
  4 14  1  0  0  0  0
  5  1  1  1  0  0  0
  5  8  1  0  0  0  0
  6 17  2  0  0  0  0
  6 12  1  0  0  0  0
  8  7  1  1  0  0  0
  8 11  1  0  0  0  0
  9 19  1  0  0  0  0
 11 10  1  1  0  0  0
 12 20  2  0  0  0  0
 12 19  1  0  0  0  0
 13 20  1  0  0  0  0
 14 15  1  0  0  0  0
 18 19  2  0  0  0  0
M  CHG  1  21  -1
M  END
>  <CHROM.1>
174.16099142,96.62310569,93.88130157,-175.13535718,33.42903770,-34.17898081
-4.78232709,-15.42027599,1.89413282,-1.00037695,2.47240061

>  <Name>
ligand

>  <RI>
0

>  <Rbt.Current_Directory>
/home/itssahil/PROJECTS/Mol_Feturizer/New_Systems/rnas/4XWF

>  <Rbt.Executable>
rbdock ($Id: //depot/dev/client3/rdock/2013.1/src/exe/rbdock.cxx#4 $)

>  <Rbt.Library>
libRbt.so (2013.1, Build901 2013/11/27)

>  <Rbt.Parameter_File>
/export/apps/rDock/src/rDock_2013.1_src/data/scripts/dock_solv.prm

>  <Rbt.Receptor>
prm/blind_docking_40.prm

>  <SCORE>
-2.51234

>  <SCORE.INTER>
-6.58613

>  <SCORE.INTER.CONST>
1

>  <SCORE.INTER.POLAR>
0

>  <SCORE.INTER.ROT>
5

>  <SCORE.INTER.SOLV>
19.9381

>  <SCORE.INTER.VDW>
-17.9701

>  <SCORE.INTER.norm>
-0.29937

>  <SCORE.INTRA>
3.94639

>  <SCORE.INTRA.DIHEDRAL>
3.94467

>  <SCORE.INTRA.DIHEDRAL.0>
3.49807

>  <SCORE.INTRA.POLAR>
0

>  <SCORE.INTRA.POLAR.0>
0

>  <SCORE.INTRA.REPUL>
0

>  <SCORE.INTRA.REPUL.0>
0

>  <SCORE.INTRA.SOLV>
2.55603

>  <SCORE.INTRA.SOLV.lig_0>
-73.062

>  <SCORE.INTRA.VDW>
0.696037

>  <SCORE.INTRA.VDW.0>
-1.83782

>  <SCORE.INTRA.norm>
0.179381

>  <SCORE.RESTR>
0.127411

>  <SCORE.RESTR.CAVITY>
0.127411

>  <SCORE.RESTR.norm>
0.00579139

>  <SCORE.SYSTEM>
0

>  <SCORE.SYSTEM.CONST>
0

>  <SCORE.SYSTEM.DIHEDRAL>
0

>  <SCORE.SYSTEM.SOLV>
0

>  <SCORE.SYSTEM.norm>
0

>  <SCORE.heavy>
22

>  <SCORE.norm>
-0.114197

>  <RMSD>
12.869

$$$$
ligand
 OpenBabel11021811513D
libRbt.so/2013.1/901 2013/11/27
 22 23  0  0  0  0  0  0  0  0999 V2000
  -32.7449    6.7901  -20.7101 N   0  0  0  0  0  0  0  0  0  0  0  0
  -32.3357    3.6444  -19.5311 C   0  0  1  0  0  0  0  0  0  0  0  0
  -31.8788    4.6669  -20.4615 O   0  0  0  0  0  0  0  0  0  0  0  0
  -35.0669    1.0230  -19.6888 P   0  0  1  0  0  0  0  0  0  0  0  0
  -32.0756    5.9495  -19.8448 C   0  0  2  0  0  0  0  0  0  0  0  0
  -34.2401    7.5507  -22.0874 N   0  0  0  0  0  0  0  0  0  0  0  0
  -32.8523    6.7007  -17.7167 O   0  0  0  0  0  0  0  0  0  0  0  0
  -32.9993    5.6873  -18.7183 C   0  0  2  0  0  0  0  0  0  0  0  0
  -32.3790   10.2248  -23.3955 N   0  0  0  0  0  0  0  0  0  0  0  0
  -31.3842    4.4112  -17.5309 O   0  0  0  0  0  0  0  0  0  0  0  0
  -32.6187    4.3551  -18.2650 C   0  0  2  0  0  0  0  0  0  0  0  0
  -33.3391    8.5209  -21.8694 C   0  0  0  0  0  0  0  0  0  0  0  0
  -31.2858    8.7651  -20.4954 N   0  0  0  0  0  0  0  0  0  0  0  0
  -33.8415    1.9310  -19.3247 O   0  0  0  0  0  0  0  0  0  0  0  0
  -33.5715    3.0464  -20.1100 C   0  0  0  0  0  0  0  0  0  0  0  0
  -34.7381    0.5451  -21.1496 O   0  0  0  0  0  0  0  0  0  0  0  0
  -33.8650    6.4742  -21.3705 C   0  0  0  0  0  0  0  0  0  0  0  0
  -34.2289   10.6814  -22.1485 O   0  0  0  0  0  0  0  0  0  0  0  0
  -33.3623    9.8681  -22.4688 C   0  0  0  0  0  0  0  0  0  0  0  0
  -32.3961    8.0505  -21.0007 C   0  0  0  0  0  0  0  0  0  0  0  0
  -35.1905   -0.0786  -18.6892 O   0  5  0  0  0  0  0  0  0  0  0  0
  -36.3336    1.7489  -19.4858 O   0  0  0  0  0  0  0  0  0  0  0  0
  1 17  1  0  0  0  0
  1 20  1  0  0  0  0
  2 15  1  6  0  0  0
  2  3  1  0  0  0  0
  2 11  1  0  0  0  0
  3  5  1  0  0  0  0
  4 16  1  6  0  0  0
  4 21  1  0  0  0  0
  4 22  2  0  0  0  0
  4 14  1  0  0  0  0
  5  1  1  6  0  0  0
  5  8  1  0  0  0  0
  6 17  2  0  0  0  0
  6 12  1  0  0  0  0
  8  7  1  1  0  0  0
  8 11  1  0  0  0  0
  9 19  1  0  0  0  0
 11 10  1  1  0  0  0
 12 20  2  0  0  0  0
 12 19  1  0  0  0  0
 13 20  1  0  0  0  0
 14 15  1  0  0  0  0
 18 19  2  0  0  0  0
M  CHG  1  21  -1
M  END
>  <CHROM.1>
49.29424125,169.85853513,59.47815873,-177.91803840,-111.76736086,-33.43200370
5.11002303,-20.19105045,-1.27227214,0.80123973,2.64176318

>  <Name>
ligand

>  <RI>
0

>  <Rbt.Current_Directory>
/home/itssahil/PROJECTS/Mol_Feturizer/New_Systems/rnas/4XWF

>  <Rbt.Executable>
rbdock ($Id: //depot/dev/client3/rdock/2013.1/src/exe/rbdock.cxx#4 $)

>  <Rbt.Library>
libRbt.so (2013.1, Build901 2013/11/27)

>  <Rbt.Parameter_File>
/export/apps/rDock/src/rDock_2013.1_src/data/scripts/dock_solv.prm

>  <Rbt.Receptor>
prm/blind_docking_100.prm

>  <SCORE>
-10.5774

>  <SCORE.INTER>
-9.36179

>  <SCORE.INTER.CONST>
1

>  <SCORE.INTER.POLAR>
0

>  <SCORE.INTER.ROT>
5

>  <SCORE.INTER.SOLV>
13.8741

>  <SCORE.INTER.VDW>
-17.7992

>  <SCORE.INTER.norm>
-0.425536

>  <SCORE.INTRA>
-1.21557

>  <SCORE.INTRA.DIHEDRAL>
-1.55022

>  <SCORE.INTRA.DIHEDRAL.0>
3.49807

>  <SCORE.INTRA.POLAR>
0

>  <SCORE.INTRA.POLAR.0>
0

>  <SCORE.INTRA.REPUL>
0

>  <SCORE.INTRA.REPUL.0>
0

>  <SCORE.INTRA.SOLV>
-0.622414

>  <SCORE.INTRA.SOLV.lig_0>
-73.062

>  <SCORE.INTRA.VDW>
-0.129248

>  <SCORE.INTRA.VDW.0>
-1.83782

>  <SCORE.INTRA.norm>
-0.055253

>  <SCORE.RESTR>
0

>  <SCORE.RESTR.CAVITY>
0

>  <SCORE.RESTR.norm>
0

>  <SCORE.SYSTEM>
0

>  <SCORE.SYSTEM.CONST>
0

>  <SCORE.SYSTEM.DIHEDRAL>
0

>  <SCORE.SYSTEM.SOLV>
0

>  <SCORE.SYSTEM.norm>
0

>  <SCORE.heavy>
22

>  <SCORE.norm>
-0.480789

>  <RMSD>
12.877

$$$$
ligand
 OpenBabel11021811513D
libRbt.so/2013.1/901 2013/11/27
 22 23  0  0  0  0  0  0  0  0999 V2000
  -32.8174    6.8623  -20.7275 N   0  0  0  0  0  0  0  0  0  0  0  0
  -32.3327    3.6975  -19.6310 C   0  0  1  0  0  0  0  0  0  0  0  0
  -31.9228    4.7431  -20.5577 O   0  0  0  0  0  0  0  0  0  0  0  0
  -35.1070    1.1170  -19.6590 P   0  0  1  0  0  0  0  0  0  0  0  0
  -32.1063    6.0110  -19.9071 C   0  0  2  0  0  0  0  0  0  0  0  0
  -34.3897    7.6490  -22.0001 N   0  0  0  0  0  0  0  0  0  0  0  0
  -32.8034    6.7111  -17.7347 O   0  0  0  0  0  0  0  0  0  0  0  0
  -32.9814    5.7169  -18.7503 C   0  0  2  0  0  0  0  0  0  0  0  0
  -32.6043   10.2630  -23.4835 N   0  0  0  0  0  0  0  0  0  0  0  0
  -31.3084    4.4329  -17.6551 O   0  0  0  0  0  0  0  0  0  0  0  0
  -32.5709    4.3796  -18.3402 C   0  0  2  0  0  0  0  0  0  0  0  0
  -33.4561    8.6012  -21.8505 C   0  0  0  0  0  0  0  0  0  0  0  0
  -31.3069    8.8074  -20.6250 N   0  0  0  0  0  0  0  0  0  0  0  0
  -33.8620    2.0168  -19.3442 O   0  0  0  0  0  0  0  0  0  0  0  0
  -33.5854    3.0992  -20.1721 C   0  0  0  0  0  0  0  0  0  0  0  0
  -35.0437    0.0130  -18.5420 O   0  0  0  0  0  0  0  0  0  0  0  0
  -33.9873    6.5674  -21.3061 C   0  0  0  0  0  0  0  0  0  0  0  0
  -34.2896   10.7930  -22.0466 O   0  0  0  0  0  0  0  0  0  0  0  0
  -33.4938    9.9465  -22.4532 C   0  0  0  0  0  0  0  0  0  0  0  0
  -32.4642    8.1142  -21.0478 C   0  0  0  0  0  0  0  0  0  0  0  0
  -36.3461    1.9490  -19.6388 O   0  5  0  0  0  0  0  0  0  0  0  0
  -35.0809    0.6609  -21.0604 O   0  0  0  0  0  0  0  0  0  0  0  0
  1 17  1  0  0  0  0
  1 20  1  0  0  0  0
  2 15  1  6  0  0  0
  2  3  1  0  0  0  0
  2 11  1  0  0  0  0
  3  5  1  0  0  0  0
  4 16  1  1  0  0  0
  4 21  1  0  0  0  0
  4 22  2  0  0  0  0
  4 14  1  0  0  0  0
  5  1  1  6  0  0  0
  5  8  1  0  0  0  0
  6 17  2  0  0  0  0
  6 12  1  0  0  0  0
  8  7  1  1  0  0  0
  8 11  1  0  0  0  0
  9 19  1  0  0  0  0
 11 10  1  1  0  0  0
 12 20  2  0  0  0  0
 12 19  1  0  0  0  0
 13 20  1  0  0  0  0
 14 15  1  0  0  0  0
 18 19  2  0  0  0  0
M  CHG  1  21  -1
M  END
>  <CHROM.1>
52.10147829,173.69979289,178.51324604,-177.97544144,-109.35134213,-33.48098386
5.18466493,-20.20946585,-1.30233022,0.74774598,2.66996211

>  <Name>
ligand

>  <RI>
0

>  <Rbt.Current_Directory>
/home/itssahil/PROJECTS/Mol_Feturizer/New_Systems/rnas/4XWF

>  <Rbt.Executable>
rbdock ($Id: //depot/dev/client3/rdock/2013.1/src/exe/rbdock.cxx#4 $)

>  <Rbt.Library>
libRbt.so (2013.1, Build901 2013/11/27)

>  <Rbt.Parameter_File>
/export/apps/rDock/src/rDock_2013.1_src/data/scripts/dock_solv.prm

>  <Rbt.Receptor>
prm/blind_docking_100.prm

>  <SCORE>
-9.49343

>  <SCORE.INTER>
-8.60996

>  <SCORE.INTER.CONST>
1

>  <SCORE.INTER.POLAR>
0

>  <SCORE.INTER.ROT>
5

>  <SCORE.INTER.SOLV>
14.4259

>  <SCORE.INTER.VDW>
-17.4819

>  <SCORE.INTER.norm>
-0.391362

>  <SCORE.INTRA>
-0.883462

>  <SCORE.INTRA.DIHEDRAL>
-1.69794

>  <SCORE.INTRA.DIHEDRAL.0>
3.49807

>  <SCORE.INTRA.POLAR>
0

>  <SCORE.INTRA.POLAR.0>
0

>  <SCORE.INTRA.REPUL>
0

>  <SCORE.INTRA.REPUL.0>
0

>  <SCORE.INTRA.SOLV>
0.0130428

>  <SCORE.INTRA.SOLV.lig_0>
-73.062

>  <SCORE.INTRA.VDW>
-0.0410141

>  <SCORE.INTRA.VDW.0>
-1.83782

>  <SCORE.INTRA.norm>
-0.0401574

>  <SCORE.RESTR>
0

>  <SCORE.RESTR.CAVITY>
0

>  <SCORE.RESTR.norm>
0

>  <SCORE.SYSTEM>
0

>  <SCORE.SYSTEM.CONST>
0

>  <SCORE.SYSTEM.DIHEDRAL>
0

>  <SCORE.SYSTEM.SOLV>
0

>  <SCORE.SYSTEM.norm>
0

>  <SCORE.heavy>
22

>  <SCORE.norm>
-0.431519

>  <RMSD>
12.904

$$$$
ligand
 OpenBabel11021811513D
libRbt.so/2013.1/901 2013/11/27
 22 23  0  0  0  0  0  0  0  0999 V2000
  -32.6848    6.7759  -20.7358 N   0  0  0  0  0  0  0  0  0  0  0  0
  -32.3845    3.6219  -19.5464 C   0  0  1  0  0  0  0  0  0  0  0  0
  -31.8818    4.6303  -20.4685 O   0  0  0  0  0  0  0  0  0  0  0  0
  -35.1562    1.0496  -19.7848 P   0  0  1  0  0  0  0  0  0  0  0  0
  -32.0557    5.9187  -19.8568 C   0  0  2  0  0  0  0  0  0  0  0  0
  -34.1105    7.5603  -22.1722 N   0  0  0  0  0  0  0  0  0  0  0  0
  -32.8531    6.6935  -17.7450 O   0  0  0  0  0  0  0  0  0  0  0  0
  -33.0080    5.6832  -18.7484 C   0  0  2  0  0  0  0  0  0  0  0  0
  -32.2421   10.2586  -23.3627 N   0  0  0  0  0  0  0  0  0  0  0  0
  -31.4517    4.3652  -17.5285 O   0  0  0  0  0  0  0  0  0  0  0  0
  -32.6728    4.3417  -18.2867 C   0  0  2  0  0  0  0  0  0  0  0  0
  -33.2309    8.5312  -21.8819 C   0  0  0  0  0  0  0  0  0  0  0  0
  -31.2564    8.7554  -20.3937 N   0  0  0  0  0  0  0  0  0  0  0  0
  -33.9216    1.9312  -19.3885 O   0  0  0  0  0  0  0  0  0  0  0  0
  -33.6246    3.0569  -20.1489 C   0  0  0  0  0  0  0  0  0  0  0  0
  -34.8091    0.5812  -21.2445 O   0  0  0  0  0  0  0  0  0  0  0  0
  -33.7651    6.4687  -21.4631 C   0  0  0  0  0  0  0  0  0  0  0  0
  -34.0899   10.7100  -22.1106 O   0  0  0  0  0  0  0  0  0  0  0  0
  -33.2334    9.8929  -22.4481 C   0  0  0  0  0  0  0  0  0  0  0  0
  -32.3318    8.0458  -20.9757 C   0  0  0  0  0  0  0  0  0  0  0  0
  -35.3181   -0.0600  -18.7997 O   0  5  0  0  0  0  0  0  0  0  0  0
  -36.4131    1.7963  -19.5971 O   0  0  0  0  0  0  0  0  0  0  0  0
  1 17  1  0  0  0  0
  1 20  1  0  0  0  0
  2 15  1  6  0  0  0
  2  3  1  0  0  0  0
  2 11  1  0  0  0  0
  3  5  1  0  0  0  0
  4 16  1  6  0  0  0
  4 21  1  0  0  0  0
  4 22  2  0  0  0  0
  4 14  1  0  0  0  0
  5  1  1  6  0  0  0
  5  8  1  0  0  0  0
  6 17  2  0  0  0  0
  6 12  1  0  0  0  0
  8  7  1  1  0  0  0
  8 11  1  0  0  0  0
  9 19  1  0  0  0  0
 11 10  1  1  0  0  0
 12 20  2  0  0  0  0
 12 19  1  0  0  0  0
 13 20  1  0  0  0  0
 14 15  1  0  0  0  0
 18 19  2  0  0  0  0
M  CHG  1  21  -1
M  END
>  <CHROM.1>
46.10776302,168.42453911,60.08927638,-177.73746257,-108.61745220,-33.43063440
5.11389855,-20.22427263,-1.23187736,0.81517550,2.62079219

>  <Name>
ligand

>  <RI>
0

>  <Rbt.Current_Directory>
/home/itssahil/PROJECTS/Mol_Feturizer/New_Systems/rnas/4XWF

>  <Rbt.Executable>
rbdock ($Id: //depot/dev/client3/rdock/2013.1/src/exe/rbdock.cxx#4 $)

>  <Rbt.Library>
libRbt.so (2013.1, Build901 2013/11/27)

>  <Rbt.Parameter_File>
/export/apps/rDock/src/rDock_2013.1_src/data/scripts/dock_solv.prm

>  <Rbt.Receptor>
prm/blind_docking_100.prm

>  <SCORE>
-10.6087

>  <SCORE.INTER>
-9.44477

>  <SCORE.INTER.CONST>
1

>  <SCORE.INTER.POLAR>
0

>  <SCORE.INTER.ROT>
5

>  <SCORE.INTER.SOLV>
13.5448

>  <SCORE.INTER.VDW>
-17.7448

>  <SCORE.INTER.norm>
-0.429308

>  <SCORE.INTRA>
-1.16389

>  <SCORE.INTRA.DIHEDRAL>
-1.38262

>  <SCORE.INTRA.DIHEDRAL.0>
3.49807

>  <SCORE.INTRA.POLAR>
0

>  <SCORE.INTRA.POLAR.0>
0

>  <SCORE.INTRA.REPUL>
0

>  <SCORE.INTRA.REPUL.0>
0

>  <SCORE.INTRA.SOLV>
-0.551078

>  <SCORE.INTRA.SOLV.lig_0>
-73.062

>  <SCORE.INTRA.VDW>
-0.197038

>  <SCORE.INTRA.VDW.0>
-1.83782

>  <SCORE.INTRA.norm>
-0.052904

>  <SCORE.RESTR>
0

>  <SCORE.RESTR.CAVITY>
0

>  <SCORE.RESTR.norm>
0

>  <SCORE.SYSTEM>
0

>  <SCORE.SYSTEM.CONST>
0

>  <SCORE.SYSTEM.DIHEDRAL>
0

>  <SCORE.SYSTEM.SOLV>
0

>  <SCORE.SYSTEM.norm>
0

>  <SCORE.heavy>
22

>  <SCORE.norm>
-0.482212

>  <RMSD>
12.913

$$$$
ligand
 OpenBabel11021811513D
libRbt.so/2013.1/901 2013/11/27
 22 23  0  0  0  0  0  0  0  0999 V2000
  -33.6152    6.5771  -20.7699 N   0  0  0  0  0  0  0  0  0  0  0  0
  -32.7077    3.3831  -20.1163 C   0  0  1  0  0  0  0  0  0  0  0  0
  -32.6758    4.4908  -21.0607 O   0  0  0  0  0  0  0  0  0  0  0  0
  -35.2554    0.6909  -19.3291 P   0  0  1  0  0  0  0  0  0  0  0  0
  -32.6416    5.7150  -20.3093 C   0  0  2  0  0  0  0  0  0  0  0  0
  -35.5379    7.3381  -21.4295 N   0  0  0  0  0  0  0  0  0  0  0  0
  -32.5343    6.2735  -17.9915 O   0  0  0  0  0  0  0  0  0  0  0  0
  -33.0418    5.3261  -18.9384 C   0  0  2  0  0  0  0  0  0  0  0  0
  -34.8838   10.7564  -20.8131 N   0  0  0  0  0  0  0  0  0  0  0  0
  -31.0627    4.0579  -18.5889 O   0  0  0  0  0  0  0  0  0  0  0  0
  -32.4850    3.9876  -18.7847 C   0  0  2  0  0  0  0  0  0  0  0  0
  -34.6669    8.3588  -21.4121 C   0  0  0  0  0  0  0  0  0  0  0  0
  -32.2737    8.6444  -20.8168 N   0  0  0  0  0  0  0  0  0  0  0  0
  -33.9800    1.5925  -19.4671 O   0  0  0  0  0  0  0  0  0  0  0  0
  -34.0585    2.7621  -20.2153 C   0  0  0  0  0  0  0  0  0  0  0  0
  -36.1793    1.5209  -18.3659 O   0  0  0  0  0  0  0  0  0  0  0  0
  -34.8801    6.2309  -21.0359 C   0  0  0  0  0  0  0  0  0  0  0  0
  -35.3050   10.0376  -22.9325 O   0  0  0  0  0  0  0  0  0  0  0  0
  -34.9677    9.7539  -21.7832 C   0  0  0  0  0  0  0  0  0  0  0  0
  -33.4547    7.8880  -20.9948 C   0  0  0  0  0  0  0  0  0  0  0  0
  -35.8381    0.4349  -20.6791 O   0  5  0  0  0  0  0  0  0  0  0  0
  -34.8882   -0.6717  -18.9032 O   0  0  0  0  0  0  0  0  0  0  0  0
  1 17  1  0  0  0  0
  1 20  1  0  0  0  0
  2 15  1  1  0  0  0
  2  3  1  0  0  0  0
  2 11  1  0  0  0  0
  3  5  1  0  0  0  0
  4 16  1  1  0  0  0
  4 21  1  0  0  0  0
  4 22  2  0  0  0  0
  4 14  1  0  0  0  0
  5  1  1  6  0  0  0
  5  8  1  0  0  0  0
  6 17  2  0  0  0  0
  6 12  1  0  0  0  0
  8  7  1  1  0  0  0
  8 11  1  0  0  0  0
  9 19  1  0  0  0  0
 11 10  1  6  0  0  0
 12 20  2  0  0  0  0
 12 19  1  0  0  0  0
 13 20  1  0  0  0  0
 14 15  1  0  0  0  0
 18 19  2  0  0  0  0
M  CHG  1  21  -1
M  END
>  <CHROM.1>
45.35675291,170.78293425,-72.32936103,178.72994639,115.69422590,-34.02557532
4.85318152,-20.12870598,-1.50392066,0.46059843,2.86549369

>  <Name>
ligand

>  <RI>
0

>  <Rbt.Current_Directory>
/home/itssahil/PROJECTS/Mol_Feturizer/New_Systems/rnas/4XWF

>  <Rbt.Executable>
rbdock ($Id: //depot/dev/client3/rdock/2013.1/src/exe/rbdock.cxx#4 $)

>  <Rbt.Library>
libRbt.so (2013.1, Build901 2013/11/27)

>  <Rbt.Parameter_File>
/export/apps/rDock/src/rDock_2013.1_src/data/scripts/dock_solv.prm

>  <Rbt.Receptor>
prm/blind_docking_60.prm

>  <SCORE>
-10.0593

>  <SCORE.INTER>
-8.96926

>  <SCORE.INTER.CONST>
1

>  <SCORE.INTER.POLAR>
0

>  <SCORE.INTER.ROT>
5

>  <SCORE.INTER.SOLV>
12.0286

>  <SCORE.INTER.VDW>
-16.9224

>  <SCORE.INTER.norm>
-0.407694

>  <SCORE.INTRA>
-1.09008

>  <SCORE.INTRA.DIHEDRAL>
-1.41682

>  <SCORE.INTRA.DIHEDRAL.0>
3.49807

>  <SCORE.INTRA.POLAR>
0

>  <SCORE.INTRA.POLAR.0>
0

>  <SCORE.INTRA.REPUL>
0

>  <SCORE.INTRA.REPUL.0>
0

>  <SCORE.INTRA.SOLV>
-0.342496

>  <SCORE.INTRA.SOLV.lig_0>
-73.062

>  <SCORE.INTRA.VDW>
-0.210419

>  <SCORE.INTRA.VDW.0>
-1.83782

>  <SCORE.INTRA.norm>
-0.0495489

>  <SCORE.RESTR>
0

>  <SCORE.RESTR.CAVITY>
0

>  <SCORE.RESTR.norm>
0

>  <SCORE.SYSTEM>
0

>  <SCORE.SYSTEM.CONST>
0

>  <SCORE.SYSTEM.DIHEDRAL>
0

>  <SCORE.SYSTEM.SOLV>
0

>  <SCORE.SYSTEM.norm>
0

>  <SCORE.heavy>
22

>  <SCORE.norm>
-0.457243

>  <RMSD>
12.920

$$$$
ligand
 OpenBabel11021811513D
libRbt.so/2013.1/901 2013/11/27
 22 23  0  0  0  0  0  0  0  0999 V2000
  -34.3584    6.2801  -20.7954 N   0  0  0  0  0  0  0  0  0  0  0  0
  -32.2538    4.0718  -19.3303 C   0  0  1  0  0  0  0  0  0  0  0  0
  -32.7032    4.6898  -20.5697 O   0  0  0  0  0  0  0  0  0  0  0  0
  -34.7310    1.3712  -20.2195 P   0  0  1  0  0  0  0  0  0  0  0  0
  -33.1040    6.0376  -20.2748 C   0  0  2  0  0  0  0  0  0  0  0  0
  -36.4309    5.9955  -21.3740 N   0  0  0  0  0  0  0  0  0  0  0  0
  -33.0958    7.4159  -18.3264 O   0  0  0  0  0  0  0  0  0  0  0  0
  -33.2483    6.0734  -18.8022 C   0  0  2  0  0  0  0  0  0  0  0  0
  -37.2053    9.4614  -21.6505 N   0  0  0  0  0  0  0  0  0  0  0  0
  -30.9172    5.7815  -18.4442 O   0  0  0  0  0  0  0  0  0  0  0  0
  -32.2104    5.1636  -18.3331 C   0  0  2  0  0  0  0  0  0  0  0  0
  -36.0777    7.2520  -21.6855 C   0  0  0  0  0  0  0  0  0  0  0  0
  -34.0264    8.6316  -21.4560 N   0  0  0  0  0  0  0  0  0  0  0  0
  -33.4762    2.3069  -20.1285 O   0  0  0  0  0  0  0  0  0  0  0  0
  -33.2631    3.0384  -18.9652 C   0  0  0  0  0  0  0  0  0  0  0  0
  -34.5726    0.6942  -21.6292 O   0  0  0  0  0  0  0  0  0  0  0  0
  -35.3587    5.3919  -20.8266 C   0  0  0  0  0  0  0  0  0  0  0  0
  -37.4623    8.0451  -23.4150 O   0  0  0  0  0  0  0  0  0  0  0  0
  -36.9493    8.2601  -22.3170 C   0  0  0  0  0  0  0  0  0  0  0  0
  -34.7748    7.4397  -21.3214 C   0  0  0  0  0  0  0  0  0  0  0  0
  -34.7315    0.4182  -19.0707 O   0  5  0  0  0  0  0  0  0  0  0  0
  -35.9690    2.1320  -19.9721 O   0  0  0  0  0  0  0  0  0  0  0  0
  1 17  1  0  0  0  0
  1 20  1  0  0  0  0
  2 15  1  1  0  0  0
  2  3  1  0  0  0  0
  2 11  1  0  0  0  0
  3  5  1  0  0  0  0
  4 16  1  6  0  0  0
  4 21  1  0  0  0  0
  4 22  2  0  0  0  0
  4 14  1  0  0  0  0
  5  1  1  6  0  0  0
  5  8  1  0  0  0  0
  6 17  2  0  0  0  0
  6 12  1  0  0  0  0
  8  7  1  1  0  0  0
  8 11  1  0  0  0  0
  9 19  1  0  0  0  0
 11 10  1  6  0  0  0
 12 20  2  0  0  0  0
 12 19  1  0  0  0  0
 13 20  1  0  0  0  0
 14 15  1  0  0  0  0
 18 19  2  0  0  0  0
M  CHG  1  21  -1
M  END
>  <CHROM.1>
37.23174393,48.27995623,-177.56260812,-164.77911755,120.51224582,-34.39499039
4.95989460,-20.37221799,-1.91018914,0.60687925,3.05425838

>  <Name>
ligand

>  <RI>
0

>  <Rbt.Current_Directory>
/home/itssahil/PROJECTS/Mol_Feturizer/New_Systems/rnas/4XWF

>  <Rbt.Executable>
rbdock ($Id: //depot/dev/client3/rdock/2013.1/src/exe/rbdock.cxx#4 $)

>  <Rbt.Library>
libRbt.so (2013.1, Build901 2013/11/27)

>  <Rbt.Parameter_File>
/export/apps/rDock/src/rDock_2013.1_src/data/scripts/dock_solv.prm

>  <Rbt.Receptor>
prm/blind_docking_60.prm

>  <SCORE>
-9.75889

>  <SCORE.INTER>
-9.41888

>  <SCORE.INTER.CONST>
1

>  <SCORE.INTER.POLAR>
0

>  <SCORE.INTER.ROT>
5

>  <SCORE.INTER.SOLV>
10.1135

>  <SCORE.INTER.VDW>
-16.5838

>  <SCORE.INTER.norm>
-0.428131

>  <SCORE.INTRA>
-0.34001

>  <SCORE.INTRA.DIHEDRAL>
-0.476187

>  <SCORE.INTRA.DIHEDRAL.0>
3.49807

>  <SCORE.INTRA.POLAR>
0

>  <SCORE.INTRA.POLAR.0>
0

>  <SCORE.INTRA.REPUL>
0

>  <SCORE.INTRA.REPUL.0>
0

>  <SCORE.INTRA.SOLV>
0.98054

>  <SCORE.INTRA.SOLV.lig_0>
-73.062

>  <SCORE.INTRA.VDW>
-0.592187

>  <SCORE.INTRA.VDW.0>
-1.83782

>  <SCORE.INTRA.norm>
-0.015455

>  <SCORE.RESTR>
0

>  <SCORE.RESTR.CAVITY>
0

>  <SCORE.RESTR.norm>
0

>  <SCORE.SYSTEM>
0

>  <SCORE.SYSTEM.CONST>
0

>  <SCORE.SYSTEM.DIHEDRAL>
0

>  <SCORE.SYSTEM.SOLV>
0

>  <SCORE.SYSTEM.norm>
0

>  <SCORE.heavy>
22

>  <SCORE.norm>
-0.443586

>  <RMSD>
12.929

$$$$
ligand
 OpenBabel11021811513D
libRbt.so/2013.1/901 2013/11/27
 22 23  0  0  0  0  0  0  0  0999 V2000
  -34.4569    6.3868  -20.6957 N   0  0  0  0  0  0  0  0  0  0  0  0
  -32.2691    4.1102  -19.4779 C   0  0  1  0  0  0  0  0  0  0  0  0
  -32.7808    4.8030  -20.6518 O   0  0  0  0  0  0  0  0  0  0  0  0
  -34.6357    1.2864  -20.3611 P   0  0  1  0  0  0  0  0  0  0  0  0
  -33.1777    6.1243  -20.2507 C   0  0  2  0  0  0  0  0  0  0  0  0
  -36.5722    6.1480  -21.1198 N   0  0  0  0  0  0  0  0  0  0  0  0
  -33.0889    7.3723  -18.2184 O   0  0  0  0  0  0  0  0  0  0  0  0
  -33.2531    6.0623  -18.7738 C   0  0  2  0  0  0  0  0  0  0  0  0
  -38.4233    8.0712  -22.3716 N   0  0  0  0  0  0  0  0  0  0  0  0
  -30.9057    5.7727  -18.5441 O   0  0  0  0  0  0  0  0  0  0  0  0
  -32.1874    5.1350  -18.4141 C   0  0  2  0  0  0  0  0  0  0  0  0
  -36.2028    7.3776  -21.5099 C   0  0  0  0  0  0  0  0  0  0  0  0
  -34.0992    8.6957  -21.4810 N   0  0  0  0  0  0  0  0  0  0  0  0
  -33.5675    2.4341  -20.3443 O   0  0  0  0  0  0  0  0  0  0  0  0
  -33.2522    3.0444  -19.1352 C   0  0  0  0  0  0  0  0  0  0  0  0
  -33.7859    0.0004  -20.0534 O   0  0  0  0  0  0  0  0  0  0  0  0
  -35.4839    5.5323  -20.6198 C   0  0  0  0  0  0  0  0  0  0  0  0
  -36.6473    9.4951  -22.4353 O   0  0  0  0  0  0  0  0  0  0  0  0
  -37.0845    8.3870  -22.1252 C   0  0  0  0  0  0  0  0  0  0  0  0
  -34.8728    7.5365  -21.2433 C   0  0  0  0  0  0  0  0  0  0  0  0
  -35.7029    1.5786  -19.3594 O   0  5  0  0  0  0  0  0  0  0  0  0
  -35.4010    1.3035  -21.6208 O   0  0  0  0  0  0  0  0  0  0  0  0
  1 17  1  0  0  0  0
  1 20  1  0  0  0  0
  2 15  1  1  0  0  0
  2  3  1  0  0  0  0
  2 11  1  0  0  0  0
  3  5  1  0  0  0  0
  4 16  1  1  0  0  0
  4 21  1  0  0  0  0
  4 22  2  0  0  0  0
  4 14  1  0  0  0  0
  5  1  1  6  0  0  0
  5  8  1  0  0  0  0
  6 17  2  0  0  0  0
  6 12  1  0  0  0  0
  8  7  1  1  0  0  0
  8 11  1  0  0  0  0
  9 19  1  0  0  0  0
 11 10  1  6  0  0  0
 12 20  2  0  0  0  0
 12 19  1  0  0  0  0
 13 20  1  0  0  0  0
 14 15  1  0  0  0  0
 18 19  2  0  0  0  0
M  CHG  1  21  -1
M  END
>  <CHROM.1>
44.02794081,45.22558228,-86.99815904,-177.56832760,-1.57446965,-34.42018649
4.99005136,-20.37666574,-1.91773527,0.54962643,3.09036489

>  <Name>
ligand

>  <RI>
0

>  <Rbt.Current_Directory>
/home/itssahil/PROJECTS/Mol_Feturizer/New_Systems/rnas/4XWF

>  <Rbt.Executable>
rbdock ($Id: //depot/dev/client3/rdock/2013.1/src/exe/rbdock.cxx#4 $)

>  <Rbt.Library>
libRbt.so (2013.1, Build901 2013/11/27)

>  <Rbt.Parameter_File>
/export/apps/rDock/src/rDock_2013.1_src/data/scripts/dock_solv.prm

>  <Rbt.Receptor>
prm/blind_docking_60.prm

>  <SCORE>
-8.05003

>  <SCORE.INTER>
-7.93009

>  <SCORE.INTER.CONST>
1

>  <SCORE.INTER.POLAR>
0

>  <SCORE.INTER.ROT>
5

>  <SCORE.INTER.SOLV>
11.9316

>  <SCORE.INTER.VDW>
-16.1973

>  <SCORE.INTER.norm>
-0.360459

>  <SCORE.INTRA>
-0.119936

>  <SCORE.INTRA.DIHEDRAL>
-0.19553

>  <SCORE.INTRA.DIHEDRAL.0>
3.49807

>  <SCORE.INTRA.POLAR>
0

>  <SCORE.INTRA.POLAR.0>
0

>  <SCORE.INTRA.REPUL>
0

>  <SCORE.INTRA.REPUL.0>
0

>  <SCORE.INTRA.SOLV>
-0.169482

>  <SCORE.INTRA.SOLV.lig_0>
-73.062

>  <SCORE.INTRA.VDW>
0.0625699

>  <SCORE.INTRA.VDW.0>
-1.83782

>  <SCORE.INTRA.norm>
-0.00545163

>  <SCORE.RESTR>
0

>  <SCORE.RESTR.CAVITY>
0

>  <SCORE.RESTR.norm>
0

>  <SCORE.SYSTEM>
0

>  <SCORE.SYSTEM.CONST>
0

>  <SCORE.SYSTEM.DIHEDRAL>
0

>  <SCORE.SYSTEM.SOLV>
0

>  <SCORE.SYSTEM.norm>
0

>  <SCORE.heavy>
22

>  <SCORE.norm>
-0.36591

>  <RMSD>
12.956

$$$$
ligand
 OpenBabel11021811513D
libRbt.so/2013.1/901 2013/11/27
 22 23  0  0  0  0  0  0  0  0999 V2000
  -33.7084   -6.6583  -14.3315 N   0  0  0  0  0  0  0  0  0  0  0  0
  -35.2388   -3.6992  -14.9264 C   0  0  1  0  0  0  0  0  0  0  0  0
  -34.1419   -4.5946  -15.2657 O   0  0  0  0  0  0  0  0  0  0  0  0
  -35.8225   -1.1313  -12.2250 P   0  0  1  0  0  0  0  0  0  0  0  0
  -34.6035   -5.9454  -15.1020 C   0  0  2  0  0  0  0  0  0  0  0  0
  -32.3157   -7.1696  -12.7472 N   0  0  0  0  0  0  0  0  0  0  0  0
  -36.6834   -6.9627  -14.5233 O   0  0  0  0  0  0  0  0  0  0  0  0
  -35.8421   -5.8250  -14.3007 C   0  0  2  0  0  0  0  0  0  0  0  0
  -30.9123  -10.0113  -14.3013 N   0  0  0  0  0  0  0  0  0  0  0  0
  -37.0158   -4.7315  -16.0540 O   0  0  0  0  0  0  0  0  0  0  0  0
  -36.4239   -4.5677  -14.7543 C   0  0  2  0  0  0  0  0  0  0  0  0
  -32.4777   -8.2494  -13.5271 C   0  0  0  0  0  0  0  0  0  0  0  0
  -33.8141   -8.8010  -15.5454 N   0  0  0  0  0  0  0  0  0  0  0  0
  -35.6900   -1.8970  -13.5869 O   0  0  0  0  0  0  0  0  0  0  0  0
  -34.8707   -3.0187  -13.6531 C   0  0  0  0  0  0  0  0  0  0  0  0
  -36.8331    0.0250  -12.5601 O   0  0  0  0  0  0  0  0  0  0  0  0
  -33.0769   -6.1805  -13.2529 C   0  0  0  0  0  0  0  0  0  0  0  0
  -32.0674  -10.2470  -12.3530 O   0  0  0  0  0  0  0  0  0  0  0  0
  -31.8171   -9.5544  -13.3393 C   0  0  0  0  0  0  0  0  0  0  0  0
  -33.3557   -7.9362  -14.5253 C   0  0  0  0  0  0  0  0  0  0  0  0
  -36.2866   -2.0718  -11.1629 O   0  5  0  0  0  0  0  0  0  0  0  0
  -34.4962   -0.7407  -11.7140 O   0  0  0  0  0  0  0  0  0  0  0  0
  1 17  1  0  0  0  0
  1 20  1  0  0  0  0
  2 15  1  1  0  0  0
  2  3  1  0  0  0  0
  2 11  1  0  0  0  0
  3  5  1  0  0  0  0
  4 16  1  6  0  0  0
  4 21  1  0  0  0  0
  4 22  2  0  0  0  0
  4 14  1  0  0  0  0
  5  1  1  1  0  0  0
  5  8  1  0  0  0  0
  6 17  2  0  0  0  0
  6 12  1  0  0  0  0
  8  7  1  6  0  0  0
  8 11  1  0  0  0  0
  9 19  1  0  0  0  0
 11 10  1  6  0  0  0
 12 20  2  0  0  0  0
 12 19  1  0  0  0  0
 13 20  1  0  0  0  0
 14 15  1  0  0  0  0
 18 19  2  0  0  0  0
M  CHG  1  21  -1
M  END
>  <CHROM.1>
40.02318836,161.32965248,-178.97629426,165.47158588,-114.93153942,-34.57954945
-5.09909905,-13.69769999,0.98723189,0.73430374,-2.56677719

>  <Name>
ligand

>  <RI>
0

>  <Rbt.Current_Directory>
/home/itssahil/PROJECTS/Mol_Feturizer/New_Systems/rnas/4XWF

>  <Rbt.Executable>
rbdock ($Id: //depot/dev/client3/rdock/2013.1/src/exe/rbdock.cxx#4 $)

>  <Rbt.Library>
libRbt.so (2013.1, Build901 2013/11/27)

>  <Rbt.Parameter_File>
/export/apps/rDock/src/rDock_2013.1_src/data/scripts/dock_solv.prm

>  <Rbt.Receptor>
prm/blind_docking_40.prm

>  <SCORE>
-7.8997

>  <SCORE.INTER>
-8.97745

>  <SCORE.INTER.CONST>
1

>  <SCORE.INTER.POLAR>
0

>  <SCORE.INTER.ROT>
5

>  <SCORE.INTER.SOLV>
22.8289

>  <SCORE.INTER.VDW>
-20.5279

>  <SCORE.INTER.norm>
-0.408066

>  <SCORE.INTRA>
-0.0121395

>  <SCORE.INTRA.DIHEDRAL>
0.125406

>  <SCORE.INTRA.DIHEDRAL.0>
3.49807

>  <SCORE.INTRA.POLAR>
0

>  <SCORE.INTRA.POLAR.0>
0

>  <SCORE.INTRA.REPUL>
0

>  <SCORE.INTRA.REPUL.0>
0

>  <SCORE.INTRA.SOLV>
0.580429

>  <SCORE.INTRA.SOLV.lig_0>
-73.062

>  <SCORE.INTRA.VDW>
-0.365057

>  <SCORE.INTRA.VDW.0>
-1.83782

>  <SCORE.INTRA.norm>
-0.000551794

>  <SCORE.RESTR>
1.08989

>  <SCORE.RESTR.CAVITY>
1.08989

>  <SCORE.RESTR.norm>
0.0495406

>  <SCORE.SYSTEM>
0

>  <SCORE.SYSTEM.CONST>
0

>  <SCORE.SYSTEM.DIHEDRAL>
0

>  <SCORE.SYSTEM.SOLV>
0

>  <SCORE.SYSTEM.norm>
0

>  <SCORE.heavy>
22

>  <SCORE.norm>
-0.359077

>  <RMSD>
12.963

$$$$
ligand
 OpenBabel11021811513D
libRbt.so/2013.1/901 2013/11/27
 22 23  0  0  0  0  0  0  0  0999 V2000
  -34.3387   -5.4885  -13.9657 N   0  0  0  0  0  0  0  0  0  0  0  0
  -35.0701   -3.1954  -16.3447 C   0  0  1  0  0  0  0  0  0  0  0  0
  -35.2240   -4.5689  -15.8868 O   0  0  0  0  0  0  0  0  0  0  0  0
  -32.6520   -3.9613  -19.0947 P   0  0  1  0  0  0  0  0  0  0  0  0
  -35.2368   -4.5601  -14.4501 C   0  0  2  0  0  0  0  0  0  0  0  0
  -32.6027   -6.3489  -12.9874 N   0  0  0  0  0  0  0  0  0  0  0  0
  -35.1621   -2.8674  -12.7693 O   0  0  0  0  0  0  0  0  0  0  0  0
  -34.7052   -3.2299  -14.0775 C   0  0  2  0  0  0  0  0  0  0  0  0
  -34.0602   -9.6004  -12.5973 N   0  0  0  0  0  0  0  0  0  0  0  0
  -36.5993   -2.0922  -14.9522 O   0  0  0  0  0  0  0  0  0  0  0  0
  -35.1978   -2.3548  -15.1342 C   0  0  2  0  0  0  0  0  0  0  0  0
  -33.3888   -7.3530  -13.4051 C   0  0  0  0  0  0  0  0  0  0  0  0
  -35.5684   -7.5346  -14.5798 N   0  0  0  0  0  0  0  0  0  0  0  0
  -33.6427   -4.1051  -17.8878 O   0  0  0  0  0  0  0  0  0  0  0  0
  -33.7115   -3.0840  -16.9463 C   0  0  0  0  0  0  0  0  0  0  0  0
  -31.2911   -3.5927  -18.4001 O   0  0  0  0  0  0  0  0  0  0  0  0
  -33.1924   -5.1915  -13.3426 C   0  0  0  0  0  0  0  0  0  0  0  0
  -32.0546   -9.2786  -13.6267 O   0  0  0  0  0  0  0  0  0  0  0  0
  -33.1137   -8.7913  -13.2317 C   0  0  0  0  0  0  0  0  0  0  0  0
  -34.4855   -6.8190  -14.0194 C   0  0  0  0  0  0  0  0  0  0  0  0
  -32.6247   -5.2326  -19.8764 O   0  5  0  0  0  0  0  0  0  0  0  0
  -33.1785   -3.0128  -20.0926 O   0  0  0  0  0  0  0  0  0  0  0  0
  1 17  1  0  0  0  0
  1 20  1  0  0  0  0
  2 15  1  1  0  0  0
  2  3  1  0  0  0  0
  2 11  1  0  0  0  0
  3  5  1  0  0  0  0
  4 16  1  1  0  0  0
  4 21  1  0  0  0  0
  4 22  2  0  0  0  0
  4 14  1  0  0  0  0
  5  1  1  1  0  0  0
  5  8  1  0  0  0  0
  6 17  2  0  0  0  0
  6 12  1  0  0  0  0
  8  7  1  1  0  0  0
  8 11  1  0  0  0  0
  9 19  1  0  0  0  0
 11 10  1  1  0  0  0
 12 20  2  0  0  0  0
 12 19  1  0  0  0  0
 13 20  1  0  0  0  0
 14 15  1  0  0  0  0
 18 19  2  0  0  0  0
M  CHG  1  21  -1
M  END
>  <CHROM.1>
110.04906750,53.22782973,50.68757868,155.21610491,124.61961392,-33.87718111
-4.98138927,-15.65558661,1.70784577,-0.96015405,2.32971751

>  <Name>
ligand

>  <RI>
0

>  <Rbt.Current_Directory>
/home/itssahil/PROJECTS/Mol_Feturizer/New_Systems/rnas/4XWF

>  <Rbt.Executable>
rbdock ($Id: //depot/dev/client3/rdock/2013.1/src/exe/rbdock.cxx#4 $)

>  <Rbt.Library>
libRbt.so (2013.1, Build901 2013/11/27)

>  <Rbt.Parameter_File>
/export/apps/rDock/src/rDock_2013.1_src/data/scripts/dock_solv.prm

>  <Rbt.Receptor>
prm/blind_docking_40.prm

>  <SCORE>
-7.58506

>  <SCORE.INTER>
-10.3073

>  <SCORE.INTER.CONST>
1

>  <SCORE.INTER.POLAR>
0

>  <SCORE.INTER.ROT>
5

>  <SCORE.INTER.SOLV>
16.1557

>  <SCORE.INTER.VDW>
-19.1901

>  <SCORE.INTER.norm>
-0.468515

>  <SCORE.INTRA>
2.61141

>  <SCORE.INTRA.DIHEDRAL>
1.02912

>  <SCORE.INTRA.DIHEDRAL.0>
3.49807

>  <SCORE.INTRA.POLAR>
0

>  <SCORE.INTRA.POLAR.0>
0

>  <SCORE.INTRA.REPUL>
0

>  <SCORE.INTRA.REPUL.0>
0

>  <SCORE.INTRA.SOLV>
-0.600522

>  <SCORE.INTRA.SOLV.lig_0>
-73.062

>  <SCORE.INTRA.VDW>
2.39711

>  <SCORE.INTRA.VDW.0>
-1.83782

>  <SCORE.INTRA.norm>
0.118701

>  <SCORE.RESTR>
0.110864

>  <SCORE.RESTR.CAVITY>
0.110864

>  <SCORE.RESTR.norm>
0.00503925

>  <SCORE.SYSTEM>
0

>  <SCORE.SYSTEM.CONST>
0

>  <SCORE.SYSTEM.DIHEDRAL>
0

>  <SCORE.SYSTEM.SOLV>
0

>  <SCORE.SYSTEM.norm>
0

>  <SCORE.heavy>
22

>  <SCORE.norm>
-0.344776

>  <RMSD>
12.969

$$$$
ligand
 OpenBabel11021811513D
libRbt.so/2013.1/901 2013/11/27
 22 23  0  0  0  0  0  0  0  0999 V2000
  -34.3279   -5.5034  -13.9421 N   0  0  0  0  0  0  0  0  0  0  0  0
  -35.0531   -3.2310  -16.3426 C   0  0  1  0  0  0  0  0  0  0  0  0
  -35.2020   -4.6025  -15.8770 O   0  0  0  0  0  0  0  0  0  0  0  0
  -32.6441   -3.9825  -19.0915 P   0  0  1  0  0  0  0  0  0  0  0  0
  -35.2278   -4.5843  -14.4406 C   0  0  2  0  0  0  0  0  0  0  0  0
  -32.5859   -6.3452  -12.9583 N   0  0  0  0  0  0  0  0  0  0  0  0
  -35.1797   -2.8802  -12.7704 O   0  0  0  0  0  0  0  0  0  0  0  0
  -34.7085   -3.2482  -14.0721 C   0  0  2  0  0  0  0  0  0  0  0  0
  -34.0831   -9.6006  -12.5572 N   0  0  0  0  0  0  0  0  0  0  0  0
  -36.6022   -2.1291  -14.9712 O   0  0  0  0  0  0  0  0  0  0  0  0
  -35.1974   -2.3833  -15.1389 C   0  0  2  0  0  0  0  0  0  0  0  0
  -33.3779   -7.3568  -13.3458 C   0  0  0  0  0  0  0  0  0  0  0  0
  -35.5676   -7.5601  -14.4979 N   0  0  0  0  0  0  0  0  0  0  0  0
  -33.6033   -4.1454  -17.8618 O   0  0  0  0  0  0  0  0  0  0  0  0
  -33.6900   -3.1143  -16.9327 C   0  0  0  0  0  0  0  0  0  0  0  0
  -31.2864   -3.5441  -18.4321 O   0  0  0  0  0  0  0  0  0  0  0  0
  -33.1758   -5.1949  -13.3355 C   0  0  0  0  0  0  0  0  0  0  0  0
  -32.0205   -9.2752  -13.4656 O   0  0  0  0  0  0  0  0  0  0  0  0
  -33.1047   -8.7914  -13.1410 C   0  0  0  0  0  0  0  0  0  0  0  0
  -34.4784   -6.8345  -13.9634 C   0  0  0  0  0  0  0  0  0  0  0  0
  -32.5786   -5.2658  -19.8509 O   0  5  0  0  0  0  0  0  0  0  0  0
  -33.2305   -3.0757  -20.0947 O   0  0  0  0  0  0  0  0  0  0  0  0
  1 17  1  0  0  0  0
  1 20  1  0  0  0  0
  2 15  1  1  0  0  0
  2  3  1  0  0  0  0
  2 11  1  0  0  0  0
  3  5  1  0  0  0  0
  4 16  1  1  0  0  0
  4 21  1  0  0  0  0
  4 22  2  0  0  0  0
  4 14  1  0  0  0  0
  5  1  1  1  0  0  0
  5  8  1  0  0  0  0
  6 17  2  0  0  0  0
  6 12  1  0  0  0  0
  8  7  1  1  0  0  0
  8 11  1  0  0  0  0
  9 19  1  0  0  0  0
 11 10  1  1  0  0  0
 12 20  2  0  0  0  0
 12 19  1  0  0  0  0
 13 20  1  0  0  0  0
 14 15  1  0  0  0  0
 18 19  2  0  0  0  0
M  CHG  1  21  -1
M  END
>  <CHROM.1>
108.56764375,52.92205118,50.28494717,152.83357274,128.70028029,-33.86917407
-4.99943845,-15.63083539,1.70676187,-0.95226326,2.32036355

>  <Name>
ligand

>  <RI>
0

>  <Rbt.Current_Directory>
/home/itssahil/PROJECTS/Mol_Feturizer/New_Systems/rnas/4XWF

>  <Rbt.Executable>
rbdock ($Id: //depot/dev/client3/rdock/2013.1/src/exe/rbdock.cxx#4 $)

>  <Rbt.Library>
libRbt.so (2013.1, Build901 2013/11/27)

>  <Rbt.Parameter_File>
/export/apps/rDock/src/rDock_2013.1_src/data/scripts/dock_solv.prm

>  <Rbt.Receptor>
prm/blind_docking_40.prm

>  <SCORE>
-7.59825

>  <SCORE.INTER>
-10.5943

>  <SCORE.INTER.CONST>
1

>  <SCORE.INTER.POLAR>
0

>  <SCORE.INTER.ROT>
5

>  <SCORE.INTER.SOLV>
16.2108

>  <SCORE.INTER.VDW>
-19.3998

>  <SCORE.INTER.norm>
-0.481558

>  <SCORE.INTRA>
2.88399

>  <SCORE.INTRA.DIHEDRAL>
1.5624

>  <SCORE.INTRA.DIHEDRAL.0>
3.49807

>  <SCORE.INTRA.POLAR>
0

>  <SCORE.INTRA.POLAR.0>
0

>  <SCORE.INTRA.REPUL>
0

>  <SCORE.INTRA.REPUL.0>
0

>  <SCORE.INTRA.SOLV>
-0.579638

>  <SCORE.INTRA.SOLV.lig_0>
-73.062

>  <SCORE.INTRA.VDW>
2.3926

>  <SCORE.INTRA.VDW.0>
-1.83782

>  <SCORE.INTRA.norm>
0.13109

>  <SCORE.RESTR>
0.112036

>  <SCORE.RESTR.CAVITY>
0.112036

>  <SCORE.RESTR.norm>
0.00509255

>  <SCORE.SYSTEM>
0

>  <SCORE.SYSTEM.CONST>
0

>  <SCORE.SYSTEM.DIHEDRAL>
0

>  <SCORE.SYSTEM.SOLV>
0

>  <SCORE.SYSTEM.norm>
0

>  <SCORE.heavy>
22

>  <SCORE.norm>
-0.345375

>  <RMSD>
12.970

$$$$
ligand
 OpenBabel11021811513D
libRbt.so/2013.1/901 2013/11/27
 22 23  0  0  0  0  0  0  0  0999 V2000
  -34.3589   -5.4606  -13.9833 N   0  0  0  0  0  0  0  0  0  0  0  0
  -35.1211   -3.2098  -16.3927 C   0  0  1  0  0  0  0  0  0  0  0  0
  -35.2762   -4.5725  -15.9042 O   0  0  0  0  0  0  0  0  0  0  0  0
  -32.6979   -4.0423  -19.1454 P   0  0  1  0  0  0  0  0  0  0  0  0
  -35.2596   -4.5348  -14.4680 C   0  0  2  0  0  0  0  0  0  0  0  0
  -32.6085   -6.3151  -13.0257 N   0  0  0  0  0  0  0  0  0  0  0  0
  -35.1377   -2.8095  -12.8235 O   0  0  0  0  0  0  0  0  0  0  0  0
  -34.7103   -3.2018  -14.1332 C   0  0  2  0  0  0  0  0  0  0  0  0
  -34.1262   -9.5620  -12.6124 N   0  0  0  0  0  0  0  0  0  0  0  0
  -36.6131   -2.0666  -14.9921 O   0  0  0  0  0  0  0  0  0  0  0  0
  -35.2177   -2.3440  -15.1971 C   0  0  2  0  0  0  0  0  0  0  0  0
  -33.4133   -7.3209  -13.4019 C   0  0  0  0  0  0  0  0  0  0  0  0
  -35.6212   -7.5082  -14.5215 N   0  0  0  0  0  0  0  0  0  0  0  0
  -33.7567   -4.1200  -17.9915 O   0  0  0  0  0  0  0  0  0  0  0  0
  -33.7743   -3.1214  -17.0238 C   0  0  0  0  0  0  0  0  0  0  0  0
  -33.2368   -2.8747  -20.0491 O   0  0  0  0  0  0  0  0  0  0  0  0
  -33.1958   -5.1605  -13.3937 C   0  0  0  0  0  0  0  0  0  0  0  0
  -32.0683   -9.2472  -13.5354 O   0  0  0  0  0  0  0  0  0  0  0  0
  -33.1473   -8.7575  -13.2019 C   0  0  0  0  0  0  0  0  0  0  0  0
  -34.5191   -6.7905  -14.0029 C   0  0  0  0  0  0  0  0  0  0  0  0
  -31.3422   -3.8042  -18.5680 O   0  5  0  0  0  0  0  0  0  0  0  0
  -32.5204   -5.3603  -19.7811 O   0  0  0  0  0  0  0  0  0  0  0  0
  1 17  1  0  0  0  0
  1 20  1  0  0  0  0
  2 15  1  1  0  0  0
  2  3  1  0  0  0  0
  2 11  1  0  0  0  0
  3  5  1  0  0  0  0
  4 16  1  6  0  0  0
  4 21  1  0  0  0  0
  4 22  2  0  0  0  0
  4 14  1  0  0  0  0
  5  1  1  6  0  0  0
  5  8  1  0  0  0  0
  6 17  2  0  0  0  0
  6 12  1  0  0  0  0
  8  7  1  1  0  0  0
  8 11  1  0  0  0  0
  9 19  1  0  0  0  0
 11 10  1  1  0  0  0
 12 20  2  0  0  0  0
 12 19  1  0  0  0  0
 13 20  1  0  0  0  0
 14 15  1  0  0  0  0
 18 19  2  0  0  0  0
M  CHG  1  21  -1
M  END
>  <CHROM.1>
109.80294626,56.06340730,-73.03036654,160.91116584,129.13867520,-33.90617886
-4.98375819,-15.67899795,1.70134912,-0.95621301,2.31556683

>  <Name>
ligand

>  <RI>
0

>  <Rbt.Current_Directory>
/home/itssahil/PROJECTS/Mol_Feturizer/New_Systems/rnas/4XWF

>  <Rbt.Executable>
rbdock ($Id: //depot/dev/client3/rdock/2013.1/src/exe/rbdock.cxx#4 $)

>  <Rbt.Library>
libRbt.so (2013.1, Build901 2013/11/27)

>  <Rbt.Parameter_File>
/export/apps/rDock/src/rDock_2013.1_src/data/scripts/dock_solv.prm

>  <Rbt.Receptor>
prm/blind_docking_40.prm

>  <SCORE>
-6.83116

>  <SCORE.INTER>
-8.95657

>  <SCORE.INTER.CONST>
1

>  <SCORE.INTER.POLAR>
0

>  <SCORE.INTER.ROT>
5

>  <SCORE.INTER.SOLV>
18.9089

>  <SCORE.INTER.VDW>
-19.2073

>  <SCORE.INTER.norm>
-0.407117

>  <SCORE.INTRA>
2.05434

>  <SCORE.INTRA.DIHEDRAL>
0.164173

>  <SCORE.INTRA.DIHEDRAL.0>
3.49807

>  <SCORE.INTRA.POLAR>
0

>  <SCORE.INTRA.POLAR.0>
0

>  <SCORE.INTRA.REPUL>
0

>  <SCORE.INTRA.REPUL.0>
0

>  <SCORE.INTRA.SOLV>
-0.549151

>  <SCORE.INTRA.SOLV.lig_0>
-73.062

>  <SCORE.INTRA.VDW>
2.24682

>  <SCORE.INTRA.VDW.0>
-1.83782

>  <SCORE.INTRA.norm>
0.0933789

>  <SCORE.RESTR>
0.0710737

>  <SCORE.RESTR.CAVITY>
0.0710737

>  <SCORE.RESTR.norm>
0.00323062

>  <SCORE.SYSTEM>
0

>  <SCORE.SYSTEM.CONST>
0

>  <SCORE.SYSTEM.DIHEDRAL>
0

>  <SCORE.SYSTEM.SOLV>
0

>  <SCORE.SYSTEM.norm>
0

>  <SCORE.heavy>
22

>  <SCORE.norm>
-0.310507

>  <RMSD>
12.979

$$$$
ligand
 OpenBabel11021811513D
libRbt.so/2013.1/901 2013/11/27
 22 23  0  0  0  0  0  0  0  0999 V2000
  -32.5294    7.5989  -20.8572 N   0  0  0  0  0  0  0  0  0  0  0  0
  -32.1645    4.8082  -18.9780 C   0  0  1  0  0  0  0  0  0  0  0  0
  -31.5314    5.7684  -19.8709 O   0  0  0  0  0  0  0  0  0  0  0  0
  -34.4938    1.8660  -19.5020 P   0  0  1  0  0  0  0  0  0  0  0  0
  -32.1432    7.0499  -19.6520 C   0  0  2  0  0  0  0  0  0  0  0  0
  -33.5880    7.9085  -22.7266 N   0  0  0  0  0  0  0  0  0  0  0  0
  -33.8022    7.8985  -18.1610 O   0  0  0  0  0  0  0  0  0  0  0  0
  -33.3887    6.7502  -18.9107 C   0  0  2  0  0  0  0  0  0  0  0  0
  -32.7995   11.3502  -23.0658 N   0  0  0  0  0  0  0  0  0  0  0  0
  -32.2096    6.0291  -16.9776 O   0  0  0  0  0  0  0  0  0  0  0  0
  -33.0282    5.6069  -18.0812 C   0  0  2  0  0  0  0  0  0  0  0  0
  -32.7248    8.9224  -22.5611 C   0  0  0  0  0  0  0  0  0  0  0  0
  -31.0766    9.5900  -20.8287 N   0  0  0  0  0  0  0  0  0  0  0  0
  -33.5335    2.9722  -18.9428 O   0  0  0  0  0  0  0  0  0  0  0  0
  -32.9663    3.8832  -19.8274 C   0  0  0  0  0  0  0  0  0  0  0  0
  -35.3973    1.5159  -18.2644 O   0  0  0  0  0  0  0  0  0  0  0  0
  -33.4601    7.0843  -21.6693 C   0  0  0  0  0  0  0  0  0  0  0  0
  -32.1451    9.8467  -24.6460 O   0  0  0  0  0  0  0  0  0  0  0  0
  -32.5290   10.0477  -23.4939 C   0  0  0  0  0  0  0  0  0  0  0  0
  -32.0566    8.7361  -21.3846 C   0  0  0  0  0  0  0  0  0  0  0  0
  -35.2376    2.3964  -20.6824 O   0  5  0  0  0  0  0  0  0  0  0  0
  -33.7247    0.7646  -20.1087 O   0  0  0  0  0  0  0  0  0  0  0  0
  1 17  1  0  0  0  0
  1 20  1  0  0  0  0
  2 15  1  6  0  0  0
  2  3  1  0  0  0  0
  2 11  1  0  0  0  0
  3  5  1  0  0  0  0
  4 16  1  1  0  0  0
  4 21  1  0  0  0  0
  4 22  2  0  0  0  0
  4 14  1  0  0  0  0
  5  1  1  6  0  0  0
  5  8  1  0  0  0  0
  6 17  2  0  0  0  0
  6 12  1  0  0  0  0
  8  7  1  1  0  0  0
  8 11  1  0  0  0  0
  9 19  1  0  0  0  0
 11 10  1  1  0  0  0
 12 20  2  0  0  0  0
 12 19  1  0  0  0  0
 13 20  1  0  0  0  0
 14 15  1  0  0  0  0
 18 19  2  0  0  0  0
M  CHG  1  21  -1
M  END
>  <CHROM.1>
64.30659795,179.00910896,-154.80550260,177.98660914,117.86652866,-33.13253397
5.92736291,-20.30919475,-0.94030490,1.19137504,2.12115589

>  <Name>
ligand

>  <RI>
0

>  <Rbt.Current_Directory>
/home/itssahil/PROJECTS/Mol_Feturizer/New_Systems/rnas/4XWF

>  <Rbt.Executable>
rbdock ($Id: //depot/dev/client3/rdock/2013.1/src/exe/rbdock.cxx#4 $)

>  <Rbt.Library>
libRbt.so (2013.1, Build901 2013/11/27)

>  <Rbt.Parameter_File>
/export/apps/rDock/src/rDock_2013.1_src/data/scripts/dock_solv.prm

>  <Rbt.Receptor>
prm/blind_docking_80.prm

>  <SCORE>
-9.00688

>  <SCORE.INTER>
-8.84672

>  <SCORE.INTER.CONST>
1

>  <SCORE.INTER.POLAR>
0

>  <SCORE.INTER.ROT>
5

>  <SCORE.INTER.SOLV>
17.6754

>  <SCORE.INTER.VDW>
-18.7229

>  <SCORE.INTER.norm>
-0.402124

>  <SCORE.INTRA>
-0.160164

>  <SCORE.INTRA.DIHEDRAL>
-1.13368

>  <SCORE.INTRA.DIHEDRAL.0>
3.49807

>  <SCORE.INTRA.POLAR>
0

>  <SCORE.INTRA.POLAR.0>
0

>  <SCORE.INTRA.REPUL>
0

>  <SCORE.INTRA.REPUL.0>
0

>  <SCORE.INTRA.SOLV>
-0.243865

>  <SCORE.INTRA.SOLV.lig_0>
-73.062

>  <SCORE.INTRA.VDW>
0.528608

>  <SCORE.INTRA.VDW.0>
-1.83782

>  <SCORE.INTRA.norm>
-0.0072802

>  <SCORE.RESTR>
0

>  <SCORE.RESTR.CAVITY>
0

>  <SCORE.RESTR.norm>
0

>  <SCORE.SYSTEM>
0

>  <SCORE.SYSTEM.CONST>
0

>  <SCORE.SYSTEM.DIHEDRAL>
0

>  <SCORE.SYSTEM.SOLV>
0

>  <SCORE.SYSTEM.norm>
0

>  <SCORE.heavy>
22

>  <SCORE.norm>
-0.409404

>  <RMSD>
12.980

$$$$
ligand
 OpenBabel11021811513D
libRbt.so/2013.1/901 2013/11/27
 22 23  0  0  0  0  0  0  0  0999 V2000
  -34.3964   -5.5069  -13.9458 N   0  0  0  0  0  0  0  0  0  0  0  0
  -35.0683   -3.2086  -16.3372 C   0  0  1  0  0  0  0  0  0  0  0  0
  -35.2438   -4.5798  -15.8803 O   0  0  0  0  0  0  0  0  0  0  0  0
  -32.6709   -3.9756  -19.0881 P   0  0  1  0  0  0  0  0  0  0  0  0
  -35.2772   -4.5692  -14.4439 C   0  0  2  0  0  0  0  0  0  0  0  0
  -32.6568   -6.3849  -12.9898 N   0  0  0  0  0  0  0  0  0  0  0  0
  -35.2083   -2.8756  -12.7638 O   0  0  0  0  0  0  0  0  0  0  0  0
  -34.7365   -3.2446  -14.0650 C   0  0  2  0  0  0  0  0  0  0  0  0
  -31.9672   -9.3204  -13.1283 N   0  0  0  0  0  0  0  0  0  0  0  0
  -36.6052   -2.0872  -14.9680 O   0  0  0  0  0  0  0  0  0  0  0  0
  -35.2042   -2.3652  -15.1295 C   0  0  2  0  0  0  0  0  0  0  0  0
  -33.4963   -7.3768  -13.3245 C   0  0  0  0  0  0  0  0  0  0  0  0
  -35.7260   -7.5309  -14.4053 N   0  0  0  0  0  0  0  0  0  0  0  0
  -33.6277   -4.1374  -17.8565 O   0  0  0  0  0  0  0  0  0  0  0  0
  -33.7000   -3.1127  -16.9193 C   0  0  0  0  0  0  0  0  0  0  0  0
  -31.3024   -3.5718  -18.4289 O   0  0  0  0  0  0  0  0  0  0  0  0
  -33.2159   -5.2245  -13.3826 C   0  0  0  0  0  0  0  0  0  0  0  0
  -34.2155   -9.5702  -12.8672 O   0  0  0  0  0  0  0  0  0  0  0  0
  -33.2691   -8.8143  -13.0865 C   0  0  0  0  0  0  0  0  0  0  0  0
  -34.5955   -6.8315  -13.9242 C   0  0  0  0  0  0  0  0  0  0  0  0
  -32.6326   -5.2494  -19.8652 O   0  5  0  0  0  0  0  0  0  0  0  0
  -33.2443   -3.0444  -20.0763 O   0  0  0  0  0  0  0  0  0  0  0  0
  1 17  1  0  0  0  0
  1 20  1  0  0  0  0
  2 15  1  1  0  0  0
  2  3  1  0  0  0  0
  2 11  1  0  0  0  0
  3  5  1  0  0  0  0
  4 16  1  1  0  0  0
  4 21  1  0  0  0  0
  4 22  2  0  0  0  0
  4 14  1  0  0  0  0
  5  1  1  1  0  0  0
  5  8  1  0  0  0  0
  6 17  2  0  0  0  0
  6 12  1  0  0  0  0
  8  7  1  1  0  0  0
  8 11  1  0  0  0  0
  9 19  1  0  0  0  0
 11 10  1  1  0  0  0
 12 20  2  0  0  0  0
 12 19  1  0  0  0  0
 13 20  1  0  0  0  0
 14 15  1  0  0  0  0
 18 19  2  0  0  0  0
M  CHG  1  21  -1
M  END
>  <CHROM.1>
105.55217388,53.09010822,50.84743553,152.17134175,-32.70325650,-33.93025876
-4.99722743,-15.61856386,1.73258400,-0.95677825,2.34533694

>  <Name>
ligand

>  <RI>
0

>  <Rbt.Current_Directory>
/home/itssahil/PROJECTS/Mol_Feturizer/New_Systems/rnas/4XWF

>  <Rbt.Executable>
rbdock ($Id: //depot/dev/client3/rdock/2013.1/src/exe/rbdock.cxx#4 $)

>  <Rbt.Library>
libRbt.so (2013.1, Build901 2013/11/27)

>  <Rbt.Parameter_File>
/export/apps/rDock/src/rDock_2013.1_src/data/scripts/dock_solv.prm

>  <Rbt.Receptor>
prm/blind_docking_40.prm

>  <SCORE>
-7.04839

>  <SCORE.INTER>
-10.3813

>  <SCORE.INTER.CONST>
1

>  <SCORE.INTER.POLAR>
0

>  <SCORE.INTER.ROT>
5

>  <SCORE.INTER.SOLV>
16.9088

>  <SCORE.INTER.VDW>
-19.4905

>  <SCORE.INTER.norm>
-0.471878

>  <SCORE.INTRA>
3.21596

>  <SCORE.INTRA.DIHEDRAL>
2.4939

>  <SCORE.INTRA.DIHEDRAL.0>
3.49807

>  <SCORE.INTRA.POLAR>
0

>  <SCORE.INTRA.POLAR.0>
0

>  <SCORE.INTRA.REPUL>
0

>  <SCORE.INTRA.REPUL.0>
0

>  <SCORE.INTRA.SOLV>
-0.861066

>  <SCORE.INTRA.SOLV.lig_0>
-73.062

>  <SCORE.INTRA.VDW>
2.39954

>  <SCORE.INTRA.VDW.0>
-1.83782

>  <SCORE.INTRA.norm>
0.14618

>  <SCORE.RESTR>
0.116956

>  <SCORE.RESTR.CAVITY>
0.116956

>  <SCORE.RESTR.norm>
0.0053162

>  <SCORE.SYSTEM>
0

>  <SCORE.SYSTEM.CONST>
0

>  <SCORE.SYSTEM.DIHEDRAL>
0

>  <SCORE.SYSTEM.SOLV>
0

>  <SCORE.SYSTEM.norm>
0

>  <SCORE.heavy>
22

>  <SCORE.norm>
-0.320381

>  <RMSD>
12.990

$$$$
ligand
 OpenBabel11021811513D
libRbt.so/2013.1/901 2013/11/27
 22 23  0  0  0  0  0  0  0  0999 V2000
  -34.4068   -5.5337  -13.9527 N   0  0  0  0  0  0  0  0  0  0  0  0
  -35.0822   -3.2253  -16.3335 C   0  0  1  0  0  0  0  0  0  0  0  0
  -35.2574   -4.5984  -15.8819 O   0  0  0  0  0  0  0  0  0  0  0  0
  -32.6896   -3.9755  -19.0942 P   0  0  1  0  0  0  0  0  0  0  0  0
  -35.2882   -4.5937  -14.4454 C   0  0  2  0  0  0  0  0  0  0  0  0
  -32.6640   -6.4164  -13.0070 N   0  0  0  0  0  0  0  0  0  0  0  0
  -35.2156   -2.9070  -12.7585 O   0  0  0  0  0  0  0  0  0  0  0  0
  -34.7463   -3.2707  -14.0620 C   0  0  2  0  0  0  0  0  0  0  0  0
  -31.9756   -9.3363  -13.0527 N   0  0  0  0  0  0  0  0  0  0  0  0
  -36.6163   -2.1090  -14.9569 O   0  0  0  0  0  0  0  0  0  0  0  0
  -35.2156   -2.3869  -15.1221 C   0  0  2  0  0  0  0  0  0  0  0  0
  -33.5077   -7.4061  -13.3374 C   0  0  0  0  0  0  0  0  0  0  0  0
  -35.7439   -7.5543  -14.4058 N   0  0  0  0  0  0  0  0  0  0  0  0
  -33.6471   -4.1442  -17.8639 O   0  0  0  0  0  0  0  0  0  0  0  0
  -33.7150   -3.1275  -16.9176 C   0  0  0  0  0  0  0  0  0  0  0  0
  -31.3160   -3.5967  -18.4307 O   0  0  0  0  0  0  0  0  0  0  0  0
  -33.2225   -5.2544  -13.3960 C   0  0  0  0  0  0  0  0  0  0  0  0
  -34.2341   -9.6127  -12.9629 O   0  0  0  0  0  0  0  0  0  0  0  0
  -33.2827   -8.8443  -13.1015 C   0  0  0  0  0  0  0  0  0  0  0  0
  -34.6090   -6.8578  -13.9307 C   0  0  0  0  0  0  0  0  0  0  0  0
  -32.6666   -5.2382  -19.8897 O   0  5  0  0  0  0  0  0  0  0  0  0
  -33.2534   -3.0236  -20.0682 O   0  0  0  0  0  0  0  0  0  0  0  0
  1 17  1  0  0  0  0
  1 20  1  0  0  0  0
  2 15  1  1  0  0  0
  2  3  1  0  0  0  0
  2 11  1  0  0  0  0
  3  5  1  0  0  0  0
  4 16  1  1  0  0  0
  4 21  1  0  0  0  0
  4 22  2  0  0  0  0
  4 14  1  0  0  0  0
  5  1  1  1  0  0  0
  5  8  1  0  0  0  0
  6 17  2  0  0  0  0
  6 12  1  0  0  0  0
  8  7  1  1  0  0  0
  8 11  1  0  0  0  0
  9 19  1  0  0  0  0
 11 10  1  1  0  0  0
 12 20  2  0  0  0  0
 12 19  1  0  0  0  0
 13 20  1  0  0  0  0
 14 15  1  0  0  0  0
 18 19  2  0  0  0  0
M  CHG  1  21  -1
M  END
>  <CHROM.1>
105.23102213,53.38309094,51.36397398,152.33219900,-27.99971124,-33.94416834
-5.01526406,-15.62332824,1.72987339,-0.95782552,2.34737228

>  <Name>
ligand

>  <RI>
0

>  <Rbt.Current_Directory>
/home/itssahil/PROJECTS/Mol_Feturizer/New_Systems/rnas/4XWF

>  <Rbt.Executable>
rbdock ($Id: //depot/dev/client3/rdock/2013.1/src/exe/rbdock.cxx#4 $)

>  <Rbt.Library>
libRbt.so (2013.1, Build901 2013/11/27)

>  <Rbt.Parameter_File>
/export/apps/rDock/src/rDock_2013.1_src/data/scripts/dock_solv.prm

>  <Rbt.Receptor>
prm/blind_docking_40.prm

>  <SCORE>
-7.03604

>  <SCORE.INTER>
-10.271

>  <SCORE.INTER.CONST>
1

>  <SCORE.INTER.POLAR>
0

>  <SCORE.INTER.ROT>
5

>  <SCORE.INTER.SOLV>
16.8192

>  <SCORE.INTER.VDW>
-19.3871

>  <SCORE.INTER.norm>
-0.466865

>  <SCORE.INTRA>
3.09661

>  <SCORE.INTRA.DIHEDRAL>
2.23198

>  <SCORE.INTRA.DIHEDRAL.0>
3.49807

>  <SCORE.INTRA.POLAR>
0

>  <SCORE.INTRA.POLAR.0>
0

>  <SCORE.INTRA.REPUL>
0

>  <SCORE.INTRA.REPUL.0>
0

>  <SCORE.INTRA.SOLV>
-0.829646

>  <SCORE.INTRA.SOLV.lig_0>
-73.062

>  <SCORE.INTRA.VDW>
2.39544

>  <SCORE.INTRA.VDW.0>
-1.83782

>  <SCORE.INTRA.norm>
0.140755

>  <SCORE.RESTR>
0.138386

>  <SCORE.RESTR.CAVITY>
0.138386

>  <SCORE.RESTR.norm>
0.00629029

>  <SCORE.SYSTEM>
0

>  <SCORE.SYSTEM.CONST>
0

>  <SCORE.SYSTEM.DIHEDRAL>
0

>  <SCORE.SYSTEM.SOLV>
0

>  <SCORE.SYSTEM.norm>
0

>  <SCORE.heavy>
22

>  <SCORE.norm>
-0.31982

>  <RMSD>
13.011

$$$$
ligand
 OpenBabel11021811513D
libRbt.so/2013.1/901 2013/11/27
 22 23  0  0  0  0  0  0  0  0999 V2000
  -34.1016    6.1231  -20.8001 N   0  0  0  0  0  0  0  0  0  0  0  0
  -33.4235    2.8152  -20.5758 C   0  0  1  0  0  0  0  0  0  0  0  0
  -33.6107    3.9650  -21.4492 O   0  0  0  0  0  0  0  0  0  0  0  0
  -35.8150    0.3173  -19.0298 P   0  0  1  0  0  0  0  0  0  0  0  0
  -33.1428    5.1323  -20.7543 C   0  0  2  0  0  0  0  0  0  0  0  0
  -36.0294    7.1185  -20.7379 N   0  0  0  0  0  0  0  0  0  0  0  0
  -32.1016    5.5406  -18.6459 O   0  0  0  0  0  0  0  0  0  0  0  0
  -33.0428    4.7122  -19.3385 C   0  0  2  0  0  0  0  0  0  0  0  0
  -34.8436   10.3662  -20.0496 N   0  0  0  0  0  0  0  0  0  0  0  0
  -31.2539    3.2123  -19.7825 O   0  0  0  0  0  0  0  0  0  0  0  0
  -32.6419    3.3132  -19.4228 C   0  0  2  0  0  0  0  0  0  0  0  0
  -35.0813    8.0521  -20.9114 C   0  0  0  0  0  0  0  0  0  0  0  0
  -32.6053    8.0599  -21.0933 N   0  0  0  0  0  0  0  0  0  0  0  0
  -34.5725    1.1402  -19.5173 O   0  0  0  0  0  0  0  0  0  0  0  0
  -34.7786    2.3562  -20.1597 C   0  0  0  0  0  0  0  0  0  0  0  0
  -35.1686   -0.9689  -18.3988 O   0  0  0  0  0  0  0  0  0  0  0  0
  -35.4183    5.9201  -20.6753 C   0  0  0  0  0  0  0  0  0  0  0  0
  -35.9310    9.9532  -22.0073 O   0  0  0  0  0  0  0  0  0  0  0  0
  -35.3145    9.5023  -21.0421 C   0  0  0  0  0  0  0  0  0  0  0  0
  -33.8643    7.4333  -20.9485 C   0  0  0  0  0  0  0  0  0  0  0  0
  -36.6188    1.1383  -18.0770 O   0  5  0  0  0  0  0  0  0  0  0  0
  -36.7748    0.1190  -20.1307 O   0  0  0  0  0  0  0  0  0  0  0  0
  1 17  1  0  0  0  0
  1 20  1  0  0  0  0
  2 15  1  1  0  0  0
  2  3  1  0  0  0  0
  2 11  1  0  0  0  0
  3  5  1  0  0  0  0
  4 16  1  1  0  0  0
  4 21  1  0  0  0  0
  4 22  2  0  0  0  0
  4 14  1  0  0  0  0
  5  1  1  1  0  0  0
  5  8  1  0  0  0  0
  6 17  2  0  0  0  0
  6 12  1  0  0  0  0
  8  7  1  1  0  0  0
  8 11  1  0  0  0  0
  9 19  1  0  0  0  0
 11 10  1  6  0  0  0
 12 20  2  0  0  0  0
 12 19  1  0  0  0  0
 13 20  1  0  0  0  0
 14 15  1  0  0  0  0
 18 19  2  0  0  0  0
M  CHG  1  21  -1
M  END
>  <CHROM.1>
39.66609832,170.44796981,178.93488858,-175.82239226,114.15063462,-34.45315409
4.40903467,-20.06693452,-1.48519944,0.06602959,2.91932998

>  <Name>
ligand

>  <RI>
0

>  <Rbt.Current_Directory>
/home/itssahil/PROJECTS/Mol_Feturizer/New_Systems/rnas/4XWF

>  <Rbt.Executable>
rbdock ($Id: //depot/dev/client3/rdock/2013.1/src/exe/rbdock.cxx#4 $)

>  <Rbt.Library>
libRbt.so (2013.1, Build901 2013/11/27)

>  <Rbt.Parameter_File>
/export/apps/rDock/src/rDock_2013.1_src/data/scripts/dock_solv.prm

>  <Rbt.Receptor>
prm/blind_docking_60.prm

>  <SCORE>
-9.86919

>  <SCORE.INTER>
-9.02191

>  <SCORE.INTER.CONST>
1

>  <SCORE.INTER.POLAR>
0

>  <SCORE.INTER.ROT>
5

>  <SCORE.INTER.SOLV>
14.7926

>  <SCORE.INTER.VDW>
-17.8788

>  <SCORE.INTER.norm>
-0.410087

>  <SCORE.INTRA>
-0.847281

>  <SCORE.INTRA.DIHEDRAL>
-1.58628

>  <SCORE.INTRA.DIHEDRAL.0>
3.49807

>  <SCORE.INTRA.POLAR>
0

>  <SCORE.INTRA.POLAR.0>
0

>  <SCORE.INTRA.REPUL>
0

>  <SCORE.INTRA.REPUL.0>
0

>  <SCORE.INTRA.SOLV>
0.36813

>  <SCORE.INTRA.SOLV.lig_0>
-73.062

>  <SCORE.INTRA.VDW>
-0.238204

>  <SCORE.INTRA.VDW.0>
-1.83782

>  <SCORE.INTRA.norm>
-0.0385128

>  <SCORE.RESTR>
0

>  <SCORE.RESTR.CAVITY>
0

>  <SCORE.RESTR.norm>
0

>  <SCORE.SYSTEM>
0

>  <SCORE.SYSTEM.CONST>
0

>  <SCORE.SYSTEM.DIHEDRAL>
0

>  <SCORE.SYSTEM.SOLV>
0

>  <SCORE.SYSTEM.norm>
0

>  <SCORE.heavy>
22

>  <SCORE.norm>
-0.4486

>  <RMSD>
13.028

$$$$
ligand
 OpenBabel11021811513D
libRbt.so/2013.1/901 2013/11/27
 22 23  0  0  0  0  0  0  0  0999 V2000
  -34.1146    6.1117  -20.8072 N   0  0  0  0  0  0  0  0  0  0  0  0
  -33.4350    2.8048  -20.5724 C   0  0  1  0  0  0  0  0  0  0  0  0
  -33.6256    3.9511  -21.4496 O   0  0  0  0  0  0  0  0  0  0  0  0
  -35.8194    0.3040  -19.0223 P   0  0  1  0  0  0  0  0  0  0  0  0
  -33.1554    5.1212  -20.7610 C   0  0  2  0  0  0  0  0  0  0  0  0
  -36.0434    7.1055  -20.7508 N   0  0  0  0  0  0  0  0  0  0  0  0
  -32.1066    5.5380  -18.6581 O   0  0  0  0  0  0  0  0  0  0  0  0
  -33.0501    4.7067  -19.3440 C   0  0  2  0  0  0  0  0  0  0  0  0
  -34.8613   10.3507  -20.0408 N   0  0  0  0  0  0  0  0  0  0  0  0
  -31.2625    3.2055  -19.7887 O   0  0  0  0  0  0  0  0  0  0  0  0
  -32.6492    3.3074  -19.4243 C   0  0  2  0  0  0  0  0  0  0  0  0
  -35.0949    8.0405  -20.9142 C   0  0  0  0  0  0  0  0  0  0  0  0
  -32.6180    8.0508  -21.0823 N   0  0  0  0  0  0  0  0  0  0  0  0
  -34.5787    1.1379  -19.4957 O   0  0  0  0  0  0  0  0  0  0  0  0
  -34.7884    2.3471  -20.1496 C   0  0  0  0  0  0  0  0  0  0  0  0
  -36.4825    1.2304  -17.9394 O   0  0  0  0  0  0  0  0  0  0  0  0
  -35.4318    5.9072  -20.6907 C   0  0  0  0  0  0  0  0  0  0  0  0
  -35.9417    9.9464  -22.0042 O   0  0  0  0  0  0  0  0  0  0  0  0
  -35.3283    9.4913  -21.0390 C   0  0  0  0  0  0  0  0  0  0  0  0
  -33.8773    7.4227  -20.9477 C   0  0  0  0  0  0  0  0  0  0  0  0
  -36.6929   -0.0052  -20.1925 O   0  5  0  0  0  0  0  0  0  0  0  0
  -35.4095   -1.0459  -18.5954 O   0  0  0  0  0  0  0  0  0  0  0  0
  1 17  1  0  0  0  0
  1 20  1  0  0  0  0
  2 15  1  1  0  0  0
  2  3  1  0  0  0  0
  2 11  1  0  0  0  0
  3  5  1  0  0  0  0
  4 16  1  1  0  0  0
  4 21  1  0  0  0  0
  4 22  2  0  0  0  0
  4 14  1  0  0  0  0
  5  1  1  1  0  0  0
  5  8  1  0  0  0  0
  6 17  2  0  0  0  0
  6 12  1  0  0  0  0
  8  7  1  1  0  0  0
  8 11  1  0  0  0  0
  9 19  1  0  0  0  0
 11 10  1  6  0  0  0
 12 20  2  0  0  0  0
 12 19  1  0  0  0  0
 13 20  1  0  0  0  0
 14 15  1  0  0  0  0
 18 19  2  0  0  0  0
M  CHG  1  21  -1
M  END
>  <CHROM.1>
38.92819348,170.81246846,-64.76761925,-174.66703872,114.27174732,-34.46321856
4.39543925,-20.07234736,-1.48379427,0.06668425,2.92366745

>  <Name>
ligand

>  <RI>
0

>  <Rbt.Current_Directory>
/home/itssahil/PROJECTS/Mol_Feturizer/New_Systems/rnas/4XWF

>  <Rbt.Executable>
rbdock ($Id: //depot/dev/client3/rdock/2013.1/src/exe/rbdock.cxx#4 $)

>  <Rbt.Library>
libRbt.so (2013.1, Build901 2013/11/27)

>  <Rbt.Parameter_File>
/export/apps/rDock/src/rDock_2013.1_src/data/scripts/dock_solv.prm

>  <Rbt.Receptor>
prm/blind_docking_60.prm

>  <SCORE>
-11.0857

>  <SCORE.INTER>
-9.97409

>  <SCORE.INTER.CONST>
1

>  <SCORE.INTER.POLAR>
0

>  <SCORE.INTER.ROT>
5

>  <SCORE.INTER.SOLV>
12.618

>  <SCORE.INTER.VDW>
-17.7887

>  <SCORE.INTER.norm>
-0.453368

>  <SCORE.INTRA>
-1.1116

>  <SCORE.INTRA.DIHEDRAL>
-1.5081

>  <SCORE.INTRA.DIHEDRAL.0>
3.49807

>  <SCORE.INTRA.POLAR>
0

>  <SCORE.INTRA.POLAR.0>
0

>  <SCORE.INTRA.REPUL>
0

>  <SCORE.INTRA.REPUL.0>
0

>  <SCORE.INTRA.SOLV>
-0.204462

>  <SCORE.INTRA.SOLV.lig_0>
-73.062

>  <SCORE.INTRA.VDW>
-0.255312

>  <SCORE.INTRA.VDW.0>
-1.83782

>  <SCORE.INTRA.norm>
-0.0505271

>  <SCORE.RESTR>
0

>  <SCORE.RESTR.CAVITY>
0

>  <SCORE.RESTR.norm>
0

>  <SCORE.SYSTEM>
0

>  <SCORE.SYSTEM.CONST>
0

>  <SCORE.SYSTEM.DIHEDRAL>
0

>  <SCORE.SYSTEM.SOLV>
0

>  <SCORE.SYSTEM.norm>
0

>  <SCORE.heavy>
22

>  <SCORE.norm>
-0.503895

>  <RMSD>
13.036

$$$$
ligand
 OpenBabel11021811513D
libRbt.so/2013.1/901 2013/11/27
 22 23  0  0  0  0  0  0  0  0999 V2000
  -31.9504    8.6758  -19.8065 N   0  0  0  0  0  0  0  0  0  0  0  0
  -32.2482    5.3070  -19.6829 C   0  0  1  0  0  0  0  0  0  0  0  0
  -31.3879    6.4452  -19.9734 O   0  0  0  0  0  0  0  0  0  0  0  0
  -34.7096    3.3431  -21.7884 P   0  0  1  0  0  0  0  0  0  0  0  0
  -31.7519    7.5157  -19.0869 C   0  0  2  0  0  0  0  0  0  0  0  0
  -31.6357   10.6580  -20.6328 N   0  0  0  0  0  0  0  0  0  0  0  0
  -33.3024    7.7696  -17.2904 O   0  0  0  0  0  0  0  0  0  0  0  0
  -33.0746    7.1254  -18.5493 C   0  0  2  0  0  0  0  0  0  0  0  0
  -33.8330   10.2685  -23.3995 N   0  0  0  0  0  0  0  0  0  0  0  0
  -32.1771    5.2871  -17.3400 O   0  0  0  0  0  0  0  0  0  0  0  0
  -32.9935    5.6727  -18.4585 C   0  0  2  0  0  0  0  0  0  0  0  0
  -32.7603   10.1558  -21.1655 C   0  0  0  0  0  0  0  0  0  0  0  0
  -34.0237    8.0275  -20.9714 N   0  0  0  0  0  0  0  0  0  0  0  0
  -33.7502    3.8915  -20.6760 O   0  0  0  0  0  0  0  0  0  0  0  0
  -33.1610    5.1393  -20.8484 C   0  0  0  0  0  0  0  0  0  0  0  0
  -33.7928    3.3012  -23.0644 O   0  0  0  0  0  0  0  0  0  0  0  0
  -31.1378    9.7387  -19.7841 C   0  0  0  0  0  0  0  0  0  0  0  0
  -34.1676   11.9102  -21.8572 O   0  0  0  0  0  0  0  0  0  0  0  0
  -33.6315   10.8389  -22.1397 C   0  0  0  0  0  0  0  0  0  0  0  0
  -32.9634    8.9065  -20.6523 C   0  0  0  0  0  0  0  0  0  0  0  0
  -35.2546    2.0171  -21.3727 O   0  5  0  0  0  0  0  0  0  0  0  0
  -35.9372    4.1552  -21.8663 O   0  0  0  0  0  0  0  0  0  0  0  0
  1 17  1  0  0  0  0
  1 20  1  0  0  0  0
  2 15  1  6  0  0  0
  2  3  1  0  0  0  0
  2 11  1  0  0  0  0
  3  5  1  0  0  0  0
  4 16  1  6  0  0  0
  4 21  1  0  0  0  0
  4 22  2  0  0  0  0
  4 14  1  0  0  0  0
  5  1  1  6  0  0  0
  5  8  1  0  0  0  0
  6 17  2  0  0  0  0
  6 12  1  0  0  0  0
  8  7  1  1  0  0  0
  8 11  1  0  0  0  0
  9 19  1  0  0  0  0
 11 10  1  1  0  0  0
 12 20  2  0  0  0  0
 12 19  1  0  0  0  0
 13 20  1  0  0  0  0
 14 15  1  0  0  0  0
 18 19  2  0  0  0  0
M  CHG  1  21  -1
M  END
>  <CHROM.1>
-109.17272285,167.17434671,59.29893706,-175.87883603,119.14980055,-33.29309461
6.77147858,-20.54590428,-1.09752230,1.04392616,2.78680885

>  <Name>
ligand

>  <RI>
0

>  <Rbt.Current_Directory>
/home/itssahil/PROJECTS/Mol_Feturizer/New_Systems/rnas/4XWF

>  <Rbt.Executable>
rbdock ($Id: //depot/dev/client3/rdock/2013.1/src/exe/rbdock.cxx#4 $)

>  <Rbt.Library>
libRbt.so (2013.1, Build901 2013/11/27)

>  <Rbt.Parameter_File>
/export/apps/rDock/src/rDock_2013.1_src/data/scripts/dock_solv.prm

>  <Rbt.Receptor>
prm/blind_docking_80.prm

>  <SCORE>
-8.44156

>  <SCORE.INTER>
-10.4224

>  <SCORE.INTER.CONST>
1

>  <SCORE.INTER.POLAR>
0

>  <SCORE.INTER.ROT>
5

>  <SCORE.INTER.SOLV>
10.5802

>  <SCORE.INTER.VDW>
-17.4084

>  <SCORE.INTER.norm>
-0.473748

>  <SCORE.INTRA>
1.98089

>  <SCORE.INTRA.DIHEDRAL>
-1.36712

>  <SCORE.INTRA.DIHEDRAL.0>
3.49807

>  <SCORE.INTRA.POLAR>
0

>  <SCORE.INTRA.POLAR.0>
0

>  <SCORE.INTRA.REPUL>
0

>  <SCORE.INTRA.REPUL.0>
0

>  <SCORE.INTRA.SOLV>
4.43856

>  <SCORE.INTRA.SOLV.lig_0>
-73.062

>  <SCORE.INTRA.VDW>
0.445169

>  <SCORE.INTRA.VDW.0>
-1.83782

>  <SCORE.INTRA.norm>
0.0900404

>  <SCORE.RESTR>
0

>  <SCORE.RESTR.CAVITY>
0

>  <SCORE.RESTR.norm>
0

>  <SCORE.SYSTEM>
0

>  <SCORE.SYSTEM.CONST>
0

>  <SCORE.SYSTEM.DIHEDRAL>
0

>  <SCORE.SYSTEM.SOLV>
0

>  <SCORE.SYSTEM.norm>
0

>  <SCORE.heavy>
22

>  <SCORE.norm>
-0.383707

>  <RMSD>
13.048

$$$$
ligand
 OpenBabel11021811513D
libRbt.so/2013.1/901 2013/11/27
 22 23  0  0  0  0  0  0  0  0999 V2000
  -34.1579    6.0983  -20.8225 N   0  0  0  0  0  0  0  0  0  0  0  0
  -33.4727    2.7921  -20.5953 C   0  0  1  0  0  0  0  0  0  0  0  0
  -33.6678    3.9395  -21.4700 O   0  0  0  0  0  0  0  0  0  0  0  0
  -35.8458    0.3003  -19.0124 P   0  0  1  0  0  0  0  0  0  0  0  0
  -33.1971    5.1092  -20.7810 C   0  0  2  0  0  0  0  0  0  0  0  0
  -36.0882    7.0889  -20.7608 N   0  0  0  0  0  0  0  0  0  0  0  0
  -32.1421    5.5241  -18.6809 O   0  0  0  0  0  0  0  0  0  0  0  0
  -33.0866    4.6926  -19.3651 C   0  0  2  0  0  0  0  0  0  0  0  0
  -34.8767   10.3367  -20.0575 N   0  0  0  0  0  0  0  0  0  0  0  0
  -31.2983    3.1946  -19.8180 O   0  0  0  0  0  0  0  0  0  0  0  0
  -32.6840    3.2940  -19.4489 C   0  0  2  0  0  0  0  0  0  0  0  0
  -35.1413    8.0261  -20.9207 C   0  0  0  0  0  0  0  0  0  0  0  0
  -32.6645    8.0410  -21.0900 N   0  0  0  0  0  0  0  0  0  0  0  0
  -34.6091    1.1285  -19.5057 O   0  0  0  0  0  0  0  0  0  0  0  0
  -34.8241    2.3317  -20.1689 C   0  0  0  0  0  0  0  0  0  0  0  0
  -35.1906   -0.9800  -18.3783 O   0  0  0  0  0  0  0  0  0  0  0  0
  -35.4748    5.8913  -20.7062 C   0  0  0  0  0  0  0  0  0  0  0  0
  -36.0212    9.9319  -21.9841 O   0  0  0  0  0  0  0  0  0  0  0  0
  -35.3770    9.4770  -21.0391 C   0  0  0  0  0  0  0  0  0  0  0  0
  -33.9228    7.4103  -20.9574 C   0  0  0  0  0  0  0  0  0  0  0  0
  -36.6521    1.1202  -18.0608 O   0  5  0  0  0  0  0  0  0  0  0  0
  -36.8070    0.0926  -20.1104 O   0  0  0  0  0  0  0  0  0  0  0  0
  1 17  1  0  0  0  0
  1 20  1  0  0  0  0
  2 15  1  1  0  0  0
  2  3  1  0  0  0  0
  2 11  1  0  0  0  0
  3  5  1  0  0  0  0
  4 16  1  1  0  0  0
  4 21  1  0  0  0  0
  4 22  2  0  0  0  0
  4 14  1  0  0  0  0
  5  1  1  1  0  0  0
  5  8  1  0  0  0  0
  6 17  2  0  0  0  0
  6 12  1  0  0  0  0
  8  7  1  1  0  0  0
  8 11  1  0  0  0  0
  9 19  1  0  0  0  0
 11 10  1  6  0  0  0
 12 20  2  0  0  0  0
 12 19  1  0  0  0  0
 13 20  1  0  0  0  0
 14 15  1  0  0  0  0
 18 19  2  0  0  0  0
M  CHG  1  21  -1
M  END
>  <CHROM.1>
38.70902579,171.40284231,178.03113710,-175.30711246,116.15086468,-34.50027689
4.38767925,-20.07339638,-1.48866183,0.05740819,2.91821217

>  <Name>
ligand

>  <RI>
0

>  <Rbt.Current_Directory>
/home/itssahil/PROJECTS/Mol_Feturizer/New_Systems/rnas/4XWF

>  <Rbt.Executable>
rbdock ($Id: //depot/dev/client3/rdock/2013.1/src/exe/rbdock.cxx#4 $)

>  <Rbt.Library>
libRbt.so (2013.1, Build901 2013/11/27)

>  <Rbt.Parameter_File>
/export/apps/rDock/src/rDock_2013.1_src/data/scripts/dock_solv.prm

>  <Rbt.Receptor>
prm/blind_docking_60.prm

>  <SCORE>
-9.91531

>  <SCORE.INTER>
-9.05707

>  <SCORE.INTER.CONST>
1

>  <SCORE.INTER.POLAR>
0

>  <SCORE.INTER.ROT>
5

>  <SCORE.INTER.SOLV>
14.7484

>  <SCORE.INTER.VDW>
-17.8875

>  <SCORE.INTER.norm>
-0.411685

>  <SCORE.INTRA>
-0.858237

>  <SCORE.INTRA.DIHEDRAL>
-1.63413

>  <SCORE.INTRA.DIHEDRAL.0>
3.49807

>  <SCORE.INTRA.POLAR>
0

>  <SCORE.INTRA.POLAR.0>
0

>  <SCORE.INTRA.REPUL>
0

>  <SCORE.INTRA.REPUL.0>
0

>  <SCORE.INTRA.SOLV>
0.41349

>  <SCORE.INTRA.SOLV.lig_0>
-73.062

>  <SCORE.INTRA.VDW>
-0.247915

>  <SCORE.INTRA.VDW.0>
-1.83782

>  <SCORE.INTRA.norm>
-0.0390108

>  <SCORE.RESTR>
0

>  <SCORE.RESTR.CAVITY>
0

>  <SCORE.RESTR.norm>
0

>  <SCORE.SYSTEM>
0

>  <SCORE.SYSTEM.CONST>
0

>  <SCORE.SYSTEM.DIHEDRAL>
0

>  <SCORE.SYSTEM.SOLV>
0

>  <SCORE.SYSTEM.norm>
0

>  <SCORE.heavy>
22

>  <SCORE.norm>
-0.450696

>  <RMSD>
13.052

$$$$
ligand
 OpenBabel11021811513D
libRbt.so/2013.1/901 2013/11/27
 22 23  0  0  0  0  0  0  0  0999 V2000
  -32.7267    7.5878  -20.6554 N   0  0  0  0  0  0  0  0  0  0  0  0
  -32.0069    4.8438  -18.8101 C   0  0  1  0  0  0  0  0  0  0  0  0
  -31.5079    5.8716  -19.7127 O   0  0  0  0  0  0  0  0  0  0  0  0
  -34.5845    3.8262  -21.3935 P   0  0  1  0  0  0  0  0  0  0  0  0
  -32.2483    7.0779  -19.4661 C   0  0  2  0  0  0  0  0  0  0  0  0
  -33.9480    7.8588  -22.4291 N   0  0  0  0  0  0  0  0  0  0  0  0
  -33.9454    7.7339  -17.9216 O   0  0  0  0  0  0  0  0  0  0  0  0
  -33.4319    6.6410  -18.6921 C   0  0  2  0  0  0  0  0  0  0  0  0
  -33.1874   11.2276  -23.0488 N   0  0  0  0  0  0  0  0  0  0  0  0
  -32.1256    6.0426  -16.7993 O   0  0  0  0  0  0  0  0  0  0  0  0
  -32.9255    5.5395  -17.8826 C   0  0  2  0  0  0  0  0  0  0  0  0
  -33.0321    8.8389  -22.3973 C   0  0  0  0  0  0  0  0  0  0  0  0
  -31.1978    9.5099  -20.8648 N   0  0  0  0  0  0  0  0  0  0  0  0
  -33.6798    4.5689  -20.3502 O   0  0  0  0  0  0  0  0  0  0  0  0
  -32.7281    3.8415  -19.6438 C   0  0  0  0  0  0  0  0  0  0  0  0
  -33.6002    3.5448  -22.5862 O   0  0  0  0  0  0  0  0  0  0  0  0
  -33.7520    7.0792  -21.3486 C   0  0  0  0  0  0  0  0  0  0  0  0
  -32.5051    9.6499  -24.5426 O   0  0  0  0  0  0  0  0  0  0  0  0
  -32.8818    9.9099  -23.3999 C   0  0  0  0  0  0  0  0  0  0  0  0
  -32.2612    8.6768  -21.2816 C   0  0  0  0  0  0  0  0  0  0  0  0
  -35.1692    2.6024  -20.7704 O   0  5  0  0  0  0  0  0  0  0  0  0
  -35.7950    4.6135  -21.6895 O   0  0  0  0  0  0  0  0  0  0  0  0
  1 17  1  0  0  0  0
  1 20  1  0  0  0  0
  2 15  1  6  0  0  0
  2  3  1  0  0  0  0
  2 11  1  0  0  0  0
  3  5  1  0  0  0  0
  4 16  1  6  0  0  0
  4 21  1  0  0  0  0
  4 22  2  0  0  0  0
  4 14  1  0  0  0  0
  5  1  1  6  0  0  0
  5  8  1  0  0  0  0
  6 17  2  0  0  0  0
  6 12  1  0  0  0  0
  8  7  1  1  0  0  0
  8 11  1  0  0  0  0
  9 19  1  0  0  0  0
 11 10  1  1  0  0  0
 12 20  2  0  0  0  0
 12 19  1  0  0  0  0
 13 20  1  0  0  0  0
 14 15  1  0  0  0  0
 18 19  2  0  0  0  0
M  CHG  1  21  -1
M  END
>  <CHROM.1>
74.33471417,-55.13739883,-73.09582681,177.01494296,111.43115951,-33.25036338
6.44538275,-20.73017203,-1.15609848,1.10518147,2.31695695

>  <Name>
ligand

>  <RI>
0

>  <Rbt.Current_Directory>
/home/itssahil/PROJECTS/Mol_Feturizer/New_Systems/rnas/4XWF

>  <Rbt.Executable>
rbdock ($Id: //depot/dev/client3/rdock/2013.1/src/exe/rbdock.cxx#4 $)

>  <Rbt.Library>
libRbt.so (2013.1, Build901 2013/11/27)

>  <Rbt.Parameter_File>
/export/apps/rDock/src/rDock_2013.1_src/data/scripts/dock_solv.prm

>  <Rbt.Receptor>
prm/blind_docking_60.prm

>  <SCORE>
-9.39432

>  <SCORE.INTER>
-9.95215

>  <SCORE.INTER.CONST>
1

>  <SCORE.INTER.POLAR>
0

>  <SCORE.INTER.ROT>
5

>  <SCORE.INTER.SOLV>
10.9891

>  <SCORE.INTER.VDW>
-17.2311

>  <SCORE.INTER.norm>
-0.452371

>  <SCORE.INTRA>
0.557835

>  <SCORE.INTRA.DIHEDRAL>
-1.42436

>  <SCORE.INTRA.DIHEDRAL.0>
3.49807

>  <SCORE.INTRA.POLAR>
0

>  <SCORE.INTRA.POLAR.0>
0

>  <SCORE.INTRA.REPUL>
0

>  <SCORE.INTRA.REPUL.0>
0

>  <SCORE.INTRA.SOLV>
0.61571

>  <SCORE.INTRA.SOLV.lig_0>
-73.062

>  <SCORE.INTRA.VDW>
0.96216

>  <SCORE.INTRA.VDW.0>
-1.83782

>  <SCORE.INTRA.norm>
0.0253561

>  <SCORE.RESTR>
0

>  <SCORE.RESTR.CAVITY>
0

>  <SCORE.RESTR.norm>
0

>  <SCORE.SYSTEM>
0

>  <SCORE.SYSTEM.CONST>
0

>  <SCORE.SYSTEM.DIHEDRAL>
0

>  <SCORE.SYSTEM.SOLV>
0

>  <SCORE.SYSTEM.norm>
0

>  <SCORE.heavy>
22

>  <SCORE.norm>
-0.427014

>  <RMSD>
13.070

$$$$
ligand
 OpenBabel11021811513D
libRbt.so/2013.1/901 2013/11/27
 22 23  0  0  0  0  0  0  0  0999 V2000
  -35.0146   -5.7475  -13.4229 N   0  0  0  0  0  0  0  0  0  0  0  0
  -35.5118   -3.9771  -16.2639 C   0  0  1  0  0  0  0  0  0  0  0  0
  -35.9264   -5.1049  -15.4417 O   0  0  0  0  0  0  0  0  0  0  0  0
  -32.7680   -3.4810  -18.8297 P   0  0  1  0  0  0  0  0  0  0  0  0
  -35.7206   -4.7509  -14.0645 C   0  0  2  0  0  0  0  0  0  0  0  0
  -34.0504   -6.8954  -11.8534 N   0  0  0  0  0  0  0  0  0  0  0  0
  -34.9824   -2.7945  -12.9142 O   0  0  0  0  0  0  0  0  0  0  0  0
  -34.8300   -3.5696  -14.1090 C   0  0  2  0  0  0  0  0  0  0  0  0
  -34.0201  -10.0616  -13.0042 N   0  0  0  0  0  0  0  0  0  0  0  0
  -36.4975   -2.1970  -15.1003 O   0  0  0  0  0  0  0  0  0  0  0  0
  -35.2465   -2.8706  -15.3186 C   0  0  2  0  0  0  0  0  0  0  0  0
  -33.9426   -7.5821  -13.0012 C   0  0  0  0  0  0  0  0  0  0  0  0
  -34.6787   -7.2488  -15.3487 N   0  0  0  0  0  0  0  0  0  0  0  0
  -34.0059   -3.3588  -17.8751 O   0  0  0  0  0  0  0  0  0  0  0  0
  -34.2736   -4.3906  -16.9822 C   0  0  0  0  0  0  0  0  0  0  0  0
  -33.0183   -4.8451  -19.5694 O   0  0  0  0  0  0  0  0  0  0  0  0
  -34.7117   -5.7529  -12.1196 C   0  0  0  0  0  0  0  0  0  0  0  0
  -32.0765   -8.9518  -13.4238 O   0  0  0  0  0  0  0  0  0  0  0  0
  -33.2780   -8.8884  -13.1641 C   0  0  0  0  0  0  0  0  0  0  0  0
  -34.5501   -6.8670  -13.9936 C   0  0  0  0  0  0  0  0  0  0  0  0
  -32.7071   -2.2906  -19.7282 O   0  5  0  0  0  0  0  0  0  0  0  0
  -31.5100   -3.3446  -18.0738 O   0  0  0  0  0  0  0  0  0  0  0  0
  1 17  1  0  0  0  0
  1 20  1  0  0  0  0
  2 15  1  1  0  0  0
  2  3  1  0  0  0  0
  2 11  1  0  0  0  0
  3  5  1  0  0  0  0
  4 16  1  6  0  0  0
  4 21  1  0  0  0  0
  4 22  2  0  0  0  0
  4 14  1  0  0  0  0
  5  1  1  1  0  0  0
  5  8  1  0  0  0  0
  6 17  2  0  0  0  0
  6 12  1  0  0  0  0
  8  7  1  1  0  0  0
  8 11  1  0  0  0  0
  9 19  1  0  0  0  0
 11 10  1  1  0  0  0
 12 20  2  0  0  0  0
 12 19  1  0  0  0  0
 13 20  1  0  0  0  0
 14 15  1  0  0  0  0
 18 19  2  0  0  0  0
M  CHG  1  21  -1
M  END
>  <CHROM.1>
-176.83273697,172.78978828,55.41586415,-178.69596429,90.16141475,-34.13635578
-5.04950750,-15.47181275,1.75607721,-0.92152168,2.39612522

>  <Name>
ligand

>  <RI>
0

>  <Rbt.Current_Directory>
/home/itssahil/PROJECTS/Mol_Feturizer/New_Systems/rnas/4XWF

>  <Rbt.Executable>
rbdock ($Id: //depot/dev/client3/rdock/2013.1/src/exe/rbdock.cxx#4 $)

>  <Rbt.Library>
libRbt.so (2013.1, Build901 2013/11/27)

>  <Rbt.Parameter_File>
/export/apps/rDock/src/rDock_2013.1_src/data/scripts/dock_solv.prm

>  <Rbt.Receptor>
prm/blind_docking_40.prm

>  <SCORE>
-4.60482

>  <SCORE.INTER>
-6.05709

>  <SCORE.INTER.CONST>
1

>  <SCORE.INTER.POLAR>
0

>  <SCORE.INTER.ROT>
5

>  <SCORE.INTER.SOLV>
18.4816

>  <SCORE.INTER.VDW>
-17.1319

>  <SCORE.INTER.norm>
-0.275322

>  <SCORE.INTRA>
1.45227

>  <SCORE.INTRA.DIHEDRAL>
-0.939443

>  <SCORE.INTRA.DIHEDRAL.0>
3.49807

>  <SCORE.INTRA.POLAR>
0

>  <SCORE.INTRA.POLAR.0>
0

>  <SCORE.INTRA.REPUL>
0

>  <SCORE.INTRA.REPUL.0>
0

>  <SCORE.INTRA.SOLV>
2.56221

>  <SCORE.INTRA.SOLV.lig_0>
-73.062

>  <SCORE.INTRA.VDW>
0.640889

>  <SCORE.INTRA.VDW.0>
-1.83782

>  <SCORE.INTRA.norm>
0.0660123

>  <SCORE.RESTR>
0

>  <SCORE.RESTR.CAVITY>
0

>  <SCORE.RESTR.norm>
0

>  <SCORE.SYSTEM>
0

>  <SCORE.SYSTEM.CONST>
0

>  <SCORE.SYSTEM.DIHEDRAL>
0

>  <SCORE.SYSTEM.SOLV>
0

>  <SCORE.SYSTEM.norm>
0

>  <SCORE.heavy>
22

>  <SCORE.norm>
-0.20931

>  <RMSD>
13.071

$$$$
ligand
 OpenBabel11021811513D
libRbt.so/2013.1/901 2013/11/27
 22 23  0  0  0  0  0  0  0  0999 V2000
  -34.0928    6.0823  -20.8720 N   0  0  0  0  0  0  0  0  0  0  0  0
  -33.4178    2.7836  -20.5325 C   0  0  1  0  0  0  0  0  0  0  0  0
  -33.5819    3.9070  -21.4439 O   0  0  0  0  0  0  0  0  0  0  0  0
  -35.8498    0.3132  -19.0070 P   0  0  1  0  0  0  0  0  0  0  0  0
  -33.1346    5.0950  -20.7707 C   0  0  2  0  0  0  0  0  0  0  0  0
  -36.0238    7.0729  -20.9065 N   0  0  0  0  0  0  0  0  0  0  0  0
  -32.1526    5.5666  -18.6472 O   0  0  0  0  0  0  0  0  0  0  0  0
  -33.0734    4.7166  -19.3411 C   0  0  2  0  0  0  0  0  0  0  0  0
  -36.6111    9.9384  -21.2790 N   0  0  0  0  0  0  0  0  0  0  0  0
  -31.2713    3.2077  -19.6915 O   0  0  0  0  0  0  0  0  0  0  0  0
  -32.6689    3.3164  -19.3733 C   0  0  2  0  0  0  0  0  0  0  0  0
  -35.0712    8.0065  -21.0535 C   0  0  0  0  0  0  0  0  0  0  0  0
  -32.5898    8.0187  -21.1304 N   0  0  0  0  0  0  0  0  0  0  0  0
  -34.5946    1.1337  -19.4651 O   0  0  0  0  0  0  0  0  0  0  0  0
  -34.7834    2.3343  -20.1408 C   0  0  0  0  0  0  0  0  0  0  0  0
  -36.5259    1.2544  -17.9451 O   0  0  0  0  0  0  0  0  0  0  0  0
  -35.4132    5.8774  -20.8000 C   0  0  0  0  0  0  0  0  0  0  0  0
  -34.3533   10.2328  -21.3101 O   0  0  0  0  0  0  0  0  0  0  0  0
  -35.3018    9.4540  -21.2156 C   0  0  0  0  0  0  0  0  0  0  0  0
  -33.8524    7.3907  -21.0297 C   0  0  0  0  0  0  0  0  0  0  0  0
  -36.7038   -0.0008  -20.1901 O   0  5  0  0  0  0  0  0  0  0  0  0
  -35.4576   -1.0355  -18.5600 O   0  0  0  0  0  0  0  0  0  0  0  0
  1 17  1  0  0  0  0
  1 20  1  0  0  0  0
  2 15  1  1  0  0  0
  2  3  1  0  0  0  0
  2 11  1  0  0  0  0
  3  5  1  0  0  0  0
  4 16  1  1  0  0  0
  4 21  1  0  0  0  0
  4 22  2  0  0  0  0
  4 14  1  0  0  0  0
  5  1  1  1  0  0  0
  5  8  1  0  0  0  0
  6 17  2  0  0  0  0
  6 12  1  0  0  0  0
  8  7  1  1  0  0  0
  8 11  1  0  0  0  0
  9 19  1  0  0  0  0
 11 10  1  6  0  0  0
 12 20  2  0  0  0  0
 12 19  1  0  0  0  0
 13 20  1  0  0  0  0
 14 15  1  0  0  0  0
 18 19  2  0  0  0  0
M  CHG  1  21  -1
M  END
>  <CHROM.1>
38.48730884,170.07827526,-65.13810485,-175.03749823,-2.64530656,-34.46321841
4.38317991,-20.10751139,-1.47511561,0.06573162,2.90233411

>  <Name>
ligand

>  <RI>
0

>  <Rbt.Current_Directory>
/home/itssahil/PROJECTS/Mol_Feturizer/New_Systems/rnas/4XWF

>  <Rbt.Executable>
rbdock ($Id: //depot/dev/client3/rdock/2013.1/src/exe/rbdock.cxx#4 $)

>  <Rbt.Library>
libRbt.so (2013.1, Build901 2013/11/27)

>  <Rbt.Parameter_File>
/export/apps/rDock/src/rDock_2013.1_src/data/scripts/dock_solv.prm

>  <Rbt.Receptor>
prm/blind_docking_60.prm

>  <SCORE>
-10.4936

>  <SCORE.INTER>
-9.53426

>  <SCORE.INTER.CONST>
1

>  <SCORE.INTER.POLAR>
0

>  <SCORE.INTER.ROT>
5

>  <SCORE.INTER.SOLV>
12.4134

>  <SCORE.INTER.VDW>
-17.4273

>  <SCORE.INTER.norm>
-0.433375

>  <SCORE.INTRA>
-0.959375

>  <SCORE.INTRA.DIHEDRAL>
-1.499

>  <SCORE.INTRA.DIHEDRAL.0>
3.49807

>  <SCORE.INTRA.POLAR>
0

>  <SCORE.INTRA.POLAR.0>
0

>  <SCORE.INTRA.REPUL>
0

>  <SCORE.INTRA.REPUL.0>
0

>  <SCORE.INTRA.SOLV>
-0.21537

>  <SCORE.INTRA.SOLV.lig_0>
-73.062

>  <SCORE.INTRA.VDW>
-0.102189

>  <SCORE.INTRA.VDW.0>
-1.83782

>  <SCORE.INTRA.norm>
-0.043608

>  <SCORE.RESTR>
0

>  <SCORE.RESTR.CAVITY>
0

>  <SCORE.RESTR.norm>
0

>  <SCORE.SYSTEM>
0

>  <SCORE.SYSTEM.CONST>
0

>  <SCORE.SYSTEM.DIHEDRAL>
0

>  <SCORE.SYSTEM.SOLV>
0

>  <SCORE.SYSTEM.norm>
0

>  <SCORE.heavy>
22

>  <SCORE.norm>
-0.476983

>  <RMSD>
13.075

$$$$
ligand
 OpenBabel11021811513D
libRbt.so/2013.1/901 2013/11/27
 22 23  0  0  0  0  0  0  0  0999 V2000
  -34.1382    6.0899  -20.8734 N   0  0  0  0  0  0  0  0  0  0  0  0
  -33.4327    2.7926  -20.5864 C   0  0  1  0  0  0  0  0  0  0  0  0
  -33.5990    3.9307  -21.4791 O   0  0  0  0  0  0  0  0  0  0  0  0
  -35.8476    0.3375  -19.0069 P   0  0  1  0  0  0  0  0  0  0  0  0
  -33.1709    5.1107  -20.7800 C   0  0  2  0  0  0  0  0  0  0  0  0
  -36.0787    7.0618  -20.9082 N   0  0  0  0  0  0  0  0  0  0  0  0
  -32.2156    5.5535  -18.6382 O   0  0  0  0  0  0  0  0  0  0  0  0
  -33.1204    4.7070  -19.3568 C   0  0  2  0  0  0  0  0  0  0  0  0
  -34.9813   10.3208  -20.1500 N   0  0  0  0  0  0  0  0  0  0  0  0
  -31.2994    3.2230  -19.7156 O   0  0  0  0  0  0  0  0  0  0  0  0
  -32.7012    3.3118  -19.4101 C   0  0  2  0  0  0  0  0  0  0  0  0
  -35.1343    8.0071  -21.0319 C   0  0  0  0  0  0  0  0  0  0  0  0
  -32.6526    8.0452  -21.0874 N   0  0  0  0  0  0  0  0  0  0  0  0
  -34.5990    1.1484  -19.4990 O   0  0  0  0  0  0  0  0  0  0  0  0
  -34.7975    2.3225  -20.2171 C   0  0  0  0  0  0  0  0  0  0  0  0
  -36.5143    1.3041  -17.9620 O   0  0  0  0  0  0  0  0  0  0  0  0
  -35.4570    5.8707  -20.8160 C   0  0  0  0  0  0  0  0  0  0  0  0
  -35.9397    9.9011  -22.1727 O   0  0  0  0  0  0  0  0  0  0  0  0
  -35.3782    9.4546  -21.1724 C   0  0  0  0  0  0  0  0  0  0  0  0
  -33.9096    7.4031  -21.0077 C   0  0  0  0  0  0  0  0  0  0  0  0
  -36.7136   -0.0079  -20.1725 O   0  5  0  0  0  0  0  0  0  0  0  0
  -35.4479   -0.9988  -18.5302 O   0  0  0  0  0  0  0  0  0  0  0  0
  1 17  1  0  0  0  0
  1 20  1  0  0  0  0
  2 15  1  1  0  0  0
  2  3  1  0  0  0  0
  2 11  1  0  0  0  0
  3  5  1  0  0  0  0
  4 16  1  1  0  0  0
  4 21  1  0  0  0  0
  4 22  2  0  0  0  0
  4 14  1  0  0  0  0
  5  1  1  1  0  0  0
  5  8  1  0  0  0  0
  6 17  2  0  0  0  0
  6 12  1  0  0  0  0
  8  7  1  1  0  0  0
  8 11  1  0  0  0  0
  9 19  1  0  0  0  0
 11 10  1  6  0  0  0
 12 20  2  0  0  0  0
 12 19  1  0  0  0  0
 13 20  1  0  0  0  0
 14 15  1  0  0  0  0
 18 19  2  0  0  0  0
M  CHG  1  21  -1
M  END
>  <CHROM.1>
38.63446692,173.16705666,-65.92421746,-177.08309031,113.50585202,-34.49718812
4.39259224,-20.10754802,-1.48701397,0.08788696,2.90613612

>  <Name>
ligand

>  <RI>
0

>  <Rbt.Current_Directory>
/home/itssahil/PROJECTS/Mol_Feturizer/New_Systems/rnas/4XWF

>  <Rbt.Executable>
rbdock ($Id: //depot/dev/client3/rdock/2013.1/src/exe/rbdock.cxx#4 $)

>  <Rbt.Library>
libRbt.so (2013.1, Build901 2013/11/27)

>  <Rbt.Parameter_File>
/export/apps/rDock/src/rDock_2013.1_src/data/scripts/dock_solv.prm

>  <Rbt.Receptor>
prm/blind_docking_60.prm

>  <SCORE>
-11.0847

>  <SCORE.INTER>
-9.90712

>  <SCORE.INTER.CONST>
1

>  <SCORE.INTER.POLAR>
0

>  <SCORE.INTER.ROT>
5

>  <SCORE.INTER.SOLV>
12.4839

>  <SCORE.INTER.VDW>
-17.6994

>  <SCORE.INTER.norm>
-0.450324

>  <SCORE.INTRA>
-1.17763

>  <SCORE.INTRA.DIHEDRAL>
-1.6982

>  <SCORE.INTRA.DIHEDRAL.0>
3.49807

>  <SCORE.INTRA.POLAR>
0

>  <SCORE.INTRA.POLAR.0>
0

>  <SCORE.INTRA.REPUL>
0

>  <SCORE.INTRA.REPUL.0>
0

>  <SCORE.INTRA.SOLV>
-0.182486

>  <SCORE.INTRA.SOLV.lig_0>
-73.062

>  <SCORE.INTRA.VDW>
-0.237288

>  <SCORE.INTRA.VDW.0>
-1.83782

>  <SCORE.INTRA.norm>
-0.0535286

>  <SCORE.RESTR>
0

>  <SCORE.RESTR.CAVITY>
0

>  <SCORE.RESTR.norm>
0

>  <SCORE.SYSTEM>
0

>  <SCORE.SYSTEM.CONST>
0

>  <SCORE.SYSTEM.DIHEDRAL>
0

>  <SCORE.SYSTEM.SOLV>
0

>  <SCORE.SYSTEM.norm>
0

>  <SCORE.heavy>
22

>  <SCORE.norm>
-0.503852

>  <RMSD>
13.076

$$$$
ligand
 OpenBabel11021811513D
libRbt.so/2013.1/901 2013/11/27
 22 23  0  0  0  0  0  0  0  0999 V2000
  -34.1282    6.1125  -20.8664 N   0  0  0  0  0  0  0  0  0  0  0  0
  -33.4366    2.8109  -20.5957 C   0  0  1  0  0  0  0  0  0  0  0  0
  -33.5950    3.9548  -21.4825 O   0  0  0  0  0  0  0  0  0  0  0  0
  -35.8684    0.3525  -19.0472 P   0  0  1  0  0  0  0  0  0  0  0  0
  -33.1651    5.1290  -20.7749 C   0  0  2  0  0  0  0  0  0  0  0  0
  -36.0648    7.0919  -20.9047 N   0  0  0  0  0  0  0  0  0  0  0  0
  -32.2165    5.5558  -18.6269 O   0  0  0  0  0  0  0  0  0  0  0  0
  -33.1218    4.7170  -19.3539 C   0  0  2  0  0  0  0  0  0  0  0  0
  -34.8368   10.3552  -20.1857 N   0  0  0  0  0  0  0  0  0  0  0  0
  -31.3051    3.2280  -19.7141 O   0  0  0  0  0  0  0  0  0  0  0  0
  -32.7078    3.3205  -19.4136 C   0  0  2  0  0  0  0  0  0  0  0  0
  -35.1163    8.0345  -21.0166 C   0  0  0  0  0  0  0  0  0  0  0  0
  -32.6342    8.0636  -21.0587 N   0  0  0  0  0  0  0  0  0  0  0  0
  -34.6143    1.1572  -19.5353 O   0  0  0  0  0  0  0  0  0  0  0  0
  -34.8047    2.3440  -20.2345 C   0  0  0  0  0  0  0  0  0  0  0  0
  -35.2406   -0.9452  -18.4205 O   0  0  0  0  0  0  0  0  0  0  0  0
  -35.4480    5.8979  -20.8176 C   0  0  0  0  0  0  0  0  0  0  0  0
  -36.0143    9.9277  -22.0873 O   0  0  0  0  0  0  0  0  0  0  0  0
  -35.3540    9.4839  -21.1481 C   0  0  0  0  0  0  0  0  0  0  0  0
  -33.8940    7.4258  -20.9902 C   0  0  0  0  0  0  0  0  0  0  0  0
  -36.6574    1.1835  -18.0908 O   0  5  0  0  0  0  0  0  0  0  0  0
  -36.8334    0.1716  -20.1465 O   0  0  0  0  0  0  0  0  0  0  0  0
  1 17  1  0  0  0  0
  1 20  1  0  0  0  0
  2 15  1  1  0  0  0
  2  3  1  0  0  0  0
  2 11  1  0  0  0  0
  3  5  1  0  0  0  0
  4 16  1  1  0  0  0
  4 21  1  0  0  0  0
  4 22  2  0  0  0  0
  4 14  1  0  0  0  0
  5  1  1  1  0  0  0
  5  8  1  0  0  0  0
  6 17  2  0  0  0  0
  6 12  1  0  0  0  0
  8  7  1  1  0  0  0
  8 11  1  0  0  0  0
  9 19  1  0  0  0  0
 11 10  1  6  0  0  0
 12 20  2  0  0  0  0
 12 19  1  0  0  0  0
 13 20  1  0  0  0  0
 14 15  1  0  0  0  0
 18 19  2  0  0  0  0
M  CHG  1  21  -1
M  END
>  <CHROM.1>
38.52502004,172.52232236,175.69156436,-177.54693364,120.14242128,-34.49648358
4.41421292,-20.10691197,-1.48418668,0.09219122,2.90781082

>  <Name>
ligand

>  <RI>
0

>  <Rbt.Current_Directory>
/home/itssahil/PROJECTS/Mol_Feturizer/New_Systems/rnas/4XWF

>  <Rbt.Executable>
rbdock ($Id: //depot/dev/client3/rdock/2013.1/src/exe/rbdock.cxx#4 $)

>  <Rbt.Library>
libRbt.so (2013.1, Build901 2013/11/27)

>  <Rbt.Parameter_File>
/export/apps/rDock/src/rDock_2013.1_src/data/scripts/dock_solv.prm

>  <Rbt.Receptor>
prm/blind_docking_60.prm

>  <SCORE>
-9.86016

>  <SCORE.INTER>
-8.98328

>  <SCORE.INTER.CONST>
1

>  <SCORE.INTER.POLAR>
0

>  <SCORE.INTER.ROT>
5

>  <SCORE.INTER.SOLV>
14.4407

>  <SCORE.INTER.VDW>
-17.7358

>  <SCORE.INTER.norm>
-0.408331

>  <SCORE.INTRA>
-0.876883

>  <SCORE.INTRA.DIHEDRAL>
-1.75258

>  <SCORE.INTRA.DIHEDRAL.0>
3.49807

>  <SCORE.INTRA.POLAR>
0

>  <SCORE.INTRA.POLAR.0>
0

>  <SCORE.INTRA.REPUL>
0

>  <SCORE.INTRA.REPUL.0>
0

>  <SCORE.INTRA.SOLV>
0.461407

>  <SCORE.INTRA.SOLV.lig_0>
-73.062

>  <SCORE.INTRA.VDW>
-0.231297

>  <SCORE.INTRA.VDW.0>
-1.83782

>  <SCORE.INTRA.norm>
-0.0398583

>  <SCORE.RESTR>
0

>  <SCORE.RESTR.CAVITY>
0

>  <SCORE.RESTR.norm>
0

>  <SCORE.SYSTEM>
0

>  <SCORE.SYSTEM.CONST>
0

>  <SCORE.SYSTEM.DIHEDRAL>
0

>  <SCORE.SYSTEM.SOLV>
0

>  <SCORE.SYSTEM.norm>
0

>  <SCORE.heavy>
22

>  <SCORE.norm>
-0.448189

>  <RMSD>
13.079

$$$$
ligand
 OpenBabel11021811513D
libRbt.so/2013.1/901 2013/11/27
 22 23  0  0  0  0  0  0  0  0999 V2000
  -35.0258   -5.7592  -13.4625 N   0  0  0  0  0  0  0  0  0  0  0  0
  -35.6326   -3.9448  -16.2540 C   0  0  1  0  0  0  0  0  0  0  0  0
  -36.0148   -5.0858  -15.4343 O   0  0  0  0  0  0  0  0  0  0  0  0
  -32.9335   -3.3629  -18.8489 P   0  0  1  0  0  0  0  0  0  0  0  0
  -35.7563   -4.7533  -14.0607 C   0  0  2  0  0  0  0  0  0  0  0  0
  -34.0399   -6.9546  -11.9426 N   0  0  0  0  0  0  0  0  0  0  0  0
  -34.9751   -2.8145  -12.9088 O   0  0  0  0  0  0  0  0  0  0  0  0
  -34.8685   -3.5706  -14.1207 C   0  0  2  0  0  0  0  0  0  0  0  0
  -32.0317   -8.8730  -14.1130 N   0  0  0  0  0  0  0  0  0  0  0  0
  -36.5734   -2.1842  -15.0253 O   0  0  0  0  0  0  0  0  0  0  0  0
  -35.3315   -2.8531  -15.3022 C   0  0  2  0  0  0  0  0  0  0  0  0
  -33.9025   -7.5799  -13.1219 C   0  0  0  0  0  0  0  0  0  0  0  0
  -34.6298   -7.1525  -15.4568 N   0  0  0  0  0  0  0  0  0  0  0  0
  -34.1419   -3.2650  -17.8545 O   0  0  0  0  0  0  0  0  0  0  0  0
  -34.4227   -4.3457  -17.0257 C   0  0  0  0  0  0  0  0  0  0  0  0
  -31.6873   -3.4334  -17.8937 O   0  0  0  0  0  0  0  0  0  0  0  0
  -34.7331   -5.8203  -12.1582 C   0  0  0  0  0  0  0  0  0  0  0  0
  -33.6357   -9.9041  -12.8681 O   0  0  0  0  0  0  0  0  0  0  0  0
  -33.1977   -8.8563  -13.3428 C   0  0  0  0  0  0  0  0  0  0  0  0
  -34.5234   -6.8347  -14.0834 C   0  0  0  0  0  0  0  0  0  0  0  0
  -33.1053   -4.5535  -19.7326 O   0  5  0  0  0  0  0  0  0  0  0  0
  -32.9717   -2.2613  -19.8275 O   0  0  0  0  0  0  0  0  0  0  0  0
  1 17  1  0  0  0  0
  1 20  1  0  0  0  0
  2 15  1  1  0  0  0
  2  3  1  0  0  0  0
  2 11  1  0  0  0  0
  3  5  1  0  0  0  0
  4 16  1  1  0  0  0
  4 21  1  0  0  0  0
  4 22  2  0  0  0  0
  4 14  1  0  0  0  0
  5  1  1  6  0  0  0
  5  8  1  0  0  0  0
  6 17  2  0  0  0  0
  6 12  1  0  0  0  0
  8  7  1  1  0  0  0
  8 11  1  0  0  0  0
  9 19  1  0  0  0  0
 11 10  1  1  0  0  0
 12 20  2  0  0  0  0
 12 19  1  0  0  0  0
 13 20  1  0  0  0  0
 14 15  1  0  0  0  0
 18 19  2  0  0  0  0
M  CHG  1  21  -1
M  END
>  <CHROM.1>
-173.11739974,176.31842733,-65.89535029,-178.33250578,-114.06168075,-34.19384470
-5.01288742,-15.51934438,1.70511870,-0.92407076,2.36612639

>  <Name>
ligand

>  <RI>
0

>  <Rbt.Current_Directory>
/home/itssahil/PROJECTS/Mol_Feturizer/New_Systems/rnas/4XWF

>  <Rbt.Executable>
rbdock ($Id: //depot/dev/client3/rdock/2013.1/src/exe/rbdock.cxx#4 $)

>  <Rbt.Library>
libRbt.so (2013.1, Build901 2013/11/27)

>  <Rbt.Parameter_File>
/export/apps/rDock/src/rDock_2013.1_src/data/scripts/dock_solv.prm

>  <Rbt.Receptor>
prm/blind_docking_40.prm

>  <SCORE>
-5.62447

>  <SCORE.INTER>
-6.74422

>  <SCORE.INTER.CONST>
1

>  <SCORE.INTER.POLAR>
0

>  <SCORE.INTER.ROT>
5

>  <SCORE.INTER.SOLV>
15.3674

>  <SCORE.INTER.VDW>
-16.552

>  <SCORE.INTER.norm>
-0.306555

>  <SCORE.INTRA>
1.11317

>  <SCORE.INTRA.DIHEDRAL>
-1.78039

>  <SCORE.INTRA.DIHEDRAL.0>
3.49807

>  <SCORE.INTRA.POLAR>
0

>  <SCORE.INTRA.POLAR.0>
0

>  <SCORE.INTRA.REPUL>
0

>  <SCORE.INTRA.REPUL.0>
0

>  <SCORE.INTRA.SOLV>
3.00263

>  <SCORE.INTRA.SOLV.lig_0>
-73.062

>  <SCORE.INTRA.VDW>
0.502043

>  <SCORE.INTRA.VDW.0>
-1.83782

>  <SCORE.INTRA.norm>
0.0505985

>  <SCORE.RESTR>
0.00657846

>  <SCORE.RESTR.CAVITY>
0.00657846

>  <SCORE.RESTR.norm>
0.000299021

>  <SCORE.SYSTEM>
0

>  <SCORE.SYSTEM.CONST>
0

>  <SCORE.SYSTEM.DIHEDRAL>
0

>  <SCORE.SYSTEM.SOLV>
0

>  <SCORE.SYSTEM.norm>
0

>  <SCORE.heavy>
22

>  <SCORE.norm>
-0.255658

>  <RMSD>
13.107

$$$$
ligand
 OpenBabel11021811513D
libRbt.so/2013.1/901 2013/11/27
 22 23  0  0  0  0  0  0  0  0999 V2000
  -35.1700   -5.7715  -13.4791 N   0  0  0  0  0  0  0  0  0  0  0  0
  -35.5565   -3.9196  -16.2851 C   0  0  1  0  0  0  0  0  0  0  0  0
  -36.0230   -5.0520  -15.4976 O   0  0  0  0  0  0  0  0  0  0  0  0
  -32.8142   -3.5079  -18.8675 P   0  0  1  0  0  0  0  0  0  0  0  0
  -35.8310   -4.7373  -14.1090 C   0  0  2  0  0  0  0  0  0  0  0  0
  -34.3203   -7.0145  -11.9158 N   0  0  0  0  0  0  0  0  0  0  0  0
  -35.0501   -2.8339  -12.8992 O   0  0  0  0  0  0  0  0  0  0  0  0
  -34.9013   -3.5855  -14.1095 C   0  0  2  0  0  0  0  0  0  0  0  0
  -32.1990   -8.9547  -13.9248 N   0  0  0  0  0  0  0  0  0  0  0  0
  -36.5044   -2.1354  -15.0966 O   0  0  0  0  0  0  0  0  0  0  0  0
  -35.2725   -2.8450  -15.3091 C   0  0  2  0  0  0  0  0  0  0  0  0
  -34.1232   -7.6283  -13.0926 C   0  0  0  0  0  0  0  0  0  0  0  0
  -34.6827   -7.1499  -15.4636 N   0  0  0  0  0  0  0  0  0  0  0  0
  -34.0530   -3.3555  -17.9183 O   0  0  0  0  0  0  0  0  0  0  0  0
  -34.3196   -4.3572  -16.9913 C   0  0  0  0  0  0  0  0  0  0  0  0
  -33.1006   -4.8592  -19.6173 O   0  0  0  0  0  0  0  0  0  0  0  0
  -34.9657   -5.8579  -12.1595 C   0  0  0  0  0  0  0  0  0  0  0  0
  -33.9638   -9.9684  -12.9031 O   0  0  0  0  0  0  0  0  0  0  0  0
  -33.4414   -8.9216  -13.2858 C   0  0  0  0  0  0  0  0  0  0  0  0
  -34.6582   -6.8531  -14.0816 C   0  0  0  0  0  0  0  0  0  0  0  0
  -32.7138   -2.3141  -19.7578 O   0  5  0  0  0  0  0  0  0  0  0  0
  -31.5567   -3.4133  -18.1045 O   0  0  0  0  0  0  0  0  0  0  0  0
  1 17  1  0  0  0  0
  1 20  1  0  0  0  0
  2 15  1  1  0  0  0
  2  3  1  0  0  0  0
  2 11  1  0  0  0  0
  3  5  1  0  0  0  0
  4 16  1  6  0  0  0
  4 21  1  0  0  0  0
  4 22  2  0  0  0  0
  4 14  1  0  0  0  0
  5  1  1  1  0  0  0
  5  8  1  0  0  0  0
  6 17  2  0  0  0  0
  6 12  1  0  0  0  0
  8  7  1  1  0  0  0
  8 11  1  0  0  0  0
  9 19  1  0  0  0  0
 11 10  1  1  0  0  0
 12 20  2  0  0  0  0
 12 19  1  0  0  0  0
 13 20  1  0  0  0  0
 14 15  1  0  0  0  0
 18 19  2  0  0  0  0
M  CHG  1  21  -1
M  END
>  <CHROM.1>
-172.37329418,168.87429054,58.32904080,-178.86653418,-111.17864781,-34.22813009
-5.05918481,-15.52340754,1.79973779,-0.93205970,2.43185912

>  <Name>
ligand

>  <RI>
0

>  <Rbt.Current_Directory>
/home/itssahil/PROJECTS/Mol_Feturizer/New_Systems/rnas/4XWF

>  <Rbt.Executable>
rbdock ($Id: //depot/dev/client3/rdock/2013.1/src/exe/rbdock.cxx#4 $)

>  <Rbt.Library>
libRbt.so (2013.1, Build901 2013/11/27)

>  <Rbt.Parameter_File>
/export/apps/rDock/src/rDock_2013.1_src/data/scripts/dock_solv.prm

>  <Rbt.Receptor>
prm/blind_docking_40.prm

>  <SCORE>
-4.75267

>  <SCORE.INTER>
-5.91979

>  <SCORE.INTER.CONST>
1

>  <SCORE.INTER.POLAR>
0

>  <SCORE.INTER.ROT>
5

>  <SCORE.INTER.SOLV>
18.6966

>  <SCORE.INTER.VDW>
-17.1121

>  <SCORE.INTER.norm>
-0.269081

>  <SCORE.INTRA>
1.16661

>  <SCORE.INTRA.DIHEDRAL>
-1.4372

>  <SCORE.INTRA.DIHEDRAL.0>
3.49807

>  <SCORE.INTRA.POLAR>
0

>  <SCORE.INTRA.POLAR.0>
0

>  <SCORE.INTRA.REPUL>
0

>  <SCORE.INTRA.REPUL.0>
0

>  <SCORE.INTRA.SOLV>
2.89623

>  <SCORE.INTRA.SOLV.lig_0>
-73.062

>  <SCORE.INTRA.VDW>
0.437091

>  <SCORE.INTRA.VDW.0>
-1.83782

>  <SCORE.INTRA.norm>
0.0530276

>  <SCORE.RESTR>
0.000518657

>  <SCORE.RESTR.CAVITY>
0.000518657

>  <SCORE.RESTR.norm>
2.35753e-05

>  <SCORE.SYSTEM>
0

>  <SCORE.SYSTEM.CONST>
0

>  <SCORE.SYSTEM.DIHEDRAL>
0

>  <SCORE.SYSTEM.SOLV>
0

>  <SCORE.SYSTEM.norm>
0

>  <SCORE.heavy>
22

>  <SCORE.norm>
-0.21603

>  <RMSD>
13.130

$$$$
ligand
 OpenBabel11021811513D
libRbt.so/2013.1/901 2013/11/27
 22 23  0  0  0  0  0  0  0  0999 V2000
  -33.0747    3.9357  -18.9754 N   0  0  0  0  0  0  0  0  0  0  0  0
  -34.3508    2.7727  -21.8860 C   0  0  1  0  0  0  0  0  0  0  0  0
  -33.2056    3.3598  -21.2049 O   0  0  0  0  0  0  0  0  0  0  0  0
  -37.5466    4.1843  -23.3478 P   0  0  1  0  0  0  0  0  0  0  0  0
  -33.1975    2.8773  -19.8516 C   0  0  2  0  0  0  0  0  0  0  0  0
  -32.6726    5.0682  -17.1679 N   0  0  0  0  0  0  0  0  0  0  0  0
  -34.5236    1.3401  -18.5970 O   0  0  0  0  0  0  0  0  0  0  0  0
  -34.5517    2.3172  -19.6439 C   0  0  2  0  0  0  0  0  0  0  0  0
  -34.3452    8.0264  -18.1497 N   0  0  0  0  0  0  0  0  0  0  0  0
  -34.1869    0.5428  -21.1821 O   0  0  0  0  0  0  0  0  0  0  0  0
  -34.9005    1.7687  -20.9488 C   0  0  2  0  0  0  0  0  0  0  0  0
  -33.0160    5.9319  -18.1358 C   0  0  0  0  0  0  0  0  0  0  0  0
  -33.6374    5.7611  -20.5334 N   0  0  0  0  0  0  0  0  0  0  0  0
  -36.3828    3.2797  -22.8133 O   0  0  0  0  0  0  0  0  0  0  0  0
  -35.3222    3.8739  -22.1382 C   0  0  0  0  0  0  0  0  0  0  0  0
  -38.8385    3.4115  -22.8959 O   0  0  0  0  0  0  0  0  0  0  0  0
  -32.7159    3.8280  -17.6908 C   0  0  0  0  0  0  0  0  0  0  0  0
  -32.1046    8.0659  -17.7450 O   0  0  0  0  0  0  0  0  0  0  0  0
  -33.1080    7.3965  -17.9902 C   0  0  0  0  0  0  0  0  0  0  0  0
  -33.2677    5.2265  -19.2779 C   0  0  0  0  0  0  0  0  0  0  0  0
  -37.4160    5.5586  -22.7802 O   0  5  0  0  0  0  0  0  0  0  0  0
  -37.3861    4.4443  -24.7898 O   0  0  0  0  0  0  0  0  0  0  0  0
  1 17  1  0  0  0  0
  1 20  1  0  0  0  0
  2 15  1  1  0  0  0
  2  3  1  0  0  0  0
  2 11  1  0  0  0  0
  3  5  1  0  0  0  0
  4 16  1  1  0  0  0
  4 21  1  0  0  0  0
  4 22  2  0  0  0  0
  4 14  1  0  0  0  0
  5  1  1  1  0  0  0
  5  8  1  0  0  0  0
  6 17  2  0  0  0  0
  6 12  1  0  0  0  0
  8  7  1  1  0  0  0
  8 11  1  0  0  0  0
  9 19  1  0  0  0  0
 11 10  1  6  0  0  0
 12 20  2  0  0  0  0
 12 19  1  0  0  0  0
 13 20  1  0  0  0  0
 14 15  1  0  0  0  0
 18 19  2  0  0  0  0
M  CHG  1  21  -1
M  END
>  <CHROM.1>
-163.06886699,178.71528435,-133.55520474,-174.88422911,-116.18261637,-34.77650098
4.18903381,-20.60991019,-0.44396027,0.82985239,-2.97415966

>  <Name>
ligand

>  <RI>
0

>  <Rbt.Current_Directory>
/home/itssahil/PROJECTS/Mol_Feturizer/New_Systems/rnas/4XWF

>  <Rbt.Executable>
rbdock ($Id: //depot/dev/client3/rdock/2013.1/src/exe/rbdock.cxx#4 $)

>  <Rbt.Library>
libRbt.so (2013.1, Build901 2013/11/27)

>  <Rbt.Parameter_File>
/export/apps/rDock/src/rDock_2013.1_src/data/scripts/dock_solv.prm

>  <Rbt.Receptor>
prm/blind_docking_100.prm

>  <SCORE>
-10.0904

>  <SCORE.INTER>
-13.0238

>  <SCORE.INTER.CONST>
1

>  <SCORE.INTER.POLAR>
0

>  <SCORE.INTER.ROT>
5

>  <SCORE.INTER.SOLV>
19.2359

>  <SCORE.INTER.VDW>
-22.0278

>  <SCORE.INTER.norm>
-0.591989

>  <SCORE.INTRA>
2.92692

>  <SCORE.INTRA.DIHEDRAL>
0.226654

>  <SCORE.INTRA.DIHEDRAL.0>
3.49807

>  <SCORE.INTRA.POLAR>
0

>  <SCORE.INTRA.POLAR.0>
0

>  <SCORE.INTRA.REPUL>
0

>  <SCORE.INTRA.REPUL.0>
0

>  <SCORE.INTRA.SOLV>
4.08047

>  <SCORE.INTRA.SOLV.lig_0>
-73.062

>  <SCORE.INTRA.VDW>
0.773358

>  <SCORE.INTRA.VDW.0>
-1.83782

>  <SCORE.INTRA.norm>
0.133042

>  <SCORE.RESTR>
0.00639759

>  <SCORE.RESTR.CAVITY>
0.00639759

>  <SCORE.RESTR.norm>
0.0002908

>  <SCORE.SYSTEM>
0

>  <SCORE.SYSTEM.CONST>
0

>  <SCORE.SYSTEM.DIHEDRAL>
0

>  <SCORE.SYSTEM.SOLV>
0

>  <SCORE.SYSTEM.norm>
0

>  <SCORE.heavy>
22

>  <SCORE.norm>
-0.458657

>  <RMSD>
13.137

$$$$
ligand
 OpenBabel11021811513D
libRbt.so/2013.1/901 2013/11/27
 22 23  0  0  0  0  0  0  0  0999 V2000
  -34.3981   -6.0003  -13.6926 N   0  0  0  0  0  0  0  0  0  0  0  0
  -35.3139   -4.2508  -16.4409 C   0  0  1  0  0  0  0  0  0  0  0  0
  -35.5254   -5.4377  -15.6246 O   0  0  0  0  0  0  0  0  0  0  0  0
  -32.7238   -3.2612  -19.0237 P   0  0  1  0  0  0  0  0  0  0  0  0
  -35.2664   -5.0878  -14.2553 C   0  0  2  0  0  0  0  0  0  0  0  0
  -32.8487   -6.8537  -12.4347 N   0  0  0  0  0  0  0  0  0  0  0  0
  -34.6952   -3.0772  -13.1033 O   0  0  0  0  0  0  0  0  0  0  0  0
  -34.5344   -3.8034  -14.3275 C   0  0  2  0  0  0  0  0  0  0  0  0
  -33.9460  -10.2482  -12.9886 N   0  0  0  0  0  0  0  0  0  0  0  0
  -36.4261   -2.6317  -15.1617 O   0  0  0  0  0  0  0  0  0  0  0  0
  -35.1203   -3.1386  -15.4850 C   0  0  2  0  0  0  0  0  0  0  0  0
  -33.3790   -7.8402  -13.1738 C   0  0  0  0  0  0  0  0  0  0  0  0
  -35.1765   -8.0169  -14.8771 N   0  0  0  0  0  0  0  0  0  0  0  0
  -33.9356   -3.3491  -18.0325 O   0  0  0  0  0  0  0  0  0  0  0  0
  -34.0890   -4.4914  -17.2544 C   0  0  0  0  0  0  0  0  0  0  0  0
  -32.8784   -4.5597  -19.8958 O   0  0  0  0  0  0  0  0  0  0  0  0
  -33.4797   -5.7103  -12.7636 C   0  0  0  0  0  0  0  0  0  0  0  0
  -31.7848   -9.5703  -13.2230 O   0  0  0  0  0  0  0  0  0  0  0  0
  -32.9721   -9.2571  -13.1379 C   0  0  0  0  0  0  0  0  0  0  0  0
  -34.3575   -7.3111  -13.9662 C   0  0  0  0  0  0  0  0  0  0  0  0
  -32.7965   -1.9848  -19.7940 O   0  5  0  0  0  0  0  0  0  0  0  0
  -31.4582   -3.0898  -18.2877 O   0  0  0  0  0  0  0  0  0  0  0  0
  1 17  1  0  0  0  0
  1 20  1  0  0  0  0
  2 15  1  1  0  0  0
  2  3  1  0  0  0  0
  2 11  1  0  0  0  0
  3  5  1  0  0  0  0
  4 16  1  6  0  0  0
  4 21  1  0  0  0  0
  4 22  2  0  0  0  0
  4 14  1  0  0  0  0
  5  1  1  6  0  0  0
  5  8  1  0  0  0  0
  6 17  2  0  0  0  0
  6 12  1  0  0  0  0
  8  7  1  1  0  0  0
  8 11  1  0  0  0  0
  9 19  1  0  0  0  0
 11 10  1  1  0  0  0
 12 20  2  0  0  0  0
 12 19  1  0  0  0  0
 13 20  1  0  0  0  0
 14 15  1  0  0  0  0
 18 19  2  0  0  0  0
M  CHG  1  21  -1
M  END
>  <CHROM.1>
146.49910687,179.03461927,54.88012056,179.95506082,129.62757114,-33.87930984
-5.20376247,-15.62317240,1.64315044,-0.89955709,2.37765495

>  <Name>
ligand

>  <RI>
0

>  <Rbt.Current_Directory>
/home/itssahil/PROJECTS/Mol_Feturizer/New_Systems/rnas/4XWF

>  <Rbt.Executable>
rbdock ($Id: //depot/dev/client3/rdock/2013.1/src/exe/rbdock.cxx#4 $)

>  <Rbt.Library>
libRbt.so (2013.1, Build901 2013/11/27)

>  <Rbt.Parameter_File>
/export/apps/rDock/src/rDock_2013.1_src/data/scripts/dock_solv.prm

>  <Rbt.Receptor>
prm/blind_docking_40.prm

>  <SCORE>
-4.66258

>  <SCORE.INTER>
-5.80685

>  <SCORE.INTER.CONST>
1

>  <SCORE.INTER.POLAR>
0

>  <SCORE.INTER.ROT>
5

>  <SCORE.INTER.SOLV>
17.7477

>  <SCORE.INTER.VDW>
-16.7205

>  <SCORE.INTER.norm>
-0.263948

>  <SCORE.INTRA>
0.950229

>  <SCORE.INTRA.DIHEDRAL>
-1.83901

>  <SCORE.INTRA.DIHEDRAL.0>
3.49807

>  <SCORE.INTRA.POLAR>
0

>  <SCORE.INTRA.POLAR.0>
0

>  <SCORE.INTRA.REPUL>
0

>  <SCORE.INTRA.REPUL.0>
0

>  <SCORE.INTRA.SOLV>
0.775627

>  <SCORE.INTRA.SOLV.lig_0>
-73.062

>  <SCORE.INTRA.VDW>
1.48192

>  <SCORE.INTRA.VDW.0>
-1.83782

>  <SCORE.INTRA.norm>
0.0431922

>  <SCORE.RESTR>
0.194043

>  <SCORE.RESTR.CAVITY>
0.194043

>  <SCORE.RESTR.norm>
0.00882015

>  <SCORE.SYSTEM>
0

>  <SCORE.SYSTEM.CONST>
0

>  <SCORE.SYSTEM.DIHEDRAL>
0

>  <SCORE.SYSTEM.SOLV>
0

>  <SCORE.SYSTEM.norm>
0

>  <SCORE.heavy>
22

>  <SCORE.norm>
-0.211935

>  <RMSD>
13.138

$$$$
ligand
 OpenBabel11021811513D
libRbt.so/2013.1/901 2013/11/27
 22 23  0  0  0  0  0  0  0  0999 V2000
  -33.1016    3.8662  -18.9515 N   0  0  0  0  0  0  0  0  0  0  0  0
  -34.4298    2.7127  -21.8425 C   0  0  1  0  0  0  0  0  0  0  0  0
  -33.2603    3.2627  -21.1720 O   0  0  0  0  0  0  0  0  0  0  0  0
  -37.4926    4.2413  -23.4472 P   0  0  1  0  0  0  0  0  0  0  0  0
  -33.2691    2.8006  -19.8115 C   0  0  2  0  0  0  0  0  0  0  0  0
  -32.6401    5.0094  -17.1651 N   0  0  0  0  0  0  0  0  0  0  0  0
  -34.6545    1.3379  -18.5320 O   0  0  0  0  0  0  0  0  0  0  0  0
  -34.6447    2.2995  -19.5936 C   0  0  2  0  0  0  0  0  0  0  0  0
  -34.2349    8.0039  -18.1456 N   0  0  0  0  0  0  0  0  0  0  0  0
  -34.3558    0.4888  -21.1052 O   0  0  0  0  0  0  0  0  0  0  0  0
  -35.0182    1.7462  -20.8895 C   0  0  2  0  0  0  0  0  0  0  0  0
  -32.9688    5.8705  -18.1403 C   0  0  0  0  0  0  0  0  0  0  0  0
  -33.6271    5.6876  -20.5271 N   0  0  0  0  0  0  0  0  0  0  0  0
  -36.4347    3.2907  -22.7872 O   0  0  0  0  0  0  0  0  0  0  0  0
  -35.3559    3.8488  -22.1100 C   0  0  0  0  0  0  0  0  0  0  0  0
  -37.1069    4.2051  -24.9705 O   0  0  0  0  0  0  0  0  0  0  0  0
  -32.7293    3.7642  -17.6703 C   0  0  0  0  0  0  0  0  0  0  0  0
  -31.9830    7.9812  -17.8081 O   0  0  0  0  0  0  0  0  0  0  0  0
  -33.0128    7.3391  -18.0135 C   0  0  0  0  0  0  0  0  0  0  0  0
  -33.2578    5.1583  -19.2692 C   0  0  0  0  0  0  0  0  0  0  0  0
  -38.8687    3.7489  -23.1442 O   0  5  0  0  0  0  0  0  0  0  0  0
  -37.4978    5.5577  -22.7840 O   0  0  0  0  0  0  0  0  0  0  0  0
  1 17  1  0  0  0  0
  1 20  1  0  0  0  0
  2 15  1  1  0  0  0
  2  3  1  0  0  0  0
  2 11  1  0  0  0  0
  3  5  1  0  0  0  0
  4 16  1  6  0  0  0
  4 21  1  0  0  0  0
  4 22  2  0  0  0  0
  4 14  1  0  0  0  0
  5  1  1  1  0  0  0
  5  8  1  0  0  0  0
  6 17  2  0  0  0  0
  6 12  1  0  0  0  0
  8  7  1  1  0  0  0
  8 11  1  0  0  0  0
  9 19  1  0  0  0  0
 11 10  1  6  0  0  0
 12 20  2  0  0  0  0
 12 19  1  0  0  0  0
 13 20  1  0  0  0  0
 14 15  1  0  0  0  0
 18 19  2  0  0  0  0
M  CHG  1  21  -1
M  END
>  <CHROM.1>
-162.22449293,178.09928546,102.20927145,-169.48704899,-115.21245830,-34.78241627
4.16133017,-20.62312838,-0.38859300,0.85261911,-3.02148805

>  <Name>
ligand

>  <RI>
0

>  <Rbt.Current_Directory>
/home/itssahil/PROJECTS/Mol_Feturizer/New_Systems/rnas/4XWF

>  <Rbt.Executable>
rbdock ($Id: //depot/dev/client3/rdock/2013.1/src/exe/rbdock.cxx#4 $)

>  <Rbt.Library>
libRbt.so (2013.1, Build901 2013/11/27)

>  <Rbt.Parameter_File>
/export/apps/rDock/src/rDock_2013.1_src/data/scripts/dock_solv.prm

>  <Rbt.Receptor>
prm/blind_docking_80.prm

>  <SCORE>
-12.2849

>  <SCORE.INTER>
-14.91

>  <SCORE.INTER.CONST>
1

>  <SCORE.INTER.POLAR>
0

>  <SCORE.INTER.ROT>
5

>  <SCORE.INTER.SOLV>
16.3428

>  <SCORE.INTER.VDW>
-22.3209

>  <SCORE.INTER.norm>
-0.677728

>  <SCORE.INTRA>
2.62508

>  <SCORE.INTRA.DIHEDRAL>
0.445629

>  <SCORE.INTRA.DIHEDRAL.0>
3.49807

>  <SCORE.INTRA.POLAR>
0

>  <SCORE.INTRA.POLAR.0>
0

>  <SCORE.INTRA.REPUL>
0

>  <SCORE.INTRA.REPUL.0>
0

>  <SCORE.INTRA.SOLV>
3.72263

>  <SCORE.INTRA.SOLV.lig_0>
-73.062

>  <SCORE.INTRA.VDW>
0.540949

>  <SCORE.INTRA.VDW.0>
-1.83782

>  <SCORE.INTRA.norm>
0.119322

>  <SCORE.RESTR>
0

>  <SCORE.RESTR.CAVITY>
0

>  <SCORE.RESTR.norm>
0

>  <SCORE.SYSTEM>
0

>  <SCORE.SYSTEM.CONST>
0

>  <SCORE.SYSTEM.DIHEDRAL>
0

>  <SCORE.SYSTEM.SOLV>
0

>  <SCORE.SYSTEM.norm>
0

>  <SCORE.heavy>
22

>  <SCORE.norm>
-0.558406

>  <RMSD>
13.141

$$$$
ligand
 OpenBabel11021811513D
libRbt.so/2013.1/901 2013/11/27
 22 23  0  0  0  0  0  0  0  0999 V2000
  -34.0096   -5.9126  -14.1239 N   0  0  0  0  0  0  0  0  0  0  0  0
  -34.6238   -3.4858  -16.4013 C   0  0  1  0  0  0  0  0  0  0  0  0
  -34.7103   -4.9022  -16.0753 O   0  0  0  0  0  0  0  0  0  0  0  0
  -33.0004   -3.7741  -19.2740 P   0  0  1  0  0  0  0  0  0  0  0  0
  -34.9165   -5.0208  -14.6583 C   0  0  2  0  0  0  0  0  0  0  0  0
  -32.4202   -6.7362  -12.8966 N   0  0  0  0  0  0  0  0  0  0  0  0
  -35.2244   -3.4820  -12.8602 O   0  0  0  0  0  0  0  0  0  0  0  0
  -34.5646   -3.6900  -14.1145 C   0  0  2  0  0  0  0  0  0  0  0  0
  -31.6099   -9.5670  -14.6827 N   0  0  0  0  0  0  0  0  0  0  0  0
  -36.4211   -2.6367  -15.1591 O   0  0  0  0  0  0  0  0  0  0  0  0
  -34.9897   -2.7680  -15.1606 C   0  0  2  0  0  0  0  0  0  0  0  0
  -32.9161   -7.7236  -13.6580 C   0  0  0  0  0  0  0  0  0  0  0  0
  -34.7158   -7.9273  -15.3559 N   0  0  0  0  0  0  0  0  0  0  0  0
  -32.9096   -4.1675  -17.7588 O   0  0  0  0  0  0  0  0  0  0  0  0
  -33.2129   -3.2124  -16.7947 C   0  0  0  0  0  0  0  0  0  0  0  0
  -32.7742   -5.1421  -20.0142 O   0  0  0  0  0  0  0  0  0  0  0  0
  -33.0975   -5.6105  -13.1926 C   0  0  0  0  0  0  0  0  0  0  0  0
  -32.8166   -9.9051  -12.7813 O   0  0  0  0  0  0  0  0  0  0  0  0
  -32.4538   -9.1239  -13.6607 C   0  0  0  0  0  0  0  0  0  0  0  0
  -33.9195   -7.2133  -14.4314 C   0  0  0  0  0  0  0  0  0  0  0  0
  -34.3195   -3.1316  -19.5480 O   0  5  0  0  0  0  0  0  0  0  0  0
  -32.0673   -2.6764  -19.5855 O   0  0  0  0  0  0  0  0  0  0  0  0
  1 17  1  0  0  0  0
  1 20  1  0  0  0  0
  2 15  1  1  0  0  0
  2  3  1  0  0  0  0
  2 11  1  0  0  0  0
  3  5  1  0  0  0  0
  4 16  1  6  0  0  0
  4 21  1  0  0  0  0
  4 22  2  0  0  0  0
  4 14  1  0  0  0  0
  5  1  1  1  0  0  0
  5  8  1  0  0  0  0
  6 17  2  0  0  0  0
  6 12  1  0  0  0  0
  8  7  1  1  0  0  0
  8 11  1  0  0  0  0
  9 19  1  0  0  0  0
 11 10  1  6  0  0  0
 12 20  2  0  0  0  0
 12 19  1  0  0  0  0
 13 20  1  0  0  0  0
 14 15  1  0  0  0  0
 18 19  2  0  0  0  0
M  CHG  1  21  -1
M  END
>  <CHROM.1>
119.08738850,51.22878541,-172.92051917,98.07488997,-101.25518116,-33.68807833
-5.20153278,-15.85218385,1.46892478,-1.00080033,2.21654660

>  <Name>
ligand

>  <RI>
0

>  <Rbt.Current_Directory>
/home/itssahil/PROJECTS/Mol_Feturizer/New_Systems/rnas/4XWF

>  <Rbt.Executable>
rbdock ($Id: //depot/dev/client3/rdock/2013.1/src/exe/rbdock.cxx#4 $)

>  <Rbt.Library>
libRbt.so (2013.1, Build901 2013/11/27)

>  <Rbt.Parameter_File>
/export/apps/rDock/src/rDock_2013.1_src/data/scripts/dock_solv.prm

>  <Rbt.Receptor>
prm/blind_docking_40.prm

>  <SCORE>
-6.68753

>  <SCORE.INTER>
-11.5286

>  <SCORE.INTER.CONST>
1

>  <SCORE.INTER.POLAR>
0

>  <SCORE.INTER.ROT>
5

>  <SCORE.INTER.SOLV>
15.2715

>  <SCORE.INTER.VDW>
-19.7096

>  <SCORE.INTER.norm>
-0.524028

>  <SCORE.INTRA>
4.69245

>  <SCORE.INTRA.DIHEDRAL>
3.7958

>  <SCORE.INTRA.DIHEDRAL.0>
3.49807

>  <SCORE.INTRA.POLAR>
0

>  <SCORE.INTRA.POLAR.0>
0

>  <SCORE.INTRA.REPUL>
0

>  <SCORE.INTRA.REPUL.0>
0

>  <SCORE.INTRA.SOLV>
1.44702

>  <SCORE.INTRA.SOLV.lig_0>
-73.062

>  <SCORE.INTRA.VDW>
2.07104

>  <SCORE.INTRA.VDW.0>
-1.83782

>  <SCORE.INTRA.norm>
0.213293

>  <SCORE.RESTR>
0.148638

>  <SCORE.RESTR.CAVITY>
0.148638

>  <SCORE.RESTR.norm>
0.00675625

>  <SCORE.SYSTEM>
0

>  <SCORE.SYSTEM.CONST>
0

>  <SCORE.SYSTEM.DIHEDRAL>
0

>  <SCORE.SYSTEM.SOLV>
0

>  <SCORE.SYSTEM.norm>
0

>  <SCORE.heavy>
22

>  <SCORE.norm>
-0.303979

>  <RMSD>
13.153

$$$$
ligand
 OpenBabel11021811513D
libRbt.so/2013.1/901 2013/11/27
 22 23  0  0  0  0  0  0  0  0999 V2000
  -33.0736    3.9282  -19.0000 N   0  0  0  0  0  0  0  0  0  0  0  0
  -34.3805    2.7843  -21.9046 C   0  0  1  0  0  0  0  0  0  0  0  0
  -33.2267    3.3632  -21.2310 O   0  0  0  0  0  0  0  0  0  0  0  0
  -37.5056    4.2321  -23.4626 P   0  0  1  0  0  0  0  0  0  0  0  0
  -33.2089    2.8744  -19.8800 C   0  0  2  0  0  0  0  0  0  0  0  0
  -32.6501    5.0507  -17.1912 N   0  0  0  0  0  0  0  0  0  0  0  0
  -34.5309    1.3374  -18.6207 O   0  0  0  0  0  0  0  0  0  0  0  0
  -34.5638    2.3195  -19.6630 C   0  0  2  0  0  0  0  0  0  0  0  0
  -34.3254    8.0159  -18.1061 N   0  0  0  0  0  0  0  0  0  0  0  0
  -34.2206    0.5506  -21.2123 O   0  0  0  0  0  0  0  0  0  0  0  0
  -34.9265    1.7786  -20.9672 C   0  0  2  0  0  0  0  0  0  0  0  0
  -32.9988    5.9202  -18.1519 C   0  0  0  0  0  0  0  0  0  0  0  0
  -33.6431    5.7631  -20.5443 N   0  0  0  0  0  0  0  0  0  0  0  0
  -36.4120    3.3076  -22.8239 O   0  0  0  0  0  0  0  0  0  0  0  0
  -35.3490    3.8911  -22.1433 C   0  0  0  0  0  0  0  0  0  0  0  0
  -37.1363    4.2223  -24.9904 O   0  0  0  0  0  0  0  0  0  0  0  0
  -32.7034    3.8130  -17.7194 C   0  0  0  0  0  0  0  0  0  0  0  0
  -32.0702    8.0523  -17.7926 O   0  0  0  0  0  0  0  0  0  0  0  0
  -33.0834    7.3845  -17.9986 C   0  0  0  0  0  0  0  0  0  0  0  0
  -33.2640    5.2211  -19.2948 C   0  0  0  0  0  0  0  0  0  0  0  0
  -38.8626    3.6952  -23.1494 O   0  5  0  0  0  0  0  0  0  0  0  0
  -37.5430    5.5412  -22.7862 O   0  0  0  0  0  0  0  0  0  0  0  0
  1 17  1  0  0  0  0
  1 20  1  0  0  0  0
  2 15  1  1  0  0  0
  2  3  1  0  0  0  0
  2 11  1  0  0  0  0
  3  5  1  0  0  0  0
  4 16  1  6  0  0  0
  4 21  1  0  0  0  0
  4 22  2  0  0  0  0
  4 14  1  0  0  0  0
  5  1  1  1  0  0  0
  5  8  1  0  0  0  0
  6 17  2  0  0  0  0
  6 12  1  0  0  0  0
  8  7  1  1  0  0  0
  8 11  1  0  0  0  0
  9 19  1  0  0  0  0
 11 10  1  6  0  0  0
 12 20  2  0  0  0  0
 12 19  1  0  0  0  0
 13 20  1  0  0  0  0
 14 15  1  0  0  0  0
 18 19  2  0  0  0  0
M  CHG  1  21  -1
M  END
>  <CHROM.1>
-163.03317827,178.11749299,102.75553974,-169.24943137,-114.37146655,-34.77115324
4.19532635,-20.65654913,-0.43706308,0.84115146,-2.96821139

>  <Name>
ligand

>  <RI>
0

>  <Rbt.Current_Directory>
/home/itssahil/PROJECTS/Mol_Feturizer/New_Systems/rnas/4XWF

>  <Rbt.Executable>
rbdock ($Id: //depot/dev/client3/rdock/2013.1/src/exe/rbdock.cxx#4 $)

>  <Rbt.Library>
libRbt.so (2013.1, Build901 2013/11/27)

>  <Rbt.Parameter_File>
/export/apps/rDock/src/rDock_2013.1_src/data/scripts/dock_solv.prm

>  <Rbt.Receptor>
prm/blind_docking_100.prm

>  <SCORE>
-12.277

>  <SCORE.INTER>
-14.9292

>  <SCORE.INTER.CONST>
1

>  <SCORE.INTER.POLAR>
0

>  <SCORE.INTER.ROT>
5

>  <SCORE.INTER.SOLV>
16.5663

>  <SCORE.INTER.VDW>
-22.4083

>  <SCORE.INTER.norm>
-0.678601

>  <SCORE.INTRA>
2.64725

>  <SCORE.INTRA.DIHEDRAL>
0.506605

>  <SCORE.INTRA.DIHEDRAL.0>
3.49807

>  <SCORE.INTRA.POLAR>
0

>  <SCORE.INTRA.POLAR.0>
0

>  <SCORE.INTRA.REPUL>
0

>  <SCORE.INTRA.REPUL.0>
0

>  <SCORE.INTRA.SOLV>
3.67057

>  <SCORE.INTRA.SOLV.lig_0>
-73.062

>  <SCORE.INTRA.VDW>
0.558663

>  <SCORE.INTRA.VDW.0>
-1.83782

>  <SCORE.INTRA.norm>
0.12033

>  <SCORE.RESTR>
0.00494984

>  <SCORE.RESTR.CAVITY>
0.00494984

>  <SCORE.RESTR.norm>
0.000224993

>  <SCORE.SYSTEM>
0

>  <SCORE.SYSTEM.CONST>
0

>  <SCORE.SYSTEM.DIHEDRAL>
0

>  <SCORE.SYSTEM.SOLV>
0

>  <SCORE.SYSTEM.norm>
0

>  <SCORE.heavy>
22

>  <SCORE.norm>
-0.558047

>  <RMSD>
13.157

$$$$
ligand
 OpenBabel11021811513D
libRbt.so/2013.1/901 2013/11/27
 22 23  0  0  0  0  0  0  0  0999 V2000
  -33.1064    3.8596  -18.9636 N   0  0  0  0  0  0  0  0  0  0  0  0
  -34.3934    2.6881  -21.8660 C   0  0  1  0  0  0  0  0  0  0  0  0
  -33.2295    3.2296  -21.1790 O   0  0  0  0  0  0  0  0  0  0  0  0
  -37.4677    4.2239  -23.4487 P   0  0  1  0  0  0  0  0  0  0  0  0
  -33.2726    2.7854  -19.8132 C   0  0  2  0  0  0  0  0  0  0  0  0
  -32.6500    5.0203  -17.1873 N   0  0  0  0  0  0  0  0  0  0  0  0
  -34.7051    1.3600  -18.5436 O   0  0  0  0  0  0  0  0  0  0  0  0
  -34.6596    2.3075  -19.6169 C   0  0  2  0  0  0  0  0  0  0  0  0
  -31.9761    8.1018  -18.6062 N   0  0  0  0  0  0  0  0  0  0  0  0
  -34.3675    0.4732  -21.0992 O   0  0  0  0  0  0  0  0  0  0  0  0
  -35.0152    1.7429  -20.9130 C   0  0  2  0  0  0  0  0  0  0  0  0
  -32.9730    5.8719  -18.1727 C   0  0  0  0  0  0  0  0  0  0  0  0
  -33.6218    5.6655  -20.5601 N   0  0  0  0  0  0  0  0  0  0  0  0
  -36.3988    3.2747  -22.8044 O   0  0  0  0  0  0  0  0  0  0  0  0
  -35.2969    3.8341  -22.1667 C   0  0  0  0  0  0  0  0  0  0  0  0
  -37.0817    4.2172  -24.9724 O   0  0  0  0  0  0  0  0  0  0  0  0
  -32.7396    3.7701  -17.6799 C   0  0  0  0  0  0  0  0  0  0  0  0
  -33.9459    7.9000  -17.4815 O   0  0  0  0  0  0  0  0  0  0  0  0
  -33.0146    7.3418  -18.0613 C   0  0  0  0  0  0  0  0  0  0  0  0
  -33.2588    5.1486  -19.2954 C   0  0  0  0  0  0  0  0  0  0  0  0
  -38.8380    3.7106  -23.1541 O   0  5  0  0  0  0  0  0  0  0  0  0
  -37.4880    5.5289  -22.7639 O   0  0  0  0  0  0  0  0  0  0  0  0
  1 17  1  0  0  0  0
  1 20  1  0  0  0  0
  2 15  1  1  0  0  0
  2  3  1  0  0  0  0
  2 11  1  0  0  0  0
  3  5  1  0  0  0  0
  4 16  1  6  0  0  0
  4 21  1  0  0  0  0
  4 22  2  0  0  0  0
  4 14  1  0  0  0  0
  5  1  1  1  0  0  0
  5  8  1  0  0  0  0
  6 17  2  0  0  0  0
  6 12  1  0  0  0  0
  8  7  1  1  0  0  0
  8 11  1  0  0  0  0
  9 19  1  0  0  0  0
 11 10  1  1  0  0  0
 12 20  2  0  0  0  0
 12 19  1  0  0  0  0
 13 20  1  0  0  0  0
 14 15  1  0  0  0  0
 18 19  2  0  0  0  0
M  CHG  1  21  -1
M  END
>  <CHROM.1>
-161.03641531,-179.26076113,99.52352606,-171.37973613,103.53192780,-34.77363834
4.15240447,-20.64039525,-0.39008365,0.86108680,-3.03496286

>  <Name>
ligand

>  <RI>
0

>  <Rbt.Current_Directory>
/home/itssahil/PROJECTS/Mol_Feturizer/New_Systems/rnas/4XWF

>  <Rbt.Executable>
rbdock ($Id: //depot/dev/client3/rdock/2013.1/src/exe/rbdock.cxx#4 $)

>  <Rbt.Library>
libRbt.so (2013.1, Build901 2013/11/27)

>  <Rbt.Parameter_File>
/export/apps/rDock/src/rDock_2013.1_src/data/scripts/dock_solv.prm

>  <Rbt.Receptor>
prm/blind_docking_80.prm

>  <SCORE>
-12.0671

>  <SCORE.INTER>
-14.6334

>  <SCORE.INTER.CONST>
1

>  <SCORE.INTER.POLAR>
0

>  <SCORE.INTER.ROT>
5

>  <SCORE.INTER.SOLV>
16.1828

>  <SCORE.INTER.VDW>
-22.0832

>  <SCORE.INTER.norm>
-0.665156

>  <SCORE.INTRA>
2.56636

>  <SCORE.INTRA.DIHEDRAL>
0.366554

>  <SCORE.INTRA.DIHEDRAL.0>
3.49807

>  <SCORE.INTRA.POLAR>
0

>  <SCORE.INTRA.POLAR.0>
0

>  <SCORE.INTRA.REPUL>
0

>  <SCORE.INTRA.REPUL.0>
0

>  <SCORE.INTRA.SOLV>
3.7435

>  <SCORE.INTRA.SOLV.lig_0>
-73.062

>  <SCORE.INTRA.VDW>
0.511336

>  <SCORE.INTRA.VDW.0>
-1.83782

>  <SCORE.INTRA.norm>
0.116653

>  <SCORE.RESTR>
0

>  <SCORE.RESTR.CAVITY>
0

>  <SCORE.RESTR.norm>
0

>  <SCORE.SYSTEM>
0

>  <SCORE.SYSTEM.CONST>
0

>  <SCORE.SYSTEM.DIHEDRAL>
0

>  <SCORE.SYSTEM.SOLV>
0

>  <SCORE.SYSTEM.norm>
0

>  <SCORE.heavy>
22

>  <SCORE.norm>
-0.548503

>  <RMSD>
13.157

$$$$
ligand
 OpenBabel11021811513D
libRbt.so/2013.1/901 2013/11/27
 22 23  0  0  0  0  0  0  0  0999 V2000
  -34.3521   -5.9753  -13.7102 N   0  0  0  0  0  0  0  0  0  0  0  0
  -35.4351   -4.2725  -16.4269 C   0  0  1  0  0  0  0  0  0  0  0  0
  -35.5959   -5.4450  -15.5789 O   0  0  0  0  0  0  0  0  0  0  0  0
  -32.8902   -3.2550  -19.0430 P   0  0  1  0  0  0  0  0  0  0  0  0
  -35.2536   -5.0719  -14.2343 C   0  0  2  0  0  0  0  0  0  0  0  0
  -32.7200   -6.8054  -12.5449 N   0  0  0  0  0  0  0  0  0  0  0  0
  -34.6134   -3.0423  -13.1541 O   0  0  0  0  0  0  0  0  0  0  0  0
  -34.5277   -3.7895  -14.3732 C   0  0  2  0  0  0  0  0  0  0  0  0
  -33.8875  -10.2103  -12.9905 N   0  0  0  0  0  0  0  0  0  0  0  0
  -36.4673   -2.6308  -15.1099 O   0  0  0  0  0  0  0  0  0  0  0  0
  -35.1836   -3.1442  -15.5038 C   0  0  2  0  0  0  0  0  0  0  0  0
  -33.3096   -7.8082  -13.2139 C   0  0  0  0  0  0  0  0  0  0  0  0
  -35.2285   -8.0183  -14.7750 N   0  0  0  0  0  0  0  0  0  0  0  0
  -34.0875   -3.3547  -18.0355 O   0  0  0  0  0  0  0  0  0  0  0  0
  -34.2623   -4.5279  -17.3096 C   0  0  0  0  0  0  0  0  0  0  0  0
  -33.1458   -1.8850  -19.7698 O   0  0  0  0  0  0  0  0  0  0  0  0
  -33.3661   -5.6667  -12.8600 C   0  0  0  0  0  0  0  0  0  0  0  0
  -31.7261   -9.5481  -13.2651 O   0  0  0  0  0  0  0  0  0  0  0  0
  -32.9103   -9.2270  -13.1664 C   0  0  0  0  0  0  0  0  0  0  0  0
  -34.3402   -7.2937  -13.9476 C   0  0  0  0  0  0  0  0  0  0  0  0
  -31.5990   -3.3300  -18.2979 O   0  5  0  0  0  0  0  0  0  0  0  0
  -32.8148   -4.4618  -19.8859 O   0  0  0  0  0  0  0  0  0  0  0  0
  1 17  1  0  0  0  0
  1 20  1  0  0  0  0
  2 15  1  6  0  0  0
  2  3  1  0  0  0  0
  2 11  1  0  0  0  0
  3  5  1  0  0  0  0
  4 16  1  6  0  0  0
  4 21  1  0  0  0  0
  4 22  2  0  0  0  0
  4 14  1  0  0  0  0
  5  1  1  6  0  0  0
  5  8  1  0  0  0  0
  6 17  2  0  0  0  0
  6 12  1  0  0  0  0
  8  7  1  1  0  0  0
  8 11  1  0  0  0  0
  9 19  1  0  0  0  0
 11 10  1  1  0  0  0
 12 20  2  0  0  0  0
 12 19  1  0  0  0  0
 13 20  1  0  0  0  0
 14 15  1  0  0  0  0
 18 19  2  0  0  0  0
M  CHG  1  21  -1
M  END
>  <CHROM.1>
145.43886047,-176.06115322,173.25934162,177.90546557,133.12420591,-33.91829958
-5.19535960,-15.63380000,1.58839725,-0.89330110,2.33933950

>  <Name>
ligand

>  <RI>
0

>  <Rbt.Current_Directory>
/home/itssahil/PROJECTS/Mol_Feturizer/New_Systems/rnas/4XWF

>  <Rbt.Executable>
rbdock ($Id: //depot/dev/client3/rdock/2013.1/src/exe/rbdock.cxx#4 $)

>  <Rbt.Library>
libRbt.so (2013.1, Build901 2013/11/27)

>  <Rbt.Parameter_File>
/export/apps/rDock/src/rDock_2013.1_src/data/scripts/dock_solv.prm

>  <Rbt.Receptor>
prm/blind_docking_40.prm

>  <SCORE>
-4.56698

>  <SCORE.INTER>
-6.16444

>  <SCORE.INTER.CONST>
1

>  <SCORE.INTER.POLAR>
0

>  <SCORE.INTER.ROT>
5

>  <SCORE.INTER.SOLV>
16.4603

>  <SCORE.INTER.VDW>
-16.5297

>  <SCORE.INTER.norm>
-0.280202

>  <SCORE.INTRA>
1.47724

>  <SCORE.INTRA.DIHEDRAL>
-1.6332

>  <SCORE.INTRA.DIHEDRAL.0>
3.49807

>  <SCORE.INTRA.POLAR>
0

>  <SCORE.INTRA.POLAR.0>
0

>  <SCORE.INTRA.REPUL>
0

>  <SCORE.INTRA.REPUL.0>
0

>  <SCORE.INTRA.SOLV>
1.51369

>  <SCORE.INTRA.SOLV.lig_0>
-73.062

>  <SCORE.INTRA.VDW>
1.537

>  <SCORE.INTRA.VDW.0>
-1.83782

>  <SCORE.INTRA.norm>
0.0671474

>  <SCORE.RESTR>
0.120218

>  <SCORE.RESTR.CAVITY>
0.120218

>  <SCORE.RESTR.norm>
0.00546443

>  <SCORE.SYSTEM>
0

>  <SCORE.SYSTEM.CONST>
0

>  <SCORE.SYSTEM.DIHEDRAL>
0

>  <SCORE.SYSTEM.SOLV>
0

>  <SCORE.SYSTEM.norm>
0

>  <SCORE.heavy>
22

>  <SCORE.norm>
-0.20759

>  <RMSD>
13.160

$$$$
ligand
 OpenBabel11021811513D
libRbt.so/2013.1/901 2013/11/27
 22 23  0  0  0  0  0  0  0  0999 V2000
  -34.3578   -5.9793  -13.7255 N   0  0  0  0  0  0  0  0  0  0  0  0
  -35.4453   -4.2800  -16.4425 C   0  0  1  0  0  0  0  0  0  0  0  0
  -35.5979   -5.4566  -15.5986 O   0  0  0  0  0  0  0  0  0  0  0  0
  -32.9073   -3.2339  -19.0544 P   0  0  1  0  0  0  0  0  0  0  0  0
  -35.2660   -5.0838  -14.2513 C   0  0  2  0  0  0  0  0  0  0  0  0
  -32.7072   -6.7909  -12.5732 N   0  0  0  0  0  0  0  0  0  0  0  0
  -34.6523   -3.0508  -13.1623 O   0  0  0  0  0  0  0  0  0  0  0  0
  -34.5529   -3.7935  -14.3830 C   0  0  2  0  0  0  0  0  0  0  0  0
  -33.8981  -10.2047  -12.9826 N   0  0  0  0  0  0  0  0  0  0  0  0
  -36.5008   -2.6530  -15.1260 O   0  0  0  0  0  0  0  0  0  0  0  0
  -35.2100   -3.1518  -15.5151 C   0  0  2  0  0  0  0  0  0  0  0  0
  -33.3116   -7.8051  -13.2110 C   0  0  0  0  0  0  0  0  0  0  0  0
  -35.2590   -8.0406  -14.7327 N   0  0  0  0  0  0  0  0  0  0  0  0
  -34.1031   -3.3458  -18.0462 O   0  0  0  0  0  0  0  0  0  0  0  0
  -34.2656   -4.5206  -17.3202 C   0  0  0  0  0  0  0  0  0  0  0  0
  -33.1750   -1.8646  -19.7782 O   0  0  0  0  0  0  0  0  0  0  0  0
  -33.3557   -5.6567  -12.8995 C   0  0  0  0  0  0  0  0  0  0  0  0
  -31.7296   -9.5471  -13.2086 O   0  0  0  0  0  0  0  0  0  0  0  0
  -32.9155   -9.2239  -13.1420 C   0  0  0  0  0  0  0  0  0  0  0  0
  -34.3539   -7.3023  -13.9363 C   0  0  0  0  0  0  0  0  0  0  0  0
  -31.6151   -3.2995  -18.3103 O   0  5  0  0  0  0  0  0  0  0  0  0
  -32.8224   -4.4383  -19.8998 O   0  0  0  0  0  0  0  0  0  0  0  0
  1 17  1  0  0  0  0
  1 20  1  0  0  0  0
  2 15  1  6  0  0  0
  2  3  1  0  0  0  0
  2 11  1  0  0  0  0
  3  5  1  0  0  0  0
  4 16  1  6  0  0  0
  4 21  1  0  0  0  0
  4 22  2  0  0  0  0
  4 14  1  0  0  0  0
  5  1  1  6  0  0  0
  5  8  1  0  0  0  0
  6 17  2  0  0  0  0
  6 12  1  0  0  0  0
  8  7  1  1  0  0  0
  8 11  1  0  0  0  0
  9 19  1  0  0  0  0
 11 10  1  1  0  0  0
 12 20  2  0  0  0  0
 12 19  1  0  0  0  0
 13 20  1  0  0  0  0
 14 15  1  0  0  0  0
 18 19  2  0  0  0  0
M  CHG  1  21  -1
M  END
>  <CHROM.1>
143.42383171,-176.31715944,173.41224642,178.21989574,135.68574107,-33.93193465
-5.19221527,-15.63878264,1.58613353,-0.88217445,2.33734840

>  <Name>
ligand

>  <RI>
0

>  <Rbt.Current_Directory>
/home/itssahil/PROJECTS/Mol_Feturizer/New_Systems/rnas/4XWF

>  <Rbt.Executable>
rbdock ($Id: //depot/dev/client3/rdock/2013.1/src/exe/rbdock.cxx#4 $)

>  <Rbt.Library>
libRbt.so (2013.1, Build901 2013/11/27)

>  <Rbt.Parameter_File>
/export/apps/rDock/src/rDock_2013.1_src/data/scripts/dock_solv.prm

>  <Rbt.Receptor>
prm/blind_docking_40.prm

>  <SCORE>
-4.69028

>  <SCORE.INTER>
-6.35786

>  <SCORE.INTER.CONST>
1

>  <SCORE.INTER.POLAR>
0

>  <SCORE.INTER.ROT>
5

>  <SCORE.INTER.SOLV>
16.3198

>  <SCORE.INTER.VDW>
-16.6118

>  <SCORE.INTER.norm>
-0.288994

>  <SCORE.INTRA>
1.52301

>  <SCORE.INTRA.DIHEDRAL>
-1.57107

>  <SCORE.INTRA.DIHEDRAL.0>
3.49807

>  <SCORE.INTRA.POLAR>
0

>  <SCORE.INTRA.POLAR.0>
0

>  <SCORE.INTRA.REPUL>
0

>  <SCORE.INTRA.REPUL.0>
0

>  <SCORE.INTRA.SOLV>
1.40728

>  <SCORE.INTRA.SOLV.lig_0>
-73.062

>  <SCORE.INTRA.VDW>
1.60491

>  <SCORE.INTRA.VDW.0>
-1.83782

>  <SCORE.INTRA.norm>
0.0692277

>  <SCORE.RESTR>
0.144569

>  <SCORE.RESTR.CAVITY>
0.144569

>  <SCORE.RESTR.norm>
0.00657132

>  <SCORE.SYSTEM>
0

>  <SCORE.SYSTEM.CONST>
0

>  <SCORE.SYSTEM.DIHEDRAL>
0

>  <SCORE.SYSTEM.SOLV>
0

>  <SCORE.SYSTEM.norm>
0

>  <SCORE.heavy>
22

>  <SCORE.norm>
-0.213195

>  <RMSD>
13.167

$$$$
ligand
 OpenBabel11021811513D
libRbt.so/2013.1/901 2013/11/27
 22 23  0  0  0  0  0  0  0  0999 V2000
  -35.8641   -2.0529  -19.2532 N   0  0  0  0  0  0  0  0  0  0  0  0
  -35.9606    1.2838  -19.8099 C   0  0  1  0  0  0  0  0  0  0  0  0
  -36.1172   -0.0509  -20.3702 O   0  0  0  0  0  0  0  0  0  0  0  0
  -34.0554    3.2650  -21.5500 P   0  0  1  0  0  0  0  0  0  0  0  0
  -36.6306   -0.9090  -19.3386 C   0  0  2  0  0  0  0  0  0  0  0  0
  -34.2069   -3.4353  -19.4844 N   0  0  0  0  0  0  0  0  0  0  0  0
  -37.3270   -0.6032  -17.0764 O   0  0  0  0  0  0  0  0  0  0  0  0
  -36.4070   -0.1609  -18.0812 C   0  0  2  0  0  0  0  0  0  0  0  0
  -36.0585   -6.3269  -18.4973 N   0  0  0  0  0  0  0  0  0  0  0  0
  -37.9873    1.5183  -18.6558 O   0  0  0  0  0  0  0  0  0  0  0  0
  -36.5908    1.2313  -18.4725 C   0  0  2  0  0  0  0  0  0  0  0  0
  -35.1487   -4.0316  -18.7375 C   0  0  0  0  0  0  0  0  0  0  0  0
  -37.3782   -3.3977  -17.8479 N   0  0  0  0  0  0  0  0  0  0  0  0
  -34.0826    1.7897  -21.0196 O   0  0  0  0  0  0  0  0  0  0  0  0
  -34.4976    1.5497  -19.7143 C   0  0  0  0  0  0  0  0  0  0  0  0
  -32.8805    3.9178  -20.7352 O   0  0  0  0  0  0  0  0  0  0  0  0
  -34.6567   -2.2081  -19.8087 C   0  0  0  0  0  0  0  0  0  0  0  0
  -34.1497   -5.7070  -17.4214 O   0  0  0  0  0  0  0  0  0  0  0  0
  -35.0691   -5.3933  -18.1772 C   0  0  0  0  0  0  0  0  0  0  0  0
  -36.1942   -3.1661  -18.5849 C   0  0  0  0  0  0  0  0  0  0  0  0
  -33.8579    3.2634  -23.0294 O   0  5  0  0  0  0  0  0  0  0  0  0
  -35.3862    3.8876  -21.4308 O   0  0  0  0  0  0  0  0  0  0  0  0
  1 17  1  0  0  0  0
  1 20  1  0  0  0  0
  2 15  1  1  0  0  0
  2  3  1  0  0  0  0
  2 11  1  0  0  0  0
  3  5  1  0  0  0  0
  4 16  1  1  0  0  0
  4 21  1  0  0  0  0
  4 22  2  0  0  0  0
  4 14  1  0  0  0  0
  5  1  1  1  0  0  0
  5  8  1  0  0  0  0
  6 17  2  0  0  0  0
  6 12  1  0  0  0  0
  8  7  1  1  0  0  0
  8 11  1  0  0  0  0
  9 19  1  0  0  0  0
 11 10  1  6  0  0  0
 12 20  2  0  0  0  0
 12 19  1  0  0  0  0
 13 20  1  0  0  0  0
 14 15  1  0  0  0  0
 18 19  2  0  0  0  0
M  CHG  1  21  -1
M  END
>  <CHROM.1>
14.58826935,74.36838233,69.17907399,92.40473527,-122.43809698,-35.38597483
-0.36731391,-19.57053494,1.74745165,-0.59402026,2.86168227

>  <Name>
ligand

>  <RI>
0

>  <Rbt.Current_Directory>
/home/itssahil/PROJECTS/Mol_Feturizer/New_Systems/rnas/4XWF

>  <Rbt.Executable>
rbdock ($Id: //depot/dev/client3/rdock/2013.1/src/exe/rbdock.cxx#4 $)

>  <Rbt.Library>
libRbt.so (2013.1, Build901 2013/11/27)

>  <Rbt.Parameter_File>
/export/apps/rDock/src/rDock_2013.1_src/data/scripts/dock_solv.prm

>  <Rbt.Receptor>
prm/blind_docking_80.prm

>  <SCORE>
-7.40905

>  <SCORE.INTER>
-9.57397

>  <SCORE.INTER.CONST>
1

>  <SCORE.INTER.POLAR>
0

>  <SCORE.INTER.ROT>
5

>  <SCORE.INTER.SOLV>
22.6214

>  <SCORE.INTER.VDW>
-20.8564

>  <SCORE.INTER.norm>
-0.43518

>  <SCORE.INTRA>
2.16492

>  <SCORE.INTRA.DIHEDRAL>
2.86867

>  <SCORE.INTRA.DIHEDRAL.0>
3.49807

>  <SCORE.INTRA.POLAR>
0

>  <SCORE.INTRA.POLAR.0>
0

>  <SCORE.INTRA.REPUL>
0

>  <SCORE.INTRA.REPUL.0>
0

>  <SCORE.INTRA.SOLV>
2.25452

>  <SCORE.INTRA.SOLV.lig_0>
-73.062

>  <SCORE.INTRA.VDW>
-0.396674

>  <SCORE.INTRA.VDW.0>
-1.83782

>  <SCORE.INTRA.norm>
0.0984053

>  <SCORE.RESTR>
0

>  <SCORE.RESTR.CAVITY>
0

>  <SCORE.RESTR.norm>
0

>  <SCORE.SYSTEM>
0

>  <SCORE.SYSTEM.CONST>
0

>  <SCORE.SYSTEM.DIHEDRAL>
0

>  <SCORE.SYSTEM.SOLV>
0

>  <SCORE.SYSTEM.norm>
0

>  <SCORE.heavy>
22

>  <SCORE.norm>
-0.336775

>  <RMSD>
13.189

$$$$
ligand
 OpenBabel11021811513D
libRbt.so/2013.1/901 2013/11/27
 22 23  0  0  0  0  0  0  0  0999 V2000
  -34.1366    6.0396  -21.0381 N   0  0  0  0  0  0  0  0  0  0  0  0
  -33.4196    2.7640  -20.5813 C   0  0  1  0  0  0  0  0  0  0  0  0
  -33.5727    3.8578  -21.5299 O   0  0  0  0  0  0  0  0  0  0  0  0
  -35.8588    0.3279  -19.0099 P   0  0  1  0  0  0  0  0  0  0  0  0
  -33.1663    5.0721  -20.8781 C   0  0  2  0  0  0  0  0  0  0  0  0
  -36.0806    6.9986  -21.1482 N   0  0  0  0  0  0  0  0  0  0  0  0
  -32.2599    5.6211  -18.7397 O   0  0  0  0  0  0  0  0  0  0  0  0
  -33.1444    4.7360  -19.4368 C   0  0  2  0  0  0  0  0  0  0  0  0
  -35.0620    9.9407  -22.7829 N   0  0  0  0  0  0  0  0  0  0  0  0
  -31.3080    3.2486  -19.6864 O   0  0  0  0  0  0  0  0  0  0  0  0
  -32.7165    3.3426  -19.4154 C   0  0  2  0  0  0  0  0  0  0  0  0
  -35.1391    7.9393  -21.3190 C   0  0  0  0  0  0  0  0  0  0  0  0
  -32.6571    7.9856  -21.3539 N   0  0  0  0  0  0  0  0  0  0  0  0
  -34.6024    1.1306  -19.4954 O   0  0  0  0  0  0  0  0  0  0  0  0
  -34.7895    2.3030  -20.2195 C   0  0  0  0  0  0  0  0  0  0  0  0
  -36.5457    1.3142  -17.9971 O   0  0  0  0  0  0  0  0  0  0  0  0
  -35.4550    5.8180  -20.9800 C   0  0  0  0  0  0  0  0  0  0  0  0
  -35.8633   10.0778  -20.6557 O   0  0  0  0  0  0  0  0  0  0  0  0
  -35.3875    9.3749  -21.5472 C   0  0  0  0  0  0  0  0  0  0  0  0
  -33.9121    7.3436  -21.2479 C   0  0  0  0  0  0  0  0  0  0  0  0
  -36.7028   -0.0424  -20.1839 O   0  5  0  0  0  0  0  0  0  0  0  0
  -35.4663   -0.9979  -18.4991 O   0  0  0  0  0  0  0  0  0  0  0  0
  1 17  1  0  0  0  0
  1 20  1  0  0  0  0
  2 15  1  1  0  0  0
  2  3  1  0  0  0  0
  2 11  1  0  0  0  0
  3  5  1  0  0  0  0
  4 16  1  1  0  0  0
  4 21  1  0  0  0  0
  4 22  2  0  0  0  0
  4 14  1  0  0  0  0
  5  1  1  1  0  0  0
  5  8  1  0  0  0  0
  6 17  2  0  0  0  0
  6 12  1  0  0  0  0
  8  7  1  1  0  0  0
  8 11  1  0  0  0  0
  9 19  1  0  0  0  0
 11 10  1  6  0  0  0
 12 20  2  0  0  0  0
 12 19  1  0  0  0  0
 13 20  1  0  0  0  0
 14 15  1  0  0  0  0
 18 19  2  0  0  0  0
M  CHG  1  21  -1
M  END
>  <CHROM.1>
39.62749314,170.48023797,-64.75193442,-177.01898759,-112.68323114,-34.50255490
4.36511604,-20.22729520,-1.48497008,0.07660279,2.86521035

>  <Name>
ligand

>  <RI>
0

>  <Rbt.Current_Directory>
/home/itssahil/PROJECTS/Mol_Feturizer/New_Systems/rnas/4XWF

>  <Rbt.Executable>
rbdock ($Id: //depot/dev/client3/rdock/2013.1/src/exe/rbdock.cxx#4 $)

>  <Rbt.Library>
libRbt.so (2013.1, Build901 2013/11/27)

>  <Rbt.Parameter_File>
/export/apps/rDock/src/rDock_2013.1_src/data/scripts/dock_solv.prm

>  <Rbt.Receptor>
prm/blind_docking_100.prm

>  <SCORE>
-10.7373

>  <SCORE.INTER>
-9.60716

>  <SCORE.INTER.CONST>
1

>  <SCORE.INTER.POLAR>
0

>  <SCORE.INTER.ROT>
5

>  <SCORE.INTER.SOLV>
12.2617

>  <SCORE.INTER.VDW>
-17.4254

>  <SCORE.INTER.norm>
-0.436689

>  <SCORE.INTRA>
-1.13016

>  <SCORE.INTRA.DIHEDRAL>
-1.54623

>  <SCORE.INTRA.DIHEDRAL.0>
3.49807

>  <SCORE.INTRA.POLAR>
0

>  <SCORE.INTRA.POLAR.0>
0

>  <SCORE.INTRA.REPUL>
0

>  <SCORE.INTRA.REPUL.0>
0

>  <SCORE.INTRA.SOLV>
-0.229228

>  <SCORE.INTRA.SOLV.lig_0>
-73.062

>  <SCORE.INTRA.VDW>
-0.242431

>  <SCORE.INTRA.VDW.0>
-1.83782

>  <SCORE.INTRA.norm>
-0.0513709

>  <SCORE.RESTR>
0

>  <SCORE.RESTR.CAVITY>
0

>  <SCORE.RESTR.norm>
0

>  <SCORE.SYSTEM>
0

>  <SCORE.SYSTEM.CONST>
0

>  <SCORE.SYSTEM.DIHEDRAL>
0

>  <SCORE.SYSTEM.SOLV>
0

>  <SCORE.SYSTEM.norm>
0

>  <SCORE.heavy>
22

>  <SCORE.norm>
-0.48806

>  <RMSD>
13.195

$$$$
ligand
 OpenBabel11021811513D
libRbt.so/2013.1/901 2013/11/27
 22 23  0  0  0  0  0  0  0  0999 V2000
  -34.0661   -5.9058  -14.1195 N   0  0  0  0  0  0  0  0  0  0  0  0
  -34.6446   -3.4543  -16.3795 C   0  0  1  0  0  0  0  0  0  0  0  0
  -34.7421   -4.8732  -16.0680 O   0  0  0  0  0  0  0  0  0  0  0  0
  -33.2569   -3.9523  -19.1892 P   0  0  1  0  0  0  0  0  0  0  0  0
  -34.9628   -5.0041  -14.6543 C   0  0  2  0  0  0  0  0  0  0  0  0
  -32.4908   -6.7488  -12.8871 N   0  0  0  0  0  0  0  0  0  0  0  0
  -35.2802   -3.4808  -12.8447 O   0  0  0  0  0  0  0  0  0  0  0  0
  -34.6092   -3.6804  -14.0943 C   0  0  2  0  0  0  0  0  0  0  0  0
  -31.6861   -9.5734  -14.6824 N   0  0  0  0  0  0  0  0  0  0  0  0
  -36.4496   -2.6071  -15.1470 O   0  0  0  0  0  0  0  0  0  0  0  0
  -35.0189   -2.7462  -15.1358 C   0  0  2  0  0  0  0  0  0  0  0  0
  -32.9891   -7.7278  -13.6577 C   0  0  0  0  0  0  0  0  0  0  0  0
  -34.7794   -7.9077  -15.3683 N   0  0  0  0  0  0  0  0  0  0  0  0
  -32.9003   -4.1730  -17.6783 O   0  0  0  0  0  0  0  0  0  0  0  0
  -33.2285   -3.1849  -16.7565 C   0  0  0  0  0  0  0  0  0  0  0  0
  -34.7956   -3.6336  -19.1521 O   0  0  0  0  0  0  0  0  0  0  0  0
  -33.1578   -5.6163  -13.1805 C   0  0  0  0  0  0  0  0  0  0  0  0
  -32.9151   -9.9164  -12.7962 O   0  0  0  0  0  0  0  0  0  0  0  0
  -32.5373   -9.1316  -13.6659 C   0  0  0  0  0  0  0  0  0  0  0  0
  -33.9837   -7.2054  -14.4343 C   0  0  0  0  0  0  0  0  0  0  0  0
  -32.4106   -2.8583  -19.7504 O   0  5  0  0  0  0  0  0  0  0  0  0
  -32.8262   -5.1045  -20.0013 O   0  0  0  0  0  0  0  0  0  0  0  0
  1 17  1  0  0  0  0
  1 20  1  0  0  0  0
  2 15  1  1  0  0  0
  2  3  1  0  0  0  0
  2 11  1  0  0  0  0
  3  5  1  0  0  0  0
  4 16  1  6  0  0  0
  4 21  1  0  0  0  0
  4 22  2  0  0  0  0
  4 14  1  0  0  0  0
  5  1  1  1  0  0  0
  5  8  1  0  0  0  0
  6 17  2  0  0  0  0
  6 12  1  0  0  0  0
  8  7  1  1  0  0  0
  8 11  1  0  0  0  0
  9 19  1  0  0  0  0
 11 10  1  6  0  0  0
 12 20  2  0  0  0  0
 12 19  1  0  0  0  0
 13 20  1  0  0  0  0
 14 15  1  0  0  0  0
 18 19  2  0  0  0  0
M  CHG  1  21  -1
M  END
>  <CHROM.1>
118.78654335,48.39179205,-53.90468933,84.91403732,-101.01459724,-33.79239935
-5.24334947,-15.82279768,1.41465801,-1.02680742,2.16910018

>  <Name>
ligand

>  <RI>
0

>  <Rbt.Current_Directory>
/home/itssahil/PROJECTS/Mol_Feturizer/New_Systems/rnas/4XWF

>  <Rbt.Executable>
rbdock ($Id: //depot/dev/client3/rdock/2013.1/src/exe/rbdock.cxx#4 $)

>  <Rbt.Library>
libRbt.so (2013.1, Build901 2013/11/27)

>  <Rbt.Parameter_File>
/export/apps/rDock/src/rDock_2013.1_src/data/scripts/dock_solv.prm

>  <Rbt.Receptor>
prm/blind_docking_40.prm

>  <SCORE>
-6.32245

>  <SCORE.INTER>
-10.0703

>  <SCORE.INTER.CONST>
1

>  <SCORE.INTER.POLAR>
0

>  <SCORE.INTER.ROT>
5

>  <SCORE.INTER.SOLV>
15.9089

>  <SCORE.INTER.VDW>
-18.9498

>  <SCORE.INTER.norm>
-0.457741

>  <SCORE.INTRA>
3.46758

>  <SCORE.INTRA.DIHEDRAL>
1.55497

>  <SCORE.INTRA.DIHEDRAL.0>
3.49807

>  <SCORE.INTRA.POLAR>
0

>  <SCORE.INTRA.POLAR.0>
0

>  <SCORE.INTRA.REPUL>
0

>  <SCORE.INTRA.REPUL.0>
0

>  <SCORE.INTRA.SOLV>
0.190647

>  <SCORE.INTRA.SOLV.lig_0>
-73.062

>  <SCORE.INTRA.VDW>
2.59477

>  <SCORE.INTRA.VDW.0>
-1.83782

>  <SCORE.INTRA.norm>
0.157617

>  <SCORE.RESTR>
0.280271

>  <SCORE.RESTR.CAVITY>
0.280271

>  <SCORE.RESTR.norm>
0.0127396

>  <SCORE.SYSTEM>
0

>  <SCORE.SYSTEM.CONST>
0

>  <SCORE.SYSTEM.DIHEDRAL>
0

>  <SCORE.SYSTEM.SOLV>
0

>  <SCORE.SYSTEM.norm>
0

>  <SCORE.heavy>
22

>  <SCORE.norm>
-0.287384

>  <RMSD>
13.207

$$$$
ligand
 OpenBabel11021811513D
libRbt.so/2013.1/901 2013/11/27
 22 23  0  0  0  0  0  0  0  0999 V2000
  -34.0786    7.0574  -20.9843 N   0  0  0  0  0  0  0  0  0  0  0  0
  -33.5947    3.7289  -21.3581 C   0  0  1  0  0  0  0  0  0  0  0  0
  -33.5343    5.0466  -21.9744 O   0  0  0  0  0  0  0  0  0  0  0  0
  -34.7764    1.1371  -20.0454 P   0  0  1  0  0  0  0  0  0  0  0  0
  -33.1935    5.9996  -20.9546 C   0  0  2  0  0  0  0  0  0  0  0  0
  -35.9328    8.1799  -21.0991 N   0  0  0  0  0  0  0  0  0  0  0  0
  -32.6459    5.8703  -18.6352 O   0  0  0  0  0  0  0  0  0  0  0  0
  -33.4349    5.2880  -19.6794 C   0  0  2  0  0  0  0  0  0  0  0  0
  -34.5609   11.3362  -21.7714 N   0  0  0  0  0  0  0  0  0  0  0  0
  -31.6497    3.7640  -20.0503 O   0  0  0  0  0  0  0  0  0  0  0  0
  -33.0784    3.9076  -19.9834 C   0  0  2  0  0  0  0  0  0  0  0  0
  -34.9303    9.0470  -20.8898 C   0  0  0  0  0  0  0  0  0  0  0  0
  -32.4728    8.8829  -20.5784 N   0  0  0  0  0  0  0  0  0  0  0  0
  -35.0023    1.9223  -21.3837 O   0  0  0  0  0  0  0  0  0  0  0  0
  -35.0253    3.3124  -21.3545 C   0  0  0  0  0  0  0  0  0  0  0  0
  -33.2138    1.1574  -19.8766 O   0  0  0  0  0  0  0  0  0  0  0  0
  -35.3998    6.9448  -21.1635 C   0  0  0  0  0  0  0  0  0  0  0  0
  -35.6134   11.0059  -19.7792 O   0  0  0  0  0  0  0  0  0  0  0  0
  -35.0690   10.5099  -20.7655 C   0  0  0  0  0  0  0  0  0  0  0  0
  -33.7599    8.3473  -20.8134 C   0  0  0  0  0  0  0  0  0  0  0  0
  -35.5280    1.8014  -18.9401 O   0  5  0  0  0  0  0  0  0  0  0  0
  -35.4321   -0.1821  -20.0966 O   0  0  0  0  0  0  0  0  0  0  0  0
  1 17  1  0  0  0  0
  1 20  1  0  0  0  0
  2 15  1  1  0  0  0
  2  3  1  0  0  0  0
  2 11  1  0  0  0  0
  3  5  1  0  0  0  0
  4 16  1  1  0  0  0
  4 21  1  0  0  0  0
  4 22  2  0  0  0  0
  4 14  1  0  0  0  0
  5  1  1  1  0  0  0
  5  8  1  0  0  0  0
  6 17  2  0  0  0  0
  6 12  1  0  0  0  0
  8  7  1  1  0  0  0
  8 11  1  0  0  0  0
  9 19  1  0  0  0  0
 11 10  1  6  0  0  0
 12 20  2  0  0  0  0
 12 19  1  0  0  0  0
 13 20  1  0  0  0  0
 14 15  1  0  0  0  0
 18 19  2  0  0  0  0
M  CHG  1  21  -1
M  END
>  <CHROM.1>
41.21802569,152.47616769,-82.60499038,81.53769203,-111.09325515,-34.19988366
5.25426791,-20.49711568,-1.58730527,0.19782106,3.06863999

>  <Name>
ligand

>  <RI>
0

>  <Rbt.Current_Directory>
/home/itssahil/PROJECTS/Mol_Feturizer/New_Systems/rnas/4XWF

>  <Rbt.Executable>
rbdock ($Id: //depot/dev/client3/rdock/2013.1/src/exe/rbdock.cxx#4 $)

>  <Rbt.Library>
libRbt.so (2013.1, Build901 2013/11/27)

>  <Rbt.Parameter_File>
/export/apps/rDock/src/rDock_2013.1_src/data/scripts/dock_solv.prm

>  <Rbt.Receptor>
prm/blind_docking_60.prm

>  <SCORE>
-7.85567

>  <SCORE.INTER>
-10.2495

>  <SCORE.INTER.CONST>
1

>  <SCORE.INTER.POLAR>
0

>  <SCORE.INTER.ROT>
5

>  <SCORE.INTER.SOLV>
13.7395

>  <SCORE.INTER.VDW>
-18.3462

>  <SCORE.INTER.norm>
-0.465887

>  <SCORE.INTRA>
2.39385

>  <SCORE.INTRA.DIHEDRAL>
3.16383

>  <SCORE.INTRA.DIHEDRAL.0>
3.49807

>  <SCORE.INTRA.POLAR>
0

>  <SCORE.INTRA.POLAR.0>
0

>  <SCORE.INTRA.REPUL>
0

>  <SCORE.INTRA.REPUL.0>
0

>  <SCORE.INTRA.SOLV>
2.05865

>  <SCORE.INTRA.SOLV.lig_0>
-73.062

>  <SCORE.INTRA.VDW>
-0.217397

>  <SCORE.INTRA.VDW.0>
-1.83782

>  <SCORE.INTRA.norm>
0.108811

>  <SCORE.RESTR>
0

>  <SCORE.RESTR.CAVITY>
0

>  <SCORE.RESTR.norm>
0

>  <SCORE.SYSTEM>
0

>  <SCORE.SYSTEM.CONST>
0

>  <SCORE.SYSTEM.DIHEDRAL>
0

>  <SCORE.SYSTEM.SOLV>
0

>  <SCORE.SYSTEM.norm>
0

>  <SCORE.heavy>
22

>  <SCORE.norm>
-0.357076

>  <RMSD>
13.241

$$$$
ligand
 OpenBabel11021811513D
libRbt.so/2013.1/901 2013/11/27
 22 23  0  0  0  0  0  0  0  0999 V2000
  -35.0861    7.8335  -20.4437 N   0  0  0  0  0  0  0  0  0  0  0  0
  -32.2848    6.3880  -19.2126 C   0  0  1  0  0  0  0  0  0  0  0  0
  -32.8535    7.3200  -20.1758 O   0  0  0  0  0  0  0  0  0  0  0  0
  -34.3897    3.7269  -20.8948 P   0  0  1  0  0  0  0  0  0  0  0  0
  -34.0139    7.9224  -19.5801 C   0  0  2  0  0  0  0  0  0  0  0  0
  -36.8154    7.0492  -21.4951 N   0  0  0  0  0  0  0  0  0  0  0  0
  -35.0775    7.7966  -17.4473 O   0  0  0  0  0  0  0  0  0  0  0  0
  -34.3354    7.0564  -18.4236 C   0  0  2  0  0  0  0  0  0  0  0  0
  -38.0387   10.2508  -22.5233 N   0  0  0  0  0  0  0  0  0  0  0  0
  -32.3609    7.6754  -17.2552 O   0  0  0  0  0  0  0  0  0  0  0  0
  -33.0291    6.6116  -17.9539 C   0  0  2  0  0  0  0  0  0  0  0  0
  -36.6200    8.3149  -21.8957 C   0  0  0  0  0  0  0  0  0  0  0  0
  -35.0072   10.1229  -21.3537 N   0  0  0  0  0  0  0  0  0  0  0  0
  -33.8394    4.9972  -20.1586 O   0  0  0  0  0  0  0  0  0  0  0  0
  -32.5119    5.0150  -19.7450 C   0  0  0  0  0  0  0  0  0  0  0  0
  -35.9362    3.9974  -20.9703 O   0  0  0  0  0  0  0  0  0  0  0  0
  -35.8571    6.7507  -20.5974 C   0  0  0  0  0  0  0  0  0  0  0  0
  -37.6078    8.5845  -24.0144 O   0  0  0  0  0  0  0  0  0  0  0  0
  -37.4385    9.0415  -22.8841 C   0  0  0  0  0  0  0  0  0  0  0  0
  -35.5346    8.8165  -21.2357 C   0  0  0  0  0  0  0  0  0  0  0  0
  -33.7197    3.5852  -22.2210 O   0  5  0  0  0  0  0  0  0  0  0  0
  -33.9529    2.4964  -20.2108 O   0  0  0  0  0  0  0  0  0  0  0  0
  1 17  1  0  0  0  0
  1 20  1  0  0  0  0
  2 15  1  6  0  0  0
  2  3  1  0  0  0  0
  2 11  1  0  0  0  0
  3  5  1  0  0  0  0
  4 16  1  6  0  0  0
  4 21  1  0  0  0  0
  4 22  2  0  0  0  0
  4 14  1  0  0  0  0
  5  1  1  6  0  0  0
  5  8  1  0  0  0  0
  6 17  2  0  0  0  0
  6 12  1  0  0  0  0
  8  7  1  1  0  0  0
  8 11  1  0  0  0  0
  9 19  1  0  0  0  0
 11 10  1  1  0  0  0
 12 20  2  0  0  0  0
 12 19  1  0  0  0  0
 13 20  1  0  0  0  0
 14 15  1  0  0  0  0
 18 19  2  0  0  0  0
M  CHG  1  21  -1
M  END
>  <CHROM.1>
81.30032932,-46.13235848,170.87234203,174.70050909,123.43839341,-34.76918555
6.63089807,-20.49035519,-2.59149934,0.84552084,-2.79378507

>  <Name>
ligand

>  <RI>
0

>  <Rbt.Current_Directory>
/home/itssahil/PROJECTS/Mol_Feturizer/New_Systems/rnas/4XWF

>  <Rbt.Executable>
rbdock ($Id: //depot/dev/client3/rdock/2013.1/src/exe/rbdock.cxx#4 $)

>  <Rbt.Library>
libRbt.so (2013.1, Build901 2013/11/27)

>  <Rbt.Parameter_File>
/export/apps/rDock/src/rDock_2013.1_src/data/scripts/dock_solv.prm

>  <Rbt.Receptor>
prm/blind_docking_80.prm

>  <SCORE>
-6.648

>  <SCORE.INTER>
-7.67857

>  <SCORE.INTER.CONST>
1

>  <SCORE.INTER.POLAR>
0

>  <SCORE.INTER.ROT>
5

>  <SCORE.INTER.SOLV>
12.3397

>  <SCORE.INTER.VDW>
-16.1656

>  <SCORE.INTER.norm>
-0.349026

>  <SCORE.INTRA>
1.03057

>  <SCORE.INTRA.DIHEDRAL>
-0.943849

>  <SCORE.INTRA.DIHEDRAL.0>
3.49807

>  <SCORE.INTRA.POLAR>
0

>  <SCORE.INTRA.POLAR.0>
0

>  <SCORE.INTRA.REPUL>
0

>  <SCORE.INTRA.REPUL.0>
0

>  <SCORE.INTRA.SOLV>
0.572145

>  <SCORE.INTRA.SOLV.lig_0>
-73.062

>  <SCORE.INTRA.VDW>
1.21642

>  <SCORE.INTRA.VDW.0>
-1.83782

>  <SCORE.INTRA.norm>
0.0468442

>  <SCORE.RESTR>
0

>  <SCORE.RESTR.CAVITY>
0

>  <SCORE.RESTR.norm>
0

>  <SCORE.SYSTEM>
0

>  <SCORE.SYSTEM.CONST>
0

>  <SCORE.SYSTEM.DIHEDRAL>
0

>  <SCORE.SYSTEM.SOLV>
0

>  <SCORE.SYSTEM.norm>
0

>  <SCORE.heavy>
22

>  <SCORE.norm>
-0.302182

>  <RMSD>
13.265

$$$$
ligand
 OpenBabel11021811513D
libRbt.so/2013.1/901 2013/11/27
 22 23  0  0  0  0  0  0  0  0999 V2000
  -33.1785    3.9043  -19.2077 N   0  0  0  0  0  0  0  0  0  0  0  0
  -34.8535    3.1021  -22.0368 C   0  0  1  0  0  0  0  0  0  0  0  0
  -33.6267    3.6257  -21.4530 O   0  0  0  0  0  0  0  0  0  0  0  0
  -38.0301    4.8177  -23.1876 P   0  0  1  0  0  0  0  0  0  0  0  0
  -33.4180    2.9684  -20.1926 C   0  0  2  0  0  0  0  0  0  0  0  0
  -32.5890    4.7870  -17.3144 N   0  0  0  0  0  0  0  0  0  0  0  0
  -34.5347    1.2418  -18.9811 O   0  0  0  0  0  0  0  0  0  0  0  0
  -34.7229    2.3479  -19.8714 C   0  0  2  0  0  0  0  0  0  0  0  0
  -34.1600    7.9342  -17.9037 N   0  0  0  0  0  0  0  0  0  0  0  0
  -34.5701    0.8041  -21.6716 O   0  0  0  0  0  0  0  0  0  0  0  0
  -35.2526    1.9678  -21.1753 C   0  0  2  0  0  0  0  0  0  0  0  0
  -32.9580    5.7771  -18.1415 C   0  0  0  0  0  0  0  0  0  0  0  0
  -33.7604    5.9300  -20.4859 N   0  0  0  0  0  0  0  0  0  0  0  0
  -36.8112    3.8597  -22.9530 O   0  0  0  0  0  0  0  0  0  0  0  0
  -35.8606    4.1994  -21.9966 C   0  0  0  0  0  0  0  0  0  0  0  0
  -37.3466    6.1946  -23.5153 O   0  0  0  0  0  0  0  0  0  0  0  0
  -32.7328    3.6237  -17.9776 C   0  0  0  0  0  0  0  0  0  0  0  0
  -31.9278    7.7862  -17.4783 O   0  0  0  0  0  0  0  0  0  0  0  0
  -32.9651    7.2150  -17.8140 C   0  0  0  0  0  0  0  0  0  0  0  0
  -33.3276    5.2294  -19.3368 C   0  0  0  0  0  0  0  0  0  0  0  0
  -38.8908    4.2771  -24.2808 O   0  5  0  0  0  0  0  0  0  0  0  0
  -38.9533    4.7794  -22.0392 O   0  0  0  0  0  0  0  0  0  0  0  0
  1 17  1  0  0  0  0
  1 20  1  0  0  0  0
  2 15  1  1  0  0  0
  2  3  1  0  0  0  0
  2 11  1  0  0  0  0
  3  5  1  0  0  0  0
  4 16  1  6  0  0  0
  4 21  1  0  0  0  0
  4 22  2  0  0  0  0
  4 14  1  0  0  0  0
  5  1  1  1  0  0  0
  5  8  1  0  0  0  0
  6 17  2  0  0  0  0
  6 12  1  0  0  0  0
  8  7  1  1  0  0  0
  8 11  1  0  0  0  0
  9 19  1  0  0  0  0
 11 10  1  6  0  0  0
 12 20  2  0  0  0  0
 12 19  1  0  0  0  0
 13 20  1  0  0  0  0
 14 15  1  0  0  0  0
 18 19  2  0  0  0  0
M  CHG  1  21  -1
M  END
>  <CHROM.1>
-168.51449619,159.23069529,55.78735135,-179.54135752,-121.30596774,-35.01513381
4.38330958,-20.65392708,-0.34969012,0.75594668,-2.91924867

>  <Name>
ligand

>  <RI>
0

>  <Rbt.Current_Directory>
/home/itssahil/PROJECTS/Mol_Feturizer/New_Systems/rnas/4XWF

>  <Rbt.Executable>
rbdock ($Id: //depot/dev/client3/rdock/2013.1/src/exe/rbdock.cxx#4 $)

>  <Rbt.Library>
libRbt.so (2013.1, Build901 2013/11/27)

>  <Rbt.Parameter_File>
/export/apps/rDock/src/rDock_2013.1_src/data/scripts/dock_solv.prm

>  <Rbt.Receptor>
prm/blind_docking_100.prm

>  <SCORE>
-9.50618

>  <SCORE.INTER>
-11.0889

>  <SCORE.INTER.CONST>
1

>  <SCORE.INTER.POLAR>
0

>  <SCORE.INTER.ROT>
5

>  <SCORE.INTER.SOLV>
13.9164

>  <SCORE.INTER.VDW>
-18.9647

>  <SCORE.INTER.norm>
-0.504042

>  <SCORE.INTRA>
1.58273

>  <SCORE.INTRA.DIHEDRAL>
-0.549911

>  <SCORE.INTRA.DIHEDRAL.0>
3.49807

>  <SCORE.INTRA.POLAR>
0

>  <SCORE.INTRA.POLAR.0>
0

>  <SCORE.INTRA.REPUL>
0

>  <SCORE.INTRA.REPUL.0>
0

>  <SCORE.INTRA.SOLV>
3.07206

>  <SCORE.INTRA.SOLV.lig_0>
-73.062

>  <SCORE.INTRA.VDW>
0.321656

>  <SCORE.INTRA.VDW.0>
-1.83782

>  <SCORE.INTRA.norm>
0.0719423

>  <SCORE.RESTR>
0

>  <SCORE.RESTR.CAVITY>
0

>  <SCORE.RESTR.norm>
0

>  <SCORE.SYSTEM>
0

>  <SCORE.SYSTEM.CONST>
0

>  <SCORE.SYSTEM.DIHEDRAL>
0

>  <SCORE.SYSTEM.SOLV>
0

>  <SCORE.SYSTEM.norm>
0

>  <SCORE.heavy>
22

>  <SCORE.norm>
-0.432099

>  <RMSD>
13.274

$$$$
ligand
 OpenBabel11021811513D
libRbt.so/2013.1/901 2013/11/27
 22 23  0  0  0  0  0  0  0  0999 V2000
  -36.3909   -1.1256  -18.3302 N   0  0  0  0  0  0  0  0  0  0  0  0
  -35.5042    1.4968  -20.2768 C   0  0  1  0  0  0  0  0  0  0  0  0
  -36.0301    1.0538  -18.9934 O   0  0  0  0  0  0  0  0  0  0  0  0
  -36.8869    3.8829  -21.8153 P   0  0  1  0  0  0  0  0  0  0  0  0
  -35.4204   -0.2075  -18.6743 C   0  0  2  0  0  0  0  0  0  0  0  0
  -38.2738   -2.2046  -18.2898 N   0  0  0  0  0  0  0  0  0  0  0  0
  -33.7627   -1.5896  -19.6930 O   0  0  0  0  0  0  0  0  0  0  0  0
  -34.8353   -0.6759  -19.9506 C   0  0  2  0  0  0  0  0  0  0  0  0
  -36.9922   -5.1698  -16.8166 N   0  0  0  0  0  0  0  0  0  0  0  0
  -33.2182    1.0650  -19.9896 O   0  0  0  0  0  0  0  0  0  0  0  0
  -34.4121    0.5551  -20.6068 C   0  0  2  0  0  0  0  0  0  0  0  0
  -37.4263   -2.8090  -17.4430 C   0  0  0  0  0  0  0  0  0  0  0  0
  -35.0724   -2.4631  -16.7338 N   0  0  0  0  0  0  0  0  0  0  0  0
  -37.3549    2.5744  -21.0890 O   0  0  0  0  0  0  0  0  0  0  0  0
  -36.6190    1.4072  -21.2613 C   0  0  0  0  0  0  0  0  0  0  0  0
  -36.9430    3.4891  -23.3359 O   0  0  0  0  0  0  0  0  0  0  0  0
  -37.6297   -1.1551  -18.8351 C   0  0  0  0  0  0  0  0  0  0  0  0
  -38.6308   -3.9691  -15.7875 O   0  0  0  0  0  0  0  0  0  0  0  0
  -37.7286   -3.9977  -16.6244 C   0  0  0  0  0  0  0  0  0  0  0  0
  -36.2374   -2.1371  -17.4652 C   0  0  0  0  0  0  0  0  0  0  0  0
  -37.7810    5.0159  -21.4349 O   0  5  0  0  0  0  0  0  0  0  0  0
  -35.5899    4.3397  -21.2844 O   0  0  0  0  0  0  0  0  0  0  0  0
  1 17  1  0  0  0  0
  1 20  1  0  0  0  0
  2 15  1  6  0  0  0
  2  3  1  0  0  0  0
  2 11  1  0  0  0  0
  3  5  1  0  0  0  0
  4 16  1  6  0  0  0
  4 21  1  0  0  0  0
  4 22  2  0  0  0  0
  4 14  1  0  0  0  0
  5  1  1  6  0  0  0
  5  8  1  0  0  0  0
  6 17  2  0  0  0  0
  6 12  1  0  0  0  0
  8  7  1  1  0  0  0
  8 11  1  0  0  0  0
  9 19  1  0  0  0  0
 11 10  1  1  0  0  0
 12 20  2  0  0  0  0
 12 19  1  0  0  0  0
 13 20  1  0  0  0  0
 14 15  1  0  0  0  0
 18 19  2  0  0  0  0
M  CHG  1  21  -1
M  END
>  <CHROM.1>
32.23180045,82.36972613,60.28094911,83.51278032,118.44338869,-36.32153322
0.21883823,-19.51348595,-1.63002471,0.12768661,-0.58230426

>  <Name>
ligand

>  <RI>
0

>  <Rbt.Current_Directory>
/home/itssahil/PROJECTS/Mol_Feturizer/New_Systems/rnas/4XWF

>  <Rbt.Executable>
rbdock ($Id: //depot/dev/client3/rdock/2013.1/src/exe/rbdock.cxx#4 $)

>  <Rbt.Library>
libRbt.so (2013.1, Build901 2013/11/27)

>  <Rbt.Parameter_File>
/export/apps/rDock/src/rDock_2013.1_src/data/scripts/dock_solv.prm

>  <Rbt.Receptor>
prm/blind_docking_60.prm

>  <SCORE>
-9.58441

>  <SCORE.INTER>
-10.9824

>  <SCORE.INTER.CONST>
1

>  <SCORE.INTER.POLAR>
0

>  <SCORE.INTER.ROT>
5

>  <SCORE.INTER.SOLV>
14.5306

>  <SCORE.INTER.VDW>
-19.0985

>  <SCORE.INTER.norm>
-0.499199

>  <SCORE.INTRA>
1.39797

>  <SCORE.INTRA.DIHEDRAL>
1.98933

>  <SCORE.INTRA.DIHEDRAL.0>
3.49807

>  <SCORE.INTRA.POLAR>
0

>  <SCORE.INTRA.POLAR.0>
0

>  <SCORE.INTRA.REPUL>
0

>  <SCORE.INTRA.REPUL.0>
0

>  <SCORE.INTRA.SOLV>
1.80523

>  <SCORE.INTRA.SOLV.lig_0>
-73.062

>  <SCORE.INTRA.VDW>
-0.49931

>  <SCORE.INTRA.VDW.0>
-1.83782

>  <SCORE.INTRA.norm>
0.063544

>  <SCORE.RESTR>
0

>  <SCORE.RESTR.CAVITY>
0

>  <SCORE.RESTR.norm>
0

>  <SCORE.SYSTEM>
0

>  <SCORE.SYSTEM.CONST>
0

>  <SCORE.SYSTEM.DIHEDRAL>
0

>  <SCORE.SYSTEM.SOLV>
0

>  <SCORE.SYSTEM.norm>
0

>  <SCORE.heavy>
22

>  <SCORE.norm>
-0.435655

>  <RMSD>
13.283

$$$$
ligand
 OpenBabel11021811513D
libRbt.so/2013.1/901 2013/11/27
 22 23  0  0  0  0  0  0  0  0999 V2000
  -34.2712   -6.1895  -13.8027 N   0  0  0  0  0  0  0  0  0  0  0  0
  -35.5190   -4.4964  -16.4540 C   0  0  1  0  0  0  0  0  0  0  0  0
  -35.6074   -5.6815  -15.6128 O   0  0  0  0  0  0  0  0  0  0  0  0
  -32.9132   -3.2786  -18.9132 P   0  0  1  0  0  0  0  0  0  0  0  0
  -35.2215   -5.3104  -14.2795 C   0  0  2  0  0  0  0  0  0  0  0  0
  -32.7427   -7.0742  -12.5409 N   0  0  0  0  0  0  0  0  0  0  0  0
  -34.6012   -3.2717  -13.2048 O   0  0  0  0  0  0  0  0  0  0  0  0
  -34.5427   -4.0042  -14.4343 C   0  0  2  0  0  0  0  0  0  0  0  0
  -31.8063   -9.9116  -12.6607 N   0  0  0  0  0  0  0  0  0  0  0  0
  -36.5466   -2.9010  -15.0782 O   0  0  0  0  0  0  0  0  0  0  0  0
  -35.2650   -3.3695  -15.5301 C   0  0  2  0  0  0  0  0  0  0  0  0
  -33.0020   -7.9260  -13.5448 C   0  0  0  0  0  0  0  0  0  0  0  0
  -34.5386   -7.9621  -15.4945 N   0  0  0  0  0  0  0  0  0  0  0  0
  -34.1717   -3.4741  -17.9986 O   0  0  0  0  0  0  0  0  0  0  0  0
  -34.3763   -4.7061  -17.3870 C   0  0  0  0  0  0  0  0  0  0  0  0
  -31.7222   -3.2680  -17.8875 O   0  0  0  0  0  0  0  0  0  0  0  0
  -33.5285   -5.9932  -12.7071 C   0  0  0  0  0  0  0  0  0  0  0  0
  -32.2788   -9.7234  -14.8803 O   0  0  0  0  0  0  0  0  0  0  0  0
  -32.3537   -9.2340  -13.7534 C   0  0  0  0  0  0  0  0  0  0  0  0
  -33.9657   -7.3772  -14.3419 C   0  0  0  0  0  0  0  0  0  0  0  0
  -32.8513   -4.3753  -19.9237 O   0  5  0  0  0  0  0  0  0  0  0  0
  -33.0722   -2.0928  -19.7742 O   0  0  0  0  0  0  0  0  0  0  0  0
  1 17  1  0  0  0  0
  1 20  1  0  0  0  0
  2 15  1  6  0  0  0
  2  3  1  0  0  0  0
  2 11  1  0  0  0  0
  3  5  1  0  0  0  0
  4 16  1  1  0  0  0
  4 21  1  0  0  0  0
  4 22  2  0  0  0  0
  4 14  1  0  0  0  0
  5  1  1  6  0  0  0
  5  8  1  0  0  0  0
  6 17  2  0  0  0  0
  6 12  1  0  0  0  0
  8  7  1  1  0  0  0
  8 11  1  0  0  0  0
  9 19  1  0  0  0  0
 11 10  1  1  0  0  0
 12 20  2  0  0  0  0
 12 19  1  0  0  0  0
 13 20  1  0  0  0  0
 14 15  1  0  0  0  0
 18 19  2  0  0  0  0
M  CHG  1  21  -1
M  END
>  <CHROM.1>
167.10620053,-169.53511728,-70.77017971,172.01564662,25.12922395,-33.81048694
-5.31880894,-15.75524071,1.46602352,-0.88443214,2.27767063

>  <Name>
ligand

>  <RI>
0

>  <Rbt.Current_Directory>
/home/itssahil/PROJECTS/Mol_Feturizer/New_Systems/rnas/4XWF

>  <Rbt.Executable>
rbdock ($Id: //depot/dev/client3/rdock/2013.1/src/exe/rbdock.cxx#4 $)

>  <Rbt.Library>
libRbt.so (2013.1, Build901 2013/11/27)

>  <Rbt.Parameter_File>
/export/apps/rDock/src/rDock_2013.1_src/data/scripts/dock_solv.prm

>  <Rbt.Receptor>
prm/blind_docking_40.prm

>  <SCORE>
-5.2308

>  <SCORE.INTER>
-7.28255

>  <SCORE.INTER.CONST>
1

>  <SCORE.INTER.POLAR>
0

>  <SCORE.INTER.ROT>
5

>  <SCORE.INTER.SOLV>
16.2846

>  <SCORE.INTER.VDW>
-17.2166

>  <SCORE.INTER.norm>
-0.331025

>  <SCORE.INTRA>
1.99505

>  <SCORE.INTRA.DIHEDRAL>
-0.438091

>  <SCORE.INTRA.DIHEDRAL.0>
3.49807

>  <SCORE.INTRA.POLAR>
0

>  <SCORE.INTRA.POLAR.0>
0

>  <SCORE.INTRA.REPUL>
0

>  <SCORE.INTRA.REPUL.0>
0

>  <SCORE.INTRA.SOLV>
1.8628

>  <SCORE.INTRA.SOLV.lig_0>
-73.062

>  <SCORE.INTRA.VDW>
1.2827

>  <SCORE.INTRA.VDW.0>
-1.83782

>  <SCORE.INTRA.norm>
0.0906843

>  <SCORE.RESTR>
0.0567

>  <SCORE.RESTR.CAVITY>
0.0567

>  <SCORE.RESTR.norm>
0.00257727

>  <SCORE.SYSTEM>
0

>  <SCORE.SYSTEM.CONST>
0

>  <SCORE.SYSTEM.DIHEDRAL>
0

>  <SCORE.SYSTEM.SOLV>
0

>  <SCORE.SYSTEM.norm>
0

>  <SCORE.heavy>
22

>  <SCORE.norm>
-0.237763

>  <RMSD>
13.287

$$$$
ligand
 OpenBabel11021811513D
libRbt.so/2013.1/901 2013/11/27
 22 23  0  0  0  0  0  0  0  0999 V2000
  -34.0796    5.1207  -21.1695 N   0  0  0  0  0  0  0  0  0  0  0  0
  -34.6046    1.9119  -20.2310 C   0  0  1  0  0  0  0  0  0  0  0  0
  -34.5049    2.8596  -21.3319 O   0  0  0  0  0  0  0  0  0  0  0  0
  -36.1462   -0.3319  -18.8574 P   0  0  1  0  0  0  0  0  0  0  0  0
  -33.5452    3.8649  -20.9679 C   0  0  2  0  0  0  0  0  0  0  0  0
  -34.2291    7.2703  -21.4300 N   0  0  0  0  0  0  0  0  0  0  0  0
  -32.1034    4.2286  -19.1010 O   0  0  0  0  0  0  0  0  0  0  0  0
  -33.3768    3.7120  -19.5053 C   0  0  2  0  0  0  0  0  0  0  0  0
  -37.8160    7.3042  -21.0735 N   0  0  0  0  0  0  0  0  0  0  0  0
  -32.3395    1.5851  -19.7238 O   0  0  0  0  0  0  0  0  0  0  0  0
  -33.5226    2.2775  -19.2909 C   0  0  2  0  0  0  0  0  0  0  0  0
  -35.4538    6.7435  -21.5830 C   0  0  0  0  0  0  0  0  0  0  0  0
  -36.4271    4.4603  -21.5283 N   0  0  0  0  0  0  0  0  0  0  0  0
  -35.9916    1.1987  -18.5536 O   0  0  0  0  0  0  0  0  0  0  0  0
  -35.9488    2.0960  -19.6151 C   0  0  0  0  0  0  0  0  0  0  0  0
  -37.3558   -0.3785  -19.8599 O   0  0  0  0  0  0  0  0  0  0  0  0
  -33.3782    6.2602  -21.1671 C   0  0  0  0  0  0  0  0  0  0  0  0
  -36.7310    8.2865  -22.8181 O   0  0  0  0  0  0  0  0  0  0  0  0
  -36.6863    7.4995  -21.8726 C   0  0  0  0  0  0  0  0  0  0  0  0
  -35.3672    5.3899  -21.4234 C   0  0  0  0  0  0  0  0  0  0  0  0
  -34.8654   -0.8670  -19.4059 O   0  5  0  0  0  0  0  0  0  0  0  0
  -36.2763   -1.1020  -17.6073 O   0  0  0  0  0  0  0  0  0  0  0  0
  1 17  1  0  0  0  0
  1 20  1  0  0  0  0
  2 15  1  1  0  0  0
  2  3  1  0  0  0  0
  2 11  1  0  0  0  0
  3  5  1  0  0  0  0
  4 16  1  6  0  0  0
  4 21  1  0  0  0  0
  4 22  2  0  0  0  0
  4 14  1  0  0  0  0
  5  1  1  1  0  0  0
  5  8  1  0  0  0  0
  6 17  2  0  0  0  0
  6 12  1  0  0  0  0
  8  7  1  6  0  0  0
  8 11  1  0  0  0  0
  9 19  1  0  0  0  0
 11 10  1  6  0  0  0
 12 20  2  0  0  0  0
 12 19  1  0  0  0  0
 13 20  1  0  0  0  0
 14 15  1  0  0  0  0
 18 19  2  0  0  0  0
M  CHG  1  21  -1
M  END
>  <CHROM.1>
-167.01208084,-178.65858676,-49.33244515,-73.49890176,-128.52811492,-35.10153382
3.26486872,-20.24014853,-1.56283113,0.12072057,2.76741182

>  <Name>
ligand

>  <RI>
0

>  <Rbt.Current_Directory>
/home/itssahil/PROJECTS/Mol_Feturizer/New_Systems/rnas/4XWF

>  <Rbt.Executable>
rbdock ($Id: //depot/dev/client3/rdock/2013.1/src/exe/rbdock.cxx#4 $)

>  <Rbt.Library>
libRbt.so (2013.1, Build901 2013/11/27)

>  <Rbt.Parameter_File>
/export/apps/rDock/src/rDock_2013.1_src/data/scripts/dock_solv.prm

>  <Rbt.Receptor>
prm/blind_docking_80.prm

>  <SCORE>
-5.33643

>  <SCORE.INTER>
-8.56446

>  <SCORE.INTER.CONST>
1

>  <SCORE.INTER.POLAR>
0

>  <SCORE.INTER.ROT>
5

>  <SCORE.INTER.SOLV>
12.7451

>  <SCORE.INTER.VDW>
-16.8913

>  <SCORE.INTER.norm>
-0.389294

>  <SCORE.INTRA>
3.22718

>  <SCORE.INTRA.DIHEDRAL>
-0.868094

>  <SCORE.INTRA.DIHEDRAL.0>
3.49807

>  <SCORE.INTRA.POLAR>
0

>  <SCORE.INTRA.POLAR.0>
0

>  <SCORE.INTRA.REPUL>
0

>  <SCORE.INTRA.REPUL.0>
0

>  <SCORE.INTRA.SOLV>
5.88431

>  <SCORE.INTRA.SOLV.lig_0>
-73.062

>  <SCORE.INTRA.VDW>
0.719076

>  <SCORE.INTRA.VDW.0>
-1.83782

>  <SCORE.INTRA.norm>
0.14669

>  <SCORE.RESTR>
0.000851824

>  <SCORE.RESTR.CAVITY>
0.000851824

>  <SCORE.RESTR.norm>
3.87193e-05

>  <SCORE.SYSTEM>
0

>  <SCORE.SYSTEM.CONST>
0

>  <SCORE.SYSTEM.DIHEDRAL>
0

>  <SCORE.SYSTEM.SOLV>
0

>  <SCORE.SYSTEM.norm>
0

>  <SCORE.heavy>
22

>  <SCORE.norm>
-0.242565

>  <RMSD>
13.310

$$$$
ligand
 OpenBabel11021811513D
libRbt.so/2013.1/901 2013/11/27
 22 23  0  0  0  0  0  0  0  0999 V2000
  -33.9390    6.6720  -20.9320 N   0  0  0  0  0  0  0  0  0  0  0  0
  -33.4478    3.3243  -20.9987 C   0  0  1  0  0  0  0  0  0  0  0  0
  -33.4611    4.5700  -21.7524 O   0  0  0  0  0  0  0  0  0  0  0  0
  -36.1421    0.8880  -19.9200 P   0  0  1  0  0  0  0  0  0  0  0  0
  -33.0412    5.6262  -20.8734 C   0  0  2  0  0  0  0  0  0  0  0  0
  -35.8099    7.7685  -21.0237 N   0  0  0  0  0  0  0  0  0  0  0  0
  -32.2828    5.7437  -18.6136 O   0  0  0  0  0  0  0  0  0  0  0  0
  -33.1560    5.0520  -19.5140 C   0  0  2  0  0  0  0  0  0  0  0  0
  -34.4426   10.8512  -19.8421 N   0  0  0  0  0  0  0  0  0  0  0  0
  -31.3923    3.5035  -19.8864 O   0  0  0  0  0  0  0  0  0  0  0  0
  -32.8107    3.6485  -19.7036 C   0  0  2  0  0  0  0  0  0  0  0  0
  -34.8075    8.6566  -20.9396 C   0  0  0  0  0  0  0  0  0  0  0  0
  -32.3343    8.5351  -20.7602 N   0  0  0  0  0  0  0  0  0  0  0  0
  -34.8059    1.6462  -20.2335 O   0  0  0  0  0  0  0  0  0  0  0  0
  -34.8666    2.9056  -20.8199 C   0  0  0  0  0  0  0  0  0  0  0  0
  -36.8968    0.9055  -21.2986 O   0  0  0  0  0  0  0  0  0  0  0  0
  -35.2669    6.5361  -21.0249 C   0  0  0  0  0  0  0  0  0  0  0  0
  -35.5399   10.7070  -21.8323 O   0  0  0  0  0  0  0  0  0  0  0  0
  -34.9562   10.1236  -20.9190 C   0  0  0  0  0  0  0  0  0  0  0  0
  -33.6263    7.9736  -20.8784 C   0  0  0  0  0  0  0  0  0  0  0  0
  -35.8351   -0.4764  -19.3985 O   0  5  0  0  0  0  0  0  0  0  0  0
  -36.8299    1.4965  -18.7669 O   0  0  0  0  0  0  0  0  0  0  0  0
  1 17  1  0  0  0  0
  1 20  1  0  0  0  0
  2 15  1  1  0  0  0
  2  3  1  0  0  0  0
  2 11  1  0  0  0  0
  3  5  1  0  0  0  0
  4 16  1  6  0  0  0
  4 21  1  0  0  0  0
  4 22  2  0  0  0  0
  4 14  1  0  0  0  0
  5  1  1  1  0  0  0
  5  8  1  0  0  0  0
  6 17  2  0  0  0  0
  6 12  1  0  0  0  0
  8  7  1  1  0  0  0
  8 11  1  0  0  0  0
  9 19  1  0  0  0  0
 11 10  1  6  0  0  0
 12 20  2  0  0  0  0
 12 19  1  0  0  0  0
 13 20  1  0  0  0  0
 14 15  1  0  0  0  0
 18 19  2  0  0  0  0
M  CHG  1  21  -1
M  END
>  <CHROM.1>
38.66243971,173.48743621,53.05440263,-179.08673842,122.54244375,-34.46282693
4.92559412,-20.40327608,-1.40983328,0.17210550,3.00911688

>  <Name>
ligand

>  <RI>
0

>  <Rbt.Current_Directory>
/home/itssahil/PROJECTS/Mol_Feturizer/New_Systems/rnas/4XWF

>  <Rbt.Executable>
rbdock ($Id: //depot/dev/client3/rdock/2013.1/src/exe/rbdock.cxx#4 $)

>  <Rbt.Library>
libRbt.so (2013.1, Build901 2013/11/27)

>  <Rbt.Parameter_File>
/export/apps/rDock/src/rDock_2013.1_src/data/scripts/dock_solv.prm

>  <Rbt.Receptor>
prm/blind_docking_100.prm

>  <SCORE>
-9.87711

>  <SCORE.INTER>
-8.74196

>  <SCORE.INTER.CONST>
1

>  <SCORE.INTER.POLAR>
0

>  <SCORE.INTER.ROT>
5

>  <SCORE.INTER.SOLV>
11.9005

>  <SCORE.INTER.VDW>
-16.7281

>  <SCORE.INTER.norm>
-0.397362

>  <SCORE.INTRA>
-1.13515

>  <SCORE.INTRA.DIHEDRAL>
-1.75618

>  <SCORE.INTRA.DIHEDRAL.0>
3.49807

>  <SCORE.INTRA.POLAR>
0

>  <SCORE.INTRA.POLAR.0>
0

>  <SCORE.INTRA.REPUL>
0

>  <SCORE.INTRA.REPUL.0>
0

>  <SCORE.INTRA.SOLV>
-0.246773

>  <SCORE.INTRA.SOLV.lig_0>
-73.062

>  <SCORE.INTRA.VDW>
-0.133679

>  <SCORE.INTRA.VDW.0>
-1.83782

>  <SCORE.INTRA.norm>
-0.0515979

>  <SCORE.RESTR>
0

>  <SCORE.RESTR.CAVITY>
0

>  <SCORE.RESTR.norm>
0

>  <SCORE.SYSTEM>
0

>  <SCORE.SYSTEM.CONST>
0

>  <SCORE.SYSTEM.DIHEDRAL>
0

>  <SCORE.SYSTEM.SOLV>
0

>  <SCORE.SYSTEM.norm>
0

>  <SCORE.heavy>
22

>  <SCORE.norm>
-0.44896

>  <RMSD>
13.314

$$$$
ligand
 OpenBabel11021811513D
libRbt.so/2013.1/901 2013/11/27
 22 23  0  0  0  0  0  0  0  0999 V2000
  -37.0844   -2.8211  -18.0858 N   0  0  0  0  0  0  0  0  0  0  0  0
  -37.1637    0.4756  -18.8459 C   0  0  1  0  0  0  0  0  0  0  0  0
  -37.6809   -0.8547  -19.1333 O   0  0  0  0  0  0  0  0  0  0  0  0
  -34.2239    2.4071  -20.2498 P   0  0  1  0  0  0  0  0  0  0  0  0
  -37.6996   -1.5997  -17.9049 C   0  0  2  0  0  0  0  0  0  0  0  0
  -35.6629   -4.3273  -18.7354 N   0  0  0  0  0  0  0  0  0  0  0  0
  -37.1868   -1.1138  -15.6252 O   0  0  0  0  0  0  0  0  0  0  0  0
  -36.8350   -0.8281  -16.9840 C   0  0  2  0  0  0  0  0  0  0  0  0
  -36.2495   -6.7525  -16.3090 N   0  0  0  0  0  0  0  0  0  0  0  0
  -38.3521    0.9988  -16.8943 O   0  0  0  0  0  0  0  0  0  0  0  0
  -37.0701    0.5573  -17.3718 C   0  0  2  0  0  0  0  0  0  0  0  0
  -36.5754   -4.9225  -17.9519 C   0  0  0  0  0  0  0  0  0  0  0  0
  -38.5764   -4.1886  -16.6788 N   0  0  0  0  0  0  0  0  0  0  0  0
  -35.5295    1.9300  -19.5243 O   0  0  0  0  0  0  0  0  0  0  0  0
  -35.8209    0.5709  -19.4846 C   0  0  0  0  0  0  0  0  0  0  0  0
  -34.3338    1.7340  -21.6659 O   0  0  0  0  0  0  0  0  0  0  0  0
  -35.9852   -3.0226  -18.8218 C   0  0  0  0  0  0  0  0  0  0  0  0
  -36.9272   -7.1981  -18.4369 O   0  0  0  0  0  0  0  0  0  0  0  0
  -36.6059   -6.3543  -17.6003 C   0  0  0  0  0  0  0  0  0  0  0  0
  -37.4721   -3.9798  -17.5365 C   0  0  0  0  0  0  0  0  0  0  0  0
  -34.1792    3.8988  -20.2742 O   0  5  0  0  0  0  0  0  0  0  0  0
  -33.0320    2.0895  -19.4428 O   0  0  0  0  0  0  0  0  0  0  0  0
  1 17  1  0  0  0  0
  1 20  1  0  0  0  0
  2 15  1  6  0  0  0
  2  3  1  0  0  0  0
  2 11  1  0  0  0  0
  3  5  1  0  0  0  0
  4 16  1  6  0  0  0
  4 21  1  0  0  0  0
  4 22  2  0  0  0  0
  4 14  1  0  0  0  0
  5  1  1  6  0  0  0
  5  8  1  0  0  0  0
  6 17  2  0  0  0  0
  6 12  1  0  0  0  0
  8  7  1  1  0  0  0
  8 11  1  0  0  0  0
  9 19  1  0  0  0  0
 11 10  1  1  0  0  0
 12 20  2  0  0  0  0
 12 19  1  0  0  0  0
 13 20  1  0  0  0  0
 14 15  1  0  0  0  0
 18 19  2  0  0  0  0
M  CHG  1  21  -1
M  END
>  <CHROM.1>
39.15840332,163.56753397,52.50354419,-174.99945639,106.88707756,-36.22433319
-1.16899201,-18.48325843,1.96290159,-0.75551466,3.10212825

>  <Name>
ligand

>  <RI>
0

>  <Rbt.Current_Directory>
/home/itssahil/PROJECTS/Mol_Feturizer/New_Systems/rnas/4XWF

>  <Rbt.Executable>
rbdock ($Id: //depot/dev/client3/rdock/2013.1/src/exe/rbdock.cxx#4 $)

>  <Rbt.Library>
libRbt.so (2013.1, Build901 2013/11/27)

>  <Rbt.Parameter_File>
/export/apps/rDock/src/rDock_2013.1_src/data/scripts/dock_solv.prm

>  <Rbt.Receptor>
prm/blind_docking_100.prm

>  <SCORE>
-10.6757

>  <SCORE.INTER>
-9.89439

>  <SCORE.INTER.CONST>
1

>  <SCORE.INTER.POLAR>
0

>  <SCORE.INTER.ROT>
5

>  <SCORE.INTER.SOLV>
23.5999

>  <SCORE.INTER.VDW>
-21.3962

>  <SCORE.INTER.norm>
-0.449745

>  <SCORE.INTRA>
-0.781362

>  <SCORE.INTRA.DIHEDRAL>
-0.721835

>  <SCORE.INTRA.DIHEDRAL.0>
3.49807

>  <SCORE.INTRA.POLAR>
0

>  <SCORE.INTRA.POLAR.0>
0

>  <SCORE.INTRA.REPUL>
0

>  <SCORE.INTRA.REPUL.0>
0

>  <SCORE.INTRA.SOLV>
-0.453828

>  <SCORE.INTRA.SOLV.lig_0>
-73.062

>  <SCORE.INTRA.VDW>
-0.19353

>  <SCORE.INTRA.VDW.0>
-1.83782

>  <SCORE.INTRA.norm>
-0.0355165

>  <SCORE.RESTR>
0

>  <SCORE.RESTR.CAVITY>
0

>  <SCORE.RESTR.norm>
0

>  <SCORE.SYSTEM>
0

>  <SCORE.SYSTEM.CONST>
0

>  <SCORE.SYSTEM.DIHEDRAL>
0

>  <SCORE.SYSTEM.SOLV>
0

>  <SCORE.SYSTEM.norm>
0

>  <SCORE.heavy>
22

>  <SCORE.norm>
-0.485261

>  <RMSD>
13.317

$$$$
ligand
 OpenBabel11021811513D
libRbt.so/2013.1/901 2013/11/27
 22 23  0  0  0  0  0  0  0  0999 V2000
  -35.9304    5.7752  -21.3543 N   0  0  0  0  0  0  0  0  0  0  0  0
  -33.3554    7.0613  -19.5743 C   0  0  1  0  0  0  0  0  0  0  0  0
  -34.7857    6.7946  -19.6308 O   0  0  0  0  0  0  0  0  0  0  0  0
  -33.8285   10.7037  -20.4997 P   0  0  1  0  0  0  0  0  0  0  0  0
  -34.9826    5.5791  -20.3712 C   0  0  2  0  0  0  0  0  0  0  0  0
  -37.2508    6.7647  -22.7644 N   0  0  0  0  0  0  0  0  0  0  0  0
  -33.5457    3.9607  -21.3771 O   0  0  0  0  0  0  0  0  0  0  0  0
  -33.6972    5.3513  -21.0688 C   0  0  2  0  0  0  0  0  0  0  0  0
  -37.7119    4.0620  -24.9663 N   0  0  0  0  0  0  0  0  0  0  0  0
  -32.5306    4.9329  -19.0412 O   0  0  0  0  0  0  0  0  0  0  0  0
  -32.7027    5.8556  -20.1299 C   0  0  2  0  0  0  0  0  0  0  0  0
  -37.3785    5.4393  -22.9300 C   0  0  0  0  0  0  0  0  0  0  0  0
  -36.3647    3.4141  -21.9130 N   0  0  0  0  0  0  0  0  0  0  0  0
  -33.7933    9.2974  -19.8070 O   0  0  0  0  0  0  0  0  0  0  0  0
  -33.0997    8.2602  -20.4211 C   0  0  0  0  0  0  0  0  0  0  0  0
  -32.3095   11.0162  -20.7553 O   0  0  0  0  0  0  0  0  0  0  0  0
  -36.3548    6.9706  -21.7804 C   0  0  0  0  0  0  0  0  0  0  0  0
  -39.4910    4.8550  -23.7865 O   0  0  0  0  0  0  0  0  0  0  0  0
  -38.2680    4.7744  -23.9003 C   0  0  0  0  0  0  0  0  0  0  0  0
  -36.5478    4.8094  -22.0477 C   0  0  0  0  0  0  0  0  0  0  0  0
  -34.6636   10.6344  -21.7349 O   0  5  0  0  0  0  0  0  0  0  0  0
  -34.5877   11.6687  -19.6842 O   0  0  0  0  0  0  0  0  0  0  0  0
  1 17  1  0  0  0  0
  1 20  1  0  0  0  0
  2 15  1  6  0  0  0
  2  3  1  0  0  0  0
  2 11  1  0  0  0  0
  3  5  1  0  0  0  0
  4 16  1  6  0  0  0
  4 21  1  0  0  0  0
  4 22  2  0  0  0  0
  4 14  1  0  0  0  0
  5  1  1  6  0  0  0
  5  8  1  0  0  0  0
  6 17  2  0  0  0  0
  6 12  1  0  0  0  0
  8  7  1  1  0  0  0
  8 11  1  0  0  0  0
  9 19  1  0  0  0  0
 11 10  1  1  0  0  0
 12 20  2  0  0  0  0
 12 19  1  0  0  0  0
 13 20  1  0  0  0  0
 14 15  1  0  0  0  0
 18 19  2  0  0  0  0
M  CHG  1  21  -1
M  END
>  <CHROM.1>
15.47360962,63.34505656,-52.66516238,-175.57321735,112.69319412,-35.01278746
7.02708511,-21.24994789,-2.26966811,-0.62774803,0.01191551

>  <Name>
ligand

>  <RI>
0

>  <Rbt.Current_Directory>
/home/itssahil/PROJECTS/Mol_Feturizer/New_Systems/rnas/4XWF

>  <Rbt.Executable>
rbdock ($Id: //depot/dev/client3/rdock/2013.1/src/exe/rbdock.cxx#4 $)

>  <Rbt.Library>
libRbt.so (2013.1, Build901 2013/11/27)

>  <Rbt.Parameter_File>
/export/apps/rDock/src/rDock_2013.1_src/data/scripts/dock_solv.prm

>  <Rbt.Receptor>
prm/blind_docking_100.prm

>  <SCORE>
-8.14799

>  <SCORE.INTER>
-7.32126

>  <SCORE.INTER.CONST>
1

>  <SCORE.INTER.POLAR>
0

>  <SCORE.INTER.ROT>
5

>  <SCORE.INTER.SOLV>
13.6967

>  <SCORE.INTER.VDW>
-16.3797

>  <SCORE.INTER.norm>
-0.332785

>  <SCORE.INTRA>
-0.82673

>  <SCORE.INTRA.DIHEDRAL>
-1.75403

>  <SCORE.INTRA.DIHEDRAL.0>
3.49807

>  <SCORE.INTRA.POLAR>
0

>  <SCORE.INTRA.POLAR.0>
0

>  <SCORE.INTRA.REPUL>
0

>  <SCORE.INTRA.REPUL.0>
0

>  <SCORE.INTRA.SOLV>
0.622791

>  <SCORE.INTRA.SOLV.lig_0>
-73.062

>  <SCORE.INTRA.VDW>
-0.261113

>  <SCORE.INTRA.VDW.0>
-1.83782

>  <SCORE.INTRA.norm>
-0.0375786

>  <SCORE.RESTR>
0

>  <SCORE.RESTR.CAVITY>
0

>  <SCORE.RESTR.norm>
0

>  <SCORE.SYSTEM>
0

>  <SCORE.SYSTEM.CONST>
0

>  <SCORE.SYSTEM.DIHEDRAL>
0

>  <SCORE.SYSTEM.SOLV>
0

>  <SCORE.SYSTEM.norm>
0

>  <SCORE.heavy>
22

>  <SCORE.norm>
-0.370363

>  <RMSD>
13.323

$$$$
ligand
 OpenBabel11021811513D
libRbt.so/2013.1/901 2013/11/27
 22 23  0  0  0  0  0  0  0  0999 V2000
  -37.1369   -2.8430  -18.0111 N   0  0  0  0  0  0  0  0  0  0  0  0
  -37.2050    0.4443  -18.8122 C   0  0  1  0  0  0  0  0  0  0  0  0
  -37.7447   -0.8839  -19.0659 O   0  0  0  0  0  0  0  0  0  0  0  0
  -34.2510    2.3208  -20.2636 P   0  0  1  0  0  0  0  0  0  0  0  0
  -37.7334   -1.6127  -17.8276 C   0  0  2  0  0  0  0  0  0  0  0  0
  -35.7253   -4.3661  -18.6424 N   0  0  0  0  0  0  0  0  0  0  0  0
  -37.1455   -1.1029  -15.5714 O   0  0  0  0  0  0  0  0  0  0  0  0
  -36.8328   -0.8388  -16.9441 C   0  0  2  0  0  0  0  0  0  0  0  0
  -37.8096   -7.1561  -18.0614 N   0  0  0  0  0  0  0  0  0  0  0  0
  -38.3270    1.0056  -16.8322 O   0  0  0  0  0  0  0  0  0  0  0  0
  -37.0651    0.5440  -17.3429 C   0  0  2  0  0  0  0  0  0  0  0  0
  -36.6742   -4.9564  -17.8995 C   0  0  0  0  0  0  0  0  0  0  0  0
  -38.7004   -4.2044  -16.6778 N   0  0  0  0  0  0  0  0  0  0  0  0
  -35.5667    1.8703  -19.5394 O   0  0  0  0  0  0  0  0  0  0  0  0
  -35.8816    0.5166  -19.4930 C   0  0  0  0  0  0  0  0  0  0  0  0
  -34.3731    1.6502  -21.6799 O   0  0  0  0  0  0  0  0  0  0  0  0
  -36.0187   -3.0538  -18.7152 C   0  0  0  0  0  0  0  0  0  0  0  0
  -35.8831   -6.9192  -16.8705 O   0  0  0  0  0  0  0  0  0  0  0  0
  -36.7443   -6.3932  -17.5753 C   0  0  0  0  0  0  0  0  0  0  0  0
  -37.5650   -4.0031  -17.4958 C   0  0  0  0  0  0  0  0  0  0  0  0
  -34.1759    3.8113  -20.2878 O   0  5  0  0  0  0  0  0  0  0  0  0
  -33.0666    1.9790  -19.4554 O   0  0  0  0  0  0  0  0  0  0  0  0
  1 17  1  0  0  0  0
  1 20  1  0  0  0  0
  2 15  1  6  0  0  0
  2  3  1  0  0  0  0
  2 11  1  0  0  0  0
  3  5  1  0  0  0  0
  4 16  1  6  0  0  0
  4 21  1  0  0  0  0
  4 22  2  0  0  0  0
  4 14  1  0  0  0  0
  5  1  1  6  0  0  0
  5  8  1  0  0  0  0
  6 17  2  0  0  0  0
  6 12  1  0  0  0  0
  8  7  1  1  0  0  0
  8 11  1  0  0  0  0
  9 19  1  0  0  0  0
 11 10  1  1  0  0  0
 12 20  2  0  0  0  0
 12 19  1  0  0  0  0
 13 20  1  0  0  0  0
 14 15  1  0  0  0  0
 18 19  2  0  0  0  0
M  CHG  1  21  -1
M  END
>  <CHROM.1>
43.21654055,164.54628637,52.89200254,-177.03812270,-115.06143678,-36.27634617
-1.21082149,-18.45462564,1.97202384,-0.73154208,3.09680971

>  <Name>
ligand

>  <RI>
0

>  <Rbt.Current_Directory>
/home/itssahil/PROJECTS/Mol_Feturizer/New_Systems/rnas/4XWF

>  <Rbt.Executable>
rbdock ($Id: //depot/dev/client3/rdock/2013.1/src/exe/rbdock.cxx#4 $)

>  <Rbt.Library>
libRbt.so (2013.1, Build901 2013/11/27)

>  <Rbt.Parameter_File>
/export/apps/rDock/src/rDock_2013.1_src/data/scripts/dock_solv.prm

>  <Rbt.Receptor>
prm/blind_docking_80.prm

>  <SCORE>
-11.0881

>  <SCORE.INTER>
-10.151

>  <SCORE.INTER.CONST>
1

>  <SCORE.INTER.POLAR>
0

>  <SCORE.INTER.ROT>
5

>  <SCORE.INTER.SOLV>
25.996

>  <SCORE.INTER.VDW>
-22.366

>  <SCORE.INTER.norm>
-0.461407

>  <SCORE.INTRA>
-0.937145

>  <SCORE.INTRA.DIHEDRAL>
-1.04565

>  <SCORE.INTRA.DIHEDRAL.0>
3.49807

>  <SCORE.INTRA.POLAR>
0

>  <SCORE.INTRA.POLAR.0>
0

>  <SCORE.INTRA.REPUL>
0

>  <SCORE.INTRA.REPUL.0>
0

>  <SCORE.INTRA.SOLV>
-0.501885

>  <SCORE.INTRA.SOLV.lig_0>
-73.062

>  <SCORE.INTRA.VDW>
-0.163379

>  <SCORE.INTRA.VDW.0>
-1.83782

>  <SCORE.INTRA.norm>
-0.0425975

>  <SCORE.RESTR>
0

>  <SCORE.RESTR.CAVITY>
0

>  <SCORE.RESTR.norm>
0

>  <SCORE.SYSTEM>
0

>  <SCORE.SYSTEM.CONST>
0

>  <SCORE.SYSTEM.DIHEDRAL>
0

>  <SCORE.SYSTEM.SOLV>
0

>  <SCORE.SYSTEM.norm>
0

>  <SCORE.heavy>
22

>  <SCORE.norm>
-0.504005

>  <RMSD>
13.358

$$$$
ligand
 OpenBabel11021811513D
libRbt.so/2013.1/901 2013/11/27
 22 23  0  0  0  0  0  0  0  0999 V2000
  -36.3053   -0.0476  -17.9594 N   0  0  0  0  0  0  0  0  0  0  0  0
  -36.0635    2.3047  -20.3802 C   0  0  1  0  0  0  0  0  0  0  0  0
  -35.9500    1.9993  -18.9612 O   0  0  0  0  0  0  0  0  0  0  0  0
  -37.5288    4.0488  -22.6607 P   0  0  1  0  0  0  0  0  0  0  0  0
  -35.4918    0.6436  -18.8332 C   0  0  2  0  0  0  0  0  0  0  0  0
  -37.9691   -0.5357  -16.6538 N   0  0  0  0  0  0  0  0  0  0  0  0
  -34.8279   -1.0676  -20.3587 O   0  0  0  0  0  0  0  0  0  0  0  0
  -35.7095    0.0454  -20.1694 C   0  0  2  0  0  0  0  0  0  0  0  0
  -38.5224   -3.6168  -16.2387 N   0  0  0  0  0  0  0  0  0  0  0  0
  -34.0518    1.4113  -21.1861 O   0  0  0  0  0  0  0  0  0  0  0  0
  -35.4621    1.1519  -21.0857 C   0  0  2  0  0  0  0  0  0  0  0  0
  -37.1556   -1.6013  -16.7120 C   0  0  0  0  0  0  0  0  0  0  0  0
  -35.0388   -2.1609  -17.8822 N   0  0  0  0  0  0  0  0  0  0  0  0
  -37.5877    2.5998  -22.0642 O   0  0  0  0  0  0  0  0  0  0  0  0
  -37.5161    2.4346  -20.6854 C   0  0  0  0  0  0  0  0  0  0  0  0
  -37.2593    3.7973  -24.1887 O   0  0  0  0  0  0  0  0  0  0  0  0
  -37.4351    0.4305  -17.4250 C   0  0  0  0  0  0  0  0  0  0  0  0
  -36.5209   -3.2912  -15.2025 O   0  0  0  0  0  0  0  0  0  0  0  0
  -37.3586   -2.8793  -16.0047 C   0  0  0  0  0  0  0  0  0  0  0  0
  -36.1072   -1.3027  -17.5347 C   0  0  0  0  0  0  0  0  0  0  0  0
  -38.8045    4.7655  -22.3659 O   0  5  0  0  0  0  0  0  0  0  0  0
  -36.5508    4.8750  -21.9304 O   0  0  0  0  0  0  0  0  0  0  0  0
  1 17  1  0  0  0  0
  1 20  1  0  0  0  0
  2 15  1  6  0  0  0
  2  3  1  0  0  0  0
  2 11  1  0  0  0  0
  3  5  1  0  0  0  0
  4 16  1  6  0  0  0
  4 21  1  0  0  0  0
  4 22  2  0  0  0  0
  4 14  1  0  0  0  0
  5  1  1  1  0  0  0
  5  8  1  0  0  0  0
  6 17  2  0  0  0  0
  6 12  1  0  0  0  0
  8  7  1  6  0  0  0
  8 11  1  0  0  0  0
  9 19  1  0  0  0  0
 11 10  1  1  0  0  0
 12 20  2  0  0  0  0
 12 19  1  0  0  0  0
 13 20  1  0  0  0  0
 14 15  1  0  0  0  0
 18 19  2  0  0  0  0
M  CHG  1  21  -1
M  END
>  <CHROM.1>
6.70167392,-174.57354205,165.78923829,-89.59274761,58.85600579,-36.64208206
0.91619811,-19.67317503,-1.51990786,0.41676582,-0.79157005

>  <Name>
ligand

>  <RI>
0

>  <Rbt.Current_Directory>
/home/itssahil/PROJECTS/Mol_Feturizer/New_Systems/rnas/4XWF

>  <Rbt.Executable>
rbdock ($Id: //depot/dev/client3/rdock/2013.1/src/exe/rbdock.cxx#4 $)

>  <Rbt.Library>
libRbt.so (2013.1, Build901 2013/11/27)

>  <Rbt.Parameter_File>
/export/apps/rDock/src/rDock_2013.1_src/data/scripts/dock_solv.prm

>  <Rbt.Receptor>
prm/blind_docking_80.prm

>  <SCORE>
-8.18255

>  <SCORE.INTER>
-11.8597

>  <SCORE.INTER.CONST>
1

>  <SCORE.INTER.POLAR>
0

>  <SCORE.INTER.ROT>
5

>  <SCORE.INTER.SOLV>
14.3028

>  <SCORE.INTER.VDW>
-19.6074

>  <SCORE.INTER.norm>
-0.539075

>  <SCORE.INTRA>
3.67711

>  <SCORE.INTRA.DIHEDRAL>
3.66174

>  <SCORE.INTRA.DIHEDRAL.0>
3.49807

>  <SCORE.INTRA.POLAR>
0

>  <SCORE.INTRA.POLAR.0>
0

>  <SCORE.INTRA.REPUL>
0

>  <SCORE.INTRA.REPUL.0>
0

>  <SCORE.INTRA.SOLV>
3.01307

>  <SCORE.INTRA.SOLV.lig_0>
-73.062

>  <SCORE.INTRA.VDW>
0.339704

>  <SCORE.INTRA.VDW.0>
-1.83782

>  <SCORE.INTRA.norm>
0.167141

>  <SCORE.RESTR>
0

>  <SCORE.RESTR.CAVITY>
0

>  <SCORE.RESTR.norm>
0

>  <SCORE.SYSTEM>
0

>  <SCORE.SYSTEM.CONST>
0

>  <SCORE.SYSTEM.DIHEDRAL>
0

>  <SCORE.SYSTEM.SOLV>
0

>  <SCORE.SYSTEM.norm>
0

>  <SCORE.heavy>
22

>  <SCORE.norm>
-0.371934

>  <RMSD>
13.377

$$$$
ligand
 OpenBabel11021811513D
libRbt.so/2013.1/901 2013/11/27
 22 23  0  0  0  0  0  0  0  0999 V2000
  -34.7622    8.0838  -20.5533 N   0  0  0  0  0  0  0  0  0  0  0  0
  -32.2472    6.2864  -19.1760 C   0  0  1  0  0  0  0  0  0  0  0  0
  -32.6240    7.3485  -20.0979 O   0  0  0  0  0  0  0  0  0  0  0  0
  -34.4298    3.9113  -21.1632 P   0  0  1  0  0  0  0  0  0  0  0  0
  -33.7939    7.9977  -19.5744 C   0  0  2  0  0  0  0  0  0  0  0  0
  -36.3214    7.5189  -21.9536 N   0  0  0  0  0  0  0  0  0  0  0  0
  -35.1047    7.7783  -17.5920 O   0  0  0  0  0  0  0  0  0  0  0  0
  -34.3157    7.0643  -18.5510 C   0  0  2  0  0  0  0  0  0  0  0  0
  -37.5986    9.2503  -24.0012 N   0  0  0  0  0  0  0  0  0  0  0  0
  -32.4472    7.3951  -17.1204 O   0  0  0  0  0  0  0  0  0  0  0  0
  -33.1125    6.4629  -17.9892 C   0  0  2  0  0  0  0  0  0  0  0  0
  -36.1611    8.8495  -22.0195 C   0  0  0  0  0  0  0  0  0  0  0  0
  -34.7254   10.5263  -20.8834 N   0  0  0  0  0  0  0  0  0  0  0  0
  -33.8293    5.0898  -20.3211 O   0  0  0  0  0  0  0  0  0  0  0  0
  -32.5198    4.9928  -19.8633 C   0  0  0  0  0  0  0  0  0  0  0  0
  -33.5162    3.8819  -22.4419 O   0  0  0  0  0  0  0  0  0  0  0  0
  -35.4465    7.0449  -21.0461 C   0  0  0  0  0  0  0  0  0  0  0  0
  -36.9290   10.9754  -22.6740 O   0  0  0  0  0  0  0  0  0  0  0  0
  -36.9132    9.7650  -22.8974 C   0  0  0  0  0  0  0  0  0  0  0  0
  -35.1830    9.2132  -21.1383 C   0  0  0  0  0  0  0  0  0  0  0  0
  -34.4082    2.6555  -20.3567 O   0  5  0  0  0  0  0  0  0  0  0  0
  -35.8763    4.1027  -21.3721 O   0  0  0  0  0  0  0  0  0  0  0  0
  1 17  1  0  0  0  0
  1 20  1  0  0  0  0
  2 15  1  6  0  0  0
  2  3  1  0  0  0  0
  2 11  1  0  0  0  0
  3  5  1  0  0  0  0
  4 16  1  6  0  0  0
  4 21  1  0  0  0  0
  4 22  2  0  0  0  0
  4 14  1  0  0  0  0
  5  1  1  6  0  0  0
  5  8  1  0  0  0  0
  6 17  2  0  0  0  0
  6 12  1  0  0  0  0
  8  7  1  1  0  0  0
  8 11  1  0  0  0  0
  9 19  1  0  0  0  0
 11 10  1  1  0  0  0
 12 20  2  0  0  0  0
 12 19  1  0  0  0  0
 13 20  1  0  0  0  0
 14 15  1  0  0  0  0
 18 19  2  0  0  0  0
M  CHG  1  21  -1
M  END
>  <CHROM.1>
70.00806081,-50.98209525,-62.61155258,177.07792500,-18.03876028,-34.60656763
6.85193412,-20.58711787,-2.42683224,0.93214502,-2.82296457

>  <Name>
ligand

>  <RI>
0

>  <Rbt.Current_Directory>
/home/itssahil/PROJECTS/Mol_Feturizer/New_Systems/rnas/4XWF

>  <Rbt.Executable>
rbdock ($Id: //depot/dev/client3/rdock/2013.1/src/exe/rbdock.cxx#4 $)

>  <Rbt.Library>
libRbt.so (2013.1, Build901 2013/11/27)

>  <Rbt.Parameter_File>
/export/apps/rDock/src/rDock_2013.1_src/data/scripts/dock_solv.prm

>  <Rbt.Receptor>
prm/blind_docking_100.prm

>  <SCORE>
-8.30998

>  <SCORE.INTER>
-9.06369

>  <SCORE.INTER.CONST>
1

>  <SCORE.INTER.POLAR>
0

>  <SCORE.INTER.ROT>
5

>  <SCORE.INTER.SOLV>
8.35685

>  <SCORE.INTER.VDW>
-15.7614

>  <SCORE.INTER.norm>
-0.411986

>  <SCORE.INTRA>
0.753709

>  <SCORE.INTRA.DIHEDRAL>
-1.26937

>  <SCORE.INTRA.DIHEDRAL.0>
3.49807

>  <SCORE.INTRA.POLAR>
0

>  <SCORE.INTRA.POLAR.0>
0

>  <SCORE.INTRA.REPUL>
0

>  <SCORE.INTRA.REPUL.0>
0

>  <SCORE.INTRA.SOLV>
0.690602

>  <SCORE.INTRA.SOLV.lig_0>
-73.062

>  <SCORE.INTRA.VDW>
1.04309

>  <SCORE.INTRA.VDW.0>
-1.83782

>  <SCORE.INTRA.norm>
0.0342595

>  <SCORE.RESTR>
0

>  <SCORE.RESTR.CAVITY>
0

>  <SCORE.RESTR.norm>
0

>  <SCORE.SYSTEM>
0

>  <SCORE.SYSTEM.CONST>
0

>  <SCORE.SYSTEM.DIHEDRAL>
0

>  <SCORE.SYSTEM.SOLV>
0

>  <SCORE.SYSTEM.norm>
0

>  <SCORE.heavy>
22

>  <SCORE.norm>
-0.377726

>  <RMSD>
13.391

$$$$
ligand
 OpenBabel11021811513D
libRbt.so/2013.1/901 2013/11/27
 22 23  0  0  0  0  0  0  0  0999 V2000
  -37.2178   -2.9135  -18.0277 N   0  0  0  0  0  0  0  0  0  0  0  0
  -37.1861    0.3829  -18.7927 C   0  0  1  0  0  0  0  0  0  0  0  0
  -37.7582   -0.9273  -19.0683 O   0  0  0  0  0  0  0  0  0  0  0  0
  -34.1864    2.2012  -20.2189 P   0  0  1  0  0  0  0  0  0  0  0  0
  -37.7832   -1.6695  -17.8383 C   0  0  2  0  0  0  0  0  0  0  0  0
  -35.8525   -4.4702  -18.6786 N   0  0  0  0  0  0  0  0  0  0  0  0
  -37.2120   -1.2004  -15.5690 O   0  0  0  0  0  0  0  0  0  0  0  0
  -36.8738   -0.9300  -16.9344 C   0  0  2  0  0  0  0  0  0  0  0  0
  -36.2403   -6.9591  -16.4519 N   0  0  0  0  0  0  0  0  0  0  0  0
  -38.3190    0.9531  -16.8215 O   0  0  0  0  0  0  0  0  0  0  0  0
  -37.0633    0.4629  -17.3207 C   0  0  2  0  0  0  0  0  0  0  0  0
  -36.8004   -5.0363  -17.9159 C   0  0  0  0  0  0  0  0  0  0  0  0
  -38.7863   -4.2347  -16.6602 N   0  0  0  0  0  0  0  0  0  0  0  0
  -35.4908    1.7693  -19.4635 O   0  0  0  0  0  0  0  0  0  0  0  0
  -35.8523    0.4265  -19.4553 C   0  0  0  0  0  0  0  0  0  0  0  0
  -34.4552    1.7341  -21.6954 O   0  0  0  0  0  0  0  0  0  0  0  0
  -36.1178   -3.1519  -18.7514 C   0  0  0  0  0  0  0  0  0  0  0  0
  -37.5356   -7.2377  -18.3040 O   0  0  0  0  0  0  0  0  0  0  0  0
  -36.8966   -6.4700  -17.5846 C   0  0  0  0  0  0  0  0  0  0  0  0
  -37.6621   -4.0618  -17.4998 C   0  0  0  0  0  0  0  0  0  0  0  0
  -33.9782    3.6709  -20.0618 O   0  5  0  0  0  0  0  0  0  0  0  0
  -32.9907    1.6606  -19.5476 O   0  0  0  0  0  0  0  0  0  0  0  0
  1 17  1  0  0  0  0
  1 20  1  0  0  0  0
  2 15  1  6  0  0  0
  2  3  1  0  0  0  0
  2 11  1  0  0  0  0
  3  5  1  0  0  0  0
  4 16  1  6  0  0  0
  4 21  1  0  0  0  0
  4 22  2  0  0  0  0
  4 14  1  0  0  0  0
  5  1  1  6  0  0  0
  5  8  1  0  0  0  0
  6 17  2  0  0  0  0
  6 12  1  0  0  0  0
  8  7  1  1  0  0  0
  8 11  1  0  0  0  0
  9 19  1  0  0  0  0
 11 10  1  1  0  0  0
 12 20  2  0  0  0  0
 12 19  1  0  0  0  0
 13 20  1  0  0  0  0
 14 15  1  0  0  0  0
 18 19  2  0  0  0  0
M  CHG  1  21  -1
M  END
>  <CHROM.1>
41.18794252,165.45332935,59.14342466,-174.14373363,89.14682934,-36.30567149
-1.29719229,-18.44234430,2.01149710,-0.75047337,3.13558731

>  <Name>
ligand

>  <RI>
0

>  <Rbt.Current_Directory>
/home/itssahil/PROJECTS/Mol_Feturizer/New_Systems/rnas/4XWF

>  <Rbt.Executable>
rbdock ($Id: //depot/dev/client3/rdock/2013.1/src/exe/rbdock.cxx#4 $)

>  <Rbt.Library>
libRbt.so (2013.1, Build901 2013/11/27)

>  <Rbt.Parameter_File>
/export/apps/rDock/src/rDock_2013.1_src/data/scripts/dock_solv.prm

>  <Rbt.Receptor>
prm/blind_docking_60.prm

>  <SCORE>
-10.6749

>  <SCORE.INTER>
-9.99133

>  <SCORE.INTER.CONST>
1

>  <SCORE.INTER.POLAR>
0

>  <SCORE.INTER.ROT>
5

>  <SCORE.INTER.SOLV>
26.4086

>  <SCORE.INTER.VDW>
-22.3971

>  <SCORE.INTER.norm>
-0.454151

>  <SCORE.INTRA>
-0.683529

>  <SCORE.INTRA.DIHEDRAL>
-0.303347

>  <SCORE.INTRA.DIHEDRAL.0>
3.49807

>  <SCORE.INTRA.POLAR>
0

>  <SCORE.INTRA.POLAR.0>
0

>  <SCORE.INTRA.REPUL>
0

>  <SCORE.INTRA.REPUL.0>
0

>  <SCORE.INTRA.SOLV>
-0.550151

>  <SCORE.INTRA.SOLV.lig_0>
-73.062

>  <SCORE.INTRA.VDW>
-0.25678

>  <SCORE.INTRA.VDW.0>
-1.83782

>  <SCORE.INTRA.norm>
-0.0310695

>  <SCORE.RESTR>
0

>  <SCORE.RESTR.CAVITY>
0

>  <SCORE.RESTR.norm>
0

>  <SCORE.SYSTEM>
0

>  <SCORE.SYSTEM.CONST>
0

>  <SCORE.SYSTEM.DIHEDRAL>
0

>  <SCORE.SYSTEM.SOLV>
0

>  <SCORE.SYSTEM.norm>
0

>  <SCORE.heavy>
22

>  <SCORE.norm>
-0.485221

>  <RMSD>
13.391

$$$$
ligand
 OpenBabel11021811513D
libRbt.so/2013.1/901 2013/11/27
 22 23  0  0  0  0  0  0  0  0999 V2000
  -33.2810   -3.6113  -17.5149 N   0  0  0  0  0  0  0  0  0  0  0  0
  -34.5651   -3.7892  -14.3888 C   0  0  1  0  0  0  0  0  0  0  0  0
  -33.4171   -3.4510  -15.2180 O   0  0  0  0  0  0  0  0  0  0  0  0
  -33.3238   -7.0719  -12.9721 P   0  0  1  0  0  0  0  0  0  0  0  0
  -33.9065   -2.9555  -16.4747 C   0  0  2  0  0  0  0  0  0  0  0  0
  -31.8583   -4.0820  -19.0851 N   0  0  0  0  0  0  0  0  0  0  0  0
  -36.0645   -2.5084  -17.3907 O   0  0  0  0  0  0  0  0  0  0  0  0
  -35.3273   -3.3685  -16.5140 C   0  0  2  0  0  0  0  0  0  0  0  0
  -32.1275   -6.2695  -21.0984 N   0  0  0  0  0  0  0  0  0  0  0  0
  -35.9267   -1.9127  -14.7340 O   0  0  0  0  0  0  0  0  0  0  0  0
  -35.7479   -3.2856  -15.1207 C   0  0  2  0  0  0  0  0  0  0  0  0
  -32.7424   -5.0883  -19.0053 C   0  0  0  0  0  0  0  0  0  0  0  0
  -34.7184   -5.6120  -17.5965 N   0  0  0  0  0  0  0  0  0  0  0  0
  -33.4994   -5.5935  -13.4642 O   0  0  0  0  0  0  0  0  0  0  0  0
  -34.5920   -5.2736  -14.2627 C   0  0  0  0  0  0  0  0  0  0  0  0
  -32.1555   -6.9657  -11.9260 O   0  0  0  0  0  0  0  0  0  0  0  0
  -32.1990   -3.1627  -18.1619 C   0  0  0  0  0  0  0  0  0  0  0  0
  -33.2998   -7.3291  -19.4586 O   0  0  0  0  0  0  0  0  0  0  0  0
  -32.7458   -6.3002  -19.8454 C   0  0  0  0  0  0  0  0  0  0  0  0
  -33.6397   -4.8005  -18.0166 C   0  0  0  0  0  0  0  0  0  0  0  0
  -34.6140   -7.5714  -12.4120 O   0  5  0  0  0  0  0  0  0  0  0  0
  -33.1259   -7.9826  -14.1141 O   0  0  0  0  0  0  0  0  0  0  0  0
  1 17  1  0  0  0  0
  1 20  1  0  0  0  0
  2 15  1  6  0  0  0
  2  3  1  0  0  0  0
  2 11  1  0  0  0  0
  3  5  1  0  0  0  0
  4 16  1  1  0  0  0
  4 21  1  0  0  0  0
  4 22  2  0  0  0  0
  4 14  1  0  0  0  0
  5  1  1  6  0  0  0
  5  8  1  0  0  0  0
  6 17  2  0  0  0  0
  6 12  1  0  0  0  0
  8  7  1  6  0  0  0
  8 11  1  0  0  0  0
  9 19  1  0  0  0  0
 11 10  1  1  0  0  0
 12 20  2  0  0  0  0
 12 19  1  0  0  0  0
 13 20  1  0  0  0  0
 14 15  1  0  0  0  0
 18 19  2  0  0  0  0
M  CHG  1  21  -1
M  END
>  <CHROM.1>
-95.06171247,69.91878067,-170.56944899,172.32739270,-23.46957711,-33.76550892
-5.06488988,-16.01353720,1.40217361,1.06404286,-1.15679181

>  <Name>
ligand

>  <RI>
0

>  <Rbt.Current_Directory>
/home/itssahil/PROJECTS/Mol_Feturizer/New_Systems/rnas/4XWF

>  <Rbt.Executable>
rbdock ($Id: //depot/dev/client3/rdock/2013.1/src/exe/rbdock.cxx#4 $)

>  <Rbt.Library>
libRbt.so (2013.1, Build901 2013/11/27)

>  <Rbt.Parameter_File>
/export/apps/rDock/src/rDock_2013.1_src/data/scripts/dock_solv.prm

>  <Rbt.Receptor>
prm/blind_docking_40.prm

>  <SCORE>
-7.80711

>  <SCORE.INTER>
-13.4679

>  <SCORE.INTER.CONST>
1

>  <SCORE.INTER.POLAR>
0

>  <SCORE.INTER.ROT>
5

>  <SCORE.INTER.SOLV>
13.3527

>  <SCORE.INTER.VDW>
-20.3628

>  <SCORE.INTER.norm>
-0.612177

>  <SCORE.INTRA>
4.11679

>  <SCORE.INTRA.DIHEDRAL>
-0.739164

>  <SCORE.INTRA.DIHEDRAL.0>
3.49807

>  <SCORE.INTRA.POLAR>
0

>  <SCORE.INTRA.POLAR.0>
0

>  <SCORE.INTRA.REPUL>
0

>  <SCORE.INTRA.REPUL.0>
0

>  <SCORE.INTRA.SOLV>
4.69207

>  <SCORE.INTRA.SOLV.lig_0>
-73.062

>  <SCORE.INTRA.VDW>
2.14033

>  <SCORE.INTRA.VDW.0>
-1.83782

>  <SCORE.INTRA.norm>
0.187127

>  <SCORE.RESTR>
1.54398

>  <SCORE.RESTR.CAVITY>
1.54398

>  <SCORE.RESTR.norm>
0.070181

>  <SCORE.SYSTEM>
0

>  <SCORE.SYSTEM.CONST>
0

>  <SCORE.SYSTEM.DIHEDRAL>
0

>  <SCORE.SYSTEM.SOLV>
0

>  <SCORE.SYSTEM.norm>
0

>  <SCORE.heavy>
22

>  <SCORE.norm>
-0.354869

>  <RMSD>
13.410

$$$$
ligand
 OpenBabel11021811513D
libRbt.so/2013.1/901 2013/11/27
 22 23  0  0  0  0  0  0  0  0999 V2000
  -32.7183    4.9336  -20.3508 N   0  0  0  0  0  0  0  0  0  0  0  0
  -34.9414    3.1096  -22.1350 C   0  0  1  0  0  0  0  0  0  0  0  0
  -33.6878    3.8501  -22.1413 O   0  0  0  0  0  0  0  0  0  0  0  0
  -38.5814    4.1156  -22.4252 P   0  0  1  0  0  0  0  0  0  0  0  0
  -33.0750    3.6982  -20.8506 C   0  0  2  0  0  0  0  0  0  0  0  0
  -32.6430    7.0815  -20.0477 N   0  0  0  0  0  0  0  0  0  0  0  0
  -33.5988    2.4861  -18.8626 O   0  0  0  0  0  0  0  0  0  0  0  0
  -34.1572    3.1904  -19.9779 C   0  0  2  0  0  0  0  0  0  0  0  0
  -31.2017    6.9157  -16.7872 N   0  0  0  0  0  0  0  0  0  0  0  0
  -34.2665    1.1083  -21.1181 O   0  0  0  0  0  0  0  0  0  0  0  0
  -34.9486    2.3484  -20.8666 C   0  0  2  0  0  0  0  0  0  0  0  0
  -31.8285    6.5031  -19.1518 C   0  0  0  0  0  0  0  0  0  0  0  0
  -31.1781    4.1760  -18.5817 N   0  0  0  0  0  0  0  0  0  0  0  0
  -37.2141    3.3673  -22.2552 O   0  0  0  0  0  0  0  0  0  0  0  0
  -36.0426    4.1124  -22.1765 C   0  0  0  0  0  0  0  0  0  0  0  0
  -39.6422    2.9683  -22.2553 O   0  0  0  0  0  0  0  0  0  0  0  0
  -33.1900    6.1042  -20.7955 C   0  0  0  0  0  0  0  0  0  0  0  0
  -30.1999    8.0632  -18.4800 O   0  0  0  0  0  0  0  0  0  0  0  0
  -31.0196    7.2097  -18.1412 C   0  0  0  0  0  0  0  0  0  0  0  0
  -31.8729    5.1504  -19.3344 C   0  0  0  0  0  0  0  0  0  0  0  0
  -38.6844    5.2097  -21.4150 O   0  5  0  0  0  0  0  0  0  0  0  0
  -38.6072    4.8764  -23.6875 O   0  0  0  0  0  0  0  0  0  0  0  0
  1 17  1  0  0  0  0
  1 20  1  0  0  0  0
  2 15  1  1  0  0  0
  2  3  1  0  0  0  0
  2 11  1  0  0  0  0
  3  5  1  0  0  0  0
  4 16  1  1  0  0  0
  4 21  1  0  0  0  0
  4 22  2  0  0  0  0
  4 14  1  0  0  0  0
  5  1  1  1  0  0  0
  5  8  1  0  0  0  0
  6 17  2  0  0  0  0
  6 12  1  0  0  0  0
  8  7  1  1  0  0  0
  8 11  1  0  0  0  0
  9 19  1  0  0  0  0
 11 10  1  6  0  0  0
 12 20  2  0  0  0  0
 12 19  1  0  0  0  0
 13 20  1  0  0  0  0
 14 15  1  0  0  0  0
 18 19  2  0  0  0  0
M  CHG  1  21  -1
M  END
>  <CHROM.1>
17.27222885,176.32660630,-171.85060695,-175.44637303,121.69077199,-34.59165161
4.49738604,-20.69485439,-0.36415247,0.46912491,-3.02958306

>  <Name>
ligand

>  <RI>
0

>  <Rbt.Current_Directory>
/home/itssahil/PROJECTS/Mol_Feturizer/New_Systems/rnas/4XWF

>  <Rbt.Executable>
rbdock ($Id: //depot/dev/client3/rdock/2013.1/src/exe/rbdock.cxx#4 $)

>  <Rbt.Library>
libRbt.so (2013.1, Build901 2013/11/27)

>  <Rbt.Parameter_File>
/export/apps/rDock/src/rDock_2013.1_src/data/scripts/dock_solv.prm

>  <Rbt.Receptor>
prm/blind_docking_60.prm

>  <SCORE>
-8.92757

>  <SCORE.INTER>
-8.59132

>  <SCORE.INTER.CONST>
1

>  <SCORE.INTER.POLAR>
0

>  <SCORE.INTER.ROT>
5

>  <SCORE.INTER.SOLV>
12.814

>  <SCORE.INTER.VDW>
-16.9322

>  <SCORE.INTER.norm>
-0.390514

>  <SCORE.INTRA>
-0.336254

>  <SCORE.INTRA.DIHEDRAL>
-1.78456

>  <SCORE.INTRA.DIHEDRAL.0>
3.49807

>  <SCORE.INTRA.POLAR>
0

>  <SCORE.INTRA.POLAR.0>
0

>  <SCORE.INTRA.REPUL>
0

>  <SCORE.INTRA.REPUL.0>
0

>  <SCORE.INTRA.SOLV>
1.27882

>  <SCORE.INTRA.SOLV.lig_0>
-73.062

>  <SCORE.INTRA.VDW>
-0.0833876

>  <SCORE.INTRA.VDW.0>
-1.83782

>  <SCORE.INTRA.norm>
-0.0152843

>  <SCORE.RESTR>
0

>  <SCORE.RESTR.CAVITY>
0

>  <SCORE.RESTR.norm>
0

>  <SCORE.SYSTEM>
0

>  <SCORE.SYSTEM.CONST>
0

>  <SCORE.SYSTEM.DIHEDRAL>
0

>  <SCORE.SYSTEM.SOLV>
0

>  <SCORE.SYSTEM.norm>
0

>  <SCORE.heavy>
22

>  <SCORE.norm>
-0.405799

>  <RMSD>
13.434

$$$$
ligand
 OpenBabel11021811513D
libRbt.so/2013.1/901 2013/11/27
 22 23  0  0  0  0  0  0  0  0999 V2000
  -37.2103   -2.9141  -18.0205 N   0  0  0  0  0  0  0  0  0  0  0  0
  -37.2860    0.3994  -18.7047 C   0  0  1  0  0  0  0  0  0  0  0  0
  -37.8339   -0.9182  -18.9940 O   0  0  0  0  0  0  0  0  0  0  0  0
  -34.4077    2.3270  -20.2360 P   0  0  1  0  0  0  0  0  0  0  0  0
  -37.8001   -1.6899  -17.7824 C   0  0  2  0  0  0  0  0  0  0  0  0
  -35.8144   -4.4165  -18.7312 N   0  0  0  0  0  0  0  0  0  0  0  0
  -37.1668   -1.2605  -15.5218 O   0  0  0  0  0  0  0  0  0  0  0  0
  -36.8804   -0.9489  -16.8903 C   0  0  2  0  0  0  0  0  0  0  0  0
  -37.9183   -7.2127  -18.1735 N   0  0  0  0  0  0  0  0  0  0  0  0
  -38.3677    0.8930  -16.6846 O   0  0  0  0  0  0  0  0  0  0  0  0
  -37.1171    0.4474  -17.2358 C   0  0  2  0  0  0  0  0  0  0  0  0
  -36.7513   -5.0310  -17.9929 C   0  0  0  0  0  0  0  0  0  0  0  0
  -38.7532   -4.3191  -16.7086 N   0  0  0  0  0  0  0  0  0  0  0  0
  -35.6810    1.8513  -19.4543 O   0  0  0  0  0  0  0  0  0  0  0  0
  -35.9761    0.4931  -19.4085 C   0  0  0  0  0  0  0  0  0  0  0  0
  -34.5855    3.8875  -20.2959 O   0  0  0  0  0  0  0  0  0  0  0  0
  -36.1055   -3.1019  -18.7518 C   0  0  0  0  0  0  0  0  0  0  0  0
  -35.9268   -7.0384  -17.0829 O   0  0  0  0  0  0  0  0  0  0  0  0
  -36.8195   -6.4784  -17.7190 C   0  0  0  0  0  0  0  0  0  0  0  0
  -37.6322   -4.0910  -17.5393 C   0  0  0  0  0  0  0  0  0  0  0  0
  -33.1796    1.8699  -19.5214 O   0  5  0  0  0  0  0  0  0  0  0  0
  -34.2853    1.6124  -21.5194 O   0  0  0  0  0  0  0  0  0  0  0  0
  1 17  1  0  0  0  0
  1 20  1  0  0  0  0
  2 15  1  6  0  0  0
  2  3  1  0  0  0  0
  2 11  1  0  0  0  0
  3  5  1  0  0  0  0
  4 16  1  6  0  0  0
  4 21  1  0  0  0  0
  4 22  2  0  0  0  0
  4 14  1  0  0  0  0
  5  1  1  6  0  0  0
  5  8  1  0  0  0  0
  6 17  2  0  0  0  0
  6 12  1  0  0  0  0
  8  7  1  1  0  0  0
  8 11  1  0  0  0  0
  9 19  1  0  0  0  0
 11 10  1  1  0  0  0
 12 20  2  0  0  0  0
 12 19  1  0  0  0  0
 13 20  1  0  0  0  0
 14 15  1  0  0  0  0
 18 19  2  0  0  0  0
M  CHG  1  21  -1
M  END
>  <CHROM.1>
43.31934343,162.56061625,169.15935590,-175.23579016,-117.23398938,-36.36603280
-1.27245090,-18.44677830,1.96660161,-0.75501303,3.11925683

>  <Name>
ligand

>  <RI>
0

>  <Rbt.Current_Directory>
/home/itssahil/PROJECTS/Mol_Feturizer/New_Systems/rnas/4XWF

>  <Rbt.Executable>
rbdock ($Id: //depot/dev/client3/rdock/2013.1/src/exe/rbdock.cxx#4 $)

>  <Rbt.Library>
libRbt.so (2013.1, Build901 2013/11/27)

>  <Rbt.Parameter_File>
/export/apps/rDock/src/rDock_2013.1_src/data/scripts/dock_solv.prm

>  <Rbt.Receptor>
prm/blind_docking_80.prm

>  <SCORE>
-8.98901

>  <SCORE.INTER>
-8.54122

>  <SCORE.INTER.CONST>
1

>  <SCORE.INTER.POLAR>
0

>  <SCORE.INTER.ROT>
5

>  <SCORE.INTER.SOLV>
29.8035

>  <SCORE.INTER.VDW>
-22.562

>  <SCORE.INTER.norm>
-0.388237

>  <SCORE.INTRA>
-0.447795

>  <SCORE.INTRA.DIHEDRAL>
-0.679626

>  <SCORE.INTRA.DIHEDRAL.0>
3.49807

>  <SCORE.INTRA.POLAR>
0

>  <SCORE.INTRA.POLAR.0>
0

>  <SCORE.INTRA.REPUL>
0

>  <SCORE.INTRA.REPUL.0>
0

>  <SCORE.INTRA.SOLV>
0.232796

>  <SCORE.INTRA.SOLV.lig_0>
-73.062

>  <SCORE.INTRA.VDW>
-0.22438

>  <SCORE.INTRA.VDW.0>
-1.83782

>  <SCORE.INTRA.norm>
-0.0203543

>  <SCORE.RESTR>
0

>  <SCORE.RESTR.CAVITY>
0

>  <SCORE.RESTR.norm>
0

>  <SCORE.SYSTEM>
0

>  <SCORE.SYSTEM.CONST>
0

>  <SCORE.SYSTEM.DIHEDRAL>
0

>  <SCORE.SYSTEM.SOLV>
0

>  <SCORE.SYSTEM.norm>
0

>  <SCORE.heavy>
22

>  <SCORE.norm>
-0.408591

>  <RMSD>
13.442

$$$$
ligand
 OpenBabel11021811513D
libRbt.so/2013.1/901 2013/11/27
 22 23  0  0  0  0  0  0  0  0999 V2000
  -34.2324    4.4576  -20.7798 N   0  0  0  0  0  0  0  0  0  0  0  0
  -35.0142    1.2153  -21.3534 C   0  0  1  0  0  0  0  0  0  0  0  0
  -34.4720    2.4531  -21.8954 O   0  0  0  0  0  0  0  0  0  0  0  0
  -38.2190    3.1412  -20.7391 P   0  0  1  0  0  0  0  0  0  0  0  0
  -33.8011    3.1482  -20.8319 C   0  0  2  0  0  0  0  0  0  0  0  0
  -35.3964    6.2517  -21.1508 N   0  0  0  0  0  0  0  0  0  0  0  0
  -33.3357    2.6831  -18.5378 O   0  0  0  0  0  0  0  0  0  0  0  0
  -34.2861    2.4986  -19.5935 C   0  0  2  0  0  0  0  0  0  0  0  0
  -34.4773    8.0065  -18.2365 N   0  0  0  0  0  0  0  0  0  0  0  0
  -33.1916    0.4496  -20.0940 O   0  0  0  0  0  0  0  0  0  0  0  0
  -34.4658    1.1057  -19.9839 C   0  0  2  0  0  0  0  0  0  0  0  0
  -34.4552    6.5437  -20.2399 C   0  0  0  0  0  0  0  0  0  0  0  0
  -32.6463    5.2929  -19.0880 N   0  0  0  0  0  0  0  0  0  0  0  0
  -36.7389    2.6351  -20.8476 O   0  0  0  0  0  0  0  0  0  0  0  0
  -36.4974    1.3566  -21.3382 C   0  0  0  0  0  0  0  0  0  0  0  0
  -38.8541    2.1689  -19.6800 O   0  0  0  0  0  0  0  0  0  0  0  0
  -35.2517    4.9562  -21.4890 C   0  0  0  0  0  0  0  0  0  0  0  0
  -33.8908    8.8279  -20.2779 O   0  0  0  0  0  0  0  0  0  0  0  0
  -34.2481    7.8595  -19.6072 C   0  0  0  0  0  0  0  0  0  0  0  0
  -33.7202    5.4181  -19.9989 C   0  0  0  0  0  0  0  0  0  0  0  0
  -38.2301    4.5806  -20.3443 O   0  5  0  0  0  0  0  0  0  0  0  0
  -38.8514    3.1954  -22.0694 O   0  0  0  0  0  0  0  0  0  0  0  0
  1 17  1  0  0  0  0
  1 20  1  0  0  0  0
  2 15  1  1  0  0  0
  2  3  1  0  0  0  0
  2 11  1  0  0  0  0
  3  5  1  0  0  0  0
  4 16  1  1  0  0  0
  4 21  1  0  0  0  0
  4 22  2  0  0  0  0
  4 14  1  0  0  0  0
  5  1  1  1  0  0  0
  5  8  1  0  0  0  0
  6 17  2  0  0  0  0
  6 12  1  0  0  0  0
  8  7  1  1  0  0  0
  8 11  1  0  0  0  0
  9 19  1  0  0  0  0
 11 10  1  6  0  0  0
 12 20  2  0  0  0  0
 12 19  1  0  0  0  0
 13 20  1  0  0  0  0
 14 15  1  0  0  0  0
 18 19  2  0  0  0  0
M  CHG  1  21  -1
M  END
>  <CHROM.1>
8.45925794,-44.01036892,64.11602219,178.10622042,113.90871227,-35.41518561
3.90659274,-20.39542459,-1.06552594,0.21271820,-3.04890086

>  <Name>
ligand

>  <RI>
0

>  <Rbt.Current_Directory>
/home/itssahil/PROJECTS/Mol_Feturizer/New_Systems/rnas/4XWF

>  <Rbt.Executable>
rbdock ($Id: //depot/dev/client3/rdock/2013.1/src/exe/rbdock.cxx#4 $)

>  <Rbt.Library>
libRbt.so (2013.1, Build901 2013/11/27)

>  <Rbt.Parameter_File>
/export/apps/rDock/src/rDock_2013.1_src/data/scripts/dock_solv.prm

>  <Rbt.Receptor>
prm/blind_docking_80.prm

>  <SCORE>
-8.3015

>  <SCORE.INTER>
-8.75278

>  <SCORE.INTER.CONST>
1

>  <SCORE.INTER.POLAR>
0

>  <SCORE.INTER.ROT>
5

>  <SCORE.INTER.SOLV>
16.2649

>  <SCORE.INTER.VDW>
-18.1902

>  <SCORE.INTER.norm>
-0.397854

>  <SCORE.INTRA>
0.451285

>  <SCORE.INTRA.DIHEDRAL>
-1.05179

>  <SCORE.INTRA.DIHEDRAL.0>
3.49807

>  <SCORE.INTRA.POLAR>
0

>  <SCORE.INTRA.POLAR.0>
0

>  <SCORE.INTRA.REPUL>
0

>  <SCORE.INTRA.REPUL.0>
0

>  <SCORE.INTRA.SOLV>
2.51063

>  <SCORE.INTRA.SOLV.lig_0>
-73.062

>  <SCORE.INTRA.VDW>
-0.278137

>  <SCORE.INTRA.VDW.0>
-1.83782

>  <SCORE.INTRA.norm>
0.020513

>  <SCORE.RESTR>
0

>  <SCORE.RESTR.CAVITY>
0

>  <SCORE.RESTR.norm>
0

>  <SCORE.SYSTEM>
0

>  <SCORE.SYSTEM.CONST>
0

>  <SCORE.SYSTEM.DIHEDRAL>
0

>  <SCORE.SYSTEM.SOLV>
0

>  <SCORE.SYSTEM.norm>
0

>  <SCORE.heavy>
22

>  <SCORE.norm>
-0.377341

>  <RMSD>
13.449

$$$$
ligand
 OpenBabel11021811513D
libRbt.so/2013.1/901 2013/11/27
 22 23  0  0  0  0  0  0  0  0999 V2000
  -36.3868   -1.0659  -18.2631 N   0  0  0  0  0  0  0  0  0  0  0  0
  -35.3975    1.7750  -19.8133 C   0  0  1  0  0  0  0  0  0  0  0  0
  -35.8722    1.1597  -18.5821 O   0  0  0  0  0  0  0  0  0  0  0  0
  -38.6577    3.4237  -20.8135 P   0  0  1  0  0  0  0  0  0  0  0  0
  -35.3615   -0.1823  -18.5297 C   0  0  2  0  0  0  0  0  0  0  0  0
  -38.3327   -2.0265  -18.3084 N   0  0  0  0  0  0  0  0  0  0  0  0
  -33.9135   -1.4946  -19.8998 O   0  0  0  0  0  0  0  0  0  0  0  0
  -34.9119   -0.4676  -19.9108 C   0  0  2  0  0  0  0  0  0  0  0  0
  -37.2785   -5.1952  -17.1523 N   0  0  0  0  0  0  0  0  0  0  0  0
  -33.1470    1.1195  -19.7948 O   0  0  0  0  0  0  0  0  0  0  0  0
  -34.4228    0.8208  -20.3860 C   0  0  2  0  0  0  0  0  0  0  0  0
  -37.5242   -2.7546  -17.5231 C   0  0  0  0  0  0  0  0  0  0  0  0
  -35.1535   -2.6183  -16.7986 N   0  0  0  0  0  0  0  0  0  0  0  0
  -37.2825    3.0248  -20.1744 O   0  0  0  0  0  0  0  0  0  0  0  0
  -36.5811    1.9462  -20.7019 C   0  0  0  0  0  0  0  0  0  0  0  0
  -39.6452    2.3409  -20.2453 O   0  0  0  0  0  0  0  0  0  0  0  0
  -37.6250   -0.9743  -18.7621 C   0  0  0  0  0  0  0  0  0  0  0  0
  -38.7621   -3.9706  -15.9337 O   0  0  0  0  0  0  0  0  0  0  0  0
  -37.8993   -3.9905  -16.8114 C   0  0  0  0  0  0  0  0  0  0  0  0
  -36.2961   -2.1577  -17.4920 C   0  0  0  0  0  0  0  0  0  0  0  0
  -38.9965    4.8286  -20.4401 O   0  5  0  0  0  0  0  0  0  0  0  0
  -38.5419    3.5280  -22.2792 O   0  0  0  0  0  0  0  0  0  0  0  0
  1 17  1  0  0  0  0
  1 20  1  0  0  0  0
  2 15  1  6  0  0  0
  2  3  1  0  0  0  0
  2 11  1  0  0  0  0
  3  5  1  0  0  0  0
  4 16  1  1  0  0  0
  4 21  1  0  0  0  0
  4 22  2  0  0  0  0
  4 14  1  0  0  0  0
  5  1  1  6  0  0  0
  5  8  1  0  0  0  0
  6 17  2  0  0  0  0
  6 12  1  0  0  0  0
  8  7  1  1  0  0  0
  8 11  1  0  0  0  0
  9 19  1  0  0  0  0
 11 10  1  1  0  0  0
 12 20  2  0  0  0  0
 12 19  1  0  0  0  0
 13 20  1  0  0  0  0
 14 15  1  0  0  0  0
 18 19  2  0  0  0  0
M  CHG  1  21  -1
M  END
>  <CHROM.1>
38.74478018,75.23860615,77.02897294,-175.70266771,115.61009108,-36.84619503
0.16973563,-19.17706868,-1.43004441,0.12322463,-0.51223816

>  <Name>
ligand

>  <RI>
0

>  <Rbt.Current_Directory>
/home/itssahil/PROJECTS/Mol_Feturizer/New_Systems/rnas/4XWF

>  <Rbt.Executable>
rbdock ($Id: //depot/dev/client3/rdock/2013.1/src/exe/rbdock.cxx#4 $)

>  <Rbt.Library>
libRbt.so (2013.1, Build901 2013/11/27)

>  <Rbt.Parameter_File>
/export/apps/rDock/src/rDock_2013.1_src/data/scripts/dock_solv.prm

>  <Rbt.Receptor>
prm/blind_docking_60.prm

>  <SCORE>
-10.3842

>  <SCORE.INTER>
-9.38285

>  <SCORE.INTER.CONST>
1

>  <SCORE.INTER.POLAR>
0

>  <SCORE.INTER.ROT>
5

>  <SCORE.INTER.SOLV>
18.0636

>  <SCORE.INTER.VDW>
-19.2098

>  <SCORE.INTER.norm>
-0.426493

>  <SCORE.INTRA>
-1.00133

>  <SCORE.INTRA.DIHEDRAL>
-0.727409

>  <SCORE.INTRA.DIHEDRAL.0>
3.49807

>  <SCORE.INTRA.POLAR>
0

>  <SCORE.INTRA.POLAR.0>
0

>  <SCORE.INTRA.REPUL>
0

>  <SCORE.INTRA.REPUL.0>
0

>  <SCORE.INTRA.SOLV>
-0.213325

>  <SCORE.INTRA.SOLV.lig_0>
-73.062

>  <SCORE.INTRA.VDW>
-0.530967

>  <SCORE.INTRA.VDW.0>
-1.83782

>  <SCORE.INTRA.norm>
-0.0455152

>  <SCORE.RESTR>
0

>  <SCORE.RESTR.CAVITY>
0

>  <SCORE.RESTR.norm>
0

>  <SCORE.SYSTEM>
0

>  <SCORE.SYSTEM.CONST>
0

>  <SCORE.SYSTEM.DIHEDRAL>
0

>  <SCORE.SYSTEM.SOLV>
0

>  <SCORE.SYSTEM.norm>
0

>  <SCORE.heavy>
22

>  <SCORE.norm>
-0.472009

>  <RMSD>
13.454

$$$$
ligand
 OpenBabel11021811513D
libRbt.so/2013.1/901 2013/11/27
 22 23  0  0  0  0  0  0  0  0999 V2000
  -33.2684   -3.5204  -17.1612 N   0  0  0  0  0  0  0  0  0  0  0  0
  -34.4285   -4.0160  -14.0209 C   0  0  1  0  0  0  0  0  0  0  0  0
  -33.2745   -3.7421  -14.8654 O   0  0  0  0  0  0  0  0  0  0  0  0
  -33.6478   -7.6762  -13.4323 P   0  0  1  0  0  0  0  0  0  0  0  0
  -33.7183   -2.9580  -15.9845 C   0  0  2  0  0  0  0  0  0  0  0  0
  -32.0866   -3.8739  -18.9471 N   0  0  0  0  0  0  0  0  0  0  0  0
  -35.7952   -1.9914  -16.6539 O   0  0  0  0  0  0  0  0  0  0  0  0
  -35.1911   -3.1056  -15.9866 C   0  0  2  0  0  0  0  0  0  0  0  0
  -34.4767   -6.3298  -20.1945 N   0  0  0  0  0  0  0  0  0  0  0  0
  -35.4372   -1.9013  -13.9529 O   0  0  0  0  0  0  0  0  0  0  0  0
  -35.5294   -3.1955  -14.5715 C   0  0  2  0  0  0  0  0  0  0  0  0
  -33.0081   -4.8450  -18.8555 C   0  0  0  0  0  0  0  0  0  0  0  0
  -34.8141   -5.4380  -17.2585 N   0  0  0  0  0  0  0  0  0  0  0  0
  -33.6348   -6.1129  -13.5525 O   0  0  0  0  0  0  0  0  0  0  0  0
  -34.7212   -5.4723  -14.1382 C   0  0  0  0  0  0  0  0  0  0  0  0
  -34.7843   -7.9460  -12.3806 O   0  0  0  0  0  0  0  0  0  0  0  0
  -32.2546   -3.0487  -17.8961 C   0  0  0  0  0  0  0  0  0  0  0  0
  -32.2121   -6.5616  -20.2543 O   0  0  0  0  0  0  0  0  0  0  0  0
  -33.1865   -5.9555  -19.8092 C   0  0  0  0  0  0  0  0  0  0  0  0
  -33.7542   -4.6309  -17.7317 C   0  0  0  0  0  0  0  0  0  0  0  0
  -33.8895   -8.2812  -14.7753 O   0  5  0  0  0  0  0  0  0  0  0  0
  -32.3017   -8.1871  -13.1167 O   0  0  0  0  0  0  0  0  0  0  0  0
  1 17  1  0  0  0  0
  1 20  1  0  0  0  0
  2 15  1  6  0  0  0
  2  3  1  0  0  0  0
  2 11  1  0  0  0  0
  3  5  1  0  0  0  0
  4 16  1  1  0  0  0
  4 21  1  0  0  0  0
  4 22  2  0  0  0  0
  4 14  1  0  0  0  0
  5  1  1  6  0  0  0
  5  8  1  0  0  0  0
  6 17  2  0  0  0  0
  6 12  1  0  0  0  0
  8  7  1  1  0  0  0
  8 11  1  0  0  0  0
  9 19  1  0  0  0  0
 11 10  1  1  0  0  0
 12 20  2  0  0  0  0
 12 19  1  0  0  0  0
 13 20  1  0  0  0  0
 14 15  1  0  0  0  0
 18 19  2  0  0  0  0
M  CHG  1  21  -1
M  END
>  <CHROM.1>
-104.35196600,66.63000914,-68.29898460,176.74043279,-137.58104131,-33.88222371
-5.14447253,-15.91488625,1.31431636,1.20781567,-0.89463660

>  <Name>
ligand

>  <RI>
0

>  <Rbt.Current_Directory>
/home/itssahil/PROJECTS/Mol_Feturizer/New_Systems/rnas/4XWF

>  <Rbt.Executable>
rbdock ($Id: //depot/dev/client3/rdock/2013.1/src/exe/rbdock.cxx#4 $)

>  <Rbt.Library>
libRbt.so (2013.1, Build901 2013/11/27)

>  <Rbt.Parameter_File>
/export/apps/rDock/src/rDock_2013.1_src/data/scripts/dock_solv.prm

>  <Rbt.Receptor>
prm/blind_docking_40.prm

>  <SCORE>
-7.1756

>  <SCORE.INTER>
-11.4963

>  <SCORE.INTER.CONST>
1

>  <SCORE.INTER.POLAR>
0

>  <SCORE.INTER.ROT>
5

>  <SCORE.INTER.SOLV>
13.8329

>  <SCORE.INTER.VDW>
-19.2085

>  <SCORE.INTER.norm>
-0.522558

>  <SCORE.INTRA>
2.7039

>  <SCORE.INTRA.DIHEDRAL>
-1.33612

>  <SCORE.INTRA.DIHEDRAL.0>
3.49807

>  <SCORE.INTRA.POLAR>
0

>  <SCORE.INTRA.POLAR.0>
0

>  <SCORE.INTRA.REPUL>
0

>  <SCORE.INTRA.REPUL.0>
0

>  <SCORE.INTRA.SOLV>
5.28001

>  <SCORE.INTRA.SOLV.lig_0>
-73.062

>  <SCORE.INTRA.VDW>
0.731959

>  <SCORE.INTRA.VDW.0>
-1.83782

>  <SCORE.INTRA.norm>
0.122905

>  <SCORE.RESTR>
1.61677

>  <SCORE.RESTR.CAVITY>
1.61677

>  <SCORE.RESTR.norm>
0.0734893

>  <SCORE.SYSTEM>
0

>  <SCORE.SYSTEM.CONST>
0

>  <SCORE.SYSTEM.DIHEDRAL>
0

>  <SCORE.SYSTEM.SOLV>
0

>  <SCORE.SYSTEM.norm>
0

>  <SCORE.heavy>
22

>  <SCORE.norm>
-0.326164

>  <RMSD>
13.456

$$$$
ligand
 OpenBabel11021811513D
libRbt.so/2013.1/901 2013/11/27
 22 23  0  0  0  0  0  0  0  0999 V2000
  -35.9520    5.7978  -21.3542 N   0  0  0  0  0  0  0  0  0  0  0  0
  -33.7161    7.3896  -19.3745 C   0  0  1  0  0  0  0  0  0  0  0  0
  -35.0738    6.8838  -19.5187 O   0  0  0  0  0  0  0  0  0  0  0  0
  -34.9356   10.8642  -20.2386 P   0  0  1  0  0  0  0  0  0  0  0  0
  -35.0243    5.7042  -20.3374 C   0  0  2  0  0  0  0  0  0  0  0  0
  -37.3038    6.6409  -22.8283 N   0  0  0  0  0  0  0  0  0  0  0  0
  -33.2864    4.4288  -21.3616 O   0  0  0  0  0  0  0  0  0  0  0  0
  -33.6923    5.7488  -20.9812 C   0  0  2  0  0  0  0  0  0  0  0  0
  -37.4722    3.9560  -25.0412 N   0  0  0  0  0  0  0  0  0  0  0  0
  -32.5516    5.4056  -18.9249 O   0  0  0  0  0  0  0  0  0  0  0  0
  -32.8400    6.3545  -19.9654 C   0  0  2  0  0  0  0  0  0  0  0  0
  -37.3133    5.3062  -22.9661 C   0  0  0  0  0  0  0  0  0  0  0  0
  -36.1661    3.3969  -21.8696 N   0  0  0  0  0  0  0  0  0  0  0  0
  -34.5856    9.5016  -19.5462 O   0  0  0  0  0  0  0  0  0  0  0  0
  -33.6418    8.6680  -20.1362 C   0  0  0  0  0  0  0  0  0  0  0  0
  -35.8015   11.6050  -19.1561 O   0  0  0  0  0  0  0  0  0  0  0  0
  -36.4617    6.9433  -21.8219 C   0  0  0  0  0  0  0  0  0  0  0  0
  -39.3303    4.4449  -23.8188 O   0  0  0  0  0  0  0  0  0  0  0  0
  -38.1105    4.5475  -23.9477 C   0  0  0  0  0  0  0  0  0  0  0  0
  -36.4621    4.7684  -22.0433 C   0  0  0  0  0  0  0  0  0  0  0  0
  -33.6778   11.5728  -20.6175 O   0  5  0  0  0  0  0  0  0  0  0  0
  -35.5544   10.6365  -21.5569 O   0  0  0  0  0  0  0  0  0  0  0  0
  1 17  1  0  0  0  0
  1 20  1  0  0  0  0
  2 15  1  6  0  0  0
  2  3  1  0  0  0  0
  2 11  1  0  0  0  0
  3  5  1  0  0  0  0
  4 16  1  1  0  0  0
  4 21  1  0  0  0  0
  4 22  2  0  0  0  0
  4 14  1  0  0  0  0
  5  1  1  6  0  0  0
  5  8  1  0  0  0  0
  6 17  2  0  0  0  0
  6 12  1  0  0  0  0
  8  7  1  1  0  0  0
  8 11  1  0  0  0  0
  9 19  1  0  0  0  0
 11 10  1  1  0  0  0
 12 20  2  0  0  0  0
 12 19  1  0  0  0  0
 13 20  1  0  0  0  0
 14 15  1  0  0  0  0
 18 19  2  0  0  0  0
M  CHG  1  21  -1
M  END
>  <CHROM.1>
22.62018482,60.06792078,-169.78346933,-170.66243932,107.37162171,-35.34033333
7.15190669,-21.13849378,-2.05348328,-0.64506612,0.18789371

>  <Name>
ligand

>  <RI>
0

>  <Rbt.Current_Directory>
/home/itssahil/PROJECTS/Mol_Feturizer/New_Systems/rnas/4XWF

>  <Rbt.Executable>
rbdock ($Id: //depot/dev/client3/rdock/2013.1/src/exe/rbdock.cxx#4 $)

>  <Rbt.Library>
libRbt.so (2013.1, Build901 2013/11/27)

>  <Rbt.Parameter_File>
/export/apps/rDock/src/rDock_2013.1_src/data/scripts/dock_solv.prm

>  <Rbt.Receptor>
prm/blind_docking_80.prm

>  <SCORE>
-10.333

>  <SCORE.INTER>
-9.77013

>  <SCORE.INTER.CONST>
1

>  <SCORE.INTER.POLAR>
0

>  <SCORE.INTER.ROT>
5

>  <SCORE.INTER.SOLV>
13.39

>  <SCORE.INTER.VDW>
-17.9101

>  <SCORE.INTER.norm>
-0.444097

>  <SCORE.INTRA>
-0.562865

>  <SCORE.INTRA.DIHEDRAL>
-1.30464

>  <SCORE.INTRA.DIHEDRAL.0>
3.49807

>  <SCORE.INTRA.POLAR>
0

>  <SCORE.INTRA.POLAR.0>
0

>  <SCORE.INTRA.REPUL>
0

>  <SCORE.INTRA.REPUL.0>
0

>  <SCORE.INTRA.SOLV>
1.1544

>  <SCORE.INTRA.SOLV.lig_0>
-73.062

>  <SCORE.INTRA.VDW>
-0.487746

>  <SCORE.INTRA.VDW.0>
-1.83782

>  <SCORE.INTRA.norm>
-0.0255848

>  <SCORE.RESTR>
0

>  <SCORE.RESTR.CAVITY>
0

>  <SCORE.RESTR.norm>
0

>  <SCORE.SYSTEM>
0

>  <SCORE.SYSTEM.CONST>
0

>  <SCORE.SYSTEM.DIHEDRAL>
0

>  <SCORE.SYSTEM.SOLV>
0

>  <SCORE.SYSTEM.norm>
0

>  <SCORE.heavy>
22

>  <SCORE.norm>
-0.469682

>  <RMSD>
13.477

$$$$
ligand
 OpenBabel11021811513D
libRbt.so/2013.1/901 2013/11/27
 22 23  0  0  0  0  0  0  0  0999 V2000
  -34.0621   -6.4521  -13.8642 N   0  0  0  0  0  0  0  0  0  0  0  0
  -35.5865   -5.1732  -16.6015 C   0  0  1  0  0  0  0  0  0  0  0  0
  -35.5548   -6.2384  -15.6094 O   0  0  0  0  0  0  0  0  0  0  0  0
  -33.1234   -3.5416  -18.5356 P   0  0  1  0  0  0  0  0  0  0  0  0
  -35.0863   -5.6796  -14.3715 C   0  0  2  0  0  0  0  0  0  0  0  0
  -32.3771   -7.0885  -12.6530 N   0  0  0  0  0  0  0  0  0  0  0  0
  -34.4825   -3.4949  -13.6242 O   0  0  0  0  0  0  0  0  0  0  0  0
  -34.4835   -4.3816  -14.7491 C   0  0  2  0  0  0  0  0  0  0  0  0
  -31.4885   -9.8517  -14.7212 N   0  0  0  0  0  0  0  0  0  0  0  0
  -36.5803   -3.4478  -15.3645 O   0  0  0  0  0  0  0  0  0  0  0  0
  -35.3162   -3.9249  -15.8551 C   0  0  2  0  0  0  0  0  0  0  0  0
  -32.7181   -8.1030  -13.4625 C   0  0  0  0  0  0  0  0  0  0  0  0
  -34.4576   -8.4917  -15.1906 N   0  0  0  0  0  0  0  0  0  0  0  0
  -34.4634   -4.3474  -18.4188 O   0  0  0  0  0  0  0  0  0  0  0  0
  -34.5097   -5.4628  -17.5897 C   0  0  0  0  0  0  0  0  0  0  0  0
  -32.8935   -3.0135  -17.0731 O   0  0  0  0  0  0  0  0  0  0  0  0
  -33.2101   -6.0618  -12.9091 C   0  0  0  0  0  0  0  0  0  0  0  0
  -32.0125  -10.1424  -12.5242 O   0  0  0  0  0  0  0  0  0  0  0  0
  -32.0557   -9.4193  -13.5194 C   0  0  0  0  0  0  0  0  0  0  0  0
  -33.7804   -7.7109  -14.2261 C   0  0  0  0  0  0  0  0  0  0  0  0
  -32.0433   -4.4346  -19.0492 O   0  5  0  0  0  0  0  0  0  0  0  0
  -33.2103   -2.5361  -19.6098 O   0  0  0  0  0  0  0  0  0  0  0  0
  1 17  1  0  0  0  0
  1 20  1  0  0  0  0
  2 15  1  6  0  0  0
  2  3  1  0  0  0  0
  2 11  1  0  0  0  0
  3  5  1  0  0  0  0
  4 16  1  1  0  0  0
  4 21  1  0  0  0  0
  4 22  2  0  0  0  0
  4 14  1  0  0  0  0
  5  1  1  6  0  0  0
  5  8  1  0  0  0  0
  6 17  2  0  0  0  0
  6 12  1  0  0  0  0
  8  7  1  1  0  0  0
  8 11  1  0  0  0  0
  9 19  1  0  0  0  0
 11 10  1  1  0  0  0
 12 20  2  0  0  0  0
 12 19  1  0  0  0  0
 13 20  1  0  0  0  0
 14 15  1  0  0  0  0
 18 19  2  0  0  0  0
M  CHG  1  21  -1
M  END
>  <CHROM.1>
163.93079120,-172.87272014,-62.64416795,121.37822692,-120.84366305,-33.77080856
-5.65313289,-15.68680770,1.34947194,-0.79206909,2.24024635

>  <Name>
ligand

>  <RI>
0

>  <Rbt.Current_Directory>
/home/itssahil/PROJECTS/Mol_Feturizer/New_Systems/rnas/4XWF

>  <Rbt.Executable>
rbdock ($Id: //depot/dev/client3/rdock/2013.1/src/exe/rbdock.cxx#4 $)

>  <Rbt.Library>
libRbt.so (2013.1, Build901 2013/11/27)

>  <Rbt.Parameter_File>
/export/apps/rDock/src/rDock_2013.1_src/data/scripts/dock_solv.prm

>  <Rbt.Receptor>
prm/blind_docking_40.prm

>  <SCORE>
-4.77454

>  <SCORE.INTER>
-9.51118

>  <SCORE.INTER.CONST>
1

>  <SCORE.INTER.POLAR>
0

>  <SCORE.INTER.ROT>
5

>  <SCORE.INTER.SOLV>
16.2218

>  <SCORE.INTER.VDW>
-18.6814

>  <SCORE.INTER.norm>
-0.432327

>  <SCORE.INTRA>
4.67301

>  <SCORE.INTRA.DIHEDRAL>
5.39425

>  <SCORE.INTRA.DIHEDRAL.0>
3.49807

>  <SCORE.INTRA.POLAR>
0

>  <SCORE.INTRA.POLAR.0>
0

>  <SCORE.INTRA.REPUL>
0

>  <SCORE.INTRA.REPUL.0>
0

>  <SCORE.INTRA.SOLV>
2.48217

>  <SCORE.INTRA.SOLV.lig_0>
-73.062

>  <SCORE.INTRA.VDW>
0.734797

>  <SCORE.INTRA.VDW.0>
-1.83782

>  <SCORE.INTRA.norm>
0.212409

>  <SCORE.RESTR>
0.063635

>  <SCORE.RESTR.CAVITY>
0.063635

>  <SCORE.RESTR.norm>
0.0028925

>  <SCORE.SYSTEM>
0

>  <SCORE.SYSTEM.CONST>
0

>  <SCORE.SYSTEM.DIHEDRAL>
0

>  <SCORE.SYSTEM.SOLV>
0

>  <SCORE.SYSTEM.norm>
0

>  <SCORE.heavy>
22

>  <SCORE.norm>
-0.217025

>  <RMSD>
13.496

$$$$
ligand
 OpenBabel11021811513D
libRbt.so/2013.1/901 2013/11/27
 22 23  0  0  0  0  0  0  0  0999 V2000
  -34.0377   -6.3952  -13.8167 N   0  0  0  0  0  0  0  0  0  0  0  0
  -35.4627   -4.9499  -16.5246 C   0  0  1  0  0  0  0  0  0  0  0  0
  -35.4562   -6.0811  -15.6080 O   0  0  0  0  0  0  0  0  0  0  0  0
  -32.9920   -3.7379  -19.1199 P   0  0  1  0  0  0  0  0  0  0  0  0
  -35.0518   -5.6035  -14.3147 C   0  0  2  0  0  0  0  0  0  0  0  0
  -32.3580   -7.0656  -12.6166 N   0  0  0  0  0  0  0  0  0  0  0  0
  -34.5185   -3.4680  -13.3922 O   0  0  0  0  0  0  0  0  0  0  0  0
  -34.4553   -4.2740  -14.5745 C   0  0  2  0  0  0  0  0  0  0  0  0
  -31.5699   -9.8518  -14.7192 N   0  0  0  0  0  0  0  0  0  0  0  0
  -36.5388   -3.3290  -15.2171 O   0  0  0  0  0  0  0  0  0  0  0  0
  -35.2465   -3.7530  -15.6825 C   0  0  2  0  0  0  0  0  0  0  0  0
  -32.7180   -8.0693  -13.4311 C   0  0  0  0  0  0  0  0  0  0  0  0
  -34.4703   -8.4197  -15.1545 N   0  0  0  0  0  0  0  0  0  0  0  0
  -34.2230   -3.9542  -18.1732 O   0  0  0  0  0  0  0  0  0  0  0  0
  -34.3390   -5.1549  -17.4813 C   0  0  0  0  0  0  0  0  0  0  0  0
  -33.3505   -2.4077  -19.8766 O   0  0  0  0  0  0  0  0  0  0  0  0
  -33.1759   -6.0244  -12.8626 C   0  0  0  0  0  0  0  0  0  0  0  0
  -31.9978  -10.1055  -12.4970 O   0  0  0  0  0  0  0  0  0  0  0  0
  -32.0764   -9.3953  -13.4993 C   0  0  0  0  0  0  0  0  0  0  0  0
  -33.7771   -7.6558  -14.1878 C   0  0  0  0  0  0  0  0  0  0  0  0
  -31.7403   -3.6720  -18.3094 O   0  5  0  0  0  0  0  0  0  0  0  0
  -32.7481   -4.9368  -19.9421 O   0  0  0  0  0  0  0  0  0  0  0  0
  1 17  1  0  0  0  0
  1 20  1  0  0  0  0
  2 15  1  6  0  0  0
  2  3  1  0  0  0  0
  2 11  1  0  0  0  0
  3  5  1  0  0  0  0
  4 16  1  6  0  0  0
  4 21  1  0  0  0  0
  4 22  2  0  0  0  0
  4 14  1  0  0  0  0
  5  1  1  6  0  0  0
  5  8  1  0  0  0  0
  6 17  2  0  0  0  0
  6 12  1  0  0  0  0
  8  7  1  1  0  0  0
  8 11  1  0  0  0  0
  9 19  1  0  0  0  0
 11 10  1  1  0  0  0
 12 20  2  0  0  0  0
 12 19  1  0  0  0  0
 13 20  1  0  0  0  0
 14 15  1  0  0  0  0
 18 19  2  0  0  0  0
M  CHG  1  21  -1
M  END
>  <CHROM.1>
159.04465427,-169.37469873,170.80103502,170.91033732,-123.47066161,-33.71015111
-5.63819538,-15.79268784,1.40602003,-0.85050404,2.18476903

>  <Name>
ligand

>  <RI>
0

>  <Rbt.Current_Directory>
/home/itssahil/PROJECTS/Mol_Feturizer/New_Systems/rnas/4XWF

>  <Rbt.Executable>
rbdock ($Id: //depot/dev/client3/rdock/2013.1/src/exe/rbdock.cxx#4 $)

>  <Rbt.Library>
libRbt.so (2013.1, Build901 2013/11/27)

>  <Rbt.Parameter_File>
/export/apps/rDock/src/rDock_2013.1_src/data/scripts/dock_solv.prm

>  <Rbt.Receptor>
prm/blind_docking_40.prm

>  <SCORE>
-5.53545

>  <SCORE.INTER>
-7.59359

>  <SCORE.INTER.CONST>
1

>  <SCORE.INTER.POLAR>
0

>  <SCORE.INTER.ROT>
5

>  <SCORE.INTER.SOLV>
17.9503

>  <SCORE.INTER.VDW>
-17.9792

>  <SCORE.INTER.norm>
-0.345163

>  <SCORE.INTRA>
2.03841

>  <SCORE.INTRA.DIHEDRAL>
-1.02788

>  <SCORE.INTRA.DIHEDRAL.0>
3.49807

>  <SCORE.INTRA.POLAR>
0

>  <SCORE.INTRA.POLAR.0>
0

>  <SCORE.INTRA.REPUL>
0

>  <SCORE.INTRA.REPUL.0>
0

>  <SCORE.INTRA.SOLV>
2.38965

>  <SCORE.INTRA.SOLV.lig_0>
-73.062

>  <SCORE.INTRA.VDW>
1.35753

>  <SCORE.INTRA.VDW.0>
-1.83782

>  <SCORE.INTRA.norm>
0.0926552

>  <SCORE.RESTR>
0.0197198

>  <SCORE.RESTR.CAVITY>
0.0197198

>  <SCORE.RESTR.norm>
0.000896355

>  <SCORE.SYSTEM>
0

>  <SCORE.SYSTEM.CONST>
0

>  <SCORE.SYSTEM.DIHEDRAL>
0

>  <SCORE.SYSTEM.SOLV>
0

>  <SCORE.SYSTEM.norm>
0

>  <SCORE.heavy>
22

>  <SCORE.norm>
-0.251611

>  <RMSD>
13.509

$$$$
ligand
 OpenBabel11021811513D
libRbt.so/2013.1/901 2013/11/27
 22 23  0  0  0  0  0  0  0  0999 V2000
  -37.3268   -3.4951  -17.6602 N   0  0  0  0  0  0  0  0  0  0  0  0
  -37.3747   -0.2144  -18.4891 C   0  0  1  0  0  0  0  0  0  0  0  0
  -37.9774   -1.5271  -18.6718 O   0  0  0  0  0  0  0  0  0  0  0  0
  -34.4254    1.5660  -20.0327 P   0  0  1  0  0  0  0  0  0  0  0  0
  -37.8640   -2.2450  -17.4324 C   0  0  2  0  0  0  0  0  0  0  0  0
  -37.0978   -5.6529  -17.7102 N   0  0  0  0  0  0  0  0  0  0  0  0
  -37.0371   -1.7346  -15.2526 O   0  0  0  0  0  0  0  0  0  0  0  0
  -36.8560   -1.4923  -16.6527 C   0  0  2  0  0  0  0  0  0  0  0  0
  -34.8676   -6.0040  -20.3222 N   0  0  0  0  0  0  0  0  0  0  0  0
  -38.2745    0.3992  -16.4134 O   0  0  0  0  0  0  0  0  0  0  0  0
  -37.0850   -0.1064  -17.0425 C   0  0  2  0  0  0  0  0  0  0  0  0
  -36.0413   -5.1050  -18.3301 C   0  0  0  0  0  0  0  0  0  0  0  0
  -35.2950   -2.7996  -18.8701 N   0  0  0  0  0  0  0  0  0  0  0  0
  -35.5770    1.0711  -19.0905 O   0  0  0  0  0  0  0  0  0  0  0  0
  -36.1248   -0.1897  -19.2998 C   0  0  0  0  0  0  0  0  0  0  0  0
  -33.4422    0.3404  -20.0722 O   0  0  0  0  0  0  0  0  0  0  0  0
  -37.8919   -4.6500  -17.2895 C   0  0  0  0  0  0  0  0  0  0  0  0
  -34.0378   -6.3348  -18.2276 O   0  0  0  0  0  0  0  0  0  0  0  0
  -34.9184   -5.8453  -18.9347 C   0  0  0  0  0  0  0  0  0  0  0  0
  -36.1799   -3.7465  -18.3054 C   0  0  0  0  0  0  0  0  0  0  0  0
  -34.9917    1.9495  -21.3594 O   0  5  0  0  0  0  0  0  0  0  0  0
  -33.8813    2.8522  -19.5614 O   0  0  0  0  0  0  0  0  0  0  0  0
  1 17  1  0  0  0  0
  1 20  1  0  0  0  0
  2 15  1  6  0  0  0
  2  3  1  0  0  0  0
  2 11  1  0  0  0  0
  3  5  1  0  0  0  0
  4 16  1  6  0  0  0
  4 21  1  0  0  0  0
  4 22  2  0  0  0  0
  4 14  1  0  0  0  0
  5  1  1  6  0  0  0
  5  8  1  0  0  0  0
  6 17  2  0  0  0  0
  6 12  1  0  0  0  0
  8  7  1  1  0  0  0
  8 11  1  0  0  0  0
  9 19  1  0  0  0  0
 11 10  1  1  0  0  0
 12 20  2  0  0  0  0
 12 19  1  0  0  0  0
 13 20  1  0  0  0  0
 14 15  1  0  0  0  0
 18 19  2  0  0  0  0
M  CHG  1  21  -1
M  END
>  <CHROM.1>
-124.95794940,-179.55234003,-47.50256488,-166.53385905,102.56906179,-35.98946584
-1.63620193,-18.51881875,1.80366742,-0.74770433,3.06906573

>  <Name>
ligand

>  <RI>
0

>  <Rbt.Current_Directory>
/home/itssahil/PROJECTS/Mol_Feturizer/New_Systems/rnas/4XWF

>  <Rbt.Executable>
rbdock ($Id: //depot/dev/client3/rdock/2013.1/src/exe/rbdock.cxx#4 $)

>  <Rbt.Library>
libRbt.so (2013.1, Build901 2013/11/27)

>  <Rbt.Parameter_File>
/export/apps/rDock/src/rDock_2013.1_src/data/scripts/dock_solv.prm

>  <Rbt.Receptor>
prm/blind_docking_80.prm

>  <SCORE>
-8.58232

>  <SCORE.INTER>
-11.1495

>  <SCORE.INTER.CONST>
1

>  <SCORE.INTER.POLAR>
0

>  <SCORE.INTER.ROT>
5

>  <SCORE.INTER.SOLV>
19.8976

>  <SCORE.INTER.VDW>
-20.9989

>  <SCORE.INTER.norm>
-0.506796

>  <SCORE.INTRA>
2.5672

>  <SCORE.INTRA.DIHEDRAL>
-0.601677

>  <SCORE.INTRA.DIHEDRAL.0>
3.49807

>  <SCORE.INTRA.POLAR>
0

>  <SCORE.INTRA.POLAR.0>
0

>  <SCORE.INTRA.REPUL>
0

>  <SCORE.INTRA.REPUL.0>
0

>  <SCORE.INTRA.SOLV>
4.63612

>  <SCORE.INTRA.SOLV.lig_0>
-73.062

>  <SCORE.INTRA.VDW>
0.549982

>  <SCORE.INTRA.VDW.0>
-1.83782

>  <SCORE.INTRA.norm>
0.116691

>  <SCORE.RESTR>
0

>  <SCORE.RESTR.CAVITY>
0

>  <SCORE.RESTR.norm>
0

>  <SCORE.SYSTEM>
0

>  <SCORE.SYSTEM.CONST>
0

>  <SCORE.SYSTEM.DIHEDRAL>
0

>  <SCORE.SYSTEM.SOLV>
0

>  <SCORE.SYSTEM.norm>
0

>  <SCORE.heavy>
22

>  <SCORE.norm>
-0.390105

>  <RMSD>
13.526

$$$$
ligand
 OpenBabel11021811513D
libRbt.so/2013.1/901 2013/11/27
 22 23  0  0  0  0  0  0  0  0999 V2000
  -36.3794   -1.0638  -18.3701 N   0  0  0  0  0  0  0  0  0  0  0  0
  -35.2968    1.6819  -20.0257 C   0  0  1  0  0  0  0  0  0  0  0  0
  -35.8536    1.1416  -18.7937 O   0  0  0  0  0  0  0  0  0  0  0  0
  -38.1050    3.5485  -21.7453 P   0  0  1  0  0  0  0  0  0  0  0  0
  -35.3419   -0.1898  -18.6207 C   0  0  2  0  0  0  0  0  0  0  0  0
  -38.3429   -1.9877  -18.4209 N   0  0  0  0  0  0  0  0  0  0  0  0
  -33.7960   -1.5733  -19.8006 O   0  0  0  0  0  0  0  0  0  0  0  0
  -34.7958   -0.5580  -19.9463 C   0  0  2  0  0  0  0  0  0  0  0  0
  -37.3557   -5.2169  -17.4112 N   0  0  0  0  0  0  0  0  0  0  0  0
  -33.0503    1.0488  -19.8095 O   0  0  0  0  0  0  0  0  0  0  0  0
  -34.2804    0.7021  -20.4675 C   0  0  2  0  0  0  0  0  0  0  0  0
  -37.5373   -2.7566  -17.6723 C   0  0  0  0  0  0  0  0  0  0  0  0
  -35.1550   -2.6873  -16.9769 N   0  0  0  0  0  0  0  0  0  0  0  0
  -36.9935    3.0293  -20.7687 O   0  0  0  0  0  0  0  0  0  0  0  0
  -36.4163    1.7862  -21.0035 C   0  0  0  0  0  0  0  0  0  0  0  0
  -37.4583    3.3486  -23.1639 O   0  0  0  0  0  0  0  0  0  0  0  0
  -37.6224   -0.9332  -18.8482 C   0  0  0  0  0  0  0  0  0  0  0  0
  -38.7545   -4.0005  -16.0885 O   0  0  0  0  0  0  0  0  0  0  0  0
  -37.9252   -4.0094  -16.9981 C   0  0  0  0  0  0  0  0  0  0  0  0
  -36.2983   -2.1829  -17.6381 C   0  0  0  0  0  0  0  0  0  0  0  0
  -39.3659    2.7807  -21.5249 O   0  5  0  0  0  0  0  0  0  0  0  0
  -38.5238    4.9141  -21.3814 O   0  0  0  0  0  0  0  0  0  0  0  0
  1 17  1  0  0  0  0
  1 20  1  0  0  0  0
  2 15  1  6  0  0  0
  2  3  1  0  0  0  0
  2 11  1  0  0  0  0
  3  5  1  0  0  0  0
  4 16  1  6  0  0  0
  4 21  1  0  0  0  0
  4 22  2  0  0  0  0
  4 14  1  0  0  0  0
  5  1  1  6  0  0  0
  5  8  1  0  0  0  0
  6 17  2  0  0  0  0
  6 12  1  0  0  0  0
  8  7  1  1  0  0  0
  8 11  1  0  0  0  0
  9 19  1  0  0  0  0
 11 10  1  1  0  0  0
 12 20  2  0  0  0  0
 12 19  1  0  0  0  0
 13 20  1  0  0  0  0
 14 15  1  0  0  0  0
 18 19  2  0  0  0  0
M  CHG  1  21  -1
M  END
>  <CHROM.1>
31.24348454,87.05805733,-49.96196458,172.62680972,114.02198124,-36.66209891
0.16753777,-19.53646052,-1.49689586,0.03968975,-0.56973950

>  <Name>
ligand

>  <RI>
0

>  <Rbt.Current_Directory>
/home/itssahil/PROJECTS/Mol_Feturizer/New_Systems/rnas/4XWF

>  <Rbt.Executable>
rbdock ($Id: //depot/dev/client3/rdock/2013.1/src/exe/rbdock.cxx#4 $)

>  <Rbt.Library>
libRbt.so (2013.1, Build901 2013/11/27)

>  <Rbt.Parameter_File>
/export/apps/rDock/src/rDock_2013.1_src/data/scripts/dock_solv.prm

>  <Rbt.Receptor>
prm/blind_docking_60.prm

>  <SCORE>
-9.86012

>  <SCORE.INTER>
-9.81145

>  <SCORE.INTER.CONST>
1

>  <SCORE.INTER.POLAR>
0

>  <SCORE.INTER.ROT>
5

>  <SCORE.INTER.SOLV>
16.8931

>  <SCORE.INTER.VDW>
-19.1053

>  <SCORE.INTER.norm>
-0.445975

>  <SCORE.INTRA>
-0.0486706

>  <SCORE.INTRA.DIHEDRAL>
0.617354

>  <SCORE.INTRA.DIHEDRAL.0>
3.49807

>  <SCORE.INTRA.POLAR>
0

>  <SCORE.INTRA.POLAR.0>
0

>  <SCORE.INTRA.REPUL>
0

>  <SCORE.INTRA.REPUL.0>
0

>  <SCORE.INTRA.SOLV>
-0.251162

>  <SCORE.INTRA.SOLV.lig_0>
-73.062

>  <SCORE.INTRA.VDW>
-0.231767

>  <SCORE.INTRA.VDW.0>
-1.83782

>  <SCORE.INTRA.norm>
-0.0022123

>  <SCORE.RESTR>
0

>  <SCORE.RESTR.CAVITY>
0

>  <SCORE.RESTR.norm>
0

>  <SCORE.SYSTEM>
0

>  <SCORE.SYSTEM.CONST>
0

>  <SCORE.SYSTEM.DIHEDRAL>
0

>  <SCORE.SYSTEM.SOLV>
0

>  <SCORE.SYSTEM.norm>
0

>  <SCORE.heavy>
22

>  <SCORE.norm>
-0.448187

>  <RMSD>
13.541

$$$$
ligand
 OpenBabel11021811513D
libRbt.so/2013.1/901 2013/11/27
 22 23  0  0  0  0  0  0  0  0999 V2000
  -34.1857   -6.4946  -13.9594 N   0  0  0  0  0  0  0  0  0  0  0  0
  -35.5007   -4.8563  -16.6126 C   0  0  1  0  0  0  0  0  0  0  0  0
  -35.5670   -6.0241  -15.7455 O   0  0  0  0  0  0  0  0  0  0  0  0
  -32.8846   -3.6450  -19.0510 P   0  0  1  0  0  0  0  0  0  0  0  0
  -35.1485   -5.6258  -14.4300 C   0  0  2  0  0  0  0  0  0  0  0  0
  -32.6310   -7.3567  -12.7140 N   0  0  0  0  0  0  0  0  0  0  0  0
  -34.5036   -3.5655  -13.4127 O   0  0  0  0  0  0  0  0  0  0  0  0
  -34.4750   -4.3228  -14.6282 C   0  0  2  0  0  0  0  0  0  0  0  0
  -31.4734  -10.0760  -12.8835 N   0  0  0  0  0  0  0  0  0  0  0  0
  -36.4954   -3.2338  -15.2442 O   0  0  0  0  0  0  0  0  0  0  0  0
  -35.2249   -3.7107  -15.7182 C   0  0  2  0  0  0  0  0  0  0  0  0
  -32.9040   -8.2221  -13.7025 C   0  0  0  0  0  0  0  0  0  0  0  0
  -34.4746   -8.2894  -15.6241 N   0  0  0  0  0  0  0  0  0  0  0  0
  -34.1842   -3.8612  -18.2009 O   0  0  0  0  0  0  0  0  0  0  0  0
  -34.3814   -5.0843  -17.5692 C   0  0  0  0  0  0  0  0  0  0  0  0
  -32.8456   -4.9148  -19.9766 O   0  0  0  0  0  0  0  0  0  0  0  0
  -33.4247   -6.2814  -12.8796 C   0  0  0  0  0  0  0  0  0  0  0  0
  -32.3797  -10.1329  -14.9718 O   0  0  0  0  0  0  0  0  0  0  0  0
  -32.2533   -9.5297  -13.9064 C   0  0  0  0  0  0  0  0  0  0  0  0
  -33.8842   -7.6876  -14.4892 C   0  0  0  0  0  0  0  0  0  0  0  0
  -32.9731   -2.3470  -19.7827 O   0  5  0  0  0  0  0  0  0  0  0  0
  -31.7211   -3.4118  -18.1766 O   0  0  0  0  0  0  0  0  0  0  0  0
  1 17  1  0  0  0  0
  1 20  1  0  0  0  0
  2 15  1  6  0  0  0
  2  3  1  0  0  0  0
  2 11  1  0  0  0  0
  3  5  1  0  0  0  0
  4 16  1  6  0  0  0
  4 21  1  0  0  0  0
  4 22  2  0  0  0  0
  4 14  1  0  0  0  0
  5  1  1  6  0  0  0
  5  8  1  0  0  0  0
  6 17  2  0  0  0  0
  6 12  1  0  0  0  0
  8  7  1  1  0  0  0
  8 11  1  0  0  0  0
  9 19  1  0  0  0  0
 11 10  1  1  0  0  0
 12 20  2  0  0  0  0
 12 19  1  0  0  0  0
 13 20  1  0  0  0  0
 14 15  1  0  0  0  0
 18 19  2  0  0  0  0
M  CHG  1  21  -1
M  END
>  <CHROM.1>
167.75574320,-168.94561708,49.72413809,166.97068069,13.38466478,-33.75201243
-5.64299970,-15.91129209,1.44420608,-0.88348394,2.26754084

>  <Name>
ligand

>  <RI>
0

>  <Rbt.Current_Directory>
/home/itssahil/PROJECTS/Mol_Feturizer/New_Systems/rnas/4XWF

>  <Rbt.Executable>
rbdock ($Id: //depot/dev/client3/rdock/2013.1/src/exe/rbdock.cxx#4 $)

>  <Rbt.Library>
libRbt.so (2013.1, Build901 2013/11/27)

>  <Rbt.Parameter_File>
/export/apps/rDock/src/rDock_2013.1_src/data/scripts/dock_solv.prm

>  <Rbt.Receptor>
prm/blind_docking_40.prm

>  <SCORE>
-4.56083

>  <SCORE.INTER>
-7.06519

>  <SCORE.INTER.CONST>
1

>  <SCORE.INTER.POLAR>
0

>  <SCORE.INTER.ROT>
5

>  <SCORE.INTER.SOLV>
18.359

>  <SCORE.INTER.VDW>
-17.7631

>  <SCORE.INTER.norm>
-0.321145

>  <SCORE.INTRA>
2.37748

>  <SCORE.INTRA.DIHEDRAL>
-0.344828

>  <SCORE.INTRA.DIHEDRAL.0>
3.49807

>  <SCORE.INTRA.POLAR>
0

>  <SCORE.INTRA.POLAR.0>
0

>  <SCORE.INTRA.REPUL>
0

>  <SCORE.INTRA.REPUL.0>
0

>  <SCORE.INTRA.SOLV>
2.13678

>  <SCORE.INTRA.SOLV.lig_0>
-73.062

>  <SCORE.INTRA.VDW>
1.48151

>  <SCORE.INTRA.VDW.0>
-1.83782

>  <SCORE.INTRA.norm>
0.108067

>  <SCORE.RESTR>
0.126869

>  <SCORE.RESTR.CAVITY>
0.126869

>  <SCORE.RESTR.norm>
0.00576679

>  <SCORE.SYSTEM>
0

>  <SCORE.SYSTEM.CONST>
0

>  <SCORE.SYSTEM.DIHEDRAL>
0

>  <SCORE.SYSTEM.SOLV>
0

>  <SCORE.SYSTEM.norm>
0

>  <SCORE.heavy>
22

>  <SCORE.norm>
-0.207311

>  <RMSD>
13.551

$$$$
ligand
 OpenBabel11021811513D
libRbt.so/2013.1/901 2013/11/27
 22 23  0  0  0  0  0  0  0  0999 V2000
  -36.2769   -0.0580  -17.9515 N   0  0  0  0  0  0  0  0  0  0  0  0
  -35.9018    2.4340  -20.2102 C   0  0  1  0  0  0  0  0  0  0  0  0
  -35.7465    2.0092  -18.8263 O   0  0  0  0  0  0  0  0  0  0  0  0
  -38.7962    3.8531  -22.1948 P   0  0  1  0  0  0  0  0  0  0  0  0
  -35.4389    0.6057  -18.8237 C   0  0  2  0  0  0  0  0  0  0  0  0
  -37.9320   -0.4722  -16.6099 N   0  0  0  0  0  0  0  0  0  0  0  0
  -35.0579   -1.0446  -20.5051 O   0  0  0  0  0  0  0  0  0  0  0  0
  -35.7958    0.1400  -20.1825 C   0  0  2  0  0  0  0  0  0  0  0  0
  -38.5941   -3.6366  -16.4889 N   0  0  0  0  0  0  0  0  0  0  0  0
  -34.0516    1.3912  -21.2021 O   0  0  0  0  0  0  0  0  0  0  0  0
  -35.4747    1.2804  -21.0319 C   0  0  2  0  0  0  0  0  0  0  0  0
  -37.2083   -1.5945  -16.7413 C   0  0  0  0  0  0  0  0  0  0  0  0
  -35.1809   -2.2652  -18.0076 N   0  0  0  0  0  0  0  0  0  0  0  0
  -37.4305    3.2610  -21.7020 O   0  0  0  0  0  0  0  0  0  0  0  0
  -37.3447    2.7450  -20.4135 C   0  0  0  0  0  0  0  0  0  0  0  0
  -38.5379    4.1298  -23.7203 O   0  0  0  0  0  0  0  0  0  0  0  0
  -37.3474    0.4827  -17.3582 C   0  0  0  0  0  0  0  0  0  0  0  0
  -36.7711   -3.2898  -15.1691 O   0  0  0  0  0  0  0  0  0  0  0  0
  -37.4900   -2.8830  -16.0816 C   0  0  0  0  0  0  0  0  0  0  0  0
  -36.1660   -1.3424  -17.5871 C   0  0  0  0  0  0  0  0  0  0  0  0
  -39.8944    2.8807  -21.9183 O   0  5  0  0  0  0  0  0  0  0  0  0
  -39.2002    4.9991  -21.3605 O   0  0  0  0  0  0  0  0  0  0  0  0
  1 17  1  0  0  0  0
  1 20  1  0  0  0  0
  2 15  1  6  0  0  0
  2  3  1  0  0  0  0
  2 11  1  0  0  0  0
  3  5  1  0  0  0  0
  4 16  1  6  0  0  0
  4 21  1  0  0  0  0
  4 22  2  0  0  0  0
  4 14  1  0  0  0  0
  5  1  1  1  0  0  0
  5  8  1  0  0  0  0
  6 17  2  0  0  0  0
  6 12  1  0  0  0  0
  8  7  1  6  0  0  0
  8 11  1  0  0  0  0
  9 19  1  0  0  0  0
 11 10  1  1  0  0  0
 12 20  2  0  0  0  0
 12 19  1  0  0  0  0
 13 20  1  0  0  0  0
 14 15  1  0  0  0  0
 18 19  2  0  0  0  0
M  CHG  1  21  -1
M  END
>  <CHROM.1>
9.66660193,174.69992207,-172.29983015,-173.02539225,70.69366506,-37.01116552
0.88440422,-19.53605594,-1.38309727,0.27335374,-0.78763385

>  <Name>
ligand

>  <RI>
0

>  <Rbt.Current_Directory>
/home/itssahil/PROJECTS/Mol_Feturizer/New_Systems/rnas/4XWF

>  <Rbt.Executable>
rbdock ($Id: //depot/dev/client3/rdock/2013.1/src/exe/rbdock.cxx#4 $)

>  <Rbt.Library>
libRbt.so (2013.1, Build901 2013/11/27)

>  <Rbt.Parameter_File>
/export/apps/rDock/src/rDock_2013.1_src/data/scripts/dock_solv.prm

>  <Rbt.Receptor>
prm/blind_docking_100.prm

>  <SCORE>
-7.86888

>  <SCORE.INTER>
-8.57514

>  <SCORE.INTER.CONST>
1

>  <SCORE.INTER.POLAR>
0

>  <SCORE.INTER.ROT>
5

>  <SCORE.INTER.SOLV>
16.6792

>  <SCORE.INTER.VDW>
-18.2098

>  <SCORE.INTER.norm>
-0.389779

>  <SCORE.INTRA>
0.706262

>  <SCORE.INTRA.DIHEDRAL>
-0.0872668

>  <SCORE.INTRA.DIHEDRAL.0>
3.49807

>  <SCORE.INTRA.POLAR>
0

>  <SCORE.INTRA.POLAR.0>
0

>  <SCORE.INTRA.REPUL>
0

>  <SCORE.INTRA.REPUL.0>
0

>  <SCORE.INTRA.SOLV>
1.35001

>  <SCORE.INTRA.SOLV.lig_0>
-73.062

>  <SCORE.INTRA.VDW>
0.0748912

>  <SCORE.INTRA.VDW.0>
-1.83782

>  <SCORE.INTRA.norm>
0.0321028

>  <SCORE.RESTR>
0

>  <SCORE.RESTR.CAVITY>
0

>  <SCORE.RESTR.norm>
0

>  <SCORE.SYSTEM>
0

>  <SCORE.SYSTEM.CONST>
0

>  <SCORE.SYSTEM.DIHEDRAL>
0

>  <SCORE.SYSTEM.SOLV>
0

>  <SCORE.SYSTEM.norm>
0

>  <SCORE.heavy>
22

>  <SCORE.norm>
-0.357676

>  <RMSD>
13.557

$$$$
ligand
 OpenBabel11021811513D
libRbt.so/2013.1/901 2013/11/27
 22 23  0  0  0  0  0  0  0  0999 V2000
  -36.7369   -2.6649  -18.3642 N   0  0  0  0  0  0  0  0  0  0  0  0
  -37.3110    0.6695  -18.2981 C   0  0  1  0  0  0  0  0  0  0  0  0
  -37.6023   -0.6054  -18.9381 O   0  0  0  0  0  0  0  0  0  0  0  0
  -35.0157    2.1922  -20.9001 P   0  0  1  0  0  0  0  0  0  0  0  0
  -37.5427   -1.6312  -17.9338 C   0  0  2  0  0  0  0  0  0  0  0  0
  -35.1033   -3.7379  -19.3083 N   0  0  0  0  0  0  0  0  0  0  0  0
  -37.1862   -1.6681  -15.5742 O   0  0  0  0  0  0  0  0  0  0  0  0
  -36.8406   -1.0006  -16.7935 C   0  0  2  0  0  0  0  0  0  0  0  0
  -34.4854   -6.6205  -19.1734 N   0  0  0  0  0  0  0  0  0  0  0  0
  -38.6290    0.5049  -16.3667 O   0  0  0  0  0  0  0  0  0  0  0  0
  -37.2788    0.3888  -16.8461 C   0  0  2  0  0  0  0  0  0  0  0  0
  -35.8785   -4.6299  -18.6727 C   0  0  0  0  0  0  0  0  0  0  0  0
  -37.9345   -4.5294  -17.2847 N   0  0  0  0  0  0  0  0  0  0  0  0
  -36.2233    1.6541  -20.0570 O   0  0  0  0  0  0  0  0  0  0  0  0
  -35.9803    1.1164  -18.7978 C   0  0  0  0  0  0  0  0  0  0  0  0
  -34.3451    0.8793  -21.4452 O   0  0  0  0  0  0  0  0  0  0  0  0
  -35.6425   -2.5183  -19.1201 C   0  0  0  0  0  0  0  0  0  0  0  0
  -36.5011   -6.8347  -18.1358 O   0  0  0  0  0  0  0  0  0  0  0  0
  -35.6575   -6.0873  -18.6304 C   0  0  0  0  0  0  0  0  0  0  0  0
  -36.9076   -3.9614  -18.0732 C   0  0  0  0  0  0  0  0  0  0  0  0
  -35.5152    3.1186  -21.9584 O   0  5  0  0  0  0  0  0  0  0  0  0
  -34.1748    3.0935  -20.0920 O   0  0  0  0  0  0  0  0  0  0  0  0
  1 17  1  0  0  0  0
  1 20  1  0  0  0  0
  2 15  1  6  0  0  0
  2  3  1  0  0  0  0
  2 11  1  0  0  0  0
  3  5  1  0  0  0  0
  4 16  1  6  0  0  0
  4 21  1  0  0  0  0
  4 22  2  0  0  0  0
  4 14  1  0  0  0  0
  5  1  1  6  0  0  0
  5  8  1  0  0  0  0
  6 17  2  0  0  0  0
  6 12  1  0  0  0  0
  8  7  1  1  0  0  0
  8 11  1  0  0  0  0
  9 19  1  0  0  0  0
 11 10  1  6  0  0  0
 12 20  2  0  0  0  0
 12 19  1  0  0  0  0
 13 20  1  0  0  0  0
 14 15  1  0  0  0  0
 18 19  2  0  0  0  0
M  CHG  1  21  -1
M  END
>  <CHROM.1>
34.67929425,79.26108640,76.80738637,-178.26492467,6.71665430,-36.22327955
-1.17594964,-18.82094234,1.75650774,-0.90693726,2.98482270

>  <Name>
ligand

>  <RI>
0

>  <Rbt.Current_Directory>
/home/itssahil/PROJECTS/Mol_Feturizer/New_Systems/rnas/4XWF

>  <Rbt.Executable>
rbdock ($Id: //depot/dev/client3/rdock/2013.1/src/exe/rbdock.cxx#4 $)

>  <Rbt.Library>
libRbt.so (2013.1, Build901 2013/11/27)

>  <Rbt.Parameter_File>
/export/apps/rDock/src/rDock_2013.1_src/data/scripts/dock_solv.prm

>  <Rbt.Receptor>
prm/blind_docking_80.prm

>  <SCORE>
-9.92134

>  <SCORE.INTER>
-9.32945

>  <SCORE.INTER.CONST>
1

>  <SCORE.INTER.POLAR>
0

>  <SCORE.INTER.ROT>
5

>  <SCORE.INTER.SOLV>
18.3395

>  <SCORE.INTER.VDW>
-19.2661

>  <SCORE.INTER.norm>
-0.424066

>  <SCORE.INTRA>
-0.591885

>  <SCORE.INTRA.DIHEDRAL>
-0.34559

>  <SCORE.INTRA.DIHEDRAL.0>
3.49807

>  <SCORE.INTRA.POLAR>
0

>  <SCORE.INTRA.POLAR.0>
0

>  <SCORE.INTRA.REPUL>
0

>  <SCORE.INTRA.REPUL.0>
0

>  <SCORE.INTRA.SOLV>
-0.142099

>  <SCORE.INTRA.SOLV.lig_0>
-73.062

>  <SCORE.INTRA.VDW>
-0.348041

>  <SCORE.INTRA.VDW.0>
-1.83782

>  <SCORE.INTRA.norm>
-0.0269039

>  <SCORE.RESTR>
0

>  <SCORE.RESTR.CAVITY>
0

>  <SCORE.RESTR.norm>
0

>  <SCORE.SYSTEM>
0

>  <SCORE.SYSTEM.CONST>
0

>  <SCORE.SYSTEM.DIHEDRAL>
0

>  <SCORE.SYSTEM.SOLV>
0

>  <SCORE.SYSTEM.norm>
0

>  <SCORE.heavy>
22

>  <SCORE.norm>
-0.45097

>  <RMSD>
13.588

$$$$
ligand
 OpenBabel11021811513D
libRbt.so/2013.1/901 2013/11/27
 22 23  0  0  0  0  0  0  0  0999 V2000
  -33.2597   -3.4823  -17.1666 N   0  0  0  0  0  0  0  0  0  0  0  0
  -34.3908   -3.9834  -14.0166 C   0  0  1  0  0  0  0  0  0  0  0  0
  -33.2479   -3.6898  -14.8695 O   0  0  0  0  0  0  0  0  0  0  0  0
  -35.3342   -7.3571  -12.5768 P   0  0  1  0  0  0  0  0  0  0  0  0
  -33.7149   -2.9224  -15.9907 C   0  0  2  0  0  0  0  0  0  0  0  0
  -32.0751   -3.8265  -18.9524 N   0  0  0  0  0  0  0  0  0  0  0  0
  -35.8161   -2.0052  -16.6538 O   0  0  0  0  0  0  0  0  0  0  0  0
  -35.1841   -3.1019  -15.9834 C   0  0  2  0  0  0  0  0  0  0  0  0
  -34.4402   -6.3380  -20.1611 N   0  0  0  0  0  0  0  0  0  0  0  0
  -35.4447   -1.8905  -13.9556 O   0  0  0  0  0  0  0  0  0  0  0  0
  -35.5123   -3.1903  -14.5658 C   0  0  2  0  0  0  0  0  0  0  0  0
  -32.9862   -4.8072  -18.8585 C   0  0  0  0  0  0  0  0  0  0  0  0
  -34.7850   -5.4163  -17.2595 N   0  0  0  0  0  0  0  0  0  0  0  0
  -35.0765   -5.8362  -12.8576 O   0  0  0  0  0  0  0  0  0  0  0  0
  -34.6526   -5.4463  -14.1234 C   0  0  0  0  0  0  0  0  0  0  0  0
  -35.5008   -7.4105  -11.0147 O   0  0  0  0  0  0  0  0  0  0  0  0
  -32.2513   -3.0012  -17.9030 C   0  0  0  0  0  0  0  0  0  0  0  0
  -32.1716   -6.4936  -20.2832 O   0  0  0  0  0  0  0  0  0  0  0  0
  -33.1533   -5.9213  -19.8101 C   0  0  0  0  0  0  0  0  0  0  0  0
  -33.7340   -4.5989  -17.7348 C   0  0  0  0  0  0  0  0  0  0  0  0
  -36.5303   -7.8140  -13.3438 O   0  5  0  0  0  0  0  0  0  0  0  0
  -34.2692   -8.1857  -13.1701 O   0  0  0  0  0  0  0  0  0  0  0  0
  1 17  1  0  0  0  0
  1 20  1  0  0  0  0
  2 15  1  6  0  0  0
  2  3  1  0  0  0  0
  2 11  1  0  0  0  0
  3  5  1  0  0  0  0
  4 16  1  1  0  0  0
  4 21  1  0  0  0  0
  4 22  2  0  0  0  0
  4 14  1  0  0  0  0
  5  1  1  6  0  0  0
  5  8  1  0  0  0  0
  6 17  2  0  0  0  0
  6 12  1  0  0  0  0
  8  7  1  1  0  0  0
  8 11  1  0  0  0  0
  9 19  1  0  0  0  0
 11 10  1  1  0  0  0
 12 20  2  0  0  0  0
 12 19  1  0  0  0  0
 13 20  1  0  0  0  0
 14 15  1  0  0  0  0
 18 19  2  0  0  0  0
M  CHG  1  21  -1
M  END
>  <CHROM.1>
-103.60971508,144.59442113,168.95945733,-175.17834303,-139.61599663,-34.35594785
-5.03258462,-15.66762724,0.41535903,1.22146475,-0.10611857

>  <Name>
ligand

>  <RI>
0

>  <Rbt.Current_Directory>
/home/itssahil/PROJECTS/Mol_Feturizer/New_Systems/rnas/4XWF

>  <Rbt.Executable>
rbdock ($Id: //depot/dev/client3/rdock/2013.1/src/exe/rbdock.cxx#4 $)

>  <Rbt.Library>
libRbt.so (2013.1, Build901 2013/11/27)

>  <Rbt.Parameter_File>
/export/apps/rDock/src/rDock_2013.1_src/data/scripts/dock_solv.prm

>  <Rbt.Receptor>
prm/blind_docking_40.prm

>  <SCORE>
-4.80769

>  <SCORE.INTER>
-10.8385

>  <SCORE.INTER.CONST>
1

>  <SCORE.INTER.POLAR>
0

>  <SCORE.INTER.ROT>
5

>  <SCORE.INTER.SOLV>
10.6856

>  <SCORE.INTER.VDW>
-17.7209

>  <SCORE.INTER.norm>
-0.492658

>  <SCORE.INTRA>
4.46508

>  <SCORE.INTRA.DIHEDRAL>
1.99616

>  <SCORE.INTRA.DIHEDRAL.0>
3.49807

>  <SCORE.INTRA.POLAR>
0

>  <SCORE.INTRA.POLAR.0>
0

>  <SCORE.INTRA.REPUL>
0

>  <SCORE.INTRA.REPUL.0>
0

>  <SCORE.INTRA.SOLV>
4.94004

>  <SCORE.INTRA.SOLV.lig_0>
-73.062

>  <SCORE.INTRA.VDW>
0.996979

>  <SCORE.INTRA.VDW.0>
-1.83782

>  <SCORE.INTRA.norm>
0.202958

>  <SCORE.RESTR>
1.56571

>  <SCORE.RESTR.CAVITY>
1.56571

>  <SCORE.RESTR.norm>
0.0711685

>  <SCORE.SYSTEM>
0

>  <SCORE.SYSTEM.CONST>
0

>  <SCORE.SYSTEM.DIHEDRAL>
0

>  <SCORE.SYSTEM.SOLV>
0

>  <SCORE.SYSTEM.norm>
0

>  <SCORE.heavy>
22

>  <SCORE.norm>
-0.218532

>  <RMSD>
13.589

$$$$
ligand
 OpenBabel11021811513D
libRbt.so/2013.1/901 2013/11/27
 22 23  0  0  0  0  0  0  0  0999 V2000
  -32.9810    4.8343  -20.7753 N   0  0  0  0  0  0  0  0  0  0  0  0
  -35.0388    2.2767  -21.5978 C   0  0  1  0  0  0  0  0  0  0  0  0
  -33.9789    3.1763  -22.0303 O   0  0  0  0  0  0  0  0  0  0  0  0
  -37.6557    4.3579  -23.3740 P   0  0  1  0  0  0  0  0  0  0  0  0
  -33.1530    3.4705  -20.8920 C   0  0  2  0  0  0  0  0  0  0  0  0
  -33.1878    6.9666  -21.1239 N   0  0  0  0  0  0  0  0  0  0  0  0
  -33.1005    2.7626  -18.6134 O   0  0  0  0  0  0  0  0  0  0  0  0
  -33.9586    3.0490  -19.7240 C   0  0  2  0  0  0  0  0  0  0  0  0
  -31.7994    7.8614  -17.9141 N   0  0  0  0  0  0  0  0  0  0  0  0
  -33.8198    0.7487  -20.3040 O   0  0  0  0  0  0  0  0  0  0  0  0
  -34.6918    1.8879  -20.2134 C   0  0  2  0  0  0  0  0  0  0  0  0
  -32.3637    6.7908  -20.0796 C   0  0  0  0  0  0  0  0  0  0  0  0
  -31.4683    4.8419  -18.8292 N   0  0  0  0  0  0  0  0  0  0  0  0
  -36.4786    3.3996  -22.9806 O   0  0  0  0  0  0  0  0  0  0  0  0
  -36.3135    3.0467  -21.6457 C   0  0  0  0  0  0  0  0  0  0  0  0
  -37.2541    5.7173  -22.6949 O   0  0  0  0  0  0  0  0  0  0  0  0
  -33.5652    5.7490  -21.5580 C   0  0  0  0  0  0  0  0  0  0  0  0
  -31.1005    8.7664  -19.8833 O   0  0  0  0  0  0  0  0  0  0  0  0
  -31.7095    7.8642  -19.3087 C   0  0  0  0  0  0  0  0  0  0  0  0
  -32.2309    5.4507  -19.8521 C   0  0  0  0  0  0  0  0  0  0  0  0
  -37.7779    4.4196  -24.8603 O   0  5  0  0  0  0  0  0  0  0  0  0
  -38.9545    3.7727  -22.9953 O   0  0  0  0  0  0  0  0  0  0  0  0
  1 17  1  0  0  0  0
  1 20  1  0  0  0  0
  2 15  1  1  0  0  0
  2  3  1  0  0  0  0
  2 11  1  0  0  0  0
  3  5  1  0  0  0  0
  4 16  1  1  0  0  0
  4 21  1  0  0  0  0
  4 22  2  0  0  0  0
  4 14  1  0  0  0  0
  5  1  1  1  0  0  0
  5  8  1  0  0  0  0
  6 17  2  0  0  0  0
  6 12  1  0  0  0  0
  8  7  1  1  0  0  0
  8 11  1  0  0  0  0
  9 19  1  0  0  0  0
 11 10  1  6  0  0  0
 12 20  2  0  0  0  0
 12 19  1  0  0  0  0
 13 20  1  0  0  0  0
 14 15  1  0  0  0  0
 18 19  2  0  0  0  0
M  CHG  1  21  -1
M  END
>  <CHROM.1>
3.79878044,61.99109195,66.72851801,-173.58677495,129.56137424,-34.48159481
4.54139377,-21.15315302,-0.28606750,0.65704479,2.95000830

>  <Name>
ligand

>  <RI>
0

>  <Rbt.Current_Directory>
/home/itssahil/PROJECTS/Mol_Feturizer/New_Systems/rnas/4XWF

>  <Rbt.Executable>
rbdock ($Id: //depot/dev/client3/rdock/2013.1/src/exe/rbdock.cxx#4 $)

>  <Rbt.Library>
libRbt.so (2013.1, Build901 2013/11/27)

>  <Rbt.Parameter_File>
/export/apps/rDock/src/rDock_2013.1_src/data/scripts/dock_solv.prm

>  <Rbt.Receptor>
prm/blind_docking_100.prm

>  <SCORE>
-9.77212

>  <SCORE.INTER>
-9.53573

>  <SCORE.INTER.CONST>
1

>  <SCORE.INTER.POLAR>
0

>  <SCORE.INTER.ROT>
5

>  <SCORE.INTER.SOLV>
18.9266

>  <SCORE.INTER.VDW>
-19.5993

>  <SCORE.INTER.norm>
-0.433442

>  <SCORE.INTRA>
-0.236389

>  <SCORE.INTRA.DIHEDRAL>
-1.60635

>  <SCORE.INTRA.DIHEDRAL.0>
3.49807

>  <SCORE.INTRA.POLAR>
0

>  <SCORE.INTRA.POLAR.0>
0

>  <SCORE.INTRA.REPUL>
0

>  <SCORE.INTRA.REPUL.0>
0

>  <SCORE.INTRA.SOLV>
1.18551

>  <SCORE.INTRA.SOLV.lig_0>
-73.062

>  <SCORE.INTRA.VDW>
-0.025969

>  <SCORE.INTRA.VDW.0>
-1.83782

>  <SCORE.INTRA.norm>
-0.0107449

>  <SCORE.RESTR>
0

>  <SCORE.RESTR.CAVITY>
0

>  <SCORE.RESTR.norm>
0

>  <SCORE.SYSTEM>
0

>  <SCORE.SYSTEM.CONST>
0

>  <SCORE.SYSTEM.DIHEDRAL>
0

>  <SCORE.SYSTEM.SOLV>
0

>  <SCORE.SYSTEM.norm>
0

>  <SCORE.heavy>
22

>  <SCORE.norm>
-0.444187

>  <RMSD>
13.621

$$$$
ligand
 OpenBabel11021811513D
libRbt.so/2013.1/901 2013/11/27
 22 23  0  0  0  0  0  0  0  0999 V2000
  -32.9507    5.0046  -20.7769 N   0  0  0  0  0  0  0  0  0  0  0  0
  -34.8785    2.3319  -21.5470 C   0  0  1  0  0  0  0  0  0  0  0  0
  -33.8642    3.2741  -21.9979 O   0  0  0  0  0  0  0  0  0  0  0  0
  -37.5986    4.2489  -23.3574 P   0  0  1  0  0  0  0  0  0  0  0  0
  -33.0547    3.6318  -20.8660 C   0  0  2  0  0  0  0  0  0  0  0  0
  -33.2649    7.1165  -21.1666 N   0  0  0  0  0  0  0  0  0  0  0  0
  -32.9689    2.9736  -18.5735 O   0  0  0  0  0  0  0  0  0  0  0  0
  -33.8393    3.1946  -19.6895 C   0  0  2  0  0  0  0  0  0  0  0  0
  -32.2306    9.4311  -19.6557 N   0  0  0  0  0  0  0  0  0  0  0  0
  -33.5862    0.8927  -20.2228 O   0  0  0  0  0  0  0  0  0  0  0  0
  -34.5136    1.9889  -20.1550 C   0  0  2  0  0  0  0  0  0  0  0  0
  -32.4295    7.0029  -20.1227 C   0  0  0  0  0  0  0  0  0  0  0  0
  -31.4336    5.1263  -18.8380 N   0  0  0  0  0  0  0  0  0  0  0  0
  -36.3448    3.4037  -22.9424 O   0  0  0  0  0  0  0  0  0  0  0  0
  -36.1898    3.0366  -21.6101 C   0  0  0  0  0  0  0  0  0  0  0  0
  -38.8023    3.3947  -22.8170 O   0  0  0  0  0  0  0  0  0  0  0  0
  -33.5824    5.8732  -21.5750 C   0  0  0  0  0  0  0  0  0  0  0  0
  -30.9648    7.9147  -18.5225 O   0  0  0  0  0  0  0  0  0  0  0  0
  -31.8271    8.1227  -19.3759 C   0  0  0  0  0  0  0  0  0  0  0  0
  -32.2292    5.6758  -19.8694 C   0  0  0  0  0  0  0  0  0  0  0  0
  -37.4978    5.6181  -22.7717 O   0  5  0  0  0  0  0  0  0  0  0  0
  -37.5753    4.5434  -24.8015 O   0  0  0  0  0  0  0  0  0  0  0  0
  1 17  1  0  0  0  0
  1 20  1  0  0  0  0
  2 15  1  1  0  0  0
  2  3  1  0  0  0  0
  2 11  1  0  0  0  0
  3  5  1  0  0  0  0
  4 16  1  1  0  0  0
  4 21  1  0  0  0  0
  4 22  2  0  0  0  0
  4 14  1  0  0  0  0
  5  1  1  1  0  0  0
  5  8  1  0  0  0  0
  6 17  2  0  0  0  0
  6 12  1  0  0  0  0
  8  7  1  1  0  0  0
  8 11  1  0  0  0  0
  9 19  1  0  0  0  0
 11 10  1  6  0  0  0
 12 20  2  0  0  0  0
 12 19  1  0  0  0  0
 13 20  1  0  0  0  0
 14 15  1  0  0  0  0
 18 19  2  0  0  0  0
M  CHG  1  21  -1
M  END
>  <CHROM.1>
4.03570391,59.54737978,-54.18182519,-176.53234423,6.79809631,-34.43324001
4.63509744,-21.14175579,-0.35248456,0.65377748,2.98385423

>  <Name>
ligand

>  <RI>
0

>  <Rbt.Current_Directory>
/home/itssahil/PROJECTS/Mol_Feturizer/New_Systems/rnas/4XWF

>  <Rbt.Executable>
rbdock ($Id: //depot/dev/client3/rdock/2013.1/src/exe/rbdock.cxx#4 $)

>  <Rbt.Library>
libRbt.so (2013.1, Build901 2013/11/27)

>  <Rbt.Parameter_File>
/export/apps/rDock/src/rDock_2013.1_src/data/scripts/dock_solv.prm

>  <Rbt.Receptor>
prm/blind_docking_80.prm

>  <SCORE>
-10.5595

>  <SCORE.INTER>
-10.4679

>  <SCORE.INTER.CONST>
1

>  <SCORE.INTER.POLAR>
0

>  <SCORE.INTER.ROT>
5

>  <SCORE.INTER.SOLV>
17.7477

>  <SCORE.INTER.VDW>
-19.8278

>  <SCORE.INTER.norm>
-0.475814

>  <SCORE.INTRA>
-0.0915877

>  <SCORE.INTRA.DIHEDRAL>
-1.83274

>  <SCORE.INTRA.DIHEDRAL.0>
3.49807

>  <SCORE.INTRA.POLAR>
0

>  <SCORE.INTRA.POLAR.0>
0

>  <SCORE.INTRA.REPUL>
0

>  <SCORE.INTRA.REPUL.0>
0

>  <SCORE.INTRA.SOLV>
1.03128

>  <SCORE.INTRA.SOLV.lig_0>
-73.062

>  <SCORE.INTRA.VDW>
0.309145

>  <SCORE.INTRA.VDW.0>
-1.83782

>  <SCORE.INTRA.norm>
-0.00416308

>  <SCORE.RESTR>
0

>  <SCORE.RESTR.CAVITY>
0

>  <SCORE.RESTR.norm>
0

>  <SCORE.SYSTEM>
0

>  <SCORE.SYSTEM.CONST>
0

>  <SCORE.SYSTEM.DIHEDRAL>
0

>  <SCORE.SYSTEM.SOLV>
0

>  <SCORE.SYSTEM.norm>
0

>  <SCORE.heavy>
22

>  <SCORE.norm>
-0.479977

>  <RMSD>
13.621

$$$$
ligand
 OpenBabel11021811513D
libRbt.so/2013.1/901 2013/11/27
 22 23  0  0  0  0  0  0  0  0999 V2000
  -32.8771    5.0943  -20.7441 N   0  0  0  0  0  0  0  0  0  0  0  0
  -34.8409    2.5089  -21.6990 C   0  0  1  0  0  0  0  0  0  0  0  0
  -33.7471    3.4037  -22.0497 O   0  0  0  0  0  0  0  0  0  0  0  0
  -37.4333    4.2913  -23.8112 P   0  0  1  0  0  0  0  0  0  0  0  0
  -33.0336    3.7274  -20.8453 C   0  0  2  0  0  0  0  0  0  0  0  0
  -33.0968    7.2195  -21.1266 N   0  0  0  0  0  0  0  0  0  0  0  0
  -33.1957    3.0714  -18.5563 O   0  0  0  0  0  0  0  0  0  0  0  0
  -33.9453    3.3285  -19.7495 C   0  0  2  0  0  0  0  0  0  0  0  0
  -31.8586    9.4808  -19.6959 N   0  0  0  0  0  0  0  0  0  0  0  0
  -33.7461    1.0164  -20.2609 O   0  0  0  0  0  0  0  0  0  0  0  0
  -34.6257    2.1532  -20.2794 C   0  0  2  0  0  0  0  0  0  0  0  0
  -32.2929    7.0662  -20.0632 C   0  0  0  0  0  0  0  0  0  0  0  0
  -31.4053    5.1435  -18.7674 N   0  0  0  0  0  0  0  0  0  0  0  0
  -36.1917    3.5139  -23.2519 O   0  0  0  0  0  0  0  0  0  0  0  0
  -36.1073    3.2716  -21.8852 C   0  0  0  0  0  0  0  0  0  0  0  0
  -37.3389    4.0506  -25.3616 O   0  0  0  0  0  0  0  0  0  0  0  0
  -33.4535    5.9924  -21.5514 C   0  0  0  0  0  0  0  0  0  0  0  0
  -30.9631    7.9080  -18.3139 O   0  0  0  0  0  0  0  0  0  0  0  0
  -31.6651    8.1565  -19.2940 C   0  0  0  0  0  0  0  0  0  0  0  0
  -32.1522    5.7306  -19.8143 C   0  0  0  0  0  0  0  0  0  0  0  0
  -38.6799    3.7694  -23.1776 O   0  5  0  0  0  0  0  0  0  0  0  0
  -37.4281    5.6893  -23.3442 O   0  0  0  0  0  0  0  0  0  0  0  0
  1 17  1  0  0  0  0
  1 20  1  0  0  0  0
  2 15  1  1  0  0  0
  2  3  1  0  0  0  0
  2 11  1  0  0  0  0
  3  5  1  0  0  0  0
  4 16  1  6  0  0  0
  4 21  1  0  0  0  0
  4 22  2  0  0  0  0
  4 14  1  0  0  0  0
  5  1  1  6  0  0  0
  5  8  1  0  0  0  0
  6 17  2  0  0  0  0
  6 12  1  0  0  0  0
  8  7  1  1  0  0  0
  8 11  1  0  0  0  0
  9 19  1  0  0  0  0
 11 10  1  6  0  0  0
 12 20  2  0  0  0  0
 12 19  1  0  0  0  0
 13 20  1  0  0  0  0
 14 15  1  0  0  0  0
 18 19  2  0  0  0  0
M  CHG  1  21  -1
M  END
>  <CHROM.1>
8.09608758,65.95721520,-166.63647243,179.15300172,-2.30939237,-34.35948246
4.71244868,-21.27726586,-0.28636070,0.72703352,2.92704538

>  <Name>
ligand

>  <RI>
0

>  <Rbt.Current_Directory>
/home/itssahil/PROJECTS/Mol_Feturizer/New_Systems/rnas/4XWF

>  <Rbt.Executable>
rbdock ($Id: //depot/dev/client3/rdock/2013.1/src/exe/rbdock.cxx#4 $)

>  <Rbt.Library>
libRbt.so (2013.1, Build901 2013/11/27)

>  <Rbt.Parameter_File>
/export/apps/rDock/src/rDock_2013.1_src/data/scripts/dock_solv.prm

>  <Rbt.Receptor>
prm/blind_docking_100.prm

>  <SCORE>
-12.9409

>  <SCORE.INTER>
-12.9813

>  <SCORE.INTER.CONST>
1

>  <SCORE.INTER.POLAR>
0

>  <SCORE.INTER.ROT>
5

>  <SCORE.INTER.SOLV>
16.5002

>  <SCORE.INTER.VDW>
-21.0876

>  <SCORE.INTER.norm>
-0.590058

>  <SCORE.INTRA>
0.0404087

>  <SCORE.INTRA.DIHEDRAL>
-1.62285

>  <SCORE.INTRA.DIHEDRAL.0>
3.49807

>  <SCORE.INTRA.POLAR>
0

>  <SCORE.INTRA.POLAR.0>
0

>  <SCORE.INTRA.REPUL>
0

>  <SCORE.INTRA.REPUL.0>
0

>  <SCORE.INTRA.SOLV>
1.50014

>  <SCORE.INTRA.SOLV.lig_0>
-73.062

>  <SCORE.INTRA.VDW>
0.101765

>  <SCORE.INTRA.VDW.0>
-1.83782

>  <SCORE.INTRA.norm>
0.00183676

>  <SCORE.RESTR>
0

>  <SCORE.RESTR.CAVITY>
0

>  <SCORE.RESTR.norm>
0

>  <SCORE.SYSTEM>
0

>  <SCORE.SYSTEM.CONST>
0

>  <SCORE.SYSTEM.DIHEDRAL>
0

>  <SCORE.SYSTEM.SOLV>
0

>  <SCORE.SYSTEM.norm>
0

>  <SCORE.heavy>
22

>  <SCORE.norm>
-0.588221

>  <RMSD>
13.694

$$$$
ligand
 OpenBabel11021811513D
libRbt.so/2013.1/901 2013/11/27
 22 23  0  0  0  0  0  0  0  0999 V2000
  -33.0331    3.9193  -20.1971 N   0  0  0  0  0  0  0  0  0  0  0  0
  -35.9556    3.1762  -21.7332 C   0  0  1  0  0  0  0  0  0  0  0  0
  -34.5865    3.6492  -21.8806 O   0  0  0  0  0  0  0  0  0  0  0  0
  -37.7910    4.9623  -23.4496 P   0  0  1  0  0  0  0  0  0  0  0  0
  -33.7792    2.9897  -20.8917 C   0  0  2  0  0  0  0  0  0  0  0  0
  -31.6677    4.7898  -18.7519 N   0  0  0  0  0  0  0  0  0  0  0  0
  -34.1679    1.3191  -19.2323 O   0  0  0  0  0  0  0  0  0  0  0  0
  -34.7509    2.4279  -19.9268 C   0  0  2  0  0  0  0  0  0  0  0  0
  -30.8167    7.6004  -18.4895 N   0  0  0  0  0  0  0  0  0  0  0  0
  -35.6036    0.8700  -21.5057 O   0  0  0  0  0  0  0  0  0  0  0  0
  -35.8909    2.0645  -20.7595 C   0  0  2  0  0  0  0  0  0  0  0  0
  -32.0854    5.7649  -19.5737 C   0  0  0  0  0  0  0  0  0  0  0  0
  -33.5883    5.9072  -21.5447 N   0  0  0  0  0  0  0  0  0  0  0  0
  -36.8174    5.2342  -22.2510 O   0  0  0  0  0  0  0  0  0  0  0  0
  -36.7586    4.3162  -21.2081 C   0  0  0  0  0  0  0  0  0  0  0  0
  -37.0734    3.8091  -24.2406 O   0  0  0  0  0  0  0  0  0  0  0  0
  -32.2629    3.6452  -19.1378 C   0  0  0  0  0  0  0  0  0  0  0  0
  -32.1253    7.9995  -20.3099 O   0  0  0  0  0  0  0  0  0  0  0  0
  -31.6869    7.1828  -19.5001 C   0  0  0  0  0  0  0  0  0  0  0  0
  -32.9432    5.2238  -20.4885 C   0  0  0  0  0  0  0  0  0  0  0  0
  -39.1436    4.6074  -22.9276 O   0  5  0  0  0  0  0  0  0  0  0  0
  -38.0759    6.2080  -24.1842 O   0  0  0  0  0  0  0  0  0  0  0  0
  1 17  1  0  0  0  0
  1 20  1  0  0  0  0
  2 15  1  1  0  0  0
  2  3  1  0  0  0  0
  2 11  1  0  0  0  0
  3  5  1  0  0  0  0
  4 16  1  6  0  0  0
  4 21  1  0  0  0  0
  4 22  2  0  0  0  0
  4 14  1  0  0  0  0
  5  1  1  1  0  0  0
  5  8  1  0  0  0  0
  6 17  2  0  0  0  0
  6 12  1  0  0  0  0
  8  7  1  6  0  0  0
  8 11  1  0  0  0  0
  9 19  1  0  0  0  0
 11 10  1  6  0  0  0
 12 20  2  0  0  0  0
 12 19  1  0  0  0  0
 13 20  1  0  0  0  0
 14 15  1  0  0  0  0
 18 19  2  0  0  0  0
M  CHG  1  21  -1
M  END
>  <CHROM.1>
174.19602843,69.16051758,-73.83426264,76.61292042,-1.13702649,-34.85580919
4.45202951,-21.21999242,-0.05779214,0.60823487,2.88464197

>  <Name>
ligand

>  <RI>
0

>  <Rbt.Current_Directory>
/home/itssahil/PROJECTS/Mol_Feturizer/New_Systems/rnas/4XWF

>  <Rbt.Executable>
rbdock ($Id: //depot/dev/client3/rdock/2013.1/src/exe/rbdock.cxx#4 $)

>  <Rbt.Library>
libRbt.so (2013.1, Build901 2013/11/27)

>  <Rbt.Parameter_File>
/export/apps/rDock/src/rDock_2013.1_src/data/scripts/dock_solv.prm

>  <Rbt.Receptor>
prm/blind_docking_60.prm

>  <SCORE>
-8.05392

>  <SCORE.INTER>
-10.8825

>  <SCORE.INTER.CONST>
1

>  <SCORE.INTER.POLAR>
0

>  <SCORE.INTER.ROT>
5

>  <SCORE.INTER.SOLV>
12.8365

>  <SCORE.INTER.VDW>
-18.4671

>  <SCORE.INTER.norm>
-0.494657

>  <SCORE.INTRA>
2.82853

>  <SCORE.INTRA.DIHEDRAL>
-0.0584585

>  <SCORE.INTRA.DIHEDRAL.0>
3.49807

>  <SCORE.INTRA.POLAR>
0

>  <SCORE.INTRA.POLAR.0>
0

>  <SCORE.INTRA.REPUL>
0

>  <SCORE.INTRA.REPUL.0>
0

>  <SCORE.INTRA.SOLV>
3.84537

>  <SCORE.INTRA.SOLV.lig_0>
-73.062

>  <SCORE.INTRA.VDW>
0.935077

>  <SCORE.INTRA.VDW.0>
-1.83782

>  <SCORE.INTRA.norm>
0.12857

>  <SCORE.RESTR>
0

>  <SCORE.RESTR.CAVITY>
0

>  <SCORE.RESTR.norm>
0

>  <SCORE.SYSTEM>
0

>  <SCORE.SYSTEM.CONST>
0

>  <SCORE.SYSTEM.DIHEDRAL>
0

>  <SCORE.SYSTEM.SOLV>
0

>  <SCORE.SYSTEM.norm>
0

>  <SCORE.heavy>
22

>  <SCORE.norm>
-0.366087

>  <RMSD>
13.768

$$$$
ligand
 OpenBabel11021811513D
libRbt.so/2013.1/901 2013/11/27
 22 23  0  0  0  0  0  0  0  0999 V2000
  -32.9612    6.1007  -20.9438 N   0  0  0  0  0  0  0  0  0  0  0  0
  -34.2522    3.0128  -21.4448 C   0  0  1  0  0  0  0  0  0  0  0  0
  -33.4419    4.0973  -21.9807 O   0  0  0  0  0  0  0  0  0  0  0  0
  -37.2434    4.0856  -23.5050 P   0  0  1  0  0  0  0  0  0  0  0  0
  -32.7707    4.7357  -20.8825 C   0  0  2  0  0  0  0  0  0  0  0  0
  -33.7959    8.0354  -21.4645 N   0  0  0  0  0  0  0  0  0  0  0  0
  -32.6379    4.3541  -18.5303 O   0  0  0  0  0  0  0  0  0  0  0  0
  -33.4910    4.2665  -19.6776 C   0  0  2  0  0  0  0  0  0  0  0  0
  -33.2364   10.6156  -20.0623 N   0  0  0  0  0  0  0  0  0  0  0  0
  -32.7389    2.0288  -19.9495 O   0  0  0  0  0  0  0  0  0  0  0  0
  -33.8780    2.9029  -20.0179 C   0  0  2  0  0  0  0  0  0  0  0  0
  -32.7978    8.2315  -20.5894 C   0  0  0  0  0  0  0  0  0  0  0  0
  -31.2145    6.7811  -19.3432 N   0  0  0  0  0  0  0  0  0  0  0  0
  -35.8686    3.5470  -22.9771 O   0  0  0  0  0  0  0  0  0  0  0  0
  -35.6789    3.4111  -21.6063 C   0  0  0  0  0  0  0  0  0  0  0  0
  -37.1489    3.8513  -25.0564 O   0  0  0  0  0  0  0  0  0  0  0  0
  -33.8913    6.7107  -21.6876 C   0  0  0  0  0  0  0  0  0  0  0  0
  -31.1915    9.6900  -19.6783 O   0  0  0  0  0  0  0  0  0  0  0  0
  -32.3461    9.5385  -20.0771 C   0  0  0  0  0  0  0  0  0  0  0  0
  -32.2692    7.0175  -20.2545 C   0  0  0  0  0  0  0  0  0  0  0  0
  -38.3596    3.3557  -22.8347 O   0  5  0  0  0  0  0  0  0  0  0  0
  -37.4752    5.4664  -23.0443 O   0  0  0  0  0  0  0  0  0  0  0  0
  1 17  1  0  0  0  0
  1 20  1  0  0  0  0
  2 15  1  1  0  0  0
  2  3  1  0  0  0  0
  2 11  1  0  0  0  0
  3  5  1  0  0  0  0
  4 16  1  6  0  0  0
  4 21  1  0  0  0  0
  4 22  2  0  0  0  0
  4 14  1  0  0  0  0
  5  1  1  6  0  0  0
  5  8  1  0  0  0  0
  6 17  2  0  0  0  0
  6 12  1  0  0  0  0
  8  7  1  1  0  0  0
  8 11  1  0  0  0  0
  9 19  1  0  0  0  0
 11 10  1  6  0  0  0
 12 20  2  0  0  0  0
 12 19  1  0  0  0  0
 13 20  1  0  0  0  0
 14 15  1  0  0  0  0
 18 19  2  0  0  0  0
M  CHG  1  21  -1
M  END
>  <CHROM.1>
15.77764385,61.69462048,-170.40466100,-174.68464418,24.85598059,-34.27147143
5.38013734,-21.33370630,-0.61282447,0.67650497,3.02427151

>  <Name>
ligand

>  <RI>
0

>  <Rbt.Current_Directory>
/home/itssahil/PROJECTS/Mol_Feturizer/New_Systems/rnas/4XWF

>  <Rbt.Executable>
rbdock ($Id: //depot/dev/client3/rdock/2013.1/src/exe/rbdock.cxx#4 $)

>  <Rbt.Library>
libRbt.so (2013.1, Build901 2013/11/27)

>  <Rbt.Parameter_File>
/export/apps/rDock/src/rDock_2013.1_src/data/scripts/dock_solv.prm

>  <Rbt.Receptor>
prm/blind_docking_60.prm

>  <SCORE>
-11.1469

>  <SCORE.INTER>
-10.9382

>  <SCORE.INTER.CONST>
1

>  <SCORE.INTER.POLAR>
0

>  <SCORE.INTER.ROT>
5

>  <SCORE.INTER.SOLV>
17.3869

>  <SCORE.INTER.VDW>
-20.0211

>  <SCORE.INTER.norm>
-0.497191

>  <SCORE.INTRA>
-0.208732

>  <SCORE.INTRA.DIHEDRAL>
-1.11955

>  <SCORE.INTRA.DIHEDRAL.0>
3.49807

>  <SCORE.INTRA.POLAR>
0

>  <SCORE.INTRA.POLAR.0>
0

>  <SCORE.INTRA.REPUL>
0

>  <SCORE.INTRA.REPUL.0>
0

>  <SCORE.INTRA.SOLV>
1.2079

>  <SCORE.INTRA.SOLV.lig_0>
-73.062

>  <SCORE.INTRA.VDW>
-0.252907

>  <SCORE.INTRA.VDW.0>
-1.83782

>  <SCORE.INTRA.norm>
-0.00948784

>  <SCORE.RESTR>
0

>  <SCORE.RESTR.CAVITY>
0

>  <SCORE.RESTR.norm>
0

>  <SCORE.SYSTEM>
0

>  <SCORE.SYSTEM.CONST>
0

>  <SCORE.SYSTEM.DIHEDRAL>
0

>  <SCORE.SYSTEM.SOLV>
0

>  <SCORE.SYSTEM.norm>
0

>  <SCORE.heavy>
22

>  <SCORE.norm>
-0.506679

>  <RMSD>
13.784

$$$$
ligand
 OpenBabel11021811513D
libRbt.so/2013.1/901 2013/11/27
 22 23  0  0  0  0  0  0  0  0999 V2000
  -33.3945    4.0478  -20.7394 N   0  0  0  0  0  0  0  0  0  0  0  0
  -35.7787    1.7612  -21.4740 C   0  0  1  0  0  0  0  0  0  0  0  0
  -34.5859    2.4660  -21.9218 O   0  0  0  0  0  0  0  0  0  0  0  0
  -37.8481    4.2620  -23.4180 P   0  0  1  0  0  0  0  0  0  0  0  0
  -33.7606    2.7181  -20.7731 C   0  0  2  0  0  0  0  0  0  0  0  0
  -33.3254    6.1699  -21.1900 N   0  0  0  0  0  0  0  0  0  0  0  0
  -33.8811    2.1734  -18.4526 O   0  0  0  0  0  0  0  0  0  0  0  0
  -34.6541    2.5009  -19.6132 C   0  0  2  0  0  0  0  0  0  0  0  0
  -31.6107    8.2454  -19.9845 N   0  0  0  0  0  0  0  0  0  0  0  0
  -34.8361    0.1693  -20.0346 O   0  0  0  0  0  0  0  0  0  0  0  0
  -35.5342    1.4257  -20.0542 C   0  0  2  0  0  0  0  0  0  0  0  0
  -32.4698    5.9269  -20.1852 C   0  0  0  0  0  0  0  0  0  0  0  0
  -31.7765    3.9297  -18.8837 N   0  0  0  0  0  0  0  0  0  0  0  0
  -36.8960    3.1059  -22.9538 O   0  0  0  0  0  0  0  0  0  0  0  0
  -36.9249    2.7014  -21.6236 C   0  0  0  0  0  0  0  0  0  0  0  0
  -39.2818    3.6732  -23.1564 O   0  0  0  0  0  0  0  0  0  0  0  0
  -33.8941    4.9994  -21.5365 C   0  0  0  0  0  0  0  0  0  0  0  0
  -30.9281    6.6167  -18.5468 O   0  0  0  0  0  0  0  0  0  0  0  0
  -31.6264    6.9309  -19.5105 C   0  0  0  0  0  0  0  0  0  0  0  0
  -32.5100    4.5931  -19.8938 C   0  0  0  0  0  0  0  0  0  0  0  0
  -37.5392    5.5053  -22.6521 O   0  5  0  0  0  0  0  0  0  0  0  0
  -37.5311    4.6782  -24.7961 O   0  0  0  0  0  0  0  0  0  0  0  0
  1 17  1  0  0  0  0
  1 20  1  0  0  0  0
  2 15  1  1  0  0  0
  2  3  1  0  0  0  0
  2 11  1  0  0  0  0
  3  5  1  0  0  0  0
  4 16  1  1  0  0  0
  4 21  1  0  0  0  0
  4 22  2  0  0  0  0
  4 14  1  0  0  0  0
  5  1  1  6  0  0  0
  5  8  1  0  0  0  0
  6 17  2  0  0  0  0
  6 12  1  0  0  0  0
  8  7  1  1  0  0  0
  8 11  1  0  0  0  0
  9 19  1  0  0  0  0
 11 10  1  6  0  0  0
 12 20  2  0  0  0  0
 12 19  1  0  0  0  0
 13 20  1  0  0  0  0
 14 15  1  0  0  0  0
 18 19  2  0  0  0  0
M  CHG  1  21  -1
M  END
>  <CHROM.1>
9.33274408,54.95125764,-62.13372484,-171.46397440,-4.91516681,-34.83797408
4.00077863,-21.14991329,-0.09006520,0.62647932,2.77444567

>  <Name>
ligand

>  <RI>
0

>  <Rbt.Current_Directory>
/home/itssahil/PROJECTS/Mol_Feturizer/New_Systems/rnas/4XWF

>  <Rbt.Executable>
rbdock ($Id: //depot/dev/client3/rdock/2013.1/src/exe/rbdock.cxx#4 $)

>  <Rbt.Library>
libRbt.so (2013.1, Build901 2013/11/27)

>  <Rbt.Parameter_File>
/export/apps/rDock/src/rDock_2013.1_src/data/scripts/dock_solv.prm

>  <Rbt.Receptor>
prm/blind_docking_100.prm

>  <SCORE>
-10.1505

>  <SCORE.INTER>
-9.91486

>  <SCORE.INTER.CONST>
1

>  <SCORE.INTER.POLAR>
0

>  <SCORE.INTER.ROT>
5

>  <SCORE.INTER.SOLV>
17.5969

>  <SCORE.INTER.VDW>
-19.4089

>  <SCORE.INTER.norm>
-0.450675

>  <SCORE.INTRA>
-0.235678

>  <SCORE.INTRA.DIHEDRAL>
-1.51949

>  <SCORE.INTRA.DIHEDRAL.0>
3.49807

>  <SCORE.INTRA.POLAR>
0

>  <SCORE.INTRA.POLAR.0>
0

>  <SCORE.INTRA.REPUL>
0

>  <SCORE.INTRA.REPUL.0>
0

>  <SCORE.INTRA.SOLV>
1.07916

>  <SCORE.INTRA.SOLV.lig_0>
-73.062

>  <SCORE.INTRA.VDW>
-0.0155136

>  <SCORE.INTRA.VDW.0>
-1.83782

>  <SCORE.INTRA.norm>
-0.0107126

>  <SCORE.RESTR>
0

>  <SCORE.RESTR.CAVITY>
0

>  <SCORE.RESTR.norm>
0

>  <SCORE.SYSTEM>
0

>  <SCORE.SYSTEM.CONST>
0

>  <SCORE.SYSTEM.DIHEDRAL>
0

>  <SCORE.SYSTEM.SOLV>
0

>  <SCORE.SYSTEM.norm>
0

>  <SCORE.heavy>
22

>  <SCORE.norm>
-0.461388

>  <RMSD>
13.789

$$$$
ligand
 OpenBabel11021811513D
libRbt.so/2013.1/901 2013/11/27
 22 23  0  0  0  0  0  0  0  0999 V2000
  -34.6289   -4.6608  -14.5228 N   0  0  0  0  0  0  0  0  0  0  0  0
  -33.0023   -6.8838  -12.5567 C   0  0  1  0  0  0  0  0  0  0  0  0
  -33.0394   -5.5320  -13.0964 O   0  0  0  0  0  0  0  0  0  0  0  0
  -31.9817  -10.2524  -13.9542 P   0  0  1  0  0  0  0  0  0  0  0  0
  -34.4165   -5.1526  -13.2514 C   0  0  2  0  0  0  0  0  0  0  0  0
  -34.7757   -4.5578  -16.6858 N   0  0  0  0  0  0  0  0  0  0  0  0
  -36.5168   -6.1695  -12.7509 O   0  0  0  0  0  0  0  0  0  0  0  0
  -35.1691   -6.4241  -13.1637 C   0  0  2  0  0  0  0  0  0  0  0  0
  -35.0804   -1.9885  -18.2347 N   0  0  0  0  0  0  0  0  0  0  0  0
  -34.6239   -6.7304  -10.8711 O   0  0  0  0  0  0  0  0  0  0  0  0
  -34.4017   -7.2122  -12.2070 C   0  0  2  0  0  0  0  0  0  0  0  0
  -35.1726   -3.3790  -16.1823 C   0  0  0  0  0  0  0  0  0  0  0  0
  -35.4319   -2.4123  -13.9104 N   0  0  0  0  0  0  0  0  0  0  0  0
  -32.3826   -9.0316  -13.0555 O   0  0  0  0  0  0  0  0  0  0  0  0
  -32.4860   -7.7721  -13.6357 C   0  0  0  0  0  0  0  0  0  0  0  0
  -32.2077  -11.4856  -13.0061 O   0  0  0  0  0  0  0  0  0  0  0  0
  -34.4326   -5.3504  -15.6526 C   0  0  0  0  0  0  0  0  0  0  0  0
  -36.4624   -1.4384  -16.5105 O   0  0  0  0  0  0  0  0  0  0  0  0
  -35.6244   -2.2155  -16.9676 C   0  0  0  0  0  0  0  0  0  0  0  0
  -35.0858   -3.4372  -14.8206 C   0  0  0  0  0  0  0  0  0  0  0  0
  -32.8162  -10.2607  -15.1917 O   0  5  0  0  0  0  0  0  0  0  0  0
  -30.6295  -10.0691  -14.5115 O   0  0  0  0  0  0  0  0  0  0  0  0
  1 17  1  0  0  0  0
  1 20  1  0  0  0  0
  2 15  1  6  0  0  0
  2  3  1  0  0  0  0
  2 11  1  0  0  0  0
  3  5  1  0  0  0  0
  4 16  1  1  0  0  0
  4 21  1  0  0  0  0
  4 22  2  0  0  0  0
  4 14  1  0  0  0  0
  5  1  1  6  0  0  0
  5  8  1  0  0  0  0
  6 17  2  0  0  0  0
  6 12  1  0  0  0  0
  8  7  1  1  0  0  0
  8 11  1  0  0  0  0
  9 19  1  0  0  0  0
 11 10  1  1  0  0  0
 12 20  2  0  0  0  0
 12 19  1  0  0  0  0
 13 20  1  0  0  0  0
 14 15  1  0  0  0  0
 18 19  2  0  0  0  0
M  CHG  1  21  -1
M  END
>  <CHROM.1>
60.42728476,176.18911567,-170.96094688,174.71657082,-31.95591240,-33.94740462
-6.36731703,-14.23443989,2.41525955,1.00395582,-1.08908418

>  <Name>
ligand

>  <RI>
0

>  <Rbt.Current_Directory>
/home/itssahil/PROJECTS/Mol_Feturizer/New_Systems/rnas/4XWF

>  <Rbt.Executable>
rbdock ($Id: //depot/dev/client3/rdock/2013.1/src/exe/rbdock.cxx#4 $)

>  <Rbt.Library>
libRbt.so (2013.1, Build901 2013/11/27)

>  <Rbt.Parameter_File>
/export/apps/rDock/src/rDock_2013.1_src/data/scripts/dock_solv.prm

>  <Rbt.Receptor>
prm/blind_docking_40.prm

>  <SCORE>
-5.42718

>  <SCORE.INTER>
-6.61526

>  <SCORE.INTER.CONST>
1

>  <SCORE.INTER.POLAR>
0

>  <SCORE.INTER.ROT>
5

>  <SCORE.INTER.SOLV>
16.1119

>  <SCORE.INTER.VDW>
-16.7141

>  <SCORE.INTER.norm>
-0.300693

>  <SCORE.INTRA>
-0.284244

>  <SCORE.INTRA.DIHEDRAL>
-0.808953

>  <SCORE.INTRA.DIHEDRAL.0>
3.49807

>  <SCORE.INTRA.POLAR>
0

>  <SCORE.INTRA.POLAR.0>
0

>  <SCORE.INTRA.REPUL>
0

>  <SCORE.INTRA.REPUL.0>
0

>  <SCORE.INTRA.SOLV>
-0.235606

>  <SCORE.INTRA.SOLV.lig_0>
-73.062

>  <SCORE.INTRA.VDW>
0.238035

>  <SCORE.INTRA.VDW.0>
-1.83782

>  <SCORE.INTRA.norm>
-0.0129202

>  <SCORE.RESTR>
1.47232

>  <SCORE.RESTR.CAVITY>
1.47232

>  <SCORE.RESTR.norm>
0.0669234

>  <SCORE.SYSTEM>
0

>  <SCORE.SYSTEM.CONST>
0

>  <SCORE.SYSTEM.DIHEDRAL>
0

>  <SCORE.SYSTEM.SOLV>
0

>  <SCORE.SYSTEM.norm>
0

>  <SCORE.heavy>
22

>  <SCORE.norm>
-0.24669

>  <RMSD>
13.811

$$$$
ligand
 OpenBabel11021811513D
libRbt.so/2013.1/901 2013/11/27
 22 23  0  0  0  0  0  0  0  0999 V2000
  -33.4199    4.0106  -20.7617 N   0  0  0  0  0  0  0  0  0  0  0  0
  -35.8638    1.7794  -21.4697 C   0  0  1  0  0  0  0  0  0  0  0  0
  -34.6641    2.4617  -21.9333 O   0  0  0  0  0  0  0  0  0  0  0  0
  -37.9516    4.2952  -23.3783 P   0  0  1  0  0  0  0  0  0  0  0  0
  -33.8146    2.6892  -20.7970 C   0  0  2  0  0  0  0  0  0  0  0  0
  -33.3240    6.1364  -21.1892 N   0  0  0  0  0  0  0  0  0  0  0  0
  -33.9080    2.1325  -18.4781 O   0  0  0  0  0  0  0  0  0  0  0  0
  -34.6930    2.4835  -19.6237 C   0  0  2  0  0  0  0  0  0  0  0  0
  -31.4301    8.1278  -20.1006 N   0  0  0  0  0  0  0  0  0  0  0  0
  -34.9313    0.1589  -20.0558 O   0  0  0  0  0  0  0  0  0  0  0  0
  -35.6029    1.4298  -20.0562 C   0  0  2  0  0  0  0  0  0  0  0  0
  -32.4360    5.8633  -20.2210 C   0  0  0  0  0  0  0  0  0  0  0  0
  -31.7352    3.8361  -18.9709 N   0  0  0  0  0  0  0  0  0  0  0  0
  -36.9855    3.1461  -22.9257 O   0  0  0  0  0  0  0  0  0  0  0  0
  -36.9922    2.7443  -21.5945 C   0  0  0  0  0  0  0  0  0  0  0  0
  -39.3780    3.6851  -23.1262 O   0  0  0  0  0  0  0  0  0  0  0  0
  -33.9297    4.9822  -21.5276 C   0  0  0  0  0  0  0  0  0  0  0  0
  -30.8985    6.5289  -18.5686 O   0  0  0  0  0  0  0  0  0  0  0  0
  -31.5468    6.8413  -19.5673 C   0  0  0  0  0  0  0  0  0  0  0  0
  -32.4927    4.5271  -19.9442 C   0  0  0  0  0  0  0  0  0  0  0  0
  -37.6601    5.5334  -22.5975 O   0  5  0  0  0  0  0  0  0  0  0  0
  -37.6377    4.7314  -24.7509 O   0  0  0  0  0  0  0  0  0  0  0  0
  1 17  1  0  0  0  0
  1 20  1  0  0  0  0
  2 15  1  1  0  0  0
  2  3  1  0  0  0  0
  2 11  1  0  0  0  0
  3  5  1  0  0  0  0
  4 16  1  1  0  0  0
  4 21  1  0  0  0  0
  4 22  2  0  0  0  0
  4 14  1  0  0  0  0
  5  1  1  6  0  0  0
  5  8  1  0  0  0  0
  6 17  2  0  0  0  0
  6 12  1  0  0  0  0
  8  7  1  1  0  0  0
  8 11  1  0  0  0  0
  9 19  1  0  0  0  0
 11 10  1  6  0  0  0
 12 20  2  0  0  0  0
 12 19  1  0  0  0  0
 13 20  1  0  0  0  0
 14 15  1  0  0  0  0
 18 19  2  0  0  0  0
M  CHG  1  21  -1
M  END
>  <CHROM.1>
10.61624328,55.54142785,-63.41767772,-173.16349970,-10.71095126,-34.87683265
3.98368098,-21.15686225,-0.07268275,0.59982829,2.76504644

>  <Name>
ligand

>  <RI>
0

>  <Rbt.Current_Directory>
/home/itssahil/PROJECTS/Mol_Feturizer/New_Systems/rnas/4XWF

>  <Rbt.Executable>
rbdock ($Id: //depot/dev/client3/rdock/2013.1/src/exe/rbdock.cxx#4 $)

>  <Rbt.Library>
libRbt.so (2013.1, Build901 2013/11/27)

>  <Rbt.Parameter_File>
/export/apps/rDock/src/rDock_2013.1_src/data/scripts/dock_solv.prm

>  <Rbt.Receptor>
prm/blind_docking_80.prm

>  <SCORE>
-10.2368

>  <SCORE.INTER>
-9.87766

>  <SCORE.INTER.CONST>
1

>  <SCORE.INTER.POLAR>
0

>  <SCORE.INTER.ROT>
5

>  <SCORE.INTER.SOLV>
17.3994

>  <SCORE.INTER.VDW>
-19.3183

>  <SCORE.INTER.norm>
-0.448985

>  <SCORE.INTRA>
-0.35914

>  <SCORE.INTRA.DIHEDRAL>
-1.55593

>  <SCORE.INTRA.DIHEDRAL.0>
3.49807

>  <SCORE.INTRA.POLAR>
0

>  <SCORE.INTRA.POLAR.0>
0

>  <SCORE.INTRA.REPUL>
0

>  <SCORE.INTRA.REPUL.0>
0

>  <SCORE.INTRA.SOLV>
0.968992

>  <SCORE.INTRA.SOLV.lig_0>
-73.062

>  <SCORE.INTRA.VDW>
-0.0656716

>  <SCORE.INTRA.VDW.0>
-1.83782

>  <SCORE.INTRA.norm>
-0.0163245

>  <SCORE.RESTR>
0

>  <SCORE.RESTR.CAVITY>
0

>  <SCORE.RESTR.norm>
0

>  <SCORE.SYSTEM>
0

>  <SCORE.SYSTEM.CONST>
0

>  <SCORE.SYSTEM.DIHEDRAL>
0

>  <SCORE.SYSTEM.SOLV>
0

>  <SCORE.SYSTEM.norm>
0

>  <SCORE.heavy>
22

>  <SCORE.norm>
-0.465309

>  <RMSD>
13.823

$$$$
ligand
 OpenBabel11021811513D
libRbt.so/2013.1/901 2013/11/27
 22 23  0  0  0  0  0  0  0  0999 V2000
  -34.0899   -4.9986  -17.8162 N   0  0  0  0  0  0  0  0  0  0  0  0
  -34.6713   -3.6131  -14.7839 C   0  0  1  0  0  0  0  0  0  0  0  0
  -33.7029   -3.8759  -15.8390 O   0  0  0  0  0  0  0  0  0  0  0  0
  -33.3409   -6.4693  -12.6823 P   0  0  1  0  0  0  0  0  0  0  0  0
  -34.3998   -3.8639  -17.0954 C   0  0  2  0  0  0  0  0  0  0  0  0
  -33.9956   -7.0783  -18.4305 N   0  0  0  0  0  0  0  0  0  0  0  0
  -36.6458   -3.4347  -17.7787 O   0  0  0  0  0  0  0  0  0  0  0  0
  -35.8304   -3.9762  -16.7330 C   0  0  2  0  0  0  0  0  0  0  0  0
  -31.3403   -6.6224  -20.7671 N   0  0  0  0  0  0  0  0  0  0  0  0
  -35.8683   -1.8276  -15.7186 O   0  0  0  0  0  0  0  0  0  0  0  0
  -35.9251   -3.2434  -15.4764 C   0  0  2  0  0  0  0  0  0  0  0  0
  -33.3581   -6.3399  -19.3519 C   0  0  0  0  0  0  0  0  0  0  0  0
  -32.8859   -3.9247  -19.6798 N   0  0  0  0  0  0  0  0  0  0  0  0
  -33.5705   -5.1348  -13.4728 O   0  0  0  0  0  0  0  0  0  0  0  0
  -34.8274   -4.8757  -14.0084 C   0  0  0  0  0  0  0  0  0  0  0  0
  -32.9884   -7.5011  -13.8143 O   0  0  0  0  0  0  0  0  0  0  0  0
  -34.4441   -6.2429  -17.4742 C   0  0  0  0  0  0  0  0  0  0  0  0
  -33.3496   -7.4791  -21.4109 O   0  0  0  0  0  0  0  0  0  0  0  0
  -32.7033   -6.8574  -20.5677 C   0  0  0  0  0  0  0  0  0  0  0  0
  -33.4160   -5.0288  -18.9736 C   0  0  0  0  0  0  0  0  0  0  0  0
  -32.2656   -6.2725  -11.6660 O   0  5  0  0  0  0  0  0  0  0  0  0
  -34.5019   -6.7764  -11.8275 O   0  0  0  0  0  0  0  0  0  0  0  0
  1 17  1  0  0  0  0
  1 20  1  0  0  0  0
  2 15  1  6  0  0  0
  2  3  1  0  0  0  0
  2 11  1  0  0  0  0
  3  5  1  0  0  0  0
  4 16  1  6  0  0  0
  4 21  1  0  0  0  0
  4 22  2  0  0  0  0
  4 14  1  0  0  0  0
  5  1  1  6  0  0  0
  5  8  1  0  0  0  0
  6 17  2  0  0  0  0
  6 12  1  0  0  0  0
  8  7  1  6  0  0  0
  8 11  1  0  0  0  0
  9 19  1  0  0  0  0
 11 10  1  6  0  0  0
 12 20  2  0  0  0  0
 12 19  1  0  0  0  0
 13 20  1  0  0  0  0
 14 15  1  0  0  0  0
 18 19  2  0  0  0  0
M  CHG  1  21  -1
M  END
>  <CHROM.1>
67.26543835,61.98000669,85.74671868,-175.08276838,-121.25188016,-33.97475227
-5.30984463,-16.28328596,1.45490887,0.95614201,-1.50086677

>  <Name>
ligand

>  <RI>
0

>  <Rbt.Current_Directory>
/home/itssahil/PROJECTS/Mol_Feturizer/New_Systems/rnas/4XWF

>  <Rbt.Executable>
rbdock ($Id: //depot/dev/client3/rdock/2013.1/src/exe/rbdock.cxx#4 $)

>  <Rbt.Library>
libRbt.so (2013.1, Build901 2013/11/27)

>  <Rbt.Parameter_File>
/export/apps/rDock/src/rDock_2013.1_src/data/scripts/dock_solv.prm

>  <Rbt.Receptor>
prm/blind_docking_80.prm

>  <SCORE>
-7.97039

>  <SCORE.INTER>
-7.32586

>  <SCORE.INTER.CONST>
1

>  <SCORE.INTER.POLAR>
0

>  <SCORE.INTER.ROT>
5

>  <SCORE.INTER.SOLV>
21.9957

>  <SCORE.INTER.VDW>
-19.1491

>  <SCORE.INTER.norm>
-0.332994

>  <SCORE.INTRA>
-0.694532

>  <SCORE.INTRA.DIHEDRAL>
-0.983506

>  <SCORE.INTRA.DIHEDRAL.0>
3.49807

>  <SCORE.INTRA.POLAR>
0

>  <SCORE.INTRA.POLAR.0>
0

>  <SCORE.INTRA.REPUL>
0

>  <SCORE.INTRA.REPUL.0>
0

>  <SCORE.INTRA.SOLV>
-0.797378

>  <SCORE.INTRA.SOLV.lig_0>
-73.062

>  <SCORE.INTRA.VDW>
0.19591

>  <SCORE.INTRA.VDW.0>
-1.83782

>  <SCORE.INTRA.norm>
-0.0315697

>  <SCORE.RESTR>
0.0500034

>  <SCORE.RESTR.CAVITY>
0.0500034

>  <SCORE.RESTR.norm>
0.00227288

>  <SCORE.SYSTEM>
0

>  <SCORE.SYSTEM.CONST>
0

>  <SCORE.SYSTEM.DIHEDRAL>
0

>  <SCORE.SYSTEM.SOLV>
0

>  <SCORE.SYSTEM.norm>
0

>  <SCORE.heavy>
22

>  <SCORE.norm>
-0.362291

>  <RMSD>
13.825

$$$$
ligand
 OpenBabel11021811513D
libRbt.so/2013.1/901 2013/11/27
 22 23  0  0  0  0  0  0  0  0999 V2000
  -33.4617    3.8612  -20.7282 N   0  0  0  0  0  0  0  0  0  0  0  0
  -35.9509    1.7192  -21.5457 C   0  0  1  0  0  0  0  0  0  0  0  0
  -34.6828    2.3201  -21.9339 O   0  0  0  0  0  0  0  0  0  0  0  0
  -37.6622    4.3040  -23.7084 P   0  0  1  0  0  0  0  0  0  0  0  0
  -33.9203    2.5601  -20.7401 C   0  0  2  0  0  0  0  0  0  0  0  0
  -33.1909    5.9472  -21.2634 N   0  0  0  0  0  0  0  0  0  0  0  0
  -34.2355    2.1194  -18.4158 O   0  0  0  0  0  0  0  0  0  0  0  0
  -34.9030    2.4530  -19.6384 C   0  0  2  0  0  0  0  0  0  0  0  0
  -31.4404    7.9526  -19.9910 N   0  0  0  0  0  0  0  0  0  0  0  0
  -35.2251    0.1247  -19.9884 O   0  0  0  0  0  0  0  0  0  0  0  0
  -35.8273    1.4251  -20.1013 C   0  0  2  0  0  0  0  0  0  0  0  0
  -32.4600    5.6979  -20.1660 C   0  0  0  0  0  0  0  0  0  0  0  0
  -32.0499    3.7277  -18.7121 N   0  0  0  0  0  0  0  0  0  0  0  0
  -36.8729    3.0698  -23.1495 O   0  0  0  0  0  0  0  0  0  0  0  0
  -37.0133    2.7304  -21.8083 C   0  0  0  0  0  0  0  0  0  0  0  0
  -37.1842    4.3887  -25.2034 O   0  0  0  0  0  0  0  0  0  0  0  0
  -33.8075    4.8025  -21.6142 C   0  0  0  0  0  0  0  0  0  0  0  0
  -31.0554    6.3684  -18.4011 O   0  0  0  0  0  0  0  0  0  0  0  0
  -31.6158    6.6747  -19.4534 C   0  0  0  0  0  0  0  0  0  0  0  0
  -32.6279    4.3871  -19.8211 C   0  0  0  0  0  0  0  0  0  0  0  0
  -39.1283    4.0818  -23.5380 O   0  5  0  0  0  0  0  0  0  0  0  0
  -37.4434    5.4908  -22.8622 O   0  0  0  0  0  0  0  0  0  0  0  0
  1 17  1  0  0  0  0
  1 20  1  0  0  0  0
  2 15  1  1  0  0  0
  2  3  1  0  0  0  0
  2 11  1  0  0  0  0
  3  5  1  0  0  0  0
  4 16  1  6  0  0  0
  4 21  1  0  0  0  0
  4 22  2  0  0  0  0
  4 14  1  0  0  0  0
  5  1  1  6  0  0  0
  5  8  1  0  0  0  0
  6 17  2  0  0  0  0
  6 12  1  0  0  0  0
  8  7  1  1  0  0  0
  8 11  1  0  0  0  0
  9 19  1  0  0  0  0
 11 10  1  6  0  0  0
 12 20  2  0  0  0  0
 12 19  1  0  0  0  0
 13 20  1  0  0  0  0
 14 15  1  0  0  0  0
 18 19  2  0  0  0  0
M  CHG  1  21  -1
M  END
>  <CHROM.1>
7.34637125,55.42245772,177.30125391,-168.99976314,-5.80436475,-34.87767891
3.90463729,-21.23006586,0.02854418,0.66926743,2.67128764

>  <Name>
ligand

>  <RI>
0

>  <Rbt.Current_Directory>
/home/itssahil/PROJECTS/Mol_Feturizer/New_Systems/rnas/4XWF

>  <Rbt.Executable>
rbdock ($Id: //depot/dev/client3/rdock/2013.1/src/exe/rbdock.cxx#4 $)

>  <Rbt.Library>
libRbt.so (2013.1, Build901 2013/11/27)

>  <Rbt.Parameter_File>
/export/apps/rDock/src/rDock_2013.1_src/data/scripts/dock_solv.prm

>  <Rbt.Receptor>
prm/blind_docking_100.prm

>  <SCORE>
-12.1358

>  <SCORE.INTER>
-12.4052

>  <SCORE.INTER.CONST>
1

>  <SCORE.INTER.POLAR>
0

>  <SCORE.INTER.ROT>
5

>  <SCORE.INTER.SOLV>
16.2457

>  <SCORE.INTER.VDW>
-20.6187

>  <SCORE.INTER.norm>
-0.563874

>  <SCORE.INTRA>
0.269444

>  <SCORE.INTRA.DIHEDRAL>
-1.287

>  <SCORE.INTRA.DIHEDRAL.0>
3.49807

>  <SCORE.INTRA.POLAR>
0

>  <SCORE.INTRA.POLAR.0>
0

>  <SCORE.INTRA.REPUL>
0

>  <SCORE.INTRA.REPUL.0>
0

>  <SCORE.INTRA.SOLV>
1.75146

>  <SCORE.INTRA.SOLV.lig_0>
-73.062

>  <SCORE.INTRA.VDW>
0.0372169

>  <SCORE.INTRA.VDW.0>
-1.83782

>  <SCORE.INTRA.norm>
0.0122475

>  <SCORE.RESTR>
0

>  <SCORE.RESTR.CAVITY>
0

>  <SCORE.RESTR.norm>
0

>  <SCORE.SYSTEM>
0

>  <SCORE.SYSTEM.CONST>
0

>  <SCORE.SYSTEM.DIHEDRAL>
0

>  <SCORE.SYSTEM.SOLV>
0

>  <SCORE.SYSTEM.norm>
0

>  <SCORE.heavy>
22

>  <SCORE.norm>
-0.551627

>  <RMSD>
13.840

$$$$
ligand
 OpenBabel11021811513D
libRbt.so/2013.1/901 2013/11/27
 22 23  0  0  0  0  0  0  0  0999 V2000
  -36.3613    4.4525  -21.9959 N   0  0  0  0  0  0  0  0  0  0  0  0
  -34.0210    6.3393  -20.4416 C   0  0  1  0  0  0  0  0  0  0  0  0
  -35.3994    5.8703  -20.4518 O   0  0  0  0  0  0  0  0  0  0  0  0
  -32.1771    9.1024  -22.2648 P   0  0  1  0  0  0  0  0  0  0  0  0
  -35.4130    4.5414  -20.9978 C   0  0  2  0  0  0  0  0  0  0  0  0
  -37.3868    3.8249  -23.8030 N   0  0  0  0  0  0  0  0  0  0  0  0
  -33.7483    3.0060  -21.7510 O   0  0  0  0  0  0  0  0  0  0  0  0
  -34.0964    4.3923  -21.6573 C   0  0  2  0  0  0  0  0  0  0  0  0
  -40.6377    4.7520  -22.9452 N   0  0  0  0  0  0  0  0  0  0  0  0
  -32.9191    4.4521  -19.5940 O   0  0  0  0  0  0  0  0  0  0  0  0
  -33.1980    5.1666  -20.8097 C   0  0  2  0  0  0  0  0  0  0  0  0
  -38.1670    4.7105  -23.1645 C   0  0  0  0  0  0  0  0  0  0  0  0
  -38.0202    6.0156  -21.0577 N   0  0  0  0  0  0  0  0  0  0  0  0
  -32.6285    7.9230  -21.3354 O   0  0  0  0  0  0  0  0  0  0  0  0
  -33.9188    7.4203  -21.4620 C   0  0  0  0  0  0  0  0  0  0  0  0
  -32.2537    8.4750  -23.7039 O   0  0  0  0  0  0  0  0  0  0  0  0
  -36.2626    3.6711  -23.0777 C   0  0  0  0  0  0  0  0  0  0  0  0
  -39.5900    5.9243  -24.5925 O   0  0  0  0  0  0  0  0  0  0  0  0
  -39.4898    5.1776  -23.6191 C   0  0  0  0  0  0  0  0  0  0  0  0
  -37.5293    5.1080  -22.0241 C   0  0  0  0  0  0  0  0  0  0  0  0
  -33.0708   10.2791  -22.0531 O   0  5  0  0  0  0  0  0  0  0  0  0
  -30.8746    9.6397  -21.8318 O   0  0  0  0  0  0  0  0  0  0  0  0
  1 17  1  0  0  0  0
  1 20  1  0  0  0  0
  2 15  1  6  0  0  0
  2  3  1  0  0  0  0
  2 11  1  0  0  0  0
  3  5  1  0  0  0  0
  4 16  1  6  0  0  0
  4 21  1  0  0  0  0
  4 22  2  0  0  0  0
  4 14  1  0  0  0  0
  5  1  1  6  0  0  0
  5  8  1  0  0  0  0
  6 17  2  0  0  0  0
  6 12  1  0  0  0  0
  8  7  1  1  0  0  0
  8 11  1  0  0  0  0
  9 19  1  0  0  0  0
 11 10  1  1  0  0  0
 12 20  2  0  0  0  0
 12 19  1  0  0  0  0
 13 20  1  0  0  0  0
 14 15  1  0  0  0  0
 18 19  2  0  0  0  0
M  CHG  1  21  -1
M  END
>  <CHROM.1>
147.66848833,174.67036184,-63.21368695,-179.45391530,108.04007072,-35.04203847
6.17414844,-22.02516606,-2.70633822,-0.38097526,-0.38951898

>  <Name>
ligand

>  <RI>
0

>  <Rbt.Current_Directory>
/home/itssahil/PROJECTS/Mol_Feturizer/New_Systems/rnas/4XWF

>  <Rbt.Executable>
rbdock ($Id: //depot/dev/client3/rdock/2013.1/src/exe/rbdock.cxx#4 $)

>  <Rbt.Library>
libRbt.so (2013.1, Build901 2013/11/27)

>  <Rbt.Parameter_File>
/export/apps/rDock/src/rDock_2013.1_src/data/scripts/dock_solv.prm

>  <Rbt.Receptor>
prm/blind_docking_60.prm

>  <SCORE>
-7.88471

>  <SCORE.INTER>
-8.66722

>  <SCORE.INTER.CONST>
1

>  <SCORE.INTER.POLAR>
0

>  <SCORE.INTER.ROT>
5

>  <SCORE.INTER.SOLV>
6.97799

>  <SCORE.INTER.VDW>
-15.0375

>  <SCORE.INTER.norm>
-0.393964

>  <SCORE.INTRA>
0.782504

>  <SCORE.INTRA.DIHEDRAL>
-1.74886

>  <SCORE.INTRA.DIHEDRAL.0>
3.49807

>  <SCORE.INTRA.POLAR>
0

>  <SCORE.INTRA.POLAR.0>
0

>  <SCORE.INTRA.REPUL>
0

>  <SCORE.INTRA.REPUL.0>
0

>  <SCORE.INTRA.SOLV>
0.752975

>  <SCORE.INTRA.SOLV.lig_0>
-73.062

>  <SCORE.INTRA.VDW>
1.28045

>  <SCORE.INTRA.VDW.0>
-1.83782

>  <SCORE.INTRA.norm>
0.0355684

>  <SCORE.RESTR>
0

>  <SCORE.RESTR.CAVITY>
0

>  <SCORE.RESTR.norm>
0

>  <SCORE.SYSTEM>
0

>  <SCORE.SYSTEM.CONST>
0

>  <SCORE.SYSTEM.DIHEDRAL>
0

>  <SCORE.SYSTEM.SOLV>
0

>  <SCORE.SYSTEM.norm>
0

>  <SCORE.heavy>
22

>  <SCORE.norm>
-0.358396

>  <RMSD>
13.845

$$$$
ligand
 OpenBabel11021811513D
libRbt.so/2013.1/901 2013/11/27
 22 23  0  0  0  0  0  0  0  0999 V2000
  -34.9621   -4.3242  -13.4444 N   0  0  0  0  0  0  0  0  0  0  0  0
  -33.6239   -7.2765  -12.4718 C   0  0  1  0  0  0  0  0  0  0  0  0
  -33.6734   -5.8352  -12.2713 O   0  0  0  0  0  0  0  0  0  0  0  0
  -32.7366  -10.0628  -13.9052 P   0  0  1  0  0  0  0  0  0  0  0  0
  -35.0066   -5.3902  -12.5697 C   0  0  2  0  0  0  0  0  0  0  0  0
  -35.0547   -2.2983  -14.2177 N   0  0  0  0  0  0  0  0  0  0  0  0
  -37.0473   -6.4612  -13.1895 O   0  0  0  0  0  0  0  0  0  0  0  0
  -35.6211   -6.5142  -13.3112 C   0  0  2  0  0  0  0  0  0  0  0  0
  -33.1773   -3.0777  -17.1915 N   0  0  0  0  0  0  0  0  0  0  0  0
  -35.6054   -7.9381  -11.4087 O   0  0  0  0  0  0  0  0  0  0  0  0
  -35.0239   -7.6957  -12.7008 C   0  0  2  0  0  0  0  0  0  0  0  0
  -34.6784   -3.1113  -15.2167 C   0  0  0  0  0  0  0  0  0  0  0  0
  -34.2359   -5.5420  -15.4607 N   0  0  0  0  0  0  0  0  0  0  0  0
  -32.1081   -8.7138  -13.4114 O   0  0  0  0  0  0  0  0  0  0  0  0
  -32.7766   -7.5227  -13.6725 C   0  0  0  0  0  0  0  0  0  0  0  0
  -34.0102  -10.2190  -12.9975 O   0  0  0  0  0  0  0  0  0  0  0  0
  -35.2362   -3.0555  -13.1190 C   0  0  0  0  0  0  0  0  0  0  0  0
  -35.1861   -2.0059  -17.2311 O   0  0  0  0  0  0  0  0  0  0  0  0
  -34.3849   -2.6959  -16.6009 C   0  0  0  0  0  0  0  0  0  0  0  0
  -34.6149   -4.3883  -14.7367 C   0  0  0  0  0  0  0  0  0  0  0  0
  -33.0241   -9.9774  -15.3674 O   0  5  0  0  0  0  0  0  0  0  0  0
  -31.7412  -11.1490  -13.8633 O   0  0  0  0  0  0  0  0  0  0  0  0
  1 17  1  0  0  0  0
  1 20  1  0  0  0  0
  2 15  1  6  0  0  0
  2  3  1  0  0  0  0
  2 11  1  0  0  0  0
  3  5  1  0  0  0  0
  4 16  1  1  0  0  0
  4 21  1  0  0  0  0
  4 22  2  0  0  0  0
  4 14  1  0  0  0  0
  5  1  1  6  0  0  0
  5  8  1  0  0  0  0
  6 17  2  0  0  0  0
  6 12  1  0  0  0  0
  8  7  1  1  0  0  0
  8 11  1  0  0  0  0
  9 19  1  0  0  0  0
 11 10  1  1  0  0  0
 12 20  2  0  0  0  0
 12 19  1  0  0  0  0
 13 20  1  0  0  0  0
 14 15  1  0  0  0  0
 18 19  2  0  0  0  0
M  CHG  1  21  -1
M  END
>  <CHROM.1>
-107.99266839,145.61418503,-68.88108159,92.73100897,128.01891075,-34.14498121
-6.49116744,-13.98926083,1.97049182,0.89161800,-0.58554107

>  <Name>
ligand

>  <RI>
0

>  <Rbt.Current_Directory>
/home/itssahil/PROJECTS/Mol_Feturizer/New_Systems/rnas/4XWF

>  <Rbt.Executable>
rbdock ($Id: //depot/dev/client3/rdock/2013.1/src/exe/rbdock.cxx#4 $)

>  <Rbt.Library>
libRbt.so (2013.1, Build901 2013/11/27)

>  <Rbt.Parameter_File>
/export/apps/rDock/src/rDock_2013.1_src/data/scripts/dock_solv.prm

>  <Rbt.Receptor>
prm/blind_docking_40.prm

>  <SCORE>
-0.753823

>  <SCORE.INTER>
-6.86773

>  <SCORE.INTER.CONST>
1

>  <SCORE.INTER.POLAR>
0

>  <SCORE.INTER.ROT>
5

>  <SCORE.INTER.SOLV>
12.888

>  <SCORE.INTER.VDW>
-15.8078

>  <SCORE.INTER.norm>
-0.31217

>  <SCORE.INTRA>
5.98006

>  <SCORE.INTRA.DIHEDRAL>
5.49372

>  <SCORE.INTRA.DIHEDRAL.0>
3.49807

>  <SCORE.INTRA.POLAR>
0

>  <SCORE.INTRA.POLAR.0>
0

>  <SCORE.INTRA.REPUL>
0

>  <SCORE.INTRA.REPUL.0>
0

>  <SCORE.INTRA.SOLV>
5.59323

>  <SCORE.INTRA.SOLV.lig_0>
-73.062

>  <SCORE.INTRA.VDW>
0.436582

>  <SCORE.INTRA.VDW.0>
-1.83782

>  <SCORE.INTRA.norm>
0.271821

>  <SCORE.RESTR>
0.133849

>  <SCORE.RESTR.CAVITY>
0.133849

>  <SCORE.RESTR.norm>
0.00608403

>  <SCORE.SYSTEM>
0

>  <SCORE.SYSTEM.CONST>
0

>  <SCORE.SYSTEM.DIHEDRAL>
0

>  <SCORE.SYSTEM.SOLV>
0

>  <SCORE.SYSTEM.norm>
0

>  <SCORE.heavy>
22

>  <SCORE.norm>
-0.0342647

>  <RMSD>
13.855

$$$$
ligand
 OpenBabel11021811513D
libRbt.so/2013.1/901 2013/11/27
 22 23  0  0  0  0  0  0  0  0999 V2000
  -34.0447   -6.9154  -14.0721 N   0  0  0  0  0  0  0  0  0  0  0  0
  -35.5395   -5.2670  -16.6218 C   0  0  1  0  0  0  0  0  0  0  0  0
  -35.5064   -6.4680  -15.7993 O   0  0  0  0  0  0  0  0  0  0  0  0
  -33.1472   -3.8215  -19.1633 P   0  0  1  0  0  0  0  0  0  0  0  0
  -35.0738   -6.0928  -14.4815 C   0  0  2  0  0  0  0  0  0  0  0  0
  -32.3990   -7.7196  -12.9076 N   0  0  0  0  0  0  0  0  0  0  0  0
  -34.5286   -4.0347  -13.4033 O   0  0  0  0  0  0  0  0  0  0  0  0
  -34.4895   -4.7431  -14.6476 C   0  0  2  0  0  0  0  0  0  0  0  0
  -31.1744   -9.9470  -15.3534 N   0  0  0  0  0  0  0  0  0  0  0  0
  -36.5919   -3.7630  -15.1641 O   0  0  0  0  0  0  0  0  0  0  0  0
  -35.3090   -4.1401  -15.6916 C   0  0  2  0  0  0  0  0  0  0  0  0
  -32.6528   -8.5680  -13.9159 C   0  0  0  0  0  0  0  0  0  0  0  0
  -34.2813   -8.6701  -15.7870 N   0  0  0  0  0  0  0  0  0  0  0  0
  -34.3791   -4.1510  -18.2509 O   0  0  0  0  0  0  0  0  0  0  0  0
  -34.4377   -5.3876  -17.6175 C   0  0  0  0  0  0  0  0  0  0  0  0
  -33.6124   -2.5399  -19.9454 O   0  0  0  0  0  0  0  0  0  0  0  0
  -33.2615   -6.6905  -13.0107 C   0  0  0  0  0  0  0  0  0  0  0  0
  -32.0039  -10.7700  -13.3989 O   0  0  0  0  0  0  0  0  0  0  0  0
  -31.9316   -9.8257  -14.1852 C   0  0  0  0  0  0  0  0  0  0  0  0
  -33.6899   -8.0699  -14.6518 C   0  0  0  0  0  0  0  0  0  0  0  0
  -31.9336   -3.6247  -18.3169 O   0  5  0  0  0  0  0  0  0  0  0  0
  -32.7608   -4.9971  -19.9641 O   0  0  0  0  0  0  0  0  0  0  0  0
  1 17  1  0  0  0  0
  1 20  1  0  0  0  0
  2 15  1  6  0  0  0
  2  3  1  0  0  0  0
  2 11  1  0  0  0  0
  3  5  1  0  0  0  0
  4 16  1  6  0  0  0
  4 21  1  0  0  0  0
  4 22  2  0  0  0  0
  4 14  1  0  0  0  0
  5  1  1  6  0  0  0
  5  8  1  0  0  0  0
  6 17  2  0  0  0  0
  6 12  1  0  0  0  0
  8  7  1  1  0  0  0
  8 11  1  0  0  0  0
  9 19  1  0  0  0  0
 11 10  1  1  0  0  0
 12 20  2  0  0  0  0
 12 19  1  0  0  0  0
 13 20  1  0  0  0  0
 14 15  1  0  0  0  0
 18 19  2  0  0  0  0
M  CHG  1  21  -1
M  END
>  <CHROM.1>
167.37688834,-171.69179850,166.66921256,167.95071632,-114.52472142,-33.74228044
-5.97611417,-16.01813896,1.35491940,-0.84172238,2.23024434

>  <Name>
ligand

>  <RI>
0

>  <Rbt.Current_Directory>
/home/itssahil/PROJECTS/Mol_Feturizer/New_Systems/rnas/4XWF

>  <Rbt.Executable>
rbdock ($Id: //depot/dev/client3/rdock/2013.1/src/exe/rbdock.cxx#4 $)

>  <Rbt.Library>
libRbt.so (2013.1, Build901 2013/11/27)

>  <Rbt.Parameter_File>
/export/apps/rDock/src/rDock_2013.1_src/data/scripts/dock_solv.prm

>  <Rbt.Receptor>
prm/blind_docking_40.prm

>  <SCORE>
-3.90881

>  <SCORE.INTER>
-6.15254

>  <SCORE.INTER.CONST>
1

>  <SCORE.INTER.POLAR>
0

>  <SCORE.INTER.ROT>
5

>  <SCORE.INTER.SOLV>
17.633

>  <SCORE.INTER.VDW>
-16.9127

>  <SCORE.INTER.norm>
-0.279661

>  <SCORE.INTRA>
2.24077

>  <SCORE.INTRA.DIHEDRAL>
-0.691417

>  <SCORE.INTRA.DIHEDRAL.0>
3.49807

>  <SCORE.INTRA.POLAR>
0

>  <SCORE.INTRA.POLAR.0>
0

>  <SCORE.INTRA.REPUL>
0

>  <SCORE.INTRA.REPUL.0>
0

>  <SCORE.INTRA.SOLV>
2.84947

>  <SCORE.INTRA.SOLV.lig_0>
-73.062

>  <SCORE.INTRA.VDW>
1.16175

>  <SCORE.INTRA.VDW.0>
-1.83782

>  <SCORE.INTRA.norm>
0.101853

>  <SCORE.RESTR>
0.00296046

>  <SCORE.RESTR.CAVITY>
0.00296046

>  <SCORE.RESTR.norm>
0.000134566

>  <SCORE.SYSTEM>
0

>  <SCORE.SYSTEM.CONST>
0

>  <SCORE.SYSTEM.DIHEDRAL>
0

>  <SCORE.SYSTEM.SOLV>
0

>  <SCORE.SYSTEM.norm>
0

>  <SCORE.heavy>
22

>  <SCORE.norm>
-0.177673

>  <RMSD>
13.879

$$$$
ligand
 OpenBabel11021811513D
libRbt.so/2013.1/901 2013/11/27
 22 23  0  0  0  0  0  0  0  0999 V2000
  -34.4024   -4.7994  -15.4775 N   0  0  0  0  0  0  0  0  0  0  0  0
  -33.6539   -6.0278  -12.4143 C   0  0  1  0  0  0  0  0  0  0  0  0
  -33.3984   -4.9972  -13.4105 O   0  0  0  0  0  0  0  0  0  0  0  0
  -33.4101   -8.9128  -14.7331 P   0  0  1  0  0  0  0  0  0  0  0  0
  -34.6244   -4.7475  -14.1169 C   0  0  2  0  0  0  0  0  0  0  0  0
  -34.2413   -5.5613  -17.5035 N   0  0  0  0  0  0  0  0  0  0  0  0
  -36.8671   -5.5454  -13.9450 O   0  0  0  0  0  0  0  0  0  0  0  0
  -35.4889   -5.9036  -13.7898 C   0  0  2  0  0  0  0  0  0  0  0  0
  -32.3215   -3.1458  -19.0017 N   0  0  0  0  0  0  0  0  0  0  0  0
  -35.6787   -5.2717  -11.5069 O   0  0  0  0  0  0  0  0  0  0  0  0
  -35.1191   -6.2320  -12.4185 C   0  0  2  0  0  0  0  0  0  0  0  0
  -33.9902   -4.2434  -17.5303 C   0  0  0  0  0  0  0  0  0  0  0  0
  -33.9252   -2.4110  -15.8565 N   0  0  0  0  0  0  0  0  0  0  0  0
  -33.3154   -7.4494  -14.1779 O   0  0  0  0  0  0  0  0  0  0  0  0
  -32.9304   -7.2530  -12.8562 C   0  0  0  0  0  0  0  0  0  0  0  0
  -33.6374   -8.6984  -16.2735 O   0  0  0  0  0  0  0  0  0  0  0  0
  -34.4912   -5.9052  -16.2257 C   0  0  0  0  0  0  0  0  0  0  0  0
  -34.5451   -3.0552  -19.4842 O   0  0  0  0  0  0  0  0  0  0  0  0
  -33.6573   -3.4544  -18.7309 C   0  0  0  0  0  0  0  0  0  0  0  0
  -34.0927   -3.7559  -16.2586 C   0  0  0  0  0  0  0  0  0  0  0  0
  -32.1662   -9.6623  -14.3884 O   0  5  0  0  0  0  0  0  0  0  0  0
  -34.4313   -9.6839  -14.0016 O   0  0  0  0  0  0  0  0  0  0  0  0
  1 17  1  0  0  0  0
  1 20  1  0  0  0  0
  2 15  1  6  0  0  0
  2  3  1  0  0  0  0
  2 11  1  0  0  0  0
  3  5  1  0  0  0  0
  4 16  1  6  0  0  0
  4 21  1  0  0  0  0
  4 22  2  0  0  0  0
  4 14  1  0  0  0  0
  5  1  1  6  0  0  0
  5  8  1  0  0  0  0
  6 17  2  0  0  0  0
  6 12  1  0  0  0  0
  8  7  1  1  0  0  0
  8 11  1  0  0  0  0
  9 19  1  0  0  0  0
 11 10  1  1  0  0  0
 12 20  2  0  0  0  0
 12 19  1  0  0  0  0
 13 20  1  0  0  0  0
 14 15  1  0  0  0  0
 18 19  2  0  0  0  0
M  CHG  1  21  -1
M  END
>  <CHROM.1>
89.47248995,-51.08276450,-171.26126018,-147.98470224,-99.16113840,-34.07342874
-6.00745710,-15.11237959,1.56894563,1.15129140,-0.76867636

>  <Name>
ligand

>  <RI>
0

>  <Rbt.Current_Directory>
/home/itssahil/PROJECTS/Mol_Feturizer/New_Systems/rnas/4XWF

>  <Rbt.Executable>
rbdock ($Id: //depot/dev/client3/rdock/2013.1/src/exe/rbdock.cxx#4 $)

>  <Rbt.Library>
libRbt.so (2013.1, Build901 2013/11/27)

>  <Rbt.Parameter_File>
/export/apps/rDock/src/rDock_2013.1_src/data/scripts/dock_solv.prm

>  <Rbt.Receptor>
prm/blind_docking_40.prm

>  <SCORE>
-2.07033

>  <SCORE.INTER>
-5.61826

>  <SCORE.INTER.CONST>
1

>  <SCORE.INTER.POLAR>
0

>  <SCORE.INTER.ROT>
5

>  <SCORE.INTER.SOLV>
17.3869

>  <SCORE.INTER.VDW>
-16.4745

>  <SCORE.INTER.norm>
-0.255375

>  <SCORE.INTRA>
3.46277

>  <SCORE.INTRA.DIHEDRAL>
2.88642

>  <SCORE.INTRA.DIHEDRAL.0>
3.49807

>  <SCORE.INTRA.POLAR>
0

>  <SCORE.INTRA.POLAR.0>
0

>  <SCORE.INTRA.REPUL>
0

>  <SCORE.INTRA.REPUL.0>
0

>  <SCORE.INTRA.SOLV>
1.55134

>  <SCORE.INTRA.SOLV.lig_0>
-73.062

>  <SCORE.INTRA.VDW>
1.24389

>  <SCORE.INTRA.VDW.0>
-1.83782

>  <SCORE.INTRA.norm>
0.157399

>  <SCORE.RESTR>
0.0851497

>  <SCORE.RESTR.CAVITY>
0.0851497

>  <SCORE.RESTR.norm>
0.00387044

>  <SCORE.SYSTEM>
0

>  <SCORE.SYSTEM.CONST>
0

>  <SCORE.SYSTEM.DIHEDRAL>
0

>  <SCORE.SYSTEM.SOLV>
0

>  <SCORE.SYSTEM.norm>
0

>  <SCORE.heavy>
22

>  <SCORE.norm>
-0.0941061

>  <RMSD>
13.881

$$$$
ligand
 OpenBabel11021811513D
libRbt.so/2013.1/901 2013/11/27
 22 23  0  0  0  0  0  0  0  0999 V2000
  -34.4105   -4.9628  -15.4359 N   0  0  0  0  0  0  0  0  0  0  0  0
  -33.5053   -6.1554  -12.4010 C   0  0  1  0  0  0  0  0  0  0  0  0
  -33.3044   -5.1343  -13.4192 O   0  0  0  0  0  0  0  0  0  0  0  0
  -32.9706   -8.9911  -14.8376 P   0  0  1  0  0  0  0  0  0  0  0  0
  -34.5650   -4.8975  -14.0666 C   0  0  2  0  0  0  0  0  0  0  0  0
  -34.3337   -5.7483  -17.4578 N   0  0  0  0  0  0  0  0  0  0  0  0
  -36.7926   -5.7032  -13.7754 O   0  0  0  0  0  0  0  0  0  0  0  0
  -35.4067   -6.0537  -13.6850 C   0  0  2  0  0  0  0  0  0  0  0  0
  -34.7314   -2.6090  -19.0866 N   0  0  0  0  0  0  0  0  0  0  0  0
  -35.4862   -5.3986  -11.4021 O   0  0  0  0  0  0  0  0  0  0  0  0
  -34.9678   -6.3660  -12.3304 C   0  0  2  0  0  0  0  0  0  0  0  0
  -34.1148   -4.4255  -17.5136 C   0  0  0  0  0  0  0  0  0  0  0  0
  -34.0085   -2.5696  -15.8681 N   0  0  0  0  0  0  0  0  0  0  0  0
  -33.2740   -7.6142  -14.1515 O   0  0  0  0  0  0  0  0  0  0  0  0
  -32.7986   -7.3822  -12.8655 C   0  0  0  0  0  0  0  0  0  0  0  0
  -33.6627   -8.8527  -16.2420 O   0  0  0  0  0  0  0  0  0  0  0  0
  -34.5110   -6.0804  -16.1648 C   0  0  0  0  0  0  0  0  0  0  0  0
  -32.9007   -3.9101  -19.4623 O   0  0  0  0  0  0  0  0  0  0  0  0
  -33.8610   -3.6456  -18.7391 C   0  0  0  0  0  0  0  0  0  0  0  0
  -34.1647   -3.9233  -16.2445 C   0  0  0  0  0  0  0  0  0  0  0  0
  -31.4952   -9.2107  -14.8925 O   0  5  0  0  0  0  0  0  0  0  0  0
  -33.4034  -10.1089  -13.9797 O   0  0  0  0  0  0  0  0  0  0  0  0
  1 17  1  0  0  0  0
  1 20  1  0  0  0  0
  2 15  1  6  0  0  0
  2  3  1  0  0  0  0
  2 11  1  0  0  0  0
  3  5  1  0  0  0  0
  4 16  1  6  0  0  0
  4 21  1  0  0  0  0
  4 22  2  0  0  0  0
  4 14  1  0  0  0  0
  5  1  1  6  0  0  0
  5  8  1  0  0  0  0
  6 17  2  0  0  0  0
  6 12  1  0  0  0  0
  8  7  1  1  0  0  0
  8 11  1  0  0  0  0
  9 19  1  0  0  0  0
 11 10  1  1  0  0  0
 12 20  2  0  0  0  0
 12 19  1  0  0  0  0
 13 20  1  0  0  0  0
 14 15  1  0  0  0  0
 18 19  2  0  0  0  0
M  CHG  1  21  -1
M  END
>  <CHROM.1>
88.41177519,-52.59865578,-179.96121414,-167.42109829,119.93983940,-33.95386029
-6.14378655,-15.11646719,1.77253102,1.09229736,-0.95111093

>  <Name>
ligand

>  <RI>
0

>  <Rbt.Current_Directory>
/home/itssahil/PROJECTS/Mol_Feturizer/New_Systems/rnas/4XWF

>  <Rbt.Executable>
rbdock ($Id: //depot/dev/client3/rdock/2013.1/src/exe/rbdock.cxx#4 $)

>  <Rbt.Library>
libRbt.so (2013.1, Build901 2013/11/27)

>  <Rbt.Parameter_File>
/export/apps/rDock/src/rDock_2013.1_src/data/scripts/dock_solv.prm

>  <Rbt.Receptor>
prm/blind_docking_40.prm

>  <SCORE>
-4.1346

>  <SCORE.INTER>
-5.53866

>  <SCORE.INTER.CONST>
1

>  <SCORE.INTER.POLAR>
0

>  <SCORE.INTER.ROT>
5

>  <SCORE.INTER.SOLV>
17.7718

>  <SCORE.INTER.VDW>
-16.5497

>  <SCORE.INTER.norm>
-0.251757

>  <SCORE.INTRA>
1.39485

>  <SCORE.INTRA.DIHEDRAL>
-0.976571

>  <SCORE.INTRA.DIHEDRAL.0>
3.49807

>  <SCORE.INTRA.POLAR>
0

>  <SCORE.INTRA.POLAR.0>
0

>  <SCORE.INTRA.REPUL>
0

>  <SCORE.INTRA.REPUL.0>
0

>  <SCORE.INTRA.SOLV>
0.821756

>  <SCORE.INTRA.SOLV.lig_0>
-73.062

>  <SCORE.INTRA.VDW>
1.47226

>  <SCORE.INTRA.VDW.0>
-1.83782

>  <SCORE.INTRA.norm>
0.0634025

>  <SCORE.RESTR>
0.0092153

>  <SCORE.RESTR.CAVITY>
0.0092153

>  <SCORE.RESTR.norm>
0.000418877

>  <SCORE.SYSTEM>
0

>  <SCORE.SYSTEM.CONST>
0

>  <SCORE.SYSTEM.DIHEDRAL>
0

>  <SCORE.SYSTEM.SOLV>
0

>  <SCORE.SYSTEM.norm>
0

>  <SCORE.heavy>
22

>  <SCORE.norm>
-0.187936

>  <RMSD>
13.888

$$$$
ligand
 OpenBabel11021811513D
libRbt.so/2013.1/901 2013/11/27
 22 23  0  0  0  0  0  0  0  0999 V2000
  -37.8580    2.2378  -20.3472 N   0  0  0  0  0  0  0  0  0  0  0  0
  -36.3810   -0.6021  -19.2489 C   0  0  1  0  0  0  0  0  0  0  0  0
  -37.2810    0.0085  -20.2170 O   0  0  0  0  0  0  0  0  0  0  0  0
  -36.8010   -1.8326  -15.6918 P   0  0  1  0  0  0  0  0  0  0  0  0
  -36.8160    1.3429  -20.4766 C   0  0  2  0  0  0  0  0  0  0  0  0
  -39.7387    3.1218  -19.7210 N   0  0  0  0  0  0  0  0  0  0  0  0
  -34.9453    2.6479  -19.7742 O   0  0  0  0  0  0  0  0  0  0  0  0
  -35.8745    1.6346  -19.3724 C   0  0  2  0  0  0  0  0  0  0  0  0
  -40.7796    5.8209  -20.2946 N   0  0  0  0  0  0  0  0  0  0  0  0
  -34.2993    0.0230  -20.1264 O   0  0  0  0  0  0  0  0  0  0  0  0
  -35.2536    0.3440  -19.1004 C   0  0  2  0  0  0  0  0  0  0  0  0
  -39.0893    4.0149  -20.4833 C   0  0  0  0  0  0  0  0  0  0  0  0
  -36.9122    4.0871  -21.6744 N   0  0  0  0  0  0  0  0  0  0  0  0
  -36.2765   -1.4035  -17.1058 O   0  0  0  0  0  0  0  0  0  0  0  0
  -37.1416   -0.7494  -17.9761 C   0  0  0  0  0  0  0  0  0  0  0  0
  -35.5015   -2.3349  -14.9641 O   0  0  0  0  0  0  0  0  0  0  0  0
  -38.9740    2.0161  -19.6431 C   0  0  0  0  0  0  0  0  0  0  0  0
  -38.9400    6.0739  -21.6128 O   0  0  0  0  0  0  0  0  0  0  0  0
  -39.5761    5.3614  -20.8363 C   0  0  0  0  0  0  0  0  0  0  0  0
  -37.9026    3.4666  -20.8789 C   0  0  0  0  0  0  0  0  0  0  0  0
  -37.4725   -0.6742  -15.0322 O   0  5  0  0  0  0  0  0  0  0  0  0
  -37.9164   -2.7883  -15.8162 O   0  0  0  0  0  0  0  0  0  0  0  0
  1 17  1  0  0  0  0
  1 20  1  0  0  0  0
  2 15  1  1  0  0  0
  2  3  1  0  0  0  0
  2 11  1  0  0  0  0
  3  5  1  0  0  0  0
  4 16  1  1  0  0  0
  4 21  1  0  0  0  0
  4 22  2  0  0  0  0
  4 14  1  0  0  0  0
  5  1  1  1  0  0  0
  5  8  1  0  0  0  0
  6 17  2  0  0  0  0
  6 12  1  0  0  0  0
  8  7  1  6  0  0  0
  8 11  1  0  0  0  0
  9 19  1  0  0  0  0
 11 10  1  6  0  0  0
 12 20  2  0  0  0  0
 12 19  1  0  0  0  0
 13 20  1  0  0  0  0
 14 15  1  0  0  0  0
 18 19  2  0  0  0  0
M  CHG  1  21  -1
M  END
>  <CHROM.1>
22.21136038,176.65384753,-172.26509547,-174.92973579,3.78821947,-37.26364541
1.17057266,-18.84472083,-1.88465904,-0.48789030,2.34772737

>  <Name>
ligand

>  <RI>
0

>  <Rbt.Current_Directory>
/home/itssahil/PROJECTS/Mol_Feturizer/New_Systems/rnas/4XWF

>  <Rbt.Executable>
rbdock ($Id: //depot/dev/client3/rdock/2013.1/src/exe/rbdock.cxx#4 $)

>  <Rbt.Library>
libRbt.so (2013.1, Build901 2013/11/27)

>  <Rbt.Parameter_File>
/export/apps/rDock/src/rDock_2013.1_src/data/scripts/dock_solv.prm

>  <Rbt.Receptor>
prm/blind_docking_60.prm

>  <SCORE>
-9.61246

>  <SCORE.INTER>
-9.24483

>  <SCORE.INTER.CONST>
1

>  <SCORE.INTER.POLAR>
0

>  <SCORE.INTER.ROT>
5

>  <SCORE.INTER.SOLV>
15.2466

>  <SCORE.INTER.VDW>
-18.1788

>  <SCORE.INTER.norm>
-0.420219

>  <SCORE.INTRA>
-0.367629

>  <SCORE.INTRA.DIHEDRAL>
-1.76741

>  <SCORE.INTRA.DIHEDRAL.0>
3.49807

>  <SCORE.INTRA.POLAR>
0

>  <SCORE.INTRA.POLAR.0>
0

>  <SCORE.INTRA.REPUL>
0

>  <SCORE.INTRA.REPUL.0>
0

>  <SCORE.INTRA.SOLV>
1.00365

>  <SCORE.INTRA.SOLV.lig_0>
-73.062

>  <SCORE.INTRA.VDW>
0.0142511

>  <SCORE.INTRA.VDW.0>
-1.83782

>  <SCORE.INTRA.norm>
-0.0167104

>  <SCORE.RESTR>
0

>  <SCORE.RESTR.CAVITY>
0

>  <SCORE.RESTR.norm>
0

>  <SCORE.SYSTEM>
0

>  <SCORE.SYSTEM.CONST>
0

>  <SCORE.SYSTEM.DIHEDRAL>
0

>  <SCORE.SYSTEM.SOLV>
0

>  <SCORE.SYSTEM.norm>
0

>  <SCORE.heavy>
22

>  <SCORE.norm>
-0.43693

>  <RMSD>
13.890

$$$$
ligand
 OpenBabel11021811513D
libRbt.so/2013.1/901 2013/11/27
 22 23  0  0  0  0  0  0  0  0999 V2000
  -34.1571   -4.0494  -15.0930 N   0  0  0  0  0  0  0  0  0  0  0  0
  -33.4105   -6.2748  -12.6552 C   0  0  1  0  0  0  0  0  0  0  0  0
  -33.1171   -4.9822  -13.2577 O   0  0  0  0  0  0  0  0  0  0  0  0
  -32.7442   -9.8582  -13.6799 P   0  0  1  0  0  0  0  0  0  0  0  0
  -34.3424   -4.4491  -13.7856 C   0  0  2  0  0  0  0  0  0  0  0  0
  -33.7445   -2.7986  -16.8182 N   0  0  0  0  0  0  0  0  0  0  0  0
  -36.6246   -5.1474  -13.7946 O   0  0  0  0  0  0  0  0  0  0  0  0
  -35.2673   -5.6039  -13.8285 C   0  0  2  0  0  0  0  0  0  0  0  0
  -32.9759   -5.5241  -19.0063 N   0  0  0  0  0  0  0  0  0  0  0  0
  -35.3630   -5.7713  -11.4599 O   0  0  0  0  0  0  0  0  0  0  0  0
  -34.8850   -6.3936  -12.6643 C   0  0  2  0  0  0  0  0  0  0  0  0
  -33.9280   -4.0567  -17.2471 C   0  0  0  0  0  0  0  0  0  0  0  0
  -34.4137   -6.2459  -16.1816 N   0  0  0  0  0  0  0  0  0  0  0  0
  -33.1257   -8.5295  -12.9398 O   0  0  0  0  0  0  0  0  0  0  0  0
  -32.7735   -7.3128  -13.5136 C   0  0  0  0  0  0  0  0  0  0  0  0
  -31.2243  -10.0433  -13.3247 O   0  0  0  0  0  0  0  0  0  0  0  0
  -33.8935   -2.7958  -15.4798 C   0  0  0  0  0  0  0  0  0  0  0  0
  -34.5751   -3.9826  -19.5083 O   0  0  0  0  0  0  0  0  0  0  0  0
  -33.8646   -4.5060  -18.6502 C   0  0  0  0  0  0  0  0  0  0  0  0
  -34.1852   -4.8508  -16.1661 C   0  0  0  0  0  0  0  0  0  0  0  0
  -33.6293  -10.9655  -13.2126 O   0  5  0  0  0  0  0  0  0  0  0  0
  -33.0983   -9.7806  -15.1086 O   0  0  0  0  0  0  0  0  0  0  0  0
  1 17  1  0  0  0  0
  1 20  1  0  0  0  0
  2 15  1  6  0  0  0
  2  3  1  0  0  0  0
  2 11  1  0  0  0  0
  3  5  1  0  0  0  0
  4 16  1  1  0  0  0
  4 21  1  0  0  0  0
  4 22  2  0  0  0  0
  4 14  1  0  0  0  0
  5  1  1  6  0  0  0
  5  8  1  0  0  0  0
  6 17  2  0  0  0  0
  6 12  1  0  0  0  0
  8  7  1  1  0  0  0
  8 11  1  0  0  0  0
  9 19  1  0  0  0  0
 11 10  1  1  0  0  0
 12 20  2  0  0  0  0
 12 19  1  0  0  0  0
 13 20  1  0  0  0  0
 14 15  1  0  0  0  0
 18 19  2  0  0  0  0
M  CHG  1  21  -1
M  END
>  <CHROM.1>
-96.76013811,-177.43604385,79.20739085,173.66515800,123.52287699,-33.80965129
-6.39966261,-14.75086977,2.00786689,1.14434317,-1.03136327

>  <Name>
ligand

>  <RI>
0

>  <Rbt.Current_Directory>
/home/itssahil/PROJECTS/Mol_Feturizer/New_Systems/rnas/4XWF

>  <Rbt.Executable>
rbdock ($Id: //depot/dev/client3/rdock/2013.1/src/exe/rbdock.cxx#4 $)

>  <Rbt.Library>
libRbt.so (2013.1, Build901 2013/11/27)

>  <Rbt.Parameter_File>
/export/apps/rDock/src/rDock_2013.1_src/data/scripts/dock_solv.prm

>  <Rbt.Receptor>
prm/blind_docking_40.prm

>  <SCORE>
-5.72159

>  <SCORE.INTER>
-10.4312

>  <SCORE.INTER.CONST>
1

>  <SCORE.INTER.POLAR>
0

>  <SCORE.INTER.ROT>
5

>  <SCORE.INTER.SOLV>
10.6043

>  <SCORE.INTER.VDW>
-17.4223

>  <SCORE.INTER.norm>
-0.474146

>  <SCORE.INTRA>
3.83048

>  <SCORE.INTRA.DIHEDRAL>
-1.29153

>  <SCORE.INTRA.DIHEDRAL.0>
3.49807

>  <SCORE.INTRA.POLAR>
0

>  <SCORE.INTRA.POLAR.0>
0

>  <SCORE.INTRA.REPUL>
0

>  <SCORE.INTRA.REPUL.0>
0

>  <SCORE.INTRA.SOLV>
5.24236

>  <SCORE.INTRA.SOLV.lig_0>
-73.062

>  <SCORE.INTRA.VDW>
1.85507

>  <SCORE.INTRA.VDW.0>
-1.83782

>  <SCORE.INTRA.norm>
0.174113

>  <SCORE.RESTR>
0.879144

>  <SCORE.RESTR.CAVITY>
0.879144

>  <SCORE.RESTR.norm>
0.0399611

>  <SCORE.SYSTEM>
0

>  <SCORE.SYSTEM.CONST>
0

>  <SCORE.SYSTEM.DIHEDRAL>
0

>  <SCORE.SYSTEM.SOLV>
0

>  <SCORE.SYSTEM.norm>
0

>  <SCORE.heavy>
22

>  <SCORE.norm>
-0.260072

>  <RMSD>
13.897

$$$$
ligand
 OpenBabel11021811513D
libRbt.so/2013.1/901 2013/11/27
 22 23  0  0  0  0  0  0  0  0999 V2000
  -34.5393   -4.0544  -14.6155 N   0  0  0  0  0  0  0  0  0  0  0  0
  -33.7279   -6.7709  -12.7676 C   0  0  1  0  0  0  0  0  0  0  0  0
  -33.5280   -5.3467  -12.9947 O   0  0  0  0  0  0  0  0  0  0  0  0
  -32.2972   -9.9057  -14.3356 P   0  0  1  0  0  0  0  0  0  0  0  0
  -34.7651   -4.7946  -13.4735 C   0  0  2  0  0  0  0  0  0  0  0  0
  -34.2149   -2.3602  -15.9329 N   0  0  0  0  0  0  0  0  0  0  0  0
  -36.9611   -5.6475  -13.8558 O   0  0  0  0  0  0  0  0  0  0  0  0
  -35.5655   -5.9688  -13.8875 C   0  0  2  0  0  0  0  0  0  0  0  0
  -34.6161   -4.3779  -18.9201 N   0  0  0  0  0  0  0  0  0  0  0  0
  -35.7918   -6.7549  -11.6564 O   0  0  0  0  0  0  0  0  0  0  0  0
  -35.1797   -7.0013  -12.9335 C   0  0  2  0  0  0  0  0  0  0  0  0
  -34.1150   -3.4826  -16.6615 C   0  0  0  0  0  0  0  0  0  0  0  0
  -34.2712   -5.9181  -16.2063 N   0  0  0  0  0  0  0  0  0  0  0  0
  -32.9188   -8.8218  -13.3884 O   0  0  0  0  0  0  0  0  0  0  0  0
  -32.9381   -7.4946  -13.8032 C   0  0  0  0  0  0  0  0  0  0  0  0
  -31.0350   -9.1818  -14.9300 O   0  0  0  0  0  0  0  0  0  0  0  0
  -34.4847   -2.7183  -14.6630 C   0  0  0  0  0  0  0  0  0  0  0  0
  -32.9207   -2.8915  -18.6009 O   0  0  0  0  0  0  0  0  0  0  0  0
  -33.8379   -3.5481  -18.1084 C   0  0  0  0  0  0  0  0  0  0  0  0
  -34.3151   -4.5538  -15.8383 C   0  0  0  0  0  0  0  0  0  0  0  0
  -31.9930  -11.1406  -13.5544 O   0  5  0  0  0  0  0  0  0  0  0  0
  -33.3027  -10.4022  -15.2922 O   0  0  0  0  0  0  0  0  0  0  0  0
  1 17  1  0  0  0  0
  1 20  1  0  0  0  0
  2 15  1  6  0  0  0
  2  3  1  0  0  0  0
  2 11  1  0  0  0  0
  3  5  1  0  0  0  0
  4 16  1  6  0  0  0
  4 21  1  0  0  0  0
  4 22  2  0  0  0  0
  4 14  1  0  0  0  0
  5  1  1  6  0  0  0
  5  8  1  0  0  0  0
  6 17  2  0  0  0  0
  6 12  1  0  0  0  0
  8  7  1  1  0  0  0
  8 11  1  0  0  0  0
  9 19  1  0  0  0  0
 11 10  1  1  0  0  0
 12 20  2  0  0  0  0
 12 19  1  0  0  0  0
 13 20  1  0  0  0  0
 14 15  1  0  0  0  0
 18 19  2  0  0  0  0
M  CHG  1  21  -1
M  END
>  <CHROM.1>
-102.37731017,167.64863115,40.01816545,173.39204196,-133.15103486,-33.84738616
-6.38077223,-14.76749448,1.98579403,0.93628389,-0.75386858

>  <Name>
ligand

>  <RI>
0

>  <Rbt.Current_Directory>
/home/itssahil/PROJECTS/Mol_Feturizer/New_Systems/rnas/4XWF

>  <Rbt.Executable>
rbdock ($Id: //depot/dev/client3/rdock/2013.1/src/exe/rbdock.cxx#4 $)

>  <Rbt.Library>
libRbt.so (2013.1, Build901 2013/11/27)

>  <Rbt.Parameter_File>
/export/apps/rDock/src/rDock_2013.1_src/data/scripts/dock_solv.prm

>  <Rbt.Receptor>
prm/blind_docking_40.prm

>  <SCORE>
-3.28542

>  <SCORE.INTER>
-7.16273

>  <SCORE.INTER.CONST>
1

>  <SCORE.INTER.POLAR>
0

>  <SCORE.INTER.ROT>
5

>  <SCORE.INTER.SOLV>
11.0902

>  <SCORE.INTER.VDW>
-15.4052

>  <SCORE.INTER.norm>
-0.325578

>  <SCORE.INTRA>
3.39146

>  <SCORE.INTRA.DIHEDRAL>
-0.462059

>  <SCORE.INTRA.DIHEDRAL.0>
3.49807

>  <SCORE.INTRA.POLAR>
0

>  <SCORE.INTRA.POLAR.0>
0

>  <SCORE.INTRA.REPUL>
0

>  <SCORE.INTRA.REPUL.0>
0

>  <SCORE.INTRA.SOLV>
4.35645

>  <SCORE.INTRA.SOLV.lig_0>
-73.062

>  <SCORE.INTRA.VDW>
1.44427

>  <SCORE.INTRA.VDW.0>
-1.83782

>  <SCORE.INTRA.norm>
0.154157

>  <SCORE.RESTR>
0.485841

>  <SCORE.RESTR.CAVITY>
0.485841

>  <SCORE.RESTR.norm>
0.0220837

>  <SCORE.SYSTEM>
0

>  <SCORE.SYSTEM.CONST>
0

>  <SCORE.SYSTEM.DIHEDRAL>
0

>  <SCORE.SYSTEM.SOLV>
0

>  <SCORE.SYSTEM.norm>
0

>  <SCORE.heavy>
22

>  <SCORE.norm>
-0.149337

>  <RMSD>
13.902

$$$$
ligand
 OpenBabel11021811513D
libRbt.so/2013.1/901 2013/11/27
 22 23  0  0  0  0  0  0  0  0999 V2000
  -37.7974    2.2695  -20.3941 N   0  0  0  0  0  0  0  0  0  0  0  0
  -36.5182   -0.6013  -19.1392 C   0  0  1  0  0  0  0  0  0  0  0  0
  -37.3601    0.0177  -20.1531 O   0  0  0  0  0  0  0  0  0  0  0  0
  -37.0677   -1.6173  -15.5327 P   0  0  1  0  0  0  0  0  0  0  0  0
  -36.8097    1.3087  -20.4608 C   0  0  2  0  0  0  0  0  0  0  0  0
  -39.6442    3.2818  -19.8692 N   0  0  0  0  0  0  0  0  0  0  0  0
  -34.8770    2.5295  -19.7751 O   0  0  0  0  0  0  0  0  0  0  0  0
  -35.8739    1.5930  -19.3498 C   0  0  2  0  0  0  0  0  0  0  0  0
  -40.4742    6.0371  -20.5178 N   0  0  0  0  0  0  0  0  0  0  0  0
  -34.3854   -0.1427  -19.9969 O   0  0  0  0  0  0  0  0  0  0  0  0
  -35.3382    0.2811  -19.0076 C   0  0  2  0  0  0  0  0  0  0  0  0
  -38.9063    4.1172  -20.6163 C   0  0  0  0  0  0  0  0  0  0  0  0
  -36.6785    4.0291  -21.7084 N   0  0  0  0  0  0  0  0  0  0  0  0
  -36.4932   -1.2838  -16.9530 O   0  0  0  0  0  0  0  0  0  0  0  0
  -37.3111   -0.6449  -17.8785 C   0  0  0  0  0  0  0  0  0  0  0  0
  -38.0429   -2.8178  -15.8128 O   0  0  0  0  0  0  0  0  0  0  0  0
  -38.9554    2.1321  -19.7378 C   0  0  0  0  0  0  0  0  0  0  0  0
  -38.5866    6.1327  -21.7881 O   0  0  0  0  0  0  0  0  0  0  0  0
  -39.2905    5.4842  -21.0140 C   0  0  0  0  0  0  0  0  0  0  0  0
  -37.7404    3.4879  -20.9483 C   0  0  0  0  0  0  0  0  0  0  0  0
  -35.9470   -1.9339  -14.5991 O   0  5  0  0  0  0  0  0  0  0  0  0
  -37.6427   -0.4135  -14.9059 O   0  0  0  0  0  0  0  0  0  0  0  0
  1 17  1  0  0  0  0
  1 20  1  0  0  0  0
  2 15  1  1  0  0  0
  2  3  1  0  0  0  0
  2 11  1  0  0  0  0
  3  5  1  0  0  0  0
  4 16  1  6  0  0  0
  4 21  1  0  0  0  0
  4 22  2  0  0  0  0
  4 14  1  0  0  0  0
  5  1  1  1  0  0  0
  5  8  1  0  0  0  0
  6 17  2  0  0  0  0
  6 12  1  0  0  0  0
  8  7  1  6  0  0  0
  8 11  1  0  0  0  0
  9 19  1  0  0  0  0
 11 10  1  6  0  0  0
 12 20  2  0  0  0  0
 12 19  1  0  0  0  0
 13 20  1  0  0  0  0
 14 15  1  0  0  0  0
 18 19  2  0  0  0  0
M  CHG  1  21  -1
M  END
>  <CHROM.1>
20.17250469,177.91269658,73.38661583,-174.59475542,4.84226505,-37.28535879
1.24398610,-18.82033569,-1.82137104,-0.53273644,2.33294004

>  <Name>
ligand

>  <RI>
0

>  <Rbt.Current_Directory>
/home/itssahil/PROJECTS/Mol_Feturizer/New_Systems/rnas/4XWF

>  <Rbt.Executable>
rbdock ($Id: //depot/dev/client3/rdock/2013.1/src/exe/rbdock.cxx#4 $)

>  <Rbt.Library>
libRbt.so (2013.1, Build901 2013/11/27)

>  <Rbt.Parameter_File>
/export/apps/rDock/src/rDock_2013.1_src/data/scripts/dock_solv.prm

>  <Rbt.Receptor>
prm/blind_docking_100.prm

>  <SCORE>
-10.212

>  <SCORE.INTER>
-9.65342

>  <SCORE.INTER.CONST>
1

>  <SCORE.INTER.POLAR>
0

>  <SCORE.INTER.ROT>
5

>  <SCORE.INTER.SOLV>
15.5262

>  <SCORE.INTER.VDW>
-18.5444

>  <SCORE.INTER.norm>
-0.438792

>  <SCORE.INTRA>
-0.558602

>  <SCORE.INTRA.DIHEDRAL>
-1.59635

>  <SCORE.INTRA.DIHEDRAL.0>
3.49807

>  <SCORE.INTRA.POLAR>
0

>  <SCORE.INTRA.POLAR.0>
0

>  <SCORE.INTRA.REPUL>
0

>  <SCORE.INTRA.REPUL.0>
0

>  <SCORE.INTRA.SOLV>
0.483151

>  <SCORE.INTRA.SOLV.lig_0>
-73.062

>  <SCORE.INTRA.VDW>
-0.0020019

>  <SCORE.INTRA.VDW.0>
-1.83782

>  <SCORE.INTRA.norm>
-0.025391

>  <SCORE.RESTR>
0

>  <SCORE.RESTR.CAVITY>
0

>  <SCORE.RESTR.norm>
0

>  <SCORE.SYSTEM>
0

>  <SCORE.SYSTEM.CONST>
0

>  <SCORE.SYSTEM.DIHEDRAL>
0

>  <SCORE.SYSTEM.SOLV>
0

>  <SCORE.SYSTEM.norm>
0

>  <SCORE.heavy>
22

>  <SCORE.norm>
-0.464183

>  <RMSD>
13.905

$$$$
ligand
 OpenBabel11021811513D
libRbt.so/2013.1/901 2013/11/27
 22 23  0  0  0  0  0  0  0  0999 V2000
  -37.8978    2.2458  -20.3277 N   0  0  0  0  0  0  0  0  0  0  0  0
  -36.4504   -0.6013  -19.2089 C   0  0  1  0  0  0  0  0  0  0  0  0
  -37.3469    0.0110  -20.1791 O   0  0  0  0  0  0  0  0  0  0  0  0
  -36.8979   -1.8434  -15.6587 P   0  0  1  0  0  0  0  0  0  0  0  0
  -36.8672    1.3373  -20.4530 C   0  0  2  0  0  0  0  0  0  0  0  0
  -39.7798    3.1451  -19.7272 N   0  0  0  0  0  0  0  0  0  0  0  0
  -34.9782    2.6263  -19.7702 O   0  0  0  0  0  0  0  0  0  0  0  0
  -35.9178    1.6279  -19.3552 C   0  0  2  0  0  0  0  0  0  0  0  0
  -40.7584    5.8773  -20.2526 N   0  0  0  0  0  0  0  0  0  0  0  0
  -34.3649   -0.0093  -20.1005 O   0  0  0  0  0  0  0  0  0  0  0  0
  -35.3111    0.3326  -19.0738 C   0  0  2  0  0  0  0  0  0  0  0  0
  -39.0972    4.0456  -20.4510 C   0  0  0  0  0  0  0  0  0  0  0  0
  -36.8898    4.1107  -21.5853 N   0  0  0  0  0  0  0  0  0  0  0  0
  -36.3689   -1.4348  -17.0771 O   0  0  0  0  0  0  0  0  0  0  0  0
  -37.2075   -0.7278  -17.9319 C   0  0  0  0  0  0  0  0  0  0  0  0
  -37.9930   -2.9238  -15.9816 O   0  0  0  0  0  0  0  0  0  0  0  0
  -39.0348    2.0255  -19.6573 C   0  0  0  0  0  0  0  0  0  0  0  0
  -38.8912    6.1254  -21.5323 O   0  0  0  0  0  0  0  0  0  0  0  0
  -39.5536    5.4080  -20.7829 C   0  0  0  0  0  0  0  0  0  0  0  0
  -37.9097    3.4876  -20.8302 C   0  0  0  0  0  0  0  0  0  0  0  0
  -35.7647   -2.3397  -14.8237 O   0  5  0  0  0  0  0  0  0  0  0  0
  -37.3262   -0.6554  -14.8986 O   0  0  0  0  0  0  0  0  0  0  0  0
  1 17  1  0  0  0  0
  1 20  1  0  0  0  0
  2 15  1  1  0  0  0
  2  3  1  0  0  0  0
  2 11  1  0  0  0  0
  3  5  1  0  0  0  0
  4 16  1  6  0  0  0
  4 21  1  0  0  0  0
  4 22  2  0  0  0  0
  4 14  1  0  0  0  0
  5  1  1  1  0  0  0
  5  8  1  0  0  0  0
  6 17  2  0  0  0  0
  6 12  1  0  0  0  0
  8  7  1  6  0  0  0
  8 11  1  0  0  0  0
  9 19  1  0  0  0  0
 11 10  1  6  0  0  0
 12 20  2  0  0  0  0
 12 19  1  0  0  0  0
 13 20  1  0  0  0  0
 14 15  1  0  0  0  0
 18 19  2  0  0  0  0
M  CHG  1  21  -1
M  END
>  <CHROM.1>
19.65282137,174.16593879,68.81005625,-175.54244877,4.24601686,-37.30736863
1.17081861,-18.81107577,-1.87078388,-0.50139632,2.35599092

>  <Name>
ligand

>  <RI>
0

>  <Rbt.Current_Directory>
/home/itssahil/PROJECTS/Mol_Feturizer/New_Systems/rnas/4XWF

>  <Rbt.Executable>
rbdock ($Id: //depot/dev/client3/rdock/2013.1/src/exe/rbdock.cxx#4 $)

>  <Rbt.Library>
libRbt.so (2013.1, Build901 2013/11/27)

>  <Rbt.Parameter_File>
/export/apps/rDock/src/rDock_2013.1_src/data/scripts/dock_solv.prm

>  <Rbt.Receptor>
prm/blind_docking_60.prm

>  <SCORE>
-10.2381

>  <SCORE.INTER>
-9.58683

>  <SCORE.INTER.CONST>
1

>  <SCORE.INTER.POLAR>
0

>  <SCORE.INTER.ROT>
5

>  <SCORE.INTER.SOLV>
14.4771

>  <SCORE.INTER.VDW>
-18.1502

>  <SCORE.INTER.norm>
-0.435765

>  <SCORE.INTRA>
-0.651272

>  <SCORE.INTRA.DIHEDRAL>
-1.68857

>  <SCORE.INTRA.DIHEDRAL.0>
3.49807

>  <SCORE.INTRA.POLAR>
0

>  <SCORE.INTRA.POLAR.0>
0

>  <SCORE.INTRA.REPUL>
0

>  <SCORE.INTRA.REPUL.0>
0

>  <SCORE.INTRA.SOLV>
0.457976

>  <SCORE.INTRA.SOLV.lig_0>
-73.062

>  <SCORE.INTRA.VDW>
-0.035975

>  <SCORE.INTRA.VDW.0>
-1.83782

>  <SCORE.INTRA.norm>
-0.0296033

>  <SCORE.RESTR>
0

>  <SCORE.RESTR.CAVITY>
0

>  <SCORE.RESTR.norm>
0

>  <SCORE.SYSTEM>
0

>  <SCORE.SYSTEM.CONST>
0

>  <SCORE.SYSTEM.DIHEDRAL>
0

>  <SCORE.SYSTEM.SOLV>
0

>  <SCORE.SYSTEM.norm>
0

>  <SCORE.heavy>
22

>  <SCORE.norm>
-0.465368

>  <RMSD>
13.911

$$$$
ligand
 OpenBabel11021811513D
libRbt.so/2013.1/901 2013/11/27
 22 23  0  0  0  0  0  0  0  0999 V2000
  -34.4037   -4.9457  -15.4156 N   0  0  0  0  0  0  0  0  0  0  0  0
  -33.5214   -6.1575  -12.3816 C   0  0  1  0  0  0  0  0  0  0  0  0
  -33.3186   -5.1254  -13.3883 O   0  0  0  0  0  0  0  0  0  0  0  0
  -32.9681   -9.0073  -14.8009 P   0  0  1  0  0  0  0  0  0  0  0  0
  -34.5741   -4.8943  -14.0476 C   0  0  2  0  0  0  0  0  0  0  0  0
  -34.2854   -5.7143  -17.4420 N   0  0  0  0  0  0  0  0  0  0  0  0
  -36.7972   -5.7230  -13.7887 O   0  0  0  0  0  0  0  0  0  0  0  0
  -35.4092   -6.0616  -13.6860 C   0  0  2  0  0  0  0  0  0  0  0  0
  -32.9796   -4.0791  -19.6780 N   0  0  0  0  0  0  0  0  0  0  0  0
  -35.5203   -5.4280  -11.3983 O   0  0  0  0  0  0  0  0  0  0  0  0
  -34.9826   -6.3822  -12.3294 C   0  0  2  0  0  0  0  0  0  0  0  0
  -34.1006   -4.3860  -17.4863 C   0  0  0  0  0  0  0  0  0  0  0  0
  -34.0598   -2.5398  -15.8270 N   0  0  0  0  0  0  0  0  0  0  0  0
  -33.3072   -7.6382  -14.1158 O   0  0  0  0  0  0  0  0  0  0  0  0
  -32.7982   -7.3734  -12.8491 C   0  0  0  0  0  0  0  0  0  0  0  0
  -31.4045   -8.9550  -14.9531 O   0  0  0  0  0  0  0  0  0  0  0  0
  -34.4675   -6.0602  -16.1533 C   0  0  0  0  0  0  0  0  0  0  0  0
  -34.4003   -2.4987  -18.8596 O   0  0  0  0  0  0  0  0  0  0  0  0
  -33.8545   -3.5909  -18.7037 C   0  0  0  0  0  0  0  0  0  0  0  0
  -34.1768   -3.8944  -16.2144 C   0  0  0  0  0  0  0  0  0  0  0  0
  -33.4714  -10.1301  -13.9560 O   0  5  0  0  0  0  0  0  0  0  0  0
  -33.7598   -9.1861  -16.0312 O   0  0  0  0  0  0  0  0  0  0  0  0
  1 17  1  0  0  0  0
  1 20  1  0  0  0  0
  2 15  1  6  0  0  0
  2  3  1  0  0  0  0
  2 11  1  0  0  0  0
  3  5  1  0  0  0  0
  4 16  1  6  0  0  0
  4 21  1  0  0  0  0
  4 22  2  0  0  0  0
  4 14  1  0  0  0  0
  5  1  1  6  0  0  0
  5  8  1  0  0  0  0
  6 17  2  0  0  0  0
  6 12  1  0  0  0  0
  8  7  1  1  0  0  0
  8 11  1  0  0  0  0
  9 19  1  0  0  0  0
 11 10  1  1  0  0  0
 12 20  2  0  0  0  0
 12 19  1  0  0  0  0
 13 20  1  0  0  0  0
 14 15  1  0  0  0  0
 18 19  2  0  0  0  0
M  CHG  1  21  -1
M  END
>  <CHROM.1>
87.43991956,-55.56926610,-62.50826857,-168.53936681,-42.19834317,-33.95937346
-6.13905521,-15.08832664,1.75838781,1.10058845,-0.91975002

>  <Name>
ligand

>  <RI>
0

>  <Rbt.Current_Directory>
/home/itssahil/PROJECTS/Mol_Feturizer/New_Systems/rnas/4XWF

>  <Rbt.Executable>
rbdock ($Id: //depot/dev/client3/rdock/2013.1/src/exe/rbdock.cxx#4 $)

>  <Rbt.Library>
libRbt.so (2013.1, Build901 2013/11/27)

>  <Rbt.Parameter_File>
/export/apps/rDock/src/rDock_2013.1_src/data/scripts/dock_solv.prm

>  <Rbt.Receptor>
prm/blind_docking_40.prm

>  <SCORE>
-4.19969

>  <SCORE.INTER>
-6.23208

>  <SCORE.INTER.CONST>
1

>  <SCORE.INTER.POLAR>
0

>  <SCORE.INTER.ROT>
5

>  <SCORE.INTER.SOLV>
15.2786

>  <SCORE.INTER.VDW>
-16.1809

>  <SCORE.INTER.norm>
-0.283277

>  <SCORE.INTRA>
2.00058

>  <SCORE.INTRA.DIHEDRAL>
0.0943379

>  <SCORE.INTRA.DIHEDRAL.0>
3.49807

>  <SCORE.INTRA.POLAR>
0

>  <SCORE.INTRA.POLAR.0>
0

>  <SCORE.INTRA.REPUL>
0

>  <SCORE.INTRA.REPUL.0>
0

>  <SCORE.INTRA.SOLV>
0.784543

>  <SCORE.INTRA.SOLV.lig_0>
-73.062

>  <SCORE.INTRA.VDW>
1.56114

>  <SCORE.INTRA.VDW.0>
-1.83782

>  <SCORE.INTRA.norm>
0.0909356

>  <SCORE.RESTR>
0.0318079

>  <SCORE.RESTR.CAVITY>
0.0318079

>  <SCORE.RESTR.norm>
0.00144581

>  <SCORE.SYSTEM>
0

>  <SCORE.SYSTEM.CONST>
0

>  <SCORE.SYSTEM.DIHEDRAL>
0

>  <SCORE.SYSTEM.SOLV>
0

>  <SCORE.SYSTEM.norm>
0

>  <SCORE.heavy>
22

>  <SCORE.norm>
-0.190895

>  <RMSD>
13.921

$$$$
ligand
 OpenBabel11021811513D
libRbt.so/2013.1/901 2013/11/27
 22 23  0  0  0  0  0  0  0  0999 V2000
  -34.8450   -4.5053  -13.5573 N   0  0  0  0  0  0  0  0  0  0  0  0
  -33.6419   -7.4634  -12.4371 C   0  0  1  0  0  0  0  0  0  0  0  0
  -33.5843   -6.0113  -12.3480 O   0  0  0  0  0  0  0  0  0  0  0  0
  -32.1421  -10.0137  -14.8004 P   0  0  1  0  0  0  0  0  0  0  0  0
  -34.9021   -5.4974  -12.6005 C   0  0  2  0  0  0  0  0  0  0  0  0
  -34.8852   -2.5434  -14.4850 N   0  0  0  0  0  0  0  0  0  0  0  0
  -37.0442   -6.4662  -13.0114 O   0  0  0  0  0  0  0  0  0  0  0  0
  -35.6354   -6.6278  -13.2133 C   0  0  2  0  0  0  0  0  0  0  0  0
  -33.1262   -3.6129  -17.4363 N   0  0  0  0  0  0  0  0  0  0  0  0
  -35.5894   -7.9038  -11.2091 O   0  0  0  0  0  0  0  0  0  0  0  0
  -35.0782   -7.7994  -12.5485 C   0  0  2  0  0  0  0  0  0  0  0  0
  -34.5718   -3.4460  -15.4271 C   0  0  0  0  0  0  0  0  0  0  0  0
  -34.2296   -5.9041  -15.4913 N   0  0  0  0  0  0  0  0  0  0  0  0
  -32.7689   -9.2401  -13.5891 O   0  0  0  0  0  0  0  0  0  0  0  0
  -32.8921   -7.8569  -13.6630 C   0  0  0  0  0  0  0  0  0  0  0  0
  -33.0141   -9.5396  -16.0192 O   0  0  0  0  0  0  0  0  0  0  0  0
  -35.0604   -3.2052  -13.3253 C   0  0  0  0  0  0  0  0  0  0  0  0
  -35.1073   -2.4923  -17.5106 O   0  0  0  0  0  0  0  0  0  0  0  0
  -34.3067   -3.1514  -16.8475 C   0  0  0  0  0  0  0  0  0  0  0  0
  -34.5415   -4.6834  -14.8499 C   0  0  0  0  0  0  0  0  0  0  0  0
  -30.6907   -9.6831  -14.9108 O   0  5  0  0  0  0  0  0  0  0  0  0
  -32.0949  -11.4614  -14.5276 O   0  0  0  0  0  0  0  0  0  0  0  0
  1 17  1  0  0  0  0
  1 20  1  0  0  0  0
  2 15  1  6  0  0  0
  2  3  1  0  0  0  0
  2 11  1  0  0  0  0
  3  5  1  0  0  0  0
  4 16  1  6  0  0  0
  4 21  1  0  0  0  0
  4 22  2  0  0  0  0
  4 14  1  0  0  0  0
  5  1  1  6  0  0  0
  5  8  1  0  0  0  0
  6 17  2  0  0  0  0
  6 12  1  0  0  0  0
  8  7  1  1  0  0  0
  8 11  1  0  0  0  0
  9 19  1  0  0  0  0
 11 10  1  1  0  0  0
 12 20  2  0  0  0  0
 12 19  1  0  0  0  0
 13 20  1  0  0  0  0
 14 15  1  0  0  0  0
 18 19  2  0  0  0  0
M  CHG  1  21  -1
M  END
>  <CHROM.1>
-110.46218891,169.90940583,-53.93579503,174.21739589,127.27087504,-33.94114181
-6.64661413,-14.28385520,2.17645892,0.91317050,-0.66345632

>  <Name>
ligand

>  <RI>
0

>  <Rbt.Current_Directory>
/home/itssahil/PROJECTS/Mol_Feturizer/New_Systems/rnas/4XWF

>  <Rbt.Executable>
rbdock ($Id: //depot/dev/client3/rdock/2013.1/src/exe/rbdock.cxx#4 $)

>  <Rbt.Library>
libRbt.so (2013.1, Build901 2013/11/27)

>  <Rbt.Parameter_File>
/export/apps/rDock/src/rDock_2013.1_src/data/scripts/dock_solv.prm

>  <Rbt.Receptor>
prm/blind_docking_40.prm

>  <SCORE>
-4.40261

>  <SCORE.INTER>
-6.46486

>  <SCORE.INTER.CONST>
1

>  <SCORE.INTER.POLAR>
0

>  <SCORE.INTER.ROT>
5

>  <SCORE.INTER.SOLV>
14.6783

>  <SCORE.INTER.VDW>
-16.136

>  <SCORE.INTER.norm>
-0.293857

>  <SCORE.INTRA>
2.05497

>  <SCORE.INTRA.DIHEDRAL>
-1.39155

>  <SCORE.INTRA.DIHEDRAL.0>
3.49807

>  <SCORE.INTRA.POLAR>
0

>  <SCORE.INTRA.POLAR.0>
0

>  <SCORE.INTRA.REPUL>
0

>  <SCORE.INTRA.REPUL.0>
0

>  <SCORE.INTRA.SOLV>
4.68342

>  <SCORE.INTRA.SOLV.lig_0>
-73.062

>  <SCORE.INTRA.VDW>
0.40904

>  <SCORE.INTRA.VDW.0>
-1.83782

>  <SCORE.INTRA.norm>
0.0934079

>  <SCORE.RESTR>
0.00726972

>  <SCORE.RESTR.CAVITY>
0.00726972

>  <SCORE.RESTR.norm>
0.000330442

>  <SCORE.SYSTEM>
0

>  <SCORE.SYSTEM.CONST>
0

>  <SCORE.SYSTEM.DIHEDRAL>
0

>  <SCORE.SYSTEM.SOLV>
0

>  <SCORE.SYSTEM.norm>
0

>  <SCORE.heavy>
22

>  <SCORE.norm>
-0.200119

>  <RMSD>
13.940

$$$$
ligand
 OpenBabel11021811513D
libRbt.so/2013.1/901 2013/11/27
 22 23  0  0  0  0  0  0  0  0999 V2000
  -34.8489   -4.5161  -13.5553 N   0  0  0  0  0  0  0  0  0  0  0  0
  -33.5486   -7.3749  -12.2946 C   0  0  1  0  0  0  0  0  0  0  0  0
  -33.5070   -5.9196  -12.3106 O   0  0  0  0  0  0  0  0  0  0  0  0
  -32.1582  -10.0831  -14.5353 P   0  0  1  0  0  0  0  0  0  0  0  0
  -34.8431   -5.4387  -12.5296 C   0  0  2  0  0  0  0  0  0  0  0  0
  -34.9768   -2.6269  -14.6161 N   0  0  0  0  0  0  0  0  0  0  0  0
  -36.9895   -6.4564  -12.7597 O   0  0  0  0  0  0  0  0  0  0  0  0
  -35.5907   -6.6171  -13.0227 C   0  0  2  0  0  0  0  0  0  0  0  0
  -34.9069   -2.2017  -17.5495 N   0  0  0  0  0  0  0  0  0  0  0  0
  -35.4243   -7.7477  -10.9391 O   0  0  0  0  0  0  0  0  0  0  0  0
  -34.9838   -7.7330  -12.3074 C   0  0  2  0  0  0  0  0  0  0  0  0
  -34.6754   -3.5865  -15.5043 C   0  0  0  0  0  0  0  0  0  0  0  0
  -34.2704   -6.0341  -15.4092 N   0  0  0  0  0  0  0  0  0  0  0  0
  -32.6392   -9.2053  -13.3284 O   0  0  0  0  0  0  0  0  0  0  0  0
  -32.8570   -7.8463  -13.5272 C   0  0  0  0  0  0  0  0  0  0  0  0
  -30.7790   -9.4364  -14.9225 O   0  0  0  0  0  0  0  0  0  0  0  0
  -35.0900   -3.2083  -13.4068 C   0  0  0  0  0  0  0  0  0  0  0  0
  -33.9392   -4.2613  -17.6350 O   0  0  0  0  0  0  0  0  0  0  0  0
  -34.4725   -3.3877  -16.9513 C   0  0  0  0  0  0  0  0  0  0  0  0
  -34.5902   -4.7786  -14.8433 C   0  0  0  0  0  0  0  0  0  0  0  0
  -32.0763  -11.5130  -14.1152 O   0  5  0  0  0  0  0  0  0  0  0  0
  -33.1931  -10.1424  -15.5832 O   0  0  0  0  0  0  0  0  0  0  0  0
  1 17  1  0  0  0  0
  1 20  1  0  0  0  0
  2 15  1  6  0  0  0
  2  3  1  0  0  0  0
  2 11  1  0  0  0  0
  3  5  1  0  0  0  0
  4 16  1  6  0  0  0
  4 21  1  0  0  0  0
  4 22  2  0  0  0  0
  4 14  1  0  0  0  0
  5  1  1  6  0  0  0
  5  8  1  0  0  0  0
  6 17  2  0  0  0  0
  6 12  1  0  0  0  0
  8  7  1  1  0  0  0
  8 11  1  0  0  0  0
  9 19  1  0  0  0  0
 11 10  1  1  0  0  0
 12 20  2  0  0  0  0
 12 19  1  0  0  0  0
 13 20  1  0  0  0  0
 14 15  1  0  0  0  0
 18 19  2  0  0  0  0
M  CHG  1  21  -1
M  END
>  <CHROM.1>
-111.50385755,166.45958776,61.16107645,169.14320704,-15.69969084,-33.95846186
-6.70225016,-14.16928890,2.22933173,0.96002392,-0.77687300

>  <Name>
ligand

>  <RI>
0

>  <Rbt.Current_Directory>
/home/itssahil/PROJECTS/Mol_Feturizer/New_Systems/rnas/4XWF

>  <Rbt.Executable>
rbdock ($Id: //depot/dev/client3/rdock/2013.1/src/exe/rbdock.cxx#4 $)

>  <Rbt.Library>
libRbt.so (2013.1, Build901 2013/11/27)

>  <Rbt.Parameter_File>
/export/apps/rDock/src/rDock_2013.1_src/data/scripts/dock_solv.prm

>  <Rbt.Receptor>
prm/blind_docking_40.prm

>  <SCORE>
-3.9958

>  <SCORE.INTER>
-6.71523

>  <SCORE.INTER.CONST>
1

>  <SCORE.INTER.POLAR>
0

>  <SCORE.INTER.ROT>
5

>  <SCORE.INTER.SOLV>
10.3947

>  <SCORE.INTER.VDW>
-14.8751

>  <SCORE.INTER.norm>
-0.305238

>  <SCORE.INTRA>
2.46114

>  <SCORE.INTRA.DIHEDRAL>
-0.57647

>  <SCORE.INTRA.DIHEDRAL.0>
3.49807

>  <SCORE.INTRA.POLAR>
0

>  <SCORE.INTRA.POLAR.0>
0

>  <SCORE.INTRA.REPUL>
0

>  <SCORE.INTRA.REPUL.0>
0

>  <SCORE.INTRA.SOLV>
4.76601

>  <SCORE.INTRA.SOLV.lig_0>
-73.062

>  <SCORE.INTRA.VDW>
0.366376

>  <SCORE.INTRA.VDW.0>
-1.83782

>  <SCORE.INTRA.norm>
0.11187

>  <SCORE.RESTR>
0.25829

>  <SCORE.RESTR.CAVITY>
0.25829

>  <SCORE.RESTR.norm>
0.0117404

>  <SCORE.SYSTEM>
0

>  <SCORE.SYSTEM.CONST>
0

>  <SCORE.SYSTEM.DIHEDRAL>
0

>  <SCORE.SYSTEM.SOLV>
0

>  <SCORE.SYSTEM.norm>
0

>  <SCORE.heavy>
22

>  <SCORE.norm>
-0.181627

>  <RMSD>
13.955

$$$$
ligand
 OpenBabel11021811513D
libRbt.so/2013.1/901 2013/11/27
 22 23  0  0  0  0  0  0  0  0999 V2000
  -37.7023    1.9967  -20.5040 N   0  0  0  0  0  0  0  0  0  0  0  0
  -36.3041   -0.7519  -19.1102 C   0  0  1  0  0  0  0  0  0  0  0  0
  -37.1208   -0.2128  -20.1883 O   0  0  0  0  0  0  0  0  0  0  0  0
  -37.0185   -1.7449  -15.5244 P   0  0  1  0  0  0  0  0  0  0  0  0
  -36.6458    1.1098  -20.4876 C   0  0  2  0  0  0  0  0  0  0  0  0
  -39.6285    2.9028  -20.0802 N   0  0  0  0  0  0  0  0  0  0  0  0
  -34.8544    2.4797  -19.7063 O   0  0  0  0  0  0  0  0  0  0  0  0
  -35.8069    1.4799  -19.3256 C   0  0  2  0  0  0  0  0  0  0  0  0
  -39.6814    5.1991  -22.7343 N   0  0  0  0  0  0  0  0  0  0  0  0
  -34.1586   -0.1527  -19.8401 O   0  0  0  0  0  0  0  0  0  0  0  0
  -35.2017    0.2165  -18.9224 C   0  0  2  0  0  0  0  0  0  0  0  0
  -38.9384    3.7370  -20.8730 C   0  0  0  0  0  0  0  0  0  0  0  0
  -36.6881    3.7396  -21.9216 N   0  0  0  0  0  0  0  0  0  0  0  0
  -36.3881   -1.4413  -16.9276 O   0  0  0  0  0  0  0  0  0  0  0  0
  -37.1719   -0.8326  -17.9017 C   0  0  0  0  0  0  0  0  0  0  0  0
  -37.9397   -2.9869  -15.8058 O   0  0  0  0  0  0  0  0  0  0  0  0
  -38.8604    1.8194  -19.8575 C   0  0  0  0  0  0  0  0  0  0  0  0
  -39.5602    5.9904  -20.6024 O   0  0  0  0  0  0  0  0  0  0  0  0
  -39.4134    5.0409  -21.3719 C   0  0  0  0  0  0  0  0  0  0  0  0
  -37.7231    3.1747  -21.1417 C   0  0  0  0  0  0  0  0  0  0  0  0
  -35.9337   -1.9906  -14.5289 O   0  5  0  0  0  0  0  0  0  0  0  0
  -37.6613   -0.5405  -14.9688 O   0  0  0  0  0  0  0  0  0  0  0  0
  1 17  1  0  0  0  0
  1 20  1  0  0  0  0
  2 15  1  1  0  0  0
  2  3  1  0  0  0  0
  2 11  1  0  0  0  0
  3  5  1  0  0  0  0
  4 16  1  6  0  0  0
  4 21  1  0  0  0  0
  4 22  2  0  0  0  0
  4 14  1  0  0  0  0
  5  1  1  1  0  0  0
  5  8  1  0  0  0  0
  6 17  2  0  0  0  0
  6 12  1  0  0  0  0
  8  7  1  6  0  0  0
  8 11  1  0  0  0  0
  9 19  1  0  0  0  0
 11 10  1  6  0  0  0
 12 20  2  0  0  0  0
 12 19  1  0  0  0  0
 13 20  1  0  0  0  0
 14 15  1  0  0  0  0
 18 19  2  0  0  0  0
M  CHG  1  21  -1
M  END
>  <CHROM.1>
24.12482248,175.71605061,74.97132901,-177.31613070,-111.62594768,-37.22901943
1.02868699,-18.89820934,-1.83129337,-0.46355596,2.29047883

>  <Name>
ligand

>  <RI>
0

>  <Rbt.Current_Directory>
/home/itssahil/PROJECTS/Mol_Feturizer/New_Systems/rnas/4XWF

>  <Rbt.Executable>
rbdock ($Id: //depot/dev/client3/rdock/2013.1/src/exe/rbdock.cxx#4 $)

>  <Rbt.Library>
libRbt.so (2013.1, Build901 2013/11/27)

>  <Rbt.Parameter_File>
/export/apps/rDock/src/rDock_2013.1_src/data/scripts/dock_solv.prm

>  <Rbt.Receptor>
prm/blind_docking_60.prm

>  <SCORE>
-10.2138

>  <SCORE.INTER>
-9.38618

>  <SCORE.INTER.CONST>
1

>  <SCORE.INTER.POLAR>
0

>  <SCORE.INTER.ROT>
5

>  <SCORE.INTER.SOLV>
16.0669

>  <SCORE.INTER.VDW>
-18.5464

>  <SCORE.INTER.norm>
-0.426645

>  <SCORE.INTRA>
-0.827624

>  <SCORE.INTRA.DIHEDRAL>
-1.54564

>  <SCORE.INTRA.DIHEDRAL.0>
3.49807

>  <SCORE.INTRA.POLAR>
0

>  <SCORE.INTRA.POLAR.0>
0

>  <SCORE.INTRA.REPUL>
0

>  <SCORE.INTRA.REPUL.0>
0

>  <SCORE.INTRA.SOLV>
0.368858

>  <SCORE.INTRA.SOLV.lig_0>
-73.062

>  <SCORE.INTRA.VDW>
-0.23923

>  <SCORE.INTRA.VDW.0>
-1.83782

>  <SCORE.INTRA.norm>
-0.0376193

>  <SCORE.RESTR>
0

>  <SCORE.RESTR.CAVITY>
0

>  <SCORE.RESTR.norm>
0

>  <SCORE.SYSTEM>
0

>  <SCORE.SYSTEM.CONST>
0

>  <SCORE.SYSTEM.DIHEDRAL>
0

>  <SCORE.SYSTEM.SOLV>
0

>  <SCORE.SYSTEM.norm>
0

>  <SCORE.heavy>
22

>  <SCORE.norm>
-0.464264

>  <RMSD>
13.967

$$$$
ligand
 OpenBabel11021811513D
libRbt.so/2013.1/901 2013/11/27
 22 23  0  0  0  0  0  0  0  0999 V2000
  -34.0553   -7.2457  -14.0968 N   0  0  0  0  0  0  0  0  0  0  0  0
  -35.4448   -5.4150  -16.5808 C   0  0  1  0  0  0  0  0  0  0  0  0
  -35.3805   -6.7030  -15.9048 O   0  0  0  0  0  0  0  0  0  0  0  0
  -33.1502   -3.5939  -18.9839 P   0  0  1  0  0  0  0  0  0  0  0  0
  -35.1115   -6.4625  -14.5141 C   0  0  2  0  0  0  0  0  0  0  0  0
  -32.3904   -7.9886  -12.9189 N   0  0  0  0  0  0  0  0  0  0  0  0
  -34.8618   -4.5186  -13.1521 O   0  0  0  0  0  0  0  0  0  0  0  0
  -34.6399   -5.0606  -14.4593 C   0  0  2  0  0  0  0  0  0  0  0  0
  -31.0088  -10.1376  -15.3242 N   0  0  0  0  0  0  0  0  0  0  0  0
  -36.7642   -4.1930  -15.0773 O   0  0  0  0  0  0  0  0  0  0  0  0
  -35.4078   -4.3985  -15.5067 C   0  0  2  0  0  0  0  0  0  0  0  0
  -32.6023   -8.8439  -13.9309 C   0  0  0  0  0  0  0  0  0  0  0  0
  -34.2087   -9.0045  -15.8169 N   0  0  0  0  0  0  0  0  0  0  0  0
  -34.3019   -4.0516  -18.0233 O   0  0  0  0  0  0  0  0  0  0  0  0
  -34.2468   -5.3226  -17.4618 C   0  0  0  0  0  0  0  0  0  0  0  0
  -33.7408   -2.3060  -19.6644 O   0  0  0  0  0  0  0  0  0  0  0  0
  -33.2909   -6.9931  -13.0280 C   0  0  0  0  0  0  0  0  0  0  0  0
  -31.9172  -11.0413  -13.4417 O   0  0  0  0  0  0  0  0  0  0  0  0
  -31.8308  -10.0724  -14.1959 C   0  0  0  0  0  0  0  0  0  0  0  0
  -33.6511   -8.3844  -14.6753 C   0  0  0  0  0  0  0  0  0  0  0  0
  -31.9025   -3.3630  -18.1979 O   0  5  0  0  0  0  0  0  0  0  0  0
  -32.7401   -4.6974  -19.8708 O   0  0  0  0  0  0  0  0  0  0  0  0
  1 17  1  0  0  0  0
  1 20  1  0  0  0  0
  2 15  1  6  0  0  0
  2  3  1  0  0  0  0
  2 11  1  0  0  0  0
  3  5  1  0  0  0  0
  4 16  1  6  0  0  0
  4 21  1  0  0  0  0
  4 22  2  0  0  0  0
  4 14  1  0  0  0  0
  5  1  1  6  0  0  0
  5  8  1  0  0  0  0
  6 17  2  0  0  0  0
  6 12  1  0  0  0  0
  8  7  1  1  0  0  0
  8 11  1  0  0  0  0
  9 19  1  0  0  0  0
 11 10  1  1  0  0  0
 12 20  2  0  0  0  0
 12 19  1  0  0  0  0
 13 20  1  0  0  0  0
 14 15  1  0  0  0  0
 18 19  2  0  0  0  0
M  CHG  1  21  -1
M  END
>  <CHROM.1>
158.32951469,-176.44403054,166.49284158,178.06546004,-111.46440964,-33.74033155
-6.11015920,-15.93924864,1.37447031,-0.77207019,2.31206021

>  <Name>
ligand

>  <RI>
0

>  <Rbt.Current_Directory>
/home/itssahil/PROJECTS/Mol_Feturizer/New_Systems/rnas/4XWF

>  <Rbt.Executable>
rbdock ($Id: //depot/dev/client3/rdock/2013.1/src/exe/rbdock.cxx#4 $)

>  <Rbt.Library>
libRbt.so (2013.1, Build901 2013/11/27)

>  <Rbt.Parameter_File>
/export/apps/rDock/src/rDock_2013.1_src/data/scripts/dock_solv.prm

>  <Rbt.Receptor>
prm/blind_docking_40.prm

>  <SCORE>
-4.1792

>  <SCORE.INTER>
-5.85573

>  <SCORE.INTER.CONST>
1

>  <SCORE.INTER.POLAR>
0

>  <SCORE.INTER.ROT>
5

>  <SCORE.INTER.SOLV>
17.7784

>  <SCORE.INTER.VDW>
-16.7633

>  <SCORE.INTER.norm>
-0.26617

>  <SCORE.INTRA>
1.51234

>  <SCORE.INTRA.DIHEDRAL>
-1.52279

>  <SCORE.INTRA.DIHEDRAL.0>
3.49807

>  <SCORE.INTRA.POLAR>
0

>  <SCORE.INTRA.POLAR.0>
0

>  <SCORE.INTRA.REPUL>
0

>  <SCORE.INTRA.REPUL.0>
0

>  <SCORE.INTRA.SOLV>
2.11828

>  <SCORE.INTRA.SOLV.lig_0>
-73.062

>  <SCORE.INTRA.VDW>
1.2146

>  <SCORE.INTRA.VDW.0>
-1.83782

>  <SCORE.INTRA.norm>
0.0687428

>  <SCORE.RESTR>
0.164191

>  <SCORE.RESTR.CAVITY>
0.164191

>  <SCORE.RESTR.norm>
0.00746323

>  <SCORE.SYSTEM>
0

>  <SCORE.SYSTEM.CONST>
0

>  <SCORE.SYSTEM.DIHEDRAL>
0

>  <SCORE.SYSTEM.SOLV>
0

>  <SCORE.SYSTEM.norm>
0

>  <SCORE.heavy>
22

>  <SCORE.norm>
-0.189964

>  <RMSD>
13.968

$$$$
ligand
 OpenBabel11021811513D
libRbt.so/2013.1/901 2013/11/27
 22 23  0  0  0  0  0  0  0  0999 V2000
  -31.6159   10.0144  -23.1400 N   0  0  0  0  0  0  0  0  0  0  0  0
  -32.9298    9.9967  -20.0214 C   0  0  1  0  0  0  0  0  0  0  0  0
  -31.7651   10.2666  -20.8522 O   0  0  0  0  0  0  0  0  0  0  0  0
  -31.6823    6.6988  -18.6385 P   0  0  1  0  0  0  0  0  0  0  0  0
  -32.2284   10.7289  -22.1312 C   0  0  2  0  0  0  0  0  0  0  0  0
  -31.2885    9.0041  -25.0329 N   0  0  0  0  0  0  0  0  0  0  0  0
  -34.3637   11.2086  -23.0832 O   0  0  0  0  0  0  0  0  0  0  0  0
  -33.6613   10.3598  -22.1679 C   0  0  2  0  0  0  0  0  0  0  0  0
  -28.8917    7.5067  -25.9029 N   0  0  0  0  0  0  0  0  0  0  0  0
  -34.2281   11.9007  -20.4500 O   0  0  0  0  0  0  0  0  0  0  0  0
  -34.0901   10.5091  -20.7826 C   0  0  2  0  0  0  0  0  0  0  0  0
  -30.1456    8.9599  -24.3312 C   0  0  0  0  0  0  0  0  0  0  0  0
  -29.3830    9.7919  -22.1199 N   0  0  0  0  0  0  0  0  0  0  0  0
  -31.8684    8.1816  -19.1132 O   0  0  0  0  0  0  0  0  0  0  0  0
  -33.0051    8.5198  -19.8393 C   0  0  0  0  0  0  0  0  0  0  0  0
  -31.7764    5.8791  -19.9763 O   0  0  0  0  0  0  0  0  0  0  0  0
  -32.2023    9.6546  -24.2877 C   0  0  0  0  0  0  0  0  0  0  0  0
  -27.8440    8.5062  -24.1454 O   0  0  0  0  0  0  0  0  0  0  0  0
  -28.8882    8.3280  -24.7722 C   0  0  0  0  0  0  0  0  0  0  0  0
  -30.3430    9.5968  -23.1393 C   0  0  0  0  0  0  0  0  0  0  0  0
  -30.3827    6.5615  -17.9174 O   0  5  0  0  0  0  0  0  0  0  0  0
  -32.6465    6.3661  -17.5744 O   0  0  0  0  0  0  0  0  0  0  0  0
  1 17  1  0  0  0  0
  1 20  1  0  0  0  0
  2 15  1  6  0  0  0
  2  3  1  0  0  0  0
  2 11  1  0  0  0  0
  3  5  1  0  0  0  0
  4 16  1  6  0  0  0
  4 21  1  0  0  0  0
  4 22  2  0  0  0  0
  4 14  1  0  0  0  0
  5  1  1  6  0  0  0
  5  8  1  0  0  0  0
  6 17  2  0  0  0  0
  6 12  1  0  0  0  0
  8  7  1  6  0  0  0
  8 11  1  0  0  0  0
  9 19  1  0  0  0  0
 11 10  1  1  0  0  0
 12 20  2  0  0  0  0
 12 19  1  0  0  0  0
 13 20  1  0  0  0  0
 14 15  1  0  0  0  0
 18 19  2  0  0  0  0
M  CHG  1  21  -1
M  END
>  <CHROM.1>
143.92705318,65.08678635,55.89998628,175.12343671,-11.39430566,-31.62787536
8.86532173,-21.51058233,1.14373857,0.68734740,-1.00181993

>  <Name>
ligand

>  <RI>
0

>  <Rbt.Current_Directory>
/home/itssahil/PROJECTS/Mol_Feturizer/New_Systems/rnas/4XWF

>  <Rbt.Executable>
rbdock ($Id: //depot/dev/client3/rdock/2013.1/src/exe/rbdock.cxx#4 $)

>  <Rbt.Library>
libRbt.so (2013.1, Build901 2013/11/27)

>  <Rbt.Parameter_File>
/export/apps/rDock/src/rDock_2013.1_src/data/scripts/dock_solv.prm

>  <Rbt.Receptor>
prm/blind_docking_80.prm

>  <SCORE>
-8.65623

>  <SCORE.INTER>
-9.53894

>  <SCORE.INTER.CONST>
1

>  <SCORE.INTER.POLAR>
0

>  <SCORE.INTER.ROT>
5

>  <SCORE.INTER.SOLV>
19.9958

>  <SCORE.INTER.VDW>
-19.9579

>  <SCORE.INTER.norm>
-0.433588

>  <SCORE.INTRA>
0.882708

>  <SCORE.INTRA.DIHEDRAL>
-1.62362

>  <SCORE.INTRA.DIHEDRAL.0>
3.49807

>  <SCORE.INTRA.POLAR>
0

>  <SCORE.INTRA.POLAR.0>
0

>  <SCORE.INTRA.REPUL>
0

>  <SCORE.INTRA.REPUL.0>
0

>  <SCORE.INTRA.SOLV>
0.457368

>  <SCORE.INTRA.SOLV.lig_0>
-73.062

>  <SCORE.INTRA.VDW>
1.46583

>  <SCORE.INTRA.VDW.0>
-1.83782

>  <SCORE.INTRA.norm>
0.0401231

>  <SCORE.RESTR>
0

>  <SCORE.RESTR.CAVITY>
0

>  <SCORE.RESTR.norm>
0

>  <SCORE.SYSTEM>
0

>  <SCORE.SYSTEM.CONST>
0

>  <SCORE.SYSTEM.DIHEDRAL>
0

>  <SCORE.SYSTEM.SOLV>
0

>  <SCORE.SYSTEM.norm>
0

>  <SCORE.heavy>
22

>  <SCORE.norm>
-0.393465

>  <RMSD>
13.976

$$$$
ligand
 OpenBabel11021811513D
libRbt.so/2013.1/901 2013/11/27
 22 23  0  0  0  0  0  0  0  0999 V2000
  -37.8065    2.2084  -20.4777 N   0  0  0  0  0  0  0  0  0  0  0  0
  -36.4612   -0.6153  -19.1858 C   0  0  1  0  0  0  0  0  0  0  0  0
  -37.2962   -0.0264  -20.2230 O   0  0  0  0  0  0  0  0  0  0  0  0
  -37.0687   -1.6438  -15.5925 P   0  0  1  0  0  0  0  0  0  0  0  0
  -36.7838    1.2834  -20.5163 C   0  0  2  0  0  0  0  0  0  0  0  0
  -39.6898    3.1668  -19.9819 N   0  0  0  0  0  0  0  0  0  0  0  0
  -34.9155    2.5721  -19.7783 O   0  0  0  0  0  0  0  0  0  0  0  0
  -35.8898    1.6006  -19.3801 C   0  0  2  0  0  0  0  0  0  0  0  0
  -38.6820    6.4681  -20.8036 N   0  0  0  0  0  0  0  0  0  0  0  0
  -34.3232   -0.0809  -19.9844 O   0  0  0  0  0  0  0  0  0  0  0  0
  -35.3175    0.3086  -19.0221 C   0  0  2  0  0  0  0  0  0  0  0  0
  -38.9832    4.0062  -20.7543 C   0  0  0  0  0  0  0  0  0  0  0  0
  -36.7532    3.9683  -21.8450 N   0  0  0  0  0  0  0  0  0  0  0  0
  -36.4669   -1.2822  -16.9946 O   0  0  0  0  0  0  0  0  0  0  0  0
  -37.2866   -0.6874  -17.9474 C   0  0  0  0  0  0  0  0  0  0  0  0
  -37.8038   -0.3217  -15.1656 O   0  0  0  0  0  0  0  0  0  0  0  0
  -38.9588    2.0479  -19.8167 C   0  0  0  0  0  0  0  0  0  0  0  0
  -40.4279    5.4817  -21.8827 O   0  0  0  0  0  0  0  0  0  0  0  0
  -39.4178    5.3455  -21.1925 C   0  0  0  0  0  0  0  0  0  0  0  0
  -37.7947    3.4110  -21.0681 C   0  0  0  0  0  0  0  0  0  0  0  0
  -37.9592   -2.8348  -15.7201 O   0  5  0  0  0  0  0  0  0  0  0  0
  -36.0209   -2.1543  -14.6902 O   0  0  0  0  0  0  0  0  0  0  0  0
  1 17  1  0  0  0  0
  1 20  1  0  0  0  0
  2 15  1  1  0  0  0
  2  3  1  0  0  0  0
  2 11  1  0  0  0  0
  3  5  1  0  0  0  0
  4 16  1  1  0  0  0
  4 21  1  0  0  0  0
  4 22  2  0  0  0  0
  4 14  1  0  0  0  0
  5  1  1  1  0  0  0
  5  8  1  0  0  0  0
  6 17  2  0  0  0  0
  6 12  1  0  0  0  0
  8  7  1  6  0  0  0
  8 11  1  0  0  0  0
  9 19  1  0  0  0  0
 11 10  1  6  0  0  0
 12 20  2  0  0  0  0
 12 19  1  0  0  0  0
 13 20  1  0  0  0  0
 14 15  1  0  0  0  0
 18 19  2  0  0  0  0
M  CHG  1  21  -1
M  END
>  <CHROM.1>
22.50824672,178.61260981,-48.85270559,-174.09235142,118.05608686,-37.31106194
1.19708545,-18.90195598,-1.82848310,-0.46815270,2.33153787

>  <Name>
ligand

>  <RI>
0

>  <Rbt.Current_Directory>
/home/itssahil/PROJECTS/Mol_Feturizer/New_Systems/rnas/4XWF

>  <Rbt.Executable>
rbdock ($Id: //depot/dev/client3/rdock/2013.1/src/exe/rbdock.cxx#4 $)

>  <Rbt.Library>
libRbt.so (2013.1, Build901 2013/11/27)

>  <Rbt.Parameter_File>
/export/apps/rDock/src/rDock_2013.1_src/data/scripts/dock_solv.prm

>  <Rbt.Receptor>
prm/blind_docking_100.prm

>  <SCORE>
-10.8367

>  <SCORE.INTER>
-10.2331

>  <SCORE.INTER.CONST>
1

>  <SCORE.INTER.POLAR>
0

>  <SCORE.INTER.ROT>
5

>  <SCORE.INTER.SOLV>
14.2271

>  <SCORE.INTER.VDW>
-18.4978

>  <SCORE.INTER.norm>
-0.465142

>  <SCORE.INTRA>
-0.603586

>  <SCORE.INTRA.DIHEDRAL>
-1.68314

>  <SCORE.INTRA.DIHEDRAL.0>
3.49807

>  <SCORE.INTRA.POLAR>
0

>  <SCORE.INTRA.POLAR.0>
0

>  <SCORE.INTRA.REPUL>
0

>  <SCORE.INTRA.REPUL.0>
0

>  <SCORE.INTRA.SOLV>
0.335563

>  <SCORE.INTRA.SOLV.lig_0>
-73.062

>  <SCORE.INTRA.VDW>
0.070203

>  <SCORE.INTRA.VDW.0>
-1.83782

>  <SCORE.INTRA.norm>
-0.0274357

>  <SCORE.RESTR>
0

>  <SCORE.RESTR.CAVITY>
0

>  <SCORE.RESTR.norm>
0

>  <SCORE.SYSTEM>
0

>  <SCORE.SYSTEM.CONST>
0

>  <SCORE.SYSTEM.DIHEDRAL>
0

>  <SCORE.SYSTEM.SOLV>
0

>  <SCORE.SYSTEM.norm>
0

>  <SCORE.heavy>
22

>  <SCORE.norm>
-0.492578

>  <RMSD>
13.977

$$$$
ligand
 OpenBabel11021811513D
libRbt.so/2013.1/901 2013/11/27
 22 23  0  0  0  0  0  0  0  0999 V2000
  -36.2846   -4.1129  -18.4220 N   0  0  0  0  0  0  0  0  0  0  0  0
  -37.2803   -0.8785  -18.4390 C   0  0  1  0  0  0  0  0  0  0  0  0
  -37.5787   -2.2483  -18.8322 O   0  0  0  0  0  0  0  0  0  0  0  0
  -35.2234    1.8885  -20.0095 P   0  0  1  0  0  0  0  0  0  0  0  0
  -37.0438   -3.1259  -17.8282 C   0  0  2  0  0  0  0  0  0  0  0  0
  -34.6717   -5.1006  -19.4870 N   0  0  0  0  0  0  0  0  0  0  0  0
  -35.9283   -2.8246  -15.7400 O   0  0  0  0  0  0  0  0  0  0  0  0
  -36.1041   -2.2837  -17.0546 C   0  0  2  0  0  0  0  0  0  0  0  0
  -35.2610   -8.3561  -18.2473 N   0  0  0  0  0  0  0  0  0  0  0  0
  -37.8495   -0.9381  -16.1659 O   0  0  0  0  0  0  0  0  0  0  0  0
  -36.7310   -0.9677  -17.0684 C   0  0  2  0  0  0  0  0  0  0  0  0
  -35.5434   -6.0378  -19.0839 C   0  0  0  0  0  0  0  0  0  0  0  0
  -37.6701   -6.0553  -17.8032 N   0  0  0  0  0  0  0  0  0  0  0  0
  -36.2454    1.0181  -19.1992 O   0  0  0  0  0  0  0  0  0  0  0  0
  -36.2680   -0.3577  -19.4003 C   0  0  0  0  0  0  0  0  0  0  0  0
  -33.9188    1.8169  -19.1356 O   0  0  0  0  0  0  0  0  0  0  0  0
  -35.1379   -3.9047  -19.0796 C   0  0  0  0  0  0  0  0  0  0  0  0
  -35.4528   -7.9324  -20.4765 O   0  0  0  0  0  0  0  0  0  0  0  0
  -35.4243   -7.4870  -19.3294 C   0  0  0  0  0  0  0  0  0  0  0  0
  -36.5602   -5.4238  -18.4099 C   0  0  0  0  0  0  0  0  0  0  0  0
  -35.0767    1.3372  -21.3888 O   0  5  0  0  0  0  0  0  0  0  0  0
  -35.7786    3.2260  -20.2840 O   0  0  0  0  0  0  0  0  0  0  0  0
  1 17  1  0  0  0  0
  1 20  1  0  0  0  0
  2 15  1  6  0  0  0
  2  3  1  0  0  0  0
  2 11  1  0  0  0  0
  3  5  1  0  0  0  0
  4 16  1  1  0  0  0
  4 21  1  0  0  0  0
  4 22  2  0  0  0  0
  4 14  1  0  0  0  0
  5  1  1  6  0  0  0
  5  8  1  0  0  0  0
  6 17  2  0  0  0  0
  6 12  1  0  0  0  0
  8  7  1  1  0  0  0
  8 11  1  0  0  0  0
  9 19  1  0  0  0  0
 11 10  1  1  0  0  0
 12 20  2  0  0  0  0
 12 19  1  0  0  0  0
 13 20  1  0  0  0  0
 14 15  1  0  0  0  0
 18 19  2  0  0  0  0
M  CHG  1  21  -1
M  END
>  <CHROM.1>
65.93453990,166.26542229,-85.82397524,176.99408851,115.46105825,-36.00149350
-2.28198682,-18.76197137,1.64154079,-1.03608938,3.09743063

>  <Name>
ligand

>  <RI>
0

>  <Rbt.Current_Directory>
/home/itssahil/PROJECTS/Mol_Feturizer/New_Systems/rnas/4XWF

>  <Rbt.Executable>
rbdock ($Id: //depot/dev/client3/rdock/2013.1/src/exe/rbdock.cxx#4 $)

>  <Rbt.Library>
libRbt.so (2013.1, Build901 2013/11/27)

>  <Rbt.Parameter_File>
/export/apps/rDock/src/rDock_2013.1_src/data/scripts/dock_solv.prm

>  <Rbt.Receptor>
prm/blind_docking_60.prm

>  <SCORE>
-8.39921

>  <SCORE.INTER>
-8.24685

>  <SCORE.INTER.CONST>
1

>  <SCORE.INTER.POLAR>
0

>  <SCORE.INTER.ROT>
5

>  <SCORE.INTER.SOLV>
18.7165

>  <SCORE.INTER.VDW>
-18.6701

>  <SCORE.INTER.norm>
-0.374857

>  <SCORE.INTRA>
-0.152357

>  <SCORE.INTRA.DIHEDRAL>
-0.285

>  <SCORE.INTRA.DIHEDRAL.0>
3.49807

>  <SCORE.INTRA.POLAR>
0

>  <SCORE.INTRA.POLAR.0>
0

>  <SCORE.INTRA.REPUL>
0

>  <SCORE.INTRA.REPUL.0>
0

>  <SCORE.INTRA.SOLV>
-0.779527

>  <SCORE.INTRA.SOLV.lig_0>
-73.062

>  <SCORE.INTRA.VDW>
0.379907

>  <SCORE.INTRA.VDW.0>
-1.83782

>  <SCORE.INTRA.norm>
-0.00692533

>  <SCORE.RESTR>
0

>  <SCORE.RESTR.CAVITY>
0

>  <SCORE.RESTR.norm>
0

>  <SCORE.SYSTEM>
0

>  <SCORE.SYSTEM.CONST>
0

>  <SCORE.SYSTEM.DIHEDRAL>
0

>  <SCORE.SYSTEM.SOLV>
0

>  <SCORE.SYSTEM.norm>
0

>  <SCORE.heavy>
22

>  <SCORE.norm>
-0.381782

>  <RMSD>
13.980

$$$$
ligand
 OpenBabel11021811513D
libRbt.so/2013.1/901 2013/11/27
 22 23  0  0  0  0  0  0  0  0999 V2000
  -37.1499   -4.8801  -17.0797 N   0  0  0  0  0  0  0  0  0  0  0  0
  -37.5616   -1.5212  -17.0507 C   0  0  1  0  0  0  0  0  0  0  0  0
  -38.1952   -2.8263  -17.1739 O   0  0  0  0  0  0  0  0  0  0  0  0
  -35.5579    0.6645  -19.4099 P   0  0  1  0  0  0  0  0  0  0  0  0
  -37.4686   -3.7530  -16.3508 C   0  0  2  0  0  0  0  0  0  0  0  0
  -36.8937   -6.2374  -18.7540 N   0  0  0  0  0  0  0  0  0  0  0  0
  -35.6223   -3.5908  -14.8472 O   0  0  0  0  0  0  0  0  0  0  0  0
  -36.1890   -3.0703  -16.0554 C   0  0  2  0  0  0  0  0  0  0  0  0
  -35.0827   -8.6542  -18.6952 N   0  0  0  0  0  0  0  0  0  0  0  0
  -37.2436   -1.4024  -14.7314 O   0  0  0  0  0  0  0  0  0  0  0  0
  -36.5619   -1.6636  -15.9697 C   0  0  2  0  0  0  0  0  0  0  0  0
  -36.4054   -6.8316  -17.6545 C   0  0  0  0  0  0  0  0  0  0  0  0
  -36.1565   -6.2163  -15.2622 N   0  0  0  0  0  0  0  0  0  0  0  0
  -36.3118    0.0191  -18.1958 O   0  0  0  0  0  0  0  0  0  0  0  0
  -36.9130   -1.2241  -18.3588 C   0  0  0  0  0  0  0  0  0  0  0  0
  -34.7204    1.8147  -18.7421 O   0  0  0  0  0  0  0  0  0  0  0  0
  -37.3613   -5.0272  -18.3928 C   0  0  0  0  0  0  0  0  0  0  0  0
  -35.9460   -8.8848  -16.6006 O   0  0  0  0  0  0  0  0  0  0  0  0
  -35.8043   -8.1770  -17.5976 C   0  0  0  0  0  0  0  0  0  0  0  0
  -36.5604   -5.9818  -16.5966 C   0  0  0  0  0  0  0  0  0  0  0  0
  -34.7412   -0.3745  -20.1038 O   0  5  0  0  0  0  0  0  0  0  0  0
  -36.5074    1.0494  -20.4695 O   0  0  0  0  0  0  0  0  0  0  0  0
  1 17  1  0  0  0  0
  1 20  1  0  0  0  0
  2 15  1  6  0  0  0
  2  3  1  0  0  0  0
  2 11  1  0  0  0  0
  3  5  1  0  0  0  0
  4 16  1  1  0  0  0
  4 21  1  0  0  0  0
  4 22  2  0  0  0  0
  4 14  1  0  0  0  0
  5  1  1  6  0  0  0
  5  8  1  0  0  0  0
  6 17  2  0  0  0  0
  6 12  1  0  0  0  0
  8  7  1  1  0  0  0
  8 11  1  0  0  0  0
  9 19  1  0  0  0  0
 11 10  1  1  0  0  0
 12 20  2  0  0  0  0
 12 19  1  0  0  0  0
 13 20  1  0  0  0  0
 14 15  1  0  0  0  0
 18 19  2  0  0  0  0
M  CHG  1  21  -1
M  END
>  <CHROM.1>
6.51644185,-179.46594743,-165.34905115,-178.42471814,33.18941867,-36.34184268
-3.13087697,-17.57736791,1.72575431,-1.28264341,3.05621632

>  <Name>
ligand

>  <RI>
0

>  <Rbt.Current_Directory>
/home/itssahil/PROJECTS/Mol_Feturizer/New_Systems/rnas/4XWF

>  <Rbt.Executable>
rbdock ($Id: //depot/dev/client3/rdock/2013.1/src/exe/rbdock.cxx#4 $)

>  <Rbt.Library>
libRbt.so (2013.1, Build901 2013/11/27)

>  <Rbt.Parameter_File>
/export/apps/rDock/src/rDock_2013.1_src/data/scripts/dock_solv.prm

>  <Rbt.Receptor>
prm/blind_docking_60.prm

>  <SCORE>
-9.47566

>  <SCORE.INTER>
-10.2662

>  <SCORE.INTER.CONST>
1

>  <SCORE.INTER.POLAR>
0

>  <SCORE.INTER.ROT>
5

>  <SCORE.INTER.SOLV>
11.3914

>  <SCORE.INTER.VDW>
-17.5746

>  <SCORE.INTER.norm>
-0.466647

>  <SCORE.INTRA>
0.790584

>  <SCORE.INTRA.DIHEDRAL>
-0.714521

>  <SCORE.INTRA.DIHEDRAL.0>
3.49807

>  <SCORE.INTRA.POLAR>
0

>  <SCORE.INTRA.POLAR.0>
0

>  <SCORE.INTRA.REPUL>
0

>  <SCORE.INTRA.REPUL.0>
0

>  <SCORE.INTRA.SOLV>
1.50051

>  <SCORE.INTRA.SOLV.lig_0>
-73.062

>  <SCORE.INTRA.VDW>
0.397589

>  <SCORE.INTRA.VDW.0>
-1.83782

>  <SCORE.INTRA.norm>
0.0359356

>  <SCORE.RESTR>
0

>  <SCORE.RESTR.CAVITY>
0

>  <SCORE.RESTR.norm>
0

>  <SCORE.SYSTEM>
0

>  <SCORE.SYSTEM.CONST>
0

>  <SCORE.SYSTEM.DIHEDRAL>
0

>  <SCORE.SYSTEM.SOLV>
0

>  <SCORE.SYSTEM.norm>
0

>  <SCORE.heavy>
22

>  <SCORE.norm>
-0.430712

>  <RMSD>
13.984

$$$$
ligand
 OpenBabel11021811513D
libRbt.so/2013.1/901 2013/11/27
 22 23  0  0  0  0  0  0  0  0999 V2000
  -33.9679    4.4360  -20.9390 N   0  0  0  0  0  0  0  0  0  0  0  0
  -36.4131    2.2454  -21.7605 C   0  0  1  0  0  0  0  0  0  0  0  0
  -35.4137    3.1916  -22.2356 O   0  0  0  0  0  0  0  0  0  0  0  0
  -37.9389    4.4768  -23.3514 P   0  0  1  0  0  0  0  0  0  0  0  0
  -34.2999    3.1549  -21.3287 C   0  0  2  0  0  0  0  0  0  0  0  0
  -34.1001    6.5737  -20.5872 N   0  0  0  0  0  0  0  0  0  0  0  0
  -33.7399    1.8811  -19.3897 O   0  0  0  0  0  0  0  0  0  0  0  0
  -34.8194    2.4722  -20.1226 C   0  0  2  0  0  0  0  0  0  0  0  0
  -32.0262    8.3625  -19.4713 N   0  0  0  0  0  0  0  0  0  0  0  0
  -35.0644    0.3966  -21.2534 O   0  0  0  0  0  0  0  0  0  0  0  0
  -35.7656    1.5012  -20.6582 C   0  0  2  0  0  0  0  0  0  0  0  0
  -32.9369    6.1368  -20.0805 C   0  0  0  0  0  0  0  0  0  0  0  0
  -31.7897    3.9429  -19.8960 N   0  0  0  0  0  0  0  0  0  0  0  0
  -38.3445    3.2956  -22.4033 O   0  0  0  0  0  0  0  0  0  0  0  0
  -37.5741    3.0424  -21.2736 C   0  0  0  0  0  0  0  0  0  0  0  0
  -36.9381    3.8017  -24.3580 O   0  0  0  0  0  0  0  0  0  0  0  0
  -34.7360    5.5157  -21.1255 C   0  0  0  0  0  0  0  0  0  0  0  0
  -30.9855    6.4503  -18.8034 O   0  0  0  0  0  0  0  0  0  0  0  0
  -31.9240    6.9703  -19.4067 C   0  0  0  0  0  0  0  0  0  0  0  0
  -32.8478    4.7910  -20.2955 C   0  0  0  0  0  0  0  0  0  0  0  0
  -39.1606    5.0543  -23.9853 O   0  5  0  0  0  0  0  0  0  0  0  0
  -37.4403    5.6244  -22.5723 O   0  0  0  0  0  0  0  0  0  0  0  0
  1 17  1  0  0  0  0
  1 20  1  0  0  0  0
  2 15  1  1  0  0  0
  2  3  1  0  0  0  0
  2 11  1  0  0  0  0
  3  5  1  0  0  0  0
  4 16  1  6  0  0  0
  4 21  1  0  0  0  0
  4 22  2  0  0  0  0
  4 14  1  0  0  0  0
  5  1  1  1  0  0  0
  5  8  1  0  0  0  0
  6 17  2  0  0  0  0
  6 12  1  0  0  0  0
  8  7  1  6  0  0  0
  8 11  1  0  0  0  0
  9 19  1  0  0  0  0
 11 10  1  6  0  0  0
 12 20  2  0  0  0  0
 12 19  1  0  0  0  0
 13 20  1  0  0  0  0
 14 15  1  0  0  0  0
 18 19  2  0  0  0  0
M  CHG  1  21  -1
M  END
>  <CHROM.1>
13.89993757,84.98755655,88.55164807,-81.53973187,-11.64918825,-35.16101252
4.21179409,-21.32309960,-0.25688606,0.58334767,3.00000152

>  <Name>
ligand

>  <RI>
0

>  <Rbt.Current_Directory>
/home/itssahil/PROJECTS/Mol_Feturizer/New_Systems/rnas/4XWF

>  <Rbt.Executable>
rbdock ($Id: //depot/dev/client3/rdock/2013.1/src/exe/rbdock.cxx#4 $)

>  <Rbt.Library>
libRbt.so (2013.1, Build901 2013/11/27)

>  <Rbt.Parameter_File>
/export/apps/rDock/src/rDock_2013.1_src/data/scripts/dock_solv.prm

>  <Rbt.Receptor>
prm/blind_docking_100.prm

>  <SCORE>
-7.70594

>  <SCORE.INTER>
-10.2528

>  <SCORE.INTER.CONST>
1

>  <SCORE.INTER.POLAR>
0

>  <SCORE.INTER.ROT>
5

>  <SCORE.INTER.SOLV>
13.2883

>  <SCORE.INTER.VDW>
-18.198

>  <SCORE.INTER.norm>
-0.466036

>  <SCORE.INTRA>
2.54686

>  <SCORE.INTRA.DIHEDRAL>
3.14314

>  <SCORE.INTRA.DIHEDRAL.0>
3.49807

>  <SCORE.INTRA.POLAR>
0

>  <SCORE.INTRA.POLAR.0>
0

>  <SCORE.INTRA.REPUL>
0

>  <SCORE.INTRA.REPUL.0>
0

>  <SCORE.INTRA.SOLV>
3.35666

>  <SCORE.INTRA.SOLV.lig_0>
-73.062

>  <SCORE.INTRA.VDW>
-0.703044

>  <SCORE.INTRA.VDW.0>
-1.83782

>  <SCORE.INTRA.norm>
0.115766

>  <SCORE.RESTR>
0

>  <SCORE.RESTR.CAVITY>
0

>  <SCORE.RESTR.norm>
0

>  <SCORE.SYSTEM>
0

>  <SCORE.SYSTEM.CONST>
0

>  <SCORE.SYSTEM.DIHEDRAL>
0

>  <SCORE.SYSTEM.SOLV>
0

>  <SCORE.SYSTEM.norm>
0

>  <SCORE.heavy>
22

>  <SCORE.norm>
-0.35027

>  <RMSD>
13.994

$$$$
ligand
 OpenBabel11021811513D
libRbt.so/2013.1/901 2013/11/27
 22 23  0  0  0  0  0  0  0  0999 V2000
  -36.6505    4.2572  -22.4453 N   0  0  0  0  0  0  0  0  0  0  0  0
  -34.3254    5.7205  -20.4690 C   0  0  1  0  0  0  0  0  0  0  0  0
  -35.7165    5.3190  -20.6232 O   0  0  0  0  0  0  0  0  0  0  0  0
  -32.3393    8.7455  -21.5921 P   0  0  1  0  0  0  0  0  0  0  0  0
  -35.7481    4.1179  -21.4110 C   0  0  2  0  0  0  0  0  0  0  0  0
  -37.5937    4.0468  -24.3888 N   0  0  0  0  0  0  0  0  0  0  0  0
  -34.1012    2.6836  -22.3735 O   0  0  0  0  0  0  0  0  0  0  0  0
  -34.4074    4.0409  -22.0333 C   0  0  2  0  0  0  0  0  0  0  0  0
  -39.8608    6.7361  -24.0567 N   0  0  0  0  0  0  0  0  0  0  0  0
  -33.3277    3.6638  -19.9502 O   0  0  0  0  0  0  0  0  0  0  0  0
  -33.5250    4.6046  -21.0190 C   0  0  2  0  0  0  0  0  0  0  0  0
  -38.4017    4.7806  -23.6081 C   0  0  0  0  0  0  0  0  0  0  0  0
  -38.3496    5.5962  -21.2638 N   0  0  0  0  0  0  0  0  0  0  0  0
  -32.8574    7.4105  -20.9534 O   0  0  0  0  0  0  0  0  0  0  0  0
  -34.1394    6.9685  -21.2613 C   0  0  0  0  0  0  0  0  0  0  0  0
  -32.5048    8.4935  -23.1346 O   0  0  0  0  0  0  0  0  0  0  0  0
  -36.5034    3.7281  -23.6655 C   0  0  0  0  0  0  0  0  0  0  0  0
  -40.6495    4.6119  -24.2835 O   0  0  0  0  0  0  0  0  0  0  0  0
  -39.7025    5.3485  -24.0081 C   0  0  0  0  0  0  0  0  0  0  0  0
  -37.8159    4.9148  -22.3817 C   0  0  0  0  0  0  0  0  0  0  0  0
  -33.1304    9.8955  -21.0634 O   0  5  0  0  0  0  0  0  0  0  0  0
  -30.9868    9.0682  -21.1028 O   0  0  0  0  0  0  0  0  0  0  0  0
  1 17  1  0  0  0  0
  1 20  1  0  0  0  0
  2 15  1  6  0  0  0
  2  3  1  0  0  0  0
  2 11  1  0  0  0  0
  3  5  1  0  0  0  0
  4 16  1  6  0  0  0
  4 21  1  0  0  0  0
  4 22  2  0  0  0  0
  4 14  1  0  0  0  0
  5  1  1  6  0  0  0
  5  8  1  0  0  0  0
  6 17  2  0  0  0  0
  6 12  1  0  0  0  0
  8  7  1  1  0  0  0
  8 11  1  0  0  0  0
  9 19  1  0  0  0  0
 11 10  1  1  0  0  0
 12 20  2  0  0  0  0
 12 19  1  0  0  0  0
 13 20  1  0  0  0  0
 14 15  1  0  0  0  0
 18 19  2  0  0  0  0
M  CHG  1  21  -1
M  END
>  <CHROM.1>
145.18069929,172.62591408,-55.98814545,-178.27387327,-115.45331924,-35.29048737
5.90046977,-22.06997834,-2.73063631,-0.40859757,-0.17664757

>  <Name>
ligand

>  <RI>
0

>  <Rbt.Current_Directory>
/home/itssahil/PROJECTS/Mol_Feturizer/New_Systems/rnas/4XWF

>  <Rbt.Executable>
rbdock ($Id: //depot/dev/client3/rdock/2013.1/src/exe/rbdock.cxx#4 $)

>  <Rbt.Library>
libRbt.so (2013.1, Build901 2013/11/27)

>  <Rbt.Parameter_File>
/export/apps/rDock/src/rDock_2013.1_src/data/scripts/dock_solv.prm

>  <Rbt.Receptor>
prm/blind_docking_80.prm

>  <SCORE>
-8.30107

>  <SCORE.INTER>
-9.10865

>  <SCORE.INTER.CONST>
1

>  <SCORE.INTER.POLAR>
0

>  <SCORE.INTER.ROT>
5

>  <SCORE.INTER.SOLV>
7.21554

>  <SCORE.INTER.VDW>
-15.4109

>  <SCORE.INTER.norm>
-0.414029

>  <SCORE.INTRA>
0.807581

>  <SCORE.INTRA.DIHEDRAL>
-1.78387

>  <SCORE.INTRA.DIHEDRAL.0>
3.49807

>  <SCORE.INTRA.POLAR>
0

>  <SCORE.INTRA.POLAR.0>
0

>  <SCORE.INTRA.REPUL>
0

>  <SCORE.INTRA.REPUL.0>
0

>  <SCORE.INTRA.SOLV>
0.599178

>  <SCORE.INTRA.SOLV.lig_0>
-73.062

>  <SCORE.INTRA.VDW>
1.39993

>  <SCORE.INTRA.VDW.0>
-1.83782

>  <SCORE.INTRA.norm>
0.0367082

>  <SCORE.RESTR>
0

>  <SCORE.RESTR.CAVITY>
0

>  <SCORE.RESTR.norm>
0

>  <SCORE.SYSTEM>
0

>  <SCORE.SYSTEM.CONST>
0

>  <SCORE.SYSTEM.DIHEDRAL>
0

>  <SCORE.SYSTEM.SOLV>
0

>  <SCORE.SYSTEM.norm>
0

>  <SCORE.heavy>
22

>  <SCORE.norm>
-0.377321

>  <RMSD>
14.034

$$$$
ligand
 OpenBabel11021811513D
libRbt.so/2013.1/901 2013/11/27
 22 23  0  0  0  0  0  0  0  0999 V2000
  -34.2681   -5.2101  -15.1460 N   0  0  0  0  0  0  0  0  0  0  0  0
  -33.6400   -7.2097  -12.4890 C   0  0  1  0  0  0  0  0  0  0  0  0
  -33.1288   -6.1943  -13.3987 O   0  0  0  0  0  0  0  0  0  0  0  0
  -31.8897   -9.8991  -14.5024 P   0  0  1  0  0  0  0  0  0  0  0  0
  -34.2227   -5.3415  -13.7735 C   0  0  2  0  0  0  0  0  0  0  0  0
  -34.4866   -5.7010  -17.2490 N   0  0  0  0  0  0  0  0  0  0  0  0
  -36.5294   -5.1913  -13.1798 O   0  0  0  0  0  0  0  0  0  0  0  0
  -35.4365   -6.0942  -13.3850 C   0  0  2  0  0  0  0  0  0  0  0  0
  -33.0772   -3.4404  -19.1058 N   0  0  0  0  0  0  0  0  0  0  0  0
  -34.9628   -5.9000  -11.0644 O   0  0  0  0  0  0  0  0  0  0  0  0
  -35.0288   -6.8050  -12.1793 C   0  0  2  0  0  0  0  0  0  0  0  0
  -34.2749   -4.3799  -17.1469 C   0  0  0  0  0  0  0  0  0  0  0  0
  -33.9271   -2.7730  -15.2867 N   0  0  0  0  0  0  0  0  0  0  0  0
  -32.2774   -8.6620  -13.6205 O   0  0  0  0  0  0  0  0  0  0  0  0
  -33.5991   -8.5096  -13.2161 C   0  0  0  0  0  0  0  0  0  0  0  0
  -31.9492  -11.0970  -13.4866 O   0  0  0  0  0  0  0  0  0  0  0  0
  -34.4758   -6.2154  -16.0045 C   0  0  0  0  0  0  0  0  0  0  0  0
  -35.1065   -2.6231  -18.4735 O   0  0  0  0  0  0  0  0  0  0  0  0
  -34.1992   -3.4304  -18.2727 C   0  0  0  0  0  0  0  0  0  0  0  0
  -34.1394   -4.0627  -15.8254 C   0  0  0  0  0  0  0  0  0  0  0  0
  -32.8355  -10.0131  -15.6515 O   0  5  0  0  0  0  0  0  0  0  0  0
  -30.6100   -9.6658  -15.1958 O   0  0  0  0  0  0  0  0  0  0  0  0
  1 17  1  0  0  0  0
  1 20  1  0  0  0  0
  2 15  1  6  0  0  0
  2  3  1  0  0  0  0
  2 11  1  0  0  0  0
  3  5  1  0  0  0  0
  4 16  1  1  0  0  0
  4 21  1  0  0  0  0
  4 22  2  0  0  0  0
  4 14  1  0  0  0  0
  5  1  1  6  0  0  0
  5  8  1  0  0  0  0
  6 17  2  0  0  0  0
  6 12  1  0  0  0  0
  8  7  1  1  0  0  0
  8 11  1  0  0  0  0
  9 19  1  0  0  0  0
 11 10  1  1  0  0  0
 12 20  2  0  0  0  0
 12 19  1  0  0  0  0
 13 20  1  0  0  0  0
 14 15  1  0  0  0  0
 18 19  2  0  0  0  0
M  CHG  1  21  -1
M  END
>  <CHROM.1>
62.55369190,55.93570525,-72.83672231,-176.22384197,-72.47563662,-33.68228645
-6.57447669,-14.81904640,2.13034092,0.96549207,-0.97515170

>  <Name>
ligand

>  <RI>
0

>  <Rbt.Current_Directory>
/home/itssahil/PROJECTS/Mol_Feturizer/New_Systems/rnas/4XWF

>  <Rbt.Executable>
rbdock ($Id: //depot/dev/client3/rdock/2013.1/src/exe/rbdock.cxx#4 $)

>  <Rbt.Library>
libRbt.so (2013.1, Build901 2013/11/27)

>  <Rbt.Parameter_File>
/export/apps/rDock/src/rDock_2013.1_src/data/scripts/dock_solv.prm

>  <Rbt.Receptor>
prm/blind_docking_40.prm

>  <SCORE>
-4.76236

>  <SCORE.INTER>
-4.35016

>  <SCORE.INTER.CONST>
1

>  <SCORE.INTER.POLAR>
0

>  <SCORE.INTER.ROT>
5

>  <SCORE.INTER.SOLV>
18.8755

>  <SCORE.INTER.VDW>
-16.1253

>  <SCORE.INTER.norm>
-0.197735

>  <SCORE.INTRA>
-0.430444

>  <SCORE.INTRA.DIHEDRAL>
-0.0510216

>  <SCORE.INTRA.DIHEDRAL.0>
3.49807

>  <SCORE.INTRA.POLAR>
0

>  <SCORE.INTRA.POLAR.0>
0

>  <SCORE.INTRA.REPUL>
0

>  <SCORE.INTRA.REPUL.0>
0

>  <SCORE.INTRA.SOLV>
-0.923644

>  <SCORE.INTRA.SOLV.lig_0>
-73.062

>  <SCORE.INTRA.VDW>
0.0568889

>  <SCORE.INTRA.VDW.0>
-1.83782

>  <SCORE.INTRA.norm>
-0.0195656

>  <SCORE.RESTR>
0.0182467

>  <SCORE.RESTR.CAVITY>
0.0182467

>  <SCORE.RESTR.norm>
0.000829394

>  <SCORE.SYSTEM>
0

>  <SCORE.SYSTEM.CONST>
0

>  <SCORE.SYSTEM.DIHEDRAL>
0

>  <SCORE.SYSTEM.SOLV>
0

>  <SCORE.SYSTEM.norm>
0

>  <SCORE.heavy>
22

>  <SCORE.norm>
-0.216471

>  <RMSD>
14.080

$$$$
ligand
 OpenBabel11021811513D
libRbt.so/2013.1/901 2013/11/27
 22 23  0  0  0  0  0  0  0  0999 V2000
  -34.2195   -5.2596  -15.1712 N   0  0  0  0  0  0  0  0  0  0  0  0
  -33.6186   -7.2647  -12.5121 C   0  0  1  0  0  0  0  0  0  0  0  0
  -33.0917   -6.2617  -13.4266 O   0  0  0  0  0  0  0  0  0  0  0  0
  -31.9441   -9.9614  -14.5776 P   0  0  1  0  0  0  0  0  0  0  0  0
  -34.1704   -5.3885  -13.7986 C   0  0  2  0  0  0  0  0  0  0  0  0
  -34.4722   -5.7474  -17.2711 N   0  0  0  0  0  0  0  0  0  0  0  0
  -36.4710   -5.1917  -13.1948 O   0  0  0  0  0  0  0  0  0  0  0  0
  -35.3969   -6.1163  -13.4027 C   0  0  2  0  0  0  0  0  0  0  0  0
  -32.8466   -2.9775  -18.6518 N   0  0  0  0  0  0  0  0  0  0  0  0
  -34.9089   -5.9259  -11.0848 O   0  0  0  0  0  0  0  0  0  0  0  0
  -34.9977   -6.8321  -12.1972 C   0  0  2  0  0  0  0  0  0  0  0  0
  -34.2053   -4.4358  -17.1748 C   0  0  0  0  0  0  0  0  0  0  0  0
  -33.7788   -2.8391  -15.3223 N   0  0  0  0  0  0  0  0  0  0  0  0
  -32.2939   -8.7370  -13.6627 O   0  0  0  0  0  0  0  0  0  0  0  0
  -33.6065   -8.5669  -13.2362 C   0  0  0  0  0  0  0  0  0  0  0  0
  -30.5219   -9.5958  -15.1383 O   0  0  0  0  0  0  0  0  0  0  0  0
  -34.4744   -6.2579  -16.0249 C   0  0  0  0  0  0  0  0  0  0  0  0
  -35.1002   -3.1493  -18.9302 O   0  0  0  0  0  0  0  0  0  0  0  0
  -34.0979   -3.4938  -18.3042 C   0  0  0  0  0  0  0  0  0  0  0  0
  -34.0480   -4.1205  -15.8553 C   0  0  0  0  0  0  0  0  0  0  0  0
  -31.9892  -11.2182  -13.7737 O   0  5  0  0  0  0  0  0  0  0  0  0
  -33.0154  -10.2017  -15.5609 O   0  0  0  0  0  0  0  0  0  0  0  0
  1 17  1  0  0  0  0
  1 20  1  0  0  0  0
  2 15  1  6  0  0  0
  2  3  1  0  0  0  0
  2 11  1  0  0  0  0
  3  5  1  0  0  0  0
  4 16  1  6  0  0  0
  4 21  1  0  0  0  0
  4 22  2  0  0  0  0
  4 14  1  0  0  0  0
  5  1  1  6  0  0  0
  5  8  1  0  0  0  0
  6 17  2  0  0  0  0
  6 12  1  0  0  0  0
  8  7  1  1  0  0  0
  8 11  1  0  0  0  0
  9 19  1  0  0  0  0
 11 10  1  1  0  0  0
 12 20  2  0  0  0  0
 12 19  1  0  0  0  0
 13 20  1  0  0  0  0
 14 15  1  0  0  0  0
 18 19  2  0  0  0  0
M  CHG  1  21  -1
M  END
>  <CHROM.1>
63.81014221,55.11113421,165.49174289,-174.69822400,-109.34711171,-33.65321024
-6.62941683,-14.85258194,2.10539777,0.98292031,-0.95659345

>  <Name>
ligand

>  <RI>
0

>  <Rbt.Current_Directory>
/home/itssahil/PROJECTS/Mol_Feturizer/New_Systems/rnas/4XWF

>  <Rbt.Executable>
rbdock ($Id: //depot/dev/client3/rdock/2013.1/src/exe/rbdock.cxx#4 $)

>  <Rbt.Library>
libRbt.so (2013.1, Build901 2013/11/27)

>  <Rbt.Parameter_File>
/export/apps/rDock/src/rDock_2013.1_src/data/scripts/dock_solv.prm

>  <Rbt.Receptor>
prm/blind_docking_40.prm

>  <SCORE>
-4.51833

>  <SCORE.INTER>
-4.07017

>  <SCORE.INTER.CONST>
1

>  <SCORE.INTER.POLAR>
0

>  <SCORE.INTER.ROT>
5

>  <SCORE.INTER.SOLV>
17.4519

>  <SCORE.INTER.VDW>
-15.4641

>  <SCORE.INTER.norm>
-0.185008

>  <SCORE.INTRA>
-0.607694

>  <SCORE.INTRA.DIHEDRAL>
-1.2411

>  <SCORE.INTRA.DIHEDRAL.0>
3.49807

>  <SCORE.INTRA.POLAR>
0

>  <SCORE.INTRA.POLAR.0>
0

>  <SCORE.INTRA.REPUL>
0

>  <SCORE.INTRA.REPUL.0>
0

>  <SCORE.INTRA.SOLV>
-0.285158

>  <SCORE.INTRA.SOLV.lig_0>
-73.062

>  <SCORE.INTRA.VDW>
0.155437

>  <SCORE.INTRA.VDW.0>
-1.83782

>  <SCORE.INTRA.norm>
-0.0276225

>  <SCORE.RESTR>
0.159532

>  <SCORE.RESTR.CAVITY>
0.159532

>  <SCORE.RESTR.norm>
0.00725147

>  <SCORE.SYSTEM>
0

>  <SCORE.SYSTEM.CONST>
0

>  <SCORE.SYSTEM.DIHEDRAL>
0

>  <SCORE.SYSTEM.SOLV>
0

>  <SCORE.SYSTEM.norm>
0

>  <SCORE.heavy>
22

>  <SCORE.norm>
-0.205379

>  <RMSD>
14.115

$$$$
ligand
 OpenBabel11021811513D
libRbt.so/2013.1/901 2013/11/27
 22 23  0  0  0  0  0  0  0  0999 V2000
  -35.3064    5.0300  -21.1156 N   0  0  0  0  0  0  0  0  0  0  0  0
  -37.4327    2.4041  -20.9254 C   0  0  1  0  0  0  0  0  0  0  0  0
  -36.6609    3.4031  -20.2000 O   0  0  0  0  0  0  0  0  0  0  0  0
  -35.9706    0.5420  -18.9807 P   0  0  1  0  0  0  0  0  0  0  0  0
  -36.6104    4.5944  -21.0016 C   0  0  2  0  0  0  0  0  0  0  0  0
  -33.1953    5.0795  -21.6173 N   0  0  0  0  0  0  0  0  0  0  0  0
  -37.5473    5.2670  -23.0911 O   0  0  0  0  0  0  0  0  0  0  0  0
  -37.0247    4.1560  -22.3532 C   0  0  2  0  0  0  0  0  0  0  0  0
  -32.0639    7.5715  -19.5393 N   0  0  0  0  0  0  0  0  0  0  0  0
  -39.2488    3.6939  -21.6551 O   0  0  0  0  0  0  0  0  0  0  0  0
  -38.0080    3.1125  -22.0896 C   0  0  2  0  0  0  0  0  0  0  0  0
  -33.5200    6.2539  -21.0552 C   0  0  0  0  0  0  0  0  0  0  0  0
  -35.5920    7.2805  -20.1516 N   0  0  0  0  0  0  0  0  0  0  0  0
  -36.6085    0.3332  -20.3978 O   0  0  0  0  0  0  0  0  0  0  0  0
  -36.4811    1.3389  -21.3497 C   0  0  0  0  0  0  0  0  0  0  0  0
  -37.0497    1.3984  -18.2240 O   0  0  0  0  0  0  0  0  0  0  0  0
  -34.3059    4.3186  -21.6480 C   0  0  0  0  0  0  0  0  0  0  0  0
  -32.3061    8.1545  -21.7273 O   0  0  0  0  0  0  0  0  0  0  0  0
  -32.5970    7.3790  -20.8167 C   0  0  0  0  0  0  0  0  0  0  0  0
  -34.8486    6.2315  -20.7394 C   0  0  0  0  0  0  0  0  0  0  0  0
  -35.6838   -0.7841  -18.3586 O   0  5  0  0  0  0  0  0  0  0  0  0
  -34.6164    1.1126  -19.0963 O   0  0  0  0  0  0  0  0  0  0  0  0
  1 17  1  0  0  0  0
  1 20  1  0  0  0  0
  2 15  1  6  0  0  0
  2  3  1  0  0  0  0
  2 11  1  0  0  0  0
  3  5  1  0  0  0  0
  4 16  1  1  0  0  0
  4 21  1  0  0  0  0
  4 22  2  0  0  0  0
  4 14  1  0  0  0  0
  5  1  1  6  0  0  0
  5  8  1  0  0  0  0
  6 17  2  0  0  0  0
  6 12  1  0  0  0  0
  8  7  1  1  0  0  0
  8 11  1  0  0  0  0
  9 19  1  0  0  0  0
 11 10  1  1  0  0  0
 12 20  2  0  0  0  0
 12 19  1  0  0  0  0
 13 20  1  0  0  0  0
 14 15  1  0  0  0  0
 18 19  2  0  0  0  0
M  CHG  1  21  -1
M  END
>  <CHROM.1>
59.82293353,97.87300691,82.41114141,-74.83691771,-100.10421730,-35.64993342
3.71463568,-20.60580713,1.06782589,-0.46134683,-0.47546949

>  <Name>
ligand

>  <RI>
0

>  <Rbt.Current_Directory>
/home/itssahil/PROJECTS/Mol_Feturizer/New_Systems/rnas/4XWF

>  <Rbt.Executable>
rbdock ($Id: //depot/dev/client3/rdock/2013.1/src/exe/rbdock.cxx#4 $)

>  <Rbt.Library>
libRbt.so (2013.1, Build901 2013/11/27)

>  <Rbt.Parameter_File>
/export/apps/rDock/src/rDock_2013.1_src/data/scripts/dock_solv.prm

>  <Rbt.Receptor>
prm/blind_docking_80.prm

>  <SCORE>
-6.11843

>  <SCORE.INTER>
-8.3319

>  <SCORE.INTER.CONST>
1

>  <SCORE.INTER.POLAR>
0

>  <SCORE.INTER.ROT>
5

>  <SCORE.INTER.SOLV>
14.3121

>  <SCORE.INTER.VDW>
-17.2586

>  <SCORE.INTER.norm>
-0.378723

>  <SCORE.INTRA>
2.21347

>  <SCORE.INTRA.DIHEDRAL>
3.77551

>  <SCORE.INTRA.DIHEDRAL.0>
3.49807

>  <SCORE.INTRA.POLAR>
0

>  <SCORE.INTRA.POLAR.0>
0

>  <SCORE.INTRA.REPUL>
0

>  <SCORE.INTRA.REPUL.0>
0

>  <SCORE.INTRA.SOLV>
1.12151

>  <SCORE.INTRA.SOLV.lig_0>
-73.062

>  <SCORE.INTRA.VDW>
-0.235038

>  <SCORE.INTRA.VDW.0>
-1.83782

>  <SCORE.INTRA.norm>
0.100612

>  <SCORE.RESTR>
0

>  <SCORE.RESTR.CAVITY>
0

>  <SCORE.RESTR.norm>
0

>  <SCORE.SYSTEM>
0

>  <SCORE.SYSTEM.CONST>
0

>  <SCORE.SYSTEM.DIHEDRAL>
0

>  <SCORE.SYSTEM.SOLV>
0

>  <SCORE.SYSTEM.norm>
0

>  <SCORE.heavy>
22

>  <SCORE.norm>
-0.27811

>  <RMSD>
14.117

$$$$
ligand
 OpenBabel11021811513D
libRbt.so/2013.1/901 2013/11/27
 22 23  0  0  0  0  0  0  0  0999 V2000
  -34.0488   -7.8153  -15.0203 N   0  0  0  0  0  0  0  0  0  0  0  0
  -35.1381   -4.6119  -15.0881 C   0  0  1  0  0  0  0  0  0  0  0  0
  -35.3800   -5.9907  -15.4882 O   0  0  0  0  0  0  0  0  0  0  0  0
  -33.7390   -3.8919  -18.5288 P   0  0  1  0  0  0  0  0  0  0  0  0
  -34.8600   -6.8499  -14.4607 C   0  0  2  0  0  0  0  0  0  0  0  0
  -32.9895   -9.0028  -16.4964 N   0  0  0  0  0  0  0  0  0  0  0  0
  -33.8383   -6.5111  -12.3306 O   0  0  0  0  0  0  0  0  0  0  0  0
  -33.9773   -5.9786  -13.6531 C   0  0  2  0  0  0  0  0  0  0  0  0
  -32.0628  -11.5361  -14.0817 N   0  0  0  0  0  0  0  0  0  0  0  0
  -35.7958   -4.6833  -12.8393 O   0  0  0  0  0  0  0  0  0  0  0  0
  -34.6417   -4.6817  -13.6963 C   0  0  2  0  0  0  0  0  0  0  0  0
  -32.6393   -9.4401  -15.2770 C   0  0  0  0  0  0  0  0  0  0  0  0
  -33.1932   -8.8191  -12.9380 N   0  0  0  0  0  0  0  0  0  0  0  0
  -34.6459   -4.1881  -17.2845 O   0  0  0  0  0  0  0  0  0  0  0  0
  -34.1039   -4.0634  -16.0099 C   0  0  0  0  0  0  0  0  0  0  0  0
  -33.3359   -5.3265  -19.0289 O   0  0  0  0  0  0  0  0  0  0  0  0
  -33.8702   -7.9971  -16.3339 C   0  0  0  0  0  0  0  0  0  0  0  0
  -30.5990  -10.5822  -15.5422 O   0  0  0  0  0  0  0  0  0  0  0  0
  -31.7004  -10.5415  -14.9941 C   0  0  0  0  0  0  0  0  0  0  0  0
  -33.2999   -8.6951  -14.3423 C   0  0  0  0  0  0  0  0  0  0  0  0
  -34.5003   -3.0799  -19.5233 O   0  5  0  0  0  0  0  0  0  0  0  0
  -32.6456   -2.9705  -18.1709 O   0  0  0  0  0  0  0  0  0  0  0  0
  1 17  1  0  0  0  0
  1 20  1  0  0  0  0
  2 15  1  6  0  0  0
  2  3  1  0  0  0  0
  2 11  1  0  0  0  0
  3  5  1  0  0  0  0
  4 16  1  6  0  0  0
  4 21  1  0  0  0  0
  4 22  2  0  0  0  0
  4 14  1  0  0  0  0
  5  1  1  6  0  0  0
  5  8  1  0  0  0  0
  6 17  2  0  0  0  0
  6 12  1  0  0  0  0
  8  7  1  1  0  0  0
  8 11  1  0  0  0  0
  9 19  1  0  0  0  0
 11 10  1  1  0  0  0
 12 20  2  0  0  0  0
 12 19  1  0  0  0  0
 13 20  1  0  0  0  0
 14 15  1  0  0  0  0
 18 19  2  0  0  0  0
M  CHG  1  21  -1
M  END
>  <CHROM.1>
-5.54424001,58.69750830,101.01791971,-171.41254101,-131.70972916,-33.70062755
-6.44098499,-15.72092084,1.12569440,-1.02941065,2.21737507

>  <Name>
ligand

>  <RI>
0

>  <Rbt.Current_Directory>
/home/itssahil/PROJECTS/Mol_Feturizer/New_Systems/rnas/4XWF

>  <Rbt.Executable>
rbdock ($Id: //depot/dev/client3/rdock/2013.1/src/exe/rbdock.cxx#4 $)

>  <Rbt.Library>
libRbt.so (2013.1, Build901 2013/11/27)

>  <Rbt.Parameter_File>
/export/apps/rDock/src/rDock_2013.1_src/data/scripts/dock_solv.prm

>  <Rbt.Receptor>
prm/blind_docking_40.prm

>  <SCORE>
-2.15877

>  <SCORE.INTER>
-4.31624

>  <SCORE.INTER.CONST>
1

>  <SCORE.INTER.POLAR>
0

>  <SCORE.INTER.ROT>
5

>  <SCORE.INTER.SOLV>
15.0481

>  <SCORE.INTER.VDW>
-14.8269

>  <SCORE.INTER.norm>
-0.196193

>  <SCORE.INTRA>
2.15748

>  <SCORE.INTRA.DIHEDRAL>
0.291477

>  <SCORE.INTRA.DIHEDRAL.0>
3.49807

>  <SCORE.INTRA.POLAR>
0

>  <SCORE.INTRA.POLAR.0>
0

>  <SCORE.INTRA.REPUL>
0

>  <SCORE.INTRA.REPUL.0>
0

>  <SCORE.INTRA.SOLV>
1.92238

>  <SCORE.INTRA.SOLV.lig_0>
-73.062

>  <SCORE.INTRA.VDW>
1.05055

>  <SCORE.INTRA.VDW.0>
-1.83782

>  <SCORE.INTRA.norm>
0.0980671

>  <SCORE.RESTR>
0

>  <SCORE.RESTR.CAVITY>
0

>  <SCORE.RESTR.norm>
0

>  <SCORE.SYSTEM>
0

>  <SCORE.SYSTEM.CONST>
0

>  <SCORE.SYSTEM.DIHEDRAL>
0

>  <SCORE.SYSTEM.SOLV>
0

>  <SCORE.SYSTEM.norm>
0

>  <SCORE.heavy>
22

>  <SCORE.norm>
-0.0981257

>  <RMSD>
14.199

$$$$
ligand
 OpenBabel11021811513D
libRbt.so/2013.1/901 2013/11/27
 22 23  0  0  0  0  0  0  0  0999 V2000
  -34.4086   -4.8145  -14.1629 N   0  0  0  0  0  0  0  0  0  0  0  0
  -33.8643   -7.8531  -12.7761 C   0  0  1  0  0  0  0  0  0  0  0  0
  -33.4005   -6.4813  -12.9278 O   0  0  0  0  0  0  0  0  0  0  0  0
  -31.6313  -10.1773  -14.7331 P   0  0  1  0  0  0  0  0  0  0  0  0
  -34.5533   -5.6344  -13.0628 C   0  0  2  0  0  0  0  0  0  0  0  0
  -34.1537   -3.0324  -15.3754 N   0  0  0  0  0  0  0  0  0  0  0  0
  -36.9151   -5.9706  -12.9965 O   0  0  0  0  0  0  0  0  0  0  0  0
  -35.6655   -6.5599  -13.3744 C   0  0  2  0  0  0  0  0  0  0  0  0
  -35.0678   -4.4763  -18.4650 N   0  0  0  0  0  0  0  0  0  0  0  0
  -35.5951   -7.5642  -11.2218 O   0  0  0  0  0  0  0  0  0  0  0  0
  -35.3327   -7.7628  -12.6211 C   0  0  2  0  0  0  0  0  0  0  0  0
  -34.1514   -4.0980  -16.1910 C   0  0  0  0  0  0  0  0  0  0  0  0
  -34.3367   -6.5571  -15.9047 N   0  0  0  0  0  0  0  0  0  0  0  0
  -32.2054   -9.0625  -13.7917 O   0  0  0  0  0  0  0  0  0  0  0  0
  -33.4902   -8.5821  -14.0205 C   0  0  0  0  0  0  0  0  0  0  0  0
  -30.0790  -10.0705  -14.5108 O   0  0  0  0  0  0  0  0  0  0  0  0
  -34.3199   -3.4801  -14.1163 C   0  0  0  0  0  0  0  0  0  0  0  0
  -32.9551   -3.6781  -18.1734 O   0  0  0  0  0  0  0  0  0  0  0  0
  -34.0059   -4.0592  -17.6580 C   0  0  0  0  0  0  0  0  0  0  0  0
  -34.3083   -5.2242  -15.4344 C   0  0  0  0  0  0  0  0  0  0  0  0
  -32.2209  -11.4982  -14.3650 O   0  5  0  0  0  0  0  0  0  0  0  0
  -32.1289  -10.0056  -16.1099 O   0  0  0  0  0  0  0  0  0  0  0  0
  1 17  1  0  0  0  0
  1 20  1  0  0  0  0
  2 15  1  6  0  0  0
  2  3  1  0  0  0  0
  2 11  1  0  0  0  0
  3  5  1  0  0  0  0
  4 16  1  1  0  0  0
  4 21  1  0  0  0  0
  4 22  2  0  0  0  0
  4 14  1  0  0  0  0
  5  1  1  6  0  0  0
  5  8  1  0  0  0  0
  6 17  2  0  0  0  0
  6 12  1  0  0  0  0
  8  7  1  1  0  0  0
  8 11  1  0  0  0  0
  9 19  1  0  0  0  0
 11 10  1  1  0  0  0
 12 20  2  0  0  0  0
 12 19  1  0  0  0  0
 13 20  1  0  0  0  0
 14 15  1  0  0  0  0
 18 19  2  0  0  0  0
M  CHG  1  21  -1
M  END
>  <CHROM.1>
-115.85573815,88.18797622,160.28834079,164.62922899,-115.06879237,-33.68687338
-6.96934294,-14.61358001,2.19668632,0.86101595,-0.77056989

>  <Name>
ligand

>  <RI>
0

>  <Rbt.Current_Directory>
/home/itssahil/PROJECTS/Mol_Feturizer/New_Systems/rnas/4XWF

>  <Rbt.Executable>
rbdock ($Id: //depot/dev/client3/rdock/2013.1/src/exe/rbdock.cxx#4 $)

>  <Rbt.Library>
libRbt.so (2013.1, Build901 2013/11/27)

>  <Rbt.Parameter_File>
/export/apps/rDock/src/rDock_2013.1_src/data/scripts/dock_solv.prm

>  <Rbt.Receptor>
prm/blind_docking_40.prm

>  <SCORE>
-1.40318

>  <SCORE.INTER>
-5.54098

>  <SCORE.INTER.CONST>
1

>  <SCORE.INTER.POLAR>
0

>  <SCORE.INTER.ROT>
5

>  <SCORE.INTER.SOLV>
11.3703

>  <SCORE.INTER.VDW>
-14.4174

>  <SCORE.INTER.norm>
-0.251863

>  <SCORE.INTRA>
4.00214

>  <SCORE.INTRA.DIHEDRAL>
2.16058

>  <SCORE.INTRA.DIHEDRAL.0>
3.49807

>  <SCORE.INTRA.POLAR>
0

>  <SCORE.INTRA.POLAR.0>
0

>  <SCORE.INTRA.REPUL>
0

>  <SCORE.INTRA.REPUL.0>
0

>  <SCORE.INTRA.SOLV>
5.43444

>  <SCORE.INTRA.SOLV.lig_0>
-73.062

>  <SCORE.INTRA.VDW>
0.20463

>  <SCORE.INTRA.VDW.0>
-1.83782

>  <SCORE.INTRA.norm>
0.181916

>  <SCORE.RESTR>
0.135655

>  <SCORE.RESTR.CAVITY>
0.135655

>  <SCORE.RESTR.norm>
0.00616615

>  <SCORE.SYSTEM>
0

>  <SCORE.SYSTEM.CONST>
0

>  <SCORE.SYSTEM.DIHEDRAL>
0

>  <SCORE.SYSTEM.SOLV>
0

>  <SCORE.SYSTEM.norm>
0

>  <SCORE.heavy>
22

>  <SCORE.norm>
-0.0637808

>  <RMSD>
14.210

$$$$
ligand
 OpenBabel11021811513D
libRbt.so/2013.1/901 2013/11/27
 22 23  0  0  0  0  0  0  0  0999 V2000
  -33.9952   -8.8064  -13.7744 N   0  0  0  0  0  0  0  0  0  0  0  0
  -35.3897   -5.7415  -14.1123 C   0  0  1  0  0  0  0  0  0  0  0  0
  -35.1254   -7.0352  -14.7258 O   0  0  0  0  0  0  0  0  0  0  0  0
  -35.1468   -2.6707  -14.7178 P   0  0  1  0  0  0  0  0  0  0  0  0
  -35.1317   -8.0292  -13.6883 C   0  0  2  0  0  0  0  0  0  0  0  0
  -32.3920  -10.1657  -13.2327 N   0  0  0  0  0  0  0  0  0  0  0  0
  -35.5537   -8.0183  -11.3393 O   0  0  0  0  0  0  0  0  0  0  0  0
  -35.0174   -7.2593  -12.4293 C   0  0  2  0  0  0  0  0  0  0  0  0
  -30.6397  -11.6060  -15.2119 N   0  0  0  0  0  0  0  0  0  0  0  0
  -37.1694   -6.2847  -12.6868 O   0  0  0  0  0  0  0  0  0  0  0  0
  -35.7543   -6.0329  -12.7085 C   0  0  2  0  0  0  0  0  0  0  0  0
  -32.2530   -9.8495  -14.5294 C   0  0  0  0  0  0  0  0  0  0  0  0
  -33.4898   -8.4436  -16.1596 N   0  0  0  0  0  0  0  0  0  0  0  0
  -34.4610   -3.6820  -13.7352 O   0  0  0  0  0  0  0  0  0  0  0  0
  -34.1294   -4.9513  -14.1965 C   0  0  0  0  0  0  0  0  0  0  0  0
  -34.0081   -2.3465  -15.7516 O   0  0  0  0  0  0  0  0  0  0  0  0
  -33.4719   -9.5113  -12.7646 C   0  0  0  0  0  0  0  0  0  0  0  0
  -30.7749   -9.6371  -16.3480 O   0  0  0  0  0  0  0  0  0  0  0  0
  -31.1896  -10.3393  -15.4260 C   0  0  0  0  0  0  0  0  0  0  0  0
  -33.2607   -8.9962  -14.8786 C   0  0  0  0  0  0  0  0  0  0  0  0
  -36.3647   -3.2958  -15.3128 O   0  5  0  0  0  0  0  0  0  0  0  0
  -35.7289   -1.5366  -13.9779 O   0  0  0  0  0  0  0  0  0  0  0  0
  1 17  1  0  0  0  0
  1 20  1  0  0  0  0
  2 15  1  1  0  0  0
  2  3  1  0  0  0  0
  2 11  1  0  0  0  0
  3  5  1  0  0  0  0
  4 16  1  6  0  0  0
  4 21  1  0  0  0  0
  4 22  2  0  0  0  0
  4 14  1  0  0  0  0
  5  1  1  6  0  0  0
  5  8  1  0  0  0  0
  6 17  2  0  0  0  0
  6 12  1  0  0  0  0
  8  7  1  1  0  0  0
  8 11  1  0  0  0  0
  9 19  1  0  0  0  0
 11 10  1  6  0  0  0
 12 20  2  0  0  0  0
 12 19  1  0  0  0  0
 13 20  1  0  0  0  0
 14 15  1  0  0  0  0
 18 19  2  0  0  0  0
M  CHG  1  21  -1
M  END
>  <CHROM.1>
157.52935316,173.77551800,-68.39312076,-81.80129680,30.66724114,-34.22620227
-6.63906850,-14.20564516,0.95245308,-0.74354328,2.73212020

>  <Name>
ligand

>  <RI>
0

>  <Rbt.Current_Directory>
/home/itssahil/PROJECTS/Mol_Feturizer/New_Systems/rnas/4XWF

>  <Rbt.Executable>
rbdock ($Id: //depot/dev/client3/rdock/2013.1/src/exe/rbdock.cxx#4 $)

>  <Rbt.Library>
libRbt.so (2013.1, Build901 2013/11/27)

>  <Rbt.Parameter_File>
/export/apps/rDock/src/rDock_2013.1_src/data/scripts/dock_solv.prm

>  <Rbt.Receptor>
prm/blind_docking_40.prm

>  <SCORE>
-1.03477

>  <SCORE.INTER>
-4.98261

>  <SCORE.INTER.CONST>
1

>  <SCORE.INTER.POLAR>
0

>  <SCORE.INTER.ROT>
5

>  <SCORE.INTER.SOLV>
14.3835

>  <SCORE.INTER.VDW>
-15.0496

>  <SCORE.INTER.norm>
-0.226482

>  <SCORE.INTRA>
3.47847

>  <SCORE.INTRA.DIHEDRAL>
1.23293

>  <SCORE.INTRA.DIHEDRAL.0>
3.49807

>  <SCORE.INTRA.POLAR>
0

>  <SCORE.INTRA.POLAR.0>
0

>  <SCORE.INTRA.REPUL>
0

>  <SCORE.INTRA.REPUL.0>
0

>  <SCORE.INTRA.SOLV>
3.35702

>  <SCORE.INTRA.SOLV.lig_0>
-73.062

>  <SCORE.INTRA.VDW>
1.18349

>  <SCORE.INTRA.VDW.0>
-1.83782

>  <SCORE.INTRA.norm>
0.158112

>  <SCORE.RESTR>
0.469375

>  <SCORE.RESTR.CAVITY>
0.469375

>  <SCORE.RESTR.norm>
0.0213352

>  <SCORE.SYSTEM>
0

>  <SCORE.SYSTEM.CONST>
0

>  <SCORE.SYSTEM.DIHEDRAL>
0

>  <SCORE.SYSTEM.SOLV>
0

>  <SCORE.SYSTEM.norm>
0

>  <SCORE.heavy>
22

>  <SCORE.norm>
-0.0470349

>  <RMSD>
14.249

$$$$
ligand
 OpenBabel11021811513D
libRbt.so/2013.1/901 2013/11/27
 22 23  0  0  0  0  0  0  0  0999 V2000
  -35.5899   -5.2815  -18.6146 N   0  0  0  0  0  0  0  0  0  0  0  0
  -36.4635   -2.1091  -17.8240 C   0  0  1  0  0  0  0  0  0  0  0  0
  -36.9124   -3.4278  -18.2474 O   0  0  0  0  0  0  0  0  0  0  0  0
  -34.9250    0.8475  -19.6263 P   0  0  1  0  0  0  0  0  0  0  0  0
  -36.0451   -4.4057  -17.6507 C   0  0  2  0  0  0  0  0  0  0  0  0
  -34.4989   -6.0783  -20.3133 N   0  0  0  0  0  0  0  0  0  0  0  0
  -34.2049   -4.3313  -16.1329 O   0  0  0  0  0  0  0  0  0  0  0  0
  -34.8663   -3.6350  -17.1956 C   0  0  2  0  0  0  0  0  0  0  0  0
  -36.1240   -8.7940  -21.3187 N   0  0  0  0  0  0  0  0  0  0  0  0
  -36.1114   -2.4766  -15.5358 O   0  0  0  0  0  0  0  0  0  0  0  0
  -35.4290   -2.3513  -16.7948 C   0  0  2  0  0  0  0  0  0  0  0  0
  -35.2226   -7.0726  -19.7764 C   0  0  0  0  0  0  0  0  0  0  0  0
  -36.7706   -7.3055  -17.8495 N   0  0  0  0  0  0  0  0  0  0  0  0
  -35.5282   -0.1643  -18.5914 O   0  0  0  0  0  0  0  0  0  0  0  0
  -35.8930   -1.4345  -19.0238 C   0  0  0  0  0  0  0  0  0  0  0  0
  -33.7732    0.0217  -20.3061 O   0  0  0  0  0  0  0  0  0  0  0  0
  -34.7338   -4.9650  -19.5930 C   0  0  0  0  0  0  0  0  0  0  0  0
  -34.5750   -9.3346  -19.7394 O   0  0  0  0  0  0  0  0  0  0  0  0
  -35.2693   -8.4638  -20.2634 C   0  0  0  0  0  0  0  0  0  0  0  0
  -35.9100   -6.5793  -18.7043 C   0  0  0  0  0  0  0  0  0  0  0  0
  -35.9939    1.3065  -20.5616 O   0  5  0  0  0  0  0  0  0  0  0  0
  -34.5497    2.1101  -18.9648 O   0  0  0  0  0  0  0  0  0  0  0  0
  1 17  1  0  0  0  0
  1 20  1  0  0  0  0
  2 15  1  6  0  0  0
  2  3  1  0  0  0  0
  2 11  1  0  0  0  0
  3  5  1  0  0  0  0
  4 16  1  6  0  0  0
  4 21  1  0  0  0  0
  4 22  2  0  0  0  0
  4 14  1  0  0  0  0
  5  1  1  6  0  0  0
  5  8  1  0  0  0  0
  6 17  2  0  0  0  0
  6 12  1  0  0  0  0
  8  7  1  1  0  0  0
  8 11  1  0  0  0  0
  9 19  1  0  0  0  0
 11 10  1  1  0  0  0
 12 20  2  0  0  0  0
 12 19  1  0  0  0  0
 13 20  1  0  0  0  0
 14 15  1  0  0  0  0
 18 19  2  0  0  0  0
M  CHG  1  21  -1
M  END
>  <CHROM.1>
69.22457622,177.62848383,-51.24460026,-178.06712774,-83.14581314,-35.39045622
-3.42476076,-18.78537151,1.77514816,-1.38902798,-2.90297597

>  <Name>
ligand

>  <RI>
0

>  <Rbt.Current_Directory>
/home/itssahil/PROJECTS/Mol_Feturizer/New_Systems/rnas/4XWF

>  <Rbt.Executable>
rbdock ($Id: //depot/dev/client3/rdock/2013.1/src/exe/rbdock.cxx#4 $)

>  <Rbt.Library>
libRbt.so (2013.1, Build901 2013/11/27)

>  <Rbt.Parameter_File>
/export/apps/rDock/src/rDock_2013.1_src/data/scripts/dock_solv.prm

>  <Rbt.Receptor>
prm/blind_docking_100.prm

>  <SCORE>
-8.39945

>  <SCORE.INTER>
-8.1057

>  <SCORE.INTER.CONST>
1

>  <SCORE.INTER.POLAR>
0

>  <SCORE.INTER.ROT>
5

>  <SCORE.INTER.SOLV>
18.4896

>  <SCORE.INTER.VDW>
-18.5003

>  <SCORE.INTER.norm>
-0.368441

>  <SCORE.INTRA>
-0.293754

>  <SCORE.INTRA.DIHEDRAL>
-0.699806

>  <SCORE.INTRA.DIHEDRAL.0>
3.49807

>  <SCORE.INTRA.POLAR>
0

>  <SCORE.INTRA.POLAR.0>
0

>  <SCORE.INTRA.REPUL>
0

>  <SCORE.INTRA.REPUL.0>
0

>  <SCORE.INTRA.SOLV>
-1.20424

>  <SCORE.INTRA.SOLV.lig_0>
-73.062

>  <SCORE.INTRA.VDW>
0.658267

>  <SCORE.INTRA.VDW.0>
-1.83782

>  <SCORE.INTRA.norm>
-0.0133525

>  <SCORE.RESTR>
0

>  <SCORE.RESTR.CAVITY>
0

>  <SCORE.RESTR.norm>
0

>  <SCORE.SYSTEM>
0

>  <SCORE.SYSTEM.CONST>
0

>  <SCORE.SYSTEM.DIHEDRAL>
0

>  <SCORE.SYSTEM.SOLV>
0

>  <SCORE.SYSTEM.norm>
0

>  <SCORE.heavy>
22

>  <SCORE.norm>
-0.381793

>  <RMSD>
14.266

$$$$
ligand
 OpenBabel11021811513D
libRbt.so/2013.1/901 2013/11/27
 22 23  0  0  0  0  0  0  0  0999 V2000
  -36.0230   -4.6720  -18.5992 N   0  0  0  0  0  0  0  0  0  0  0  0
  -37.1922   -1.5076  -18.3309 C   0  0  1  0  0  0  0  0  0  0  0  0
  -37.4431   -2.8650  -18.7939 O   0  0  0  0  0  0  0  0  0  0  0  0
  -35.5086    1.4844  -19.9347 P   0  0  1  0  0  0  0  0  0  0  0  0
  -36.7902   -3.7711  -17.8900 C   0  0  2  0  0  0  0  0  0  0  0  0
  -34.4271   -5.4978  -19.8168 N   0  0  0  0  0  0  0  0  0  0  0  0
  -35.5454   -3.5369  -15.8673 O   0  0  0  0  0  0  0  0  0  0  0  0
  -35.8446   -2.9254  -17.1276 C   0  0  2  0  0  0  0  0  0  0  0  0
  -35.8122   -8.4388  -20.8952 N   0  0  0  0  0  0  0  0  0  0  0  0
  -37.5923   -1.7442  -16.0334 O   0  0  0  0  0  0  0  0  0  0  0  0
  -36.5417   -1.6506  -17.0100 C   0  0  2  0  0  0  0  0  0  0  0  0
  -35.2402   -6.5019  -19.4545 C   0  0  0  0  0  0  0  0  0  0  0  0
  -37.2986   -6.7171  -18.0833 N   0  0  0  0  0  0  0  0  0  0  0  0
  -36.3623    0.4964  -19.0665 O   0  0  0  0  0  0  0  0  0  0  0  0
  -36.2817   -0.8681  -19.3219 C   0  0  0  0  0  0  0  0  0  0  0  0
  -34.0635    1.3319  -19.3356 O   0  0  0  0  0  0  0  0  0  0  0  0
  -34.9194   -4.3608  -19.2889 C   0  0  0  0  0  0  0  0  0  0  0  0
  -34.3110   -8.6483  -19.1957 O   0  0  0  0  0  0  0  0  0  0  0  0
  -35.0765   -7.9195  -19.8266 C   0  0  0  0  0  0  0  0  0  0  0  0
  -36.2459   -5.9902  -18.6850 C   0  0  0  0  0  0  0  0  0  0  0  0
  -35.6243    1.1149  -21.3762 O   0  5  0  0  0  0  0  0  0  0  0  0
  -36.1028    2.8333  -19.9274 O   0  0  0  0  0  0  0  0  0  0  0  0
  1 17  1  0  0  0  0
  1 20  1  0  0  0  0
  2 15  1  6  0  0  0
  2  3  1  0  0  0  0
  2 11  1  0  0  0  0
  3  5  1  0  0  0  0
  4 16  1  1  0  0  0
  4 21  1  0  0  0  0
  4 22  2  0  0  0  0
  4 14  1  0  0  0  0
  5  1  1  6  0  0  0
  5  8  1  0  0  0  0
  6 17  2  0  0  0  0
  6 12  1  0  0  0  0
  8  7  1  1  0  0  0
  8 11  1  0  0  0  0
  9 19  1  0  0  0  0
 11 10  1  1  0  0  0
 12 20  2  0  0  0  0
 12 19  1  0  0  0  0
 13 20  1  0  0  0  0
 14 15  1  0  0  0  0
 18 19  2  0  0  0  0
M  CHG  1  21  -1
M  END
>  <CHROM.1>
67.81135609,163.88313781,-77.15317835,179.59107162,-98.42270638,-35.90244086
-2.80439012,-18.86682504,1.49288188,-1.12066957,3.02710207

>  <Name>
ligand

>  <RI>
0

>  <Rbt.Current_Directory>
/home/itssahil/PROJECTS/Mol_Feturizer/New_Systems/rnas/4XWF

>  <Rbt.Executable>
rbdock ($Id: //depot/dev/client3/rdock/2013.1/src/exe/rbdock.cxx#4 $)

>  <Rbt.Library>
libRbt.so (2013.1, Build901 2013/11/27)

>  <Rbt.Parameter_File>
/export/apps/rDock/src/rDock_2013.1_src/data/scripts/dock_solv.prm

>  <Rbt.Receptor>
prm/blind_docking_60.prm

>  <SCORE>
-7.80954

>  <SCORE.INTER>
-7.61702

>  <SCORE.INTER.CONST>
1

>  <SCORE.INTER.POLAR>
0

>  <SCORE.INTER.ROT>
5

>  <SCORE.INTER.SOLV>
19.2395

>  <SCORE.INTER.VDW>
-18.4245

>  <SCORE.INTER.norm>
-0.346228

>  <SCORE.INTRA>
-0.192521

>  <SCORE.INTRA.DIHEDRAL>
-0.120084

>  <SCORE.INTRA.DIHEDRAL.0>
3.49807

>  <SCORE.INTRA.POLAR>
0

>  <SCORE.INTRA.POLAR.0>
0

>  <SCORE.INTRA.REPUL>
0

>  <SCORE.INTRA.REPUL.0>
0

>  <SCORE.INTRA.SOLV>
-0.977281

>  <SCORE.INTRA.SOLV.lig_0>
-73.062

>  <SCORE.INTRA.VDW>
0.356162

>  <SCORE.INTRA.VDW.0>
-1.83782

>  <SCORE.INTRA.norm>
-0.00875094

>  <SCORE.RESTR>
0

>  <SCORE.RESTR.CAVITY>
0

>  <SCORE.RESTR.norm>
0

>  <SCORE.SYSTEM>
0

>  <SCORE.SYSTEM.CONST>
0

>  <SCORE.SYSTEM.DIHEDRAL>
0

>  <SCORE.SYSTEM.SOLV>
0

>  <SCORE.SYSTEM.norm>
0

>  <SCORE.heavy>
22

>  <SCORE.norm>
-0.354979

>  <RMSD>
14.291

$$$$
ligand
 OpenBabel11021811513D
libRbt.so/2013.1/901 2013/11/27
 22 23  0  0  0  0  0  0  0  0999 V2000
  -35.9593   -4.8749  -18.5424 N   0  0  0  0  0  0  0  0  0  0  0  0
  -37.0966   -1.6916  -18.3816 C   0  0  1  0  0  0  0  0  0  0  0  0
  -37.3933   -3.0769  -18.7175 O   0  0  0  0  0  0  0  0  0  0  0  0
  -35.2627    1.1097  -20.1560 P   0  0  1  0  0  0  0  0  0  0  0  0
  -36.6492   -3.9205  -17.8237 C   0  0  2  0  0  0  0  0  0  0  0  0
  -34.5431   -5.7884  -19.9101 N   0  0  0  0  0  0  0  0  0  0  0  0
  -35.2007   -3.5509  -15.9633 O   0  0  0  0  0  0  0  0  0  0  0  0
  -35.6299   -3.0289  -17.2263 C   0  0  2  0  0  0  0  0  0  0  0  0
  -34.5540   -8.6635  -20.7494 N   0  0  0  0  0  0  0  0  0  0  0  0
  -37.2551   -1.7608  -16.0439 O   0  0  0  0  0  0  0  0  0  0  0  0
  -36.3120   -1.7443  -17.1286 C   0  0  2  0  0  0  0  0  0  0  0  0
  -35.2239   -6.7681  -19.2959 C   0  0  0  0  0  0  0  0  0  0  0  0
  -37.0086   -6.8841  -17.5740 N   0  0  0  0  0  0  0  0  0  0  0  0
  -36.0774    0.2016  -19.1710 O   0  0  0  0  0  0  0  0  0  0  0  0
  -36.2946   -1.1306  -19.5051 C   0  0  0  0  0  0  0  0  0  0  0  0
  -36.1855    1.1795  -21.4265 O   0  0  0  0  0  0  0  0  0  0  0  0
  -35.0064   -4.6128  -19.4444 C   0  0  0  0  0  0  0  0  0  0  0  0
  -35.3283   -9.0251  -18.6386 O   0  0  0  0  0  0  0  0  0  0  0  0
  -35.0414   -8.2143  -19.5191 C   0  0  0  0  0  0  0  0  0  0  0  0
  -36.1155   -6.2007  -18.4308 C   0  0  0  0  0  0  0  0  0  0  0  0
  -34.9907    2.4295  -19.5141 O   0  5  0  0  0  0  0  0  0  0  0  0
  -33.8977    0.5853  -20.3420 O   0  0  0  0  0  0  0  0  0  0  0  0
  1 17  1  0  0  0  0
  1 20  1  0  0  0  0
  2 15  1  6  0  0  0
  2  3  1  0  0  0  0
  2 11  1  0  0  0  0
  3  5  1  0  0  0  0
  4 16  1  6  0  0  0
  4 21  1  0  0  0  0
  4 22  2  0  0  0  0
  4 14  1  0  0  0  0
  5  1  1  6  0  0  0
  5  8  1  0  0  0  0
  6 17  2  0  0  0  0
  6 12  1  0  0  0  0
  8  7  1  1  0  0  0
  8 11  1  0  0  0  0
  9 19  1  0  0  0  0
 11 10  1  1  0  0  0
 12 20  2  0  0  0  0
 12 19  1  0  0  0  0
 13 20  1  0  0  0  0
 14 15  1  0  0  0  0
 18 19  2  0  0  0  0
M  CHG  1  21  -1
M  END
>  <CHROM.1>
62.11846748,177.76469002,65.42036884,-179.47642798,-26.54955596,-35.75099944
-3.04406057,-18.86722485,1.54697685,-1.12445228,3.02378177

>  <Name>
ligand

>  <RI>
0

>  <Rbt.Current_Directory>
/home/itssahil/PROJECTS/Mol_Feturizer/New_Systems/rnas/4XWF

>  <Rbt.Executable>
rbdock ($Id: //depot/dev/client3/rdock/2013.1/src/exe/rbdock.cxx#4 $)

>  <Rbt.Library>
libRbt.so (2013.1, Build901 2013/11/27)

>  <Rbt.Parameter_File>
/export/apps/rDock/src/rDock_2013.1_src/data/scripts/dock_solv.prm

>  <Rbt.Receptor>
prm/blind_docking_60.prm

>  <SCORE>
-7.87706

>  <SCORE.INTER>
-7.10577

>  <SCORE.INTER.CONST>
1

>  <SCORE.INTER.POLAR>
0

>  <SCORE.INTER.ROT>
5

>  <SCORE.INTER.SOLV>
16.6602

>  <SCORE.INTER.VDW>
-17.2239

>  <SCORE.INTER.norm>
-0.322989

>  <SCORE.INTRA>
-0.771289

>  <SCORE.INTRA.DIHEDRAL>
-1.27295

>  <SCORE.INTRA.DIHEDRAL.0>
3.49807

>  <SCORE.INTRA.POLAR>
0

>  <SCORE.INTRA.POLAR.0>
0

>  <SCORE.INTRA.REPUL>
0

>  <SCORE.INTRA.REPUL.0>
0

>  <SCORE.INTRA.SOLV>
-0.941051

>  <SCORE.INTRA.SOLV.lig_0>
-73.062

>  <SCORE.INTRA.VDW>
0.33571

>  <SCORE.INTRA.VDW.0>
-1.83782

>  <SCORE.INTRA.norm>
-0.0350586

>  <SCORE.RESTR>
0

>  <SCORE.RESTR.CAVITY>
0

>  <SCORE.RESTR.norm>
0

>  <SCORE.SYSTEM>
0

>  <SCORE.SYSTEM.CONST>
0

>  <SCORE.SYSTEM.DIHEDRAL>
0

>  <SCORE.SYSTEM.SOLV>
0

>  <SCORE.SYSTEM.norm>
0

>  <SCORE.heavy>
22

>  <SCORE.norm>
-0.358048

>  <RMSD>
14.323

$$$$
ligand
 OpenBabel11021811513D
libRbt.so/2013.1/901 2013/11/27
 22 23  0  0  0  0  0  0  0  0999 V2000
  -34.1350   -8.2121  -14.5928 N   0  0  0  0  0  0  0  0  0  0  0  0
  -35.6086   -5.1727  -14.3839 C   0  0  1  0  0  0  0  0  0  0  0  0
  -35.6436   -6.5074  -14.9647 O   0  0  0  0  0  0  0  0  0  0  0  0
  -34.2616   -3.4945  -17.4990 P   0  0  1  0  0  0  0  0  0  0  0  0
  -35.1023   -7.4260  -14.0015 C   0  0  2  0  0  0  0  0  0  0  0  0
  -32.7737   -9.0240  -16.0755 N   0  0  0  0  0  0  0  0  0  0  0  0
  -34.3016   -7.2482  -11.7603 O   0  0  0  0  0  0  0  0  0  0  0  0
  -34.4019   -6.5700  -13.0179 C   0  0  2  0  0  0  0  0  0  0  0  0
  -30.5131  -10.8923  -15.5905 N   0  0  0  0  0  0  0  0  0  0  0  0
  -36.4268   -5.6070  -12.2307 O   0  0  0  0  0  0  0  0  0  0  0  0
  -35.2183   -5.3632  -12.9698 C   0  0  2  0  0  0  0  0  0  0  0  0
  -32.5600   -9.6640  -14.9156 C   0  0  0  0  0  0  0  0  0  0  0  0
  -33.4927   -9.5402  -12.6182 N   0  0  0  0  0  0  0  0  0  0  0  0
  -35.0323   -4.3682  -16.4495 O   0  0  0  0  0  0  0  0  0  0  0  0
  -34.5823   -4.3956  -15.1340 C   0  0  0  0  0  0  0  0  0  0  0  0
  -34.4294   -2.0340  -16.9428 O   0  0  0  0  0  0  0  0  0  0  0  0
  -33.7572   -8.1265  -15.8736 C   0  0  0  0  0  0  0  0  0  0  0  0
  -31.6848  -11.5020  -13.7354 O   0  0  0  0  0  0  0  0  0  0  0  0
  -31.5731  -10.7369  -14.6931 C   0  0  0  0  0  0  0  0  0  0  0  0
  -33.4115   -9.1560  -13.9763 C   0  0  0  0  0  0  0  0  0  0  0  0
  -32.8473   -3.9610  -17.5992 O   0  5  0  0  0  0  0  0  0  0  0  0
  -34.7563   -3.7581  -18.8622 O   0  0  0  0  0  0  0  0  0  0  0  0
  1 17  1  0  0  0  0
  1 20  1  0  0  0  0
  2 15  1  6  0  0  0
  2  3  1  0  0  0  0
  2 11  1  0  0  0  0
  3  5  1  0  0  0  0
  4 16  1  1  0  0  0
  4 21  1  0  0  0  0
  4 22  2  0  0  0  0
  4 14  1  0  0  0  0
  5  1  1  6  0  0  0
  5  8  1  0  0  0  0
  6 17  2  0  0  0  0
  6 12  1  0  0  0  0
  8  7  1  1  0  0  0
  8 11  1  0  0  0  0
  9 19  1  0  0  0  0
 11 10  1  1  0  0  0
 12 20  2  0  0  0  0
 12 19  1  0  0  0  0
 13 20  1  0  0  0  0
 14 15  1  0  0  0  0
 18 19  2  0  0  0  0
M  CHG  1  21  -1
M  END
>  <CHROM.1>
0.15095854,61.17918673,-62.53731846,173.59394332,19.01079099,-33.98464555
-6.65136653,-15.07446481,1.09438074,-0.90530758,2.34051356

>  <Name>
ligand

>  <RI>
0

>  <Rbt.Current_Directory>
/home/itssahil/PROJECTS/Mol_Feturizer/New_Systems/rnas/4XWF

>  <Rbt.Executable>
rbdock ($Id: //depot/dev/client3/rdock/2013.1/src/exe/rbdock.cxx#4 $)

>  <Rbt.Library>
libRbt.so (2013.1, Build901 2013/11/27)

>  <Rbt.Parameter_File>
/export/apps/rDock/src/rDock_2013.1_src/data/scripts/dock_solv.prm

>  <Rbt.Receptor>
prm/blind_docking_40.prm

>  <SCORE>
-1.7946

>  <SCORE.INTER>
-2.22792

>  <SCORE.INTER.CONST>
1

>  <SCORE.INTER.POLAR>
0

>  <SCORE.INTER.ROT>
5

>  <SCORE.INTER.SOLV>
14.4881

>  <SCORE.INTER.VDW>
-13.248

>  <SCORE.INTER.norm>
-0.101269

>  <SCORE.INTRA>
0.433326

>  <SCORE.INTRA.DIHEDRAL>
-1.35179

>  <SCORE.INTRA.DIHEDRAL.0>
3.49807

>  <SCORE.INTRA.POLAR>
0

>  <SCORE.INTRA.POLAR.0>
0

>  <SCORE.INTRA.REPUL>
0

>  <SCORE.INTRA.REPUL.0>
0

>  <SCORE.INTRA.SOLV>
1.14797

>  <SCORE.INTRA.SOLV.lig_0>
-73.062

>  <SCORE.INTRA.VDW>
0.535238

>  <SCORE.INTRA.VDW.0>
-1.83782

>  <SCORE.INTRA.norm>
0.0196966

>  <SCORE.RESTR>
0

>  <SCORE.RESTR.CAVITY>
0

>  <SCORE.RESTR.norm>
0

>  <SCORE.SYSTEM>
0

>  <SCORE.SYSTEM.CONST>
0

>  <SCORE.SYSTEM.DIHEDRAL>
0

>  <SCORE.SYSTEM.SOLV>
0

>  <SCORE.SYSTEM.norm>
0

>  <SCORE.heavy>
22

>  <SCORE.norm>
-0.0815726

>  <RMSD>
14.326

$$$$
ligand
 OpenBabel11021811513D
libRbt.so/2013.1/901 2013/11/27
 22 23  0  0  0  0  0  0  0  0999 V2000
  -34.3570   -5.4335  -15.2699 N   0  0  0  0  0  0  0  0  0  0  0  0
  -33.8436   -7.6253  -12.7431 C   0  0  1  0  0  0  0  0  0  0  0  0
  -33.3109   -6.5175  -13.5234 O   0  0  0  0  0  0  0  0  0  0  0  0
  -31.7937  -10.1557  -14.6762 P   0  0  1  0  0  0  0  0  0  0  0  0
  -34.4104   -5.6789  -13.9134 C   0  0  2  0  0  0  0  0  0  0  0  0
  -34.3970   -5.7516  -17.4166 N   0  0  0  0  0  0  0  0  0  0  0  0
  -36.7601   -5.6688  -13.4951 O   0  0  0  0  0  0  0  0  0  0  0  0
  -35.6151   -6.5081  -13.6855 C   0  0  2  0  0  0  0  0  0  0  0  0
  -35.0661   -2.3672  -18.2824 N   0  0  0  0  0  0  0  0  0  0  0  0
  -35.3288   -6.4932  -11.3264 O   0  0  0  0  0  0  0  0  0  0  0  0
  -35.2687   -7.3023  -12.5131 C   0  0  2  0  0  0  0  0  0  0  0  0
  -34.2445   -4.4377  -17.1905 C   0  0  0  0  0  0  0  0  0  0  0  0
  -34.1001   -2.9835  -15.1835 N   0  0  0  0  0  0  0  0  0  0  0  0
  -32.3177   -9.0134  -13.7386 O   0  0  0  0  0  0  0  0  0  0  0  0
  -33.6888   -8.8564  -13.5681 C   0  0  0  0  0  0  0  0  0  0  0  0
  -30.2342   -9.9633  -14.6394 O   0  0  0  0  0  0  0  0  0  0  0  0
  -34.4605   -6.3687  -16.2213 C   0  0  0  0  0  0  0  0  0  0  0  0
  -33.2024   -3.4309  -19.0446 O   0  0  0  0  0  0  0  0  0  0  0  0
  -34.1204   -3.3945  -18.2254 C   0  0  0  0  0  0  0  0  0  0  0  0
  -34.2215   -4.2292  -15.8409 C   0  0  0  0  0  0  0  0  0  0  0  0
  -32.2674  -11.4777  -14.1704 O   0  5  0  0  0  0  0  0  0  0  0  0
  -32.4502  -10.0920  -15.9944 O   0  0  0  0  0  0  0  0  0  0  0  0
  1 17  1  0  0  0  0
  1 20  1  0  0  0  0
  2 15  1  6  0  0  0
  2  3  1  0  0  0  0
  2 11  1  0  0  0  0
  3  5  1  0  0  0  0
  4 16  1  6  0  0  0
  4 21  1  0  0  0  0
  4 22  2  0  0  0  0
  4 14  1  0  0  0  0
  5  1  1  6  0  0  0
  5  8  1  0  0  0  0
  6 17  2  0  0  0  0
  6 12  1  0  0  0  0
  8  7  1  1  0  0  0
  8 11  1  0  0  0  0
  9 19  1  0  0  0  0
 11 10  1  1  0  0  0
 12 20  2  0  0  0  0
 12 19  1  0  0  0  0
 13 20  1  0  0  0  0
 14 15  1  0  0  0  0
 18 19  2  0  0  0  0
M  CHG  1  21  -1
M  END
>  <CHROM.1>
62.94160796,63.04278333,178.00678780,-174.64841420,119.57440106,-33.72525057
-6.82756391,-14.96287428,2.07574249,0.87950399,-0.84913530

>  <Name>
ligand

>  <RI>
0

>  <Rbt.Current_Directory>
/home/itssahil/PROJECTS/Mol_Feturizer/New_Systems/rnas/4XWF

>  <Rbt.Executable>
rbdock ($Id: //depot/dev/client3/rdock/2013.1/src/exe/rbdock.cxx#4 $)

>  <Rbt.Library>
libRbt.so (2013.1, Build901 2013/11/27)

>  <Rbt.Parameter_File>
/export/apps/rDock/src/rDock_2013.1_src/data/scripts/dock_solv.prm

>  <Rbt.Receptor>
prm/blind_docking_40.prm

>  <SCORE>
-5.09729

>  <SCORE.INTER>
-4.26618

>  <SCORE.INTER.CONST>
1

>  <SCORE.INTER.POLAR>
0

>  <SCORE.INTER.ROT>
5

>  <SCORE.INTER.SOLV>
13.6134

>  <SCORE.INTER.VDW>
-14.3152

>  <SCORE.INTER.norm>
-0.193917

>  <SCORE.INTRA>
-0.998471

>  <SCORE.INTRA.DIHEDRAL>
-1.77727

>  <SCORE.INTRA.DIHEDRAL.0>
3.49807

>  <SCORE.INTRA.POLAR>
0

>  <SCORE.INTRA.POLAR.0>
0

>  <SCORE.INTRA.REPUL>
0

>  <SCORE.INTRA.REPUL.0>
0

>  <SCORE.INTRA.SOLV>
-0.224938

>  <SCORE.INTRA.SOLV.lig_0>
-73.062

>  <SCORE.INTRA.VDW>
0.00263329

>  <SCORE.INTRA.VDW.0>
-1.83782

>  <SCORE.INTRA.norm>
-0.045385

>  <SCORE.RESTR>
0.167363

>  <SCORE.RESTR.CAVITY>
0.167363

>  <SCORE.RESTR.norm>
0.00760742

>  <SCORE.SYSTEM>
0

>  <SCORE.SYSTEM.CONST>
0

>  <SCORE.SYSTEM.DIHEDRAL>
0

>  <SCORE.SYSTEM.SOLV>
0

>  <SCORE.SYSTEM.norm>
0

>  <SCORE.heavy>
22

>  <SCORE.norm>
-0.231695

>  <RMSD>
14.328

$$$$
ligand
 OpenBabel11021811513D
libRbt.so/2013.1/901 2013/11/27
 22 23  0  0  0  0  0  0  0  0999 V2000
  -34.6697   -5.4905  -17.9486 N   0  0  0  0  0  0  0  0  0  0  0  0
  -36.8610   -3.6612  -16.1307 C   0  0  1  0  0  0  0  0  0  0  0  0
  -36.6537   -4.5145  -17.2921 O   0  0  0  0  0  0  0  0  0  0  0  0
  -36.9962   -0.3785  -18.0135 P   0  0  1  0  0  0  0  0  0  0  0  0
  -35.6354   -5.4734  -16.9635 C   0  0  2  0  0  0  0  0  0  0  0  0
  -33.0138   -4.8772  -19.2106 N   0  0  0  0  0  0  0  0  0  0  0  0
  -34.3661   -5.9888  -15.0093 O   0  0  0  0  0  0  0  0  0  0  0  0
  -34.9852   -4.9305  -15.7497 C   0  0  2  0  0  0  0  0  0  0  0  0
  -31.4047   -6.7038  -20.9609 N   0  0  0  0  0  0  0  0  0  0  0  0
  -36.9245   -5.2580  -14.4158 O   0  0  0  0  0  0  0  0  0  0  0  0
  -36.0771   -4.2775  -15.0380 C   0  0  2  0  0  0  0  0  0  0  0  0
  -33.3687   -6.1229  -19.5611 C   0  0  0  0  0  0  0  0  0  0  0  0
  -35.0621   -7.7706  -18.7989 N   0  0  0  0  0  0  0  0  0  0  0  0
  -37.1756   -1.8463  -17.4920 O   0  0  0  0  0  0  0  0  0  0  0  0
  -36.3403   -2.3100  -16.4816 C   0  0  0  0  0  0  0  0  0  0  0  0
  -37.4025    0.4957  -16.7720 O   0  0  0  0  0  0  0  0  0  0  0  0
  -33.8279   -4.4844  -18.2124 C   0  0  0  0  0  0  0  0  0  0  0  0
  -33.3905   -7.7864  -21.2253 O   0  0  0  0  0  0  0  0  0  0  0  0
  -32.7421   -6.9297  -20.6246 C   0  0  0  0  0  0  0  0  0  0  0  0
  -34.4089   -6.5172  -18.7687 C   0  0  0  0  0  0  0  0  0  0  0  0
  -35.5923   -0.1790  -18.4795 O   0  5  0  0  0  0  0  0  0  0  0  0
  -37.7533   -0.1711  -19.2611 O   0  0  0  0  0  0  0  0  0  0  0  0
  1 17  1  0  0  0  0
  1 20  1  0  0  0  0
  2 15  1  6  0  0  0
  2  3  1  0  0  0  0
  2 11  1  0  0  0  0
  3  5  1  0  0  0  0
  4 16  1  1  0  0  0
  4 21  1  0  0  0  0
  4 22  2  0  0  0  0
  4 14  1  0  0  0  0
  5  1  1  6  0  0  0
  5  8  1  0  0  0  0
  6 17  2  0  0  0  0
  6 12  1  0  0  0  0
  8  7  1  1  0  0  0
  8 11  1  0  0  0  0
  9 19  1  0  0  0  0
 11 10  1  6  0  0  0
 12 20  2  0  0  0  0
 12 19  1  0  0  0  0
 13 20  1  0  0  0  0
 14 15  1  0  0  0  0
 18 19  2  0  0  0  0
M  CHG  1  21  -1
M  END
>  <CHROM.1>
67.41856607,65.92557011,-66.16879072,174.29884027,27.41537768,-35.38058338
-4.02182997,-17.81632990,0.39933129,-0.99283500,2.38120834

>  <Name>
ligand

>  <RI>
0

>  <Rbt.Current_Directory>
/home/itssahil/PROJECTS/Mol_Feturizer/New_Systems/rnas/4XWF

>  <Rbt.Executable>
rbdock ($Id: //depot/dev/client3/rdock/2013.1/src/exe/rbdock.cxx#4 $)

>  <Rbt.Library>
libRbt.so (2013.1, Build901 2013/11/27)

>  <Rbt.Parameter_File>
/export/apps/rDock/src/rDock_2013.1_src/data/scripts/dock_solv.prm

>  <Rbt.Receptor>
prm/blind_docking_60.prm

>  <SCORE>
-8.29469

>  <SCORE.INTER>
-7.6227

>  <SCORE.INTER.CONST>
1

>  <SCORE.INTER.POLAR>
0

>  <SCORE.INTER.ROT>
5

>  <SCORE.INTER.SOLV>
15.6123

>  <SCORE.INTER.VDW>
-17.2192

>  <SCORE.INTER.norm>
-0.346486

>  <SCORE.INTRA>
-0.671994

>  <SCORE.INTRA.DIHEDRAL>
-0.848465

>  <SCORE.INTRA.DIHEDRAL.0>
3.49807

>  <SCORE.INTRA.POLAR>
0

>  <SCORE.INTRA.POLAR.0>
0

>  <SCORE.INTRA.REPUL>
0

>  <SCORE.INTRA.REPUL.0>
0

>  <SCORE.INTRA.SOLV>
-1.1626

>  <SCORE.INTRA.SOLV.lig_0>
-73.062

>  <SCORE.INTRA.VDW>
0.33354

>  <SCORE.INTRA.VDW.0>
-1.83782

>  <SCORE.INTRA.norm>
-0.0305452

>  <SCORE.RESTR>
0

>  <SCORE.RESTR.CAVITY>
0

>  <SCORE.RESTR.norm>
0

>  <SCORE.SYSTEM>
0

>  <SCORE.SYSTEM.CONST>
0

>  <SCORE.SYSTEM.DIHEDRAL>
0

>  <SCORE.SYSTEM.SOLV>
0

>  <SCORE.SYSTEM.norm>
0

>  <SCORE.heavy>
22

>  <SCORE.norm>
-0.377032

>  <RMSD>
14.329

$$$$
ligand
 OpenBabel11021811513D
libRbt.so/2013.1/901 2013/11/27
 22 23  0  0  0  0  0  0  0  0999 V2000
  -37.7419    2.0141  -20.4609 N   0  0  0  0  0  0  0  0  0  0  0  0
  -36.3948   -0.6425  -18.8546 C   0  0  1  0  0  0  0  0  0  0  0  0
  -37.2944   -0.1781  -19.9010 O   0  0  0  0  0  0  0  0  0  0  0  0
  -37.4336   -2.9307  -16.9158 P   0  0  1  0  0  0  0  0  0  0  0  0
  -36.7613    1.0441  -20.4360 C   0  0  2  0  0  0  0  0  0  0  0  0
  -39.5825    3.0837  -20.0374 N   0  0  0  0  0  0  0  0  0  0  0  0
  -34.7895    2.3353  -20.0609 O   0  0  0  0  0  0  0  0  0  0  0  0
  -35.7609    1.4862  -19.4387 C   0  0  2  0  0  0  0  0  0  0  0  0
  -38.4581    6.2890  -21.0072 N   0  0  0  0  0  0  0  0  0  0  0  0
  -34.3160   -0.3442  -19.8958 O   0  0  0  0  0  0  0  0  0  0  0  0
  -35.2078    0.2371  -18.9298 C   0  0  2  0  0  0  0  0  0  0  0  0
  -38.8360    3.8419  -20.8549 C   0  0  0  0  0  0  0  0  0  0  0  0
  -36.6056    3.6382  -21.9262 N   0  0  0  0  0  0  0  0  0  0  0  0
  -37.9740   -1.5710  -17.4798 O   0  0  0  0  0  0  0  0  0  0  0  0
  -37.1116   -0.4829  -17.5582 C   0  0  0  0  0  0  0  0  0  0  0  0
  -36.8630   -2.5332  -15.5062 O   0  0  0  0  0  0  0  0  0  0  0  0
  -38.9028    1.9458  -19.7990 C   0  0  0  0  0  0  0  0  0  0  0  0
  -40.1806    5.3000  -22.1210 O   0  0  0  0  0  0  0  0  0  0  0  0
  -39.2086    5.1697  -21.3771 C   0  0  0  0  0  0  0  0  0  0  0  0
  -37.6740    3.1764  -21.1237 C   0  0  0  0  0  0  0  0  0  0  0  0
  -38.5389   -3.9331  -16.8770 O   0  5  0  0  0  0  0  0  0  0  0  0
  -36.5003   -3.5575  -17.8690 O   0  0  0  0  0  0  0  0  0  0  0  0
  1 17  1  0  0  0  0
  1 20  1  0  0  0  0
  2 15  1  1  0  0  0
  2  3  1  0  0  0  0
  2 11  1  0  0  0  0
  3  5  1  0  0  0  0
  4 16  1  1  0  0  0
  4 21  1  0  0  0  0
  4 22  2  0  0  0  0
  4 14  1  0  0  0  0
  5  1  1  1  0  0  0
  5  8  1  0  0  0  0
  6 17  2  0  0  0  0
  6 12  1  0  0  0  0
  8  7  1  6  0  0  0
  8 11  1  0  0  0  0
  9 19  1  0  0  0  0
 11 10  1  6  0  0  0
 12 20  2  0  0  0  0
 12 19  1  0  0  0  0
 13 20  1  0  0  0  0
 14 15  1  0  0  0  0
 18 19  2  0  0  0  0
M  CHG  1  21  -1
M  END
>  <CHROM.1>
15.06881145,79.33817961,55.41602792,84.99806565,115.37775629,-37.34282721
0.72495307,-19.27410978,1.73676446,0.19137914,-0.55597296

>  <Name>
ligand

>  <RI>
0

>  <Rbt.Current_Directory>
/home/itssahil/PROJECTS/Mol_Feturizer/New_Systems/rnas/4XWF

>  <Rbt.Executable>
rbdock ($Id: //depot/dev/client3/rdock/2013.1/src/exe/rbdock.cxx#4 $)

>  <Rbt.Library>
libRbt.so (2013.1, Build901 2013/11/27)

>  <Rbt.Parameter_File>
/export/apps/rDock/src/rDock_2013.1_src/data/scripts/dock_solv.prm

>  <Rbt.Receptor>
prm/blind_docking_100.prm

>  <SCORE>
-7.30586

>  <SCORE.INTER>
-9.12184

>  <SCORE.INTER.CONST>
1

>  <SCORE.INTER.POLAR>
0

>  <SCORE.INTER.ROT>
5

>  <SCORE.INTER.SOLV>
14.6323

>  <SCORE.INTER.VDW>
-17.892

>  <SCORE.INTER.norm>
-0.414629

>  <SCORE.INTRA>
1.81598

>  <SCORE.INTRA.DIHEDRAL>
1.97565

>  <SCORE.INTRA.DIHEDRAL.0>
3.49807

>  <SCORE.INTRA.POLAR>
0

>  <SCORE.INTRA.POLAR.0>
0

>  <SCORE.INTRA.REPUL>
0

>  <SCORE.INTRA.REPUL.0>
0

>  <SCORE.INTRA.SOLV>
2.2528

>  <SCORE.INTRA.SOLV.lig_0>
-73.062

>  <SCORE.INTRA.VDW>
-0.298244

>  <SCORE.INTRA.VDW.0>
-1.83782

>  <SCORE.INTRA.norm>
0.0825447

>  <SCORE.RESTR>
0

>  <SCORE.RESTR.CAVITY>
0

>  <SCORE.RESTR.norm>
0

>  <SCORE.SYSTEM>
0

>  <SCORE.SYSTEM.CONST>
0

>  <SCORE.SYSTEM.DIHEDRAL>
0

>  <SCORE.SYSTEM.SOLV>
0

>  <SCORE.SYSTEM.norm>
0

>  <SCORE.heavy>
22

>  <SCORE.norm>
-0.332084

>  <RMSD>
14.361

$$$$
ligand
 OpenBabel11021811513D
libRbt.so/2013.1/901 2013/11/27
 22 23  0  0  0  0  0  0  0  0999 V2000
  -34.1334   -8.0909  -14.3598 N   0  0  0  0  0  0  0  0  0  0  0  0
  -36.3962   -5.6548  -13.7290 C   0  0  1  0  0  0  0  0  0  0  0  0
  -36.1719   -7.0567  -14.0518 O   0  0  0  0  0  0  0  0  0  0  0  0
  -34.4201   -4.5673  -16.7692 P   0  0  1  0  0  0  0  0  0  0  0  0
  -34.9408   -7.4642  -13.4332 C   0  0  2  0  0  0  0  0  0  0  0  0
  -33.3060   -8.7325  -16.2611 N   0  0  0  0  0  0  0  0  0  0  0  0
  -33.3422   -6.4207  -12.0009 O   0  0  0  0  0  0  0  0  0  0  0  0
  -34.2625   -6.1982  -13.0757 C   0  0  2  0  0  0  0  0  0  0  0  0
  -30.9962  -10.5004  -16.7522 N   0  0  0  0  0  0  0  0  0  0  0  0
  -35.8941   -5.6437  -11.4394 O   0  0  0  0  0  0  0  0  0  0  0  0
  -35.3618   -5.3050  -12.7310 C   0  0  2  0  0  0  0  0  0  0  0  0
  -32.5389   -9.2325  -15.2802 C   0  0  0  0  0  0  0  0  0  0  0  0
  -32.5272   -9.1221  -12.8001 N   0  0  0  0  0  0  0  0  0  0  0  0
  -35.0031   -5.3017  -15.5124 O   0  0  0  0  0  0  0  0  0  0  0  0
  -36.2217   -4.8816  -14.9906 C   0  0  0  0  0  0  0  0  0  0  0  0
  -33.3862   -3.5592  -16.1484 O   0  0  0  0  0  0  0  0  0  0  0  0
  -34.2997   -8.0286  -15.6861 C   0  0  0  0  0  0  0  0  0  0  0  0
  -30.6628  -10.4202  -14.5010 O   0  0  0  0  0  0  0  0  0  0  0  0
  -31.3439  -10.0763  -15.4669 C   0  0  0  0  0  0  0  0  0  0  0  0
  -33.0518   -8.8302  -14.0800 C   0  0  0  0  0  0  0  0  0  0  0  0
  -33.8260   -5.5672  -17.7047 O   0  5  0  0  0  0  0  0  0  0  0  0
  -35.5035   -4.0006  -17.5924 O   0  0  0  0  0  0  0  0  0  0  0  0
  1 17  1  0  0  0  0
  1 20  1  0  0  0  0
  2 15  1  6  0  0  0
  2  3  1  0  0  0  0
  2 11  1  0  0  0  0
  3  5  1  0  0  0  0
  4 16  1  1  0  0  0
  4 21  1  0  0  0  0
  4 22  2  0  0  0  0
  4 14  1  0  0  0  0
  5  1  1  6  0  0  0
  5  8  1  0  0  0  0
  6 17  2  0  0  0  0
  6 12  1  0  0  0  0
  8  7  1  1  0  0  0
  8 11  1  0  0  0  0
  9 19  1  0  0  0  0
 11 10  1  1  0  0  0
 12 20  2  0  0  0  0
 12 19  1  0  0  0  0
 13 20  1  0  0  0  0
 14 15  1  0  0  0  0
 18 19  2  0  0  0  0
M  CHG  1  21  -1
M  END
>  <CHROM.1>
15.93942181,-50.49231300,98.35226143,-173.08187571,-5.08610287,-34.02918865
-6.81430814,-14.86306628,0.45775288,-0.89964479,2.04932496

>  <Name>
ligand

>  <RI>
0

>  <Rbt.Current_Directory>
/home/itssahil/PROJECTS/Mol_Feturizer/New_Systems/rnas/4XWF

>  <Rbt.Executable>
rbdock ($Id: //depot/dev/client3/rdock/2013.1/src/exe/rbdock.cxx#4 $)

>  <Rbt.Library>
libRbt.so (2013.1, Build901 2013/11/27)

>  <Rbt.Parameter_File>
/export/apps/rDock/src/rDock_2013.1_src/data/scripts/dock_solv.prm

>  <Rbt.Receptor>
prm/blind_docking_40.prm

>  <SCORE>
-2.03235

>  <SCORE.INTER>
-4.01012

>  <SCORE.INTER.CONST>
1

>  <SCORE.INTER.POLAR>
0

>  <SCORE.INTER.ROT>
5

>  <SCORE.INTER.SOLV>
13.3046

>  <SCORE.INTER.VDW>
-14.0416

>  <SCORE.INTER.norm>
-0.182278

>  <SCORE.INTRA>
1.32419

>  <SCORE.INTRA.DIHEDRAL>
0.183731

>  <SCORE.INTRA.DIHEDRAL.0>
3.49807

>  <SCORE.INTRA.POLAR>
0

>  <SCORE.INTRA.POLAR.0>
0

>  <SCORE.INTRA.REPUL>
0

>  <SCORE.INTRA.REPUL.0>
0

>  <SCORE.INTRA.SOLV>
2.24416

>  <SCORE.INTRA.SOLV.lig_0>
-73.062

>  <SCORE.INTRA.VDW>
0.11024

>  <SCORE.INTRA.VDW.0>
-1.83782

>  <SCORE.INTRA.norm>
0.0601904

>  <SCORE.RESTR>
0.653585

>  <SCORE.RESTR.CAVITY>
0.653585

>  <SCORE.RESTR.norm>
0.0297084

>  <SCORE.SYSTEM>
0

>  <SCORE.SYSTEM.CONST>
0

>  <SCORE.SYSTEM.DIHEDRAL>
0

>  <SCORE.SYSTEM.SOLV>
0

>  <SCORE.SYSTEM.norm>
0

>  <SCORE.heavy>
22

>  <SCORE.norm>
-0.0923796

>  <RMSD>
14.412

$$$$
ligand
 OpenBabel11021811513D
libRbt.so/2013.1/901 2013/11/27
 22 23  0  0  0  0  0  0  0  0999 V2000
  -36.0493   -4.9692  -18.6061 N   0  0  0  0  0  0  0  0  0  0  0  0
  -37.0831   -1.7560  -18.3619 C   0  0  1  0  0  0  0  0  0  0  0  0
  -37.4225   -3.1208  -18.7390 O   0  0  0  0  0  0  0  0  0  0  0  0
  -35.1854    1.0460  -20.0660 P   0  0  1  0  0  0  0  0  0  0  0  0
  -36.7128   -4.0134  -17.8649 C   0  0  2  0  0  0  0  0  0  0  0  0
  -34.5983   -5.9044  -19.9218 N   0  0  0  0  0  0  0  0  0  0  0  0
  -35.2664   -3.7443  -15.9857 O   0  0  0  0  0  0  0  0  0  0  0  0
  -35.6692   -3.1730  -17.2359 C   0  0  2  0  0  0  0  0  0  0  0  0
  -35.9311   -8.7377  -21.0040 N   0  0  0  0  0  0  0  0  0  0  0  0
  -37.2606   -1.8861  -16.0282 O   0  0  0  0  0  0  0  0  0  0  0  0
  -36.3096   -1.8699  -17.1060 C   0  0  2  0  0  0  0  0  0  0  0  0
  -35.4266   -6.8571  -19.4669 C   0  0  0  0  0  0  0  0  0  0  0  0
  -37.3755   -6.9341  -17.9309 N   0  0  0  0  0  0  0  0  0  0  0  0
  -36.0039    0.1267  -19.0947 O   0  0  0  0  0  0  0  0  0  0  0  0
  -36.2551   -1.1903  -19.4639 C   0  0  0  0  0  0  0  0  0  0  0  0
  -36.1690    1.2583  -21.2734 O   0  0  0  0  0  0  0  0  0  0  0  0
  -34.9914   -4.7312  -19.3901 C   0  0  0  0  0  0  0  0  0  0  0  0
  -34.8244   -9.0926  -19.0458 O   0  0  0  0  0  0  0  0  0  0  0  0
  -35.3614   -8.2900  -19.8091 C   0  0  0  0  0  0  0  0  0  0  0  0
  -36.3412   -6.2764  -18.6353 C   0  0  0  0  0  0  0  0  0  0  0  0
  -34.7923    2.3002  -19.3586 O   0  5  0  0  0  0  0  0  0  0  0  0
  -33.8702    0.4510  -20.3640 O   0  0  0  0  0  0  0  0  0  0  0  0
  1 17  1  0  0  0  0
  1 20  1  0  0  0  0
  2 15  1  6  0  0  0
  2  3  1  0  0  0  0
  2 11  1  0  0  0  0
  3  5  1  0  0  0  0
  4 16  1  6  0  0  0
  4 21  1  0  0  0  0
  4 22  2  0  0  0  0
  4 14  1  0  0  0  0
  5  1  1  6  0  0  0
  5  8  1  0  0  0  0
  6 17  2  0  0  0  0
  6 12  1  0  0  0  0
  8  7  1  1  0  0  0
  8 11  1  0  0  0  0
  9 19  1  0  0  0  0
 11 10  1  1  0  0  0
 12 20  2  0  0  0  0
 12 19  1  0  0  0  0
 13 20  1  0  0  0  0
 14 15  1  0  0  0  0
 18 19  2  0  0  0  0
M  CHG  1  21  -1
M  END
>  <CHROM.1>
69.38863772,177.40359954,69.37601810,-177.96081738,-82.03438602,-35.81767289
-3.13033882,-18.91239334,1.64617134,-1.16681203,-3.12736178

>  <Name>
ligand

>  <RI>
0

>  <Rbt.Current_Directory>
/home/itssahil/PROJECTS/Mol_Feturizer/New_Systems/rnas/4XWF

>  <Rbt.Executable>
rbdock ($Id: //depot/dev/client3/rdock/2013.1/src/exe/rbdock.cxx#4 $)

>  <Rbt.Library>
libRbt.so (2013.1, Build901 2013/11/27)

>  <Rbt.Parameter_File>
/export/apps/rDock/src/rDock_2013.1_src/data/scripts/dock_solv.prm

>  <Rbt.Receptor>
prm/blind_docking_80.prm

>  <SCORE>
-8.27507

>  <SCORE.INTER>
-7.87974

>  <SCORE.INTER.CONST>
1

>  <SCORE.INTER.POLAR>
0

>  <SCORE.INTER.ROT>
5

>  <SCORE.INTER.SOLV>
20.8855

>  <SCORE.INTER.VDW>
-19.1483

>  <SCORE.INTER.norm>
-0.35817

>  <SCORE.INTRA>
-0.395333

>  <SCORE.INTRA.DIHEDRAL>
-0.634563

>  <SCORE.INTRA.DIHEDRAL.0>
3.49807

>  <SCORE.INTRA.POLAR>
0

>  <SCORE.INTRA.POLAR.0>
0

>  <SCORE.INTRA.REPUL>
0

>  <SCORE.INTRA.REPUL.0>
0

>  <SCORE.INTRA.SOLV>
-1.11831

>  <SCORE.INTRA.SOLV.lig_0>
-73.062

>  <SCORE.INTRA.VDW>
0.481101

>  <SCORE.INTRA.VDW.0>
-1.83782

>  <SCORE.INTRA.norm>
-0.0179697

>  <SCORE.RESTR>
0

>  <SCORE.RESTR.CAVITY>
0

>  <SCORE.RESTR.norm>
0

>  <SCORE.SYSTEM>
0

>  <SCORE.SYSTEM.CONST>
0

>  <SCORE.SYSTEM.DIHEDRAL>
0

>  <SCORE.SYSTEM.SOLV>
0

>  <SCORE.SYSTEM.norm>
0

>  <SCORE.heavy>
22

>  <SCORE.norm>
-0.376139

>  <RMSD>
14.415

$$$$
ligand
 OpenBabel11021811513D
libRbt.so/2013.1/901 2013/11/27
 22 23  0  0  0  0  0  0  0  0999 V2000
  -35.5605   -0.5017  -19.1694 N   0  0  0  0  0  0  0  0  0  0  0  0
  -34.9910   -3.4804  -17.6675 C   0  0  1  0  0  0  0  0  0  0  0  0
  -34.6609   -2.0637  -17.7304 O   0  0  0  0  0  0  0  0  0  0  0  0
  -33.8959   -6.5225  -19.6392 P   0  0  1  0  0  0  0  0  0  0  0  0
  -35.8450   -1.3478  -18.1176 C   0  0  2  0  0  0  0  0  0  0  0  0
  -34.6286    0.3187  -20.9497 N   0  0  0  0  0  0  0  0  0  0  0  0
  -38.1140   -1.9445  -18.5548 O   0  0  0  0  0  0  0  0  0  0  0  0
  -36.7549   -2.3864  -18.6506 C   0  0  2  0  0  0  0  0  0  0  0  0
  -37.3875    2.5504  -21.6341 N   0  0  0  0  0  0  0  0  0  0  0  0
  -37.0351   -3.4067  -16.5227 O   0  0  0  0  0  0  0  0  0  0  0  0
  -36.4592   -3.5555  -17.8314 C   0  0  2  0  0  0  0  0  0  0  0  0
  -35.6415    1.1253  -20.5974 C   0  0  0  0  0  0  0  0  0  0  0  0
  -37.3536    1.1488  -18.7998 N   0  0  0  0  0  0  0  0  0  0  0  0
  -34.4214   -5.5098  -18.5636 O   0  0  0  0  0  0  0  0  0  0  0  0
  -34.2807   -4.1460  -18.7956 C   0  0  0  0  0  0  0  0  0  0  0  0
  -32.4392   -6.0104  -19.9329 O   0  0  0  0  0  0  0  0  0  0  0  0
  -34.5768   -0.6883  -20.0570 C   0  0  0  0  0  0  0  0  0  0  0  0
  -35.2075    3.2080  -21.6030 O   0  0  0  0  0  0  0  0  0  0  0  0
  -36.0445    2.3582  -21.2990 C   0  0  0  0  0  0  0  0  0  0  0  0
  -36.2351    0.6136  -19.4789 C   0  0  0  0  0  0  0  0  0  0  0  0
  -33.9673   -7.9119  -19.0984 O   0  5  0  0  0  0  0  0  0  0  0  0
  -34.8256   -6.6021  -20.7802 O   0  0  0  0  0  0  0  0  0  0  0  0
  1 17  1  0  0  0  0
  1 20  1  0  0  0  0
  2 15  1  6  0  0  0
  2  3  1  0  0  0  0
  2 11  1  0  0  0  0
  3  5  1  0  0  0  0
  4 16  1  6  0  0  0
  4 21  1  0  0  0  0
  4 22  2  0  0  0  0
  4 14  1  0  0  0  0
  5  1  1  6  0  0  0
  5  8  1  0  0  0  0
  6 17  2  0  0  0  0
  6 12  1  0  0  0  0
  8  7  1  1  0  0  0
  8 11  1  0  0  0  0
  9 19  1  0  0  0  0
 11 10  1  1  0  0  0
 12 20  2  0  0  0  0
 12 19  1  0  0  0  0
 13 20  1  0  0  0  0
 14 15  1  0  0  0  0
 18 19  2  0  0  0  0
M  CHG  1  21  -1
M  END
>  <CHROM.1>
26.24693376,169.63416990,49.28758153,174.57828472,130.38258491,-35.35921604
-2.41246568,-19.33398643,1.94379974,0.82244305,-0.43698590

>  <Name>
ligand

>  <RI>
0

>  <Rbt.Current_Directory>
/home/itssahil/PROJECTS/Mol_Feturizer/New_Systems/rnas/4XWF

>  <Rbt.Executable>
rbdock ($Id: //depot/dev/client3/rdock/2013.1/src/exe/rbdock.cxx#4 $)

>  <Rbt.Library>
libRbt.so (2013.1, Build901 2013/11/27)

>  <Rbt.Parameter_File>
/export/apps/rDock/src/rDock_2013.1_src/data/scripts/dock_solv.prm

>  <Rbt.Receptor>
prm/blind_docking_60.prm

>  <SCORE>
-7.52001

>  <SCORE.INTER>
-6.98035

>  <SCORE.INTER.CONST>
1

>  <SCORE.INTER.POLAR>
0

>  <SCORE.INTER.ROT>
5

>  <SCORE.INTER.SOLV>
19.1448

>  <SCORE.INTER.VDW>
-17.9685

>  <SCORE.INTER.norm>
-0.317289

>  <SCORE.INTRA>
-0.539666

>  <SCORE.INTRA.DIHEDRAL>
-1.16556

>  <SCORE.INTRA.DIHEDRAL.0>
3.49807

>  <SCORE.INTRA.POLAR>
0

>  <SCORE.INTRA.POLAR.0>
0

>  <SCORE.INTRA.REPUL>
0

>  <SCORE.INTRA.REPUL.0>
0

>  <SCORE.INTRA.SOLV>
0.298755

>  <SCORE.INTRA.SOLV.lig_0>
-73.062

>  <SCORE.INTRA.VDW>
-0.106263

>  <SCORE.INTRA.VDW.0>
-1.83782

>  <SCORE.INTRA.norm>
-0.0245303

>  <SCORE.RESTR>
0

>  <SCORE.RESTR.CAVITY>
0

>  <SCORE.RESTR.norm>
0

>  <SCORE.SYSTEM>
0

>  <SCORE.SYSTEM.CONST>
0

>  <SCORE.SYSTEM.DIHEDRAL>
0

>  <SCORE.SYSTEM.SOLV>
0

>  <SCORE.SYSTEM.norm>
0

>  <SCORE.heavy>
22

>  <SCORE.norm>
-0.341819

>  <RMSD>
14.429

$$$$
ligand
 OpenBabel11021811513D
libRbt.so/2013.1/901 2013/11/27
 22 23  0  0  0  0  0  0  0  0999 V2000
  -37.2478   -5.1984  -17.8877 N   0  0  0  0  0  0  0  0  0  0  0  0
  -37.1799   -1.8184  -17.7332 C   0  0  1  0  0  0  0  0  0  0  0  0
  -37.8772   -3.0033  -18.2125 O   0  0  0  0  0  0  0  0  0  0  0  0
  -36.5362    0.8953  -18.8396 P   0  0  1  0  0  0  0  0  0  0  0  0
  -37.6817   -4.0536  -17.2517 C   0  0  2  0  0  0  0  0  0  0  0  0
  -37.2197   -7.2131  -18.6946 N   0  0  0  0  0  0  0  0  0  0  0  0
  -36.6067   -4.2230  -15.1277 O   0  0  0  0  0  0  0  0  0  0  0  0
  -36.5552   -3.5895  -16.4113 C   0  0  2  0  0  0  0  0  0  0  0  0
  -35.1093   -8.5292  -20.2777 N   0  0  0  0  0  0  0  0  0  0  0  0
  -37.8237   -1.8092  -15.4794 O   0  0  0  0  0  0  0  0  0  0  0  0
  -36.7378   -2.1441  -16.3596 C   0  0  2  0  0  0  0  0  0  0  0  0
  -36.0697   -6.6101  -19.0330 C   0  0  0  0  0  0  0  0  0  0  0  0
  -35.0683   -4.3656  -18.6826 N   0  0  0  0  0  0  0  0  0  0  0  0
  -35.6091   -0.2895  -18.3974 O   0  0  0  0  0  0  0  0  0  0  0  0
  -36.0203   -1.5952  -18.6418 C   0  0  0  0  0  0  0  0  0  0  0  0
  -37.4921    1.0828  -17.6060 O   0  0  0  0  0  0  0  0  0  0  0  0
  -37.9473   -6.3355  -17.9777 C   0  0  0  0  0  0  0  0  0  0  0  0
  -33.9458   -6.5855  -20.0457 O   0  0  0  0  0  0  0  0  0  0  0  0
  -34.9761   -7.2177  -19.8138 C   0  0  0  0  0  0  0  0  0  0  0  0
  -36.0813   -5.3400  -18.5309 C   0  0  0  0  0  0  0  0  0  0  0  0
  -35.7033    2.0902  -19.1657 O   0  5  0  0  0  0  0  0  0  0  0  0
  -37.1642    0.6091  -20.1420 O   0  0  0  0  0  0  0  0  0  0  0  0
  1 17  1  0  0  0  0
  1 20  1  0  0  0  0
  2 15  1  6  0  0  0
  2  3  1  0  0  0  0
  2 11  1  0  0  0  0
  3  5  1  0  0  0  0
  4 16  1  1  0  0  0
  4 21  1  0  0  0  0
  4 22  2  0  0  0  0
  4 14  1  0  0  0  0
  5  1  1  6  0  0  0
  5  8  1  0  0  0  0
  6 17  2  0  0  0  0
  6 12  1  0  0  0  0
  8  7  1  1  0  0  0
  8 11  1  0  0  0  0
  9 19  1  0  0  0  0
 11 10  1  1  0  0  0
 12 20  2  0  0  0  0
 12 19  1  0  0  0  0
 13 20  1  0  0  0  0
 14 15  1  0  0  0  0
 18 19  2  0  0  0  0
M  CHG  1  21  -1
M  END
>  <CHROM.1>
-113.70273823,163.96361509,87.26600511,-68.95958800,0.80585837,-36.48755714
-3.03988794,-18.22025748,1.35903296,-1.04760732,3.03061537

>  <Name>
ligand

>  <RI>
0

>  <Rbt.Current_Directory>
/home/itssahil/PROJECTS/Mol_Feturizer/New_Systems/rnas/4XWF

>  <Rbt.Executable>
rbdock ($Id: //depot/dev/client3/rdock/2013.1/src/exe/rbdock.cxx#4 $)

>  <Rbt.Library>
libRbt.so (2013.1, Build901 2013/11/27)

>  <Rbt.Parameter_File>
/export/apps/rDock/src/rDock_2013.1_src/data/scripts/dock_solv.prm

>  <Rbt.Receptor>
prm/blind_docking_100.prm

>  <SCORE>
-7.90066

>  <SCORE.INTER>
-11.5826

>  <SCORE.INTER.CONST>
1

>  <SCORE.INTER.POLAR>
0

>  <SCORE.INTER.ROT>
5

>  <SCORE.INTER.SOLV>
16.0553

>  <SCORE.INTER.VDW>
-20.0068

>  <SCORE.INTER.norm>
-0.52648

>  <SCORE.INTRA>
3.6819

>  <SCORE.INTRA.DIHEDRAL>
0.1703

>  <SCORE.INTRA.DIHEDRAL.0>
3.49807

>  <SCORE.INTRA.POLAR>
0

>  <SCORE.INTRA.POLAR.0>
0

>  <SCORE.INTRA.REPUL>
0

>  <SCORE.INTRA.REPUL.0>
0

>  <SCORE.INTRA.SOLV>
5.78727

>  <SCORE.INTRA.SOLV.lig_0>
-73.062

>  <SCORE.INTRA.VDW>
0.703111

>  <SCORE.INTRA.VDW.0>
-1.83782

>  <SCORE.INTRA.norm>
0.167359

>  <SCORE.RESTR>
0

>  <SCORE.RESTR.CAVITY>
0

>  <SCORE.RESTR.norm>
0

>  <SCORE.SYSTEM>
0

>  <SCORE.SYSTEM.CONST>
0

>  <SCORE.SYSTEM.DIHEDRAL>
0

>  <SCORE.SYSTEM.SOLV>
0

>  <SCORE.SYSTEM.norm>
0

>  <SCORE.heavy>
22

>  <SCORE.norm>
-0.359121

>  <RMSD>
14.436

$$$$
ligand
 OpenBabel11021811513D
libRbt.so/2013.1/901 2013/11/27
 22 23  0  0  0  0  0  0  0  0999 V2000
  -34.9974   -1.7076  -18.4907 N   0  0  0  0  0  0  0  0  0  0  0  0
  -34.1261   -4.8790  -17.6931 C   0  0  1  0  0  0  0  0  0  0  0  0
  -33.8512   -3.4594  -17.5224 O   0  0  0  0  0  0  0  0  0  0  0  0
  -33.3846   -7.4263  -20.3780 P   0  0  1  0  0  0  0  0  0  0  0  0
  -35.1000   -2.7525  -17.5958 C   0  0  2  0  0  0  0  0  0  0  0  0
  -34.3663   -0.5164  -20.1918 N   0  0  0  0  0  0  0  0  0  0  0  0
  -37.3897   -3.3853  -17.8256 O   0  0  0  0  0  0  0  0  0  0  0  0
  -36.0464   -3.7221  -18.1916 C   0  0  2  0  0  0  0  0  0  0  0  0
  -37.1850    1.5907  -20.3515 N   0  0  0  0  0  0  0  0  0  0  0  0
  -35.9827   -5.1410  -16.2864 O   0  0  0  0  0  0  0  0  0  0  0  0
  -35.5997   -5.0061  -17.6653 C   0  0  2  0  0  0  0  0  0  0  0  0
  -35.3292    0.1564  -19.5433 C   0  0  0  0  0  0  0  0  0  0  0  0
  -36.7456   -0.2498  -17.5452 N   0  0  0  0  0  0  0  0  0  0  0  0
  -33.5959   -6.6673  -19.0223 O   0  0  0  0  0  0  0  0  0  0  0  0
  -33.5683   -5.2770  -19.0161 C   0  0  0  0  0  0  0  0  0  0  0  0
  -32.8876   -8.8457  -19.9211 O   0  0  0  0  0  0  0  0  0  0  0  0
  -34.1578   -1.6717  -19.5321 C   0  0  0  0  0  0  0  0  0  0  0  0
  -35.1425    2.4784  -19.8765 O   0  0  0  0  0  0  0  0  0  0  0  0
  -35.8599    1.4792  -19.9219 C   0  0  0  0  0  0  0  0  0  0  0  0
  -35.7338   -0.5887  -18.4726 C   0  0  0  0  0  0  0  0  0  0  0  0
  -34.6606   -7.4358  -21.1525 O   0  5  0  0  0  0  0  0  0  0  0  0
  -32.5014   -6.6587  -21.2742 O   0  0  0  0  0  0  0  0  0  0  0  0
  1 17  1  0  0  0  0
  1 20  1  0  0  0  0
  2 15  1  6  0  0  0
  2  3  1  0  0  0  0
  2 11  1  0  0  0  0
  3  5  1  0  0  0  0
  4 16  1  1  0  0  0
  4 21  1  0  0  0  0
  4 22  2  0  0  0  0
  4 14  1  0  0  0  0
  5  1  1  6  0  0  0
  5  8  1  0  0  0  0
  6 17  2  0  0  0  0
  6 12  1  0  0  0  0
  8  7  1  1  0  0  0
  8 11  1  0  0  0  0
  9 19  1  0  0  0  0
 11 10  1  1  0  0  0
 12 20  2  0  0  0  0
 12 19  1  0  0  0  0
 13 20  1  0  0  0  0
 14 15  1  0  0  0  0
 18 19  2  0  0  0  0
M  CHG  1  21  -1
M  END
>  <CHROM.1>
26.95273378,167.91135068,157.14929131,166.32673880,113.75633912,-34.80722248
-3.53256741,-19.05947852,2.10613368,0.99315129,-0.38395404

>  <Name>
ligand

>  <RI>
0

>  <Rbt.Current_Directory>
/home/itssahil/PROJECTS/Mol_Feturizer/New_Systems/rnas/4XWF

>  <Rbt.Executable>
rbdock ($Id: //depot/dev/client3/rdock/2013.1/src/exe/rbdock.cxx#4 $)

>  <Rbt.Library>
libRbt.so (2013.1, Build901 2013/11/27)

>  <Rbt.Parameter_File>
/export/apps/rDock/src/rDock_2013.1_src/data/scripts/dock_solv.prm

>  <Rbt.Receptor>
prm/blind_docking_80.prm

>  <SCORE>
-4.6682

>  <SCORE.INTER>
-5.098

>  <SCORE.INTER.CONST>
1

>  <SCORE.INTER.POLAR>
0

>  <SCORE.INTER.ROT>
5

>  <SCORE.INTER.SOLV>
17.8526

>  <SCORE.INTER.VDW>
-16.2829

>  <SCORE.INTER.norm>
-0.231727

>  <SCORE.INTRA>
0.429803

>  <SCORE.INTRA.DIHEDRAL>
0.204717

>  <SCORE.INTRA.DIHEDRAL.0>
3.49807

>  <SCORE.INTRA.POLAR>
0

>  <SCORE.INTRA.POLAR.0>
0

>  <SCORE.INTRA.REPUL>
0

>  <SCORE.INTRA.REPUL.0>
0

>  <SCORE.INTRA.SOLV>
1.02997

>  <SCORE.INTRA.SOLV.lig_0>
-73.062

>  <SCORE.INTRA.VDW>
-0.18754

>  <SCORE.INTRA.VDW.0>
-1.83782

>  <SCORE.INTRA.norm>
0.0195365

>  <SCORE.RESTR>
0

>  <SCORE.RESTR.CAVITY>
0

>  <SCORE.RESTR.norm>
0

>  <SCORE.SYSTEM>
0

>  <SCORE.SYSTEM.CONST>
0

>  <SCORE.SYSTEM.DIHEDRAL>
0

>  <SCORE.SYSTEM.SOLV>
0

>  <SCORE.SYSTEM.norm>
0

>  <SCORE.heavy>
22

>  <SCORE.norm>
-0.212191

>  <RMSD>
14.451

$$$$
ligand
 OpenBabel11021811513D
libRbt.so/2013.1/901 2013/11/27
 22 23  0  0  0  0  0  0  0  0999 V2000
  -38.0477    2.6478  -21.1430 N   0  0  0  0  0  0  0  0  0  0  0  0
  -35.0554    1.0902  -20.8730 C   0  0  1  0  0  0  0  0  0  0  0  0
  -36.3840    1.0839  -21.4686 O   0  0  0  0  0  0  0  0  0  0  0  0
  -36.3336   -1.3303  -18.2576 P   0  0  1  0  0  0  0  0  0  0  0  0
  -36.7881    2.4480  -21.6691 C   0  0  2  0  0  0  0  0  0  0  0  0
  -39.7723    2.5006  -19.8334 N   0  0  0  0  0  0  0  0  0  0  0  0
  -35.7654    4.5795  -21.3425 O   0  0  0  0  0  0  0  0  0  0  0  0
  -35.8565    3.2423  -20.8372 C   0  0  2  0  0  0  0  0  0  0  0  0
  -41.3115    5.5348  -20.6545 N   0  0  0  0  0  0  0  0  0  0  0  0
  -33.9855    2.7005  -22.1984 O   0  0  0  0  0  0  0  0  0  0  0  0
  -34.6052    2.4987  -20.9172 C   0  0  2  0  0  0  0  0  0  0  0  0
  -40.0455    3.4054  -20.7858 C   0  0  0  0  0  0  0  0  0  0  0  0
  -38.8329    4.3639  -22.7286 N   0  0  0  0  0  0  0  0  0  0  0  0
  -35.8698   -0.6083  -19.5700 O   0  0  0  0  0  0  0  0  0  0  0  0
  -35.2017    0.6073  -19.4710 C   0  0  0  0  0  0  0  0  0  0  0  0
  -37.3317   -0.3003  -17.6148 O   0  0  0  0  0  0  0  0  0  0  0  0
  -38.5324    2.0269  -20.0613 C   0  0  0  0  0  0  0  0  0  0  0  0
  -42.3458    3.5938  -21.2445 O   0  0  0  0  0  0  0  0  0  0  0  0
  -41.3040    4.1626  -20.9187 C   0  0  0  0  0  0  0  0  0  0  0  0
  -38.9630    3.5059  -21.6125 C   0  0  0  0  0  0  0  0  0  0  0  0
  -36.9397   -2.6511  -18.5983 O   0  5  0  0  0  0  0  0  0  0  0  0
  -35.1718   -1.7391  -17.4478 O   0  0  0  0  0  0  0  0  0  0  0  0
  1 17  1  0  0  0  0
  1 20  1  0  0  0  0
  2 15  1  1  0  0  0
  2  3  1  0  0  0  0
  2 11  1  0  0  0  0
  3  5  1  0  0  0  0
  4 16  1  1  0  0  0
  4 21  1  0  0  0  0
  4 22  2  0  0  0  0
  4 14  1  0  0  0  0
  5  1  1  1  0  0  0
  5  8  1  0  0  0  0
  6 17  2  0  0  0  0
  6 12  1  0  0  0  0
  8  7  1  6  0  0  0
  8 11  1  0  0  0  0
  9 19  1  0  0  0  0
 11 10  1  6  0  0  0
 12 20  2  0  0  0  0
 12 19  1  0  0  0  0
 13 20  1  0  0  0  0
 14 15  1  0  0  0  0
 18 19  2  0  0  0  0
M  CHG  1  21  -1
M  END
>  <CHROM.1>
33.03303991,53.47790078,61.38965266,-173.37967403,110.01990482,-37.34793585
1.70980521,-20.26718332,-2.22947846,-0.19192093,2.52799171

>  <Name>
ligand

>  <RI>
0

>  <Rbt.Current_Directory>
/home/itssahil/PROJECTS/Mol_Feturizer/New_Systems/rnas/4XWF

>  <Rbt.Executable>
rbdock ($Id: //depot/dev/client3/rdock/2013.1/src/exe/rbdock.cxx#4 $)

>  <Rbt.Library>
libRbt.so (2013.1, Build901 2013/11/27)

>  <Rbt.Parameter_File>
/export/apps/rDock/src/rDock_2013.1_src/data/scripts/dock_solv.prm

>  <Rbt.Receptor>
prm/blind_docking_100.prm

>  <SCORE>
-11.3515

>  <SCORE.INTER>
-9.96785

>  <SCORE.INTER.CONST>
1

>  <SCORE.INTER.POLAR>
0

>  <SCORE.INTER.ROT>
5

>  <SCORE.INTER.SOLV>
16.0463

>  <SCORE.INTER.VDW>
-18.9273

>  <SCORE.INTER.norm>
-0.453084

>  <SCORE.INTRA>
-1.38367

>  <SCORE.INTRA.DIHEDRAL>
-1.56578

>  <SCORE.INTRA.DIHEDRAL.0>
3.49807

>  <SCORE.INTRA.POLAR>
0

>  <SCORE.INTRA.POLAR.0>
0

>  <SCORE.INTRA.REPUL>
0

>  <SCORE.INTRA.REPUL.0>
0

>  <SCORE.INTRA.SOLV>
-0.113874

>  <SCORE.INTRA.SOLV.lig_0>
-73.062

>  <SCORE.INTRA.VDW>
-0.543843

>  <SCORE.INTRA.VDW.0>
-1.83782

>  <SCORE.INTRA.norm>
-0.0628942

>  <SCORE.RESTR>
0

>  <SCORE.RESTR.CAVITY>
0

>  <SCORE.RESTR.norm>
0

>  <SCORE.SYSTEM>
0

>  <SCORE.SYSTEM.CONST>
0

>  <SCORE.SYSTEM.DIHEDRAL>
0

>  <SCORE.SYSTEM.SOLV>
0

>  <SCORE.SYSTEM.norm>
0

>  <SCORE.heavy>
22

>  <SCORE.norm>
-0.515978

>  <RMSD>
14.453

$$$$
ligand
 OpenBabel11021811513D
libRbt.so/2013.1/901 2013/11/27
 22 23  0  0  0  0  0  0  0  0999 V2000
  -31.6950   10.0207  -23.5591 N   0  0  0  0  0  0  0  0  0  0  0  0
  -32.7738   10.3747  -20.3711 C   0  0  1  0  0  0  0  0  0  0  0  0
  -31.6953   10.5925  -21.3247 O   0  0  0  0  0  0  0  0  0  0  0  0
  -33.9278    7.4046  -18.3305 P   0  0  1  0  0  0  0  0  0  0  0  0
  -32.2830   10.8348  -22.6132 C   0  0  2  0  0  0  0  0  0  0  0  0
  -31.4122    8.8269  -25.3496 N   0  0  0  0  0  0  0  0  0  0  0  0
  -34.5111   11.0386  -23.4437 O   0  0  0  0  0  0  0  0  0  0  0  0
  -33.6840   10.3765  -22.4796 C   0  0  2  0  0  0  0  0  0  0  0  0
  -29.0380    7.2466  -26.1267 N   0  0  0  0  0  0  0  0  0  0  0  0
  -34.2351   12.1126  -20.9533 O   0  0  0  0  0  0  0  0  0  0  0  0
  -34.0207   10.6986  -21.0983 C   0  0  2  0  0  0  0  0  0  0  0  0
  -30.2548    8.8448  -24.6708 C   0  0  0  0  0  0  0  0  0  0  0  0
  -29.4419    9.8856  -22.5686 N   0  0  0  0  0  0  0  0  0  0  0  0
  -33.7918    8.7638  -19.1004 O   0  0  0  0  0  0  0  0  0  0  0  0
  -32.7279    8.9381  -19.9786 C   0  0  0  0  0  0  0  0  0  0  0  0
  -32.7188    7.4382  -17.3266 O   0  0  0  0  0  0  0  0  0  0  0  0
  -32.3072    9.5534  -24.6534 C   0  0  0  0  0  0  0  0  0  0  0  0
  -27.9543    8.3879  -24.4809 O   0  0  0  0  0  0  0  0  0  0  0  0
  -29.0098    8.1646  -25.0734 C   0  0  0  0  0  0  0  0  0  0  0  0
  -30.4242    9.5971  -23.5436 C   0  0  0  0  0  0  0  0  0  0  0  0
  -35.2700    7.3266  -17.6821 O   0  5  0  0  0  0  0  0  0  0  0  0
  -33.9898    6.2738  -19.2739 O   0  0  0  0  0  0  0  0  0  0  0  0
  1 17  1  0  0  0  0
  1 20  1  0  0  0  0
  2 15  1  6  0  0  0
  2  3  1  0  0  0  0
  2 11  1  0  0  0  0
  3  5  1  0  0  0  0
  4 16  1  1  0  0  0
  4 21  1  0  0  0  0
  4 22  2  0  0  0  0
  4 14  1  0  0  0  0
  5  1  1  6  0  0  0
  5  8  1  0  0  0  0
  6 17  2  0  0  0  0
  6 12  1  0  0  0  0
  8  7  1  6  0  0  0
  8 11  1  0  0  0  0
  9 19  1  0  0  0  0
 11 10  1  6  0  0  0
 12 20  2  0  0  0  0
 12 19  1  0  0  0  0
 13 20  1  0  0  0  0
 14 15  1  0  0  0  0
 18 19  2  0  0  0  0
M  CHG  1  21  -1
M  END
>  <CHROM.1>
149.81032958,-178.38328435,69.46602648,-171.64327019,-10.71903717,-32.30574308
9.09757377,-21.67966857,0.75379798,0.72031121,-0.81610920

>  <Name>
ligand

>  <RI>
0

>  <Rbt.Current_Directory>
/home/itssahil/PROJECTS/Mol_Feturizer/New_Systems/rnas/4XWF

>  <Rbt.Executable>
rbdock ($Id: //depot/dev/client3/rdock/2013.1/src/exe/rbdock.cxx#4 $)

>  <Rbt.Library>
libRbt.so (2013.1, Build901 2013/11/27)

>  <Rbt.Parameter_File>
/export/apps/rDock/src/rDock_2013.1_src/data/scripts/dock_solv.prm

>  <Rbt.Receptor>
prm/blind_docking_80.prm

>  <SCORE>
-10.1546

>  <SCORE.INTER>
-11.3195

>  <SCORE.INTER.CONST>
1

>  <SCORE.INTER.POLAR>
0

>  <SCORE.INTER.ROT>
5

>  <SCORE.INTER.SOLV>
26.0387

>  <SCORE.INTER.VDW>
-23.1592

>  <SCORE.INTER.norm>
-0.514521

>  <SCORE.INTRA>
1.16489

>  <SCORE.INTRA.DIHEDRAL>
-1.44506

>  <SCORE.INTRA.DIHEDRAL.0>
3.49807

>  <SCORE.INTRA.POLAR>
0

>  <SCORE.INTRA.POLAR.0>
0

>  <SCORE.INTRA.REPUL>
0

>  <SCORE.INTRA.REPUL.0>
0

>  <SCORE.INTRA.SOLV>
0.863547

>  <SCORE.INTRA.SOLV.lig_0>
-73.062

>  <SCORE.INTRA.VDW>
1.45565

>  <SCORE.INTRA.VDW.0>
-1.83782

>  <SCORE.INTRA.norm>
0.0529495

>  <SCORE.RESTR>
0

>  <SCORE.RESTR.CAVITY>
0

>  <SCORE.RESTR.norm>
0

>  <SCORE.SYSTEM>
0

>  <SCORE.SYSTEM.CONST>
0

>  <SCORE.SYSTEM.DIHEDRAL>
0

>  <SCORE.SYSTEM.SOLV>
0

>  <SCORE.SYSTEM.norm>
0

>  <SCORE.heavy>
22

>  <SCORE.norm>
-0.461571

>  <RMSD>
14.456

$$$$
ligand
 OpenBabel11021811513D
libRbt.so/2013.1/901 2013/11/27
 22 23  0  0  0  0  0  0  0  0999 V2000
  -36.4144   -5.3053  -18.0118 N   0  0  0  0  0  0  0  0  0  0  0  0
  -35.3386   -3.5970  -15.2958 C   0  0  1  0  0  0  0  0  0  0  0  0
  -35.0098   -4.1292  -16.6105 O   0  0  0  0  0  0  0  0  0  0  0  0
  -33.5350   -6.1999  -13.2153 P   0  0  1  0  0  0  0  0  0  0  0  0
  -36.1956   -4.0783  -17.4203 C   0  0  2  0  0  0  0  0  0  0  0  0
  -37.4161   -7.1065  -18.6924 N   0  0  0  0  0  0  0  0  0  0  0  0
  -38.4190   -3.2672  -17.1130 O   0  0  0  0  0  0  0  0  0  0  0  0
  -37.3006   -3.8755  -16.4566 C   0  0  2  0  0  0  0  0  0  0  0  0
  -35.3173   -7.9883  -21.3180 N   0  0  0  0  0  0  0  0  0  0  0  0
  -36.5653   -1.6889  -15.8864 O   0  0  0  0  0  0  0  0  0  0  0  0
  -36.7040   -3.0416  -15.4204 C   0  0  2  0  0  0  0  0  0  0  0  0
  -36.1528   -7.1335  -19.1442 C   0  0  0  0  0  0  0  0  0  0  0  0
  -34.1808   -5.6320  -19.0018 N   0  0  0  0  0  0  0  0  0  0  0  0
  -33.9477   -5.0045  -14.1423 O   0  0  0  0  0  0  0  0  0  0  0  0
  -35.2984   -4.7382  -14.3387 C   0  0  0  0  0  0  0  0  0  0  0  0
  -32.0066   -5.9415  -12.9553 O   0  0  0  0  0  0  0  0  0  0  0  0
  -37.5741   -5.9722  -17.9839 C   0  0  0  0  0  0  0  0  0  0  0  0
  -35.2710   -9.2932  -19.4523 O   0  0  0  0  0  0  0  0  0  0  0  0
  -35.5520   -8.2066  -19.9577 C   0  0  0  0  0  0  0  0  0  0  0  0
  -35.5166   -6.0010  -18.7222 C   0  0  0  0  0  0  0  0  0  0  0  0
  -34.3820   -6.1980  -11.9862 O   0  5  0  0  0  0  0  0  0  0  0  0
  -33.9066   -7.4882  -13.8276 O   0  0  0  0  0  0  0  0  0  0  0  0
  1 17  1  0  0  0  0
  1 20  1  0  0  0  0
  2 15  1  1  0  0  0
  2  3  1  0  0  0  0
  2 11  1  0  0  0  0
  3  5  1  0  0  0  0
  4 16  1  1  0  0  0
  4 21  1  0  0  0  0
  4 22  2  0  0  0  0
  4 14  1  0  0  0  0
  5  1  1  1  0  0  0
  5  8  1  0  0  0  0
  6 17  2  0  0  0  0
  6 12  1  0  0  0  0
  8  7  1  6  0  0  0
  8 11  1  0  0  0  0
  9 19  1  0  0  0  0
 11 10  1  6  0  0  0
 12 20  2  0  0  0  0
 12 19  1  0  0  0  0
 13 20  1  0  0  0  0
 14 15  1  0  0  0  0
 18 19  2  0  0  0  0
M  CHG  1  21  -1
M  END
>  <CHROM.1>
129.52923973,74.95859386,-165.87082554,-177.82456391,106.05232341,-35.38666532
-5.55777803,-16.38279914,2.11424401,0.89200302,-2.25333701

>  <Name>
ligand

>  <RI>
0

>  <Rbt.Current_Directory>
/home/itssahil/PROJECTS/Mol_Feturizer/New_Systems/rnas/4XWF

>  <Rbt.Executable>
rbdock ($Id: //depot/dev/client3/rdock/2013.1/src/exe/rbdock.cxx#4 $)

>  <Rbt.Library>
libRbt.so (2013.1, Build901 2013/11/27)

>  <Rbt.Parameter_File>
/export/apps/rDock/src/rDock_2013.1_src/data/scripts/dock_solv.prm

>  <Rbt.Receptor>
prm/blind_docking_80.prm

>  <SCORE>
-10.1774

>  <SCORE.INTER>
-11.9059

>  <SCORE.INTER.CONST>
1

>  <SCORE.INTER.POLAR>
0

>  <SCORE.INTER.ROT>
5

>  <SCORE.INTER.SOLV>
11.1257

>  <SCORE.INTER.VDW>
-18.5792

>  <SCORE.INTER.norm>
-0.541178

>  <SCORE.INTRA>
1.72852

>  <SCORE.INTRA.DIHEDRAL>
-0.744093

>  <SCORE.INTRA.DIHEDRAL.0>
3.49807

>  <SCORE.INTRA.POLAR>
0

>  <SCORE.INTRA.POLAR.0>
0

>  <SCORE.INTRA.REPUL>
0

>  <SCORE.INTRA.REPUL.0>
0

>  <SCORE.INTRA.SOLV>
0.372375

>  <SCORE.INTRA.SOLV.lig_0>
-73.062

>  <SCORE.INTRA.VDW>
1.91438

>  <SCORE.INTRA.VDW.0>
-1.83782

>  <SCORE.INTRA.norm>
0.0785692

>  <SCORE.RESTR>
0

>  <SCORE.RESTR.CAVITY>
0

>  <SCORE.RESTR.norm>
0

>  <SCORE.SYSTEM>
0

>  <SCORE.SYSTEM.CONST>
0

>  <SCORE.SYSTEM.DIHEDRAL>
0

>  <SCORE.SYSTEM.SOLV>
0

>  <SCORE.SYSTEM.norm>
0

>  <SCORE.heavy>
22

>  <SCORE.norm>
-0.462609

>  <RMSD>
14.499

$$$$
ligand
 OpenBabel11021811513D
libRbt.so/2013.1/901 2013/11/27
 22 23  0  0  0  0  0  0  0  0999 V2000
  -36.4449   -5.3094  -18.0356 N   0  0  0  0  0  0  0  0  0  0  0  0
  -35.4039   -3.5948  -15.3099 C   0  0  1  0  0  0  0  0  0  0  0  0
  -35.0655   -4.1101  -16.6289 O   0  0  0  0  0  0  0  0  0  0  0  0
  -33.5354   -6.1892  -13.2774 P   0  0  1  0  0  0  0  0  0  0  0  0
  -36.2538   -4.0817  -17.4360 C   0  0  2  0  0  0  0  0  0  0  0  0
  -37.4152   -7.1085  -18.7654 N   0  0  0  0  0  0  0  0  0  0  0  0
  -38.4950   -3.3253  -17.1188 O   0  0  0  0  0  0  0  0  0  0  0  0
  -37.3612   -3.9116  -16.4688 C   0  0  2  0  0  0  0  0  0  0  0  0
  -34.4384   -8.9449  -19.3562 N   0  0  0  0  0  0  0  0  0  0  0  0
  -36.6765   -1.7121  -15.8851 O   0  0  0  0  0  0  0  0  0  0  0  0
  -36.7823   -3.0709  -15.4280 C   0  0  2  0  0  0  0  0  0  0  0  0
  -36.1293   -7.1416  -19.1473 C   0  0  0  0  0  0  0  0  0  0  0  0
  -34.1619   -5.6476  -18.9010 N   0  0  0  0  0  0  0  0  0  0  0  0
  -33.9778   -4.9824  -14.1755 O   0  0  0  0  0  0  0  0  0  0  0  0
  -35.3348   -4.7413  -14.3609 C   0  0  0  0  0  0  0  0  0  0  0  0
  -33.8038   -7.4368  -14.1950 O   0  0  0  0  0  0  0  0  0  0  0  0
  -37.6071   -5.9717  -18.0695 C   0  0  0  0  0  0  0  0  0  0  0  0
  -35.8626   -8.4729  -21.0693 O   0  0  0  0  0  0  0  0  0  0  0  0
  -35.4892   -8.2194  -19.9241 C   0  0  0  0  0  0  0  0  0  0  0  0
  -35.5125   -6.0106  -18.6940 C   0  0  0  0  0  0  0  0  0  0  0  0
  -32.1105   -6.0153  -12.8686 O   0  5  0  0  0  0  0  0  0  0  0  0
  -34.2230   -6.1502  -11.9742 O   0  0  0  0  0  0  0  0  0  0  0  0
  1 17  1  0  0  0  0
  1 20  1  0  0  0  0
  2 15  1  1  0  0  0
  2  3  1  0  0  0  0
  2 11  1  0  0  0  0
  3  5  1  0  0  0  0
  4 16  1  6  0  0  0
  4 21  1  0  0  0  0
  4 22  2  0  0  0  0
  4 14  1  0  0  0  0
  5  1  1  1  0  0  0
  5  8  1  0  0  0  0
  6 17  2  0  0  0  0
  6 12  1  0  0  0  0
  8  7  1  6  0  0  0
  8 11  1  0  0  0  0
  9 19  1  0  0  0  0
 11 10  1  6  0  0  0
 12 20  2  0  0  0  0
 12 19  1  0  0  0  0
 13 20  1  0  0  0  0
 14 15  1  0  0  0  0
 18 19  2  0  0  0  0
M  CHG  1  21  -1
M  END
>  <CHROM.1>
133.18514575,74.59829060,75.18862290,-176.87545754,-117.88627499,-35.39394293
-5.56310355,-16.40326928,2.10428981,0.85285122,-2.23848519

>  <Name>
ligand

>  <RI>
0

>  <Rbt.Current_Directory>
/home/itssahil/PROJECTS/Mol_Feturizer/New_Systems/rnas/4XWF

>  <Rbt.Executable>
rbdock ($Id: //depot/dev/client3/rdock/2013.1/src/exe/rbdock.cxx#4 $)

>  <Rbt.Library>
libRbt.so (2013.1, Build901 2013/11/27)

>  <Rbt.Parameter_File>
/export/apps/rDock/src/rDock_2013.1_src/data/scripts/dock_solv.prm

>  <Rbt.Receptor>
prm/blind_docking_80.prm

>  <SCORE>
-8.32176

>  <SCORE.INTER>
-9.53101

>  <SCORE.INTER.CONST>
1

>  <SCORE.INTER.POLAR>
0

>  <SCORE.INTER.ROT>
5

>  <SCORE.INTER.SOLV>
15.6442

>  <SCORE.INTER.VDW>
-18.5021

>  <SCORE.INTER.norm>
-0.433228

>  <SCORE.INTRA>
1.20925

>  <SCORE.INTRA.DIHEDRAL>
-0.908268

>  <SCORE.INTRA.DIHEDRAL.0>
3.49807

>  <SCORE.INTRA.POLAR>
0

>  <SCORE.INTRA.POLAR.0>
0

>  <SCORE.INTRA.REPUL>
0

>  <SCORE.INTRA.REPUL.0>
0

>  <SCORE.INTRA.SOLV>
0.00350436

>  <SCORE.INTRA.SOLV.lig_0>
-73.062

>  <SCORE.INTRA.VDW>
1.66164

>  <SCORE.INTRA.VDW.0>
-1.83782

>  <SCORE.INTRA.norm>
0.0549661

>  <SCORE.RESTR>
0

>  <SCORE.RESTR.CAVITY>
0

>  <SCORE.RESTR.norm>
0

>  <SCORE.SYSTEM>
0

>  <SCORE.SYSTEM.CONST>
0

>  <SCORE.SYSTEM.DIHEDRAL>
0

>  <SCORE.SYSTEM.SOLV>
0

>  <SCORE.SYSTEM.norm>
0

>  <SCORE.heavy>
22

>  <SCORE.norm>
-0.378262

>  <RMSD>
14.509

$$$$
ligand
 OpenBabel11021811513D
libRbt.so/2013.1/901 2013/11/27
 22 23  0  0  0  0  0  0  0  0999 V2000
  -38.1420    2.6917  -21.1439 N   0  0  0  0  0  0  0  0  0  0  0  0
  -35.2003    1.0508  -20.8177 C   0  0  1  0  0  0  0  0  0  0  0  0
  -36.5274    1.0673  -21.4164 O   0  0  0  0  0  0  0  0  0  0  0  0
  -36.8642   -0.9769  -18.0911 P   0  0  1  0  0  0  0  0  0  0  0  0
  -36.8884    2.4365  -21.6602 C   0  0  2  0  0  0  0  0  0  0  0  0
  -39.8743    2.6354  -19.8374 N   0  0  0  0  0  0  0  0  0  0  0  0
  -35.8002    4.5442  -21.3972 O   0  0  0  0  0  0  0  0  0  0  0  0
  -35.9338    3.2268  -20.8509 C   0  0  2  0  0  0  0  0  0  0  0  0
  -41.2942    5.7070  -20.8026 N   0  0  0  0  0  0  0  0  0  0  0  0
  -34.0783    2.5849  -22.1896 O   0  0  0  0  0  0  0  0  0  0  0  0
  -34.7063    2.4424  -20.9044 C   0  0  2  0  0  0  0  0  0  0  0  0
  -40.1141    3.5249  -20.8131 C   0  0  0  0  0  0  0  0  0  0  0  0
  -38.8643    4.3931  -22.7746 N   0  0  0  0  0  0  0  0  0  0  0  0
  -36.2967   -0.4142  -19.4401 O   0  0  0  0  0  0  0  0  0  0  0  0
  -35.3640    0.6165  -19.4019 C   0  0  0  0  0  0  0  0  0  0  0  0
  -37.4258    0.3049  -17.3755 O   0  0  0  0  0  0  0  0  0  0  0  0
  -38.6505    2.1147  -20.0489 C   0  0  0  0  0  0  0  0  0  0  0  0
  -42.4168    3.7723  -21.2297 O   0  0  0  0  0  0  0  0  0  0  0  0
  -41.3459    4.3204  -20.9694 C   0  0  0  0  0  0  0  0  0  0  0  0
  -39.0265    3.5682  -21.6381 C   0  0  0  0  0  0  0  0  0  0  0  0
  -37.8867   -2.0265  -18.3751 O   0  5  0  0  0  0  0  0  0  0  0  0
  -35.8359   -1.7531  -17.3751 O   0  0  0  0  0  0  0  0  0  0  0  0
  1 17  1  0  0  0  0
  1 20  1  0  0  0  0
  2 15  1  1  0  0  0
  2  3  1  0  0  0  0
  2 11  1  0  0  0  0
  3  5  1  0  0  0  0
  4 16  1  1  0  0  0
  4 21  1  0  0  0  0
  4 22  2  0  0  0  0
  4 14  1  0  0  0  0
  5  1  1  1  0  0  0
  5  8  1  0  0  0  0
  6 17  2  0  0  0  0
  6 12  1  0  0  0  0
  8  7  1  6  0  0  0
  8 11  1  0  0  0  0
  9 19  1  0  0  0  0
 11 10  1  6  0  0  0
 12 20  2  0  0  0  0
 12 19  1  0  0  0  0
 13 20  1  0  0  0  0
 14 15  1  0  0  0  0
 18 19  2  0  0  0  0
M  CHG  1  21  -1
M  END
>  <CHROM.1>
32.64769858,41.38837737,55.02009006,-171.39820858,113.08652501,-37.56140563
1.83944089,-20.22452435,-2.20204235,-0.21463659,2.48134777

>  <Name>
ligand

>  <RI>
0

>  <Rbt.Current_Directory>
/home/itssahil/PROJECTS/Mol_Feturizer/New_Systems/rnas/4XWF

>  <Rbt.Executable>
rbdock ($Id: //depot/dev/client3/rdock/2013.1/src/exe/rbdock.cxx#4 $)

>  <Rbt.Library>
libRbt.so (2013.1, Build901 2013/11/27)

>  <Rbt.Parameter_File>
/export/apps/rDock/src/rDock_2013.1_src/data/scripts/dock_solv.prm

>  <Rbt.Receptor>
prm/blind_docking_80.prm

>  <SCORE>
-11.4173

>  <SCORE.INTER>
-10.7442

>  <SCORE.INTER.CONST>
1

>  <SCORE.INTER.POLAR>
0

>  <SCORE.INTER.ROT>
5

>  <SCORE.INTER.SOLV>
16.8647

>  <SCORE.INTER.VDW>
-19.7177

>  <SCORE.INTER.norm>
-0.488373

>  <SCORE.INTRA>
-0.673048

>  <SCORE.INTRA.DIHEDRAL>
-0.444956

>  <SCORE.INTRA.DIHEDRAL.0>
3.49807

>  <SCORE.INTRA.POLAR>
0

>  <SCORE.INTRA.POLAR.0>
0

>  <SCORE.INTRA.REPUL>
0

>  <SCORE.INTRA.REPUL.0>
0

>  <SCORE.INTRA.SOLV>
-0.0560215

>  <SCORE.INTRA.SOLV.lig_0>
-73.062

>  <SCORE.INTRA.VDW>
-0.422559

>  <SCORE.INTRA.VDW.0>
-1.83782

>  <SCORE.INTRA.norm>
-0.0305931

>  <SCORE.RESTR>
0

>  <SCORE.RESTR.CAVITY>
0

>  <SCORE.RESTR.norm>
0

>  <SCORE.SYSTEM>
0

>  <SCORE.SYSTEM.CONST>
0

>  <SCORE.SYSTEM.DIHEDRAL>
0

>  <SCORE.SYSTEM.SOLV>
0

>  <SCORE.SYSTEM.norm>
0

>  <SCORE.heavy>
22

>  <SCORE.norm>
-0.518966

>  <RMSD>
14.531

$$$$
ligand
 OpenBabel11021811513D
libRbt.so/2013.1/901 2013/11/27
 22 23  0  0  0  0  0  0  0  0999 V2000
  -35.8018    5.3533  -21.4677 N   0  0  0  0  0  0  0  0  0  0  0  0
  -38.3239    3.1628  -20.9258 C   0  0  1  0  0  0  0  0  0  0  0  0
  -37.6107    4.3419  -20.4555 O   0  0  0  0  0  0  0  0  0  0  0  0
  -36.7114    0.8012  -18.4464 P   0  0  1  0  0  0  0  0  0  0  0  0
  -37.1445    5.0675  -21.6046 C   0  0  2  0  0  0  0  0  0  0  0  0
  -33.6523    5.0917  -21.3180 N   0  0  0  0  0  0  0  0  0  0  0  0
  -37.3638    4.8139  -23.9675 O   0  0  0  0  0  0  0  0  0  0  0  0
  -37.2557    4.1078  -22.7259 C   0  0  2  0  0  0  0  0  0  0  0  0
  -32.8348    8.4576  -22.1706 N   0  0  0  0  0  0  0  0  0  0  0  0
  -39.6303    4.0906  -22.6366 O   0  0  0  0  0  0  0  0  0  0  0  0
  -38.4389    3.3246  -22.3917 C   0  0  2  0  0  0  0  0  0  0  0  0
  -33.9173    6.4068  -21.2895 C   0  0  0  0  0  0  0  0  0  0  0  0
  -35.9597    7.8126  -21.4163 N   0  0  0  0  0  0  0  0  0  0  0  0
  -37.6087    1.8499  -19.1906 O   0  0  0  0  0  0  0  0  0  0  0  0
  -37.4932    1.9780  -20.5705 C   0  0  0  0  0  0  0  0  0  0  0  0
  -35.2903    1.4727  -18.4572 O   0  0  0  0  0  0  0  0  0  0  0  0
  -34.8257    4.4391  -21.4227 C   0  0  0  0  0  0  0  0  0  0  0  0
  -32.1493    7.5233  -20.2103 O   0  0  0  0  0  0  0  0  0  0  0  0
  -32.9175    7.4843  -21.1712 C   0  0  0  0  0  0  0  0  0  0  0  0
  -35.2687    6.5796  -21.3864 C   0  0  0  0  0  0  0  0  0  0  0  0
  -37.2648    0.5431  -17.0845 O   0  5  0  0  0  0  0  0  0  0  0  0
  -36.8339   -0.5282  -19.0713 O   0  0  0  0  0  0  0  0  0  0  0  0
  1 17  1  0  0  0  0
  1 20  1  0  0  0  0
  2 15  1  6  0  0  0
  2  3  1  0  0  0  0
  2 11  1  0  0  0  0
  3  5  1  0  0  0  0
  4 16  1  1  0  0  0
  4 21  1  0  0  0  0
  4 22  2  0  0  0  0
  4 14  1  0  0  0  0
  5  1  1  1  0  0  0
  5  8  1  0  0  0  0
  6 17  2  0  0  0  0
  6 12  1  0  0  0  0
  8  7  1  6  0  0  0
  8 11  1  0  0  0  0
  9 19  1  0  0  0  0
 11 10  1  1  0  0  0
 12 20  2  0  0  0  0
 12 19  1  0  0  0  0
 13 20  1  0  0  0  0
 14 15  1  0  0  0  0
 18 19  2  0  0  0  0
M  CHG  1  21  -1
M  END
>  <CHROM.1>
64.63909757,72.14403092,74.18799032,-172.40726166,121.42771894,-36.19073113
3.99691743,-20.69629778,1.05022858,-0.52037147,-0.68784882

>  <Name>
ligand

>  <RI>
0

>  <Rbt.Current_Directory>
/home/itssahil/PROJECTS/Mol_Feturizer/New_Systems/rnas/4XWF

>  <Rbt.Executable>
rbdock ($Id: //depot/dev/client3/rdock/2013.1/src/exe/rbdock.cxx#4 $)

>  <Rbt.Library>
libRbt.so (2013.1, Build901 2013/11/27)

>  <Rbt.Parameter_File>
/export/apps/rDock/src/rDock_2013.1_src/data/scripts/dock_solv.prm

>  <Rbt.Receptor>
prm/blind_docking_60.prm

>  <SCORE>
-8.96969

>  <SCORE.INTER>
-8.08262

>  <SCORE.INTER.CONST>
1

>  <SCORE.INTER.POLAR>
0

>  <SCORE.INTER.ROT>
5

>  <SCORE.INTER.SOLV>
17.1642

>  <SCORE.INTER.VDW>
-18.0432

>  <SCORE.INTER.norm>
-0.367392

>  <SCORE.INTRA>
-0.887067

>  <SCORE.INTRA.DIHEDRAL>
-0.901105

>  <SCORE.INTRA.DIHEDRAL.0>
3.49807

>  <SCORE.INTRA.POLAR>
0

>  <SCORE.INTRA.POLAR.0>
0

>  <SCORE.INTRA.REPUL>
0

>  <SCORE.INTRA.REPUL.0>
0

>  <SCORE.INTRA.SOLV>
-0.882919

>  <SCORE.INTRA.SOLV.lig_0>
-73.062

>  <SCORE.INTRA.VDW>
0.00494474

>  <SCORE.INTRA.VDW.0>
-1.83782

>  <SCORE.INTRA.norm>
-0.0403212

>  <SCORE.RESTR>
0

>  <SCORE.RESTR.CAVITY>
0

>  <SCORE.RESTR.norm>
0

>  <SCORE.SYSTEM>
0

>  <SCORE.SYSTEM.CONST>
0

>  <SCORE.SYSTEM.DIHEDRAL>
0

>  <SCORE.SYSTEM.SOLV>
0

>  <SCORE.SYSTEM.norm>
0

>  <SCORE.heavy>
22

>  <SCORE.norm>
-0.407713

>  <RMSD>
14.536

$$$$
ligand
 OpenBabel11021811513D
libRbt.so/2013.1/901 2013/11/27
 22 23  0  0  0  0  0  0  0  0999 V2000
  -34.4134   -4.0606  -16.0748 N   0  0  0  0  0  0  0  0  0  0  0  0
  -34.8410   -4.7490  -19.3605 C   0  0  1  0  0  0  0  0  0  0  0  0
  -35.4120   -4.1740  -18.1508 O   0  0  0  0  0  0  0  0  0  0  0  0
  -34.5473   -8.2800  -20.7017 P   0  0  1  0  0  0  0  0  0  0  0  0
  -34.3401   -3.6112  -17.3771 C   0  0  2  0  0  0  0  0  0  0  0  0
  -34.1416   -4.1751  -13.9245 N   0  0  0  0  0  0  0  0  0  0  0  0
  -31.9878   -3.3518  -17.6853 O   0  0  0  0  0  0  0  0  0  0  0  0
  -33.1106   -4.1996  -17.9540 C   0  0  2  0  0  0  0  0  0  0  0  0
  -35.0862   -6.2758  -12.0752 N   0  0  0  0  0  0  0  0  0  0  0  0
  -33.3745   -3.0402  -20.0115 O   0  0  0  0  0  0  0  0  0  0  0  0
  -33.4233   -4.3267  -19.3722 C   0  0  2  0  0  0  0  0  0  0  0  0
  -34.9299   -5.1933  -14.3019 C   0  0  0  0  0  0  0  0  0  0  0  0
  -35.8902   -5.9992  -16.4448 N   0  0  0  0  0  0  0  0  0  0  0  0
  -34.4887   -6.7338  -20.4480 O   0  0  0  0  0  0  0  0  0  0  0  0
  -34.9692   -6.2289  -19.2447 C   0  0  0  0  0  0  0  0  0  0  0  0
  -36.0742   -8.5428  -20.9661 O   0  0  0  0  0  0  0  0  0  0  0  0
  -33.8171   -3.4764  -15.0290 C   0  0  0  0  0  0  0  0  0  0  0  0
  -36.3370   -7.0187  -13.8272 O   0  0  0  0  0  0  0  0  0  0  0  0
  -35.5053   -6.2145  -13.4070 C   0  0  0  0  0  0  0  0  0  0  0  0
  -35.1081   -5.1262  -15.6543 C   0  0  0  0  0  0  0  0  0  0  0  0
  -33.6506   -8.6366  -21.8404 O   0  5  0  0  0  0  0  0  0  0  0  0
  -33.9190   -9.0160  -19.5898 O   0  0  0  0  0  0  0  0  0  0  0  0
  1 17  1  0  0  0  0
  1 20  1  0  0  0  0
  2 15  1  1  0  0  0
  2  3  1  0  0  0  0
  2 11  1  0  0  0  0
  3  5  1  0  0  0  0
  4 16  1  6  0  0  0
  4 21  1  0  0  0  0
  4 22  2  0  0  0  0
  4 14  1  0  0  0  0
  5  1  1  1  0  0  0
  5  8  1  0  0  0  0
  6 17  2  0  0  0  0
  6 12  1  0  0  0  0
  8  7  1  6  0  0  0
  8 11  1  0  0  0  0
  9 19  1  0  0  0  0
 11 10  1  6  0  0  0
 12 20  2  0  0  0  0
 12 19  1  0  0  0  0
 13 20  1  0  0  0  0
 14 15  1  0  0  0  0
 18 19  2  0  0  0  0
M  CHG  1  21  -1
M  END
>  <CHROM.1>
-161.03292075,176.53356792,73.61014638,-176.81741880,-9.06888457,-34.51211594
-5.77107386,-17.73279465,-1.71885939,-1.15137944,-2.08170838

>  <Name>
ligand

>  <RI>
0

>  <Rbt.Current_Directory>
/home/itssahil/PROJECTS/Mol_Feturizer/New_Systems/rnas/4XWF

>  <Rbt.Executable>
rbdock ($Id: //depot/dev/client3/rdock/2013.1/src/exe/rbdock.cxx#4 $)

>  <Rbt.Library>
libRbt.so (2013.1, Build901 2013/11/27)

>  <Rbt.Parameter_File>
/export/apps/rDock/src/rDock_2013.1_src/data/scripts/dock_solv.prm

>  <Rbt.Receptor>
prm/blind_docking_60.prm

>  <SCORE>
-8.6939

>  <SCORE.INTER>
-10.0419

>  <SCORE.INTER.CONST>
1

>  <SCORE.INTER.POLAR>
0

>  <SCORE.INTER.ROT>
5

>  <SCORE.INTER.SOLV>
10.5807

>  <SCORE.INTER.VDW>
-17.1548

>  <SCORE.INTER.norm>
-0.45645

>  <SCORE.INTRA>
1.348

>  <SCORE.INTRA.DIHEDRAL>
-1.53529

>  <SCORE.INTRA.DIHEDRAL.0>
3.49807

>  <SCORE.INTRA.POLAR>
0

>  <SCORE.INTRA.POLAR.0>
0

>  <SCORE.INTRA.REPUL>
0

>  <SCORE.INTRA.REPUL.0>
0

>  <SCORE.INTRA.SOLV>
3.49728

>  <SCORE.INTRA.SOLV.lig_0>
-73.062

>  <SCORE.INTRA.VDW>
0.367

>  <SCORE.INTRA.VDW.0>
-1.83782

>  <SCORE.INTRA.norm>
0.0612725

>  <SCORE.RESTR>
0

>  <SCORE.RESTR.CAVITY>
0

>  <SCORE.RESTR.norm>
0

>  <SCORE.SYSTEM>
0

>  <SCORE.SYSTEM.CONST>
0

>  <SCORE.SYSTEM.DIHEDRAL>
0

>  <SCORE.SYSTEM.SOLV>
0

>  <SCORE.SYSTEM.norm>
0

>  <SCORE.heavy>
22

>  <SCORE.norm>
-0.395177

>  <RMSD>
14.558

$$$$
ligand
 OpenBabel11021811513D
libRbt.so/2013.1/901 2013/11/27
 22 23  0  0  0  0  0  0  0  0999 V2000
  -32.0073    9.2362  -23.1171 N   0  0  0  0  0  0  0  0  0  0  0  0
  -34.1282    7.9455  -20.8174 C   0  0  1  0  0  0  0  0  0  0  0  0
  -32.7977    8.4701  -21.0902 O   0  0  0  0  0  0  0  0  0  0  0  0
  -33.0967    4.3046  -20.7461 P   0  0  1  0  0  0  0  0  0  0  0  0
  -32.9166    9.4772  -22.1080 C   0  0  2  0  0  0  0  0  0  0  0  0
  -31.1762    8.8936  -25.0927 N   0  0  0  0  0  0  0  0  0  0  0  0
  -34.7307   10.4735  -23.2965 O   0  0  0  0  0  0  0  0  0  0  0  0
  -34.2586    9.2626  -22.6943 C   0  0  2  0  0  0  0  0  0  0  0  0
  -27.7756    9.4548  -23.7856 N   0  0  0  0  0  0  0  0  0  0  0  0
  -35.3699    9.9304  -20.7027 O   0  0  0  0  0  0  0  0  0  0  0  0
  -35.0617    8.8194  -21.5612 C   0  0  2  0  0  0  0  0  0  0  0  0
  -30.1633    8.9352  -24.2135 C   0  0  0  0  0  0  0  0  0  0  0  0
  -29.9466    9.2868  -21.7654 N   0  0  0  0  0  0  0  0  0  0  0  0
  -33.2083    5.8606  -20.5879 O   0  0  0  0  0  0  0  0  0  0  0  0
  -34.1616    6.5475  -21.3315 C   0  0  0  0  0  0  0  0  0  0  0  0
  -33.1248    4.0992  -22.3041 O   0  0  0  0  0  0  0  0  0  0  0  0
  -32.3214    9.0749  -24.4077 C   0  0  0  0  0  0  0  0  0  0  0  0
  -28.3828    8.0495  -25.4715 O   0  0  0  0  0  0  0  0  0  0  0  0
  -28.7342    8.7705  -24.5378 C   0  0  0  0  0  0  0  0  0  0  0  0
  -30.6785    9.1536  -22.9676 C   0  0  0  0  0  0  0  0  0  0  0  0
  -31.8523    3.8198  -20.0793 O   0  5  0  0  0  0  0  0  0  0  0  0
  -34.1387    3.6232  -19.9571 O   0  0  0  0  0  0  0  0  0  0  0  0
  1 17  1  0  0  0  0
  1 20  1  0  0  0  0
  2 15  1  6  0  0  0
  2  3  1  0  0  0  0
  2 11  1  0  0  0  0
  3  5  1  0  0  0  0
  4 16  1  6  0  0  0
  4 21  1  0  0  0  0
  4 22  2  0  0  0  0
  4 14  1  0  0  0  0
  5  1  1  6  0  0  0
  5  8  1  0  0  0  0
  6 17  2  0  0  0  0
  6 12  1  0  0  0  0
  8  7  1  1  0  0  0
  8 11  1  0  0  0  0
  9 19  1  0  0  0  0
 11 10  1  1  0  0  0
 12 20  2  0  0  0  0
 12 19  1  0  0  0  0
 13 20  1  0  0  0  0
 14 15  1  0  0  0  0
 18 19  2  0  0  0  0
M  CHG  1  21  -1
M  END
>  <CHROM.1>
123.27753333,62.49636995,46.26002191,172.57687717,147.84702554,-32.37129343
7.60959848,-22.24076774,0.90912340,0.44384130,-0.37448133

>  <Name>
ligand

>  <RI>
0

>  <Rbt.Current_Directory>
/home/itssahil/PROJECTS/Mol_Feturizer/New_Systems/rnas/4XWF

>  <Rbt.Executable>
rbdock ($Id: //depot/dev/client3/rdock/2013.1/src/exe/rbdock.cxx#4 $)

>  <Rbt.Library>
libRbt.so (2013.1, Build901 2013/11/27)

>  <Rbt.Parameter_File>
/export/apps/rDock/src/rDock_2013.1_src/data/scripts/dock_solv.prm

>  <Rbt.Receptor>
prm/blind_docking_100.prm

>  <SCORE>
-8.80353

>  <SCORE.INTER>
-10.6991

>  <SCORE.INTER.CONST>
1

>  <SCORE.INTER.POLAR>
0

>  <SCORE.INTER.ROT>
5

>  <SCORE.INTER.SOLV>
20.1778

>  <SCORE.INTER.VDW>
-20.792

>  <SCORE.INTER.norm>
-0.486321

>  <SCORE.INTRA>
1.89554

>  <SCORE.INTRA.DIHEDRAL>
-0.590546

>  <SCORE.INTRA.DIHEDRAL.0>
3.49807

>  <SCORE.INTRA.POLAR>
0

>  <SCORE.INTRA.POLAR.0>
0

>  <SCORE.INTRA.REPUL>
0

>  <SCORE.INTRA.REPUL.0>
0

>  <SCORE.INTRA.SOLV>
-0.299615

>  <SCORE.INTRA.SOLV.lig_0>
-73.062

>  <SCORE.INTRA.VDW>
2.34062

>  <SCORE.INTRA.VDW.0>
-1.83782

>  <SCORE.INTRA.norm>
0.0861609

>  <SCORE.RESTR>
0

>  <SCORE.RESTR.CAVITY>
0

>  <SCORE.RESTR.norm>
0

>  <SCORE.SYSTEM>
0

>  <SCORE.SYSTEM.CONST>
0

>  <SCORE.SYSTEM.DIHEDRAL>
0

>  <SCORE.SYSTEM.SOLV>
0

>  <SCORE.SYSTEM.norm>
0

>  <SCORE.heavy>
22

>  <SCORE.norm>
-0.400161

>  <RMSD>
14.568

$$$$
ligand
 OpenBabel11021811513D
libRbt.so/2013.1/901 2013/11/27
 22 23  0  0  0  0  0  0  0  0999 V2000
  -37.7646    3.9466  -21.8792 N   0  0  0  0  0  0  0  0  0  0  0  0
  -34.4290    3.4038  -22.0576 C   0  0  1  0  0  0  0  0  0  0  0  0
  -35.6859    3.5205  -22.7832 O   0  0  0  0  0  0  0  0  0  0  0  0
  -35.7690    0.8222  -19.6596 P   0  0  1  0  0  0  0  0  0  0  0  0
  -36.5093    4.4764  -22.0957 C   0  0  2  0  0  0  0  0  0  0  0  0
  -39.3466    2.6362  -21.1784 N   0  0  0  0  0  0  0  0  0  0  0  0
  -36.2288    5.8919  -20.1948 O   0  0  0  0  0  0  0  0  0  0  0  0
  -35.8819    4.6237  -20.7633 C   0  0  2  0  0  0  0  0  0  0  0  0
  -41.8614    3.9381  -23.3406 N   0  0  0  0  0  0  0  0  0  0  0  0
  -33.9397    5.6610  -21.6571 O   0  0  0  0  0  0  0  0  0  0  0  0
  -34.4578    4.4729  -21.0355 C   0  0  2  0  0  0  0  0  0  0  0  0
  -39.9118    3.6633  -21.8314 C   0  0  0  0  0  0  0  0  0  0  0  0
  -39.0934    5.7033  -22.9855 N   0  0  0  0  0  0  0  0  0  0  0  0
  -35.6073    1.9505  -20.7364 O   0  0  0  0  0  0  0  0  0  0  0  0
  -34.4079    2.0513  -21.4329 C   0  0  0  0  0  0  0  0  0  0  0  0
  -35.1562    1.4705  -18.3655 O   0  0  0  0  0  0  0  0  0  0  0  0
  -38.0119    2.8117  -21.2149 C   0  0  0  0  0  0  0  0  0  0  0  0
  -42.1198    3.9711  -21.0784 O   0  0  0  0  0  0  0  0  0  0  0  0
  -41.3584    3.8603  -22.0391 C   0  0  0  0  0  0  0  0  0  0  0  0
  -38.9220    4.4944  -22.2730 C   0  0  0  0  0  0  0  0  0  0  0  0
  -37.2078    0.4432  -19.5413 O   0  5  0  0  0  0  0  0  0  0  0  0
  -35.1695   -0.4393  -20.1307 O   0  0  0  0  0  0  0  0  0  0  0  0
  1 17  1  0  0  0  0
  1 20  1  0  0  0  0
  2 15  1  1  0  0  0
  2  3  1  0  0  0  0
  2 11  1  0  0  0  0
  3  5  1  0  0  0  0
  4 16  1  1  0  0  0
  4 21  1  0  0  0  0
  4 22  2  0  0  0  0
  4 14  1  0  0  0  0
  5  1  1  1  0  0  0
  5  8  1  0  0  0  0
  6 17  2  0  0  0  0
  6 12  1  0  0  0  0
  8  7  1  6  0  0  0
  8 11  1  0  0  0  0
  9 19  1  0  0  0  0
 11 10  1  6  0  0  0
 12 20  2  0  0  0  0
 12 19  1  0  0  0  0
 13 20  1  0  0  0  0
 14 15  1  0  0  0  0
 18 19  2  0  0  0  0
M  CHG  1  21  -1
M  END
>  <CHROM.1>
57.36596535,-52.08367661,85.64906056,-164.22656045,-120.64122580,-37.07106629
3.16010500,-21.15043863,-2.67560130,0.12105297,2.68577091

>  <Name>
ligand

>  <RI>
0

>  <Rbt.Current_Directory>
/home/itssahil/PROJECTS/Mol_Feturizer/New_Systems/rnas/4XWF

>  <Rbt.Executable>
rbdock ($Id: //depot/dev/client3/rdock/2013.1/src/exe/rbdock.cxx#4 $)

>  <Rbt.Library>
libRbt.so (2013.1, Build901 2013/11/27)

>  <Rbt.Parameter_File>
/export/apps/rDock/src/rDock_2013.1_src/data/scripts/dock_solv.prm

>  <Rbt.Receptor>
prm/blind_docking_80.prm

>  <SCORE>
-8.78004

>  <SCORE.INTER>
-10.0951

>  <SCORE.INTER.CONST>
1

>  <SCORE.INTER.POLAR>
0

>  <SCORE.INTER.ROT>
5

>  <SCORE.INTER.SOLV>
12.864

>  <SCORE.INTER.VDW>
-17.9514

>  <SCORE.INTER.norm>
-0.458868

>  <SCORE.INTRA>
1.31505

>  <SCORE.INTRA.DIHEDRAL>
0.243149

>  <SCORE.INTRA.DIHEDRAL.0>
3.49807

>  <SCORE.INTRA.POLAR>
0

>  <SCORE.INTRA.POLAR.0>
0

>  <SCORE.INTRA.REPUL>
0

>  <SCORE.INTRA.REPUL.0>
0

>  <SCORE.INTRA.SOLV>
1.07161

>  <SCORE.INTRA.SOLV.lig_0>
-73.062

>  <SCORE.INTRA.VDW>
0.657666

>  <SCORE.INTRA.VDW.0>
-1.83782

>  <SCORE.INTRA.norm>
0.0597748

>  <SCORE.RESTR>
0

>  <SCORE.RESTR.CAVITY>
0

>  <SCORE.RESTR.norm>
0

>  <SCORE.SYSTEM>
0

>  <SCORE.SYSTEM.CONST>
0

>  <SCORE.SYSTEM.DIHEDRAL>
0

>  <SCORE.SYSTEM.SOLV>
0

>  <SCORE.SYSTEM.norm>
0

>  <SCORE.heavy>
22

>  <SCORE.norm>
-0.399093

>  <RMSD>
14.637

$$$$
ligand
 OpenBabel11021811513D
libRbt.so/2013.1/901 2013/11/27
 22 23  0  0  0  0  0  0  0  0999 V2000
  -36.8285    6.7750  -21.1611 N   0  0  0  0  0  0  0  0  0  0  0  0
  -37.7106    3.5836  -21.8610 C   0  0  1  0  0  0  0  0  0  0  0  0
  -37.7475    4.6758  -20.8989 O   0  0  0  0  0  0  0  0  0  0  0  0
  -33.9284    3.7615  -21.7130 P   0  0  1  0  0  0  0  0  0  0  0  0
  -37.7968    5.9115  -21.6303 C   0  0  2  0  0  0  0  0  0  0  0  0
  -35.0888    7.5303  -20.1057 N   0  0  0  0  0  0  0  0  0  0  0  0
  -37.9217    6.5060  -23.9383 O   0  0  0  0  0  0  0  0  0  0  0  0
  -37.4006    5.5482  -23.0093 C   0  0  2  0  0  0  0  0  0  0  0  0
  -35.6803   10.9140  -20.1555 N   0  0  0  0  0  0  0  0  0  0  0  0
  -39.3700    4.2678  -23.3687 O   0  0  0  0  0  0  0  0  0  0  0  0
  -37.9460    4.2074  -23.1816 C   0  0  2  0  0  0  0  0  0  0  0  0
  -35.6009    8.5306  -20.8390 C   0  0  0  0  0  0  0  0  0  0  0  0
  -37.5082    8.7904  -22.4069 N   0  0  0  0  0  0  0  0  0  0  0  0
  -35.4690    4.0463  -21.7759 O   0  0  0  0  0  0  0  0  0  0  0  0
  -36.3538    2.9735  -21.7791 C   0  0  0  0  0  0  0  0  0  0  0  0
  -33.6109    3.1872  -23.1413 O   0  0  0  0  0  0  0  0  0  0  0  0
  -35.8573    6.4421  -20.3030 C   0  0  0  0  0  0  0  0  0  0  0  0
  -34.1136   10.1724  -21.6324 O   0  0  0  0  0  0  0  0  0  0  0  0
  -35.0725    9.9056  -20.9082 C   0  0  0  0  0  0  0  0  0  0  0  0
  -36.6949    8.0618  -21.5089 C   0  0  0  0  0  0  0  0  0  0  0  0
  -33.1986    5.0185  -21.3740 O   0  5  0  0  0  0  0  0  0  0  0  0
  -33.6015    2.9093  -20.5556 O   0  0  0  0  0  0  0  0  0  0  0  0
  1 17  1  0  0  0  0
  1 20  1  0  0  0  0
  2 15  1  6  0  0  0
  2  3  1  0  0  0  0
  2 11  1  0  0  0  0
  3  5  1  0  0  0  0
  4 16  1  6  0  0  0
  4 21  1  0  0  0  0
  4 22  2  0  0  0  0
  4 14  1  0  0  0  0
  5  1  1  1  0  0  0
  5  8  1  0  0  0  0
  6 17  2  0  0  0  0
  6 12  1  0  0  0  0
  8  7  1  6  0  0  0
  8 11  1  0  0  0  0
  9 19  1  0  0  0  0
 11 10  1  1  0  0  0
 12 20  2  0  0  0  0
 12 19  1  0  0  0  0
 13 20  1  0  0  0  0
 14 15  1  0  0  0  0
 18 19  2  0  0  0  0
M  CHG  1  21  -1
M  END
>  <CHROM.1>
9.60338184,-45.90266417,71.77634548,-179.32520601,-99.98043982,-35.96580364
5.87391548,-21.72386802,1.58061757,-0.31727430,0.16653931

>  <Name>
ligand

>  <RI>
0

>  <Rbt.Current_Directory>
/home/itssahil/PROJECTS/Mol_Feturizer/New_Systems/rnas/4XWF

>  <Rbt.Executable>
rbdock ($Id: //depot/dev/client3/rdock/2013.1/src/exe/rbdock.cxx#4 $)

>  <Rbt.Library>
libRbt.so (2013.1, Build901 2013/11/27)

>  <Rbt.Parameter_File>
/export/apps/rDock/src/rDock_2013.1_src/data/scripts/dock_solv.prm

>  <Rbt.Receptor>
prm/blind_docking_60.prm

>  <SCORE>
-8.55011

>  <SCORE.INTER>
-9.0988

>  <SCORE.INTER.CONST>
1

>  <SCORE.INTER.POLAR>
0

>  <SCORE.INTER.ROT>
5

>  <SCORE.INTER.SOLV>
11.2931

>  <SCORE.INTER.VDW>
-16.7636

>  <SCORE.INTER.norm>
-0.413582

>  <SCORE.INTRA>
0.548556

>  <SCORE.INTRA.DIHEDRAL>
-0.695957

>  <SCORE.INTRA.DIHEDRAL.0>
3.49807

>  <SCORE.INTRA.POLAR>
0

>  <SCORE.INTRA.POLAR.0>
0

>  <SCORE.INTRA.REPUL>
0

>  <SCORE.INTRA.REPUL.0>
0

>  <SCORE.INTRA.SOLV>
2.41698

>  <SCORE.INTRA.SOLV.lig_0>
-73.062

>  <SCORE.INTRA.VDW>
-0.311954

>  <SCORE.INTRA.VDW.0>
-1.83782

>  <SCORE.INTRA.norm>
0.0249343

>  <SCORE.RESTR>
0.000129263

>  <SCORE.RESTR.CAVITY>
0.000129263

>  <SCORE.RESTR.norm>
5.87558e-06

>  <SCORE.SYSTEM>
0

>  <SCORE.SYSTEM.CONST>
0

>  <SCORE.SYSTEM.DIHEDRAL>
0

>  <SCORE.SYSTEM.SOLV>
0

>  <SCORE.SYSTEM.norm>
0

>  <SCORE.heavy>
22

>  <SCORE.norm>
-0.388642

>  <RMSD>
14.780

$$$$
ligand
 OpenBabel11021811513D
libRbt.so/2013.1/901 2013/11/27
 22 23  0  0  0  0  0  0  0  0999 V2000
  -35.4125   -1.5299  -18.5485 N   0  0  0  0  0  0  0  0  0  0  0  0
  -35.7347   -4.7578  -17.5843 C   0  0  1  0  0  0  0  0  0  0  0  0
  -35.0583   -3.4852  -17.3775 O   0  0  0  0  0  0  0  0  0  0  0  0
  -34.8900   -7.7520  -19.7247 P   0  0  1  0  0  0  0  0  0  0  0  0
  -35.9887   -2.4327  -17.6789 C   0  0  2  0  0  0  0  0  0  0  0  0
  -34.1424   -0.6977  -20.0994 N   0  0  0  0  0  0  0  0  0  0  0  0
  -38.2881   -2.3389  -18.3112 O   0  0  0  0  0  0  0  0  0  0  0  0
  -37.0787   -3.0975  -18.4277 C   0  0  2  0  0  0  0  0  0  0  0  0
  -34.3089    2.6507  -19.4864 N   0  0  0  0  0  0  0  0  0  0  0  0
  -37.7875   -4.3425  -16.5318 O   0  0  0  0  0  0  0  0  0  0  0  0
  -37.1555   -4.4205  -17.8205 C   0  0  2  0  0  0  0  0  0  0  0  0
  -34.9720    0.2676  -19.6744 C   0  0  0  0  0  0  0  0  0  0  0  0
  -36.8044    0.4311  -18.0073 N   0  0  0  0  0  0  0  0  0  0  0  0
  -35.5750   -6.7052  -18.7793 O   0  0  0  0  0  0  0  0  0  0  0  0
  -35.1173   -5.3921  -18.7829 C   0  0  0  0  0  0  0  0  0  0  0  0
  -35.3255   -7.2794  -21.1590 O   0  0  0  0  0  0  0  0  0  0  0  0
  -34.4142   -1.8120  -19.3937 C   0  0  0  0  0  0  0  0  0  0  0  0
  -35.6562    1.9418  -21.1798 O   0  0  0  0  0  0  0  0  0  0  0  0
  -35.0071    1.6545  -20.1743 C   0  0  0  0  0  0  0  0  0  0  0  0
  -35.7770   -0.2497  -18.6999 C   0  0  0  0  0  0  0  0  0  0  0  0
  -33.4155   -7.7495  -19.4922 O   0  5  0  0  0  0  0  0  0  0  0  0
  -35.2485   -9.1260  -19.3294 O   0  0  0  0  0  0  0  0  0  0  0  0
  1 17  1  0  0  0  0
  1 20  1  0  0  0  0
  2 15  1  6  0  0  0
  2  3  1  0  0  0  0
  2 11  1  0  0  0  0
  3  5  1  0  0  0  0
  4 16  1  6  0  0  0
  4 21  1  0  0  0  0
  4 22  2  0  0  0  0
  4 14  1  0  0  0  0
  5  1  1  6  0  0  0
  5  8  1  0  0  0  0
  6 17  2  0  0  0  0
  6 12  1  0  0  0  0
  8  7  1  1  0  0  0
  8 11  1  0  0  0  0
  9 19  1  0  0  0  0
 11 10  1  1  0  0  0
 12 20  2  0  0  0  0
 12 19  1  0  0  0  0
 13 20  1  0  0  0  0
 14 15  1  0  0  0  0
 18 19  2  0  0  0  0
M  CHG  1  21  -1
M  END
>  <CHROM.1>
24.79307959,167.57528011,-68.95088651,-167.12114297,-95.89899745,-35.57382431
-3.40971320,-18.96609331,1.62322571,0.78436407,-0.05517719

>  <Name>
ligand

>  <RI>
0

>  <Rbt.Current_Directory>
/home/itssahil/PROJECTS/Mol_Feturizer/New_Systems/rnas/4XWF

>  <Rbt.Executable>
rbdock ($Id: //depot/dev/client3/rdock/2013.1/src/exe/rbdock.cxx#4 $)

>  <Rbt.Library>
libRbt.so (2013.1, Build901 2013/11/27)

>  <Rbt.Parameter_File>
/export/apps/rDock/src/rDock_2013.1_src/data/scripts/dock_solv.prm

>  <Rbt.Receptor>
prm/blind_docking_60.prm

>  <SCORE>
-7.39659

>  <SCORE.INTER>
-7.26782

>  <SCORE.INTER.CONST>
1

>  <SCORE.INTER.POLAR>
0

>  <SCORE.INTER.ROT>
5

>  <SCORE.INTER.SOLV>
15.2078

>  <SCORE.INTER.VDW>
-16.8478

>  <SCORE.INTER.norm>
-0.330355

>  <SCORE.INTRA>
-0.128773

>  <SCORE.INTRA.DIHEDRAL>
0.0376208

>  <SCORE.INTRA.DIHEDRAL.0>
3.49807

>  <SCORE.INTRA.POLAR>
0

>  <SCORE.INTRA.POLAR.0>
0

>  <SCORE.INTRA.REPUL>
0

>  <SCORE.INTRA.REPUL.0>
0

>  <SCORE.INTRA.SOLV>
0.254314

>  <SCORE.INTRA.SOLV.lig_0>
-73.062

>  <SCORE.INTRA.VDW>
-0.274741

>  <SCORE.INTRA.VDW.0>
-1.83782

>  <SCORE.INTRA.norm>
-0.00585334

>  <SCORE.RESTR>
0

>  <SCORE.RESTR.CAVITY>
0

>  <SCORE.RESTR.norm>
0

>  <SCORE.SYSTEM>
0

>  <SCORE.SYSTEM.CONST>
0

>  <SCORE.SYSTEM.DIHEDRAL>
0

>  <SCORE.SYSTEM.SOLV>
0

>  <SCORE.SYSTEM.norm>
0

>  <SCORE.heavy>
22

>  <SCORE.norm>
-0.336209

>  <RMSD>
14.860

$$$$
ligand
 OpenBabel11021811513D
libRbt.so/2013.1/901 2013/11/27
 22 23  0  0  0  0  0  0  0  0999 V2000
  -35.1349    4.9931  -20.6278 N   0  0  0  0  0  0  0  0  0  0  0  0
  -37.0494    3.3856  -22.9088 C   0  0  1  0  0  0  0  0  0  0  0  0
  -35.7924    4.0675  -22.6355 O   0  0  0  0  0  0  0  0  0  0  0  0
  -40.4848    4.6009  -23.9449 P   0  0  1  0  0  0  0  0  0  0  0  0
  -35.4339    3.8085  -21.2685 C   0  0  2  0  0  0  0  0  0  0  0  0
  -35.3367    6.9974  -19.8196 N   0  0  0  0  0  0  0  0  0  0  0  0
  -36.3559    2.5007  -19.4977 O   0  0  0  0  0  0  0  0  0  0  0  0
  -36.6750    3.2972  -20.6447 C   0  0  2  0  0  0  0  0  0  0  0  0
  -31.8985    7.5882  -19.2695 N   0  0  0  0  0  0  0  0  0  0  0  0
  -36.6408    1.2968  -21.9269 O   0  0  0  0  0  0  0  0  0  0  0  0
  -37.3161    2.5485  -21.7187 C   0  0  2  0  0  0  0  0  0  0  0  0
  -34.1305    6.5242  -19.4703 C   0  0  0  0  0  0  0  0  0  0  0  0
  -32.8847    4.4042  -19.8120 N   0  0  0  0  0  0  0  0  0  0  0  0
  -39.2086    3.7712  -23.5689 O   0  0  0  0  0  0  0  0  0  0  0  0
  -38.0901    4.4380  -23.0808 C   0  0  0  0  0  0  0  0  0  0  0  0
  -41.3647    3.5670  -24.7370 O   0  0  0  0  0  0  0  0  0  0  0  0
  -35.9563    6.0461  -20.5440 C   0  0  0  0  0  0  0  0  0  0  0  0
  -33.3334    7.5378  -17.5019 O   0  0  0  0  0  0  0  0  0  0  0  0
  -33.1182    7.2473  -18.6785 C   0  0  0  0  0  0  0  0  0  0  0  0
  -33.9973    5.2614  -19.9730 C   0  0  0  0  0  0  0  0  0  0  0  0
  -41.1208    5.1342  -22.7043 O   0  5  0  0  0  0  0  0  0  0  0  0
  -40.1125    5.8444  -24.6433 O   0  0  0  0  0  0  0  0  0  0  0  0
  1 17  1  0  0  0  0
  1 20  1  0  0  0  0
  2 15  1  1  0  0  0
  2  3  1  0  0  0  0
  2 11  1  0  0  0  0
  3  5  1  0  0  0  0
  4 16  1  6  0  0  0
  4 21  1  0  0  0  0
  4 22  2  0  0  0  0
  4 14  1  0  0  0  0
  5  1  1  1  0  0  0
  5  8  1  0  0  0  0
  6 17  2  0  0  0  0
  6 12  1  0  0  0  0
  8  7  1  1  0  0  0
  8 11  1  0  0  0  0
  9 19  1  0  0  0  0
 11 10  1  6  0  0  0
 12 20  2  0  0  0  0
 12 19  1  0  0  0  0
 13 20  1  0  0  0  0
 14 15  1  0  0  0  0
 18 19  2  0  0  0  0
M  CHG  1  21  -1
M  END
>  <CHROM.1>
56.06366733,169.77725638,167.67493747,-176.57944106,-115.22200145,-36.76308496
4.71271761,-21.52933654,-0.32104147,0.58683506,-3.02279219

>  <Name>
ligand

>  <RI>
0

>  <Rbt.Current_Directory>
/home/itssahil/PROJECTS/Mol_Feturizer/New_Systems/rnas/4XWF

>  <Rbt.Executable>
rbdock ($Id: //depot/dev/client3/rdock/2013.1/src/exe/rbdock.cxx#4 $)

>  <Rbt.Library>
libRbt.so (2013.1, Build901 2013/11/27)

>  <Rbt.Parameter_File>
/export/apps/rDock/src/rDock_2013.1_src/data/scripts/dock_solv.prm

>  <Rbt.Receptor>
prm/blind_docking_80.prm

>  <SCORE>
-7.50019

>  <SCORE.INTER>
-6.8765

>  <SCORE.INTER.CONST>
1

>  <SCORE.INTER.POLAR>
0

>  <SCORE.INTER.ROT>
5

>  <SCORE.INTER.SOLV>
9.99181

>  <SCORE.INTER.VDW>
-14.8483

>  <SCORE.INTER.norm>
-0.312568

>  <SCORE.INTRA>
-0.623695

>  <SCORE.INTRA.DIHEDRAL>
-1.26791

>  <SCORE.INTRA.DIHEDRAL.0>
3.49807

>  <SCORE.INTRA.POLAR>
0

>  <SCORE.INTRA.POLAR.0>
0

>  <SCORE.INTRA.REPUL>
0

>  <SCORE.INTRA.REPUL.0>
0

>  <SCORE.INTRA.SOLV>
-0.104551

>  <SCORE.INTRA.SOLV.lig_0>
-73.062

>  <SCORE.INTRA.VDW>
0.0625345

>  <SCORE.INTRA.VDW.0>
-1.83782

>  <SCORE.INTRA.norm>
-0.0283498

>  <SCORE.RESTR>
0

>  <SCORE.RESTR.CAVITY>
0

>  <SCORE.RESTR.norm>
0

>  <SCORE.SYSTEM>
0

>  <SCORE.SYSTEM.CONST>
0

>  <SCORE.SYSTEM.DIHEDRAL>
0

>  <SCORE.SYSTEM.SOLV>
0

>  <SCORE.SYSTEM.norm>
0

>  <SCORE.heavy>
22

>  <SCORE.norm>
-0.340918

>  <RMSD>
15.097

$$$$
ligand
 OpenBabel11021811513D
libRbt.so/2013.1/901 2013/11/27
 22 23  0  0  0  0  0  0  0  0999 V2000
  -37.1242    6.9259  -21.6190 N   0  0  0  0  0  0  0  0  0  0  0  0
  -37.6645    3.6067  -21.9977 C   0  0  1  0  0  0  0  0  0  0  0  0
  -37.7502    4.7634  -21.1176 O   0  0  0  0  0  0  0  0  0  0  0  0
  -34.5710    2.1423  -20.3719 P   0  0  1  0  0  0  0  0  0  0  0  0
  -38.0163    5.9199  -21.9276 C   0  0  2  0  0  0  0  0  0  0  0  0
  -35.3350    7.9424  -20.9284 N   0  0  0  0  0  0  0  0  0  0  0  0
  -38.4178    6.3019  -24.2490 O   0  0  0  0  0  0  0  0  0  0  0  0
  -37.7022    5.4917  -23.3092 C   0  0  2  0  0  0  0  0  0  0  0  0
  -34.8275   10.8524  -20.8098 N   0  0  0  0  0  0  0  0  0  0  0  0
  -39.5227    3.9659  -23.3806 O   0  0  0  0  0  0  0  0  0  0  0  0
  -38.0912    4.0869  -23.3302 C   0  0  2  0  0  0  0  0  0  0  0  0
  -36.1709    8.8624  -21.4339 C   0  0  0  0  0  0  0  0  0  0  0  0
  -38.4158    8.8344  -22.4937 N   0  0  0  0  0  0  0  0  0  0  0  0
  -35.9873    2.7224  -20.7127 O   0  0  0  0  0  0  0  0  0  0  0  0
  -36.2409    3.1671  -22.0056 C   0  0  0  0  0  0  0  0  0  0  0  0
  -34.4250    0.9399  -21.3736 O   0  0  0  0  0  0  0  0  0  0  0  0
  -35.9325    6.7406  -21.0392 C   0  0  0  0  0  0  0  0  0  0  0  0
  -36.6597   11.0509  -22.1474 O   0  0  0  0  0  0  0  0  0  0  0  0
  -35.9156   10.3133  -21.5014 C   0  0  0  0  0  0  0  0  0  0  0  0
  -37.2985    8.2296  -21.8736 C   0  0  0  0  0  0  0  0  0  0  0  0
  -33.5397    3.2096  -20.5300 O   0  5  0  0  0  0  0  0  0  0  0  0
  -34.4632    1.8387  -18.9335 O   0  0  0  0  0  0  0  0  0  0  0  0
  1 17  1  0  0  0  0
  1 20  1  0  0  0  0
  2 15  1  6  0  0  0
  2  3  1  0  0  0  0
  2 11  1  0  0  0  0
  3  5  1  0  0  0  0
  4 16  1  6  0  0  0
  4 21  1  0  0  0  0
  4 22  2  0  0  0  0
  4 14  1  0  0  0  0
  5  1  1  1  0  0  0
  5  8  1  0  0  0  0
  6 17  2  0  0  0  0
  6 12  1  0  0  0  0
  8  7  1  6  0  0  0
  8 11  1  0  0  0  0
  9 19  1  0  0  0  0
 11 10  1  1  0  0  0
 12 20  2  0  0  0  0
 12 19  1  0  0  0  0
 13 20  1  0  0  0  0
 14 15  1  0  0  0  0
 18 19  2  0  0  0  0
M  CHG  1  21  -1
M  END
>  <CHROM.1>
21.85930537,66.02396142,-58.74026076,178.30351413,-10.92691926,-36.42639450
5.50004784,-21.60565730,1.83249541,-0.60734075,-0.00958830

>  <Name>
ligand

>  <RI>
0

>  <Rbt.Current_Directory>
/home/itssahil/PROJECTS/Mol_Feturizer/New_Systems/rnas/4XWF

>  <Rbt.Executable>
rbdock ($Id: //depot/dev/client3/rdock/2013.1/src/exe/rbdock.cxx#4 $)

>  <Rbt.Library>
libRbt.so (2013.1, Build901 2013/11/27)

>  <Rbt.Parameter_File>
/export/apps/rDock/src/rDock_2013.1_src/data/scripts/dock_solv.prm

>  <Rbt.Receptor>
prm/blind_docking_80.prm

>  <SCORE>
-8.41463

>  <SCORE.INTER>
-7.45578

>  <SCORE.INTER.CONST>
1

>  <SCORE.INTER.POLAR>
0

>  <SCORE.INTER.ROT>
5

>  <SCORE.INTER.SOLV>
10.4742

>  <SCORE.INTER.VDW>
-15.3953

>  <SCORE.INTER.norm>
-0.338899

>  <SCORE.INTRA>
-0.958844

>  <SCORE.INTRA.DIHEDRAL>
-1.74326

>  <SCORE.INTRA.DIHEDRAL.0>
3.49807

>  <SCORE.INTRA.POLAR>
0

>  <SCORE.INTRA.POLAR.0>
0

>  <SCORE.INTRA.REPUL>
0

>  <SCORE.INTRA.REPUL.0>
0

>  <SCORE.INTRA.SOLV>
0.281046

>  <SCORE.INTRA.SOLV.lig_0>
-73.062

>  <SCORE.INTRA.VDW>
-0.227735

>  <SCORE.INTRA.VDW.0>
-1.83782

>  <SCORE.INTRA.norm>
-0.0435838

>  <SCORE.RESTR>
0

>  <SCORE.RESTR.CAVITY>
0

>  <SCORE.RESTR.norm>
0

>  <SCORE.SYSTEM>
0

>  <SCORE.SYSTEM.CONST>
0

>  <SCORE.SYSTEM.DIHEDRAL>
0

>  <SCORE.SYSTEM.SOLV>
0

>  <SCORE.SYSTEM.norm>
0

>  <SCORE.heavy>
22

>  <SCORE.norm>
-0.382483

>  <RMSD>
15.134

$$$$
ligand
 OpenBabel11021811513D
libRbt.so/2013.1/901 2013/11/27
 22 23  0  0  0  0  0  0  0  0999 V2000
  -35.7258   -5.5013  -16.3136 N   0  0  0  0  0  0  0  0  0  0  0  0
  -34.6886   -5.0454  -19.5025 C   0  0  1  0  0  0  0  0  0  0  0  0
  -35.8196   -5.1624  -18.5931 O   0  0  0  0  0  0  0  0  0  0  0  0
  -35.0182   -8.5742  -20.8433 P   0  0  1  0  0  0  0  0  0  0  0  0
  -35.4298   -4.6110  -17.3250 C   0  0  2  0  0  0  0  0  0  0  0  0
  -36.1282   -7.3602  -15.2679 N   0  0  0  0  0  0  0  0  0  0  0  0
  -33.4785   -3.5261  -16.4813 O   0  0  0  0  0  0  0  0  0  0  0  0
  -33.9534   -4.5270  -17.3894 C   0  0  2  0  0  0  0  0  0  0  0  0
  -35.3514   -6.1925  -12.0192 N   0  0  0  0  0  0  0  0  0  0  0  0
  -34.0001   -2.8470  -19.0694 O   0  0  0  0  0  0  0  0  0  0  0  0
  -33.6874   -4.2219  -18.7898 C   0  0  2  0  0  0  0  0  0  0  0  0
  -36.1301   -6.3646  -14.3683 C   0  0  0  0  0  0  0  0  0  0  0  0
  -35.7676   -3.9094  -14.4322 N   0  0  0  0  0  0  0  0  0  0  0  0
  -35.2096   -7.0738  -20.4299 O   0  0  0  0  0  0  0  0  0  0  0  0
  -34.1832   -6.4246  -19.7526 C   0  0  0  0  0  0  0  0  0  0  0  0
  -36.2803   -8.8649  -21.7339 O   0  0  0  0  0  0  0  0  0  0  0  0
  -35.8828   -6.8201  -16.4768 C   0  0  0  0  0  0  0  0  0  0  0  0
  -37.4515   -6.9275  -12.5043 O   0  0  0  0  0  0  0  0  0  0  0  0
  -36.3702   -6.5123  -12.9208 C   0  0  0  0  0  0  0  0  0  0  0  0
  -35.8744   -5.1912  -15.0188 C   0  0  0  0  0  0  0  0  0  0  0  0
  -33.7120   -8.7388  -21.5466 O   0  5  0  0  0  0  0  0  0  0  0  0
  -34.8219   -9.4227  -19.6542 O   0  0  0  0  0  0  0  0  0  0  0  0
  1 17  1  0  0  0  0
  1 20  1  0  0  0  0
  2 15  1  1  0  0  0
  2  3  1  0  0  0  0
  2 11  1  0  0  0  0
  3  5  1  0  0  0  0
  4 16  1  6  0  0  0
  4 21  1  0  0  0  0
  4 22  2  0  0  0  0
  4 14  1  0  0  0  0
  5  1  1  1  0  0  0
  5  8  1  0  0  0  0
  6 17  2  0  0  0  0
  6 12  1  0  0  0  0
  8  7  1  1  0  0  0
  8 11  1  0  0  0  0
  9 19  1  0  0  0  0
 11 10  1  1  0  0  0
 12 20  2  0  0  0  0
 12 19  1  0  0  0  0
 13 20  1  0  0  0  0
 14 15  1  0  0  0  0
 18 19  2  0  0  0  0
M  CHG  1  21  -1
M  END
>  <CHROM.1>
22.43090348,65.37667719,-172.57126864,-179.36978373,116.38133344,-35.19775764
-6.24916017,-17.59774262,-1.95831811,-1.15873197,-2.23509727

>  <Name>
ligand

>  <RI>
0

>  <Rbt.Current_Directory>
/home/itssahil/PROJECTS/Mol_Feturizer/New_Systems/rnas/4XWF

>  <Rbt.Executable>
rbdock ($Id: //depot/dev/client3/rdock/2013.1/src/exe/rbdock.cxx#4 $)

>  <Rbt.Library>
libRbt.so (2013.1, Build901 2013/11/27)

>  <Rbt.Parameter_File>
/export/apps/rDock/src/rDock_2013.1_src/data/scripts/dock_solv.prm

>  <Rbt.Receptor>
prm/blind_docking_60.prm

>  <SCORE>
-9.62644

>  <SCORE.INTER>
-8.78842

>  <SCORE.INTER.CONST>
1

>  <SCORE.INTER.POLAR>
0

>  <SCORE.INTER.ROT>
5

>  <SCORE.INTER.SOLV>
11.8003

>  <SCORE.INTER.VDW>
-16.7257

>  <SCORE.INTER.norm>
-0.399474

>  <SCORE.INTRA>
-0.838021

>  <SCORE.INTRA.DIHEDRAL>
-1.83128

>  <SCORE.INTRA.DIHEDRAL.0>
3.49807

>  <SCORE.INTRA.POLAR>
0

>  <SCORE.INTRA.POLAR.0>
0

>  <SCORE.INTRA.REPUL>
0

>  <SCORE.INTRA.REPUL.0>
0

>  <SCORE.INTRA.SOLV>
0.989472

>  <SCORE.INTRA.SOLV.lig_0>
-73.062

>  <SCORE.INTRA.VDW>
-0.41712

>  <SCORE.INTRA.VDW.0>
-1.83782

>  <SCORE.INTRA.norm>
-0.0380919

>  <SCORE.RESTR>
0

>  <SCORE.RESTR.CAVITY>
0

>  <SCORE.RESTR.norm>
0

>  <SCORE.SYSTEM>
0

>  <SCORE.SYSTEM.CONST>
0

>  <SCORE.SYSTEM.DIHEDRAL>
0

>  <SCORE.SYSTEM.SOLV>
0

>  <SCORE.SYSTEM.norm>
0

>  <SCORE.heavy>
22

>  <SCORE.norm>
-0.437566

>  <RMSD>
15.188

$$$$
ligand
 OpenBabel11021811513D
libRbt.so/2013.1/901 2013/11/27
 22 23  0  0  0  0  0  0  0  0999 V2000
  -35.1061   -2.8357  -18.5171 N   0  0  0  0  0  0  0  0  0  0  0  0
  -34.5471   -6.1425  -18.0636 C   0  0  1  0  0  0  0  0  0  0  0  0
  -34.0176   -4.7904  -17.9565 O   0  0  0  0  0  0  0  0  0  0  0  0
  -34.7641   -8.6471  -20.8955 P   0  0  1  0  0  0  0  0  0  0  0  0
  -35.1092   -3.9082  -17.6493 C   0  0  2  0  0  0  0  0  0  0  0  0
  -34.7426   -1.6226  -20.2798 N   0  0  0  0  0  0  0  0  0  0  0  0
  -37.4381   -4.1897  -17.2099 O   0  0  0  0  0  0  0  0  0  0  0  0
  -36.3254   -4.6930  -17.9586 C   0  0  2  0  0  0  0  0  0  0  0  0
  -37.3481    0.7173  -19.6763 N   0  0  0  0  0  0  0  0  0  0  0  0
  -35.9400   -6.2211  -16.1800 O   0  0  0  0  0  0  0  0  0  0  0  0
  -35.9520   -6.0578  -17.6081 C   0  0  2  0  0  0  0  0  0  0  0  0
  -35.4897   -0.9068  -19.4254 C   0  0  0  0  0  0  0  0  0  0  0  0
  -36.4904   -1.2906  -17.1860 N   0  0  0  0  0  0  0  0  0  0  0  0
  -34.8614   -7.8652  -19.5399 O   0  0  0  0  0  0  0  0  0  0  0  0
  -34.4608   -6.5342  -19.4985 C   0  0  0  0  0  0  0  0  0  0  0  0
  -35.2297  -10.0974  -20.5078 O   0  0  0  0  0  0  0  0  0  0  0  0
  -34.5006   -2.8187  -19.7102 C   0  0  0  0  0  0  0  0  0  0  0  0
  -35.1779    1.3915  -19.8228 O   0  0  0  0  0  0  0  0  0  0  0  0
  -35.9732    0.4684  -19.6479 C   0  0  0  0  0  0  0  0  0  0  0  0
  -35.7253   -1.6652  -18.3142 C   0  0  0  0  0  0  0  0  0  0  0  0
  -35.6138   -7.9773  -21.9238 O   0  5  0  0  0  0  0  0  0  0  0  0
  -33.4206   -8.5052  -21.4851 O   0  0  0  0  0  0  0  0  0  0  0  0
  1 17  1  0  0  0  0
  1 20  1  0  0  0  0
  2 15  1  6  0  0  0
  2  3  1  0  0  0  0
  2 11  1  0  0  0  0
  3  5  1  0  0  0  0
  4 16  1  1  0  0  0
  4 21  1  0  0  0  0
  4 22  2  0  0  0  0
  4 14  1  0  0  0  0
  5  1  1  6  0  0  0
  5  8  1  0  0  0  0
  6 17  2  0  0  0  0
  6 12  1  0  0  0  0
  8  7  1  1  0  0  0
  8 11  1  0  0  0  0
  9 19  1  0  0  0  0
 11 10  1  1  0  0  0
 12 20  2  0  0  0  0
 12 19  1  0  0  0  0
 13 20  1  0  0  0  0
 14 15  1  0  0  0  0
 18 19  2  0  0  0  0
M  CHG  1  21  -1
M  END
>  <CHROM.1>
20.63537836,174.84849518,177.24926796,-174.38726191,118.99336267,-35.33244688
-4.65437144,-19.16610614,2.01776236,1.25928345,-0.25964144

>  <Name>
ligand

>  <RI>
0

>  <Rbt.Current_Directory>
/home/itssahil/PROJECTS/Mol_Feturizer/New_Systems/rnas/4XWF

>  <Rbt.Executable>
rbdock ($Id: //depot/dev/client3/rdock/2013.1/src/exe/rbdock.cxx#4 $)

>  <Rbt.Library>
libRbt.so (2013.1, Build901 2013/11/27)

>  <Rbt.Parameter_File>
/export/apps/rDock/src/rDock_2013.1_src/data/scripts/dock_solv.prm

>  <Rbt.Receptor>
prm/blind_docking_100.prm

>  <SCORE>
-6.75469

>  <SCORE.INTER>
-6.28917

>  <SCORE.INTER.CONST>
1

>  <SCORE.INTER.POLAR>
0

>  <SCORE.INTER.ROT>
5

>  <SCORE.INTER.SOLV>
14.4727

>  <SCORE.INTER.VDW>
-15.9504

>  <SCORE.INTER.norm>
-0.285871

>  <SCORE.INTRA>
-0.465518

>  <SCORE.INTRA.DIHEDRAL>
-1.74803

>  <SCORE.INTRA.DIHEDRAL.0>
3.49807

>  <SCORE.INTRA.POLAR>
0

>  <SCORE.INTRA.POLAR.0>
0

>  <SCORE.INTRA.REPUL>
0

>  <SCORE.INTRA.REPUL.0>
0

>  <SCORE.INTRA.SOLV>
1.11436

>  <SCORE.INTRA.SOLV.lig_0>
-73.062

>  <SCORE.INTRA.VDW>
-0.148682

>  <SCORE.INTRA.VDW.0>
-1.83782

>  <SCORE.INTRA.norm>
-0.0211599

>  <SCORE.RESTR>
0

>  <SCORE.RESTR.CAVITY>
0

>  <SCORE.RESTR.norm>
0

>  <SCORE.SYSTEM>
0

>  <SCORE.SYSTEM.CONST>
0

>  <SCORE.SYSTEM.DIHEDRAL>
0

>  <SCORE.SYSTEM.SOLV>
0

>  <SCORE.SYSTEM.norm>
0

>  <SCORE.heavy>
22

>  <SCORE.norm>
-0.307031

>  <RMSD>
15.404

$$$$
ligand
 OpenBabel11021811513D
libRbt.so/2013.1/901 2013/11/27
 22 23  0  0  0  0  0  0  0  0999 V2000
  -35.2563   -2.8979  -18.5568 N   0  0  0  0  0  0  0  0  0  0  0  0
  -34.8379   -6.2520  -18.7217 C   0  0  1  0  0  0  0  0  0  0  0  0
  -34.2731   -4.9710  -18.3217 O   0  0  0  0  0  0  0  0  0  0  0  0
  -34.7885   -8.8869  -20.5599 P   0  0  1  0  0  0  0  0  0  0  0  0
  -35.3539   -4.1157  -17.9159 C   0  0  2  0  0  0  0  0  0  0  0  0
  -34.7923   -1.3988  -20.0562 N   0  0  0  0  0  0  0  0  0  0  0  0
  -37.7153   -4.3706  -17.6824 O   0  0  0  0  0  0  0  0  0  0  0  0
  -36.5710   -4.7707  -18.4454 C   0  0  2  0  0  0  0  0  0  0  0  0
  -35.5279    1.4574  -20.0844 N   0  0  0  0  0  0  0  0  0  0  0  0
  -36.3585   -6.6275  -16.9777 O   0  0  0  0  0  0  0  0  0  0  0  0
  -36.2671   -6.1929  -18.3449 C   0  0  2  0  0  0  0  0  0  0  0  0
  -35.4644   -0.8012  -19.0603 C   0  0  0  0  0  0  0  0  0  0  0  0
  -36.4828   -1.5273  -16.9157 N   0  0  0  0  0  0  0  0  0  0  0  0
  -35.4370   -7.4593  -20.5736 O   0  0  0  0  0  0  0  0  0  0  0  0
  -34.6662   -6.3647  -20.1974 C   0  0  0  0  0  0  0  0  0  0  0  0
  -35.9096   -9.7963  -21.1818 O   0  0  0  0  0  0  0  0  0  0  0  0
  -34.6592   -2.7005  -19.7378 C   0  0  0  0  0  0  0  0  0  0  0  0
  -36.3540    1.0979  -17.9930 O   0  0  0  0  0  0  0  0  0  0  0  0
  -35.8192    0.6287  -18.9975 C   0  0  0  0  0  0  0  0  0  0  0  0
  -35.7627   -1.7395  -18.1137 C   0  0  0  0  0  0  0  0  0  0  0  0
  -33.5099   -8.8652  -21.3297 O   0  5  0  0  0  0  0  0  0  0  0  0
  -34.3131   -9.2317  -19.2080 O   0  0  0  0  0  0  0  0  0  0  0  0
  1 17  1  0  0  0  0
  1 20  1  0  0  0  0
  2 15  1  6  0  0  0
  2  3  1  0  0  0  0
  2 11  1  0  0  0  0
  3  5  1  0  0  0  0
  4 16  1  6  0  0  0
  4 21  1  0  0  0  0
  4 22  2  0  0  0  0
  4 14  1  0  0  0  0
  5  1  1  6  0  0  0
  5  8  1  0  0  0  0
  6 17  2  0  0  0  0
  6 12  1  0  0  0  0
  8  7  1  1  0  0  0
  8 11  1  0  0  0  0
  9 19  1  0  0  0  0
 11 10  1  1  0  0  0
 12 20  2  0  0  0  0
 12 19  1  0  0  0  0
 13 20  1  0  0  0  0
 14 15  1  0  0  0  0
 18 19  2  0  0  0  0
M  CHG  1  21  -1
M  END
>  <CHROM.1>
26.15432820,-168.77104952,-174.20691217,-88.63921584,4.46673504,-35.42372990
-4.74677223,-19.13794877,1.77995564,1.01614751,0.00783584

>  <Name>
ligand

>  <RI>
0

>  <Rbt.Current_Directory>
/home/itssahil/PROJECTS/Mol_Feturizer/New_Systems/rnas/4XWF

>  <Rbt.Executable>
rbdock ($Id: //depot/dev/client3/rdock/2013.1/src/exe/rbdock.cxx#4 $)

>  <Rbt.Library>
libRbt.so (2013.1, Build901 2013/11/27)

>  <Rbt.Parameter_File>
/export/apps/rDock/src/rDock_2013.1_src/data/scripts/dock_solv.prm

>  <Rbt.Receptor>
prm/blind_docking_100.prm

>  <SCORE>
-6.42716

>  <SCORE.INTER>
-8.89628

>  <SCORE.INTER.CONST>
1

>  <SCORE.INTER.POLAR>
0

>  <SCORE.INTER.ROT>
5

>  <SCORE.INTER.SOLV>
10.9475

>  <SCORE.INTER.VDW>
-16.5133

>  <SCORE.INTER.norm>
-0.404376

>  <SCORE.INTRA>
2.46912

>  <SCORE.INTRA.DIHEDRAL>
1.83628

>  <SCORE.INTRA.DIHEDRAL.0>
3.49807

>  <SCORE.INTRA.POLAR>
0

>  <SCORE.INTRA.POLAR.0>
0

>  <SCORE.INTRA.REPUL>
0

>  <SCORE.INTRA.REPUL.0>
0

>  <SCORE.INTRA.SOLV>
2.77592

>  <SCORE.INTRA.SOLV.lig_0>
-73.062

>  <SCORE.INTRA.VDW>
0.16302

>  <SCORE.INTRA.VDW.0>
-1.83782

>  <SCORE.INTRA.norm>
0.112233

>  <SCORE.RESTR>
0

>  <SCORE.RESTR.CAVITY>
0

>  <SCORE.RESTR.norm>
0

>  <SCORE.SYSTEM>
0

>  <SCORE.SYSTEM.CONST>
0

>  <SCORE.SYSTEM.DIHEDRAL>
0

>  <SCORE.SYSTEM.SOLV>
0

>  <SCORE.SYSTEM.norm>
0

>  <SCORE.heavy>
22

>  <SCORE.norm>
-0.292144

>  <RMSD>
15.482

$$$$
ligand
 OpenBabel11021811513D
libRbt.so/2013.1/901 2013/11/27
 22 23  0  0  0  0  0  0  0  0999 V2000
  -34.5483   -7.7730  -19.8832 N   0  0  0  0  0  0  0  0  0  0  0  0
  -37.2752   -6.8333  -18.1131 C   0  0  1  0  0  0  0  0  0  0  0  0
  -36.7627   -7.4199  -19.3431 O   0  0  0  0  0  0  0  0  0  0  0  0
  -37.6121   -3.2871  -16.8266 P   0  0  1  0  0  0  0  0  0  0  0  0
  -35.5628   -8.1432  -19.0248 C   0  0  2  0  0  0  0  0  0  0  0  0
  -33.0038   -6.5912  -20.8471 N   0  0  0  0  0  0  0  0  0  0  0  0
  -34.3666   -8.6338  -17.0186 O   0  0  0  0  0  0  0  0  0  0  0  0
  -35.1742   -7.6547  -17.6827 C   0  0  2  0  0  0  0  0  0  0  0  0
  -30.8993   -7.6090  -22.6980 N   0  0  0  0  0  0  0  0  0  0  0  0
  -37.0663   -8.6447  -16.6401 O   0  0  0  0  0  0  0  0  0  0  0  0
  -36.4509   -7.4040  -17.0254 C   0  0  2  0  0  0  0  0  0  0  0  0
  -33.0061   -7.8119  -21.4041 C   0  0  0  0  0  0  0  0  0  0  0  0
  -34.2878   -9.9130  -21.0783 N   0  0  0  0  0  0  0  0  0  0  0  0
  -37.7163   -4.8279  -17.0982 O   0  0  0  0  0  0  0  0  0  0  0  0
  -37.0915   -5.3587  -18.2215 C   0  0  0  0  0  0  0  0  0  0  0  0
  -38.4301   -3.1007  -15.4975 O   0  0  0  0  0  0  0  0  0  0  0  0
  -33.9672   -6.5678  -19.9064 C   0  0  0  0  0  0  0  0  0  0  0  0
  -32.4395   -9.2049  -23.2141 O   0  0  0  0  0  0  0  0  0  0  0  0
  -32.1148   -8.2657  -22.4877 C   0  0  0  0  0  0  0  0  0  0  0  0
  -33.9740   -8.5629  -20.8003 C   0  0  0  0  0  0  0  0  0  0  0  0
  -36.1764   -2.8898  -16.7319 O   0  5  0  0  0  0  0  0  0  0  0  0
  -38.0539   -2.5181  -18.0039 O   0  0  0  0  0  0  0  0  0  0  0  0
  1 17  1  0  0  0  0
  1 20  1  0  0  0  0
  2 15  1  6  0  0  0
  2  3  1  0  0  0  0
  2 11  1  0  0  0  0
  3  5  1  0  0  0  0
  4 16  1  1  0  0  0
  4 21  1  0  0  0  0
  4 22  2  0  0  0  0
  4 14  1  0  0  0  0
  5  1  1  6  0  0  0
  5  8  1  0  0  0  0
  6 17  2  0  0  0  0
  6 12  1  0  0  0  0
  8  7  1  1  0  0  0
  8 11  1  0  0  0  0
  9 19  1  0  0  0  0
 11 10  1  6  0  0  0
 12 20  2  0  0  0  0
 12 19  1  0  0  0  0
 13 20  1  0  0  0  0
 14 15  1  0  0  0  0
 18 19  2  0  0  0  0
M  CHG  1  21  -1
M  END
>  <CHROM.1>
67.93763978,173.94425830,-179.96608626,174.93752700,22.36674646,-35.48460104
-6.51777837,-18.86287969,0.48455938,-0.85339777,2.99911020

>  <Name>
ligand

>  <RI>
0

>  <Rbt.Current_Directory>
/home/itssahil/PROJECTS/Mol_Feturizer/New_Systems/rnas/4XWF

>  <Rbt.Executable>
rbdock ($Id: //depot/dev/client3/rdock/2013.1/src/exe/rbdock.cxx#4 $)

>  <Rbt.Library>
libRbt.so (2013.1, Build901 2013/11/27)

>  <Rbt.Parameter_File>
/export/apps/rDock/src/rDock_2013.1_src/data/scripts/dock_solv.prm

>  <Rbt.Receptor>
prm/blind_docking_60.prm

>  <SCORE>
-10.3771

>  <SCORE.INTER>
-10.0982

>  <SCORE.INTER.CONST>
1

>  <SCORE.INTER.POLAR>
0

>  <SCORE.INTER.ROT>
5

>  <SCORE.INTER.SOLV>
14.8625

>  <SCORE.INTER.VDW>
-18.6196

>  <SCORE.INTER.norm>
-0.45901

>  <SCORE.INTRA>
-0.278856

>  <SCORE.INTRA.DIHEDRAL>
-1.1909

>  <SCORE.INTRA.DIHEDRAL.0>
3.49807

>  <SCORE.INTRA.POLAR>
0

>  <SCORE.INTRA.POLAR.0>
0

>  <SCORE.INTRA.REPUL>
0

>  <SCORE.INTRA.REPUL.0>
0

>  <SCORE.INTRA.SOLV>
-0.344875

>  <SCORE.INTRA.SOLV.lig_0>
-73.062

>  <SCORE.INTRA.VDW>
0.48903

>  <SCORE.INTRA.VDW.0>
-1.83782

>  <SCORE.INTRA.norm>
-0.0126753

>  <SCORE.RESTR>
0

>  <SCORE.RESTR.CAVITY>
0

>  <SCORE.RESTR.norm>
0

>  <SCORE.SYSTEM>
0

>  <SCORE.SYSTEM.CONST>
0

>  <SCORE.SYSTEM.DIHEDRAL>
0

>  <SCORE.SYSTEM.SOLV>
0

>  <SCORE.SYSTEM.norm>
0

>  <SCORE.heavy>
22

>  <SCORE.norm>
-0.471685

>  <RMSD>
16.656

$$$$
ligand
 OpenBabel11021811513D
libRbt.so/2013.1/901 2013/11/27
 22 23  0  0  0  0  0  0  0  0999 V2000
  -12.4629  -10.5757   -5.7395 N   0  0  0  0  0  0  0  0  0  0  0  0
  -11.5512  -10.2523   -8.9825 C   0  0  1  0  0  0  0  0  0  0  0  0
  -12.5568  -10.7209   -8.0395 O   0  0  0  0  0  0  0  0  0  0  0  0
   -7.9228  -11.2385   -8.6628 P   0  0  1  0  0  0  0  0  0  0  0  0
  -12.5462   -9.8407   -6.9040 C   0  0  2  0  0  0  0  0  0  0  0  0
  -12.0209  -12.1913   -4.3591 N   0  0  0  0  0  0  0  0  0  0  0  0
  -11.3716   -7.8463   -6.3219 O   0  0  0  0  0  0  0  0  0  0  0  0
  -11.2735   -9.0938   -7.0191 C   0  0  2  0  0  0  0  0  0  0  0  0
  -13.4060  -12.2801   -1.6070 N   0  0  0  0  0  0  0  0  0  0  0  0
  -11.9811   -7.9481   -8.9770 O   0  0  0  0  0  0  0  0  0  0  0  0
  -11.0892   -8.9487   -8.4578 C   0  0  2  0  0  0  0  0  0  0  0  0
  -12.5562  -11.1782   -3.6608 C   0  0  0  0  0  0  0  0  0  0  0  0
  -13.3853   -8.8980   -4.1871 N   0  0  0  0  0  0  0  0  0  0  0  0
   -9.2763  -10.5182   -8.9912 O   0  0  0  0  0  0  0  0  0  0  0  0
  -10.4530  -11.2592   -8.9878 C   0  0  0  0  0  0  0  0  0  0  0  0
   -8.2598  -12.0626   -7.3675 O   0  0  0  0  0  0  0  0  0  0  0  0
  -11.9698  -11.8166   -5.6516 C   0  0  0  0  0  0  0  0  0  0  0  0
  -12.5001  -10.1924   -1.5248 O   0  0  0  0  0  0  0  0  0  0  0  0
  -12.8043  -11.1707   -2.2071 C   0  0  0  0  0  0  0  0  0  0  0  0
  -12.8344  -10.1559   -4.5228 C   0  0  0  0  0  0  0  0  0  0  0  0
   -7.4976  -12.0654   -9.8305 O   0  5  0  0  0  0  0  0  0  0  0  0
   -6.8204  -10.2641   -8.5745 O   0  0  0  0  0  0  0  0  0  0  0  0
  1 17  1  0  0  0  0
  1 20  1  0  0  0  0
  2 15  1  1  0  0  0
  2  3  1  0  0  0  0
  2 11  1  0  0  0  0
  3  5  1  0  0  0  0
  4 16  1  1  0  0  0
  4 21  1  0  0  0  0
  4 22  2  0  0  0  0
  4 14  1  0  0  0  0
  5  1  1  1  0  0  0
  5  8  1  0  0  0  0
  6 17  2  0  0  0  0
  6 12  1  0  0  0  0
  8  7  1  1  0  0  0
  8 11  1  0  0  0  0
  9 19  1  0  0  0  0
 11 10  1  6  0  0  0
 12 20  2  0  0  0  0
 12 19  1  0  0  0  0
 13 20  1  0  0  0  0
 14 15  1  0  0  0  0
 18 19  2  0  0  0  0
M  CHG  1  21  -1
M  END
>  <CHROM.1>
23.26464789,-137.51731880,-47.64602073,165.88979463,-45.97198551,-10.94290753
-10.50069596,-6.59895095,2.38179117,-0.61005183,2.09906358

>  <Name>
ligand

>  <RI>
0

>  <Rbt.Current_Directory>
/home/itssahil/PROJECTS/Mol_Feturizer/New_Systems/rnas/4XWF

>  <Rbt.Executable>
rbdock ($Id: //depot/dev/client3/rdock/2013.1/src/exe/rbdock.cxx#4 $)

>  <Rbt.Library>
libRbt.so (2013.1, Build901 2013/11/27)

>  <Rbt.Parameter_File>
/export/apps/rDock/src/rDock_2013.1_src/data/scripts/dock_solv.prm

>  <Rbt.Receptor>
prm/blind_docking_20.prm

>  <SCORE>
4.60569

>  <SCORE.INTER>
-1.6265

>  <SCORE.INTER.CONST>
1

>  <SCORE.INTER.POLAR>
0

>  <SCORE.INTER.ROT>
5

>  <SCORE.INTER.SOLV>
24.9718

>  <SCORE.INTER.VDW>
-16.3416

>  <SCORE.INTER.norm>
-0.0739318

>  <SCORE.INTRA>
4.76342

>  <SCORE.INTRA.DIHEDRAL>
4.7158

>  <SCORE.INTRA.DIHEDRAL.0>
3.49807

>  <SCORE.INTRA.POLAR>
0

>  <SCORE.INTRA.POLAR.0>
0

>  <SCORE.INTRA.REPUL>
0

>  <SCORE.INTRA.REPUL.0>
0

>  <SCORE.INTRA.SOLV>
0.538727

>  <SCORE.INTRA.SOLV.lig_0>
-73.062

>  <SCORE.INTRA.VDW>
2.13616

>  <SCORE.INTRA.VDW.0>
-1.83782

>  <SCORE.INTRA.norm>
0.216519

>  <SCORE.RESTR>
1.46876

>  <SCORE.RESTR.CAVITY>
1.46876

>  <SCORE.RESTR.norm>
0.0667619

>  <SCORE.SYSTEM>
0

>  <SCORE.SYSTEM.CONST>
0

>  <SCORE.SYSTEM.DIHEDRAL>
0

>  <SCORE.SYSTEM.SOLV>
0

>  <SCORE.SYSTEM.norm>
0

>  <SCORE.heavy>
22

>  <SCORE.norm>
0.209349

>  <RMSD>
23.282

$$$$
ligand
 OpenBabel11021811513D
libRbt.so/2013.1/901 2013/11/27
 22 23  0  0  0  0  0  0  0  0999 V2000
  -12.4420  -10.5250   -5.7308 N   0  0  0  0  0  0  0  0  0  0  0  0
  -11.4488  -10.0861   -8.9360 C   0  0  1  0  0  0  0  0  0  0  0  0
  -12.5041  -10.5300   -8.0364 O   0  0  0  0  0  0  0  0  0  0  0  0
   -7.8957  -11.2578   -8.7044 P   0  0  1  0  0  0  0  0  0  0  0  0
  -12.4481   -9.7199   -6.8510 C   0  0  2  0  0  0  0  0  0  0  0  0
  -12.1181  -12.2347   -4.4334 N   0  0  0  0  0  0  0  0  0  0  0  0
  -11.1372   -7.8580   -6.1363 O   0  0  0  0  0  0  0  0  0  0  0  0
  -11.1207   -9.0671   -6.9042 C   0  0  2  0  0  0  0  0  0  0  0  0
  -12.0528  -11.9248   -1.3876 N   0  0  0  0  0  0  0  0  0  0  0  0
  -11.7037   -7.7598   -8.8011 O   0  0  0  0  0  0  0  0  0  0  0  0
  -10.8995   -8.8539   -8.3292 C   0  0  2  0  0  0  0  0  0  0  0  0
  -12.6478  -11.2451   -3.6980 C   0  0  0  0  0  0  0  0  0  0  0  0
  -13.3726   -8.9083   -4.1196 N   0  0  0  0  0  0  0  0  0  0  0  0
   -9.2099  -10.5230   -9.1421 O   0  0  0  0  0  0  0  0  0  0  0  0
  -10.4298  -11.1720   -8.9852 C   0  0  0  0  0  0  0  0  0  0  0  0
   -6.8869  -10.0766   -8.4644 O   0  0  0  0  0  0  0  0  0  0  0  0
  -11.9969  -11.7865   -5.6975 C   0  0  0  0  0  0  0  0  0  0  0  0
  -14.0142  -10.8528   -1.8228 O   0  0  0  0  0  0  0  0  0  0  0  0
  -12.9593  -11.3140   -2.2583 C   0  0  0  0  0  0  0  0  0  0  0  0
  -12.8517  -10.1641   -4.5074 C   0  0  0  0  0  0  0  0  0  0  0  0
   -8.1664  -12.0964   -7.4997 O   0  5  0  0  0  0  0  0  0  0  0  0
   -7.5139  -12.2799   -9.6954 O   0  0  0  0  0  0  0  0  0  0  0  0
  1 17  1  0  0  0  0
  1 20  1  0  0  0  0
  2 15  1  1  0  0  0
  2  3  1  0  0  0  0
  2 11  1  0  0  0  0
  3  5  1  0  0  0  0
  4 16  1  1  0  0  0
  4 21  1  0  0  0  0
  4 22  2  0  0  0  0
  4 14  1  0  0  0  0
  5  1  1  1  0  0  0
  5  8  1  0  0  0  0
  6 17  2  0  0  0  0
  6 12  1  0  0  0  0
  8  7  1  1  0  0  0
  8 11  1  0  0  0  0
  9 19  1  0  0  0  0
 11 10  1  6  0  0  0
 12 20  2  0  0  0  0
 12 19  1  0  0  0  0
 13 20  1  0  0  0  0
 14 15  1  0  0  0  0
 18 19  2  0  0  0  0
M  CHG  1  21  -1
M  END
>  <CHROM.1>
26.01036928,-146.65918780,-157.34659599,157.21015087,42.15451075,-10.91604755
-10.49193136,-6.58271300,2.43491113,-0.63469366,2.17528585

>  <Name>
ligand

>  <RI>
0

>  <Rbt.Current_Directory>
/home/itssahil/PROJECTS/Mol_Feturizer/New_Systems/rnas/4XWF

>  <Rbt.Executable>
rbdock ($Id: //depot/dev/client3/rdock/2013.1/src/exe/rbdock.cxx#4 $)

>  <Rbt.Library>
libRbt.so (2013.1, Build901 2013/11/27)

>  <Rbt.Parameter_File>
/export/apps/rDock/src/rDock_2013.1_src/data/scripts/dock_solv.prm

>  <Rbt.Receptor>
prm/blind_docking_20.prm

>  <SCORE>
2.49668

>  <SCORE.INTER>
-3.76505

>  <SCORE.INTER.CONST>
1

>  <SCORE.INTER.POLAR>
0

>  <SCORE.INTER.ROT>
5

>  <SCORE.INTER.SOLV>
21.4082

>  <SCORE.INTER.VDW>
-16.5794

>  <SCORE.INTER.norm>
-0.171139

>  <SCORE.INTRA>
4.72794

>  <SCORE.INTRA.DIHEDRAL>
5.31329

>  <SCORE.INTRA.DIHEDRAL.0>
3.49807

>  <SCORE.INTRA.POLAR>
0

>  <SCORE.INTRA.POLAR.0>
0

>  <SCORE.INTRA.REPUL>
0

>  <SCORE.INTRA.REPUL.0>
0

>  <SCORE.INTRA.SOLV>
1.49207

>  <SCORE.INTRA.SOLV.lig_0>
-73.062

>  <SCORE.INTRA.VDW>
1.32526

>  <SCORE.INTRA.VDW.0>
-1.83782

>  <SCORE.INTRA.norm>
0.214906

>  <SCORE.RESTR>
1.53379

>  <SCORE.RESTR.CAVITY>
1.53379

>  <SCORE.RESTR.norm>
0.0697179

>  <SCORE.SYSTEM>
0

>  <SCORE.SYSTEM.CONST>
0

>  <SCORE.SYSTEM.DIHEDRAL>
0

>  <SCORE.SYSTEM.SOLV>
0

>  <SCORE.SYSTEM.norm>
0

>  <SCORE.heavy>
22

>  <SCORE.norm>
0.113485

>  <RMSD>
23.298

$$$$
ligand
 OpenBabel11021811513D
libRbt.so/2013.1/901 2013/11/27
 22 23  0  0  0  0  0  0  0  0999 V2000
  -12.4418  -10.5294   -5.6102 N   0  0  0  0  0  0  0  0  0  0  0  0
  -11.3407  -10.0629   -8.7760 C   0  0  1  0  0  0  0  0  0  0  0  0
  -12.4283  -10.5082   -7.9165 O   0  0  0  0  0  0  0  0  0  0  0  0
   -7.8202  -11.3620   -9.2181 P   0  0  1  0  0  0  0  0  0  0  0  0
  -12.4049   -9.7119   -6.7208 C   0  0  2  0  0  0  0  0  0  0  0  0
  -12.1821  -12.2592   -4.3251 N   0  0  0  0  0  0  0  0  0  0  0  0
  -11.1040   -7.8687   -5.9424 O   0  0  0  0  0  0  0  0  0  0  0  0
  -11.0716   -9.0692   -6.7230 C   0  0  2  0  0  0  0  0  0  0  0  0
  -13.5283  -12.5543   -1.6337 N   0  0  0  0  0  0  0  0  0  0  0  0
  -11.5819   -7.7363   -8.6230 O   0  0  0  0  0  0  0  0  0  0  0  0
  -10.8021   -8.8420   -8.1375 C   0  0  2  0  0  0  0  0  0  0  0  0
  -12.7120  -11.2682   -3.5918 C   0  0  0  0  0  0  0  0  0  0  0  0
  -13.3830   -8.9139   -4.0041 N   0  0  0  0  0  0  0  0  0  0  0  0
   -9.1717  -10.5720   -9.3073 O   0  0  0  0  0  0  0  0  0  0  0  0
  -10.3290  -11.1563   -8.8042 C   0  0  0  0  0  0  0  0  0  0  0  0
   -7.3646  -11.4648  -10.7189 O   0  0  0  0  0  0  0  0  0  0  0  0
  -12.0209  -11.7993   -5.5805 C   0  0  0  0  0  0  0  0  0  0  0  0
  -12.9579  -10.3586   -1.4356 O   0  0  0  0  0  0  0  0  0  0  0  0
  -13.0609  -11.3475   -2.1612 C   0  0  0  0  0  0  0  0  0  0  0  0
  -12.8756  -10.1746   -4.3934 C   0  0  0  0  0  0  0  0  0  0  0  0
   -6.8688  -10.6310   -8.3301 O   0  5  0  0  0  0  0  0  0  0  0  0
   -8.0011  -12.6251   -8.4802 O   0  0  0  0  0  0  0  0  0  0  0  0
  1 17  1  0  0  0  0
  1 20  1  0  0  0  0
  2 15  1  1  0  0  0
  2  3  1  0  0  0  0
  2 11  1  0  0  0  0
  3  5  1  0  0  0  0
  4 16  1  6  0  0  0
  4 21  1  0  0  0  0
  4 22  2  0  0  0  0
  4 14  1  0  0  0  0
  5  1  1  1  0  0  0
  5  8  1  0  0  0  0
  6 17  2  0  0  0  0
  6 12  1  0  0  0  0
  8  7  1  1  0  0  0
  8 11  1  0  0  0  0
  9 19  1  0  0  0  0
 11 10  1  6  0  0  0
 12 20  2  0  0  0  0
 12 19  1  0  0  0  0
 13 20  1  0  0  0  0
 14 15  1  0  0  0  0
 18 19  2  0  0  0  0
M  CHG  1  21  -1
M  END
>  <CHROM.1>
25.26324900,-163.98852079,121.78122696,168.31278771,-33.93299906,-10.88601841
-10.52031609,-6.63327067,2.52899720,-0.74581392,2.31652792

>  <Name>
ligand

>  <RI>
0

>  <Rbt.Current_Directory>
/home/itssahil/PROJECTS/Mol_Feturizer/New_Systems/rnas/4XWF

>  <Rbt.Executable>
rbdock ($Id: //depot/dev/client3/rdock/2013.1/src/exe/rbdock.cxx#4 $)

>  <Rbt.Library>
libRbt.so (2013.1, Build901 2013/11/27)

>  <Rbt.Parameter_File>
/export/apps/rDock/src/rDock_2013.1_src/data/scripts/dock_solv.prm

>  <Rbt.Receptor>
prm/blind_docking_20.prm

>  <SCORE>
2.28438

>  <SCORE.INTER>
-2.52391

>  <SCORE.INTER.CONST>
1

>  <SCORE.INTER.POLAR>
0

>  <SCORE.INTER.ROT>
5

>  <SCORE.INTER.SOLV>
23.1717

>  <SCORE.INTER.VDW>
-16.3398

>  <SCORE.INTER.norm>
-0.114723

>  <SCORE.INTRA>
2.68751

>  <SCORE.INTRA.DIHEDRAL>
2.84353

>  <SCORE.INTRA.DIHEDRAL.0>
3.49807

>  <SCORE.INTRA.POLAR>
0

>  <SCORE.INTRA.POLAR.0>
0

>  <SCORE.INTRA.REPUL>
0

>  <SCORE.INTRA.REPUL.0>
0

>  <SCORE.INTRA.SOLV>
0.936257

>  <SCORE.INTRA.SOLV.lig_0>
-73.062

>  <SCORE.INTRA.VDW>
0.797614

>  <SCORE.INTRA.VDW.0>
-1.83782

>  <SCORE.INTRA.norm>
0.122159

>  <SCORE.RESTR>
2.12078

>  <SCORE.RESTR.CAVITY>
2.12078

>  <SCORE.RESTR.norm>
0.0963993

>  <SCORE.SYSTEM>
0

>  <SCORE.SYSTEM.CONST>
0

>  <SCORE.SYSTEM.DIHEDRAL>
0

>  <SCORE.SYSTEM.SOLV>
0

>  <SCORE.SYSTEM.norm>
0

>  <SCORE.heavy>
22

>  <SCORE.norm>
0.103835

>  <RMSD>
23.337

$$$$
ligand
 OpenBabel11021811513D
libRbt.so/2013.1/901 2013/11/27
 22 23  0  0  0  0  0  0  0  0999 V2000
  -12.4594  -10.6164   -5.6935 N   0  0  0  0  0  0  0  0  0  0  0  0
  -11.4030  -10.2937   -8.8924 C   0  0  1  0  0  0  0  0  0  0  0  0
  -12.4637  -10.7332   -7.9970 O   0  0  0  0  0  0  0  0  0  0  0  0
   -7.7959  -11.3848   -8.7682 P   0  0  1  0  0  0  0  0  0  0  0  0
  -12.4664   -9.8662   -6.8513 C   0  0  2  0  0  0  0  0  0  0  0  0
  -12.1252  -12.2577   -4.3131 N   0  0  0  0  0  0  0  0  0  0  0  0
  -11.2416   -7.9251   -6.1973 O   0  0  0  0  0  0  0  0  0  0  0  0
  -11.1625   -9.1679   -6.9051 C   0  0  2  0  0  0  0  0  0  0  0  0
  -12.1754  -11.9507   -1.3055 N   0  0  0  0  0  0  0  0  0  0  0  0
  -11.7446   -7.9747   -8.8761 O   0  0  0  0  0  0  0  0  0  0  0  0
  -10.9136   -9.0146   -8.3333 C   0  0  2  0  0  0  0  0  0  0  0  0
  -12.6721  -11.2404   -3.6300 C   0  0  0  0  0  0  0  0  0  0  0  0
  -13.4212   -8.9356   -4.1686 N   0  0  0  0  0  0  0  0  0  0  0  0
   -9.1512  -10.6641   -9.0881 O   0  0  0  0  0  0  0  0  0  0  0  0
  -10.3447  -11.3422   -8.8653 C   0  0  0  0  0  0  0  0  0  0  0  0
   -7.5577  -12.2812  -10.0372 O   0  0  0  0  0  0  0  0  0  0  0  0
  -11.9997  -11.8694   -5.5964 C   0  0  0  0  0  0  0  0  0  0  0  0
  -13.9819  -10.6437   -1.7683 O   0  0  0  0  0  0  0  0  0  0  0  0
  -12.9938  -11.2439   -2.1908 C   0  0  0  0  0  0  0  0  0  0  0  0
  -12.8827  -10.2021   -4.4919 C   0  0  0  0  0  0  0  0  0  0  0  0
   -6.7324  -10.3674   -8.5195 O   0  5  0  0  0  0  0  0  0  0  0  0
   -7.8622  -12.0671   -7.4633 O   0  0  0  0  0  0  0  0  0  0  0  0
  1 17  1  0  0  0  0
  1 20  1  0  0  0  0
  2 15  1  1  0  0  0
  2  3  1  0  0  0  0
  2 11  1  0  0  0  0
  3  5  1  0  0  0  0
  4 16  1  6  0  0  0
  4 21  1  0  0  0  0
  4 22  2  0  0  0  0
  4 14  1  0  0  0  0
  5  1  1  1  0  0  0
  5  8  1  0  0  0  0
  6 17  2  0  0  0  0
  6 12  1  0  0  0  0
  8  7  1  1  0  0  0
  8 11  1  0  0  0  0
  9 19  1  0  0  0  0
 11 10  1  6  0  0  0
 12 20  2  0  0  0  0
 12 19  1  0  0  0  0
 13 20  1  0  0  0  0
 14 15  1  0  0  0  0
 18 19  2  0  0  0  0
M  CHG  1  21  -1
M  END
>  <CHROM.1>
24.30796552,-149.38032934,81.24881369,164.59102816,33.90106044,-10.89636401
-10.57734459,-6.58173538,2.43346202,-0.61669264,2.12571239

>  <Name>
ligand

>  <RI>
0

>  <Rbt.Current_Directory>
/home/itssahil/PROJECTS/Mol_Feturizer/New_Systems/rnas/4XWF

>  <Rbt.Executable>
rbdock ($Id: //depot/dev/client3/rdock/2013.1/src/exe/rbdock.cxx#4 $)

>  <Rbt.Library>
libRbt.so (2013.1, Build901 2013/11/27)

>  <Rbt.Parameter_File>
/export/apps/rDock/src/rDock_2013.1_src/data/scripts/dock_solv.prm

>  <Rbt.Receptor>
prm/blind_docking_20.prm

>  <SCORE>
2.89316

>  <SCORE.INTER>
-2.50845

>  <SCORE.INTER.CONST>
1

>  <SCORE.INTER.POLAR>
0

>  <SCORE.INTER.ROT>
5

>  <SCORE.INTER.SOLV>
26.4741

>  <SCORE.INTER.VDW>
-17.4303

>  <SCORE.INTER.norm>
-0.114021

>  <SCORE.INTRA>
3.3496

>  <SCORE.INTRA.DIHEDRAL>
3.38965

>  <SCORE.INTRA.DIHEDRAL.0>
3.49807

>  <SCORE.INTRA.POLAR>
0

>  <SCORE.INTRA.POLAR.0>
0

>  <SCORE.INTRA.REPUL>
0

>  <SCORE.INTRA.REPUL.0>
0

>  <SCORE.INTRA.SOLV>
1.05373

>  <SCORE.INTRA.SOLV.lig_0>
-73.062

>  <SCORE.INTRA.VDW>
1.1279

>  <SCORE.INTRA.VDW.0>
-1.83782

>  <SCORE.INTRA.norm>
0.152254

>  <SCORE.RESTR>
2.05202

>  <SCORE.RESTR.CAVITY>
2.05202

>  <SCORE.RESTR.norm>
0.0932736

>  <SCORE.SYSTEM>
0

>  <SCORE.SYSTEM.CONST>
0

>  <SCORE.SYSTEM.DIHEDRAL>
0

>  <SCORE.SYSTEM.SOLV>
0

>  <SCORE.SYSTEM.norm>
0

>  <SCORE.heavy>
22

>  <SCORE.norm>
0.131507

>  <RMSD>
23.356

$$$$
ligand
 OpenBabel11021811513D
libRbt.so/2013.1/901 2013/11/27
 22 23  0  0  0  0  0  0  0  0999 V2000
  -12.2763  -10.5774   -5.7256 N   0  0  0  0  0  0  0  0  0  0  0  0
  -11.5874  -10.3613   -9.0319 C   0  0  1  0  0  0  0  0  0  0  0  0
  -12.5142  -10.8200   -8.0069 O   0  0  0  0  0  0  0  0  0  0  0  0
   -7.9446  -11.2153   -8.6630 P   0  0  1  0  0  0  0  0  0  0  0  0
  -12.4584   -9.8938   -6.9100 C   0  0  2  0  0  0  0  0  0  0  0  0
  -11.6844  -12.1160   -4.3137 N   0  0  0  0  0  0  0  0  0  0  0  0
  -11.3131   -7.8434   -6.4854 O   0  0  0  0  0  0  0  0  0  0  0  0
  -11.2204   -9.1151   -7.1380 C   0  0  2  0  0  0  0  0  0  0  0  0
  -13.5512  -11.5633   -1.5794 N   0  0  0  0  0  0  0  0  0  0  0  0
  -12.0898   -8.0725   -9.0884 O   0  0  0  0  0  0  0  0  0  0  0  0
  -11.1345   -9.0241   -8.5904 C   0  0  2  0  0  0  0  0  0  0  0  0
  -12.2246  -11.0997   -3.6238 C   0  0  0  0  0  0  0  0  0  0  0  0
  -13.1844   -8.8802   -4.1860 N   0  0  0  0  0  0  0  0  0  0  0  0
   -9.3060  -10.5589   -9.0804 O   0  0  0  0  0  0  0  0  0  0  0  0
  -10.4600  -11.3348   -9.0702 C   0  0  0  0  0  0  0  0  0  0  0  0
   -8.3157  -12.0152   -7.3619 O   0  0  0  0  0  0  0  0  0  0  0  0
  -11.7234  -11.7914   -5.6200 C   0  0  0  0  0  0  0  0  0  0  0  0
  -11.5239  -10.5342   -1.4498 O   0  0  0  0  0  0  0  0  0  0  0  0
  -12.3903  -11.0447   -2.1595 C   0  0  0  0  0  0  0  0  0  0  0  0
  -12.5970  -10.1257   -4.5059 C   0  0  0  0  0  0  0  0  0  0  0  0
   -7.4286  -12.0571   -9.7823 O   0  5  0  0  0  0  0  0  0  0  0  0
   -6.8863  -10.1956   -8.5489 O   0  0  0  0  0  0  0  0  0  0  0  0
  1 17  1  0  0  0  0
  1 20  1  0  0  0  0
  2 15  1  1  0  0  0
  2  3  1  0  0  0  0
  2 11  1  0  0  0  0
  3  5  1  0  0  0  0
  4 16  1  1  0  0  0
  4 21  1  0  0  0  0
  4 22  2  0  0  0  0
  4 14  1  0  0  0  0
  5  1  1  1  0  0  0
  5  8  1  0  0  0  0
  6 17  2  0  0  0  0
  6 12  1  0  0  0  0
  8  7  1  1  0  0  0
  8 11  1  0  0  0  0
  9 19  1  0  0  0  0
 11 10  1  6  0  0  0
 12 20  2  0  0  0  0
 12 19  1  0  0  0  0
 13 20  1  0  0  0  0
 14 15  1  0  0  0  0
 18 19  2  0  0  0  0
M  CHG  1  21  -1
M  END
>  <CHROM.1>
24.16181688,-133.24761275,-45.49415107,160.61553815,-88.35219616,-10.83034917
-10.49135471,-6.61462000,2.27603523,-0.55590588,1.96792145

>  <Name>
ligand

>  <RI>
0

>  <Rbt.Current_Directory>
/home/itssahil/PROJECTS/Mol_Feturizer/New_Systems/rnas/4XWF

>  <Rbt.Executable>
rbdock ($Id: //depot/dev/client3/rdock/2013.1/src/exe/rbdock.cxx#4 $)

>  <Rbt.Library>
libRbt.so (2013.1, Build901 2013/11/27)

>  <Rbt.Parameter_File>
/export/apps/rDock/src/rDock_2013.1_src/data/scripts/dock_solv.prm

>  <Rbt.Receptor>
prm/blind_docking_20.prm

>  <SCORE>
5.24176

>  <SCORE.INTER>
-1.21834

>  <SCORE.INTER.CONST>
1

>  <SCORE.INTER.POLAR>
0

>  <SCORE.INTER.ROT>
5

>  <SCORE.INTER.SOLV>
23.7179

>  <SCORE.INTER.VDW>
-15.6515

>  <SCORE.INTER.norm>
-0.055379

>  <SCORE.INTRA>
5.40682

>  <SCORE.INTRA.DIHEDRAL>
5.45855

>  <SCORE.INTRA.DIHEDRAL.0>
3.49807

>  <SCORE.INTRA.POLAR>
0

>  <SCORE.INTRA.POLAR.0>
0

>  <SCORE.INTRA.REPUL>
0

>  <SCORE.INTRA.REPUL.0>
0

>  <SCORE.INTRA.SOLV>
0.624539

>  <SCORE.INTRA.SOLV.lig_0>
-73.062

>  <SCORE.INTRA.VDW>
2.36528

>  <SCORE.INTRA.VDW.0>
-1.83782

>  <SCORE.INTRA.norm>
0.245765

>  <SCORE.RESTR>
1.05327

>  <SCORE.RESTR.CAVITY>
1.05327

>  <SCORE.RESTR.norm>
0.047876

>  <SCORE.SYSTEM>
0

>  <SCORE.SYSTEM.CONST>
0

>  <SCORE.SYSTEM.DIHEDRAL>
0

>  <SCORE.SYSTEM.SOLV>
0

>  <SCORE.SYSTEM.norm>
0

>  <SCORE.heavy>
22

>  <SCORE.norm>
0.238262

>  <RMSD>
23.371

$$$$
ligand
 OpenBabel11021811513D
libRbt.so/2013.1/901 2013/11/27
 22 23  0  0  0  0  0  0  0  0999 V2000
  -11.9872  -10.2980   -5.7657 N   0  0  0  0  0  0  0  0  0  0  0  0
  -11.5074   -9.9905   -9.1015 C   0  0  1  0  0  0  0  0  0  0  0  0
  -12.3897  -10.4363   -8.0326 O   0  0  0  0  0  0  0  0  0  0  0  0
   -8.0372  -11.2650   -8.4430 P   0  0  1  0  0  0  0  0  0  0  0  0
  -12.2066   -9.5588   -6.9096 C   0  0  2  0  0  0  0  0  0  0  0  0
  -11.2310  -11.8266   -4.4230 N   0  0  0  0  0  0  0  0  0  0  0  0
  -10.9166   -7.5949   -6.4916 O   0  0  0  0  0  0  0  0  0  0  0  0
  -10.9427   -8.8430   -7.1940 C   0  0  2  0  0  0  0  0  0  0  0  0
  -13.3869  -11.7617   -1.8182 N   0  0  0  0  0  0  0  0  0  0  0  0
  -11.8763   -7.6764   -9.0418 O   0  0  0  0  0  0  0  0  0  0  0  0
  -10.9480   -8.6995   -8.6446 C   0  0  2  0  0  0  0  0  0  0  0  0
  -11.9850  -10.9771   -3.7086 C   0  0  0  0  0  0  0  0  0  0  0  0
  -13.2780   -8.9126   -4.1877 N   0  0  0  0  0  0  0  0  0  0  0  0
   -9.4985  -10.7207   -8.2787 O   0  0  0  0  0  0  0  0  0  0  0  0
  -10.4446  -11.0239   -9.2517 C   0  0  0  0  0  0  0  0  0  0  0  0
   -7.1677   -9.9560   -8.4719 O   0  0  0  0  0  0  0  0  0  0  0  0
  -11.2391  -11.4057   -5.7022 C   0  0  0  0  0  0  0  0  0  0  0  0
  -11.5011  -10.5402   -1.4475 O   0  0  0  0  0  0  0  0  0  0  0  0
  -12.2548  -11.0730   -2.2620 C   0  0  0  0  0  0  0  0  0  0  0  0
  -12.4622  -10.0100   -4.5466 C   0  0  0  0  0  0  0  0  0  0  0  0
   -7.7188  -12.1961   -7.3207 O   0  5  0  0  0  0  0  0  0  0  0  0
   -7.9423  -12.1635   -9.6076 O   0  0  0  0  0  0  0  0  0  0  0  0
  1 17  1  0  0  0  0
  1 20  1  0  0  0  0
  2 15  1  1  0  0  0
  2  3  1  0  0  0  0
  2 11  1  0  0  0  0
  3  5  1  0  0  0  0
  4 16  1  6  0  0  0
  4 21  1  0  0  0  0
  4 22  2  0  0  0  0
  4 14  1  0  0  0  0
  5  1  1  1  0  0  0
  5  8  1  0  0  0  0
  6 17  2  0  0  0  0
  6 12  1  0  0  0  0
  8  7  1  1  0  0  0
  8 11  1  0  0  0  0
  9 19  1  0  0  0  0
 11 10  1  1  0  0  0
 12 20  2  0  0  0  0
 12 19  1  0  0  0  0
 13 20  1  0  0  0  0
 14 15  1  0  0  0  0
 18 19  2  0  0  0  0
M  CHG  1  21  -1
M  END
>  <CHROM.1>
39.82829978,-83.01194136,120.67109750,-159.13352851,-92.03909822,-10.71820977
-10.35564815,-6.58262228,2.28431166,-0.63501423,2.03430002

>  <Name>
ligand

>  <RI>
0

>  <Rbt.Current_Directory>
/home/itssahil/PROJECTS/Mol_Feturizer/New_Systems/rnas/4XWF

>  <Rbt.Executable>
rbdock ($Id: //depot/dev/client3/rdock/2013.1/src/exe/rbdock.cxx#4 $)

>  <Rbt.Library>
libRbt.so (2013.1, Build901 2013/11/27)

>  <Rbt.Parameter_File>
/export/apps/rDock/src/rDock_2013.1_src/data/scripts/dock_solv.prm

>  <Rbt.Receptor>
prm/blind_docking_20.prm

>  <SCORE>
4.42524

>  <SCORE.INTER>
-1.53913

>  <SCORE.INTER.CONST>
1

>  <SCORE.INTER.POLAR>
0

>  <SCORE.INTER.ROT>
5

>  <SCORE.INTER.SOLV>
20.5284

>  <SCORE.INTER.VDW>
-14.8022

>  <SCORE.INTER.norm>
-0.0699606

>  <SCORE.INTRA>
4.89088

>  <SCORE.INTRA.DIHEDRAL>
4.67105

>  <SCORE.INTRA.DIHEDRAL.0>
3.49807

>  <SCORE.INTRA.POLAR>
0

>  <SCORE.INTRA.POLAR.0>
0

>  <SCORE.INTRA.REPUL>
0

>  <SCORE.INTRA.REPUL.0>
0

>  <SCORE.INTRA.SOLV>
0.679285

>  <SCORE.INTRA.SOLV.lig_0>
-73.062

>  <SCORE.INTRA.VDW>
2.21571

>  <SCORE.INTRA.VDW.0>
-1.83782

>  <SCORE.INTRA.norm>
0.222313

>  <SCORE.RESTR>
1.0735

>  <SCORE.RESTR.CAVITY>
1.0735

>  <SCORE.RESTR.norm>
0.0487953

>  <SCORE.SYSTEM>
0

>  <SCORE.SYSTEM.CONST>
0

>  <SCORE.SYSTEM.DIHEDRAL>
0

>  <SCORE.SYSTEM.SOLV>
0

>  <SCORE.SYSTEM.norm>
0

>  <SCORE.heavy>
22

>  <SCORE.norm>
0.201147

>  <RMSD>
23.377

$$$$
ligand
 OpenBabel11021811513D
libRbt.so/2013.1/901 2013/11/27
 22 23  0  0  0  0  0  0  0  0999 V2000
  -12.0381  -10.3567   -5.7389 N   0  0  0  0  0  0  0  0  0  0  0  0
  -11.5214  -10.1279   -9.0755 C   0  0  1  0  0  0  0  0  0  0  0  0
  -12.4064  -10.5669   -8.0060 O   0  0  0  0  0  0  0  0  0  0  0  0
   -7.9361  -11.2860   -8.6716 P   0  0  1  0  0  0  0  0  0  0  0  0
  -12.2608   -9.6548   -6.9055 C   0  0  2  0  0  0  0  0  0  0  0  0
  -11.2795  -11.8422   -4.3500 N   0  0  0  0  0  0  0  0  0  0  0  0
  -11.0267   -7.6478   -6.5252 O   0  0  0  0  0  0  0  0  0  0  0  0
  -11.0117   -8.9148   -7.1932 C   0  0  2  0  0  0  0  0  0  0  0  0
  -13.4649  -11.6183   -1.7451 N   0  0  0  0  0  0  0  0  0  0  0  0
  -11.9496   -7.8233   -9.0843 O   0  0  0  0  0  0  0  0  0  0  0  0
  -11.0011   -8.8110   -8.6473 C   0  0  2  0  0  0  0  0  0  0  0  0
  -12.0289  -10.9682   -3.6607 C   0  0  0  0  0  0  0  0  0  0  0  0
  -13.3197   -8.9178   -4.2018 N   0  0  0  0  0  0  0  0  0  0  0  0
   -9.2903  -10.4967   -8.7116 O   0  0  0  0  0  0  0  0  0  0  0  0
  -10.4308  -11.1373   -9.1835 C   0  0  0  0  0  0  0  0  0  0  0  0
   -7.8690  -11.9559  -10.0919 O   0  0  0  0  0  0  0  0  0  0  0  0
  -11.2919  -11.4633   -5.6422 C   0  0  0  0  0  0  0  0  0  0  0  0
  -11.4988  -10.5186   -1.4125 O   0  0  0  0  0  0  0  0  0  0  0  0
  -12.2929  -11.0162   -2.2106 C   0  0  0  0  0  0  0  0  0  0  0  0
  -12.5076  -10.0280   -4.5280 C   0  0  0  0  0  0  0  0  0  0  0  0
   -6.8151  -10.3457   -8.3761 O   0  5  0  0  0  0  0  0  0  0  0  0
   -7.8870  -12.1805   -7.5011 O   0  0  0  0  0  0  0  0  0  0  0  0
  1 17  1  0  0  0  0
  1 20  1  0  0  0  0
  2 15  1  1  0  0  0
  2  3  1  0  0  0  0
  2 11  1  0  0  0  0
  3  5  1  0  0  0  0
  4 16  1  6  0  0  0
  4 21  1  0  0  0  0
  4 22  2  0  0  0  0
  4 14  1  0  0  0  0
  5  1  1  1  0  0  0
  5  8  1  0  0  0  0
  6 17  2  0  0  0  0
  6 12  1  0  0  0  0
  8  7  1  1  0  0  0
  8 11  1  0  0  0  0
  9 19  1  0  0  0  0
 11 10  1  1  0  0  0
 12 20  2  0  0  0  0
 12 19  1  0  0  0  0
 13 20  1  0  0  0  0
 14 15  1  0  0  0  0
 18 19  2  0  0  0  0
M  CHG  1  21  -1
M  END
>  <CHROM.1>
37.94279181,-109.68903776,47.16540955,179.45867111,-95.82757205,-10.71849819
-10.38879718,-6.63627841,2.28078609,-0.60204076,1.98755386

>  <Name>
ligand

>  <RI>
0

>  <Rbt.Current_Directory>
/home/itssahil/PROJECTS/Mol_Feturizer/New_Systems/rnas/4XWF

>  <Rbt.Executable>
rbdock ($Id: //depot/dev/client3/rdock/2013.1/src/exe/rbdock.cxx#4 $)

>  <Rbt.Library>
libRbt.so (2013.1, Build901 2013/11/27)

>  <Rbt.Parameter_File>
/export/apps/rDock/src/rDock_2013.1_src/data/scripts/dock_solv.prm

>  <Rbt.Receptor>
prm/blind_docking_20.prm

>  <SCORE>
5.40231

>  <SCORE.INTER>
-1.24324

>  <SCORE.INTER.CONST>
1

>  <SCORE.INTER.POLAR>
0

>  <SCORE.INTER.ROT>
5

>  <SCORE.INTER.SOLV>
25.1902

>  <SCORE.INTER.VDW>
-16.1589

>  <SCORE.INTER.norm>
-0.0565109

>  <SCORE.INTRA>
5.38498

>  <SCORE.INTRA.DIHEDRAL>
3.66808

>  <SCORE.INTRA.DIHEDRAL.0>
3.49807

>  <SCORE.INTRA.POLAR>
0

>  <SCORE.INTRA.POLAR.0>
0

>  <SCORE.INTRA.REPUL>
0

>  <SCORE.INTRA.REPUL.0>
0

>  <SCORE.INTRA.SOLV>
0.353991

>  <SCORE.INTRA.SOLV.lig_0>
-73.062

>  <SCORE.INTRA.VDW>
3.37395

>  <SCORE.INTRA.VDW.0>
-1.83782

>  <SCORE.INTRA.norm>
0.244772

>  <SCORE.RESTR>
1.26056

>  <SCORE.RESTR.CAVITY>
1.26056

>  <SCORE.RESTR.norm>
0.0572983

>  <SCORE.SYSTEM>
0

>  <SCORE.SYSTEM.CONST>
0

>  <SCORE.SYSTEM.DIHEDRAL>
0

>  <SCORE.SYSTEM.SOLV>
0

>  <SCORE.SYSTEM.norm>
0

>  <SCORE.heavy>
22

>  <SCORE.norm>
0.245559

>  <RMSD>
23.381

$$$$
ligand
 OpenBabel11021811513D
libRbt.so/2013.1/901 2013/11/27
 22 23  0  0  0  0  0  0  0  0999 V2000
  -12.0145  -10.3415   -5.7669 N   0  0  0  0  0  0  0  0  0  0  0  0
  -11.5174  -10.0715   -9.1034 C   0  0  1  0  0  0  0  0  0  0  0  0
  -12.3947  -10.5266   -8.0343 O   0  0  0  0  0  0  0  0  0  0  0  0
   -8.0207  -11.3475   -8.4167 P   0  0  1  0  0  0  0  0  0  0  0  0
  -12.2465   -9.6268   -6.9239 C   0  0  2  0  0  0  0  0  0  0  0  0
  -11.2388  -11.8374   -4.3988 N   0  0  0  0  0  0  0  0  0  0  0  0
  -11.0183   -7.6194   -6.5270 O   0  0  0  0  0  0  0  0  0  0  0  0
  -11.0020   -8.8784   -7.2099 C   0  0  2  0  0  0  0  0  0  0  0  0
  -13.4024  -11.6983   -1.7847 N   0  0  0  0  0  0  0  0  0  0  0  0
  -11.9548   -7.7687   -9.0828 O   0  0  0  0  0  0  0  0  0  0  0  0
  -10.9999   -8.7576   -8.6627 C   0  0  2  0  0  0  0  0  0  0  0  0
  -11.9947  -10.9793   -3.6967 C   0  0  0  0  0  0  0  0  0  0  0  0
  -13.3060   -8.9343   -4.2087 N   0  0  0  0  0  0  0  0  0  0  0  0
   -9.4079  -10.6168   -8.3973 O   0  0  0  0  0  0  0  0  0  0  0  0
  -10.4235  -11.0752   -9.2294 C   0  0  0  0  0  0  0  0  0  0  0  0
   -8.1244  -12.3470   -7.2081 O   0  0  0  0  0  0  0  0  0  0  0  0
  -11.2578  -11.4421   -5.6861 C   0  0  0  0  0  0  0  0  0  0  0  0
  -11.4794  -10.5267   -1.4458 O   0  0  0  0  0  0  0  0  0  0  0  0
  -12.2548  -11.0483   -2.2468 C   0  0  0  0  0  0  0  0  0  0  0  0
  -12.4842  -10.0327   -4.5508 C   0  0  0  0  0  0  0  0  0  0  0  0
   -7.8145  -11.9987   -9.7439 O   0  5  0  0  0  0  0  0  0  0  0  0
   -6.9160  -10.3719   -8.3922 O   0  0  0  0  0  0  0  0  0  0  0  0
  1 17  1  0  0  0  0
  1 20  1  0  0  0  0
  2 15  1  1  0  0  0
  2  3  1  0  0  0  0
  2 11  1  0  0  0  0
  3  5  1  0  0  0  0
  4 16  1  1  0  0  0
  4 21  1  0  0  0  0
  4 22  2  0  0  0  0
  4 14  1  0  0  0  0
  5  1  1  1  0  0  0
  5  8  1  0  0  0  0
  6 17  2  0  0  0  0
  6 12  1  0  0  0  0
  8  7  1  1  0  0  0
  8 11  1  0  0  0  0
  9 19  1  0  0  0  0
 11 10  1  1  0  0  0
 12 20  2  0  0  0  0
 12 19  1  0  0  0  0
 13 20  1  0  0  0  0
 14 15  1  0  0  0  0
 18 19  2  0  0  0  0
M  CHG  1  21  -1
M  END
>  <CHROM.1>
38.30887478,-91.62736897,-96.17172577,-172.67239910,-94.14144642,-10.73213194
-10.40095425,-6.58501725,2.28157200,-0.62096059,2.00717294

>  <Name>
ligand

>  <RI>
0

>  <Rbt.Current_Directory>
/home/itssahil/PROJECTS/Mol_Feturizer/New_Systems/rnas/4XWF

>  <Rbt.Executable>
rbdock ($Id: //depot/dev/client3/rdock/2013.1/src/exe/rbdock.cxx#4 $)

>  <Rbt.Library>
libRbt.so (2013.1, Build901 2013/11/27)

>  <Rbt.Parameter_File>
/export/apps/rDock/src/rDock_2013.1_src/data/scripts/dock_solv.prm

>  <Rbt.Receptor>
prm/blind_docking_20.prm

>  <SCORE>
4.56915

>  <SCORE.INTER>
-1.24066

>  <SCORE.INTER.CONST>
1

>  <SCORE.INTER.POLAR>
0

>  <SCORE.INTER.ROT>
5

>  <SCORE.INTER.SOLV>
23.5912

>  <SCORE.INTER.VDW>
-15.6242

>  <SCORE.INTER.norm>
-0.0563938

>  <SCORE.INTRA>
4.61005

>  <SCORE.INTRA.DIHEDRAL>
3.30855

>  <SCORE.INTRA.DIHEDRAL.0>
3.49807

>  <SCORE.INTRA.POLAR>
0

>  <SCORE.INTRA.POLAR.0>
0

>  <SCORE.INTRA.REPUL>
0

>  <SCORE.INTRA.REPUL.0>
0

>  <SCORE.INTRA.SOLV>
0.745424

>  <SCORE.INTRA.SOLV.lig_0>
-73.062

>  <SCORE.INTRA.VDW>
2.58306

>  <SCORE.INTRA.VDW.0>
-1.83782

>  <SCORE.INTRA.norm>
0.209548

>  <SCORE.RESTR>
1.19977

>  <SCORE.RESTR.CAVITY>
1.19977

>  <SCORE.RESTR.norm>
0.0545349

>  <SCORE.SYSTEM>
0

>  <SCORE.SYSTEM.CONST>
0

>  <SCORE.SYSTEM.DIHEDRAL>
0

>  <SCORE.SYSTEM.SOLV>
0

>  <SCORE.SYSTEM.norm>
0

>  <SCORE.heavy>
22

>  <SCORE.norm>
0.207689

>  <RMSD>
23.394

$$$$
ligand
 OpenBabel11021811513D
libRbt.so/2013.1/901 2013/11/27
 22 23  0  0  0  0  0  0  0  0999 V2000
  -12.0681  -10.3894   -5.7915 N   0  0  0  0  0  0  0  0  0  0  0  0
  -11.4621   -9.9879   -9.0967 C   0  0  1  0  0  0  0  0  0  0  0  0
  -12.3813  -10.4691   -8.0753 O   0  0  0  0  0  0  0  0  0  0  0  0
   -7.9489  -11.2697   -8.5235 P   0  0  1  0  0  0  0  0  0  0  0  0
  -12.2494   -9.6211   -6.9230 C   0  0  2  0  0  0  0  0  0  0  0  0
  -11.4089  -11.9881   -4.4799 N   0  0  0  0  0  0  0  0  0  0  0  0
  -10.9933   -7.6596   -6.4025 O   0  0  0  0  0  0  0  0  0  0  0  0
  -10.9815   -8.8884   -7.1385 C   0  0  2  0  0  0  0  0  0  0  0  0
  -11.5100  -10.4903   -1.4055 N   0  0  0  0  0  0  0  0  0  0  0  0
  -11.8528   -7.6792   -8.9895 O   0  0  0  0  0  0  0  0  0  0  0  0
  -10.9318   -8.7057   -8.5840 C   0  0  2  0  0  0  0  0  0  0  0  0
  -12.0836  -11.0926   -3.7426 C   0  0  0  0  0  0  0  0  0  0  0  0
  -13.2225   -8.9295   -4.1754 N   0  0  0  0  0  0  0  0  0  0  0  0
   -9.3353  -10.5408   -8.4506 O   0  0  0  0  0  0  0  0  0  0  0  0
  -10.3854  -11.0089   -9.2330 C   0  0  0  0  0  0  0  0  0  0  0  0
   -6.9167  -10.0895   -8.4137 O   0  0  0  0  0  0  0  0  0  0  0  0
  -11.4061  -11.5516   -5.7538 C   0  0  0  0  0  0  0  0  0  0  0  0
  -13.2549  -11.8810   -1.8601 O   0  0  0  0  0  0  0  0  0  0  0  0
  -12.3357  -11.1860   -2.2927 C   0  0  0  0  0  0  0  0  0  0  0  0
  -12.4993  -10.0814   -4.5611 C   0  0  0  0  0  0  0  0  0  0  0  0
   -7.8543  -12.2799   -7.4288 O   0  5  0  0  0  0  0  0  0  0  0  0
   -7.8707  -12.1248   -9.7215 O   0  0  0  0  0  0  0  0  0  0  0  0
  1 17  1  0  0  0  0
  1 20  1  0  0  0  0
  2 15  1  1  0  0  0
  2  3  1  0  0  0  0
  2 11  1  0  0  0  0
  3  5  1  0  0  0  0
  4 16  1  1  0  0  0
  4 21  1  0  0  0  0
  4 22  2  0  0  0  0
  4 14  1  0  0  0  0
  5  1  1  1  0  0  0
  5  8  1  0  0  0  0
  6 17  2  0  0  0  0
  6 12  1  0  0  0  0
  8  7  1  1  0  0  0
  8 11  1  0  0  0  0
  9 19  1  0  0  0  0
 11 10  1  1  0  0  0
 12 20  2  0  0  0  0
 12 19  1  0  0  0  0
 13 20  1  0  0  0  0
 14 15  1  0  0  0  0
 18 19  2  0  0  0  0
M  CHG  1  21  -1
M  END
>  <CHROM.1>
33.95172477,-97.21472948,142.68968311,-171.27695391,97.86975282,-10.72134965
-10.40348064,-6.60692640,2.31721759,-0.63386102,2.07082953

>  <Name>
ligand

>  <RI>
0

>  <Rbt.Current_Directory>
/home/itssahil/PROJECTS/Mol_Feturizer/New_Systems/rnas/4XWF

>  <Rbt.Executable>
rbdock ($Id: //depot/dev/client3/rdock/2013.1/src/exe/rbdock.cxx#4 $)

>  <Rbt.Library>
libRbt.so (2013.1, Build901 2013/11/27)

>  <Rbt.Parameter_File>
/export/apps/rDock/src/rDock_2013.1_src/data/scripts/dock_solv.prm

>  <Rbt.Receptor>
prm/blind_docking_20.prm

>  <SCORE>
3.49822

>  <SCORE.INTER>
-3.26374

>  <SCORE.INTER.CONST>
1

>  <SCORE.INTER.POLAR>
0

>  <SCORE.INTER.ROT>
5

>  <SCORE.INTER.SOLV>
19.9821

>  <SCORE.INTER.VDW>
-15.7699

>  <SCORE.INTER.norm>
-0.148352

>  <SCORE.INTRA>
5.54683

>  <SCORE.INTRA.DIHEDRAL>
4.02044

>  <SCORE.INTRA.DIHEDRAL.0>
3.49807

>  <SCORE.INTRA.POLAR>
0

>  <SCORE.INTRA.POLAR.0>
0

>  <SCORE.INTRA.REPUL>
0

>  <SCORE.INTRA.REPUL.0>
0

>  <SCORE.INTRA.SOLV>
0.942114

>  <SCORE.INTRA.SOLV.lig_0>
-73.062

>  <SCORE.INTRA.VDW>
3.06555

>  <SCORE.INTRA.VDW.0>
-1.83782

>  <SCORE.INTRA.norm>
0.252129

>  <SCORE.RESTR>
1.21514

>  <SCORE.RESTR.CAVITY>
1.21514

>  <SCORE.RESTR.norm>
0.0552334

>  <SCORE.SYSTEM>
0

>  <SCORE.SYSTEM.CONST>
0

>  <SCORE.SYSTEM.DIHEDRAL>
0

>  <SCORE.SYSTEM.SOLV>
0

>  <SCORE.SYSTEM.norm>
0

>  <SCORE.heavy>
22

>  <SCORE.norm>
0.15901

>  <RMSD>
23.398

$$$$
ligand
 OpenBabel11021811513D
libRbt.so/2013.1/901 2013/11/27
 22 23  0  0  0  0  0  0  0  0999 V2000
  -12.1737  -10.5252   -5.7257 N   0  0  0  0  0  0  0  0  0  0  0  0
  -11.5199  -10.3494   -9.0415 C   0  0  1  0  0  0  0  0  0  0  0  0
  -12.4333  -10.8000   -8.0010 O   0  0  0  0  0  0  0  0  0  0  0  0
   -7.8685  -11.2225   -8.6825 P   0  0  1  0  0  0  0  0  0  0  0  0
  -12.3721   -9.8587   -6.9172 C   0  0  2  0  0  0  0  0  0  0  0  0
  -11.5053  -12.0106   -4.2912 N   0  0  0  0  0  0  0  0  0  0  0  0
  -11.2357   -7.7957   -6.5320 O   0  0  0  0  0  0  0  0  0  0  0  0
  -11.1416   -9.0755   -7.1684 C   0  0  2  0  0  0  0  0  0  0  0  0
  -13.5551  -11.5015   -1.6315 N   0  0  0  0  0  0  0  0  0  0  0  0
  -12.0373   -8.0646   -9.1236 O   0  0  0  0  0  0  0  0  0  0  0  0
  -11.0710   -9.0035   -8.6226 C   0  0  2  0  0  0  0  0  0  0  0  0
  -12.1478  -11.0411   -3.6219 C   0  0  0  0  0  0  0  0  0  0  0  0
  -13.2651   -8.9066   -4.2208 N   0  0  0  0  0  0  0  0  0  0  0  0
   -9.2372  -10.5361   -9.0203 O   0  0  0  0  0  0  0  0  0  0  0  0
  -10.3868  -11.3163   -9.0783 C   0  0  0  0  0  0  0  0  0  0  0  0
   -6.8957  -10.0042   -8.4823 O   0  0  0  0  0  0  0  0  0  0  0  0
  -11.5282  -11.6904   -5.5991 C   0  0  0  0  0  0  0  0  0  0  0  0
  -11.5142  -10.5142   -1.4178 O   0  0  0  0  0  0  0  0  0  0  0  0
  -12.3645  -10.9995   -2.1638 C   0  0  0  0  0  0  0  0  0  0  0  0
  -12.5690  -10.1006   -4.5181 C   0  0  0  0  0  0  0  0  0  0  0  0
   -8.0264  -12.0938   -7.4809 O   0  5  0  0  0  0  0  0  0  0  0  0
   -7.5095  -12.2091   -9.7171 O   0  0  0  0  0  0  0  0  0  0  0  0
  1 17  1  0  0  0  0
  1 20  1  0  0  0  0
  2 15  1  1  0  0  0
  2  3  1  0  0  0  0
  2 11  1  0  0  0  0
  3  5  1  0  0  0  0
  4 16  1  1  0  0  0
  4 21  1  0  0  0  0
  4 22  2  0  0  0  0
  4 14  1  0  0  0  0
  5  1  1  1  0  0  0
  5  8  1  0  0  0  0
  6 17  2  0  0  0  0
  6 12  1  0  0  0  0
  8  7  1  1  0  0  0
  8 11  1  0  0  0  0
  9 19  1  0  0  0  0
 11 10  1  6  0  0  0
 12 20  2  0  0  0  0
 12 19  1  0  0  0  0
 13 20  1  0  0  0  0
 14 15  1  0  0  0  0
 18 19  2  0  0  0  0
M  CHG  1  21  -1
M  END
>  <CHROM.1>
29.12838968,-129.37843224,-171.06631479,164.96974446,-94.16036156,-10.76433176
-10.46656038,-6.62105006,2.28585364,-0.56459032,1.96965518

>  <Name>
ligand

>  <RI>
0

>  <Rbt.Current_Directory>
/home/itssahil/PROJECTS/Mol_Feturizer/New_Systems/rnas/4XWF

>  <Rbt.Executable>
rbdock ($Id: //depot/dev/client3/rdock/2013.1/src/exe/rbdock.cxx#4 $)

>  <Rbt.Library>
libRbt.so (2013.1, Build901 2013/11/27)

>  <Rbt.Parameter_File>
/export/apps/rDock/src/rDock_2013.1_src/data/scripts/dock_solv.prm

>  <Rbt.Receptor>
prm/blind_docking_20.prm

>  <SCORE>
3.63274

>  <SCORE.INTER>
-2.86571

>  <SCORE.INTER.CONST>
1

>  <SCORE.INTER.POLAR>
0

>  <SCORE.INTER.ROT>
5

>  <SCORE.INTER.SOLV>
19.7288

>  <SCORE.INTER.VDW>
-15.4201

>  <SCORE.INTER.norm>
-0.13026

>  <SCORE.INTRA>
5.54602

>  <SCORE.INTRA.DIHEDRAL>
4.67218

>  <SCORE.INTRA.DIHEDRAL.0>
3.49807

>  <SCORE.INTRA.POLAR>
0

>  <SCORE.INTRA.POLAR.0>
0

>  <SCORE.INTRA.REPUL>
0

>  <SCORE.INTRA.REPUL.0>
0

>  <SCORE.INTRA.SOLV>
1.43412

>  <SCORE.INTRA.SOLV.lig_0>
-73.062

>  <SCORE.INTRA.VDW>
2.49287

>  <SCORE.INTRA.VDW.0>
-1.83782

>  <SCORE.INTRA.norm>
0.252092

>  <SCORE.RESTR>
0.952431

>  <SCORE.RESTR.CAVITY>
0.952431

>  <SCORE.RESTR.norm>
0.0432923

>  <SCORE.SYSTEM>
0

>  <SCORE.SYSTEM.CONST>
0

>  <SCORE.SYSTEM.DIHEDRAL>
0

>  <SCORE.SYSTEM.SOLV>
0

>  <SCORE.SYSTEM.norm>
0

>  <SCORE.heavy>
22

>  <SCORE.norm>
0.165125

>  <RMSD>
23.401

$$$$
ligand
 OpenBabel11021811513D
libRbt.so/2013.1/901 2013/11/27
 22 23  0  0  0  0  0  0  0  0999 V2000
  -12.8380  -10.0317   -5.8850 N   0  0  0  0  0  0  0  0  0  0  0  0
  -11.2110  -10.6763   -8.7816 C   0  0  1  0  0  0  0  0  0  0  0  0
  -12.4316  -10.8431   -8.0055 O   0  0  0  0  0  0  0  0  0  0  0  0
   -7.7346  -11.3393   -8.7547 P   0  0  1  0  0  0  0  0  0  0  0  0
  -12.6079   -9.6692   -7.1961 C   0  0  2  0  0  0  0  0  0  0  0  0
  -13.7777  -10.1960   -3.9354 N   0  0  0  0  0  0  0  0  0  0  0  0
  -11.4485   -7.5981   -6.9464 O   0  0  0  0  0  0  0  0  0  0  0  0
  -11.2902   -8.9955   -7.2186 C   0  0  2  0  0  0  0  0  0  0  0  0
  -11.5097  -12.9782   -3.0696 N   0  0  0  0  0  0  0  0  0  0  0  0
  -11.4619   -8.4691   -9.5296 O   0  0  0  0  0  0  0  0  0  0  0  0
  -10.7824   -9.2787   -8.5554 C   0  0  2  0  0  0  0  0  0  0  0  0
  -12.6847  -10.9745   -3.9407 C   0  0  0  0  0  0  0  0  0  0  0  0
  -10.9253  -11.5585   -5.5919 N   0  0  0  0  0  0  0  0  0  0  0  0
   -9.1986  -11.6897   -9.1933 O   0  0  0  0  0  0  0  0  0  0  0  0
  -10.2153  -11.6466   -8.2456 C   0  0  0  0  0  0  0  0  0  0  0  0
   -6.8752  -11.7640  -10.0003 O   0  0  0  0  0  0  0  0  0  0  0  0
  -13.8671   -9.6066   -5.1429 C   0  0  0  0  0  0  0  0  0  0  0  0
  -12.4271  -11.4514   -1.6508 O   0  0  0  0  0  0  0  0  0  0  0  0
  -12.2058  -11.7941   -2.8121 C   0  0  0  0  0  0  0  0  0  0  0  0
  -12.0893  -10.8787   -5.1661 C   0  0  0  0  0  0  0  0  0  0  0  0
   -7.6477   -9.8905   -8.4064 O   0  5  0  0  0  0  0  0  0  0  0  0
   -7.4102  -11.9728   -7.4639 O   0  0  0  0  0  0  0  0  0  0  0  0
  1 17  1  0  0  0  0
  1 20  1  0  0  0  0
  2 15  1  1  0  0  0
  2  3  1  0  0  0  0
  2 11  1  0  0  0  0
  3  5  1  0  0  0  0
  4 16  1  6  0  0  0
  4 21  1  0  0  0  0
  4 22  2  0  0  0  0
  4 14  1  0  0  0  0
  5  1  1  1  0  0  0
  5  8  1  0  0  0  0
  6 17  2  0  0  0  0
  6 12  1  0  0  0  0
  8  7  1  6  0  0  0
  8 11  1  0  0  0  0
  9 19  1  0  0  0  0
 11 10  1  6  0  0  0
 12 20  2  0  0  0  0
 12 19  1  0  0  0  0
 13 20  1  0  0  0  0
 14 15  1  0  0  0  0
 18 19  2  0  0  0  0
M  CHG  1  21  -1
M  END
>  <CHROM.1>
-127.67876537,166.13648983,169.62488389,122.33599835,149.79187246,-10.75655988
-10.64190714,-6.81499494,2.43205111,-0.55076681,2.10615278

>  <Name>
ligand

>  <RI>
0

>  <Rbt.Current_Directory>
/home/itssahil/PROJECTS/Mol_Feturizer/New_Systems/rnas/4XWF

>  <Rbt.Executable>
rbdock ($Id: //depot/dev/client3/rdock/2013.1/src/exe/rbdock.cxx#4 $)

>  <Rbt.Library>
libRbt.so (2013.1, Build901 2013/11/27)

>  <Rbt.Parameter_File>
/export/apps/rDock/src/rDock_2013.1_src/data/scripts/dock_solv.prm

>  <Rbt.Receptor>
prm/blind_docking_20.prm

>  <SCORE>
7.91721

>  <SCORE.INTER>
-0.37062

>  <SCORE.INTER.CONST>
1

>  <SCORE.INTER.POLAR>
0

>  <SCORE.INTER.ROT>
5

>  <SCORE.INTER.SOLV>
27.7522

>  <SCORE.INTER.VDW>
-16.4312

>  <SCORE.INTER.norm>
-0.0168463

>  <SCORE.INTRA>
7.17756

>  <SCORE.INTRA.DIHEDRAL>
6.89328

>  <SCORE.INTRA.DIHEDRAL.0>
3.49807

>  <SCORE.INTRA.POLAR>
0

>  <SCORE.INTRA.POLAR.0>
0

>  <SCORE.INTRA.REPUL>
0

>  <SCORE.INTRA.REPUL.0>
0

>  <SCORE.INTRA.SOLV>
7.90139

>  <SCORE.INTRA.SOLV.lig_0>
-73.062

>  <SCORE.INTRA.VDW>
-0.219777

>  <SCORE.INTRA.VDW.0>
-1.83782

>  <SCORE.INTRA.norm>
0.326253

>  <SCORE.RESTR>
1.11027

>  <SCORE.RESTR.CAVITY>
1.11027

>  <SCORE.RESTR.norm>
0.0504669

>  <SCORE.SYSTEM>
0

>  <SCORE.SYSTEM.CONST>
0

>  <SCORE.SYSTEM.DIHEDRAL>
0

>  <SCORE.SYSTEM.SOLV>
0

>  <SCORE.SYSTEM.norm>
0

>  <SCORE.heavy>
22

>  <SCORE.norm>
0.359873

>  <RMSD>
23.404

$$$$
ligand
 OpenBabel11021811513D
libRbt.so/2013.1/901 2013/11/27
 22 23  0  0  0  0  0  0  0  0999 V2000
  -12.9196  -10.0141   -5.5792 N   0  0  0  0  0  0  0  0  0  0  0  0
  -11.3167  -10.2755   -8.5482 C   0  0  1  0  0  0  0  0  0  0  0  0
  -12.5006  -10.6073   -7.7684 O   0  0  0  0  0  0  0  0  0  0  0  0
   -7.7436  -11.5346   -8.5612 P   0  0  1  0  0  0  0  0  0  0  0  0
  -12.7515   -9.5245   -6.8580 C   0  0  2  0  0  0  0  0  0  0  0  0
  -13.7667  -10.3722   -3.6132 N   0  0  0  0  0  0  0  0  0  0  0  0
  -11.7575   -7.3932   -6.4511 O   0  0  0  0  0  0  0  0  0  0  0  0
  -11.4935   -8.7448   -6.8453 C   0  0  2  0  0  0  0  0  0  0  0  0
  -12.4555  -11.8547   -1.3795 N   0  0  0  0  0  0  0  0  0  0  0  0
  -11.7633   -8.0413   -9.0991 O   0  0  0  0  0  0  0  0  0  0  0  0
  -10.9970   -8.8713   -8.2101 C   0  0  2  0  0  0  0  0  0  0  0  0
  -12.6746  -11.1407   -3.7452 C   0  0  0  0  0  0  0  0  0  0  0  0
  -10.9941  -11.5520   -5.5257 N   0  0  0  0  0  0  0  0  0  0  0  0
   -9.1076  -10.8099   -8.8313 O   0  0  0  0  0  0  0  0  0  0  0  0
  -10.2332  -11.2020   -8.1151 C   0  0  0  0  0  0  0  0  0  0  0  0
   -6.7202  -10.3462   -8.4567 O   0  0  0  0  0  0  0  0  0  0  0  0
  -13.9131   -9.6686   -4.7521 C   0  0  0  0  0  0  0  0  0  0  0  0
  -11.4165  -13.0033   -3.0489 O   0  0  0  0  0  0  0  0  0  0  0  0
  -12.1427  -12.0636   -2.7255 C   0  0  0  0  0  0  0  0  0  0  0  0
  -12.1374  -10.9230   -4.9819 C   0  0  0  0  0  0  0  0  0  0  0  0
   -7.8534  -12.3684   -7.3281 O   0  5  0  0  0  0  0  0  0  0  0  0
   -7.4843  -12.5596   -9.5882 O   0  0  0  0  0  0  0  0  0  0  0  0
  1 17  1  0  0  0  0
  1 20  1  0  0  0  0
  2 15  1  1  0  0  0
  2  3  1  0  0  0  0
  2 11  1  0  0  0  0
  3  5  1  0  0  0  0
  4 16  1  1  0  0  0
  4 21  1  0  0  0  0
  4 22  2  0  0  0  0
  4 14  1  0  0  0  0
  5  1  1  1  0  0  0
  5  8  1  0  0  0  0
  6 17  2  0  0  0  0
  6 12  1  0  0  0  0
  8  7  1  6  0  0  0
  8 11  1  0  0  0  0
  9 19  1  0  0  0  0
 11 10  1  6  0  0  0
 12 20  2  0  0  0  0
 12 19  1  0  0  0  0
 13 20  1  0  0  0  0
 14 15  1  0  0  0  0
 18 19  2  0  0  0  0
M  CHG  1  21  -1
M  END
>  <CHROM.1>
-132.48314703,-177.09913764,-134.35424074,176.77488770,-23.21658633,-10.81704995
-10.64269337,-6.57709646,2.51465309,-0.60124174,2.19536926

>  <Name>
ligand

>  <RI>
0

>  <Rbt.Current_Directory>
/home/itssahil/PROJECTS/Mol_Feturizer/New_Systems/rnas/4XWF

>  <Rbt.Executable>
rbdock ($Id: //depot/dev/client3/rdock/2013.1/src/exe/rbdock.cxx#4 $)

>  <Rbt.Library>
libRbt.so (2013.1, Build901 2013/11/27)

>  <Rbt.Parameter_File>
/export/apps/rDock/src/rDock_2013.1_src/data/scripts/dock_solv.prm

>  <Rbt.Receptor>
prm/blind_docking_20.prm

>  <SCORE>
3.45627

>  <SCORE.INTER>
-2.3527

>  <SCORE.INTER.CONST>
1

>  <SCORE.INTER.POLAR>
0

>  <SCORE.INTER.ROT>
5

>  <SCORE.INTER.SOLV>
25.4147

>  <SCORE.INTER.VDW>
-16.9734

>  <SCORE.INTER.norm>
-0.106941

>  <SCORE.INTRA>
4.22828

>  <SCORE.INTRA.DIHEDRAL>
0.639065

>  <SCORE.INTRA.DIHEDRAL.0>
3.49807

>  <SCORE.INTRA.POLAR>
0

>  <SCORE.INTRA.POLAR.0>
0

>  <SCORE.INTRA.REPUL>
0

>  <SCORE.INTRA.REPUL.0>
0

>  <SCORE.INTRA.SOLV>
5.82363

>  <SCORE.INTRA.SOLV.lig_0>
-73.062

>  <SCORE.INTRA.VDW>
0.996934

>  <SCORE.INTRA.VDW.0>
-1.83782

>  <SCORE.INTRA.norm>
0.192195

>  <SCORE.RESTR>
1.58069

>  <SCORE.RESTR.CAVITY>
1.58069

>  <SCORE.RESTR.norm>
0.0718495

>  <SCORE.SYSTEM>
0

>  <SCORE.SYSTEM.CONST>
0

>  <SCORE.SYSTEM.DIHEDRAL>
0

>  <SCORE.SYSTEM.SOLV>
0

>  <SCORE.SYSTEM.norm>
0

>  <SCORE.heavy>
22

>  <SCORE.norm>
0.157103

>  <RMSD>
23.407

$$$$
ligand
 OpenBabel11021811513D
libRbt.so/2013.1/901 2013/11/27
 22 23  0  0  0  0  0  0  0  0999 V2000
  -12.9051  -10.0063   -5.5749 N   0  0  0  0  0  0  0  0  0  0  0  0
  -11.3046  -10.2572   -8.5461 C   0  0  1  0  0  0  0  0  0  0  0  0
  -12.4930  -10.5817   -7.7701 O   0  0  0  0  0  0  0  0  0  0  0  0
   -7.7429  -11.5348   -8.5631 P   0  0  1  0  0  0  0  0  0  0  0  0
  -12.7300   -9.5053   -6.8484 C   0  0  2  0  0  0  0  0  0  0  0  0
  -13.7573  -10.3737   -3.6129 N   0  0  0  0  0  0  0  0  0  0  0  0
  -11.7082   -7.3918   -6.4187 O   0  0  0  0  0  0  0  0  0  0  0  0
  -11.4618   -8.7424   -6.8271 C   0  0  2  0  0  0  0  0  0  0  0  0
  -12.4780  -11.9056   -1.3967 N   0  0  0  0  0  0  0  0  0  0  0  0
  -11.7215   -8.0116   -9.0733 O   0  0  0  0  0  0  0  0  0  0  0  0
  -10.9666   -8.8610   -8.1930 C   0  0  2  0  0  0  0  0  0  0  0  0
  -12.6760  -11.1557   -3.7531 C   0  0  0  0  0  0  0  0  0  0  0  0
  -11.0011  -11.5712   -5.5379 N   0  0  0  0  0  0  0  0  0  0  0  0
   -9.1226  -10.8642   -8.8876 O   0  0  0  0  0  0  0  0  0  0  0  0
  -10.2335  -11.2024   -8.1226 C   0  0  0  0  0  0  0  0  0  0  0  0
   -6.7733  -10.3067   -8.4134 O   0  0  0  0  0  0  0  0  0  0  0  0
  -13.8938   -9.6560   -4.7441 C   0  0  0  0  0  0  0  0  0  0  0  0
  -11.4344  -13.0363   -3.0754 O   0  0  0  0  0  0  0  0  0  0  0  0
  -12.1570  -12.0968   -2.7433 C   0  0  0  0  0  0  0  0  0  0  0  0
  -12.1356  -10.9322   -4.9874 C   0  0  0  0  0  0  0  0  0  0  0  0
   -7.8698  -12.3775   -7.3377 O   0  5  0  0  0  0  0  0  0  0  0  0
   -7.4004  -12.5443   -9.5811 O   0  0  0  0  0  0  0  0  0  0  0  0
  1 17  1  0  0  0  0
  1 20  1  0  0  0  0
  2 15  1  1  0  0  0
  2  3  1  0  0  0  0
  2 11  1  0  0  0  0
  3  5  1  0  0  0  0
  4 16  1  1  0  0  0
  4 21  1  0  0  0  0
  4 22  2  0  0  0  0
  4 14  1  0  0  0  0
  5  1  1  1  0  0  0
  5  8  1  0  0  0  0
  6 17  2  0  0  0  0
  6 12  1  0  0  0  0
  8  7  1  6  0  0  0
  8 11  1  0  0  0  0
  9 19  1  0  0  0  0
 11 10  1  6  0  0  0
 12 20  2  0  0  0  0
 12 19  1  0  0  0  0
 13 20  1  0  0  0  0
 14 15  1  0  0  0  0
 18 19  2  0  0  0  0
M  CHG  1  21  -1
M  END
>  <CHROM.1>
-132.52783665,179.75418218,-127.61100403,171.74809342,-22.58775508,-10.80935242
-10.64435393,-6.57694619,2.52093906,-0.60744283,2.21114616

>  <Name>
ligand

>  <RI>
0

>  <Rbt.Current_Directory>
/home/itssahil/PROJECTS/Mol_Feturizer/New_Systems/rnas/4XWF

>  <Rbt.Executable>
rbdock ($Id: //depot/dev/client3/rdock/2013.1/src/exe/rbdock.cxx#4 $)

>  <Rbt.Library>
libRbt.so (2013.1, Build901 2013/11/27)

>  <Rbt.Parameter_File>
/export/apps/rDock/src/rDock_2013.1_src/data/scripts/dock_solv.prm

>  <Rbt.Receptor>
prm/blind_docking_20.prm

>  <SCORE>
3.43468

>  <SCORE.INTER>
-2.57885

>  <SCORE.INTER.CONST>
1

>  <SCORE.INTER.POLAR>
0

>  <SCORE.INTER.ROT>
5

>  <SCORE.INTER.SOLV>
25.6256

>  <SCORE.INTER.VDW>
-17.1944

>  <SCORE.INTER.norm>
-0.11722

>  <SCORE.INTRA>
4.4096

>  <SCORE.INTRA.DIHEDRAL>
1.10647

>  <SCORE.INTRA.DIHEDRAL.0>
3.49807

>  <SCORE.INTRA.POLAR>
0

>  <SCORE.INTRA.POLAR.0>
0

>  <SCORE.INTRA.REPUL>
0

>  <SCORE.INTRA.REPUL.0>
0

>  <SCORE.INTRA.SOLV>
5.78228

>  <SCORE.INTRA.SOLV.lig_0>
-73.062

>  <SCORE.INTRA.VDW>
0.965224

>  <SCORE.INTRA.VDW.0>
-1.83782

>  <SCORE.INTRA.norm>
0.200437

>  <SCORE.RESTR>
1.60392

>  <SCORE.RESTR.CAVITY>
1.60392

>  <SCORE.RESTR.norm>
0.0729055

>  <SCORE.SYSTEM>
0

>  <SCORE.SYSTEM.CONST>
0

>  <SCORE.SYSTEM.DIHEDRAL>
0

>  <SCORE.SYSTEM.SOLV>
0

>  <SCORE.SYSTEM.norm>
0

>  <SCORE.heavy>
22

>  <SCORE.norm>
0.156122

>  <RMSD>
23.413

$$$$
ligand
 OpenBabel11021811513D
libRbt.so/2013.1/901 2013/11/27
 22 23  0  0  0  0  0  0  0  0999 V2000
  -12.0750  -10.4644   -5.6951 N   0  0  0  0  0  0  0  0  0  0  0  0
  -11.5675   -9.9750   -9.0050 C   0  0  1  0  0  0  0  0  0  0  0  0
  -12.4794  -10.4311   -7.9656 O   0  0  0  0  0  0  0  0  0  0  0  0
   -8.0497  -11.3293   -8.9542 P   0  0  1  0  0  0  0  0  0  0  0  0
  -12.2437   -9.6409   -6.7890 C   0  0  2  0  0  0  0  0  0  0  0  0
  -11.4316  -12.1273   -4.4574 N   0  0  0  0  0  0  0  0  0  0  0  0
  -10.8321   -7.7943   -6.2476 O   0  0  0  0  0  0  0  0  0  0  0  0
  -10.9359   -8.9906   -7.0285 C   0  0  2  0  0  0  0  0  0  0  0  0
  -13.7002  -11.4890   -1.7905 N   0  0  0  0  0  0  0  0  0  0  0  0
  -11.7881   -7.6507   -8.7965 O   0  0  0  0  0  0  0  0  0  0  0  0
  -10.9280   -8.7544   -8.4670 C   0  0  2  0  0  0  0  0  0  0  0  0
  -12.1123  -11.2679   -3.6836 C   0  0  0  0  0  0  0  0  0  0  0  0
  -13.2434   -9.0837   -4.0205 N   0  0  0  0  0  0  0  0  0  0  0  0
   -9.4047  -10.6182   -8.6121 O   0  0  0  0  0  0  0  0  0  0  0  0
  -10.5725  -11.0625   -9.2225 C   0  0  0  0  0  0  0  0  0  0  0  0
   -7.9849  -11.2430  -10.5222 O   0  0  0  0  0  0  0  0  0  0  0  0
  -11.4153  -11.6285   -5.7081 C   0  0  0  0  0  0  0  0  0  0  0  0
  -11.4505  -11.5038   -1.4378 O   0  0  0  0  0  0  0  0  0  0  0  0
  -12.3791  -11.4320   -2.2426 C   0  0  0  0  0  0  0  0  0  0  0  0
  -12.5181  -10.2166   -4.4553 C   0  0  0  0  0  0  0  0  0  0  0  0
   -6.9289  -10.6408   -8.2486 O   0  5  0  0  0  0  0  0  0  0  0  0
   -7.9976  -12.6727   -8.3499 O   0  0  0  0  0  0  0  0  0  0  0  0
  1 17  1  0  0  0  0
  1 20  1  0  0  0  0
  2 15  1  1  0  0  0
  2  3  1  0  0  0  0
  2 11  1  0  0  0  0
  3  5  1  0  0  0  0
  4 16  1  6  0  0  0
  4 21  1  0  0  0  0
  4 22  2  0  0  0  0
  4 14  1  0  0  0  0
  5  1  1  1  0  0  0
  5  8  1  0  0  0  0
  6 17  2  0  0  0  0
  6 12  1  0  0  0  0
  8  7  1  1  0  0  0
  8 11  1  0  0  0  0
  9 19  1  0  0  0  0
 11 10  1  1  0  0  0
 12 20  2  0  0  0  0
 12 19  1  0  0  0  0
 13 20  1  0  0  0  0
 14 15  1  0  0  0  0
 18 19  2  0  0  0  0
M  CHG  1  21  -1
M  END
>  <CHROM.1>
38.84696548,-104.77560602,54.31778141,-164.30017137,-119.94347488,-10.76235451
-10.49067466,-6.66508391,2.30840695,-0.66785306,2.09908126

>  <Name>
ligand

>  <RI>
0

>  <Rbt.Current_Directory>
/home/itssahil/PROJECTS/Mol_Feturizer/New_Systems/rnas/4XWF

>  <Rbt.Executable>
rbdock ($Id: //depot/dev/client3/rdock/2013.1/src/exe/rbdock.cxx#4 $)

>  <Rbt.Library>
libRbt.so (2013.1, Build901 2013/11/27)

>  <Rbt.Parameter_File>
/export/apps/rDock/src/rDock_2013.1_src/data/scripts/dock_solv.prm

>  <Rbt.Receptor>
prm/blind_docking_20.prm

>  <SCORE>
6.08927

>  <SCORE.INTER>
-0.74285

>  <SCORE.INTER.CONST>
1

>  <SCORE.INTER.POLAR>
0

>  <SCORE.INTER.ROT>
5

>  <SCORE.INTER.SOLV>
23.7024

>  <SCORE.INTER.VDW>
-15.3294

>  <SCORE.INTER.norm>
-0.0337659

>  <SCORE.INTRA>
5.1762

>  <SCORE.INTRA.DIHEDRAL>
3.57404

>  <SCORE.INTRA.DIHEDRAL.0>
3.49807

>  <SCORE.INTRA.POLAR>
0

>  <SCORE.INTRA.POLAR.0>
0

>  <SCORE.INTRA.REPUL>
0

>  <SCORE.INTRA.REPUL.0>
0

>  <SCORE.INTRA.SOLV>
0.384383

>  <SCORE.INTRA.SOLV.lig_0>
-73.062

>  <SCORE.INTRA.VDW>
3.19699

>  <SCORE.INTRA.VDW.0>
-1.83782

>  <SCORE.INTRA.norm>
0.235282

>  <SCORE.RESTR>
1.65591

>  <SCORE.RESTR.CAVITY>
1.65591

>  <SCORE.RESTR.norm>
0.0752689

>  <SCORE.SYSTEM>
0

>  <SCORE.SYSTEM.CONST>
0

>  <SCORE.SYSTEM.DIHEDRAL>
0

>  <SCORE.SYSTEM.SOLV>
0

>  <SCORE.SYSTEM.norm>
0

>  <SCORE.heavy>
22

>  <SCORE.norm>
0.276785

>  <RMSD>
23.419

$$$$
ligand
 OpenBabel11021811513D
libRbt.so/2013.1/901 2013/11/27
 22 23  0  0  0  0  0  0  0  0999 V2000
  -12.9151  -10.0087   -5.5829 N   0  0  0  0  0  0  0  0  0  0  0  0
  -11.2814  -10.2771   -8.5345 C   0  0  1  0  0  0  0  0  0  0  0  0
  -12.4812  -10.5917   -7.7719 O   0  0  0  0  0  0  0  0  0  0  0  0
   -7.7548  -11.6506   -8.5888 P   0  0  1  0  0  0  0  0  0  0  0  0
  -12.7216   -9.5117   -6.8553 C   0  0  2  0  0  0  0  0  0  0  0  0
  -13.7960  -10.3703   -3.6324 N   0  0  0  0  0  0  0  0  0  0  0  0
  -11.6902   -7.4044   -6.4178 O   0  0  0  0  0  0  0  0  0  0  0  0
  -11.4485   -8.7576   -6.8205 C   0  0  2  0  0  0  0  0  0  0  0  0
  -12.5892  -11.9240   -1.3998 N   0  0  0  0  0  0  0  0  0  0  0  0
  -11.6765   -8.0298   -9.0712 O   0  0  0  0  0  0  0  0  0  0  0  0
  -10.9380   -8.8825   -8.1803 C   0  0  2  0  0  0  0  0  0  0  0  0
  -12.7124  -11.1523   -3.7543 C   0  0  0  0  0  0  0  0  0  0  0  0
  -11.0113  -11.5727   -5.5130 N   0  0  0  0  0  0  0  0  0  0  0  0
   -9.1210  -10.9458   -8.8973 O   0  0  0  0  0  0  0  0  0  0  0  0
  -10.2220  -11.2287   -8.0963 C   0  0  0  0  0  0  0  0  0  0  0  0
   -7.5077  -12.5300   -9.8680 O   0  0  0  0  0  0  0  0  0  0  0  0
  -13.9161   -9.6562   -4.7679 C   0  0  0  0  0  0  0  0  0  0  0  0
  -11.4452  -13.0043   -3.0460 O   0  0  0  0  0  0  0  0  0  0  0  0
  -12.2080  -12.0900   -2.7340 C   0  0  0  0  0  0  0  0  0  0  0  0
  -12.1540  -10.9325   -4.9812 C   0  0  0  0  0  0  0  0  0  0  0  0
   -6.7050  -10.6211   -8.3321 O   0  5  0  0  0  0  0  0  0  0  0  0
   -7.8078  -12.3477   -7.2912 O   0  0  0  0  0  0  0  0  0  0  0  0
  1 17  1  0  0  0  0
  1 20  1  0  0  0  0
  2 15  1  1  0  0  0
  2  3  1  0  0  0  0
  2 11  1  0  0  0  0
  3  5  1  0  0  0  0
  4 16  1  6  0  0  0
  4 21  1  0  0  0  0
  4 22  2  0  0  0  0
  4 14  1  0  0  0  0
  5  1  1  1  0  0  0
  5  8  1  0  0  0  0
  6 17  2  0  0  0  0
  6 12  1  0  0  0  0
  8  7  1  6  0  0  0
  8 11  1  0  0  0  0
  9 19  1  0  0  0  0
 11 10  1  6  0  0  0
 12 20  2  0  0  0  0
 12 19  1  0  0  0  0
 13 20  1  0  0  0  0
 14 15  1  0  0  0  0
 18 19  2  0  0  0  0
M  CHG  1  21  -1
M  END
>  <CHROM.1>
-132.07224574,176.76700256,115.65214033,172.67399041,-20.20958450,-10.81467849
-10.67686034,-6.58459705,2.53102982,-0.61573278,2.20371070

>  <Name>
ligand

>  <RI>
0

>  <Rbt.Current_Directory>
/home/itssahil/PROJECTS/Mol_Feturizer/New_Systems/rnas/4XWF

>  <Rbt.Executable>
rbdock ($Id: //depot/dev/client3/rdock/2013.1/src/exe/rbdock.cxx#4 $)

>  <Rbt.Library>
libRbt.so (2013.1, Build901 2013/11/27)

>  <Rbt.Parameter_File>
/export/apps/rDock/src/rDock_2013.1_src/data/scripts/dock_solv.prm

>  <Rbt.Receptor>
prm/blind_docking_20.prm

>  <SCORE>
5.10246

>  <SCORE.INTER>
-0.716419

>  <SCORE.INTER.CONST>
1

>  <SCORE.INTER.POLAR>
0

>  <SCORE.INTER.ROT>
5

>  <SCORE.INTER.SOLV>
29.9319

>  <SCORE.INTER.VDW>
-17.3882

>  <SCORE.INTER.norm>
-0.0325645

>  <SCORE.INTRA>
4.17989

>  <SCORE.INTRA.DIHEDRAL>
1.05134

>  <SCORE.INTRA.DIHEDRAL.0>
3.49807

>  <SCORE.INTRA.POLAR>
0

>  <SCORE.INTRA.POLAR.0>
0

>  <SCORE.INTRA.REPUL>
0

>  <SCORE.INTRA.REPUL.0>
0

>  <SCORE.INTRA.SOLV>
5.67722

>  <SCORE.INTRA.SOLV.lig_0>
-73.062

>  <SCORE.INTRA.VDW>
0.815616

>  <SCORE.INTRA.VDW.0>
-1.83782

>  <SCORE.INTRA.norm>
0.189995

>  <SCORE.RESTR>
1.63899

>  <SCORE.RESTR.CAVITY>
1.63899

>  <SCORE.RESTR.norm>
0.0744993

>  <SCORE.SYSTEM>
0

>  <SCORE.SYSTEM.CONST>
0

>  <SCORE.SYSTEM.DIHEDRAL>
0

>  <SCORE.SYSTEM.SOLV>
0

>  <SCORE.SYSTEM.norm>
0

>  <SCORE.heavy>
22

>  <SCORE.norm>
0.23193

>  <RMSD>
23.419

$$$$
ligand
 OpenBabel11021811513D
libRbt.so/2013.1/901 2013/11/27
 22 23  0  0  0  0  0  0  0  0999 V2000
  -12.3421  -10.6257   -5.6280 N   0  0  0  0  0  0  0  0  0  0  0  0
  -11.4973  -10.0652   -8.8567 C   0  0  1  0  0  0  0  0  0  0  0  0
  -12.5071  -10.5513   -7.9274 O   0  0  0  0  0  0  0  0  0  0  0  0
   -7.9418  -11.2472   -8.6790 P   0  0  1  0  0  0  0  0  0  0  0  0
  -12.4056   -9.7823   -6.7179 C   0  0  2  0  0  0  0  0  0  0  0  0
  -12.0136  -12.4001   -4.4220 N   0  0  0  0  0  0  0  0  0  0  0  0
  -11.0813   -7.9324   -5.9970 O   0  0  0  0  0  0  0  0  0  0  0  0
  -11.0880   -9.1138   -6.8069 C   0  0  2  0  0  0  0  0  0  0  0  0
  -13.8316  -11.5590   -1.5964 N   0  0  0  0  0  0  0  0  0  0  0  0
  -11.7672   -7.7479   -8.6290 O   0  0  0  0  0  0  0  0  0  0  0  0
  -10.9327   -8.8490   -8.2319 C   0  0  2  0  0  0  0  0  0  0  0  0
  -12.3855  -11.4019   -3.6060 C   0  0  0  0  0  0  0  0  0  0  0  0
  -12.9709   -9.0050   -3.8806 N   0  0  0  0  0  0  0  0  0  0  0  0
   -9.2521  -10.4725   -9.0553 O   0  0  0  0  0  0  0  0  0  0  0  0
  -10.4715  -11.1377   -8.9892 C   0  0  0  0  0  0  0  0  0  0  0  0
   -8.3559  -12.0494   -7.3924 O   0  0  0  0  0  0  0  0  0  0  0  0
  -11.9934  -11.9166   -5.6787 C   0  0  0  0  0  0  0  0  0  0  0  0
  -11.5629  -11.5152   -1.4042 O   0  0  0  0  0  0  0  0  0  0  0  0
  -12.5470  -11.5000   -2.1435 C   0  0  0  0  0  0  0  0  0  0  0  0
  -12.5912  -10.2804   -4.3578 C   0  0  0  0  0  0  0  0  0  0  0  0
   -7.5132  -12.0974   -9.8285 O   0  5  0  0  0  0  0  0  0  0  0  0
   -6.8029  -10.3193   -8.5578 O   0  0  0  0  0  0  0  0  0  0  0  0
  1 17  1  0  0  0  0
  1 20  1  0  0  0  0
  2 15  1  1  0  0  0
  2  3  1  0  0  0  0
  2 11  1  0  0  0  0
  3  5  1  0  0  0  0
  4 16  1  1  0  0  0
  4 21  1  0  0  0  0
  4 22  2  0  0  0  0
  4 14  1  0  0  0  0
  5  1  1  1  0  0  0
  5  8  1  0  0  0  0
  6 17  2  0  0  0  0
  6 12  1  0  0  0  0
  8  7  1  1  0  0  0
  8 11  1  0  0  0  0
  9 19  1  0  0  0  0
 11 10  1  6  0  0  0
 12 20  2  0  0  0  0
 12 19  1  0  0  0  0
 13 20  1  0  0  0  0
 14 15  1  0  0  0  0
 18 19  2  0  0  0  0
M  CHG  1  21  -1
M  END
>  <CHROM.1>
19.96750835,-141.42216392,-42.77686757,157.92901815,-104.27485922,-10.82657452
-10.54859528,-6.50535248,2.35061898,-0.62957510,2.13284499

>  <Name>
ligand

>  <RI>
0

>  <Rbt.Current_Directory>
/home/itssahil/PROJECTS/Mol_Feturizer/New_Systems/rnas/4XWF

>  <Rbt.Executable>
rbdock ($Id: //depot/dev/client3/rdock/2013.1/src/exe/rbdock.cxx#4 $)

>  <Rbt.Library>
libRbt.so (2013.1, Build901 2013/11/27)

>  <Rbt.Parameter_File>
/export/apps/rDock/src/rDock_2013.1_src/data/scripts/dock_solv.prm

>  <Rbt.Receptor>
prm/blind_docking_20.prm

>  <SCORE>
4.30705

>  <SCORE.INTER>
-1.49396

>  <SCORE.INTER.CONST>
1

>  <SCORE.INTER.POLAR>
0

>  <SCORE.INTER.ROT>
5

>  <SCORE.INTER.SOLV>
24.9351

>  <SCORE.INTER.VDW>
-16.241

>  <SCORE.INTER.norm>
-0.0679072

>  <SCORE.INTRA>
4.53178

>  <SCORE.INTRA.DIHEDRAL>
4.5323

>  <SCORE.INTRA.DIHEDRAL.0>
3.49807

>  <SCORE.INTRA.POLAR>
0

>  <SCORE.INTRA.POLAR.0>
0

>  <SCORE.INTRA.REPUL>
0

>  <SCORE.INTRA.REPUL.0>
0

>  <SCORE.INTRA.SOLV>
0.81905

>  <SCORE.INTRA.SOLV.lig_0>
-73.062

>  <SCORE.INTRA.VDW>
1.85611

>  <SCORE.INTRA.VDW.0>
-1.83782

>  <SCORE.INTRA.norm>
0.20599

>  <SCORE.RESTR>
1.26923

>  <SCORE.RESTR.CAVITY>
1.26923

>  <SCORE.RESTR.norm>
0.0576922

>  <SCORE.SYSTEM>
0

>  <SCORE.SYSTEM.CONST>
0

>  <SCORE.SYSTEM.DIHEDRAL>
0

>  <SCORE.SYSTEM.SOLV>
0

>  <SCORE.SYSTEM.norm>
0

>  <SCORE.heavy>
22

>  <SCORE.norm>
0.195775

>  <RMSD>
23.422

$$$$
ligand
 OpenBabel11021811513D
libRbt.so/2013.1/901 2013/11/27
 22 23  0  0  0  0  0  0  0  0999 V2000
  -12.3889  -10.7257   -5.6664 N   0  0  0  0  0  0  0  0  0  0  0  0
  -11.5063  -10.0427   -8.8612 C   0  0  1  0  0  0  0  0  0  0  0  0
  -12.5309  -10.5542   -7.9621 O   0  0  0  0  0  0  0  0  0  0  0  0
   -7.9679  -11.2259   -8.6761 P   0  0  1  0  0  0  0  0  0  0  0  0
  -12.4317   -9.8372   -6.7209 C   0  0  2  0  0  0  0  0  0  0  0  0
  -12.0484  -12.5382   -4.5219 N   0  0  0  0  0  0  0  0  0  0  0  0
  -11.0921   -8.0354   -5.9118 O   0  0  0  0  0  0  0  0  0  0  0  0
  -11.1054   -9.1822   -6.7700 C   0  0  2  0  0  0  0  0  0  0  0  0
  -11.9956  -11.0035   -1.3293 N   0  0  0  0  0  0  0  0  0  0  0  0
  -11.7503   -7.7336   -8.5400 O   0  0  0  0  0  0  0  0  0  0  0  0
  -10.9331   -8.8605   -8.1813 C   0  0  2  0  0  0  0  0  0  0  0  0
  -12.5037  -11.5935   -3.6847 C   0  0  0  0  0  0  0  0  0  0  0  0
  -13.1748   -9.2118   -3.8870 N   0  0  0  0  0  0  0  0  0  0  0  0
   -9.2689  -10.4654   -9.1094 O   0  0  0  0  0  0  0  0  0  0  0  0
  -10.4923  -11.1215   -9.0286 C   0  0  0  0  0  0  0  0  0  0  0  0
   -8.4277  -12.0286   -7.4054 O   0  0  0  0  0  0  0  0  0  0  0  0
  -11.9839  -11.9980   -5.7537 C   0  0  0  0  0  0  0  0  0  0  0  0
  -13.5631  -12.5780   -1.8286 O   0  0  0  0  0  0  0  0  0  0  0  0
  -12.7360  -11.7638   -2.2385 C   0  0  0  0  0  0  0  0  0  0  0  0
  -12.7175  -10.4483   -4.3976 C   0  0  0  0  0  0  0  0  0  0  0  0
   -7.4832  -12.0750   -9.8039 O   0  5  0  0  0  0  0  0  0  0  0  0
   -6.8444  -10.2863   -8.5102 O   0  0  0  0  0  0  0  0  0  0  0  0
  1 17  1  0  0  0  0
  1 20  1  0  0  0  0
  2 15  1  1  0  0  0
  2  3  1  0  0  0  0
  2 11  1  0  0  0  0
  3  5  1  0  0  0  0
  4 16  1  1  0  0  0
  4 21  1  0  0  0  0
  4 22  2  0  0  0  0
  4 14  1  0  0  0  0
  5  1  1  1  0  0  0
  5  8  1  0  0  0  0
  6 17  2  0  0  0  0
  6 12  1  0  0  0  0
  8  7  1  1  0  0  0
  8 11  1  0  0  0  0
  9 19  1  0  0  0  0
 11 10  1  6  0  0  0
 12 20  2  0  0  0  0
 12 19  1  0  0  0  0
 13 20  1  0  0  0  0
 14 15  1  0  0  0  0
 18 19  2  0  0  0  0
M  CHG  1  21  -1
M  END
>  <CHROM.1>
23.90242591,-143.71985888,-39.59023684,153.79974897,117.10162845,-10.88447001
-10.62342791,-6.52250268,2.38686086,-0.64642671,2.22493385

>  <Name>
ligand

>  <RI>
0

>  <Rbt.Current_Directory>
/home/itssahil/PROJECTS/Mol_Feturizer/New_Systems/rnas/4XWF

>  <Rbt.Executable>
rbdock ($Id: //depot/dev/client3/rdock/2013.1/src/exe/rbdock.cxx#4 $)

>  <Rbt.Library>
libRbt.so (2013.1, Build901 2013/11/27)

>  <Rbt.Parameter_File>
/export/apps/rDock/src/rDock_2013.1_src/data/scripts/dock_solv.prm

>  <Rbt.Receptor>
prm/blind_docking_20.prm

>  <SCORE>
4.23922

>  <SCORE.INTER>
-1.27428

>  <SCORE.INTER.CONST>
1

>  <SCORE.INTER.POLAR>
0

>  <SCORE.INTER.ROT>
5

>  <SCORE.INTER.SOLV>
25.5125

>  <SCORE.INTER.VDW>
-16.287

>  <SCORE.INTER.norm>
-0.057922

>  <SCORE.INTRA>
4.49109

>  <SCORE.INTRA.DIHEDRAL>
4.86649

>  <SCORE.INTRA.DIHEDRAL.0>
3.49807

>  <SCORE.INTRA.POLAR>
0

>  <SCORE.INTRA.POLAR.0>
0

>  <SCORE.INTRA.REPUL>
0

>  <SCORE.INTRA.REPUL.0>
0

>  <SCORE.INTRA.SOLV>
0.75215

>  <SCORE.INTRA.SOLV.lig_0>
-73.062

>  <SCORE.INTRA.VDW>
1.68177

>  <SCORE.INTRA.VDW.0>
-1.83782

>  <SCORE.INTRA.norm>
0.204141

>  <SCORE.RESTR>
1.02241

>  <SCORE.RESTR.CAVITY>
1.02241

>  <SCORE.RESTR.norm>
0.0464731

>  <SCORE.SYSTEM>
0

>  <SCORE.SYSTEM.CONST>
0

>  <SCORE.SYSTEM.DIHEDRAL>
0

>  <SCORE.SYSTEM.SOLV>
0

>  <SCORE.SYSTEM.norm>
0

>  <SCORE.heavy>
22

>  <SCORE.norm>
0.192692

>  <RMSD>
23.422

$$$$
ligand
 OpenBabel11021811513D
libRbt.so/2013.1/901 2013/11/27
 22 23  0  0  0  0  0  0  0  0999 V2000
  -12.3238  -10.6285   -5.6430 N   0  0  0  0  0  0  0  0  0  0  0  0
  -11.4845  -10.0793   -8.8751 C   0  0  1  0  0  0  0  0  0  0  0  0
  -12.4873  -10.5749   -7.9430 O   0  0  0  0  0  0  0  0  0  0  0  0
   -7.9132  -11.2302   -8.6672 P   0  0  1  0  0  0  0  0  0  0  0  0
  -12.4000   -9.7949   -6.7396 C   0  0  2  0  0  0  0  0  0  0  0  0
  -11.9806  -12.3919   -4.4250 N   0  0  0  0  0  0  0  0  0  0  0  0
  -11.1076   -7.9175   -6.0319 O   0  0  0  0  0  0  0  0  0  0  0  0
  -11.0937   -9.1052   -6.8324 C   0  0  2  0  0  0  0  0  0  0  0  0
  -13.7674  -11.5279   -1.5869 N   0  0  0  0  0  0  0  0  0  0  0  0
  -11.7933   -7.7651   -8.6659 O   0  0  0  0  0  0  0  0  0  0  0  0
  -10.9411   -8.8490   -8.2593 C   0  0  2  0  0  0  0  0  0  0  0  0
  -12.3440  -11.3867   -3.6138 C   0  0  0  0  0  0  0  0  0  0  0  0
  -12.9340   -8.9926   -3.9031 N   0  0  0  0  0  0  0  0  0  0  0  0
   -9.2294  -10.4533   -9.0176 O   0  0  0  0  0  0  0  0  0  0  0  0
  -10.4409  -11.1356   -8.9980 C   0  0  0  0  0  0  0  0  0  0  0  0
   -8.3076  -12.0426   -7.3807 O   0  0  0  0  0  0  0  0  0  0  0  0
  -11.9748  -11.9195   -5.6861 C   0  0  0  0  0  0  0  0  0  0  0  0
  -11.4968  -11.4788   -1.4204 O   0  0  0  0  0  0  0  0  0  0  0  0
  -12.4890  -11.4718   -2.1488 C   0  0  0  0  0  0  0  0  0  0  0  0
  -12.5589  -10.2720   -4.3732 C   0  0  0  0  0  0  0  0  0  0  0  0
   -7.5017  -12.0713   -9.8296 O   0  5  0  0  0  0  0  0  0  0  0  0
   -6.7730  -10.3027   -8.5560 O   0  0  0  0  0  0  0  0  0  0  0  0
  1 17  1  0  0  0  0
  1 20  1  0  0  0  0
  2 15  1  1  0  0  0
  2  3  1  0  0  0  0
  2 11  1  0  0  0  0
  3  5  1  0  0  0  0
  4 16  1  1  0  0  0
  4 21  1  0  0  0  0
  4 22  2  0  0  0  0
  4 14  1  0  0  0  0
  5  1  1  1  0  0  0
  5  8  1  0  0  0  0
  6 17  2  0  0  0  0
  6 12  1  0  0  0  0
  8  7  1  1  0  0  0
  8 11  1  0  0  0  0
  9 19  1  0  0  0  0
 11 10  1  6  0  0  0
 12 20  2  0  0  0  0
 12 19  1  0  0  0  0
 13 20  1  0  0  0  0
 14 15  1  0  0  0  0
 18 19  2  0  0  0  0
M  CHG  1  21  -1
M  END
>  <CHROM.1>
18.80506620,-139.25823783,-45.70946382,160.04327172,-104.21582833,-10.80333658
-10.53992040,-6.51353128,2.33987257,-0.61831657,2.11549768

>  <Name>
ligand

>  <RI>
0

>  <Rbt.Current_Directory>
/home/itssahil/PROJECTS/Mol_Feturizer/New_Systems/rnas/4XWF

>  <Rbt.Executable>
rbdock ($Id: //depot/dev/client3/rdock/2013.1/src/exe/rbdock.cxx#4 $)

>  <Rbt.Library>
libRbt.so (2013.1, Build901 2013/11/27)

>  <Rbt.Parameter_File>
/export/apps/rDock/src/rDock_2013.1_src/data/scripts/dock_solv.prm

>  <Rbt.Receptor>
prm/blind_docking_20.prm

>  <SCORE>
4.43941

>  <SCORE.INTER>
-1.35475

>  <SCORE.INTER.CONST>
1

>  <SCORE.INTER.POLAR>
0

>  <SCORE.INTER.ROT>
5

>  <SCORE.INTER.SOLV>
25.0638

>  <SCORE.INTER.VDW>
-16.1911

>  <SCORE.INTER.norm>
-0.0615794

>  <SCORE.INTRA>
4.57085

>  <SCORE.INTRA.DIHEDRAL>
4.31026

>  <SCORE.INTRA.DIHEDRAL.0>
3.49807

>  <SCORE.INTRA.POLAR>
0

>  <SCORE.INTRA.POLAR.0>
0

>  <SCORE.INTRA.REPUL>
0

>  <SCORE.INTRA.REPUL.0>
0

>  <SCORE.INTRA.SOLV>
0.869701

>  <SCORE.INTRA.SOLV.lig_0>
-73.062

>  <SCORE.INTRA.VDW>
1.98087

>  <SCORE.INTRA.VDW.0>
-1.83782

>  <SCORE.INTRA.norm>
0.207766

>  <SCORE.RESTR>
1.22331

>  <SCORE.RESTR.CAVITY>
1.22331

>  <SCORE.RESTR.norm>
0.055605

>  <SCORE.SYSTEM>
0

>  <SCORE.SYSTEM.CONST>
0

>  <SCORE.SYSTEM.DIHEDRAL>
0

>  <SCORE.SYSTEM.SOLV>
0

>  <SCORE.SYSTEM.norm>
0

>  <SCORE.heavy>
22

>  <SCORE.norm>
0.201792

>  <RMSD>
23.432

$$$$
ligand
 OpenBabel11021811513D
libRbt.so/2013.1/901 2013/11/27
 22 23  0  0  0  0  0  0  0  0999 V2000
  -12.3278  -10.6280   -5.6303 N   0  0  0  0  0  0  0  0  0  0  0  0
  -11.4932  -10.0756   -8.8630 C   0  0  1  0  0  0  0  0  0  0  0  0
  -12.4968  -10.5671   -7.9297 O   0  0  0  0  0  0  0  0  0  0  0  0
   -7.9288  -11.2442   -8.6667 P   0  0  1  0  0  0  0  0  0  0  0  0
  -12.4014   -9.7909   -6.7244 C   0  0  2  0  0  0  0  0  0  0  0  0
  -11.9901  -12.3961   -4.4174 N   0  0  0  0  0  0  0  0  0  0  0  0
  -11.0947   -7.9241   -6.0149 O   0  0  0  0  0  0  0  0  0  0  0  0
  -11.0907   -9.1097   -6.8187 C   0  0  2  0  0  0  0  0  0  0  0  0
  -13.7753  -11.5364   -1.5774 N   0  0  0  0  0  0  0  0  0  0  0  0
  -11.7860   -7.7600   -8.6468 O   0  0  0  0  0  0  0  0  0  0  0  0
  -10.9400   -8.8506   -8.2453 C   0  0  2  0  0  0  0  0  0  0  0  0
  -12.3509  -11.3922   -3.6033 C   0  0  0  0  0  0  0  0  0  0  0  0
  -12.9340   -8.9956   -3.8857 N   0  0  0  0  0  0  0  0  0  0  0  0
   -9.2414  -10.4635   -9.0219 O   0  0  0  0  0  0  0  0  0  0  0  0
  -10.4569  -11.1385   -8.9914 C   0  0  0  0  0  0  0  0  0  0  0  0
   -8.3344  -12.0662   -7.3898 O   0  0  0  0  0  0  0  0  0  0  0  0
  -11.9825  -11.9200   -5.6771 C   0  0  0  0  0  0  0  0  0  0  0  0
  -11.5047  -11.4924   -1.4099 O   0  0  0  0  0  0  0  0  0  0  0  0
  -12.4966  -11.4813   -2.1386 C   0  0  0  0  0  0  0  0  0  0  0  0
  -12.5623  -10.2747   -4.3595 C   0  0  0  0  0  0  0  0  0  0  0  0
   -7.5085  -12.0767   -9.8322 O   0  5  0  0  0  0  0  0  0  0  0  0
   -6.7888  -10.3186   -8.5390 O   0  0  0  0  0  0  0  0  0  0  0  0
  1 17  1  0  0  0  0
  1 20  1  0  0  0  0
  2 15  1  1  0  0  0
  2  3  1  0  0  0  0
  2 11  1  0  0  0  0
  3  5  1  0  0  0  0
  4 16  1  1  0  0  0
  4 21  1  0  0  0  0
  4 22  2  0  0  0  0
  4 14  1  0  0  0  0
  5  1  1  1  0  0  0
  5  8  1  0  0  0  0
  6 17  2  0  0  0  0
  6 12  1  0  0  0  0
  8  7  1  1  0  0  0
  8 11  1  0  0  0  0
  9 19  1  0  0  0  0
 11 10  1  6  0  0  0
 12 20  2  0  0  0  0
 12 19  1  0  0  0  0
 13 20  1  0  0  0  0
 14 15  1  0  0  0  0
 18 19  2  0  0  0  0
M  CHG  1  21  -1
M  END
>  <CHROM.1>
19.07687502,-139.67181384,-44.43293730,159.47749640,-104.16816283,-10.81042962
-10.54564309,-6.50447289,2.34162041,-0.62407351,2.11987166

>  <Name>
ligand

>  <RI>
0

>  <Rbt.Current_Directory>
/home/itssahil/PROJECTS/Mol_Feturizer/New_Systems/rnas/4XWF

>  <Rbt.Executable>
rbdock ($Id: //depot/dev/client3/rdock/2013.1/src/exe/rbdock.cxx#4 $)

>  <Rbt.Library>
libRbt.so (2013.1, Build901 2013/11/27)

>  <Rbt.Parameter_File>
/export/apps/rDock/src/rDock_2013.1_src/data/scripts/dock_solv.prm

>  <Rbt.Receptor>
prm/blind_docking_20.prm

>  <SCORE>
4.37423

>  <SCORE.INTER>
-1.46342

>  <SCORE.INTER.CONST>
1

>  <SCORE.INTER.POLAR>
0

>  <SCORE.INTER.ROT>
5

>  <SCORE.INTER.SOLV>
24.9427

>  <SCORE.INTER.VDW>
-16.2232

>  <SCORE.INTER.norm>
-0.0665192

>  <SCORE.INTRA>
4.60077

>  <SCORE.INTRA.DIHEDRAL>
4.40889

>  <SCORE.INTRA.DIHEDRAL.0>
3.49807

>  <SCORE.INTRA.POLAR>
0

>  <SCORE.INTRA.POLAR.0>
0

>  <SCORE.INTRA.REPUL>
0

>  <SCORE.INTRA.REPUL.0>
0

>  <SCORE.INTRA.SOLV>
0.857277

>  <SCORE.INTRA.SOLV.lig_0>
-73.062

>  <SCORE.INTRA.VDW>
1.96768

>  <SCORE.INTRA.VDW.0>
-1.83782

>  <SCORE.INTRA.norm>
0.209126

>  <SCORE.RESTR>
1.23688

>  <SCORE.RESTR.CAVITY>
1.23688

>  <SCORE.RESTR.norm>
0.056222

>  <SCORE.SYSTEM>
0

>  <SCORE.SYSTEM.CONST>
0

>  <SCORE.SYSTEM.DIHEDRAL>
0

>  <SCORE.SYSTEM.SOLV>
0

>  <SCORE.SYSTEM.norm>
0

>  <SCORE.heavy>
22

>  <SCORE.norm>
0.198829

>  <RMSD>
23.433

$$$$
ligand
 OpenBabel11021811513D
libRbt.so/2013.1/901 2013/11/27
 22 23  0  0  0  0  0  0  0  0999 V2000
  -12.3728  -10.7023   -5.6736 N   0  0  0  0  0  0  0  0  0  0  0  0
  -11.4379  -10.0314   -8.8561 C   0  0  1  0  0  0  0  0  0  0  0  0
  -12.4784  -10.5365   -7.9717 O   0  0  0  0  0  0  0  0  0  0  0  0
   -7.8971  -11.2386   -8.6910 P   0  0  1  0  0  0  0  0  0  0  0  0
  -12.3957   -9.8166   -6.7311 C   0  0  2  0  0  0  0  0  0  0  0  0
  -12.0690  -12.5170   -4.5222 N   0  0  0  0  0  0  0  0  0  0  0  0
  -11.0619   -8.0177   -5.9060 O   0  0  0  0  0  0  0  0  0  0  0  0
  -11.0662   -9.1667   -6.7612 C   0  0  2  0  0  0  0  0  0  0  0  0
  -12.0028  -10.9714   -1.3344 N   0  0  0  0  0  0  0  0  0  0  0  0
  -11.6779   -7.7205   -8.5449 O   0  0  0  0  0  0  0  0  0  0  0  0
  -10.8708   -8.8496   -8.1706 C   0  0  2  0  0  0  0  0  0  0  0  0
  -12.5105  -11.5616   -3.6898 C   0  0  0  0  0  0  0  0  0  0  0  0
  -13.1383   -9.1690   -3.9020 N   0  0  0  0  0  0  0  0  0  0  0  0
   -9.2004  -10.4624   -9.0879 O   0  0  0  0  0  0  0  0  0  0  0  0
  -10.4257  -11.1146   -9.0049 C   0  0  0  0  0  0  0  0  0  0  0  0
   -6.8581  -10.0877   -8.4334 O   0  0  0  0  0  0  0  0  0  0  0  0
  -11.9902  -11.9819   -5.7555 C   0  0  0  0  0  0  0  0  0  0  0  0
  -13.5929  -12.5229   -1.8346 O   0  0  0  0  0  0  0  0  0  0  0  0
  -12.7514  -11.7232   -2.2439 C   0  0  0  0  0  0  0  0  0  0  0  0
  -12.7012  -10.4150   -4.4070 C   0  0  0  0  0  0  0  0  0  0  0  0
   -8.1694  -12.1046   -7.5061 O   0  5  0  0  0  0  0  0  0  0  0  0
   -7.5533  -12.2407   -9.7158 O   0  0  0  0  0  0  0  0  0  0  0  0
  1 17  1  0  0  0  0
  1 20  1  0  0  0  0
  2 15  1  1  0  0  0
  2  3  1  0  0  0  0
  2 11  1  0  0  0  0
  3  5  1  0  0  0  0
  4 16  1  1  0  0  0
  4 21  1  0  0  0  0
  4 22  2  0  0  0  0
  4 14  1  0  0  0  0
  5  1  1  1  0  0  0
  5  8  1  0  0  0  0
  6 17  2  0  0  0  0
  6 12  1  0  0  0  0
  8  7  1  1  0  0  0
  8 11  1  0  0  0  0
  9 19  1  0  0  0  0
 11 10  1  6  0  0  0
 12 20  2  0  0  0  0
 12 19  1  0  0  0  0
 13 20  1  0  0  0  0
 14 15  1  0  0  0  0
 18 19  2  0  0  0  0
M  CHG  1  21  -1
M  END
>  <CHROM.1>
22.85695394,-144.55939944,-161.07723746,156.13267482,117.22349335,-10.84830589
-10.60939482,-6.52085674,2.41233580,-0.65807086,2.24625709

>  <Name>
ligand

>  <RI>
0

>  <Rbt.Current_Directory>
/home/itssahil/PROJECTS/Mol_Feturizer/New_Systems/rnas/4XWF

>  <Rbt.Executable>
rbdock ($Id: //depot/dev/client3/rdock/2013.1/src/exe/rbdock.cxx#4 $)

>  <Rbt.Library>
libRbt.so (2013.1, Build901 2013/11/27)

>  <Rbt.Parameter_File>
/export/apps/rDock/src/rDock_2013.1_src/data/scripts/dock_solv.prm

>  <Rbt.Receptor>
prm/blind_docking_20.prm

>  <SCORE>
2.19627

>  <SCORE.INTER>
-3.33386

>  <SCORE.INTER.CONST>
1

>  <SCORE.INTER.POLAR>
0

>  <SCORE.INTER.ROT>
5

>  <SCORE.INTER.SOLV>
20.6762

>  <SCORE.INTER.VDW>
-16.048

>  <SCORE.INTER.norm>
-0.151539

>  <SCORE.INTRA>
4.50687

>  <SCORE.INTRA.DIHEDRAL>
4.25893

>  <SCORE.INTRA.DIHEDRAL.0>
3.49807

>  <SCORE.INTRA.POLAR>
0

>  <SCORE.INTRA.POLAR.0>
0

>  <SCORE.INTRA.REPUL>
0

>  <SCORE.INTRA.REPUL.0>
0

>  <SCORE.INTRA.SOLV>
1.91716

>  <SCORE.INTRA.SOLV.lig_0>
-73.062

>  <SCORE.INTRA.VDW>
1.41882

>  <SCORE.INTRA.VDW.0>
-1.83782

>  <SCORE.INTRA.norm>
0.204858

>  <SCORE.RESTR>
1.02326

>  <SCORE.RESTR.CAVITY>
1.02326

>  <SCORE.RESTR.norm>
0.0465119

>  <SCORE.SYSTEM>
0

>  <SCORE.SYSTEM.CONST>
0

>  <SCORE.SYSTEM.DIHEDRAL>
0

>  <SCORE.SYSTEM.SOLV>
0

>  <SCORE.SYSTEM.norm>
0

>  <SCORE.heavy>
22

>  <SCORE.norm>
0.0998306

>  <RMSD>
23.435

$$$$
ligand
 OpenBabel11021811513D
libRbt.so/2013.1/901 2013/11/27
 22 23  0  0  0  0  0  0  0  0999 V2000
  -12.3575  -10.6734   -5.6650 N   0  0  0  0  0  0  0  0  0  0  0  0
  -11.4560  -10.0578   -8.8683 C   0  0  1  0  0  0  0  0  0  0  0  0
  -12.4856  -10.5509   -7.9647 O   0  0  0  0  0  0  0  0  0  0  0  0
   -7.9099  -11.2328   -8.6965 P   0  0  1  0  0  0  0  0  0  0  0  0
  -12.3946   -9.8076   -6.7385 C   0  0  2  0  0  0  0  0  0  0  0  0
  -12.0610  -12.4734   -4.4890 N   0  0  0  0  0  0  0  0  0  0  0  0
  -11.0613   -7.9877   -5.9599 O   0  0  0  0  0  0  0  0  0  0  0  0
  -11.0685   -9.1526   -6.7935 C   0  0  2  0  0  0  0  0  0  0  0  0
  -13.5807  -12.5284   -1.7133 N   0  0  0  0  0  0  0  0  0  0  0  0
  -11.7038   -7.7426   -8.5978 O   0  0  0  0  0  0  0  0  0  0  0  0
  -10.8879   -8.8609   -8.2103 C   0  0  2  0  0  0  0  0  0  0  0  0
  -12.4473  -11.4908   -3.6609 C   0  0  0  0  0  0  0  0  0  0  0  0
  -13.0189   -9.0865   -3.8987 N   0  0  0  0  0  0  0  0  0  0  0  0
   -9.2196  -10.4828   -9.1214 O   0  0  0  0  0  0  0  0  0  0  0  0
  -10.4402  -11.1390   -9.0066 C   0  0  0  0  0  0  0  0  0  0  0  0
   -6.8981  -10.0615   -8.4227 O   0  0  0  0  0  0  0  0  0  0  0  0
  -12.0119  -11.9642   -5.7347 C   0  0  0  0  0  0  0  0  0  0  0  0
  -11.9940  -10.9210   -1.4232 O   0  0  0  0  0  0  0  0  0  0  0  0
  -12.6409  -11.6183   -2.2045 C   0  0  0  0  0  0  0  0  0  0  0  0
  -12.6330  -10.3533   -4.3937 C   0  0  0  0  0  0  0  0  0  0  0  0
   -8.1887  -12.1002   -7.5141 O   0  5  0  0  0  0  0  0  0  0  0  0
   -7.5272  -12.2313   -9.7110 O   0  0  0  0  0  0  0  0  0  0  0  0
  1 17  1  0  0  0  0
  1 20  1  0  0  0  0
  2 15  1  1  0  0  0
  2  3  1  0  0  0  0
  2 11  1  0  0  0  0
  3  5  1  0  0  0  0
  4 16  1  1  0  0  0
  4 21  1  0  0  0  0
  4 22  2  0  0  0  0
  4 14  1  0  0  0  0
  5  1  1  1  0  0  0
  5  8  1  0  0  0  0
  6 17  2  0  0  0  0
  6 12  1  0  0  0  0
  8  7  1  1  0  0  0
  8 11  1  0  0  0  0
  9 19  1  0  0  0  0
 11 10  1  6  0  0  0
 12 20  2  0  0  0  0
 12 19  1  0  0  0  0
 13 20  1  0  0  0  0
 14 15  1  0  0  0  0
 18 19  2  0  0  0  0
M  CHG  1  21  -1
M  END
>  <CHROM.1>
20.53591283,-144.89937601,-158.39140083,154.85142957,-59.99199178,-10.83099534
-10.58233271,-6.52164304,2.39065050,-0.65963963,2.21276295

>  <Name>
ligand

>  <RI>
0

>  <Rbt.Current_Directory>
/home/itssahil/PROJECTS/Mol_Feturizer/New_Systems/rnas/4XWF

>  <Rbt.Executable>
rbdock ($Id: //depot/dev/client3/rdock/2013.1/src/exe/rbdock.cxx#4 $)

>  <Rbt.Library>
libRbt.so (2013.1, Build901 2013/11/27)

>  <Rbt.Parameter_File>
/export/apps/rDock/src/rDock_2013.1_src/data/scripts/dock_solv.prm

>  <Rbt.Receptor>
prm/blind_docking_20.prm

>  <SCORE>
3.27812

>  <SCORE.INTER>
-3.15958

>  <SCORE.INTER.CONST>
1

>  <SCORE.INTER.POLAR>
0

>  <SCORE.INTER.ROT>
5

>  <SCORE.INTER.SOLV>
20.4889

>  <SCORE.INTER.VDW>
-15.8693

>  <SCORE.INTER.norm>
-0.143617

>  <SCORE.INTRA>
5.48318

>  <SCORE.INTRA.DIHEDRAL>
6.23308

>  <SCORE.INTRA.DIHEDRAL.0>
3.49807

>  <SCORE.INTRA.POLAR>
0

>  <SCORE.INTRA.POLAR.0>
0

>  <SCORE.INTRA.REPUL>
0

>  <SCORE.INTRA.REPUL.0>
0

>  <SCORE.INTRA.SOLV>
1.84255

>  <SCORE.INTRA.SOLV.lig_0>
-73.062

>  <SCORE.INTRA.VDW>
1.44537

>  <SCORE.INTRA.VDW.0>
-1.83782

>  <SCORE.INTRA.norm>
0.249236

>  <SCORE.RESTR>
0.954519

>  <SCORE.RESTR.CAVITY>
0.954519

>  <SCORE.RESTR.norm>
0.0433872

>  <SCORE.SYSTEM>
0

>  <SCORE.SYSTEM.CONST>
0

>  <SCORE.SYSTEM.DIHEDRAL>
0

>  <SCORE.SYSTEM.SOLV>
0

>  <SCORE.SYSTEM.norm>
0

>  <SCORE.heavy>
22

>  <SCORE.norm>
0.149006

>  <RMSD>
23.437

$$$$
ligand
 OpenBabel11021811513D
libRbt.so/2013.1/901 2013/11/27
 22 23  0  0  0  0  0  0  0  0999 V2000
  -12.3738  -10.7027   -5.6632 N   0  0  0  0  0  0  0  0  0  0  0  0
  -11.4349  -10.0109   -8.8401 C   0  0  1  0  0  0  0  0  0  0  0  0
  -12.4797  -10.5138   -7.9595 O   0  0  0  0  0  0  0  0  0  0  0  0
   -7.9034  -11.2431   -8.7093 P   0  0  1  0  0  0  0  0  0  0  0  0
  -12.3886   -9.8067   -6.7121 C   0  0  2  0  0  0  0  0  0  0  0  0
  -12.0896  -12.5320   -4.5301 N   0  0  0  0  0  0  0  0  0  0  0  0
  -11.0356   -8.0295   -5.8712 O   0  0  0  0  0  0  0  0  0  0  0  0
  -11.0525   -9.1702   -6.7373 C   0  0  2  0  0  0  0  0  0  0  0  0
  -12.0273  -10.9835   -1.3292 N   0  0  0  0  0  0  0  0  0  0  0  0
  -11.6510   -7.7008   -8.5065 O   0  0  0  0  0  0  0  0  0  0  0  0
  -10.8551   -8.8416   -8.1438 C   0  0  2  0  0  0  0  0  0  0  0  0
  -12.5165  -11.5791   -3.6872 C   0  0  0  0  0  0  0  0  0  0  0  0
  -13.1144   -9.1768   -3.8747 N   0  0  0  0  0  0  0  0  0  0  0  0
   -9.2045  -10.4612   -9.1023 O   0  0  0  0  0  0  0  0  0  0  0  0
  -10.4339  -11.1029   -9.0002 C   0  0  0  0  0  0  0  0  0  0  0  0
   -6.8594  -10.0965   -8.4524 O   0  0  0  0  0  0  0  0  0  0  0  0
  -12.0077  -11.9862   -5.7584 C   0  0  0  0  0  0  0  0  0  0  0  0
  -13.5762  -12.5738   -1.8366 O   0  0  0  0  0  0  0  0  0  0  0  0
  -12.7551  -11.7514   -2.2422 C   0  0  0  0  0  0  0  0  0  0  0  0
  -12.6947  -10.4234   -4.3929 C   0  0  0  0  0  0  0  0  0  0  0  0
   -8.1765  -12.1096   -7.5251 O   0  5  0  0  0  0  0  0  0  0  0  0
   -7.5658  -12.2450   -9.7363 O   0  0  0  0  0  0  0  0  0  0  0  0
  1 17  1  0  0  0  0
  1 20  1  0  0  0  0
  2 15  1  1  0  0  0
  2  3  1  0  0  0  0
  2 11  1  0  0  0  0
  3  5  1  0  0  0  0
  4 16  1  1  0  0  0
  4 21  1  0  0  0  0
  4 22  2  0  0  0  0
  4 14  1  0  0  0  0
  5  1  1  1  0  0  0
  5  8  1  0  0  0  0
  6 17  2  0  0  0  0
  6 12  1  0  0  0  0
  8  7  1  1  0  0  0
  8 11  1  0  0  0  0
  9 19  1  0  0  0  0
 11 10  1  6  0  0  0
 12 20  2  0  0  0  0
 12 19  1  0  0  0  0
 13 20  1  0  0  0  0
 14 15  1  0  0  0  0
 18 19  2  0  0  0  0
M  CHG  1  21  -1
M  END
>  <CHROM.1>
22.67086468,-145.59676073,-160.21154039,155.58280657,119.47420394,-10.84725836
-10.61338570,-6.51641755,2.41966180,-0.66905184,2.26297858

>  <Name>
ligand

>  <RI>
0

>  <Rbt.Current_Directory>
/home/itssahil/PROJECTS/Mol_Feturizer/New_Systems/rnas/4XWF

>  <Rbt.Executable>
rbdock ($Id: //depot/dev/client3/rdock/2013.1/src/exe/rbdock.cxx#4 $)

>  <Rbt.Library>
libRbt.so (2013.1, Build901 2013/11/27)

>  <Rbt.Parameter_File>
/export/apps/rDock/src/rDock_2013.1_src/data/scripts/dock_solv.prm

>  <Rbt.Receptor>
prm/blind_docking_20.prm

>  <SCORE>
2.00251

>  <SCORE.INTER>
-3.50958

>  <SCORE.INTER.CONST>
1

>  <SCORE.INTER.POLAR>
0

>  <SCORE.INTER.ROT>
5

>  <SCORE.INTER.SOLV>
20.5515

>  <SCORE.INTER.VDW>
-16.1236

>  <SCORE.INTER.norm>
-0.159527

>  <SCORE.INTRA>
4.44808

>  <SCORE.INTRA.DIHEDRAL>
4.2601

>  <SCORE.INTRA.DIHEDRAL.0>
3.49807

>  <SCORE.INTRA.POLAR>
0

>  <SCORE.INTRA.POLAR.0>
0

>  <SCORE.INTRA.REPUL>
0

>  <SCORE.INTRA.REPUL.0>
0

>  <SCORE.INTRA.SOLV>
1.9445

>  <SCORE.INTRA.SOLV.lig_0>
-73.062

>  <SCORE.INTRA.VDW>
1.34578

>  <SCORE.INTRA.VDW.0>
-1.83782

>  <SCORE.INTRA.norm>
0.202186

>  <SCORE.RESTR>
1.06401

>  <SCORE.RESTR.CAVITY>
1.06401

>  <SCORE.RESTR.norm>
0.048364

>  <SCORE.SYSTEM>
0

>  <SCORE.SYSTEM.CONST>
0

>  <SCORE.SYSTEM.DIHEDRAL>
0

>  <SCORE.SYSTEM.SOLV>
0

>  <SCORE.SYSTEM.norm>
0

>  <SCORE.heavy>
22

>  <SCORE.norm>
0.091023

>  <RMSD>
23.440

$$$$
ligand
 OpenBabel11021811513D
libRbt.so/2013.1/901 2013/11/27
 22 23  0  0  0  0  0  0  0  0999 V2000
  -12.3823  -10.7171   -5.6803 N   0  0  0  0  0  0  0  0  0  0  0  0
  -11.4415  -10.0414   -8.8600 C   0  0  1  0  0  0  0  0  0  0  0  0
  -12.4870  -10.5392   -7.9775 O   0  0  0  0  0  0  0  0  0  0  0  0
   -7.9110  -11.2480   -8.7096 P   0  0  1  0  0  0  0  0  0  0  0  0
  -12.3960   -9.8261   -6.7335 C   0  0  2  0  0  0  0  0  0  0  0  0
  -12.1057  -12.5428   -4.5395 N   0  0  0  0  0  0  0  0  0  0  0  0
  -11.0421   -8.0459   -5.9005 O   0  0  0  0  0  0  0  0  0  0  0  0
  -11.0594   -9.1908   -6.7612 C   0  0  2  0  0  0  0  0  0  0  0  0
  -11.9986  -10.9969   -1.3460 N   0  0  0  0  0  0  0  0  0  0  0  0
  -11.6559   -7.7295   -8.5377 O   0  0  0  0  0  0  0  0  0  0  0  0
  -10.8611   -8.8691   -8.1691 C   0  0  2  0  0  0  0  0  0  0  0  0
  -12.5213  -11.5827   -3.6993 C   0  0  0  0  0  0  0  0  0  0  0  0
  -13.1027   -9.1771   -3.8956 N   0  0  0  0  0  0  0  0  0  0  0  0
   -9.2144  -10.4936   -9.1463 O   0  0  0  0  0  0  0  0  0  0  0  0
  -10.4413  -11.1349   -9.0144 C   0  0  0  0  0  0  0  0  0  0  0  0
   -6.8898  -10.0810   -8.4529 O   0  0  0  0  0  0  0  0  0  0  0  0
  -12.0261  -12.0037   -5.7710 C   0  0  0  0  0  0  0  0  0  0  0  0
  -13.5940  -12.5453   -1.8391 O   0  0  0  0  0  0  0  0  0  0  0  0
  -12.7538  -11.7462   -2.2523 C   0  0  0  0  0  0  0  0  0  0  0  0
  -12.6948  -10.4292   -4.4097 C   0  0  0  0  0  0  0  0  0  0  0  0
   -8.1975  -12.0952   -7.5146 O   0  5  0  0  0  0  0  0  0  0  0  0
   -7.5362  -12.2646   -9.7089 O   0  0  0  0  0  0  0  0  0  0  0  0
  1 17  1  0  0  0  0
  1 20  1  0  0  0  0
  2 15  1  1  0  0  0
  2  3  1  0  0  0  0
  2 11  1  0  0  0  0
  3  5  1  0  0  0  0
  4 16  1  1  0  0  0
  4 21  1  0  0  0  0
  4 22  2  0  0  0  0
  4 14  1  0  0  0  0
  5  1  1  1  0  0  0
  5  8  1  0  0  0  0
  6 17  2  0  0  0  0
  6 12  1  0  0  0  0
  8  7  1  1  0  0  0
  8 11  1  0  0  0  0
  9 19  1  0  0  0  0
 11 10  1  6  0  0  0
 12 20  2  0  0  0  0
 12 19  1  0  0  0  0
 13 20  1  0  0  0  0
 14 15  1  0  0  0  0
 18 19  2  0  0  0  0
M  CHG  1  21  -1
M  END
>  <CHROM.1>
22.18026090,-146.76950023,-157.98678363,153.41692999,118.30809078,-10.85279560
-10.62465522,-6.52950146,2.41338005,-0.66332201,2.25315584

>  <Name>
ligand

>  <RI>
0

>  <Rbt.Current_Directory>
/home/itssahil/PROJECTS/Mol_Feturizer/New_Systems/rnas/4XWF

>  <Rbt.Executable>
rbdock ($Id: //depot/dev/client3/rdock/2013.1/src/exe/rbdock.cxx#4 $)

>  <Rbt.Library>
libRbt.so (2013.1, Build901 2013/11/27)

>  <Rbt.Parameter_File>
/export/apps/rDock/src/rDock_2013.1_src/data/scripts/dock_solv.prm

>  <Rbt.Receptor>
prm/blind_docking_20.prm

>  <SCORE>
2.09706

>  <SCORE.INTER>
-3.50377

>  <SCORE.INTER.CONST>
1

>  <SCORE.INTER.POLAR>
0

>  <SCORE.INTER.ROT>
5

>  <SCORE.INTER.SOLV>
20.53

>  <SCORE.INTER.VDW>
-16.1125

>  <SCORE.INTER.norm>
-0.159262

>  <SCORE.INTRA>
4.57797

>  <SCORE.INTRA.DIHEDRAL>
4.62153

>  <SCORE.INTRA.DIHEDRAL.0>
3.49807

>  <SCORE.INTRA.POLAR>
0

>  <SCORE.INTRA.POLAR.0>
0

>  <SCORE.INTRA.REPUL>
0

>  <SCORE.INTRA.REPUL.0>
0

>  <SCORE.INTRA.SOLV>
2.00893

>  <SCORE.INTRA.SOLV.lig_0>
-73.062

>  <SCORE.INTRA.VDW>
1.26274

>  <SCORE.INTRA.VDW.0>
-1.83782

>  <SCORE.INTRA.norm>
0.20809

>  <SCORE.RESTR>
1.02285

>  <SCORE.RESTR.CAVITY>
1.02285

>  <SCORE.RESTR.norm>
0.0464933

>  <SCORE.SYSTEM>
0

>  <SCORE.SYSTEM.CONST>
0

>  <SCORE.SYSTEM.DIHEDRAL>
0

>  <SCORE.SYSTEM.SOLV>
0

>  <SCORE.SYSTEM.norm>
0

>  <SCORE.heavy>
22

>  <SCORE.norm>
0.0953208

>  <RMSD>
23.441

$$$$
ligand
 OpenBabel11021811513D
libRbt.so/2013.1/901 2013/11/27
 22 23  0  0  0  0  0  0  0  0999 V2000
  -12.3625  -10.7124   -5.6731 N   0  0  0  0  0  0  0  0  0  0  0  0
  -11.4089  -10.0207   -8.8456 C   0  0  1  0  0  0  0  0  0  0  0  0
  -12.4555  -10.5293   -7.9704 O   0  0  0  0  0  0  0  0  0  0  0  0
   -7.8705  -11.2366   -8.6856 P   0  0  1  0  0  0  0  0  0  0  0  0
  -12.3773   -9.8188   -6.7241 C   0  0  2  0  0  0  0  0  0  0  0  0
  -12.0704  -12.5365   -4.5337 N   0  0  0  0  0  0  0  0  0  0  0  0
  -11.0428   -8.0299   -5.8787 O   0  0  0  0  0  0  0  0  0  0  0  0
  -11.0459   -9.1726   -6.7425 C   0  0  2  0  0  0  0  0  0  0  0  0
  -12.0483  -10.9801   -1.3360 N   0  0  0  0  0  0  0  0  0  0  0  0
  -11.6440   -7.7115   -8.5186 O   0  0  0  0  0  0  0  0  0  0  0  0
  -10.8421   -8.8456   -8.1484 C   0  0  2  0  0  0  0  0  0  0  0  0
  -12.5127  -11.5858   -3.6964 C   0  0  0  0  0  0  0  0  0  0  0  0
  -13.1313   -9.1896   -3.8939 N   0  0  0  0  0  0  0  0  0  0  0  0
   -9.1723  -10.4558   -9.0784 O   0  0  0  0  0  0  0  0  0  0  0  0
  -10.3990  -11.1056   -8.9971 C   0  0  0  0  0  0  0  0  0  0  0  0
   -6.8230  -10.0898   -8.4446 O   0  0  0  0  0  0  0  0  0  0  0  0
  -11.9838  -11.9927   -5.7627 C   0  0  0  0  0  0  0  0  0  0  0  0
  -13.5772  -12.5869   -1.8519 O   0  0  0  0  0  0  0  0  0  0  0  0
  -12.7611  -11.7573   -2.2530 C   0  0  0  0  0  0  0  0  0  0  0  0
  -12.6960  -10.4334   -4.4060 C   0  0  0  0  0  0  0  0  0  0  0  0
   -8.1386  -12.0922   -7.4923 O   0  5  0  0  0  0  0  0  0  0  0  0
   -7.5403  -12.2482   -9.7055 O   0  0  0  0  0  0  0  0  0  0  0  0
  1 17  1  0  0  0  0
  1 20  1  0  0  0  0
  2 15  1  1  0  0  0
  2  3  1  0  0  0  0
  2 11  1  0  0  0  0
  3  5  1  0  0  0  0
  4 16  1  1  0  0  0
  4 21  1  0  0  0  0
  4 22  2  0  0  0  0
  4 14  1  0  0  0  0
  5  1  1  1  0  0  0
  5  8  1  0  0  0  0
  6 17  2  0  0  0  0
  6 12  1  0  0  0  0
  8  7  1  1  0  0  0
  8 11  1  0  0  0  0
  9 19  1  0  0  0  0
 11 10  1  6  0  0  0
 12 20  2  0  0  0  0
 12 19  1  0  0  0  0
 13 20  1  0  0  0  0
 14 15  1  0  0  0  0
 18 19  2  0  0  0  0
M  CHG  1  21  -1
M  END
>  <CHROM.1>
22.81609961,-144.96734243,-161.87439445,156.23400416,119.51458839,-10.83245406
-10.61672122,-6.51576649,2.42143726,-0.66012512,2.26156482

>  <Name>
ligand

>  <RI>
0

>  <Rbt.Current_Directory>
/home/itssahil/PROJECTS/Mol_Feturizer/New_Systems/rnas/4XWF

>  <Rbt.Executable>
rbdock ($Id: //depot/dev/client3/rdock/2013.1/src/exe/rbdock.cxx#4 $)

>  <Rbt.Library>
libRbt.so (2013.1, Build901 2013/11/27)

>  <Rbt.Parameter_File>
/export/apps/rDock/src/rDock_2013.1_src/data/scripts/dock_solv.prm

>  <Rbt.Receptor>
prm/blind_docking_20.prm

>  <SCORE>
2.17801

>  <SCORE.INTER>
-3.28942

>  <SCORE.INTER.CONST>
1

>  <SCORE.INTER.POLAR>
0

>  <SCORE.INTER.ROT>
5

>  <SCORE.INTER.SOLV>
20.9188

>  <SCORE.INTER.VDW>
-16.0992

>  <SCORE.INTER.norm>
-0.149519

>  <SCORE.INTRA>
4.42141

>  <SCORE.INTRA.DIHEDRAL>
4.14329

>  <SCORE.INTRA.DIHEDRAL.0>
3.49807

>  <SCORE.INTRA.POLAR>
0

>  <SCORE.INTRA.POLAR.0>
0

>  <SCORE.INTRA.REPUL>
0

>  <SCORE.INTRA.REPUL.0>
0

>  <SCORE.INTRA.SOLV>
1.93663

>  <SCORE.INTRA.SOLV.lig_0>
-73.062

>  <SCORE.INTRA.VDW>
1.38144

>  <SCORE.INTRA.VDW.0>
-1.83782

>  <SCORE.INTRA.norm>
0.200973

>  <SCORE.RESTR>
1.04603

>  <SCORE.RESTR.CAVITY>
1.04603

>  <SCORE.RESTR.norm>
0.0475467

>  <SCORE.SYSTEM>
0

>  <SCORE.SYSTEM.CONST>
0

>  <SCORE.SYSTEM.DIHEDRAL>
0

>  <SCORE.SYSTEM.SOLV>
0

>  <SCORE.SYSTEM.norm>
0

>  <SCORE.heavy>
22

>  <SCORE.norm>
0.0990004

>  <RMSD>
23.450

$$$$
ligand
 OpenBabel11021811513D
libRbt.so/2013.1/901 2013/11/27
 22 23  0  0  0  0  0  0  0  0999 V2000
  -12.3320  -10.6564   -5.6206 N   0  0  0  0  0  0  0  0  0  0  0  0
  -11.4701  -10.1211   -8.8491 C   0  0  1  0  0  0  0  0  0  0  0  0
  -12.4817  -10.6075   -7.9217 O   0  0  0  0  0  0  0  0  0  0  0  0
   -7.8968  -11.2315   -8.6935 P   0  0  1  0  0  0  0  0  0  0  0  0
  -12.3961   -9.8251   -6.7196 C   0  0  2  0  0  0  0  0  0  0  0  0
  -12.0168  -12.4217   -4.3977 N   0  0  0  0  0  0  0  0  0  0  0  0
  -11.0949   -7.9548   -6.0090 O   0  0  0  0  0  0  0  0  0  0  0  0
  -11.0845   -9.1446   -6.8065 C   0  0  2  0  0  0  0  0  0  0  0  0
  -13.7822  -11.5353   -1.5596 N   0  0  0  0  0  0  0  0  0  0  0  0
  -11.7642   -7.8044   -8.6474 O   0  0  0  0  0  0  0  0  0  0  0  0
  -10.9218   -8.8930   -8.2332 C   0  0  2  0  0  0  0  0  0  0  0  0
  -12.3610  -11.4078   -3.5890 C   0  0  0  0  0  0  0  0  0  0  0  0
  -12.9102   -9.0048   -3.8846 N   0  0  0  0  0  0  0  0  0  0  0  0
   -9.2265  -10.5072   -9.1007 O   0  0  0  0  0  0  0  0  0  0  0  0
  -10.4331  -11.1848   -8.9633 C   0  0  0  0  0  0  0  0  0  0  0  0
   -6.9031  -10.0407   -8.4383 O   0  0  0  0  0  0  0  0  0  0  0  0
  -12.0054  -11.9535   -5.6603 C   0  0  0  0  0  0  0  0  0  0  0  0
  -11.5113  -11.4926   -1.3962 O   0  0  0  0  0  0  0  0  0  0  0  0
  -12.5044  -11.4859   -2.1234 C   0  0  0  0  0  0  0  0  0  0  0  0
  -12.5582  -10.2920   -4.3514 C   0  0  0  0  0  0  0  0  0  0  0  0
   -8.1416  -12.1003   -7.5048 O   0  5  0  0  0  0  0  0  0  0  0  0
   -7.5108  -12.2257   -9.7110 O   0  0  0  0  0  0  0  0  0  0  0  0
  1 17  1  0  0  0  0
  1 20  1  0  0  0  0
  2 15  1  1  0  0  0
  2  3  1  0  0  0  0
  2 11  1  0  0  0  0
  3  5  1  0  0  0  0
  4 16  1  1  0  0  0
  4 21  1  0  0  0  0
  4 22  2  0  0  0  0
  4 14  1  0  0  0  0
  5  1  1  1  0  0  0
  5  8  1  0  0  0  0
  6 17  2  0  0  0  0
  6 12  1  0  0  0  0
  8  7  1  1  0  0  0
  8 11  1  0  0  0  0
  9 19  1  0  0  0  0
 11 10  1  6  0  0  0
 12 20  2  0  0  0  0
 12 19  1  0  0  0  0
 13 20  1  0  0  0  0
 14 15  1  0  0  0  0
 18 19  2  0  0  0  0
M  CHG  1  21  -1
M  END
>  <CHROM.1>
18.05392792,-144.54206699,-158.26853706,156.28027696,-103.40304953,-10.80035450
-10.56099767,-6.49737041,2.34647240,-0.62637658,2.12683186

>  <Name>
ligand

>  <RI>
0

>  <Rbt.Current_Directory>
/home/itssahil/PROJECTS/Mol_Feturizer/New_Systems/rnas/4XWF

>  <Rbt.Executable>
rbdock ($Id: //depot/dev/client3/rdock/2013.1/src/exe/rbdock.cxx#4 $)

>  <Rbt.Library>
libRbt.so (2013.1, Build901 2013/11/27)

>  <Rbt.Parameter_File>
/export/apps/rDock/src/rDock_2013.1_src/data/scripts/dock_solv.prm

>  <Rbt.Receptor>
prm/blind_docking_20.prm

>  <SCORE>
2.91653

>  <SCORE.INTER>
-3.02754

>  <SCORE.INTER.CONST>
1

>  <SCORE.INTER.POLAR>
0

>  <SCORE.INTER.ROT>
5

>  <SCORE.INTER.SOLV>
20.2597

>  <SCORE.INTER.VDW>
-15.7049

>  <SCORE.INTER.norm>
-0.137615

>  <SCORE.INTRA>
4.86412

>  <SCORE.INTRA.DIHEDRAL>
4.68802

>  <SCORE.INTRA.DIHEDRAL.0>
3.49807

>  <SCORE.INTRA.POLAR>
0

>  <SCORE.INTRA.POLAR.0>
0

>  <SCORE.INTRA.REPUL>
0

>  <SCORE.INTRA.REPUL.0>
0

>  <SCORE.INTRA.SOLV>
2.00534

>  <SCORE.INTRA.SOLV.lig_0>
-73.062

>  <SCORE.INTRA.VDW>
1.51744

>  <SCORE.INTRA.VDW.0>
-1.83782

>  <SCORE.INTRA.norm>
0.221096

>  <SCORE.RESTR>
1.07995

>  <SCORE.RESTR.CAVITY>
1.07995

>  <SCORE.RESTR.norm>
0.0490888

>  <SCORE.SYSTEM>
0

>  <SCORE.SYSTEM.CONST>
0

>  <SCORE.SYSTEM.DIHEDRAL>
0

>  <SCORE.SYSTEM.SOLV>
0

>  <SCORE.SYSTEM.norm>
0

>  <SCORE.heavy>
22

>  <SCORE.norm>
0.13257

>  <RMSD>
23.450

$$$$
ligand
 OpenBabel11021811513D
libRbt.so/2013.1/901 2013/11/27
 22 23  0  0  0  0  0  0  0  0999 V2000
  -12.0229  -10.4384   -5.7655 N   0  0  0  0  0  0  0  0  0  0  0  0
  -11.4342  -10.0176   -9.0714 C   0  0  1  0  0  0  0  0  0  0  0  0
  -12.3495  -10.5018   -8.0479 O   0  0  0  0  0  0  0  0  0  0  0  0
   -7.9256  -11.3038   -8.5130 P   0  0  1  0  0  0  0  0  0  0  0  0
  -12.2075   -9.6619   -6.8908 C   0  0  2  0  0  0  0  0  0  0  0  0
  -11.3624  -12.0483   -4.4682 N   0  0  0  0  0  0  0  0  0  0  0  0
  -10.9406   -7.7090   -6.3647 O   0  0  0  0  0  0  0  0  0  0  0  0
  -10.9380   -8.9329   -7.1089 C   0  0  2  0  0  0  0  0  0  0  0  0
  -11.4993  -10.4991   -1.3883 N   0  0  0  0  0  0  0  0  0  0  0  0
  -11.8149   -7.7081   -8.9468 O   0  0  0  0  0  0  0  0  0  0  0  0
  -10.8958   -8.7409   -8.5534 C   0  0  2  0  0  0  0  0  0  0  0  0
  -12.0296  -11.1552   -3.7212 C   0  0  0  0  0  0  0  0  0  0  0  0
  -13.1627   -8.9849   -4.1333 N   0  0  0  0  0  0  0  0  0  0  0  0
   -9.3286  -10.6136   -8.3951 O   0  0  0  0  0  0  0  0  0  0  0  0
  -10.3625  -11.0419   -9.2206 C   0  0  0  0  0  0  0  0  0  0  0  0
   -6.9235  -10.0953   -8.4365 O   0  0  0  0  0  0  0  0  0  0  0  0
  -11.3651  -11.6033   -5.7392 C   0  0  0  0  0  0  0  0  0  0  0  0
  -13.1414  -12.0129   -1.8330 O   0  0  0  0  0  0  0  0  0  0  0  0
  -12.2740  -11.2571   -2.2705 C   0  0  0  0  0  0  0  0  0  0  0  0
  -12.4460  -10.1369   -4.5307 C   0  0  0  0  0  0  0  0  0  0  0  0
   -7.7676  -12.3101   -7.4220 O   0  5  0  0  0  0  0  0  0  0  0  0
   -7.8625  -12.1574   -9.7129 O   0  0  0  0  0  0  0  0  0  0  0  0
  1 17  1  0  0  0  0
  1 20  1  0  0  0  0
  2 15  1  1  0  0  0
  2  3  1  0  0  0  0
  2 11  1  0  0  0  0
  3  5  1  0  0  0  0
  4 16  1  1  0  0  0
  4 21  1  0  0  0  0
  4 22  2  0  0  0  0
  4 14  1  0  0  0  0
  5  1  1  1  0  0  0
  5  8  1  0  0  0  0
  6 17  2  0  0  0  0
  6 12  1  0  0  0  0
  8  7  1  1  0  0  0
  8 11  1  0  0  0  0
  9 19  1  0  0  0  0
 11 10  1  1  0  0  0
 12 20  2  0  0  0  0
 12 19  1  0  0  0  0
 13 20  1  0  0  0  0
 14 15  1  0  0  0  0
 18 19  2  0  0  0  0
M  CHG  1  21  -1
M  END
>  <CHROM.1>
33.96990897,-94.66679437,137.61982855,-168.24032399,102.22390986,-10.68163939
-10.44889673,-6.58450860,2.31261549,-0.64063798,2.07762025

>  <Name>
ligand

>  <RI>
0

>  <Rbt.Current_Directory>
/home/itssahil/PROJECTS/Mol_Feturizer/New_Systems/rnas/4XWF

>  <Rbt.Executable>
rbdock ($Id: //depot/dev/client3/rdock/2013.1/src/exe/rbdock.cxx#4 $)

>  <Rbt.Library>
libRbt.so (2013.1, Build901 2013/11/27)

>  <Rbt.Parameter_File>
/export/apps/rDock/src/rDock_2013.1_src/data/scripts/dock_solv.prm

>  <Rbt.Receptor>
prm/blind_docking_20.prm

>  <SCORE>
3.37422

>  <SCORE.INTER>
-3.3921

>  <SCORE.INTER.CONST>
1

>  <SCORE.INTER.POLAR>
0

>  <SCORE.INTER.ROT>
5

>  <SCORE.INTER.SOLV>
20.1684

>  <SCORE.INTER.VDW>
-15.9175

>  <SCORE.INTER.norm>
-0.154186

>  <SCORE.INTRA>
5.47732

>  <SCORE.INTRA.DIHEDRAL>
4.0842

>  <SCORE.INTRA.DIHEDRAL.0>
3.49807

>  <SCORE.INTRA.POLAR>
0

>  <SCORE.INTRA.POLAR.0>
0

>  <SCORE.INTRA.REPUL>
0

>  <SCORE.INTRA.REPUL.0>
0

>  <SCORE.INTRA.SOLV>
0.9142

>  <SCORE.INTRA.SOLV.lig_0>
-73.062

>  <SCORE.INTRA.VDW>
2.97812

>  <SCORE.INTRA.VDW.0>
-1.83782

>  <SCORE.INTRA.norm>
0.248969

>  <SCORE.RESTR>
1.28899

>  <SCORE.RESTR.CAVITY>
1.28899

>  <SCORE.RESTR.norm>
0.0585906

>  <SCORE.SYSTEM>
0

>  <SCORE.SYSTEM.CONST>
0

>  <SCORE.SYSTEM.DIHEDRAL>
0

>  <SCORE.SYSTEM.SOLV>
0

>  <SCORE.SYSTEM.norm>
0

>  <SCORE.heavy>
22

>  <SCORE.norm>
0.153374

>  <RMSD>
23.461

$$$$
ligand
 OpenBabel11021811513D
libRbt.so/2013.1/901 2013/11/27
 22 23  0  0  0  0  0  0  0  0999 V2000
  -12.3486  -10.7154   -5.6456 N   0  0  0  0  0  0  0  0  0  0  0  0
  -11.4364  -10.1130   -8.8484 C   0  0  1  0  0  0  0  0  0  0  0  0
  -12.4631  -10.6165   -7.9471 O   0  0  0  0  0  0  0  0  0  0  0  0
   -7.8637  -11.2336   -8.7046 P   0  0  1  0  0  0  0  0  0  0  0  0
  -12.3940   -9.8604   -6.7273 C   0  0  2  0  0  0  0  0  0  0  0  0
  -12.0260  -12.4982   -4.4504 N   0  0  0  0  0  0  0  0  0  0  0  0
  -11.0992   -8.0094   -5.9568 O   0  0  0  0  0  0  0  0  0  0  0  0
  -11.0796   -9.1818   -6.7795 C   0  0  2  0  0  0  0  0  0  0  0  0
  -13.5883  -12.5381   -1.6883 N   0  0  0  0  0  0  0  0  0  0  0  0
  -11.7279   -7.8004   -8.6012 O   0  0  0  0  0  0  0  0  0  0  0  0
  -10.8946   -8.9000   -8.1978 C   0  0  2  0  0  0  0  0  0  0  0  0
  -12.4389  -11.5161   -3.6347 C   0  0  0  0  0  0  0  0  0  0  0  0
  -13.0566   -9.1261   -3.8996 N   0  0  0  0  0  0  0  0  0  0  0  0
   -9.1925  -10.4995   -9.0969 O   0  0  0  0  0  0  0  0  0  0  0  0
  -10.4003  -11.1769   -8.9697 C   0  0  0  0  0  0  0  0  0  0  0  0
   -6.8567  -10.0505   -8.4668 O   0  0  0  0  0  0  0  0  0  0  0  0
  -11.9766  -11.9996   -5.7004 C   0  0  0  0  0  0  0  0  0  0  0  0
  -11.9978  -10.9345   -1.3976 O   0  0  0  0  0  0  0  0  0  0  0  0
  -12.6422  -11.6341   -2.1789 C   0  0  0  0  0  0  0  0  0  0  0  0
  -12.6413  -10.3893   -4.3796 C   0  0  0  0  0  0  0  0  0  0  0  0
   -8.1003  -12.0961   -7.5096 O   0  5  0  0  0  0  0  0  0  0  0  0
   -7.4996  -12.2347   -9.7233 O   0  0  0  0  0  0  0  0  0  0  0  0
  1 17  1  0  0  0  0
  1 20  1  0  0  0  0
  2 15  1  1  0  0  0
  2  3  1  0  0  0  0
  2 11  1  0  0  0  0
  3  5  1  0  0  0  0
  4 16  1  1  0  0  0
  4 21  1  0  0  0  0
  4 22  2  0  0  0  0
  4 14  1  0  0  0  0
  5  1  1  1  0  0  0
  5  8  1  0  0  0  0
  6 17  2  0  0  0  0
  6 12  1  0  0  0  0
  8  7  1  1  0  0  0
  8 11  1  0  0  0  0
  9 19  1  0  0  0  0
 11 10  1  6  0  0  0
 12 20  2  0  0  0  0
 12 19  1  0  0  0  0
 13 20  1  0  0  0  0
 14 15  1  0  0  0  0
 18 19  2  0  0  0  0
M  CHG  1  21  -1
M  END
>  <CHROM.1>
20.68021040,-145.52060359,-159.70612863,156.80511945,-61.36242593,-10.81682169
-10.60798571,-6.51065899,2.38892511,-0.64829229,2.20394611

>  <Name>
ligand

>  <RI>
0

>  <Rbt.Current_Directory>
/home/itssahil/PROJECTS/Mol_Feturizer/New_Systems/rnas/4XWF

>  <Rbt.Executable>
rbdock ($Id: //depot/dev/client3/rdock/2013.1/src/exe/rbdock.cxx#4 $)

>  <Rbt.Library>
libRbt.so (2013.1, Build901 2013/11/27)

>  <Rbt.Parameter_File>
/export/apps/rDock/src/rDock_2013.1_src/data/scripts/dock_solv.prm

>  <Rbt.Receptor>
prm/blind_docking_20.prm

>  <SCORE>
3.12496

>  <SCORE.INTER>
-3.02315

>  <SCORE.INTER.CONST>
1

>  <SCORE.INTER.POLAR>
0

>  <SCORE.INTER.ROT>
5

>  <SCORE.INTER.SOLV>
20.8007

>  <SCORE.INTER.VDW>
-15.8823

>  <SCORE.INTER.norm>
-0.137416

>  <SCORE.INTRA>
5.15386

>  <SCORE.INTRA.DIHEDRAL>
5.73053

>  <SCORE.INTRA.DIHEDRAL.0>
3.49807

>  <SCORE.INTRA.POLAR>
0

>  <SCORE.INTRA.POLAR.0>
0

>  <SCORE.INTRA.REPUL>
0

>  <SCORE.INTRA.REPUL.0>
0

>  <SCORE.INTRA.SOLV>
1.77496

>  <SCORE.INTRA.SOLV.lig_0>
-73.062

>  <SCORE.INTRA.VDW>
1.40112

>  <SCORE.INTRA.VDW.0>
-1.83782

>  <SCORE.INTRA.norm>
0.234266

>  <SCORE.RESTR>
0.994252

>  <SCORE.RESTR.CAVITY>
0.994252

>  <SCORE.RESTR.norm>
0.0451933

>  <SCORE.SYSTEM>
0

>  <SCORE.SYSTEM.CONST>
0

>  <SCORE.SYSTEM.DIHEDRAL>
0

>  <SCORE.SYSTEM.SOLV>
0

>  <SCORE.SYSTEM.norm>
0

>  <SCORE.heavy>
22

>  <SCORE.norm>
0.142044

>  <RMSD>
23.465

$$$$
ligand
 OpenBabel11021811513D
libRbt.so/2013.1/901 2013/11/27
 22 23  0  0  0  0  0  0  0  0999 V2000
  -12.9037   -9.9660   -5.8413 N   0  0  0  0  0  0  0  0  0  0  0  0
  -11.1862  -10.6147   -8.6841 C   0  0  1  0  0  0  0  0  0  0  0  0
  -12.4241  -10.7955   -7.9393 O   0  0  0  0  0  0  0  0  0  0  0  0
   -7.6802  -11.9959   -8.2866 P   0  0  1  0  0  0  0  0  0  0  0  0
  -12.6449   -9.6153   -7.1501 C   0  0  2  0  0  0  0  0  0  0  0  0
  -13.8283  -10.0335   -3.8787 N   0  0  0  0  0  0  0  0  0  0  0  0
  -11.5324   -7.5192   -6.8959 O   0  0  0  0  0  0  0  0  0  0  0  0
  -11.3401   -8.9165   -7.1457 C   0  0  2  0  0  0  0  0  0  0  0  0
  -11.5407  -11.4249   -1.8633 N   0  0  0  0  0  0  0  0  0  0  0  0
  -11.4586   -8.4222   -9.4670 O   0  0  0  0  0  0  0  0  0  0  0  0
  -10.7906   -9.2063   -8.4644 C   0  0  2  0  0  0  0  0  0  0  0  0
  -12.8542  -10.9557   -3.9149 C   0  0  0  0  0  0  0  0  0  0  0  0
  -11.2175  -11.7482   -5.6050 N   0  0  0  0  0  0  0  0  0  0  0  0
   -8.9663  -11.1779   -8.6548 O   0  0  0  0  0  0  0  0  0  0  0  0
  -10.1872  -11.5587   -8.1089 C   0  0  0  0  0  0  0  0  0  0  0  0
   -6.5129  -10.9937   -8.6087 O   0  0  0  0  0  0  0  0  0  0  0  0
  -13.8528   -9.4157   -5.0750 C   0  0  0  0  0  0  0  0  0  0  0  0
  -12.9683  -12.9791   -2.7190 O   0  0  0  0  0  0  0  0  0  0  0  0
  -12.4772  -11.8539   -2.8078 C   0  0  0  0  0  0  0  0  0  0  0  0
  -12.2694  -10.9213   -5.1486 C   0  0  0  0  0  0  0  0  0  0  0  0
   -7.7507  -12.4273   -6.8594 O   0  5  0  0  0  0  0  0  0  0  0  0
   -7.6678  -13.2930   -8.9865 O   0  0  0  0  0  0  0  0  0  0  0  0
  1 17  1  0  0  0  0
  1 20  1  0  0  0  0
  2 15  1  1  0  0  0
  2  3  1  0  0  0  0
  2 11  1  0  0  0  0
  3  5  1  0  0  0  0
  4 16  1  6  0  0  0
  4 21  1  0  0  0  0
  4 22  2  0  0  0  0
  4 14  1  0  0  0  0
  5  1  1  1  0  0  0
  5  8  1  0  0  0  0
  6 17  2  0  0  0  0
  6 12  1  0  0  0  0
  8  7  1  6  0  0  0
  8 11  1  0  0  0  0
  9 19  1  0  0  0  0
 11 10  1  6  0  0  0
 12 20  2  0  0  0  0
 12 19  1  0  0  0  0
 13 20  1  0  0  0  0
 14 15  1  0  0  0  0
 18 19  2  0  0  0  0
M  CHG  1  21  -1
M  END
>  <CHROM.1>
-137.24043650,-168.60767926,-159.28090318,-178.43465946,-87.57276805,-10.81234931
-10.80875499,-6.64189113,2.60881445,-0.59674620,2.17814074

>  <Name>
ligand

>  <RI>
0

>  <Rbt.Current_Directory>
/home/itssahil/PROJECTS/Mol_Feturizer/New_Systems/rnas/4XWF

>  <Rbt.Executable>
rbdock ($Id: //depot/dev/client3/rdock/2013.1/src/exe/rbdock.cxx#4 $)

>  <Rbt.Library>
libRbt.so (2013.1, Build901 2013/11/27)

>  <Rbt.Parameter_File>
/export/apps/rDock/src/rDock_2013.1_src/data/scripts/dock_solv.prm

>  <Rbt.Receptor>
prm/blind_docking_20.prm

>  <SCORE>
2.67496

>  <SCORE.INTER>
-3.09185

>  <SCORE.INTER.CONST>
1

>  <SCORE.INTER.POLAR>
0

>  <SCORE.INTER.ROT>
5

>  <SCORE.INTER.SOLV>
24.2376

>  <SCORE.INTER.VDW>
-17.0738

>  <SCORE.INTER.norm>
-0.140538

>  <SCORE.INTRA>
3.81261

>  <SCORE.INTRA.DIHEDRAL>
0.0432569

>  <SCORE.INTRA.DIHEDRAL.0>
3.49807

>  <SCORE.INTRA.POLAR>
0

>  <SCORE.INTRA.POLAR.0>
0

>  <SCORE.INTRA.REPUL>
0

>  <SCORE.INTRA.REPUL.0>
0

>  <SCORE.INTRA.SOLV>
5.89001

>  <SCORE.INTRA.SOLV.lig_0>
-73.062

>  <SCORE.INTRA.VDW>
0.845976

>  <SCORE.INTRA.VDW.0>
-1.83782

>  <SCORE.INTRA.norm>
0.1733

>  <SCORE.RESTR>
1.95419

>  <SCORE.RESTR.CAVITY>
1.95419

>  <SCORE.RESTR.norm>
0.088827

>  <SCORE.SYSTEM>
0

>  <SCORE.SYSTEM.CONST>
0

>  <SCORE.SYSTEM.DIHEDRAL>
0

>  <SCORE.SYSTEM.SOLV>
0

>  <SCORE.SYSTEM.norm>
0

>  <SCORE.heavy>
22

>  <SCORE.norm>
0.121589

>  <RMSD>
23.468

$$$$
ligand
 OpenBabel11021811513D
libRbt.so/2013.1/901 2013/11/27
 22 23  0  0  0  0  0  0  0  0999 V2000
  -12.7403   -9.8054   -5.7481 N   0  0  0  0  0  0  0  0  0  0  0  0
  -11.2286  -10.6007   -8.6695 C   0  0  1  0  0  0  0  0  0  0  0  0
  -12.4158  -10.7290   -7.8365 O   0  0  0  0  0  0  0  0  0  0  0  0
   -7.7609  -12.1231   -8.5500 P   0  0  1  0  0  0  0  0  0  0  0  0
  -12.5654   -9.5136   -7.0851 C   0  0  2  0  0  0  0  0  0  0  0  0
  -13.3831   -9.6523   -3.6806 N   0  0  0  0  0  0  0  0  0  0  0  0
  -11.4079   -7.4284   -6.9949 O   0  0  0  0  0  0  0  0  0  0  0  0
  -11.2533   -8.8380   -7.1976 C   0  0  2  0  0  0  0  0  0  0  0  0
  -12.9943  -13.0923   -2.8948 N   0  0  0  0  0  0  0  0  0  0  0  0
  -11.5214   -8.4379   -9.5246 O   0  0  0  0  0  0  0  0  0  0  0  0
  -10.7986   -9.1915   -8.5367 C   0  0  2  0  0  0  0  0  0  0  0  0
  -12.7218  -10.8105   -3.8291 C   0  0  0  0  0  0  0  0  0  0  0  0
  -11.6090  -11.9950   -5.7058 N   0  0  0  0  0  0  0  0  0  0  0  0
   -9.0658  -11.3223   -8.8883 O   0  0  0  0  0  0  0  0  0  0  0  0
  -10.2068  -11.5374   -8.1231 C   0  0  0  0  0  0  0  0  0  0  0  0
   -6.6856  -11.4728   -9.4940 O   0  0  0  0  0  0  0  0  0  0  0  0
  -13.3877   -9.0270   -4.8733 C   0  0  0  0  0  0  0  0  0  0  0  0
  -11.8243  -11.4982   -1.7655 O   0  0  0  0  0  0  0  0  0  0  0  0
  -12.4727  -11.8022   -2.7666 C   0  0  0  0  0  0  0  0  0  0  0  0
  -12.3166  -10.9154   -5.1292 C   0  0  0  0  0  0  0  0  0  0  0  0
   -7.4609  -12.0022   -7.0928 O   0  5  0  0  0  0  0  0  0  0  0  0
   -7.9882  -13.5732   -8.6849 O   0  0  0  0  0  0  0  0  0  0  0  0
  1 17  1  0  0  0  0
  1 20  1  0  0  0  0
  2 15  1  1  0  0  0
  2  3  1  0  0  0  0
  2 11  1  0  0  0  0
  3  5  1  0  0  0  0
  4 16  1  6  0  0  0
  4 21  1  0  0  0  0
  4 22  2  0  0  0  0
  4 14  1  0  0  0  0
  5  1  1  1  0  0  0
  5  8  1  0  0  0  0
  6 17  2  0  0  0  0
  6 12  1  0  0  0  0
  8  7  1  6  0  0  0
  8 11  1  0  0  0  0
  9 19  1  0  0  0  0
 11 10  1  6  0  0  0
 12 20  2  0  0  0  0
 12 19  1  0  0  0  0
 13 20  1  0  0  0  0
 14 15  1  0  0  0  0
 18 19  2  0  0  0  0
M  CHG  1  21  -1
M  END
>  <CHROM.1>
-153.38029057,-176.25826594,-173.03969281,178.06739305,118.36908411,-10.80427479
-10.79275525,-6.69947228,2.60902607,-0.68521542,2.20898926

>  <Name>
ligand

>  <RI>
0

>  <Rbt.Current_Directory>
/home/itssahil/PROJECTS/Mol_Feturizer/New_Systems/rnas/4XWF

>  <Rbt.Executable>
rbdock ($Id: //depot/dev/client3/rdock/2013.1/src/exe/rbdock.cxx#4 $)

>  <Rbt.Library>
libRbt.so (2013.1, Build901 2013/11/27)

>  <Rbt.Parameter_File>
/export/apps/rDock/src/rDock_2013.1_src/data/scripts/dock_solv.prm

>  <Rbt.Receptor>
prm/blind_docking_20.prm

>  <SCORE>
1.92357

>  <SCORE.INTER>
-2.02638

>  <SCORE.INTER.CONST>
1

>  <SCORE.INTER.POLAR>
0

>  <SCORE.INTER.ROT>
5

>  <SCORE.INTER.SOLV>
22.0081

>  <SCORE.INTER.VDW>
-15.6203

>  <SCORE.INTER.norm>
-0.0921081

>  <SCORE.INTRA>
1.81559

>  <SCORE.INTRA.DIHEDRAL>
-1.80826

>  <SCORE.INTRA.DIHEDRAL.0>
3.49807

>  <SCORE.INTRA.POLAR>
0

>  <SCORE.INTRA.POLAR.0>
0

>  <SCORE.INTRA.REPUL>
0

>  <SCORE.INTRA.REPUL.0>
0

>  <SCORE.INTRA.SOLV>
4.75571

>  <SCORE.INTRA.SOLV.lig_0>
-73.062

>  <SCORE.INTRA.VDW>
0.341871

>  <SCORE.INTRA.VDW.0>
-1.83782

>  <SCORE.INTRA.norm>
0.082527

>  <SCORE.RESTR>
2.13435

>  <SCORE.RESTR.CAVITY>
2.13435

>  <SCORE.RESTR.norm>
0.097016

>  <SCORE.SYSTEM>
0

>  <SCORE.SYSTEM.CONST>
0

>  <SCORE.SYSTEM.DIHEDRAL>
0

>  <SCORE.SYSTEM.SOLV>
0

>  <SCORE.SYSTEM.norm>
0

>  <SCORE.heavy>
22

>  <SCORE.norm>
0.0874349

>  <RMSD>
23.470

$$$$
ligand
 OpenBabel11021811513D
libRbt.so/2013.1/901 2013/11/27
 22 23  0  0  0  0  0  0  0  0999 V2000
  -12.8901   -9.9320   -5.8427 N   0  0  0  0  0  0  0  0  0  0  0  0
  -11.1962  -10.6215   -8.6901 C   0  0  1  0  0  0  0  0  0  0  0  0
  -12.4284  -10.7903   -7.9331 O   0  0  0  0  0  0  0  0  0  0  0  0
   -7.6882  -11.9992   -8.2975 P   0  0  1  0  0  0  0  0  0  0  0  0
  -12.6411   -9.5993   -7.1582 C   0  0  2  0  0  0  0  0  0  0  0  0
  -13.8463  -10.0344   -3.8969 N   0  0  0  0  0  0  0  0  0  0  0  0
  -11.5235   -7.5017   -6.9410 O   0  0  0  0  0  0  0  0  0  0  0  0
  -11.3353   -8.9026   -7.1735 C   0  0  2  0  0  0  0  0  0  0  0  0
  -11.2960  -11.1887   -1.9211 N   0  0  0  0  0  0  0  0  0  0  0  0
  -11.4716   -8.4392   -9.5003 O   0  0  0  0  0  0  0  0  0  0  0  0
  -10.7968   -9.2109   -8.4926 C   0  0  2  0  0  0  0  0  0  0  0  0
  -12.7770  -10.8449   -3.8814 C   0  0  0  0  0  0  0  0  0  0  0  0
  -11.0255  -11.5096   -5.5105 N   0  0  0  0  0  0  0  0  0  0  0  0
   -8.9772  -11.1888   -8.6722 O   0  0  0  0  0  0  0  0  0  0  0  0
  -10.1940  -11.5593   -8.1103 C   0  0  0  0  0  0  0  0  0  0  0  0
   -6.5255  -10.9887   -8.6098 O   0  0  0  0  0  0  0  0  0  0  0  0
  -13.9106   -9.4637   -5.1149 C   0  0  0  0  0  0  0  0  0  0  0  0
  -12.8482  -12.7502   -2.5023 O   0  0  0  0  0  0  0  0  0  0  0  0
  -12.3297  -11.6586   -2.7357 C   0  0  0  0  0  0  0  0  0  0  0  0
  -12.1714  -10.7881   -5.1042 C   0  0  0  0  0  0  0  0  0  0  0  0
   -7.7652  -12.4343   -6.8717 O   0  5  0  0  0  0  0  0  0  0  0  0
   -7.6628  -13.2946   -9.0002 O   0  0  0  0  0  0  0  0  0  0  0  0
  1 17  1  0  0  0  0
  1 20  1  0  0  0  0
  2 15  1  1  0  0  0
  2  3  1  0  0  0  0
  2 11  1  0  0  0  0
  3  5  1  0  0  0  0
  4 16  1  6  0  0  0
  4 21  1  0  0  0  0
  4 22  2  0  0  0  0
  4 14  1  0  0  0  0
  5  1  1  1  0  0  0
  5  8  1  0  0  0  0
  6 17  2  0  0  0  0
  6 12  1  0  0  0  0
  8  7  1  6  0  0  0
  8 11  1  0  0  0  0
  9 19  1  0  0  0  0
 11 10  1  6  0  0  0
 12 20  2  0  0  0  0
 12 19  1  0  0  0  0
 13 20  1  0  0  0  0
 14 15  1  0  0  0  0
 18 19  2  0  0  0  0
M  CHG  1  21  -1
M  END
>  <CHROM.1>
-130.54917479,-168.67879668,-157.77413007,-178.76693556,-98.62388960,-10.78181054
-10.76177045,-6.63613862,2.58241079,-0.59485454,2.11960012

>  <Name>
ligand

>  <RI>
0

>  <Rbt.Current_Directory>
/home/itssahil/PROJECTS/Mol_Feturizer/New_Systems/rnas/4XWF

>  <Rbt.Executable>
rbdock ($Id: //depot/dev/client3/rdock/2013.1/src/exe/rbdock.cxx#4 $)

>  <Rbt.Library>
libRbt.so (2013.1, Build901 2013/11/27)

>  <Rbt.Parameter_File>
/export/apps/rDock/src/rDock_2013.1_src/data/scripts/dock_solv.prm

>  <Rbt.Receptor>
prm/blind_docking_20.prm

>  <SCORE>
2.87961

>  <SCORE.INTER>
-2.74356

>  <SCORE.INTER.CONST>
1

>  <SCORE.INTER.POLAR>
0

>  <SCORE.INTER.ROT>
5

>  <SCORE.INTER.SOLV>
23.9939

>  <SCORE.INTER.VDW>
-16.7603

>  <SCORE.INTER.norm>
-0.124707

>  <SCORE.INTRA>
3.70019

>  <SCORE.INTRA.DIHEDRAL>
-0.363253

>  <SCORE.INTRA.DIHEDRAL.0>
3.49807

>  <SCORE.INTRA.POLAR>
0

>  <SCORE.INTRA.POLAR.0>
0

>  <SCORE.INTRA.REPUL>
0

>  <SCORE.INTRA.REPUL.0>
0

>  <SCORE.INTRA.SOLV>
6.19817

>  <SCORE.INTRA.SOLV.lig_0>
-73.062

>  <SCORE.INTRA.VDW>
0.782734

>  <SCORE.INTRA.VDW.0>
-1.83782

>  <SCORE.INTRA.norm>
0.168191

>  <SCORE.RESTR>
1.92298

>  <SCORE.RESTR.CAVITY>
1.92298

>  <SCORE.RESTR.norm>
0.087408

>  <SCORE.SYSTEM>
0

>  <SCORE.SYSTEM.CONST>
0

>  <SCORE.SYSTEM.DIHEDRAL>
0

>  <SCORE.SYSTEM.SOLV>
0

>  <SCORE.SYSTEM.norm>
0

>  <SCORE.heavy>
22

>  <SCORE.norm>
0.130891

>  <RMSD>
23.472

$$$$
ligand
 OpenBabel11021811513D
libRbt.so/2013.1/901 2013/11/27
 22 23  0  0  0  0  0  0  0  0999 V2000
  -12.0436  -10.6131   -5.7771 N   0  0  0  0  0  0  0  0  0  0  0  0
  -11.4253   -9.9915   -9.0457 C   0  0  1  0  0  0  0  0  0  0  0  0
  -12.3530  -10.5301   -8.0612 O   0  0  0  0  0  0  0  0  0  0  0  0
   -7.9453  -11.3390   -8.5014 P   0  0  1  0  0  0  0  0  0  0  0  0
  -12.2123   -9.7658   -6.8527 C   0  0  2  0  0  0  0  0  0  0  0  0
  -11.3093  -12.2378   -4.5393 N   0  0  0  0  0  0  0  0  0  0  0  0
  -10.9316   -7.8621   -6.1959 O   0  0  0  0  0  0  0  0  0  0  0  0
  -10.9344   -9.0369   -7.0154 C   0  0  2  0  0  0  0  0  0  0  0  0
  -11.9946  -11.0076   -1.3872 N   0  0  0  0  0  0  0  0  0  0  0  0
  -11.7857   -7.6907   -8.7791 O   0  0  0  0  0  0  0  0  0  0  0  0
  -10.8792   -8.7551   -8.4447 C   0  0  2  0  0  0  0  0  0  0  0  0
  -12.1702  -11.5114   -3.8099 C   0  0  0  0  0  0  0  0  0  0  0  0
  -13.5425   -9.4767   -4.1841 N   0  0  0  0  0  0  0  0  0  0  0  0
   -9.3665  -10.6984   -8.3332 O   0  0  0  0  0  0  0  0  0  0  0  0
  -10.3620  -11.0148   -9.2512 C   0  0  0  0  0  0  0  0  0  0  0  0
   -8.0325  -12.0430   -9.9040 O   0  0  0  0  0  0  0  0  0  0  0  0
  -11.2372  -11.6808   -5.7632 C   0  0  0  0  0  0  0  0  0  0  0  0
  -13.3439  -12.6809   -2.1390 O   0  0  0  0  0  0  0  0  0  0  0  0
  -12.5523  -11.7783   -2.4109 C   0  0  0  0  0  0  0  0  0  0  0  0
  -12.6345  -10.4847   -4.5817 C   0  0  0  0  0  0  0  0  0  0  0  0
   -6.9009  -10.2769   -8.4048 O   0  5  0  0  0  0  0  0  0  0  0  0
   -7.6132  -12.1856   -7.3414 O   0  0  0  0  0  0  0  0  0  0  0  0
  1 17  1  0  0  0  0
  1 20  1  0  0  0  0
  2 15  1  1  0  0  0
  2  3  1  0  0  0  0
  2 11  1  0  0  0  0
  3  5  1  0  0  0  0
  4 16  1  6  0  0  0
  4 21  1  0  0  0  0
  4 22  2  0  0  0  0
  4 14  1  0  0  0  0
  5  1  1  1  0  0  0
  5  8  1  0  0  0  0
  6 17  2  0  0  0  0
  6 12  1  0  0  0  0
  8  7  1  1  0  0  0
  8 11  1  0  0  0  0
  9 19  1  0  0  0  0
 11 10  1  1  0  0  0
 12 20  2  0  0  0  0
 12 19  1  0  0  0  0
 13 20  1  0  0  0  0
 14 15  1  0  0  0  0
 18 19  2  0  0  0  0
M  CHG  1  21  -1
M  END
>  <CHROM.1>
44.31517156,-91.01634267,8.71022369,-164.88970487,102.54295098,-10.74551855
-10.60617537,-6.59091703,2.34343173,-0.61336086,2.16934742

>  <Name>
ligand

>  <RI>
0

>  <Rbt.Current_Directory>
/home/itssahil/PROJECTS/Mol_Feturizer/New_Systems/rnas/4XWF

>  <Rbt.Executable>
rbdock ($Id: //depot/dev/client3/rdock/2013.1/src/exe/rbdock.cxx#4 $)

>  <Rbt.Library>
libRbt.so (2013.1, Build901 2013/11/27)

>  <Rbt.Parameter_File>
/export/apps/rDock/src/rDock_2013.1_src/data/scripts/dock_solv.prm

>  <Rbt.Receptor>
prm/blind_docking_20.prm

>  <SCORE>
7.23984

>  <SCORE.INTER>
-0.17626

>  <SCORE.INTER.CONST>
1

>  <SCORE.INTER.POLAR>
0

>  <SCORE.INTER.ROT>
5

>  <SCORE.INTER.SOLV>
29.1143

>  <SCORE.INTER.VDW>
-16.7556

>  <SCORE.INTER.norm>
-0.00801182

>  <SCORE.INTRA>
6.03312

>  <SCORE.INTRA.DIHEDRAL>
4.3211

>  <SCORE.INTRA.DIHEDRAL.0>
3.49807

>  <SCORE.INTRA.POLAR>
0

>  <SCORE.INTRA.POLAR.0>
0

>  <SCORE.INTRA.REPUL>
0

>  <SCORE.INTRA.REPUL.0>
0

>  <SCORE.INTRA.SOLV>
0.175978

>  <SCORE.INTRA.SOLV.lig_0>
-73.062

>  <SCORE.INTRA.VDW>
3.78459

>  <SCORE.INTRA.VDW.0>
-1.83782

>  <SCORE.INTRA.norm>
0.274233

>  <SCORE.RESTR>
1.38297

>  <SCORE.RESTR.CAVITY>
1.38297

>  <SCORE.RESTR.norm>
0.0628624

>  <SCORE.SYSTEM>
0

>  <SCORE.SYSTEM.CONST>
0

>  <SCORE.SYSTEM.DIHEDRAL>
0

>  <SCORE.SYSTEM.SOLV>
0

>  <SCORE.SYSTEM.norm>
0

>  <SCORE.heavy>
22

>  <SCORE.norm>
0.329083

>  <RMSD>
23.486

$$$$
ligand
 OpenBabel11021811513D
libRbt.so/2013.1/901 2013/11/27
 22 23  0  0  0  0  0  0  0  0999 V2000
  -12.7777   -9.9457   -5.6373 N   0  0  0  0  0  0  0  0  0  0  0  0
  -11.1708  -10.1585   -8.6080 C   0  0  1  0  0  0  0  0  0  0  0  0
  -12.3588  -10.4970   -7.8374 O   0  0  0  0  0  0  0  0  0  0  0  0
   -7.6769  -11.6079   -8.8270 P   0  0  1  0  0  0  0  0  0  0  0  0
  -12.6032   -9.4312   -6.9054 C   0  0  2  0  0  0  0  0  0  0  0  0
  -13.6479  -10.3627   -3.6931 N   0  0  0  0  0  0  0  0  0  0  0  0
  -11.5936   -7.3165   -6.4530 O   0  0  0  0  0  0  0  0  0  0  0  0
  -11.3392   -8.6617   -6.8743 C   0  0  2  0  0  0  0  0  0  0  0  0
  -11.4264  -13.2274   -3.2015 N   0  0  0  0  0  0  0  0  0  0  0  0
  -11.5990   -7.9100   -9.1136 O   0  0  0  0  0  0  0  0  0  0  0  0
  -10.8410   -8.7640   -8.2405 C   0  0  2  0  0  0  0  0  0  0  0  0
  -12.5274  -11.0907   -3.8155 C   0  0  0  0  0  0  0  0  0  0  0  0
  -10.8009  -11.4165   -5.5695 N   0  0  0  0  0  0  0  0  0  0  0  0
   -8.9923  -10.7664   -8.9695 O   0  0  0  0  0  0  0  0  0  0  0  0
  -10.0953  -11.1019   -8.1919 C   0  0  0  0  0  0  0  0  0  0  0  0
   -6.8939  -10.8600   -7.6877 O   0  0  0  0  0  0  0  0  0  0  0  0
  -13.7978   -9.6474   -4.8243 C   0  0  0  0  0  0  0  0  0  0  0  0
  -12.0276  -11.7201   -1.6038 O   0  0  0  0  0  0  0  0  0  0  0  0
  -11.9825  -12.0100   -2.7993 C   0  0  0  0  0  0  0  0  0  0  0  0
  -11.9754  -10.8358   -5.0384 C   0  0  0  0  0  0  0  0  0  0  0  0
   -8.0196  -13.0268   -8.5152 O   0  5  0  0  0  0  0  0  0  0  0  0
   -7.0020  -11.7469  -10.1300 O   0  0  0  0  0  0  0  0  0  0  0  0
  1 17  1  0  0  0  0
  1 20  1  0  0  0  0
  2 15  1  1  0  0  0
  2  3  1  0  0  0  0
  2 11  1  0  0  0  0
  3  5  1  0  0  0  0
  4 16  1  1  0  0  0
  4 21  1  0  0  0  0
  4 22  2  0  0  0  0
  4 14  1  0  0  0  0
  5  1  1  1  0  0  0
  5  8  1  0  0  0  0
  6 17  2  0  0  0  0
  6 12  1  0  0  0  0
  8  7  1  6  0  0  0
  8 11  1  0  0  0  0
  9 19  1  0  0  0  0
 11 10  1  6  0  0  0
 12 20  2  0  0  0  0
 12 19  1  0  0  0  0
 13 20  1  0  0  0  0
 14 15  1  0  0  0  0
 18 19  2  0  0  0  0
M  CHG  1  21  -1
M  END
>  <CHROM.1>
-129.84339444,178.67885087,-89.58771442,-177.72326022,140.31837134,-10.69086951
-10.60858927,-6.69448285,2.52727168,-0.65037128,2.20822124

>  <Name>
ligand

>  <RI>
0

>  <Rbt.Current_Directory>
/home/itssahil/PROJECTS/Mol_Feturizer/New_Systems/rnas/4XWF

>  <Rbt.Executable>
rbdock ($Id: //depot/dev/client3/rdock/2013.1/src/exe/rbdock.cxx#4 $)

>  <Rbt.Library>
libRbt.so (2013.1, Build901 2013/11/27)

>  <Rbt.Parameter_File>
/export/apps/rDock/src/rDock_2013.1_src/data/scripts/dock_solv.prm

>  <Rbt.Receptor>
prm/blind_docking_20.prm

>  <SCORE>
5.04631

>  <SCORE.INTER>
0.190282

>  <SCORE.INTER.CONST>
1

>  <SCORE.INTER.POLAR>
0

>  <SCORE.INTER.ROT>
5

>  <SCORE.INTER.SOLV>
26.1365

>  <SCORE.INTER.VDW>
-15.5186

>  <SCORE.INTER.norm>
0.00864919

>  <SCORE.INTRA>
2.94642

>  <SCORE.INTRA.DIHEDRAL>
-0.252864

>  <SCORE.INTRA.DIHEDRAL.0>
3.49807

>  <SCORE.INTRA.POLAR>
0

>  <SCORE.INTRA.POLAR.0>
0

>  <SCORE.INTRA.REPUL>
0

>  <SCORE.INTRA.REPUL.0>
0

>  <SCORE.INTRA.SOLV>
5.02507

>  <SCORE.INTRA.SOLV.lig_0>
-73.062

>  <SCORE.INTRA.VDW>
0.560318

>  <SCORE.INTRA.VDW.0>
-1.83782

>  <SCORE.INTRA.norm>
0.133928

>  <SCORE.RESTR>
1.90961

>  <SCORE.RESTR.CAVITY>
1.90961

>  <SCORE.RESTR.norm>
0.0868005

>  <SCORE.SYSTEM>
0

>  <SCORE.SYSTEM.CONST>
0

>  <SCORE.SYSTEM.DIHEDRAL>
0

>  <SCORE.SYSTEM.SOLV>
0

>  <SCORE.SYSTEM.norm>
0

>  <SCORE.heavy>
22

>  <SCORE.norm>
0.229378

>  <RMSD>
23.490

$$$$
ligand
 OpenBabel11021811513D
libRbt.so/2013.1/901 2013/11/27
 22 23  0  0  0  0  0  0  0  0999 V2000
  -12.3075  -10.6310   -5.6463 N   0  0  0  0  0  0  0  0  0  0  0  0
  -11.4229  -10.2309   -8.8882 C   0  0  1  0  0  0  0  0  0  0  0  0
  -12.4311  -10.7003   -7.9485 O   0  0  0  0  0  0  0  0  0  0  0  0
   -7.8151  -11.3259   -9.1756 P   0  0  1  0  0  0  0  0  0  0  0  0
  -12.3824   -9.8572   -6.7860 C   0  0  2  0  0  0  0  0  0  0  0  0
  -11.9966  -12.3359   -4.3395 N   0  0  0  0  0  0  0  0  0  0  0  0
  -11.1441   -7.9168   -6.1557 O   0  0  0  0  0  0  0  0  0  0  0  0
  -11.0899   -9.1438   -6.8928 C   0  0  2  0  0  0  0  0  0  0  0  0
  -11.5175  -10.5074   -1.3526 N   0  0  0  0  0  0  0  0  0  0  0  0
  -11.7858   -7.9166   -8.8052 O   0  0  0  0  0  0  0  0  0  0  0  0
  -10.9175   -8.9583   -8.3284 C   0  0  2  0  0  0  0  0  0  0  0  0
  -12.3017  -11.2742   -3.5777 C   0  0  0  0  0  0  0  0  0  0  0  0
  -12.8118   -8.8792   -3.9872 N   0  0  0  0  0  0  0  0  0  0  0  0
   -9.1916  -10.5808   -9.2689 O   0  0  0  0  0  0  0  0  0  0  0  0
  -10.3544  -11.2681   -8.9384 C   0  0  0  0  0  0  0  0  0  0  0  0
   -6.9005  -10.2969   -8.4173 O   0  0  0  0  0  0  0  0  0  0  0  0
  -12.0069  -11.9347   -5.6250 C   0  0  0  0  0  0  0  0  0  0  0  0
  -13.2703  -11.9487   -1.5420 O   0  0  0  0  0  0  0  0  0  0  0  0
  -12.4110  -11.2724   -2.1071 C   0  0  0  0  0  0  0  0  0  0  0  0
  -12.4959  -10.1960   -4.3933 C   0  0  0  0  0  0  0  0  0  0  0  0
   -7.9963  -12.6299   -8.4723 O   0  5  0  0  0  0  0  0  0  0  0  0
   -7.3697  -11.7694  -10.5089 O   0  0  0  0  0  0  0  0  0  0  0  0
  1 17  1  0  0  0  0
  1 20  1  0  0  0  0
  2 15  1  1  0  0  0
  2  3  1  0  0  0  0
  2 11  1  0  0  0  0
  3  5  1  0  0  0  0
  4 16  1  1  0  0  0
  4 21  1  0  0  0  0
  4 22  2  0  0  0  0
  4 14  1  0  0  0  0
  5  1  1  1  0  0  0
  5  8  1  0  0  0  0
  6 17  2  0  0  0  0
  6 12  1  0  0  0  0
  8  7  1  1  0  0  0
  8 11  1  0  0  0  0
  9 19  1  0  0  0  0
 11 10  1  6  0  0  0
 12 20  2  0  0  0  0
 12 19  1  0  0  0  0
 13 20  1  0  0  0  0
 14 15  1  0  0  0  0
 18 19  2  0  0  0  0
M  CHG  1  21  -1
M  END
>  <CHROM.1>
14.61112994,-152.01901620,-133.38144685,169.89930888,115.75176239,-10.74742619
-10.56081666,-6.66261346,2.36346742,-0.68968591,2.12120935

>  <Name>
ligand

>  <RI>
0

>  <Rbt.Current_Directory>
/home/itssahil/PROJECTS/Mol_Feturizer/New_Systems/rnas/4XWF

>  <Rbt.Executable>
rbdock ($Id: //depot/dev/client3/rdock/2013.1/src/exe/rbdock.cxx#4 $)

>  <Rbt.Library>
libRbt.so (2013.1, Build901 2013/11/27)

>  <Rbt.Parameter_File>
/export/apps/rDock/src/rDock_2013.1_src/data/scripts/dock_solv.prm

>  <Rbt.Receptor>
prm/blind_docking_20.prm

>  <SCORE>
0.910634

>  <SCORE.INTER>
-4.49029

>  <SCORE.INTER.CONST>
1

>  <SCORE.INTER.POLAR>
0

>  <SCORE.INTER.ROT>
5

>  <SCORE.INTER.SOLV>
17.6892

>  <SCORE.INTER.VDW>
-15.8233

>  <SCORE.INTER.norm>
-0.204104

>  <SCORE.INTRA>
3.69787

>  <SCORE.INTRA.DIHEDRAL>
2.86836

>  <SCORE.INTRA.DIHEDRAL.0>
3.49807

>  <SCORE.INTRA.POLAR>
0

>  <SCORE.INTRA.POLAR.0>
0

>  <SCORE.INTRA.REPUL>
0

>  <SCORE.INTRA.REPUL.0>
0

>  <SCORE.INTRA.SOLV>
1.47943

>  <SCORE.INTRA.SOLV.lig_0>
-73.062

>  <SCORE.INTRA.VDW>
1.52398

>  <SCORE.INTRA.VDW.0>
-1.83782

>  <SCORE.INTRA.norm>
0.168085

>  <SCORE.RESTR>
1.70305

>  <SCORE.RESTR.CAVITY>
1.70305

>  <SCORE.RESTR.norm>
0.0774113

>  <SCORE.SYSTEM>
0

>  <SCORE.SYSTEM.CONST>
0

>  <SCORE.SYSTEM.DIHEDRAL>
0

>  <SCORE.SYSTEM.SOLV>
0

>  <SCORE.SYSTEM.norm>
0

>  <SCORE.heavy>
22

>  <SCORE.norm>
0.0413925

>  <RMSD>
23.491

$$$$
ligand
 OpenBabel11021811513D
libRbt.so/2013.1/901 2013/11/27
 22 23  0  0  0  0  0  0  0  0999 V2000
  -12.3391  -10.7260   -5.6730 N   0  0  0  0  0  0  0  0  0  0  0  0
  -11.3405  -10.0500   -8.8350 C   0  0  1  0  0  0  0  0  0  0  0  0
  -12.3994  -10.5544   -7.9723 O   0  0  0  0  0  0  0  0  0  0  0  0
   -7.7901  -11.2664   -9.1833 P   0  0  1  0  0  0  0  0  0  0  0  0
  -12.3391   -9.8377   -6.7285 C   0  0  2  0  0  0  0  0  0  0  0  0
  -12.0882  -12.5521   -4.5270 N   0  0  0  0  0  0  0  0  0  0  0  0
  -11.0167   -8.0444   -5.8732 O   0  0  0  0  0  0  0  0  0  0  0  0
  -11.0075   -9.1914   -6.7312 C   0  0  2  0  0  0  0  0  0  0  0  0
  -11.9890  -10.9787   -1.3381 N   0  0  0  0  0  0  0  0  0  0  0  0
  -11.5804   -7.7393   -8.5229 O   0  0  0  0  0  0  0  0  0  0  0  0
  -10.7837   -8.8714   -8.1357 C   0  0  2  0  0  0  0  0  0  0  0  0
  -12.4938  -11.5847   -3.6902 C   0  0  0  0  0  0  0  0  0  0  0  0
  -13.0444   -9.1725   -3.8940 N   0  0  0  0  0  0  0  0  0  0  0  0
   -9.1475  -10.4944   -9.3243 O   0  0  0  0  0  0  0  0  0  0  0  0
  -10.3285  -11.1356   -8.9667 C   0  0  0  0  0  0  0  0  0  0  0  0
   -6.8759  -10.2471   -8.4114 O   0  0  0  0  0  0  0  0  0  0  0  0
  -11.9988  -12.0172   -5.7596 C   0  0  0  0  0  0  0  0  0  0  0  0
  -13.5656  -12.5468   -1.8293 O   0  0  0  0  0  0  0  0  0  0  0  0
  -12.7317  -11.7416   -2.2433 C   0  0  0  0  0  0  0  0  0  0  0  0
  -12.6510  -10.4310   -4.4040 C   0  0  0  0  0  0  0  0  0  0  0  0
   -8.0183  -12.5577   -8.4703 O   0  5  0  0  0  0  0  0  0  0  0  0
   -7.3167  -11.7352  -10.4982 O   0  0  0  0  0  0  0  0  0  0  0  0
  1 17  1  0  0  0  0
  1 20  1  0  0  0  0
  2 15  1  1  0  0  0
  2  3  1  0  0  0  0
  2 11  1  0  0  0  0
  3  5  1  0  0  0  0
  4 16  1  1  0  0  0
  4 21  1  0  0  0  0
  4 22  2  0  0  0  0
  4 14  1  0  0  0  0
  5  1  1  1  0  0  0
  5  8  1  0  0  0  0
  6 17  2  0  0  0  0
  6 12  1  0  0  0  0
  8  7  1  1  0  0  0
  8 11  1  0  0  0  0
  9 19  1  0  0  0  0
 11 10  1  6  0  0  0
 12 20  2  0  0  0  0
 12 19  1  0  0  0  0
 13 20  1  0  0  0  0
 14 15  1  0  0  0  0
 18 19  2  0  0  0  0
M  CHG  1  21  -1
M  END
>  <CHROM.1>
20.62122054,-157.56893627,-130.76248061,164.02132309,119.65445465,-10.78152294
-10.63367122,-6.65449915,2.46100366,-0.72511339,2.30813624

>  <Name>
ligand

>  <RI>
0

>  <Rbt.Current_Directory>
/home/itssahil/PROJECTS/Mol_Feturizer/New_Systems/rnas/4XWF

>  <Rbt.Executable>
rbdock ($Id: //depot/dev/client3/rdock/2013.1/src/exe/rbdock.cxx#4 $)

>  <Rbt.Library>
libRbt.so (2013.1, Build901 2013/11/27)

>  <Rbt.Parameter_File>
/export/apps/rDock/src/rDock_2013.1_src/data/scripts/dock_solv.prm

>  <Rbt.Receptor>
prm/blind_docking_20.prm

>  <SCORE>
0.829783

>  <SCORE.INTER>
-3.95876

>  <SCORE.INTER.CONST>
1

>  <SCORE.INTER.POLAR>
0

>  <SCORE.INTER.ROT>
5

>  <SCORE.INTER.SOLV>
19.5817

>  <SCORE.INTER.VDW>
-16.0998

>  <SCORE.INTER.norm>
-0.179944

>  <SCORE.INTRA>
3.17598

>  <SCORE.INTRA.DIHEDRAL>
2.9176

>  <SCORE.INTRA.DIHEDRAL.0>
3.49807

>  <SCORE.INTRA.POLAR>
0

>  <SCORE.INTRA.POLAR.0>
0

>  <SCORE.INTRA.REPUL>
0

>  <SCORE.INTRA.REPUL.0>
0

>  <SCORE.INTRA.SOLV>
1.28805

>  <SCORE.INTRA.SOLV.lig_0>
-73.062

>  <SCORE.INTRA.VDW>
1.07315

>  <SCORE.INTRA.VDW.0>
-1.83782

>  <SCORE.INTRA.norm>
0.144363

>  <SCORE.RESTR>
1.61257

>  <SCORE.RESTR.CAVITY>
1.61257

>  <SCORE.RESTR.norm>
0.0732984

>  <SCORE.SYSTEM>
0

>  <SCORE.SYSTEM.CONST>
0

>  <SCORE.SYSTEM.DIHEDRAL>
0

>  <SCORE.SYSTEM.SOLV>
0

>  <SCORE.SYSTEM.norm>
0

>  <SCORE.heavy>
22

>  <SCORE.norm>
0.0377174

>  <RMSD>
23.496

$$$$
ligand
 OpenBabel11021811513D
libRbt.so/2013.1/901 2013/11/27
 22 23  0  0  0  0  0  0  0  0999 V2000
  -12.8613   -9.9297   -5.8378 N   0  0  0  0  0  0  0  0  0  0  0  0
  -11.1906  -10.5834   -8.7074 C   0  0  1  0  0  0  0  0  0  0  0  0
  -12.4117  -10.7725   -7.9372 O   0  0  0  0  0  0  0  0  0  0  0  0
   -7.7051  -12.0464   -8.5287 P   0  0  1  0  0  0  0  0  0  0  0  0
  -12.6320   -9.5879   -7.1546 C   0  0  2  0  0  0  0  0  0  0  0  0
  -13.7986  -10.0612   -3.8846 N   0  0  0  0  0  0  0  0  0  0  0  0
  -11.5411   -7.4760   -6.9407 O   0  0  0  0  0  0  0  0  0  0  0  0
  -11.3362   -8.8731   -7.1816 C   0  0  2  0  0  0  0  0  0  0  0  0
  -11.1152  -11.2171   -2.0149 N   0  0  0  0  0  0  0  0  0  0  0  0
  -11.5054   -8.4017   -9.5046 O   0  0  0  0  0  0  0  0  0  0  0  0
  -10.8085   -9.1683   -8.5080 C   0  0  2  0  0  0  0  0  0  0  0  0
  -12.7082  -10.8432   -3.8795 C   0  0  0  0  0  0  0  0  0  0  0  0
  -10.9531  -11.4582   -5.5242 N   0  0  0  0  0  0  0  0  0  0  0  0
   -8.9715  -11.1488   -8.7508 O   0  0  0  0  0  0  0  0  0  0  0  0
  -10.1691  -11.5097   -8.1431 C   0  0  0  0  0  0  0  0  0  0  0  0
   -7.5011  -12.0002   -6.9709 O   0  0  0  0  0  0  0  0  0  0  0  0
  -13.8879   -9.4900   -5.1008 C   0  0  0  0  0  0  0  0  0  0  0  0
  -12.7951  -12.6967   -2.4324 O   0  0  0  0  0  0  0  0  0  0  0  0
  -12.2302  -11.6471   -2.7393 C   0  0  0  0  0  0  0  0  0  0  0  0
  -12.1143  -10.7681   -5.1071 C   0  0  0  0  0  0  0  0  0  0  0  0
   -7.9531  -13.4106   -9.0813 O   0  5  0  0  0  0  0  0  0  0  0  0
   -6.5851  -11.5868   -9.3695 O   0  0  0  0  0  0  0  0  0  0  0  0
  1 17  1  0  0  0  0
  1 20  1  0  0  0  0
  2 15  1  1  0  0  0
  2  3  1  0  0  0  0
  2 11  1  0  0  0  0
  3  5  1  0  0  0  0
  4 16  1  1  0  0  0
  4 21  1  0  0  0  0
  4 22  2  0  0  0  0
  4 14  1  0  0  0  0
  5  1  1  1  0  0  0
  5  8  1  0  0  0  0
  6 17  2  0  0  0  0
  6 12  1  0  0  0  0
  8  7  1  6  0  0  0
  8 11  1  0  0  0  0
  9 19  1  0  0  0  0
 11 10  1  6  0  0  0
 12 20  2  0  0  0  0
 12 19  1  0  0  0  0
 13 20  1  0  0  0  0
 14 15  1  0  0  0  0
 18 19  2  0  0  0  0
M  CHG  1  21  -1
M  END
>  <CHROM.1>
-129.79429212,-170.59987688,-60.08901676,-172.01964907,-105.07743967,-10.76217399
-10.76422031,-6.71077758,2.56274387,-0.62359470,2.10585817

>  <Name>
ligand

>  <RI>
0

>  <Rbt.Current_Directory>
/home/itssahil/PROJECTS/Mol_Feturizer/New_Systems/rnas/4XWF

>  <Rbt.Executable>
rbdock ($Id: //depot/dev/client3/rdock/2013.1/src/exe/rbdock.cxx#4 $)

>  <Rbt.Library>
libRbt.so (2013.1, Build901 2013/11/27)

>  <Rbt.Parameter_File>
/export/apps/rDock/src/rDock_2013.1_src/data/scripts/dock_solv.prm

>  <Rbt.Receptor>
prm/blind_docking_20.prm

>  <SCORE>
3.31917

>  <SCORE.INTER>
-1.27874

>  <SCORE.INTER.CONST>
1

>  <SCORE.INTER.POLAR>
0

>  <SCORE.INTER.ROT>
5

>  <SCORE.INTER.SOLV>
25.1803

>  <SCORE.INTER.VDW>
-16.1793

>  <SCORE.INTER.norm>
-0.0581245

>  <SCORE.INTRA>
2.52482

>  <SCORE.INTRA.DIHEDRAL>
-1.06763

>  <SCORE.INTRA.DIHEDRAL.0>
3.49807

>  <SCORE.INTRA.POLAR>
0

>  <SCORE.INTRA.POLAR.0>
0

>  <SCORE.INTRA.REPUL>
0

>  <SCORE.INTRA.REPUL.0>
0

>  <SCORE.INTRA.SOLV>
4.92448

>  <SCORE.INTRA.SOLV.lig_0>
-73.062

>  <SCORE.INTRA.VDW>
0.596392

>  <SCORE.INTRA.VDW.0>
-1.83782

>  <SCORE.INTRA.norm>
0.114764

>  <SCORE.RESTR>
2.07309

>  <SCORE.RESTR.CAVITY>
2.07309

>  <SCORE.RESTR.norm>
0.0942316

>  <SCORE.SYSTEM>
0

>  <SCORE.SYSTEM.CONST>
0

>  <SCORE.SYSTEM.DIHEDRAL>
0

>  <SCORE.SYSTEM.SOLV>
0

>  <SCORE.SYSTEM.norm>
0

>  <SCORE.heavy>
22

>  <SCORE.norm>
0.150871

>  <RMSD>
23.498

$$$$
ligand
 OpenBabel11021811513D
libRbt.so/2013.1/901 2013/11/27
 22 23  0  0  0  0  0  0  0  0999 V2000
  -12.2964  -10.6522   -5.6737 N   0  0  0  0  0  0  0  0  0  0  0  0
  -11.4212  -10.2430   -8.9170 C   0  0  1  0  0  0  0  0  0  0  0  0
  -12.4258  -10.7168   -7.9756 O   0  0  0  0  0  0  0  0  0  0  0  0
   -7.8056  -11.3177   -9.1467 P   0  0  1  0  0  0  0  0  0  0  0  0
  -12.3761   -9.8761   -6.8115 C   0  0  2  0  0  0  0  0  0  0  0  0
  -11.9810  -12.3599   -4.3717 N   0  0  0  0  0  0  0  0  0  0  0  0
  -11.1408   -7.9341   -6.1803 O   0  0  0  0  0  0  0  0  0  0  0  0
  -11.0856   -9.1594   -6.9202 C   0  0  2  0  0  0  0  0  0  0  0  0
  -11.5126  -10.5039   -1.3857 N   0  0  0  0  0  0  0  0  0  0  0  0
  -11.7894   -7.9298   -8.8281 O   0  0  0  0  0  0  0  0  0  0  0  0
  -10.9174   -8.9704   -8.3558 C   0  0  2  0  0  0  0  0  0  0  0  0
  -12.2809  -11.2993   -3.6064 C   0  0  0  0  0  0  0  0  0  0  0  0
  -12.7901   -8.9030   -4.0087 N   0  0  0  0  0  0  0  0  0  0  0  0
   -9.1847  -10.5827   -9.2756 O   0  0  0  0  0  0  0  0  0  0  0  0
  -10.3504  -11.2776   -8.9723 C   0  0  0  0  0  0  0  0  0  0  0  0
   -6.9079  -10.2678   -8.3968 O   0  0  0  0  0  0  0  0  0  0  0  0
  -11.9973  -11.9563   -5.6564 C   0  0  0  0  0  0  0  0  0  0  0  0
  -13.2150  -12.0057   -1.5653 O   0  0  0  0  0  0  0  0  0  0  0  0
  -12.3827  -11.3002   -2.1352 C   0  0  0  0  0  0  0  0  0  0  0  0
  -12.4779  -10.2193   -4.4189 C   0  0  0  0  0  0  0  0  0  0  0  0
   -7.9901  -12.6078   -8.4190 O   0  5  0  0  0  0  0  0  0  0  0  0
   -7.3383  -11.7863  -10.4638 O   0  0  0  0  0  0  0  0  0  0  0  0
  1 17  1  0  0  0  0
  1 20  1  0  0  0  0
  2 15  1  1  0  0  0
  2  3  1  0  0  0  0
  2 11  1  0  0  0  0
  3  5  1  0  0  0  0
  4 16  1  1  0  0  0
  4 21  1  0  0  0  0
  4 22  2  0  0  0  0
  4 14  1  0  0  0  0
  5  1  1  1  0  0  0
  5  8  1  0  0  0  0
  6 17  2  0  0  0  0
  6 12  1  0  0  0  0
  8  7  1  1  0  0  0
  8 11  1  0  0  0  0
  9 19  1  0  0  0  0
 11 10  1  6  0  0  0
 12 20  2  0  0  0  0
 12 19  1  0  0  0  0
 13 20  1  0  0  0  0
 14 15  1  0  0  0  0
 18 19  2  0  0  0  0
M  CHG  1  21  -1
M  END
>  <CHROM.1>
14.35854719,-150.76377960,-134.58898303,168.51522210,117.83057443,-10.73607359
-10.57259863,-6.67396625,2.35568513,-0.68021699,2.11558906

>  <Name>
ligand

>  <RI>
0

>  <Rbt.Current_Directory>
/home/itssahil/PROJECTS/Mol_Feturizer/New_Systems/rnas/4XWF

>  <Rbt.Executable>
rbdock ($Id: //depot/dev/client3/rdock/2013.1/src/exe/rbdock.cxx#4 $)

>  <Rbt.Library>
libRbt.so (2013.1, Build901 2013/11/27)

>  <Rbt.Parameter_File>
/export/apps/rDock/src/rDock_2013.1_src/data/scripts/dock_solv.prm

>  <Rbt.Receptor>
prm/blind_docking_20.prm

>  <SCORE>
1.0831

>  <SCORE.INTER>
-4.4984

>  <SCORE.INTER.CONST>
1

>  <SCORE.INTER.POLAR>
0

>  <SCORE.INTER.ROT>
5

>  <SCORE.INTER.SOLV>
17.8812

>  <SCORE.INTER.VDW>
-15.8927

>  <SCORE.INTER.norm>
-0.204473

>  <SCORE.INTRA>
3.92784

>  <SCORE.INTRA.DIHEDRAL>
3.11163

>  <SCORE.INTRA.DIHEDRAL.0>
3.49807

>  <SCORE.INTRA.POLAR>
0

>  <SCORE.INTRA.POLAR.0>
0

>  <SCORE.INTRA.REPUL>
0

>  <SCORE.INTRA.REPUL.0>
0

>  <SCORE.INTRA.SOLV>
1.54331

>  <SCORE.INTRA.SOLV.lig_0>
-73.062

>  <SCORE.INTRA.VDW>
1.60037

>  <SCORE.INTRA.VDW.0>
-1.83782

>  <SCORE.INTRA.norm>
0.178538

>  <SCORE.RESTR>
1.65367

>  <SCORE.RESTR.CAVITY>
1.65367

>  <SCORE.RESTR.norm>
0.0751666

>  <SCORE.SYSTEM>
0

>  <SCORE.SYSTEM.CONST>
0

>  <SCORE.SYSTEM.DIHEDRAL>
0

>  <SCORE.SYSTEM.SOLV>
0

>  <SCORE.SYSTEM.norm>
0

>  <SCORE.heavy>
22

>  <SCORE.norm>
0.049232

>  <RMSD>
23.503

$$$$
ligand
 OpenBabel11021811513D
libRbt.so/2013.1/901 2013/11/27
 22 23  0  0  0  0  0  0  0  0999 V2000
  -12.3500  -10.7563   -5.5868 N   0  0  0  0  0  0  0  0  0  0  0  0
  -11.4039  -10.2440   -8.7954 C   0  0  1  0  0  0  0  0  0  0  0  0
  -12.4417  -10.7185   -7.8912 O   0  0  0  0  0  0  0  0  0  0  0  0
   -7.8244  -11.3500   -8.7448 P   0  0  1  0  0  0  0  0  0  0  0  0
  -12.3808   -9.9304   -6.6914 C   0  0  2  0  0  0  0  0  0  0  0  0
  -12.0511  -12.5092   -4.3421 N   0  0  0  0  0  0  0  0  0  0  0  0
  -11.0849   -8.0653   -5.9579 O   0  0  0  0  0  0  0  0  0  0  0  0
  -11.0628   -9.2594   -6.7488 C   0  0  2  0  0  0  0  0  0  0  0  0
  -13.5860  -12.5052   -1.5860 N   0  0  0  0  0  0  0  0  0  0  0  0
  -11.6868   -7.9242   -8.6130 O   0  0  0  0  0  0  0  0  0  0  0  0
  -10.8626   -9.0164   -8.1722 C   0  0  2  0  0  0  0  0  0  0  0  0
  -12.4603  -11.5018   -3.5558 C   0  0  0  0  0  0  0  0  0  0  0  0
  -13.0547   -9.1145   -3.8888 N   0  0  0  0  0  0  0  0  0  0  0  0
   -9.1752  -10.6529   -9.1296 O   0  0  0  0  0  0  0  0  0  0  0  0
  -10.3717  -11.3153   -8.8781 C   0  0  0  0  0  0  0  0  0  0  0  0
   -7.4962  -12.2209  -10.0114 O   0  0  0  0  0  0  0  0  0  0  0  0
  -11.9893  -12.0448   -5.6047 C   0  0  0  0  0  0  0  0  0  0  0  0
  -12.0681  -10.8261   -1.3362 O   0  0  0  0  0  0  0  0  0  0  0  0
  -12.6739  -11.5788   -2.0987 C   0  0  0  0  0  0  0  0  0  0  0  0
  -12.6477  -10.3937   -4.3320 C   0  0  0  0  0  0  0  0  0  0  0  0
   -6.7990  -10.3146   -8.4217 O   0  5  0  0  0  0  0  0  0  0  0  0
   -7.9486  -12.0542   -7.4559 O   0  0  0  0  0  0  0  0  0  0  0  0
  1 17  1  0  0  0  0
  1 20  1  0  0  0  0
  2 15  1  1  0  0  0
  2  3  1  0  0  0  0
  2 11  1  0  0  0  0
  3  5  1  0  0  0  0
  4 16  1  6  0  0  0
  4 21  1  0  0  0  0
  4 22  2  0  0  0  0
  4 14  1  0  0  0  0
  5  1  1  1  0  0  0
  5  8  1  0  0  0  0
  6 17  2  0  0  0  0
  6 12  1  0  0  0  0
  8  7  1  1  0  0  0
  8 11  1  0  0  0  0
  9 19  1  0  0  0  0
 11 10  1  6  0  0  0
 12 20  2  0  0  0  0
 12 19  1  0  0  0  0
 13 20  1  0  0  0  0
 14 15  1  0  0  0  0
 18 19  2  0  0  0  0
M  CHG  1  21  -1
M  END
>  <CHROM.1>
20.36715317,-150.61955094,86.67772309,156.73581738,-58.37279686,-10.80023212
-10.66605404,-6.48754333,2.39158621,-0.64759435,2.17496647

>  <Name>
ligand

>  <RI>
0

>  <Rbt.Current_Directory>
/home/itssahil/PROJECTS/Mol_Feturizer/New_Systems/rnas/4XWF

>  <Rbt.Executable>
rbdock ($Id: //depot/dev/client3/rdock/2013.1/src/exe/rbdock.cxx#4 $)

>  <Rbt.Library>
libRbt.so (2013.1, Build901 2013/11/27)

>  <Rbt.Parameter_File>
/export/apps/rDock/src/rDock_2013.1_src/data/scripts/dock_solv.prm

>  <Rbt.Receptor>
prm/blind_docking_20.prm

>  <SCORE>
3.89812

>  <SCORE.INTER>
-2.02765

>  <SCORE.INTER.CONST>
1

>  <SCORE.INTER.POLAR>
0

>  <SCORE.INTER.ROT>
5

>  <SCORE.INTER.SOLV>
25.264

>  <SCORE.INTER.VDW>
-16.7064

>  <SCORE.INTER.norm>
-0.0921657

>  <SCORE.INTRA>
4.49461

>  <SCORE.INTRA.DIHEDRAL>
5.4162

>  <SCORE.INTRA.DIHEDRAL.0>
3.49807

>  <SCORE.INTRA.POLAR>
0

>  <SCORE.INTRA.POLAR.0>
0

>  <SCORE.INTRA.REPUL>
0

>  <SCORE.INTRA.REPUL.0>
0

>  <SCORE.INTRA.SOLV>
1.60075

>  <SCORE.INTRA.SOLV.lig_0>
-73.062

>  <SCORE.INTRA.VDW>
0.986134

>  <SCORE.INTRA.VDW.0>
-1.83782

>  <SCORE.INTRA.norm>
0.2043

>  <SCORE.RESTR>
1.43115

>  <SCORE.RESTR.CAVITY>
1.43115

>  <SCORE.RESTR.norm>
0.0650524

>  <SCORE.SYSTEM>
0

>  <SCORE.SYSTEM.CONST>
0

>  <SCORE.SYSTEM.DIHEDRAL>
0

>  <SCORE.SYSTEM.SOLV>
0

>  <SCORE.SYSTEM.norm>
0

>  <SCORE.heavy>
22

>  <SCORE.norm>
0.177187

>  <RMSD>
23.511

$$$$
ligand
 OpenBabel11021811513D
libRbt.so/2013.1/901 2013/11/27
 22 23  0  0  0  0  0  0  0  0999 V2000
  -12.8510  -10.0305   -5.7602 N   0  0  0  0  0  0  0  0  0  0  0  0
  -11.2134  -10.5132   -8.6821 C   0  0  1  0  0  0  0  0  0  0  0  0
  -12.4253  -10.7486   -7.9103 O   0  0  0  0  0  0  0  0  0  0  0  0
   -7.7226  -11.9780   -8.6174 P   0  0  1  0  0  0  0  0  0  0  0  0
  -12.6373   -9.6121   -7.0573 C   0  0  2  0  0  0  0  0  0  0  0  0
  -13.7472  -10.2504   -3.7956 N   0  0  0  0  0  0  0  0  0  0  0  0
  -11.5454   -7.5148   -6.7330 O   0  0  0  0  0  0  0  0  0  0  0  0
  -11.3424   -8.8951   -7.0574 C   0  0  2  0  0  0  0  0  0  0  0  0
  -12.6759  -11.7775   -1.4906 N   0  0  0  0  0  0  0  0  0  0  0  0
  -11.5389   -8.2891   -9.3468 O   0  0  0  0  0  0  0  0  0  0  0  0
  -10.8300   -9.1116   -8.4049 C   0  0  2  0  0  0  0  0  0  0  0  0
  -12.6940  -11.0785   -3.8708 C   0  0  0  0  0  0  0  0  0  0  0  0
  -11.0081  -11.6594   -5.5982 N   0  0  0  0  0  0  0  0  0  0  0  0
   -8.9990  -11.0862   -8.8019 O   0  0  0  0  0  0  0  0  0  0  0  0
  -10.1847  -11.4695   -8.1848 C   0  0  0  0  0  0  0  0  0  0  0  0
   -7.4806  -11.9414   -7.0647 O   0  0  0  0  0  0  0  0  0  0  0  0
  -13.8388   -9.5959   -4.9690 C   0  0  0  0  0  0  0  0  0  0  0  0
  -11.4362  -12.8877   -3.0450 O   0  0  0  0  0  0  0  0  0  0  0  0
  -12.2268  -11.9770   -2.7988 C   0  0  0  0  0  0  0  0  0  0  0  0
  -12.1263  -10.9479   -5.1061 C   0  0  0  0  0  0  0  0  0  0  0  0
   -7.9766  -13.3398   -9.1733 O   0  5  0  0  0  0  0  0  0  0  0  0
   -6.6262  -11.5062   -9.4822 O   0  0  0  0  0  0  0  0  0  0  0  0
  1 17  1  0  0  0  0
  1 20  1  0  0  0  0
  2 15  1  1  0  0  0
  2  3  1  0  0  0  0
  2 11  1  0  0  0  0
  3  5  1  0  0  0  0
  4 16  1  1  0  0  0
  4 21  1  0  0  0  0
  4 22  2  0  0  0  0
  4 14  1  0  0  0  0
  5  1  1  1  0  0  0
  5  8  1  0  0  0  0
  6 17  2  0  0  0  0
  6 12  1  0  0  0  0
  8  7  1  6  0  0  0
  8 11  1  0  0  0  0
  9 19  1  0  0  0  0
 11 10  1  6  0  0  0
 12 20  2  0  0  0  0
 12 19  1  0  0  0  0
 13 20  1  0  0  0  0
 14 15  1  0  0  0  0
 18 19  2  0  0  0  0
M  CHG  1  21  -1
M  END
>  <CHROM.1>
-132.58242459,-171.58589184,-61.09799357,-173.71536598,-15.88666880,-10.77074279
-10.81996286,-6.70550629,2.56322845,-0.63915088,2.16990011

>  <Name>
ligand

>  <RI>
0

>  <Rbt.Current_Directory>
/home/itssahil/PROJECTS/Mol_Feturizer/New_Systems/rnas/4XWF

>  <Rbt.Executable>
rbdock ($Id: //depot/dev/client3/rdock/2013.1/src/exe/rbdock.cxx#4 $)

>  <Rbt.Library>
libRbt.so (2013.1, Build901 2013/11/27)

>  <Rbt.Parameter_File>
/export/apps/rDock/src/rDock_2013.1_src/data/scripts/dock_solv.prm

>  <Rbt.Receptor>
prm/blind_docking_20.prm

>  <SCORE>
1.3229

>  <SCORE.INTER>
-3.32131

>  <SCORE.INTER.CONST>
1

>  <SCORE.INTER.POLAR>
0

>  <SCORE.INTER.ROT>
5

>  <SCORE.INTER.SOLV>
24.9561

>  <SCORE.INTER.VDW>
-17.4662

>  <SCORE.INTER.norm>
-0.150968

>  <SCORE.INTRA>
2.53968

>  <SCORE.INTRA.DIHEDRAL>
-1.23359

>  <SCORE.INTRA.DIHEDRAL.0>
3.49807

>  <SCORE.INTRA.POLAR>
0

>  <SCORE.INTRA.POLAR.0>
0

>  <SCORE.INTRA.REPUL>
0

>  <SCORE.INTRA.REPUL.0>
0

>  <SCORE.INTRA.SOLV>
4.79136

>  <SCORE.INTRA.SOLV.lig_0>
-73.062

>  <SCORE.INTRA.VDW>
0.760799

>  <SCORE.INTRA.VDW.0>
-1.83782

>  <SCORE.INTRA.norm>
0.11544

>  <SCORE.RESTR>
2.10452

>  <SCORE.RESTR.CAVITY>
2.10452

>  <SCORE.RESTR.norm>
0.0956601

>  <SCORE.SYSTEM>
0

>  <SCORE.SYSTEM.CONST>
0

>  <SCORE.SYSTEM.DIHEDRAL>
0

>  <SCORE.SYSTEM.SOLV>
0

>  <SCORE.SYSTEM.norm>
0

>  <SCORE.heavy>
22

>  <SCORE.norm>
0.0601317

>  <RMSD>
23.526

$$$$
ligand
 OpenBabel11021811513D
libRbt.so/2013.1/901 2013/11/27
 22 23  0  0  0  0  0  0  0  0999 V2000
  -12.8391  -10.0397   -5.8193 N   0  0  0  0  0  0  0  0  0  0  0  0
  -11.1877  -10.5889   -8.7217 C   0  0  1  0  0  0  0  0  0  0  0  0
  -12.3975  -10.8188   -7.9448 O   0  0  0  0  0  0  0  0  0  0  0  0
   -7.6876  -12.0341   -8.6344 P   0  0  1  0  0  0  0  0  0  0  0  0
  -12.6290   -9.6592   -7.1286 C   0  0  2  0  0  0  0  0  0  0  0  0
  -13.7365  -10.2120   -3.8505 N   0  0  0  0  0  0  0  0  0  0  0  0
  -11.5706   -7.5359   -6.8690 O   0  0  0  0  0  0  0  0  0  0  0  0
  -11.3454   -8.9225   -7.1493 C   0  0  2  0  0  0  0  0  0  0  0  0
  -12.5898  -11.6029   -1.4861 N   0  0  0  0  0  0  0  0  0  0  0  0
  -11.5463   -8.3923   -9.4570 O   0  0  0  0  0  0  0  0  0  0  0  0
  -10.8267   -9.1735   -8.4883 C   0  0  2  0  0  0  0  0  0  0  0  0
  -12.6695  -11.0244   -3.8972 C   0  0  0  0  0  0  0  0  0  0  0  0
  -10.9698  -11.6316   -5.6018 N   0  0  0  0  0  0  0  0  0  0  0  0
   -8.9793  -11.1775   -8.8719 O   0  0  0  0  0  0  0  0  0  0  0  0
  -10.1454  -11.5128   -8.1925 C   0  0  0  0  0  0  0  0  0  0  0  0
   -7.5093  -11.9897   -7.0734 O   0  0  0  0  0  0  0  0  0  0  0  0
  -13.8360   -9.5968   -5.0443 C   0  0  0  0  0  0  0  0  0  0  0  0
  -11.4323  -12.8239   -3.0207 O   0  0  0  0  0  0  0  0  0  0  0  0
  -12.1902  -11.8804   -2.7962 C   0  0  0  0  0  0  0  0  0  0  0  0
  -12.1009  -10.9236   -5.1349 C   0  0  0  0  0  0  0  0  0  0  0  0
   -7.8818  -13.4027   -9.1975 O   0  5  0  0  0  0  0  0  0  0  0  0
   -6.5704  -11.5333   -9.4553 O   0  0  0  0  0  0  0  0  0  0  0  0
  1 17  1  0  0  0  0
  1 20  1  0  0  0  0
  2 15  1  1  0  0  0
  2  3  1  0  0  0  0
  2 11  1  0  0  0  0
  3  5  1  0  0  0  0
  4 16  1  1  0  0  0
  4 21  1  0  0  0  0
  4 22  2  0  0  0  0
  4 14  1  0  0  0  0
  5  1  1  1  0  0  0
  5  8  1  0  0  0  0
  6 17  2  0  0  0  0
  6 12  1  0  0  0  0
  8  7  1  6  0  0  0
  8 11  1  0  0  0  0
  9 19  1  0  0  0  0
 11 10  1  6  0  0  0
 12 20  2  0  0  0  0
 12 19  1  0  0  0  0
 13 20  1  0  0  0  0
 14 15  1  0  0  0  0
 18 19  2  0  0  0  0
M  CHG  1  21  -1
M  END
>  <CHROM.1>
-132.51641876,-174.64961601,-54.52837381,-175.50531283,-19.27605976,-10.74806303
-10.83676840,-6.74441080,2.55789587,-0.63397291,2.13476423

>  <Name>
ligand

>  <RI>
0

>  <Rbt.Current_Directory>
/home/itssahil/PROJECTS/Mol_Feturizer/New_Systems/rnas/4XWF

>  <Rbt.Executable>
rbdock ($Id: //depot/dev/client3/rdock/2013.1/src/exe/rbdock.cxx#4 $)

>  <Rbt.Library>
libRbt.so (2013.1, Build901 2013/11/27)

>  <Rbt.Parameter_File>
/export/apps/rDock/src/rDock_2013.1_src/data/scripts/dock_solv.prm

>  <Rbt.Receptor>
prm/blind_docking_20.prm

>  <SCORE>
1.15785

>  <SCORE.INTER>
-3.3837

>  <SCORE.INTER.CONST>
1

>  <SCORE.INTER.POLAR>
0

>  <SCORE.INTER.ROT>
5

>  <SCORE.INTER.SOLV>
24.7956

>  <SCORE.INTER.VDW>
-17.4543

>  <SCORE.INTER.norm>
-0.153805

>  <SCORE.INTRA>
2.40391

>  <SCORE.INTRA.DIHEDRAL>
-1.34402

>  <SCORE.INTRA.DIHEDRAL.0>
3.49807

>  <SCORE.INTRA.POLAR>
0

>  <SCORE.INTRA.POLAR.0>
0

>  <SCORE.INTRA.REPUL>
0

>  <SCORE.INTRA.REPUL.0>
0

>  <SCORE.INTRA.SOLV>
4.71071

>  <SCORE.INTRA.SOLV.lig_0>
-73.062

>  <SCORE.INTRA.VDW>
0.720563

>  <SCORE.INTRA.VDW.0>
-1.83782

>  <SCORE.INTRA.norm>
0.109268

>  <SCORE.RESTR>
2.13764

>  <SCORE.RESTR.CAVITY>
2.13764

>  <SCORE.RESTR.norm>
0.0971656

>  <SCORE.SYSTEM>
0

>  <SCORE.SYSTEM.CONST>
0

>  <SCORE.SYSTEM.DIHEDRAL>
0

>  <SCORE.SYSTEM.SOLV>
0

>  <SCORE.SYSTEM.norm>
0

>  <SCORE.heavy>
22

>  <SCORE.norm>
0.0526293

>  <RMSD>
23.545

$$$$
ligand
 OpenBabel11021811513D
libRbt.so/2013.1/901 2013/11/27
 22 23  0  0  0  0  0  0  0  0999 V2000
  -12.8367  -10.0449   -5.8034 N   0  0  0  0  0  0  0  0  0  0  0  0
  -11.1905  -10.5922   -8.7091 C   0  0  1  0  0  0  0  0  0  0  0  0
  -12.4005  -10.8193   -7.9318 O   0  0  0  0  0  0  0  0  0  0  0  0
   -7.6853  -12.0217   -8.6027 P   0  0  1  0  0  0  0  0  0  0  0  0
  -12.6262   -9.6613   -7.1118 C   0  0  2  0  0  0  0  0  0  0  0  0
  -13.7331  -10.2198   -3.8344 N   0  0  0  0  0  0  0  0  0  0  0  0
  -11.5585   -7.5434   -6.8467 O   0  0  0  0  0  0  0  0  0  0  0  0
  -11.3395   -8.9300   -7.1314 C   0  0  2  0  0  0  0  0  0  0  0  0
  -12.6243  -11.6486   -1.4809 N   0  0  0  0  0  0  0  0  0  0  0  0
  -11.5404   -8.3918   -9.4373 O   0  0  0  0  0  0  0  0  0  0  0  0
  -10.8233   -9.1790   -8.4718 C   0  0  2  0  0  0  0  0  0  0  0  0
  -12.6691  -11.0360   -3.8844 C   0  0  0  0  0  0  0  0  0  0  0  0
  -10.9730  -11.6443   -5.5922 N   0  0  0  0  0  0  0  0  0  0  0  0
   -8.9738  -11.1567   -8.8265 O   0  0  0  0  0  0  0  0  0  0  0  0
  -10.1517  -11.5222   -8.1839 C   0  0  0  0  0  0  0  0  0  0  0  0
   -7.5006  -11.9936   -7.0421 O   0  0  0  0  0  0  0  0  0  0  0  0
  -13.8313   -9.6006   -5.0263 C   0  0  0  0  0  0  0  0  0  0  0  0
  -11.4078  -12.8193   -3.0091 O   0  0  0  0  0  0  0  0  0  0  0  0
  -12.1921  -11.8971   -2.7864 C   0  0  0  0  0  0  0  0  0  0  0  0
  -12.1012  -10.9336   -5.1223 C   0  0  0  0  0  0  0  0  0  0  0  0
   -7.8884  -13.3838   -9.1785 O   0  5  0  0  0  0  0  0  0  0  0  0
   -6.5691  -11.5182   -9.4232 O   0  0  0  0  0  0  0  0  0  0  0  0
  1 17  1  0  0  0  0
  1 20  1  0  0  0  0
  2 15  1  1  0  0  0
  2  3  1  0  0  0  0
  2 11  1  0  0  0  0
  3  5  1  0  0  0  0
  4 16  1  1  0  0  0
  4 21  1  0  0  0  0
  4 22  2  0  0  0  0
  4 14  1  0  0  0  0
  5  1  1  1  0  0  0
  5  8  1  0  0  0  0
  6 17  2  0  0  0  0
  6 12  1  0  0  0  0
  8  7  1  6  0  0  0
  8 11  1  0  0  0  0
  9 19  1  0  0  0  0
 11 10  1  6  0  0  0
 12 20  2  0  0  0  0
 12 19  1  0  0  0  0
 13 20  1  0  0  0  0
 14 15  1  0  0  0  0
 18 19  2  0  0  0  0
M  CHG  1  21  -1
M  END
>  <CHROM.1>
-132.47958068,-172.48360930,-56.86445358,-174.55987140,-17.19891927,-10.74664901
-10.83897708,-6.72515593,2.55685145,-0.63049561,2.13710846

>  <Name>
ligand

>  <RI>
0

>  <Rbt.Current_Directory>
/home/itssahil/PROJECTS/Mol_Feturizer/New_Systems/rnas/4XWF

>  <Rbt.Executable>
rbdock ($Id: //depot/dev/client3/rdock/2013.1/src/exe/rbdock.cxx#4 $)

>  <Rbt.Library>
libRbt.so (2013.1, Build901 2013/11/27)

>  <Rbt.Parameter_File>
/export/apps/rDock/src/rDock_2013.1_src/data/scripts/dock_solv.prm

>  <Rbt.Receptor>
prm/blind_docking_20.prm

>  <SCORE>
1.10356

>  <SCORE.INTER>
-3.53466

>  <SCORE.INTER.CONST>
1

>  <SCORE.INTER.POLAR>
0

>  <SCORE.INTER.ROT>
5

>  <SCORE.INTER.SOLV>
24.9624

>  <SCORE.INTER.VDW>
-17.6106

>  <SCORE.INTER.norm>
-0.160666

>  <SCORE.INTRA>
2.49974

>  <SCORE.INTRA.DIHEDRAL>
-1.29319

>  <SCORE.INTRA.DIHEDRAL.0>
3.49807

>  <SCORE.INTRA.POLAR>
0

>  <SCORE.INTRA.POLAR.0>
0

>  <SCORE.INTRA.REPUL>
0

>  <SCORE.INTRA.REPUL.0>
0

>  <SCORE.INTRA.SOLV>
4.77137

>  <SCORE.INTRA.SOLV.lig_0>
-73.062

>  <SCORE.INTRA.VDW>
0.760653

>  <SCORE.INTRA.VDW.0>
-1.83782

>  <SCORE.INTRA.norm>
0.113625

>  <SCORE.RESTR>
2.13848

>  <SCORE.RESTR.CAVITY>
2.13848

>  <SCORE.RESTR.norm>
0.0972035

>  <SCORE.SYSTEM>
0

>  <SCORE.SYSTEM.CONST>
0

>  <SCORE.SYSTEM.DIHEDRAL>
0

>  <SCORE.SYSTEM.SOLV>
0

>  <SCORE.SYSTEM.norm>
0

>  <SCORE.heavy>
22

>  <SCORE.norm>
0.050162

>  <RMSD>
23.550

$$$$
ligand
 OpenBabel11021811513D
libRbt.so/2013.1/901 2013/11/27
 22 23  0  0  0  0  0  0  0  0999 V2000
  -11.7919  -10.3693   -5.9263 N   0  0  0  0  0  0  0  0  0  0  0  0
  -10.4822   -9.4067   -8.8946 C   0  0  1  0  0  0  0  0  0  0  0  0
  -11.3690  -10.3240   -8.1932 O   0  0  0  0  0  0  0  0  0  0  0  0
   -7.8238  -12.0980   -8.7687 P   0  0  1  0  0  0  0  0  0  0  0  0
  -11.9415   -9.6233   -7.0771 C   0  0  2  0  0  0  0  0  0  0  0  0
  -11.1374  -11.9198   -4.5557 N   0  0  0  0  0  0  0  0  0  0  0  0
  -11.8267   -7.3897   -6.2442 O   0  0  0  0  0  0  0  0  0  0  0  0
  -11.0918   -8.4229   -6.9109 C   0  0  2  0  0  0  0  0  0  0  0  0
  -13.3919  -11.8056   -2.0432 N   0  0  0  0  0  0  0  0  0  0  0  0
  -11.8121   -7.4778   -8.9689 O   0  0  0  0  0  0  0  0  0  0  0  0
  -10.7076   -8.0823   -8.2753 C   0  0  2  0  0  0  0  0  0  0  0  0
  -11.8961  -11.0494   -3.8721 C   0  0  0  0  0  0  0  0  0  0  0  0
  -13.1078   -8.9481   -4.4016 N   0  0  0  0  0  0  0  0  0  0  0  0
   -9.0971  -11.2249   -9.0421 O   0  0  0  0  0  0  0  0  0  0  0  0
   -9.0894   -9.8854   -8.6687 C   0  0  0  0  0  0  0  0  0  0  0  0
   -6.7362  -11.4478   -9.6987 O   0  0  0  0  0  0  0  0  0  0  0  0
  -11.0794  -11.4980   -5.8333 C   0  0  0  0  0  0  0  0  0  0  0  0
  -11.5017  -10.6182   -1.5927 O   0  0  0  0  0  0  0  0  0  0  0  0
  -12.2294  -11.1383   -2.4384 C   0  0  0  0  0  0  0  0  0  0  0  0
  -12.3095  -10.0684   -4.7278 C   0  0  0  0  0  0  0  0  0  0  0  0
   -7.4949  -12.0647   -7.3132 O   0  5  0  0  0  0  0  0  0  0  0  0
   -8.1174  -13.5281   -8.9721 O   0  0  0  0  0  0  0  0  0  0  0  0
  1 17  1  0  0  0  0
  1 20  1  0  0  0  0
  2 15  1  1  0  0  0
  2  3  1  0  0  0  0
  2 11  1  0  0  0  0
  3  5  1  0  0  0  0
  4 16  1  6  0  0  0
  4 21  1  0  0  0  0
  4 22  2  0  0  0  0
  4 14  1  0  0  0  0
  5  1  1  1  0  0  0
  5  8  1  0  0  0  0
  6 17  2  0  0  0  0
  6 12  1  0  0  0  0
  8  7  1  6  0  0  0
  8 11  1  0  0  0  0
  9 19  1  0  0  0  0
 11 10  1  6  0  0  0
 12 20  2  0  0  0  0
 12 19  1  0  0  0  0
 13 20  1  0  0  0  0
 14 15  1  0  0  0  0
 18 19  2  0  0  0  0
M  CHG  1  21  -1
M  END
>  <CHROM.1>
7.45993003,52.72366080,-65.41325954,-172.64544622,-91.41986337,-10.49950290
-10.48051596,-6.68081659,2.57900644,-0.79396506,2.23025892

>  <Name>
ligand

>  <RI>
0

>  <Rbt.Current_Directory>
/home/itssahil/PROJECTS/Mol_Feturizer/New_Systems/rnas/4XWF

>  <Rbt.Executable>
rbdock ($Id: //depot/dev/client3/rdock/2013.1/src/exe/rbdock.cxx#4 $)

>  <Rbt.Library>
libRbt.so (2013.1, Build901 2013/11/27)

>  <Rbt.Parameter_File>
/export/apps/rDock/src/rDock_2013.1_src/data/scripts/dock_solv.prm

>  <Rbt.Receptor>
prm/blind_docking_20.prm

>  <SCORE>
0.567466

>  <SCORE.INTER>
-1.84785

>  <SCORE.INTER.CONST>
1

>  <SCORE.INTER.POLAR>
0

>  <SCORE.INTER.ROT>
5

>  <SCORE.INTER.SOLV>
20.176

>  <SCORE.INTER.VDW>
-14.8906

>  <SCORE.INTER.norm>
-0.0839932

>  <SCORE.INTRA>
0.0810142

>  <SCORE.INTRA.DIHEDRAL>
-0.698636

>  <SCORE.INTRA.DIHEDRAL.0>
3.49807

>  <SCORE.INTRA.POLAR>
0

>  <SCORE.INTRA.POLAR.0>
0

>  <SCORE.INTRA.REPUL>
0

>  <SCORE.INTRA.REPUL.0>
0

>  <SCORE.INTRA.SOLV>
1.06041

>  <SCORE.INTRA.SOLV.lig_0>
-73.062

>  <SCORE.INTRA.VDW>
-0.0998725

>  <SCORE.INTRA.VDW.0>
-1.83782

>  <SCORE.INTRA.norm>
0.00368246

>  <SCORE.RESTR>
2.3343

>  <SCORE.RESTR.CAVITY>
2.3343

>  <SCORE.RESTR.norm>
0.106105

>  <SCORE.SYSTEM>
0

>  <SCORE.SYSTEM.CONST>
0

>  <SCORE.SYSTEM.DIHEDRAL>
0

>  <SCORE.SYSTEM.SOLV>
0

>  <SCORE.SYSTEM.norm>
0

>  <SCORE.heavy>
22

>  <SCORE.norm>
0.0257939

>  <RMSD>
23.592

$$$$
ligand
 OpenBabel11021811513D
libRbt.so/2013.1/901 2013/11/27
 22 23  0  0  0  0  0  0  0  0999 V2000
  -11.7961  -10.4062   -6.0074 N   0  0  0  0  0  0  0  0  0  0  0  0
  -10.4499   -9.4097   -8.9481 C   0  0  1  0  0  0  0  0  0  0  0  0
  -11.3504  -10.3306   -8.2692 O   0  0  0  0  0  0  0  0  0  0  0  0
   -7.8182  -12.1265   -8.8197 P   0  0  1  0  0  0  0  0  0  0  0  0
  -11.9287   -9.6422   -7.1485 C   0  0  2  0  0  0  0  0  0  0  0  0
  -11.1635  -11.9795   -4.6526 N   0  0  0  0  0  0  0  0  0  0  0  0
  -11.8056   -7.4221   -6.2813 O   0  0  0  0  0  0  0  0  0  0  0  0
  -11.0718   -8.4508   -6.9561 C   0  0  2  0  0  0  0  0  0  0  0  0
  -13.6146  -11.0849   -2.1459 N   0  0  0  0  0  0  0  0  0  0  0  0
  -11.7646   -7.4700   -9.0067 O   0  0  0  0  0  0  0  0  0  0  0  0
  -10.6716   -8.0930   -8.3114 C   0  0  2  0  0  0  0  0  0  0  0  0
  -11.9288  -11.1176   -3.9655 C   0  0  0  0  0  0  0  0  0  0  0  0
  -13.1279   -9.0050   -4.4782 N   0  0  0  0  0  0  0  0  0  0  0  0
   -9.0787  -11.2378   -9.1026 O   0  0  0  0  0  0  0  0  0  0  0  0
   -9.0630   -9.9022   -8.7158 C   0  0  0  0  0  0  0  0  0  0  0  0
   -6.7187  -11.4965   -9.7496 O   0  0  0  0  0  0  0  0  0  0  0  0
  -11.0878  -11.5383   -5.9227 C   0  0  0  0  0  0  0  0  0  0  0  0
  -11.4098  -11.4284   -1.6915 O   0  0  0  0  0  0  0  0  0  0  0  0
  -12.2808  -11.2276   -2.5377 C   0  0  0  0  0  0  0  0  0  0  0  0
  -12.3284  -10.1224   -4.8113 C   0  0  0  0  0  0  0  0  0  0  0  0
   -7.4940  -12.0892   -7.3632 O   0  5  0  0  0  0  0  0  0  0  0  0
   -8.1305  -13.5536   -9.0159 O   0  0  0  0  0  0  0  0  0  0  0  0
  1 17  1  0  0  0  0
  1 20  1  0  0  0  0
  2 15  1  1  0  0  0
  2  3  1  0  0  0  0
  2 11  1  0  0  0  0
  3  5  1  0  0  0  0
  4 16  1  6  0  0  0
  4 21  1  0  0  0  0
  4 22  2  0  0  0  0
  4 14  1  0  0  0  0
  5  1  1  1  0  0  0
  5  8  1  0  0  0  0
  6 17  2  0  0  0  0
  6 12  1  0  0  0  0
  8  7  1  6  0  0  0
  8 11  1  0  0  0  0
  9 19  1  0  0  0  0
 11 10  1  6  0  0  0
 12 20  2  0  0  0  0
 12 19  1  0  0  0  0
 13 20  1  0  0  0  0
 14 15  1  0  0  0  0
 18 19  2  0  0  0  0
M  CHG  1  21  -1
M  END
>  <CHROM.1>
7.78651182,52.42865643,-66.53193416,-172.26988375,-131.27632487,-10.49968933
-10.51769834,-6.74642331,2.58961645,-0.78344544,2.23863506

>  <Name>
ligand

>  <RI>
0

>  <Rbt.Current_Directory>
/home/itssahil/PROJECTS/Mol_Feturizer/New_Systems/rnas/4XWF

>  <Rbt.Executable>
rbdock ($Id: //depot/dev/client3/rdock/2013.1/src/exe/rbdock.cxx#4 $)

>  <Rbt.Library>
libRbt.so (2013.1, Build901 2013/11/27)

>  <Rbt.Parameter_File>
/export/apps/rDock/src/rDock_2013.1_src/data/scripts/dock_solv.prm

>  <Rbt.Receptor>
prm/blind_docking_20.prm

>  <SCORE>
0.141458

>  <SCORE.INTER>
-2.22098

>  <SCORE.INTER.CONST>
1

>  <SCORE.INTER.POLAR>
0

>  <SCORE.INTER.ROT>
5

>  <SCORE.INTER.SOLV>
20.4806

>  <SCORE.INTER.VDW>
-15.2409

>  <SCORE.INTER.norm>
-0.100953

>  <SCORE.INTRA>
-0.10298

>  <SCORE.INTRA.DIHEDRAL>
-1.28785

>  <SCORE.INTRA.DIHEDRAL.0>
3.49807

>  <SCORE.INTRA.POLAR>
0

>  <SCORE.INTRA.POLAR.0>
0

>  <SCORE.INTRA.REPUL>
0

>  <SCORE.INTRA.REPUL.0>
0

>  <SCORE.INTRA.SOLV>
1.2776

>  <SCORE.INTRA.SOLV.lig_0>
-73.062

>  <SCORE.INTRA.VDW>
-0.0978511

>  <SCORE.INTRA.VDW.0>
-1.83782

>  <SCORE.INTRA.norm>
-0.00468091

>  <SCORE.RESTR>
2.46542

>  <SCORE.RESTR.CAVITY>
2.46542

>  <SCORE.RESTR.norm>
0.112064

>  <SCORE.SYSTEM>
0

>  <SCORE.SYSTEM.CONST>
0

>  <SCORE.SYSTEM.DIHEDRAL>
0

>  <SCORE.SYSTEM.SOLV>
0

>  <SCORE.SYSTEM.norm>
0

>  <SCORE.heavy>
22

>  <SCORE.norm>
0.00642993

>  <RMSD>
23.593

$$$$
ligand
 OpenBabel11021811513D
libRbt.so/2013.1/901 2013/11/27
 22 23  0  0  0  0  0  0  0  0999 V2000
  -11.0010   -9.3954   -7.8751 N   0  0  0  0  0  0  0  0  0  0  0  0
  -12.0934   -9.1940   -4.6784 C   0  0  1  0  0  0  0  0  0  0  0  0
  -11.6142   -8.4757   -5.8507 O   0  0  0  0  0  0  0  0  0  0  0  0
  -12.1652  -11.3235   -2.4105 P   0  0  1  0  0  0  0  0  0  0  0  0
  -12.0616   -9.1823   -7.0190 C   0  0  2  0  0  0  0  0  0  0  0  0
   -9.5846   -9.1205   -9.4966 N   0  0  0  0  0  0  0  0  0  0  0  0
  -13.4187  -11.1051   -7.4154 O   0  0  0  0  0  0  0  0  0  0  0  0
  -12.4700  -10.5144   -6.5194 C   0  0  2  0  0  0  0  0  0  0  0  0
   -6.8156  -10.7611   -8.5283 N   0  0  0  0  0  0  0  0  0  0  0  0
  -14.3101   -9.6297   -5.3035 O   0  0  0  0  0  0  0  0  0  0  0  0
  -13.0103  -10.2337   -5.1948 C   0  0  2  0  0  0  0  0  0  0  0  0
   -9.2185  -10.2075   -8.8003 C   0  0  0  0  0  0  0  0  0  0  0  0
  -10.0631  -11.4027   -6.7948 N   0  0  0  0  0  0  0  0  0  0  0  0
  -11.2990  -10.0509   -2.7084 O   0  0  0  0  0  0  0  0  0  0  0  0
  -10.9020   -9.7962   -4.0165 C   0  0  0  0  0  0  0  0  0  0  0  0
  -11.7403  -11.7127   -0.9481 O   0  0  0  0  0  0  0  0  0  0  0  0
  -10.6961   -8.6213   -8.9231 C   0  0  0  0  0  0  0  0  0  0  0  0
   -8.1687  -12.0384   -9.8410 O   0  0  0  0  0  0  0  0  0  0  0  0
   -8.0566  -11.0670   -9.0935 C   0  0  0  0  0  0  0  0  0  0  0  0
  -10.1039  -10.3853   -7.7757 C   0  0  0  0  0  0  0  0  0  0  0  0
  -13.6125  -10.9945   -2.5687 O   0  5  0  0  0  0  0  0  0  0  0  0
  -11.9774  -12.3407   -3.4606 O   0  0  0  0  0  0  0  0  0  0  0  0
  1 17  1  0  0  0  0
  1 20  1  0  0  0  0
  2 15  1  6  0  0  0
  2  3  1  0  0  0  0
  2 11  1  0  0  0  0
  3  5  1  0  0  0  0
  4 16  1  1  0  0  0
  4 21  1  0  0  0  0
  4 22  2  0  0  0  0
  4 14  1  0  0  0  0
  5  1  1  6  0  0  0
  5  8  1  0  0  0  0
  6 17  2  0  0  0  0
  6 12  1  0  0  0  0
  8  7  1  6  0  0  0
  8 11  1  0  0  0  0
  9 19  1  0  0  0  0
 11 10  1  6  0  0  0
 12 20  2  0  0  0  0
 12 19  1  0  0  0  0
 13 20  1  0  0  0  0
 14 15  1  0  0  0  0
 18 19  2  0  0  0  0
M  CHG  1  21  -1
M  END
>  <CHROM.1>
-96.43318686,159.61266225,149.37383644,79.26661446,89.00954581,-11.22976334
-10.42898435,-5.82954776,1.01549493,0.42252612,-1.23302248

>  <Name>
ligand

>  <RI>
0

>  <Rbt.Current_Directory>
/home/itssahil/PROJECTS/Mol_Feturizer/New_Systems/rnas/4XWF

>  <Rbt.Executable>
rbdock ($Id: //depot/dev/client3/rdock/2013.1/src/exe/rbdock.cxx#4 $)

>  <Rbt.Library>
libRbt.so (2013.1, Build901 2013/11/27)

>  <Rbt.Parameter_File>
/export/apps/rDock/src/rDock_2013.1_src/data/scripts/dock_solv.prm

>  <Rbt.Receptor>
prm/blind_docking_20.prm

>  <SCORE>
12.2399

>  <SCORE.INTER>
1.57119

>  <SCORE.INTER.CONST>
1

>  <SCORE.INTER.POLAR>
0

>  <SCORE.INTER.ROT>
5

>  <SCORE.INTER.SOLV>
24.7567

>  <SCORE.INTER.VDW>
-14.1381

>  <SCORE.INTER.norm>
0.0714176

>  <SCORE.INTRA>
9.01687

>  <SCORE.INTRA.DIHEDRAL>
3.11676

>  <SCORE.INTRA.DIHEDRAL.0>
3.49807

>  <SCORE.INTRA.POLAR>
0

>  <SCORE.INTRA.POLAR.0>
0

>  <SCORE.INTRA.REPUL>
0

>  <SCORE.INTRA.REPUL.0>
0

>  <SCORE.INTRA.SOLV>
10.6641

>  <SCORE.INTRA.SOLV.lig_0>
-73.062

>  <SCORE.INTRA.VDW>
2.12645

>  <SCORE.INTRA.VDW.0>
-1.83782

>  <SCORE.INTRA.norm>
0.409858

>  <SCORE.RESTR>
1.65183

>  <SCORE.RESTR.CAVITY>
1.65183

>  <SCORE.RESTR.norm>
0.0750833

>  <SCORE.SYSTEM>
0

>  <SCORE.SYSTEM.CONST>
0

>  <SCORE.SYSTEM.DIHEDRAL>
0

>  <SCORE.SYSTEM.SOLV>
0

>  <SCORE.SYSTEM.norm>
0

>  <SCORE.heavy>
22

>  <SCORE.norm>
0.556358

>  <RMSD>
23.654

$$$$
ligand
 OpenBabel11021811513D
libRbt.so/2013.1/901 2013/11/27
 22 23  0  0  0  0  0  0  0  0999 V2000
  -11.4305   -9.4410   -5.6286 N   0  0  0  0  0  0  0  0  0  0  0  0
  -10.4832   -9.3836   -8.8770 C   0  0  1  0  0  0  0  0  0  0  0  0
  -11.2841  -10.0374   -7.8518 O   0  0  0  0  0  0  0  0  0  0  0  0
   -7.8021  -12.0449   -8.6272 P   0  0  1  0  0  0  0  0  0  0  0  0
  -11.7137   -9.0350   -6.9164 C   0  0  2  0  0  0  0  0  0  0  0  0
  -10.6530   -9.4463   -3.6022 N   0  0  0  0  0  0  0  0  0  0  0  0
  -11.4862   -6.6647   -6.7553 O   0  0  0  0  0  0  0  0  0  0  0  0
  -10.8432   -7.8692   -7.1883 C   0  0  2  0  0  0  0  0  0  0  0  0
  -11.6182  -12.9416   -3.1342 N   0  0  0  0  0  0  0  0  0  0  0  0
  -11.8011   -7.4991   -9.3314 O   0  0  0  0  0  0  0  0  0  0  0  0
  -10.6245   -7.9322   -8.6282 C   0  0  2  0  0  0  0  0  0  0  0  0
  -11.3899  -10.5549   -3.7711 C   0  0  0  0  0  0  0  0  0  0  0  0
  -12.7288  -11.5362   -5.6172 N   0  0  0  0  0  0  0  0  0  0  0  0
   -9.1013  -11.2100   -8.8983 O   0  0  0  0  0  0  0  0  0  0  0  0
   -9.0761   -9.8357   -8.6880 C   0  0  0  0  0  0  0  0  0  0  0  0
   -6.7185  -11.3173   -9.5029 O   0  0  0  0  0  0  0  0  0  0  0  0
  -10.6750   -8.7589   -4.7600 C   0  0  0  0  0  0  0  0  0  0  0  0
  -11.8372  -11.2906   -1.5812 O   0  0  0  0  0  0  0  0  0  0  0  0
  -11.6236  -11.5969   -2.7541 C   0  0  0  0  0  0  0  0  0  0  0  0
  -11.8854  -10.5571   -5.0438 C   0  0  0  0  0  0  0  0  0  0  0  0
   -7.5096  -12.0580   -7.1635 O   0  5  0  0  0  0  0  0  0  0  0  0
   -8.0353  -13.4757   -8.8941 O   0  0  0  0  0  0  0  0  0  0  0  0
  1 17  1  0  0  0  0
  1 20  1  0  0  0  0
  2 15  1  1  0  0  0
  2  3  1  0  0  0  0
  2 11  1  0  0  0  0
  3  5  1  0  0  0  0
  4 16  1  6  0  0  0
  4 21  1  0  0  0  0
  4 22  2  0  0  0  0
  4 14  1  0  0  0  0
  5  1  1  1  0  0  0
  5  8  1  0  0  0  0
  6 17  2  0  0  0  0
  6 12  1  0  0  0  0
  8  7  1  6  0  0  0
  8 11  1  0  0  0  0
  9 19  1  0  0  0  0
 11 10  1  6  0  0  0
 12 20  2  0  0  0  0
 12 19  1  0  0  0  0
 13 20  1  0  0  0  0
 14 15  1  0  0  0  0
 18 19  2  0  0  0  0
M  CHG  1  21  -1
M  END
>  <CHROM.1>
122.50260432,62.57017448,-54.32111939,-173.51751177,-139.81386960,-10.26754970
-10.32628785,-6.70904389,2.51266623,-0.85294299,2.26319769

>  <Name>
ligand

>  <RI>
0

>  <Rbt.Current_Directory>
/home/itssahil/PROJECTS/Mol_Feturizer/New_Systems/rnas/4XWF

>  <Rbt.Executable>
rbdock ($Id: //depot/dev/client3/rdock/2013.1/src/exe/rbdock.cxx#4 $)

>  <Rbt.Library>
libRbt.so (2013.1, Build901 2013/11/27)

>  <Rbt.Parameter_File>
/export/apps/rDock/src/rDock_2013.1_src/data/scripts/dock_solv.prm

>  <Rbt.Receptor>
prm/blind_docking_20.prm

>  <SCORE>
4.3285

>  <SCORE.INTER>
-0.380766

>  <SCORE.INTER.CONST>
1

>  <SCORE.INTER.POLAR>
0

>  <SCORE.INTER.ROT>
5

>  <SCORE.INTER.SOLV>
26.0713

>  <SCORE.INTER.VDW>
-15.8776

>  <SCORE.INTER.norm>
-0.0173075

>  <SCORE.INTRA>
1.37661

>  <SCORE.INTRA.DIHEDRAL>
-1.32809

>  <SCORE.INTRA.DIHEDRAL.0>
3.49807

>  <SCORE.INTRA.POLAR>
0

>  <SCORE.INTRA.POLAR.0>
0

>  <SCORE.INTRA.REPUL>
0

>  <SCORE.INTRA.REPUL.0>
0

>  <SCORE.INTRA.SOLV>
-0.191789

>  <SCORE.INTRA.SOLV.lig_0>
-73.062

>  <SCORE.INTRA.VDW>
2.13655

>  <SCORE.INTRA.VDW.0>
-1.83782

>  <SCORE.INTRA.norm>
0.0625731

>  <SCORE.RESTR>
3.33265

>  <SCORE.RESTR.CAVITY>
3.33265

>  <SCORE.RESTR.norm>
0.151484

>  <SCORE.SYSTEM>
0

>  <SCORE.SYSTEM.CONST>
0

>  <SCORE.SYSTEM.DIHEDRAL>
0

>  <SCORE.SYSTEM.SOLV>
0

>  <SCORE.SYSTEM.norm>
0

>  <SCORE.heavy>
22

>  <SCORE.norm>
0.19675

>  <RMSD>
23.660

$$$$
ligand
 OpenBabel11021811513D
libRbt.so/2013.1/901 2013/11/27
 22 23  0  0  0  0  0  0  0  0999 V2000
  -10.9239   -9.6206   -7.8333 N   0  0  0  0  0  0  0  0  0  0  0  0
  -12.1483   -9.3715   -4.6883 C   0  0  1  0  0  0  0  0  0  0  0  0
  -11.5501   -8.6812   -5.8221 O   0  0  0  0  0  0  0  0  0  0  0  0
  -12.5222  -11.4792   -2.4318 P   0  0  1  0  0  0  0  0  0  0  0  0
  -12.0016   -9.3258   -7.0241 C   0  0  2  0  0  0  0  0  0  0  0  0
   -9.4641   -9.4943   -9.4347 N   0  0  0  0  0  0  0  0  0  0  0  0
  -13.5047  -11.1114   -7.5225 O   0  0  0  0  0  0  0  0  0  0  0  0
  -12.5517  -10.6231   -6.5711 C   0  0  2  0  0  0  0  0  0  0  0  0
   -7.3768  -11.5066  -10.1000 N   0  0  0  0  0  0  0  0  0  0  0  0
  -14.3621   -9.5947   -5.4258 O   0  0  0  0  0  0  0  0  0  0  0  0
  -13.1285  -10.3156   -5.2682 C   0  0  2  0  0  0  0  0  0  0  0  0
   -9.1325  -10.5281   -8.6460 C   0  0  0  0  0  0  0  0  0  0  0  0
  -10.0449  -11.5494   -6.5753 N   0  0  0  0  0  0  0  0  0  0  0  0
  -11.5197  -10.3019   -2.6920 O   0  0  0  0  0  0  0  0  0  0  0  0
  -11.0494  -10.0895   -3.9833 C   0  0  0  0  0  0  0  0  0  0  0  0
  -13.9062  -10.8753   -2.8682 O   0  0  0  0  0  0  0  0  0  0  0  0
  -10.5812   -8.9359   -8.9307 C   0  0  0  0  0  0  0  0  0  0  0  0
   -7.5511  -12.1078   -7.9105 O   0  0  0  0  0  0  0  0  0  0  0  0
   -7.9777  -11.4242   -8.8410 C   0  0  0  0  0  0  0  0  0  0  0  0
  -10.0454  -10.6121   -7.6336 C   0  0  0  0  0  0  0  0  0  0  0  0
  -12.0978  -12.6813   -3.2082 O   0  5  0  0  0  0  0  0  0  0  0  0
  -12.4063  -11.9673   -1.0458 O   0  0  0  0  0  0  0  0  0  0  0  0
  1 17  1  0  0  0  0
  1 20  1  0  0  0  0
  2 15  1  6  0  0  0
  2  3  1  0  0  0  0
  2 11  1  0  0  0  0
  3  5  1  0  0  0  0
  4 16  1  6  0  0  0
  4 21  1  0  0  0  0
  4 22  2  0  0  0  0
  4 14  1  0  0  0  0
  5  1  1  6  0  0  0
  5  8  1  0  0  0  0
  6 17  2  0  0  0  0
  6 12  1  0  0  0  0
  8  7  1  6  0  0  0
  8 11  1  0  0  0  0
  9 19  1  0  0  0  0
 11 10  1  6  0  0  0
 12 20  2  0  0  0  0
 12 19  1  0  0  0  0
 13 20  1  0  0  0  0
 14 15  1  0  0  0  0
 18 19  2  0  0  0  0
M  CHG  1  21  -1
M  END
>  <CHROM.1>
-103.57419117,158.35752779,-81.24915643,79.13227549,-19.84668022,-11.31650139
-10.63160813,-5.79120827,0.92862502,0.47602532,-1.16945997

>  <Name>
ligand

>  <RI>
0

>  <Rbt.Current_Directory>
/home/itssahil/PROJECTS/Mol_Feturizer/New_Systems/rnas/4XWF

>  <Rbt.Executable>
rbdock ($Id: //depot/dev/client3/rdock/2013.1/src/exe/rbdock.cxx#4 $)

>  <Rbt.Library>
libRbt.so (2013.1, Build901 2013/11/27)

>  <Rbt.Parameter_File>
/export/apps/rDock/src/rDock_2013.1_src/data/scripts/dock_solv.prm

>  <Rbt.Receptor>
prm/blind_docking_20.prm

>  <SCORE>
12.7444

>  <SCORE.INTER>
4.20864

>  <SCORE.INTER.CONST>
1

>  <SCORE.INTER.POLAR>
0

>  <SCORE.INTER.ROT>
5

>  <SCORE.INTER.SOLV>
24.6781

>  <SCORE.INTER.VDW>
-12.3536

>  <SCORE.INTER.norm>
0.191302

>  <SCORE.INTRA>
6.95471

>  <SCORE.INTRA.DIHEDRAL>
2.22912

>  <SCORE.INTRA.DIHEDRAL.0>
3.49807

>  <SCORE.INTRA.POLAR>
0

>  <SCORE.INTRA.POLAR.0>
0

>  <SCORE.INTRA.REPUL>
0

>  <SCORE.INTRA.REPUL.0>
0

>  <SCORE.INTRA.SOLV>
7.30727

>  <SCORE.INTRA.SOLV.lig_0>
-73.062

>  <SCORE.INTRA.VDW>
2.18652

>  <SCORE.INTRA.VDW.0>
-1.83782

>  <SCORE.INTRA.norm>
0.316123

>  <SCORE.RESTR>
1.58108

>  <SCORE.RESTR.CAVITY>
1.58108

>  <SCORE.RESTR.norm>
0.0718671

>  <SCORE.SYSTEM>
0

>  <SCORE.SYSTEM.CONST>
0

>  <SCORE.SYSTEM.DIHEDRAL>
0

>  <SCORE.SYSTEM.SOLV>
0

>  <SCORE.SYSTEM.norm>
0

>  <SCORE.heavy>
22

>  <SCORE.norm>
0.579292

>  <RMSD>
23.751

$$$$
ligand
 OpenBabel11021811513D
libRbt.so/2013.1/901 2013/11/27
 22 23  0  0  0  0  0  0  0  0999 V2000
  -10.7378   -9.5352   -7.8996 N   0  0  0  0  0  0  0  0  0  0  0  0
  -12.0891  -10.1523   -4.8589 C   0  0  1  0  0  0  0  0  0  0  0  0
  -11.2496   -9.2778   -5.6654 O   0  0  0  0  0  0  0  0  0  0  0  0
  -12.4606  -11.1949   -2.2583 P   0  0  1  0  0  0  0  0  0  0  0  0
  -11.7606   -9.2851   -7.0082 C   0  0  2  0  0  0  0  0  0  0  0  0
   -9.3050   -9.2669   -9.5078 N   0  0  0  0  0  0  0  0  0  0  0  0
  -13.6317  -10.2870   -8.0996 O   0  0  0  0  0  0  0  0  0  0  0  0
  -12.6591  -10.4600   -7.0623 C   0  0  2  0  0  0  0  0  0  0  0  0
   -7.2096  -11.9901   -8.3561 N   0  0  0  0  0  0  0  0  0  0  0  0
  -14.2236   -9.4861   -5.5620 O   0  0  0  0  0  0  0  0  0  0  0  0
  -13.2332  -10.5153   -5.7234 C   0  0  2  0  0  0  0  0  0  0  0  0
   -9.0727  -10.4575   -8.9340 C   0  0  0  0  0  0  0  0  0  0  0  0
  -10.0499  -11.7440   -7.0489 N   0  0  0  0  0  0  0  0  0  0  0  0
  -11.9846  -12.0037   -3.5144 O   0  0  0  0  0  0  0  0  0  0  0  0
  -11.2688  -11.3458   -4.5087 C   0  0  0  0  0  0  0  0  0  0  0  0
  -13.8497  -10.6145   -2.7102 O   0  0  0  0  0  0  0  0  0  0  0  0
  -10.3442   -8.6986   -8.8670 C   0  0  0  0  0  0  0  0  0  0  0  0
   -7.8597  -11.7032  -10.5196 O   0  0  0  0  0  0  0  0  0  0  0  0
   -8.0267  -11.4168   -9.3341 C   0  0  0  0  0  0  0  0  0  0  0  0
   -9.9690  -10.6322   -7.9184 C   0  0  0  0  0  0  0  0  0  0  0  0
  -12.5228  -12.0992   -1.0725 O   0  5  0  0  0  0  0  0  0  0  0  0
  -11.4303  -10.2281   -1.8382 O   0  0  0  0  0  0  0  0  0  0  0  0
  1 17  1  0  0  0  0
  1 20  1  0  0  0  0
  2 15  1  6  0  0  0
  2  3  1  0  0  0  0
  2 11  1  0  0  0  0
  3  5  1  0  0  0  0
  4 16  1  6  0  0  0
  4 21  1  0  0  0  0
  4 22  2  0  0  0  0
  4 14  1  0  0  0  0
  5  1  1  6  0  0  0
  5  8  1  0  0  0  0
  6 17  2  0  0  0  0
  6 12  1  0  0  0  0
  8  7  1  6  0  0  0
  8 11  1  0  0  0  0
  9 19  1  0  0  0  0
 11 10  1  6  0  0  0
 12 20  2  0  0  0  0
 12 19  1  0  0  0  0
 13 20  1  0  0  0  0
 14 15  1  0  0  0  0
 18 19  2  0  0  0  0
M  CHG  1  21  -1
M  END
>  <CHROM.1>
-118.91371538,167.30930041,87.56751659,-51.95263987,132.47569721,-11.27606058
-10.61507923,-5.95014304,0.99856689,0.43663179,-1.25128600

>  <Name>
ligand

>  <RI>
0

>  <Rbt.Current_Directory>
/home/itssahil/PROJECTS/Mol_Feturizer/New_Systems/rnas/4XWF

>  <Rbt.Executable>
rbdock ($Id: //depot/dev/client3/rdock/2013.1/src/exe/rbdock.cxx#4 $)

>  <Rbt.Library>
libRbt.so (2013.1, Build901 2013/11/27)

>  <Rbt.Parameter_File>
/export/apps/rDock/src/rDock_2013.1_src/data/scripts/dock_solv.prm

>  <Rbt.Receptor>
prm/blind_docking_20.prm

>  <SCORE>
10.2433

>  <SCORE.INTER>
2.73917

>  <SCORE.INTER.CONST>
1

>  <SCORE.INTER.POLAR>
0

>  <SCORE.INTER.ROT>
5

>  <SCORE.INTER.SOLV>
20.7973

>  <SCORE.INTER.VDW>
-12.0396

>  <SCORE.INTER.norm>
0.124508

>  <SCORE.INTRA>
5.17574

>  <SCORE.INTRA.DIHEDRAL>
0.00188782

>  <SCORE.INTRA.DIHEDRAL.0>
3.49807

>  <SCORE.INTRA.POLAR>
0

>  <SCORE.INTRA.POLAR.0>
0

>  <SCORE.INTRA.REPUL>
0

>  <SCORE.INTRA.REPUL.0>
0

>  <SCORE.INTRA.SOLV>
6.85704

>  <SCORE.INTRA.SOLV.lig_0>
-73.062

>  <SCORE.INTRA.VDW>
1.74628

>  <SCORE.INTRA.VDW.0>
-1.83782

>  <SCORE.INTRA.norm>
0.235261

>  <SCORE.RESTR>
2.32839

>  <SCORE.RESTR.CAVITY>
2.32839

>  <SCORE.RESTR.norm>
0.105836

>  <SCORE.SYSTEM>
0

>  <SCORE.SYSTEM.CONST>
0

>  <SCORE.SYSTEM.DIHEDRAL>
0

>  <SCORE.SYSTEM.SOLV>
0

>  <SCORE.SYSTEM.norm>
0

>  <SCORE.heavy>
22

>  <SCORE.norm>
0.465604

>  <RMSD>
23.752

$$$$
ligand
 OpenBabel11021811513D
libRbt.so/2013.1/901 2013/11/27
 22 23  0  0  0  0  0  0  0  0999 V2000
  -10.9176   -9.6188   -7.8529 N   0  0  0  0  0  0  0  0  0  0  0  0
  -12.1326   -9.4018   -4.7018 C   0  0  1  0  0  0  0  0  0  0  0  0
  -11.5350   -8.7005   -5.8292 O   0  0  0  0  0  0  0  0  0  0  0  0
  -12.5012  -11.5208   -2.4504 P   0  0  1  0  0  0  0  0  0  0  0  0
  -11.9921   -9.3297   -7.0373 C   0  0  2  0  0  0  0  0  0  0  0  0
   -9.4571   -9.4749   -9.4520 N   0  0  0  0  0  0  0  0  0  0  0  0
  -13.5029  -11.1040   -7.5521 O   0  0  0  0  0  0  0  0  0  0  0  0
  -12.5456  -10.6302   -6.5978 C   0  0  2  0  0  0  0  0  0  0  0  0
   -7.4388  -11.5514  -10.1769 N   0  0  0  0  0  0  0  0  0  0  0  0
  -14.3492   -9.6086   -5.4357 O   0  0  0  0  0  0  0  0  0  0  0  0
  -13.1177  -10.3357   -5.2898 C   0  0  2  0  0  0  0  0  0  0  0  0
   -9.1359  -10.5278   -8.6847 C   0  0  0  0  0  0  0  0  0  0  0  0
  -10.0581  -11.5818   -6.6348 N   0  0  0  0  0  0  0  0  0  0  0  0
  -11.4968  -10.3460   -2.7143 O   0  0  0  0  0  0  0  0  0  0  0  0
  -11.0344  -10.1317   -4.0082 C   0  0  0  0  0  0  0  0  0  0  0  0
  -13.8835  -10.9176   -2.8929 O   0  0  0  0  0  0  0  0  0  0  0  0
  -10.5682   -8.9155   -8.9363 C   0  0  0  0  0  0  0  0  0  0  0  0
   -7.5285  -12.0889   -7.9659 O   0  0  0  0  0  0  0  0  0  0  0  0
   -7.9903  -11.4315   -8.8984 C   0  0  0  0  0  0  0  0  0  0  0  0
  -10.0493  -10.6232   -7.6738 C   0  0  0  0  0  0  0  0  0  0  0  0
  -12.0765  -12.7273   -3.2198 O   0  5  0  0  0  0  0  0  0  0  0  0
  -12.3889  -12.0021   -1.0617 O   0  0  0  0  0  0  0  0  0  0  0  0
  1 17  1  0  0  0  0
  1 20  1  0  0  0  0
  2 15  1  6  0  0  0
  2  3  1  0  0  0  0
  2 11  1  0  0  0  0
  3  5  1  0  0  0  0
  4 16  1  6  0  0  0
  4 21  1  0  0  0  0
  4 22  2  0  0  0  0
  4 14  1  0  0  0  0
  5  1  1  6  0  0  0
  5  8  1  0  0  0  0
  6 17  2  0  0  0  0
  6 12  1  0  0  0  0
  8  7  1  6  0  0  0
  8 11  1  0  0  0  0
  9 19  1  0  0  0  0
 11 10  1  6  0  0  0
 12 20  2  0  0  0  0
 12 19  1  0  0  0  0
 13 20  1  0  0  0  0
 14 15  1  0  0  0  0
 18 19  2  0  0  0  0
M  CHG  1  21  -1
M  END
>  <CHROM.1>
-102.92547052,157.79817223,-80.57056534,79.44034861,-23.46146981,-11.30846458
-10.65051355,-5.81811861,0.93394053,0.48171778,-1.16377405

>  <Name>
ligand

>  <RI>
0

>  <Rbt.Current_Directory>
/home/itssahil/PROJECTS/Mol_Feturizer/New_Systems/rnas/4XWF

>  <Rbt.Executable>
rbdock ($Id: //depot/dev/client3/rdock/2013.1/src/exe/rbdock.cxx#4 $)

>  <Rbt.Library>
libRbt.so (2013.1, Build901 2013/11/27)

>  <Rbt.Parameter_File>
/export/apps/rDock/src/rDock_2013.1_src/data/scripts/dock_solv.prm

>  <Rbt.Receptor>
prm/blind_docking_20.prm

>  <SCORE>
12.654

>  <SCORE.INTER>
4.01251

>  <SCORE.INTER.CONST>
1

>  <SCORE.INTER.POLAR>
0

>  <SCORE.INTER.ROT>
5

>  <SCORE.INTER.SOLV>
24.5895

>  <SCORE.INTER.VDW>
-12.4548

>  <SCORE.INTER.norm>
0.182387

>  <SCORE.INTRA>
7.04782

>  <SCORE.INTRA.DIHEDRAL>
2.44728

>  <SCORE.INTRA.DIHEDRAL.0>
3.49807

>  <SCORE.INTRA.POLAR>
0

>  <SCORE.INTRA.POLAR.0>
0

>  <SCORE.INTRA.REPUL>
0

>  <SCORE.INTRA.REPUL.0>
0

>  <SCORE.INTRA.SOLV>
7.2002

>  <SCORE.INTRA.SOLV.lig_0>
-73.062

>  <SCORE.INTRA.VDW>
2.22408

>  <SCORE.INTRA.VDW.0>
-1.83782

>  <SCORE.INTRA.norm>
0.320356

>  <SCORE.RESTR>
1.59372

>  <SCORE.RESTR.CAVITY>
1.59372

>  <SCORE.RESTR.norm>
0.0724416

>  <SCORE.SYSTEM>
0

>  <SCORE.SYSTEM.CONST>
0

>  <SCORE.SYSTEM.DIHEDRAL>
0

>  <SCORE.SYSTEM.SOLV>
0

>  <SCORE.SYSTEM.norm>
0

>  <SCORE.heavy>
22

>  <SCORE.norm>
0.575184

>  <RMSD>
23.761

$$$$
ligand
 OpenBabel11021811513D
libRbt.so/2013.1/901 2013/11/27
 22 23  0  0  0  0  0  0  0  0999 V2000
  -10.8118   -9.4457   -7.8191 N   0  0  0  0  0  0  0  0  0  0  0  0
  -12.0904  -10.0127   -4.7375 C   0  0  1  0  0  0  0  0  0  0  0  0
  -11.2845   -9.1426   -5.5821 O   0  0  0  0  0  0  0  0  0  0  0  0
  -12.6844  -11.7971   -2.3644 P   0  0  1  0  0  0  0  0  0  0  0  0
  -11.8216   -9.1933   -6.9137 C   0  0  2  0  0  0  0  0  0  0  0  0
   -9.3966   -9.1784   -9.4429 N   0  0  0  0  0  0  0  0  0  0  0  0
  -13.6936  -10.2582   -7.9421 O   0  0  0  0  0  0  0  0  0  0  0  0
  -12.6976  -10.3863   -6.9207 C   0  0  2  0  0  0  0  0  0  0  0  0
   -8.5145  -12.5063   -9.9681 N   0  0  0  0  0  0  0  0  0  0  0  0
  -14.2512   -9.4057   -5.4135 O   0  0  0  0  0  0  0  0  0  0  0  0
  -13.2439  -10.4193   -5.5696 C   0  0  2  0  0  0  0  0  0  0  0  0
   -9.1671  -10.3747   -8.8798 C   0  0  0  0  0  0  0  0  0  0  0  0
  -10.1319  -11.6657   -6.9915 N   0  0  0  0  0  0  0  0  0  0  0  0
  -11.3394  -11.2916   -2.9921 O   0  0  0  0  0  0  0  0  0  0  0  0
  -11.2398  -11.1810   -4.3747 C   0  0  0  0  0  0  0  0  0  0  0  0
  -12.9877  -13.1095   -3.1745 O   0  0  0  0  0  0  0  0  0  0  0  0
  -10.4231   -8.6060   -8.7857 C   0  0  0  0  0  0  0  0  0  0  0  0
   -6.9462  -11.1330   -9.0516 O   0  0  0  0  0  0  0  0  0  0  0  0
   -8.1340  -11.3398   -9.2991 C   0  0  0  0  0  0  0  0  0  0  0  0
  -10.0524  -10.5488   -7.8545 C   0  0  0  0  0  0  0  0  0  0  0  0
  -12.5082  -12.0015   -0.8964 O   0  5  0  0  0  0  0  0  0  0  0  0
  -13.7062  -10.7352   -2.3937 O   0  0  0  0  0  0  0  0  0  0  0  0
  1 17  1  0  0  0  0
  1 20  1  0  0  0  0
  2 15  1  6  0  0  0
  2  3  1  0  0  0  0
  2 11  1  0  0  0  0
  3  5  1  0  0  0  0
  4 16  1  6  0  0  0
  4 21  1  0  0  0  0
  4 22  2  0  0  0  0
  4 14  1  0  0  0  0
  5  1  1  6  0  0  0
  5  8  1  0  0  0  0
  6 17  2  0  0  0  0
  6 12  1  0  0  0  0
  8  7  1  6  0  0  0
  8 11  1  0  0  0  0
  9 19  1  0  0  0  0
 11 10  1  6  0  0  0
 12 20  2  0  0  0  0
 12 19  1  0  0  0  0
 13 20  1  0  0  0  0
 14 15  1  0  0  0  0
 18 19  2  0  0  0  0
M  CHG  1  21  -1
M  END
>  <CHROM.1>
-116.46778340,129.49493577,50.37300964,71.52855336,-107.23998073,-11.37793810
-10.71464175,-5.91095329,0.94821504,0.51051958,-1.09029914

>  <Name>
ligand

>  <RI>
0

>  <Rbt.Current_Directory>
/home/itssahil/PROJECTS/Mol_Feturizer/New_Systems/rnas/4XWF

>  <Rbt.Executable>
rbdock ($Id: //depot/dev/client3/rdock/2013.1/src/exe/rbdock.cxx#4 $)

>  <Rbt.Library>
libRbt.so (2013.1, Build901 2013/11/27)

>  <Rbt.Parameter_File>
/export/apps/rDock/src/rDock_2013.1_src/data/scripts/dock_solv.prm

>  <Rbt.Receptor>
prm/blind_docking_20.prm

>  <SCORE>
10.8175

>  <SCORE.INTER>
3.05647

>  <SCORE.INTER.CONST>
1

>  <SCORE.INTER.POLAR>
0

>  <SCORE.INTER.ROT>
5

>  <SCORE.INTER.SOLV>
21.7814

>  <SCORE.INTER.VDW>
-12.1562

>  <SCORE.INTER.norm>
0.138931

>  <SCORE.INTRA>
5.72249

>  <SCORE.INTRA.DIHEDRAL>
3.86475

>  <SCORE.INTRA.DIHEDRAL.0>
3.49807

>  <SCORE.INTRA.POLAR>
0

>  <SCORE.INTRA.POLAR.0>
0

>  <SCORE.INTRA.REPUL>
0

>  <SCORE.INTRA.REPUL.0>
0

>  <SCORE.INTRA.SOLV>
7.156

>  <SCORE.INTRA.SOLV.lig_0>
-73.062

>  <SCORE.INTRA.VDW>
0.212115

>  <SCORE.INTRA.VDW.0>
-1.83782

>  <SCORE.INTRA.norm>
0.260113

>  <SCORE.RESTR>
2.03851

>  <SCORE.RESTR.CAVITY>
2.03851

>  <SCORE.RESTR.norm>
0.0926595

>  <SCORE.SYSTEM>
0

>  <SCORE.SYSTEM.CONST>
0

>  <SCORE.SYSTEM.DIHEDRAL>
0

>  <SCORE.SYSTEM.SOLV>
0

>  <SCORE.SYSTEM.norm>
0

>  <SCORE.heavy>
22

>  <SCORE.norm>
0.491703

>  <RMSD>
23.763

$$$$
ligand
 OpenBabel11021811513D
libRbt.so/2013.1/901 2013/11/27
 22 23  0  0  0  0  0  0  0  0999 V2000
  -10.6927   -9.7132   -7.6790 N   0  0  0  0  0  0  0  0  0  0  0  0
  -12.1181  -10.0910   -4.6330 C   0  0  1  0  0  0  0  0  0  0  0  0
  -11.2072   -9.3184   -5.4656 O   0  0  0  0  0  0  0  0  0  0  0  0
  -12.6022  -11.4913   -1.9792 P   0  0  1  0  0  0  0  0  0  0  0  0
  -11.7032   -9.3481   -6.8137 C   0  0  2  0  0  0  0  0  0  0  0  0
   -9.2531   -9.6393   -9.3018 N   0  0  0  0  0  0  0  0  0  0  0  0
  -13.6324  -10.2565   -7.8856 O   0  0  0  0  0  0  0  0  0  0  0  0
  -12.6864  -10.4543   -6.8283 C   0  0  2  0  0  0  0  0  0  0  0  0
   -6.9866  -11.4944   -9.7784 N   0  0  0  0  0  0  0  0  0  0  0  0
  -14.1894   -9.3006   -5.3941 O   0  0  0  0  0  0  0  0  0  0  0  0
  -13.2770  -10.4067   -5.4964 C   0  0  2  0  0  0  0  0  0  0  0  0
   -9.0674  -10.7852   -8.6288 C   0  0  0  0  0  0  0  0  0  0  0  0
  -10.0916  -11.8676   -6.6432 N   0  0  0  0  0  0  0  0  0  0  0  0
  -12.2891  -12.0260   -3.4195 O   0  0  0  0  0  0  0  0  0  0  0  0
  -11.3930  -11.3252   -4.2193 C   0  0  0  0  0  0  0  0  0  0  0  0
  -13.7240  -12.4674   -1.4699 O   0  0  0  0  0  0  0  0  0  0  0  0
  -10.2678   -8.9779   -8.7131 C   0  0  0  0  0  0  0  0  0  0  0  0
   -8.1687  -12.9558   -8.4928 O   0  0  0  0  0  0  0  0  0  0  0  0
   -8.0610  -11.8158   -8.9446 C   0  0  0  0  0  0  0  0  0  0  0  0
   -9.9682  -10.8376   -7.6035 C   0  0  0  0  0  0  0  0  0  0  0  0
  -11.3553  -11.4978   -1.1588 O   0  5  0  0  0  0  0  0  0  0  0  0
  -12.9245  -10.0534   -2.0145 O   0  0  0  0  0  0  0  0  0  0  0  0
  1 17  1  0  0  0  0
  1 20  1  0  0  0  0
  2 15  1  6  0  0  0
  2  3  1  0  0  0  0
  2 11  1  0  0  0  0
  3  5  1  0  0  0  0
  4 16  1  1  0  0  0
  4 21  1  0  0  0  0
  4 22  2  0  0  0  0
  4 14  1  0  0  0  0
  5  1  1  6  0  0  0
  5  8  1  0  0  0  0
  6 17  2  0  0  0  0
  6 12  1  0  0  0  0
  8  7  1  6  0  0  0
  8 11  1  0  0  0  0
  9 19  1  0  0  0  0
 11 10  1  6  0  0  0
 12 20  2  0  0  0  0
 12 19  1  0  0  0  0
 13 20  1  0  0  0  0
 14 15  1  0  0  0  0
 18 19  2  0  0  0  0
M  CHG  1  21  -1
M  END
>  <CHROM.1>
-122.03761735,179.47474447,175.26364291,-72.58330221,16.90871283,-11.31866406
-10.79521640,-5.68041123,0.93833703,0.53443699,-1.16288111

>  <Name>
ligand

>  <RI>
0

>  <Rbt.Current_Directory>
/home/itssahil/PROJECTS/Mol_Feturizer/New_Systems/rnas/4XWF

>  <Rbt.Executable>
rbdock ($Id: //depot/dev/client3/rdock/2013.1/src/exe/rbdock.cxx#4 $)

>  <Rbt.Library>
libRbt.so (2013.1, Build901 2013/11/27)

>  <Rbt.Parameter_File>
/export/apps/rDock/src/rDock_2013.1_src/data/scripts/dock_solv.prm

>  <Rbt.Receptor>
prm/blind_docking_20.prm

>  <SCORE>
9.85287

>  <SCORE.INTER>
2.74568

>  <SCORE.INTER.CONST>
1

>  <SCORE.INTER.POLAR>
0

>  <SCORE.INTER.ROT>
5

>  <SCORE.INTER.SOLV>
21.5483

>  <SCORE.INTER.VDW>
-12.2857

>  <SCORE.INTER.norm>
0.124804

>  <SCORE.INTRA>
4.497

>  <SCORE.INTRA.DIHEDRAL>
-0.841072

>  <SCORE.INTRA.DIHEDRAL.0>
3.49807

>  <SCORE.INTRA.POLAR>
0

>  <SCORE.INTRA.POLAR.0>
0

>  <SCORE.INTRA.REPUL>
0

>  <SCORE.INTRA.REPUL.0>
0

>  <SCORE.INTRA.SOLV>
7.84753

>  <SCORE.INTRA.SOLV.lig_0>
-73.062

>  <SCORE.INTRA.VDW>
0.993771

>  <SCORE.INTRA.VDW.0>
-1.83782

>  <SCORE.INTRA.norm>
0.204409

>  <SCORE.RESTR>
2.61019

>  <SCORE.RESTR.CAVITY>
2.61019

>  <SCORE.RESTR.norm>
0.118645

>  <SCORE.SYSTEM>
0

>  <SCORE.SYSTEM.CONST>
0

>  <SCORE.SYSTEM.DIHEDRAL>
0

>  <SCORE.SYSTEM.SOLV>
0

>  <SCORE.SYSTEM.norm>
0

>  <SCORE.heavy>
22

>  <SCORE.norm>
0.447858

>  <RMSD>
23.893

$$$$
ligand
 OpenBabel11021811513D
libRbt.so/2013.1/901 2013/11/27
 22 23  0  0  0  0  0  0  0  0999 V2000
  -10.2838  -10.7070   -7.2701 N   0  0  0  0  0  0  0  0  0  0  0  0
  -12.1528  -10.6006   -4.4509 C   0  0  1  0  0  0  0  0  0  0  0  0
  -10.9343  -10.1722   -5.1228 O   0  0  0  0  0  0  0  0  0  0  0  0
  -13.1039  -11.6658   -1.7664 P   0  0  1  0  0  0  0  0  0  0  0  0
  -11.2248  -10.0295   -6.5227 C   0  0  2  0  0  0  0  0  0  0  0  0
   -8.9675  -12.2833   -7.9728 N   0  0  0  0  0  0  0  0  0  0  0  0
  -13.1816  -10.2390   -7.8730 O   0  0  0  0  0  0  0  0  0  0  0  0
  -12.5062  -10.7449   -6.7156 C   0  0  2  0  0  0  0  0  0  0  0  0
   -8.5379  -10.9605  -11.2511 N   0  0  0  0  0  0  0  0  0  0  0  0
  -13.7245   -9.1621   -5.4282 O   0  0  0  0  0  0  0  0  0  0  0  0
  -13.2228  -10.5085   -5.4683 C   0  0  2  0  0  0  0  0  0  0  0  0
   -8.8511  -11.2378   -8.8058 C   0  0  0  0  0  0  0  0  0  0  0  0
   -9.8717   -8.9815   -8.9813 N   0  0  0  0  0  0  0  0  0  0  0  0
  -13.0253  -12.3062   -3.1955 O   0  0  0  0  0  0  0  0  0  0  0  0
  -11.9382  -12.0074   -4.0096 C   0  0  0  0  0  0  0  0  0  0  0  0
  -11.5937  -11.5037   -1.3621 O   0  0  0  0  0  0  0  0  0  0  0  0
   -9.8539  -11.9484   -7.0158 C   0  0  0  0  0  0  0  0  0  0  0  0
   -6.7578  -11.3211   -9.8775 O   0  0  0  0  0  0  0  0  0  0  0  0
   -7.9746  -11.1738   -9.9900 C   0  0  0  0  0  0  0  0  0  0  0  0
   -9.6793  -10.2424   -8.3716 C   0  0  0  0  0  0  0  0  0  0  0  0
  -13.8692  -10.3860   -1.8308 O   0  5  0  0  0  0  0  0  0  0  0  0
  -13.9569  -12.4751   -0.8775 O   0  0  0  0  0  0  0  0  0  0  0  0
  1 17  1  0  0  0  0
  1 20  1  0  0  0  0
  2 15  1  6  0  0  0
  2  3  1  0  0  0  0
  2 11  1  0  0  0  0
  3  5  1  0  0  0  0
  4 16  1  1  0  0  0
  4 21  1  0  0  0  0
  4 22  2  0  0  0  0
  4 14  1  0  0  0  0
  5  1  1  6  0  0  0
  5  8  1  0  0  0  0
  6 17  2  0  0  0  0
  6 12  1  0  0  0  0
  8  7  1  6  0  0  0
  8 11  1  0  0  0  0
  9 19  1  0  0  0  0
 11 10  1  6  0  0  0
 12 20  2  0  0  0  0
 12 19  1  0  0  0  0
 13 20  1  0  0  0  0
 14 15  1  0  0  0  0
 18 19  2  0  0  0  0
M  CHG  1  21  -1
M  END
>  <CHROM.1>
45.83987552,170.80085668,-30.51351001,-72.70502561,120.33588592,-11.33093902
-10.97728282,-5.73903208,0.93713834,0.49080766,-1.15827212

>  <Name>
ligand

>  <RI>
0

>  <Rbt.Current_Directory>
/home/itssahil/PROJECTS/Mol_Feturizer/New_Systems/rnas/4XWF

>  <Rbt.Executable>
rbdock ($Id: //depot/dev/client3/rdock/2013.1/src/exe/rbdock.cxx#4 $)

>  <Rbt.Library>
libRbt.so (2013.1, Build901 2013/11/27)

>  <Rbt.Parameter_File>
/export/apps/rDock/src/rDock_2013.1_src/data/scripts/dock_solv.prm

>  <Rbt.Receptor>
prm/blind_docking_20.prm

>  <SCORE>
5.9202

>  <SCORE.INTER>
0.305545

>  <SCORE.INTER.CONST>
1

>  <SCORE.INTER.POLAR>
0

>  <SCORE.INTER.ROT>
5

>  <SCORE.INTER.SOLV>
19.4551

>  <SCORE.INTER.VDW>
-13.2147

>  <SCORE.INTER.norm>
0.0138884

>  <SCORE.INTRA>
1.34827

>  <SCORE.INTRA.DIHEDRAL>
0.110187

>  <SCORE.INTRA.DIHEDRAL.0>
3.49807

>  <SCORE.INTRA.POLAR>
0

>  <SCORE.INTRA.POLAR.0>
0

>  <SCORE.INTRA.REPUL>
0

>  <SCORE.INTRA.REPUL.0>
0

>  <SCORE.INTRA.SOLV>
1.50293

>  <SCORE.INTRA.SOLV.lig_0>
-73.062

>  <SCORE.INTRA.VDW>
0.541711

>  <SCORE.INTRA.VDW.0>
-1.83782

>  <SCORE.INTRA.norm>
0.0612851

>  <SCORE.RESTR>
4.26638

>  <SCORE.RESTR.CAVITY>
4.26638

>  <SCORE.RESTR.norm>
0.193926

>  <SCORE.SYSTEM>
0

>  <SCORE.SYSTEM.CONST>
0

>  <SCORE.SYSTEM.DIHEDRAL>
0

>  <SCORE.SYSTEM.SOLV>
0

>  <SCORE.SYSTEM.norm>
0

>  <SCORE.heavy>
22

>  <SCORE.norm>
0.2691

>  <RMSD>
24.100

$$$$
ligand
 OpenBabel11021811513D
libRbt.so/2013.1/901 2013/11/27
 22 23  0  0  0  0  0  0  0  0999 V2000
  -13.7193  -21.4971   -2.1140 N   0  0  0  0  0  0  0  0  0  0  0  0
  -12.9137  -18.8991   -4.1275 C   0  0  1  0  0  0  0  0  0  0  0  0
  -13.8070  -20.0232   -3.8860 O   0  0  0  0  0  0  0  0  0  0  0  0
  -10.9797  -20.9601   -6.6339 P   0  0  1  0  0  0  0  0  0  0  0  0
  -13.9473  -20.1825   -2.4650 C   0  0  2  0  0  0  0  0  0  0  0  0
  -14.0573  -23.5212   -1.4070 N   0  0  0  0  0  0  0  0  0  0  0  0
  -13.1534  -19.0072   -0.5456 O   0  0  0  0  0  0  0  0  0  0  0  0
  -12.8346  -19.3962   -1.8868 C   0  0  2  0  0  0  0  0  0  0  0  0
  -10.6720  -24.4090   -0.9702 N   0  0  0  0  0  0  0  0  0  0  0  0
  -13.7594  -17.3289   -2.6065 O   0  0  0  0  0  0  0  0  0  0  0  0
  -12.6939  -18.2731   -2.8054 C   0  0  2  0  0  0  0  0  0  0  0  0
  -12.7853  -23.4302   -1.8245 C   0  0  0  0  0  0  0  0  0  0  0  0
  -11.3627  -21.6552   -2.8193 N   0  0  0  0  0  0  0  0  0  0  0  0
  -12.0053  -20.0265   -5.9023 O   0  0  0  0  0  0  0  0  0  0  0  0
  -11.6493  -19.4565   -4.6849 C   0  0  0  0  0  0  0  0  0  0  0  0
   -9.8039  -19.9838   -7.0009 O   0  0  0  0  0  0  0  0  0  0  0  0
  -14.6337  -22.3167   -1.5824 C   0  0  0  0  0  0  0  0  0  0  0  0
  -11.9318  -25.5120   -2.5135 O   0  0  0  0  0  0  0  0  0  0  0  0
  -11.7910  -24.5189   -1.8001 C   0  0  0  0  0  0  0  0  0  0  0  0
  -12.5658  -22.1593   -2.2740 C   0  0  0  0  0  0  0  0  0  0  0  0
  -10.5929  -22.0852   -5.7325 O   0  5  0  0  0  0  0  0  0  0  0  0
  -11.6289  -21.6812   -7.7435 O   0  0  0  0  0  0  0  0  0  0  0  0
  1 17  1  0  0  0  0
  1 20  1  0  0  0  0
  2 15  1  1  0  0  0
  2  3  1  0  0  0  0
  2 11  1  0  0  0  0
  3  5  1  0  0  0  0
  4 16  1  6  0  0  0
  4 21  1  0  0  0  0
  4 22  2  0  0  0  0
  4 14  1  0  0  0  0
  5  1  1  6  0  0  0
  5  8  1  0  0  0  0
  6 17  2  0  0  0  0
  6 12  1  0  0  0  0
  8  7  1  1  0  0  0
  8 11  1  0  0  0  0
  9 19  1  0  0  0  0
 11 10  1  1  0  0  0
 12 20  2  0  0  0  0
 12 19  1  0  0  0  0
 13 20  1  0  0  0  0
 14 15  1  0  0  0  0
 18 19  2  0  0  0  0
M  CHG  1  21  -1
M  END
>  <CHROM.1>
-115.54603226,63.88883505,-65.53958000,-167.78393158,-114.43850564,-12.31070577
-21.13825169,-3.60097492,2.19781708,-1.06407844,2.62812584

>  <Name>
ligand

>  <RI>
0

>  <Rbt.Current_Directory>
/home/itssahil/PROJECTS/Mol_Feturizer/New_Systems/rnas/4XWF

>  <Rbt.Executable>
rbdock ($Id: //depot/dev/client3/rdock/2013.1/src/exe/rbdock.cxx#4 $)

>  <Rbt.Library>
libRbt.so (2013.1, Build901 2013/11/27)

>  <Rbt.Parameter_File>
/export/apps/rDock/src/rDock_2013.1_src/data/scripts/dock_solv.prm

>  <Rbt.Receptor>
prm/blind_docking_40.prm

>  <SCORE>
-0.353301

>  <SCORE.INTER>
-3.23595

>  <SCORE.INTER.CONST>
1

>  <SCORE.INTER.POLAR>
0

>  <SCORE.INTER.ROT>
5

>  <SCORE.INTER.SOLV>
16.0318

>  <SCORE.INTER.VDW>
-14.4346

>  <SCORE.INTER.norm>
-0.147089

>  <SCORE.INTRA>
2.77337

>  <SCORE.INTRA.DIHEDRAL>
-1.09971

>  <SCORE.INTRA.DIHEDRAL.0>
3.49807

>  <SCORE.INTRA.POLAR>
0

>  <SCORE.INTRA.POLAR.0>
0

>  <SCORE.INTRA.REPUL>
0

>  <SCORE.INTRA.REPUL.0>
0

>  <SCORE.INTRA.SOLV>
7.20672

>  <SCORE.INTRA.SOLV.lig_0>
-73.062

>  <SCORE.INTRA.VDW>
-0.280132

>  <SCORE.INTRA.VDW.0>
-1.83782

>  <SCORE.INTRA.norm>
0.126062

>  <SCORE.RESTR>
0.109283

>  <SCORE.RESTR.CAVITY>
0.109283

>  <SCORE.RESTR.norm>
0.00496739

>  <SCORE.SYSTEM>
0

>  <SCORE.SYSTEM.CONST>
0

>  <SCORE.SYSTEM.DIHEDRAL>
0

>  <SCORE.SYSTEM.SOLV>
0

>  <SCORE.SYSTEM.norm>
0

>  <SCORE.heavy>
22

>  <SCORE.norm>
-0.0160591

>  <RMSD>
31.205

$$$$
