1f1t Malachite green aptamer (Xray 2.8A)
  MOE2003           3D

 49 52  0  0  0  0  0  0  0  0999 V2000
  111.2830  -75.0530  -81.4210 C   0  0  0  0  0  0  0  0  0  0  0  0
  111.8750  -76.2780  -81.9380 C   0  0  0  0  0  0  0  0  0  0  0  0
  112.4700  -76.9020  -81.2930 H   0  0  0  0  0  0  0  0  0  0  0  0
  111.5800  -76.5030  -83.2840 C   0  0  0  0  0  0  0  0  0  0  0  0
  112.2100  -77.7660  -83.7610 O   0  0  0  0  0  0  0  0  0  0  0  0
  111.9440  -77.9580  -84.9940 C   0  0  0  0  0  0  0  0  0  0  0  0
  112.5920  -79.2170  -85.3610 C   0  0  0  0  0  0  0  0  0  0  0  0
  113.1480  -79.7710  -84.6240 H   0  0  0  0  0  0  0  0  0  0  0  0
  112.4040  -79.5940  -86.7380 C   0  0  0  0  0  0  0  0  0  0  0  0
  111.6660  -78.8030  -87.6530 C   0  0  0  0  0  0  0  0  0  0  0  0
  111.5660  -79.1170  -88.6780 H   0  0  0  0  0  0  0  0  0  0  0  0
  111.0390  -77.5670  -87.2230 C   0  0  0  0  0  0  0  0  0  0  0  0
  110.4760  -76.9760  -87.9260 H   0  0  0  0  0  0  0  0  0  0  0  0
  111.2020  -77.1770  -85.8440 C   0  0  0  0  0  0  0  0  0  0  0  0
  110.5050  -75.8880  -85.4770 C   0  0  0  0  0  0  0  0  0  0  0  0
  110.8130  -75.6970  -84.1180 C   0  0  0  0  0  0  0  0  0  0  0  0
  110.2200  -74.4720  -83.5770 C   0  0  0  0  0  0  0  0  0  0  0  0
  109.6170  -73.8410  -84.2080 H   0  0  0  0  0  0  0  0  0  0  0  0
  110.5090  -74.2160  -82.2010 C   0  0  0  0  0  0  0  0  0  0  0  0
  110.0900  -73.3190  -81.7770 H   0  0  0  0  0  0  0  0  0  0  0  0
  109.7620  -75.1490  -86.3780 C   0  0  0  0  0  0  0  0  0  0  0  0
  110.1210  -73.8820  -86.8940 C   0  0  0  0  0  0  0  0  0  0  0  0
  111.0350  -73.4100  -86.5750 H   0  0  0  0  0  0  0  0  0  0  0  0
  109.3920  -73.1300  -87.8170 C   0  0  0  0  0  0  0  0  0  0  0  0
  109.7610  -72.1720  -88.1420 H   0  0  0  0  0  0  0  0  0  0  0  0
  108.1350  -73.6490  -88.3350 C   0  0  0  0  0  0  0  0  0  0  0  0
  107.5720  -73.0780  -89.0540 H   0  0  0  0  0  0  0  0  0  0  0  0
  107.7990  -74.9120  -87.7910 C   0  0  0  0  0  0  0  0  0  0  0  0
  106.8870  -75.4010  -88.0890 H   0  0  0  0  0  0  0  0  0  0  0  0
  108.4960  -75.6980  -86.8630 C   0  0  0  0  0  0  0  0  0  0  0  0
  108.1510  -76.6540  -86.5050 H   0  0  0  0  0  0  0  0  0  0  0  0
  111.4900  -74.6880  -80.0980 N   0  3  0  0  0  0  0  0  0  0  0  0
  112.3010  -75.4890  -79.1880 C   0  0  0  0  0  0  0  0  0  0  0  0
  113.1130  -74.9080  -78.8350 H   0  0  0  0  0  0  0  0  0  0  0  0
  111.7080  -75.8010  -78.3680 H   0  0  0  0  0  0  0  0  0  0  0  0
  112.6710  -76.3390  -79.7000 H   0  0  0  0  0  0  0  0  0  0  0  0
  110.9500  -73.4850  -79.4270 C   0  0  0  0  0  0  0  0  0  0  0  0
  110.3440  -73.7790  -78.6100 H   0  0  0  0  0  0  0  0  0  0  0  0
  111.7510  -72.8870  -79.0760 H   0  0  0  0  0  0  0  0  0  0  0  0
  110.3690  -72.9280  -80.1150 H   0  0  0  0  0  0  0  0  0  0  0  0
  113.0130  -80.8190  -87.0600 N   0  0  0  0  0  0  0  0  0  0  0  0
  113.7770  -81.7830  -86.2370 C   0  0  0  0  0  0  0  0  0  0  0  0
  114.6320  -81.3040  -85.8350 H   0  0  0  0  0  0  0  0  0  0  0  0
  113.1660  -82.1350  -85.4470 H   0  0  0  0  0  0  0  0  0  0  0  0
  114.0800  -82.5990  -86.8400 H   0  0  0  0  0  0  0  0  0  0  0  0
  112.8850  -81.3000  -88.4810 C   0  0  0  0  0  0  0  0  0  0  0  0
  111.8610  -81.4220  -88.7210 H   0  0  0  0  0  0  0  0  0  0  0  0
  113.3190  -80.5890  -89.1350 H   0  0  0  0  0  0  0  0  0  0  0  0
  113.3850  -82.2270  -88.5860 H   0  0  0  0  0  0  0  0  0  0  0  0
  1  2  1  0  0  0  0
  1 19  1  0  0  0  0
  1 32  2  0  0  0  0
  2  3  1  0  0  0  0
  2  4  2  0  0  0  0
  4  5  1  0  0  0  0
  4 16  1  0  0  0  0
  5  6  1  0  0  0  0
  6  7  1  0  0  0  0
  6 14  2  0  0  0  0
  7  8  1  0  0  0  0
  7  9  2  0  0  0  0
  9 10  1  0  0  0  0
  9 41  1  0  0  0  0
 10 11  1  0  0  0  0
 10 12  2  0  0  0  0
 12 13  1  0  0  0  0
 12 14  1  0  0  0  0
 14 15  1  0  0  0  0
 15 16  2  0  0  0  0
 15 21  1  0  0  0  0
 16 17  1  0  0  0  0
 17 18  1  0  0  0  0
 17 19  2  0  0  0  0
 19 20  1  0  0  0  0
 21 22  2  0  0  0  0
 21 30  1  0  0  0  0
 22 23  1  0  0  0  0
 22 24  1  0  0  0  0
 24 25  1  0  0  0  0
 24 26  2  0  0  0  0
 26 27  1  0  0  0  0
 26 28  1  0  0  0  0
 28 29  1  0  0  0  0
 28 30  2  0  0  0  0
 30 31  1  0  0  0  0
 32 33  1  0  0  0  0
 32 37  1  0  0  0  0
 33 34  1  0  0  0  0
 33 35  1  0  0  0  0
 33 36  1  0  0  0  0
 37 38  1  0  0  0  0
 37 39  1  0  0  0  0
 37 40  1  0  0  0  0
 41 42  1  0  0  0  0
 41 46  1  0  0  0  0
 42 43  1  0  0  0  0
 42 44  1  0  0  0  0
 42 45  1  0  0  0  0
 46 47  1  0  0  0  0
 46 48  1  0  0  0  0
 46 49  1  0  0  0  0
M  CHG  1  32   1
M  END
