1f1t Malachite green aptamer (Xray 2.8A)
 OpenBabel11021811393D
libRbt.so/2013.1/901 2013/11/27
 26 29  0  0  0  0  0  0  0  0999 V2000
  111.2390  -74.6615  -81.8027 C   0  0  0  0  0  0  0  0  0  0  0  0
  111.7564  -75.9332  -82.2857 C   0  0  0  0  0  0  0  0  0  0  0  0
  111.4938  -76.1526  -83.6393 C   0  0  0  0  0  0  0  0  0  0  0  0
  112.0448  -77.4645  -84.0806 O   0  0  0  0  0  0  0  0  0  0  0  0
  111.8095  -77.6517  -85.3206 C   0  0  0  0  0  0  0  0  0  0  0  0
  112.3749  -78.9596  -85.6513 C   0  0  0  0  0  0  0  0  0  0  0  0
  112.2087  -79.3388  -87.0305 C   0  0  0  0  0  0  0  0  0  0  0  0
  111.5646  -78.5069  -87.9796 C   0  0  0  0  0  0  0  0  0  0  0  0
  111.0162  -77.2227  -87.5849 C   0  0  0  0  0  0  0  0  0  0  0  0
  111.1584  -76.8286  -86.2047 C   0  0  0  0  0  0  0  0  0  0  0  0
  110.5465  -75.4872  -85.8761 C   0  0  0  0  0  0  0  0  0  0  0  0
  110.8191  -75.3025  -84.5086 C   0  0  0  0  0  0  0  0  0  0  0  0
  110.2998  -74.0304  -84.0017 C   0  0  0  0  0  0  0  0  0  0  0  0
  110.5577  -73.7793  -82.6186 C   0  0  0  0  0  0  0  0  0  0  0  0
  109.8931  -74.7066  -86.8108 C   0  0  0  0  0  0  0  0  0  0  0  0
  110.2216  -73.3704  -87.1383 C   0  0  0  0  0  0  0  0  0  0  0  0
  109.5843  -72.5736  -88.0911 C   0  0  0  0  0  0  0  0  0  0  0  0
  108.4696  -73.1162  -88.8532 C   0  0  0  0  0  0  0  0  0  0  0  0
  108.1591  -74.4499  -88.4941 C   0  0  0  0  0  0  0  0  0  0  0  0
  108.7669  -75.2830  -87.5448 C   0  0  0  0  0  0  0  0  0  0  0  0
  111.4252  -74.2963  -80.4766 N   0  3  0  0  0  0  0  0  0  0  0  0
  112.1414  -75.1437  -79.5298 C   0  0  0  0  0  0  0  0  0  0  0  0
  110.9525  -73.0484  -79.8376 C   0  0  0  0  0  0  0  0  0  0  0  0
  112.7361  -80.6094  -87.3181 N   0  0  0  0  0  0  0  0  0  0  0  0
  113.3350  -81.6450  -86.4468 C   0  0  0  0  0  0  0  0  0  0  0  0
  112.6975  -81.0631  -88.7532 C   0  0  0  0  0  0  0  0  0  0  0  0
  1  2  1  0  0  0  0
  1 14  1  0  0  0  0
  1 21  2  0  0  0  0
  2  3  2  0  0  0  0
  3  4  1  0  0  0  0
  3 12  1  0  0  0  0
  4  5  1  0  0  0  0
  5  6  1  0  0  0  0
  5 10  2  0  0  0  0
  6  7  2  0  0  0  0
  7  8  1  0  0  0  0
  7 24  1  0  0  0  0
  8  9  2  0  0  0  0
  9 10  1  0  0  0  0
 10 11  1  0  0  0  0
 11 12  2  0  0  0  0
 11 15  1  0  0  0  0
 12 13  1  0  0  0  0
 13 14  2  0  0  0  0
 15 16  2  0  0  0  0
 15 20  1  0  0  0  0
 16 17  1  0  0  0  0
 17 18  2  0  0  0  0
 18 19  1  0  0  0  0
 19 20  2  0  0  0  0
 21 22  1  0  0  0  0
 21 23  1  0  0  0  0
 24 25  1  0  0  0  0
 24 26  1  0  0  0  0
M  CHG  1  21   1
M  END
>  <CHROM.1>
4.91827706,-123.59895828,111.09015240,-76.23063888,-85.24896671,-1.81365592
1.05094312,-2.08452745

>  <Name>
1f1t Malachite green aptamer (Xray 2.8A)

>  <RI>
0

>  <Rbt.Current_Directory>
/home/itssahil/PROJECTS/Mol_Feturizer/New_Systems/rnas/1f1t

>  <Rbt.Executable>
rbdock ($Id: //depot/dev/client3/rdock/2013.1/src/exe/rbdock.cxx#4 $)

>  <Rbt.Library>
libRbt.so (2013.1, Build901 2013/11/27)

>  <Rbt.Parameter_File>
/export/apps/rDock/src/rDock_2013.1_src/data/scripts/dock_solv.prm

>  <Rbt.Receptor>
prm/pocket_docking_7.prm

>  <SCORE>
-63.2094

>  <SCORE.INTER>
-63.3094

>  <SCORE.INTER.CONST>
1

>  <SCORE.INTER.POLAR>
0

>  <SCORE.INTER.ROT>
2

>  <SCORE.INTER.SOLV>
10.9123

>  <SCORE.INTER.VDW>
-50.7771

>  <SCORE.INTER.norm>
-2.43498

>  <SCORE.INTRA>
0.100001

>  <SCORE.INTRA.DIHEDRAL>
-0.791489

>  <SCORE.INTRA.DIHEDRAL.0>
4.18538

>  <SCORE.INTRA.POLAR>
0

>  <SCORE.INTRA.POLAR.0>
0

>  <SCORE.INTRA.REPUL>
0

>  <SCORE.INTRA.REPUL.0>
0

>  <SCORE.INTRA.SOLV>
0.014685

>  <SCORE.INTRA.SOLV.lig_0>
-5.16926

>  <SCORE.INTRA.VDW>
0.488403

>  <SCORE.INTRA.VDW.0>
1.11912

>  <SCORE.INTRA.norm>
0.0038462

>  <SCORE.RESTR>
0

>  <SCORE.RESTR.CAVITY>
0

>  <SCORE.RESTR.norm>
0

>  <SCORE.SYSTEM>
0

>  <SCORE.SYSTEM.CONST>
0

>  <SCORE.SYSTEM.DIHEDRAL>
0

>  <SCORE.SYSTEM.SOLV>
0

>  <SCORE.SYSTEM.norm>
0

>  <SCORE.heavy>
26

>  <SCORE.norm>
-2.43113

>  <RMSD>
0.576

$$$$
1f1t Malachite green aptamer (Xray 2.8A)
 OpenBabel11021811393D
libRbt.so/2013.1/901 2013/11/27
 26 29  0  0  0  0  0  0  0  0999 V2000
  111.2439  -74.6390  -81.8053 C   0  0  0  0  0  0  0  0  0  0  0  0
  111.7631  -75.9123  -82.2822 C   0  0  0  0  0  0  0  0  0  0  0  0
  111.5013  -76.1382  -83.6349 C   0  0  0  0  0  0  0  0  0  0  0  0
  112.0542  -77.4515  -84.0699 O   0  0  0  0  0  0  0  0  0  0  0  0
  111.8196  -77.6446  -85.3091 C   0  0  0  0  0  0  0  0  0  0  0  0
  112.3867  -78.9533  -85.6336 C   0  0  0  0  0  0  0  0  0  0  0  0
  112.2216  -79.3391  -87.0111 C   0  0  0  0  0  0  0  0  0  0  0  0
  111.5769  -78.5124  -87.9643 C   0  0  0  0  0  0  0  0  0  0  0  0
  111.0267  -77.2270  -87.5757 C   0  0  0  0  0  0  0  0  0  0  0  0
  111.1679  -76.8265  -86.1973 C   0  0  0  0  0  0  0  0  0  0  0  0
  110.5541  -75.4843  -85.8751 C   0  0  0  0  0  0  0  0  0  0  0  0
  110.8259  -75.2930  -84.5084 C   0  0  0  0  0  0  0  0  0  0  0  0
  110.3048  -74.0192  -84.0075 C   0  0  0  0  0  0  0  0  0  0  0  0
  110.5618  -73.7615  -82.6255 C   0  0  0  0  0  0  0  0  0  0  0  0
  109.9001  -74.7088  -86.8137 C   0  0  0  0  0  0  0  0  0  0  0  0
  110.2269  -73.3737  -87.1470 C   0  0  0  0  0  0  0  0  0  0  0  0
  109.5890  -72.5821  -88.1037 C   0  0  0  0  0  0  0  0  0  0  0  0
  108.4755  -73.1297  -88.8640 C   0  0  0  0  0  0  0  0  0  0  0  0
  108.1667  -74.4621  -88.4991 C   0  0  0  0  0  0  0  0  0  0  0  0
  108.7752  -75.2902  -87.5457 C   0  0  0  0  0  0  0  0  0  0  0  0
  111.4291  -74.2675  -80.4808 N   0  3  0  0  0  0  0  0  0  0  0  0
  112.1460  -75.1096  -79.5298 C   0  0  0  0  0  0  0  0  0  0  0  0
  110.9545  -73.0173  -79.8478 C   0  0  0  0  0  0  0  0  0  0  0  0
  112.7507  -80.6103  -87.2926 N   0  0  0  0  0  0  0  0  0  0  0  0
  113.3430  -81.6445  -86.4152 C   0  0  0  0  0  0  0  0  0  0  0  0
  112.7224  -81.0666  -88.7272 C   0  0  0  0  0  0  0  0  0  0  0  0
  1  2  1  0  0  0  0
  1 14  1  0  0  0  0
  1 21  2  0  0  0  0
  2  3  2  0  0  0  0
  3  4  1  0  0  0  0
  3 12  1  0  0  0  0
  4  5  1  0  0  0  0
  5  6  1  0  0  0  0
  5 10  2  0  0  0  0
  6  7  2  0  0  0  0
  7  8  1  0  0  0  0
  7 24  1  0  0  0  0
  8  9  2  0  0  0  0
  9 10  1  0  0  0  0
 10 11  1  0  0  0  0
 11 12  2  0  0  0  0
 11 15  1  0  0  0  0
 12 13  1  0  0  0  0
 13 14  2  0  0  0  0
 15 16  2  0  0  0  0
 15 20  1  0  0  0  0
 16 17  1  0  0  0  0
 17 18  2  0  0  0  0
 18 19  1  0  0  0  0
 19 20  2  0  0  0  0
 21 22  1  0  0  0  0
 21 23  1  0  0  0  0
 24 25  1  0  0  0  0
 24 26  1  0  0  0  0
M  CHG  1  21   1
M  END
>  <CHROM.1>
5.35136575,-123.61382502,111.09851859,-76.22414879,-85.24436754,-1.81584815
1.05013963,-2.08719502

>  <Name>
1f1t Malachite green aptamer (Xray 2.8A)

>  <RI>
0

>  <Rbt.Current_Directory>
/home/itssahil/PROJECTS/Mol_Feturizer/New_Systems/rnas/1f1t

>  <Rbt.Executable>
rbdock ($Id: //depot/dev/client3/rdock/2013.1/src/exe/rbdock.cxx#4 $)

>  <Rbt.Library>
libRbt.so (2013.1, Build901 2013/11/27)

>  <Rbt.Parameter_File>
/export/apps/rDock/src/rDock_2013.1_src/data/scripts/dock_solv.prm

>  <Rbt.Receptor>
prm/pocket_docking_5.prm

>  <SCORE>
-63.2379

>  <SCORE.INTER>
-63.3413

>  <SCORE.INTER.CONST>
1

>  <SCORE.INTER.POLAR>
0

>  <SCORE.INTER.ROT>
2

>  <SCORE.INTER.SOLV>
10.9219

>  <SCORE.INTER.VDW>
-50.8015

>  <SCORE.INTER.norm>
-2.4362

>  <SCORE.INTRA>
0.103393

>  <SCORE.INTRA.DIHEDRAL>
-0.775867

>  <SCORE.INTRA.DIHEDRAL.0>
4.18538

>  <SCORE.INTRA.POLAR>
0

>  <SCORE.INTRA.POLAR.0>
0

>  <SCORE.INTRA.REPUL>
0

>  <SCORE.INTRA.REPUL.0>
0

>  <SCORE.INTRA.SOLV>
0.0147029

>  <SCORE.INTRA.SOLV.lig_0>
-5.16926

>  <SCORE.INTRA.VDW>
0.483975

>  <SCORE.INTRA.VDW.0>
1.11912

>  <SCORE.INTRA.norm>
0.00397664

>  <SCORE.RESTR>
0

>  <SCORE.RESTR.CAVITY>
0

>  <SCORE.RESTR.norm>
0

>  <SCORE.SYSTEM>
0

>  <SCORE.SYSTEM.CONST>
0

>  <SCORE.SYSTEM.DIHEDRAL>
0

>  <SCORE.SYSTEM.SOLV>
0

>  <SCORE.SYSTEM.norm>
0

>  <SCORE.heavy>
26

>  <SCORE.norm>
-2.43223

>  <RMSD>
0.577

$$$$
1f1t Malachite green aptamer (Xray 2.8A)
 OpenBabel11021811393D
libRbt.so/2013.1/901 2013/11/27
 26 29  0  0  0  0  0  0  0  0999 V2000
  111.2399  -74.6343  -81.8132 C   0  0  0  0  0  0  0  0  0  0  0  0
  111.7613  -75.9063  -82.2913 C   0  0  0  0  0  0  0  0  0  0  0  0
  111.5003  -76.1312  -83.6443 C   0  0  0  0  0  0  0  0  0  0  0  0
  112.0553  -77.4432  -84.0805 O   0  0  0  0  0  0  0  0  0  0  0  0
  111.8215  -77.6354  -85.3199 C   0  0  0  0  0  0  0  0  0  0  0  0
  112.3907  -78.9429  -85.6456 C   0  0  0  0  0  0  0  0  0  0  0  0
  112.2266  -79.3275  -87.0235 C   0  0  0  0  0  0  0  0  0  0  0  0
  111.5811  -78.5008  -87.9761 C   0  0  0  0  0  0  0  0  0  0  0  0
  111.0288  -77.2167  -87.5864 C   0  0  0  0  0  0  0  0  0  0  0  0
  111.1688  -76.8173  -86.2075 C   0  0  0  0  0  0  0  0  0  0  0  0
  110.5529  -75.4764  -85.8841 C   0  0  0  0  0  0  0  0  0  0  0  0
  110.8239  -75.2861  -84.5172 C   0  0  0  0  0  0  0  0  0  0  0  0
  110.3007  -74.0137  -84.0151 C   0  0  0  0  0  0  0  0  0  0  0  0
  110.5568  -73.7569  -82.6328 C   0  0  0  0  0  0  0  0  0  0  0  0
  109.8981  -74.7009  -86.8221 C   0  0  0  0  0  0  0  0  0  0  0  0
  110.2260  -73.3666  -87.1574 C   0  0  0  0  0  0  0  0  0  0  0  0
  109.5873  -72.5751  -88.1137 C   0  0  0  0  0  0  0  0  0  0  0  0
  108.4715  -73.1219  -88.8712 C   0  0  0  0  0  0  0  0  0  0  0  0
  108.1616  -74.4536  -88.5043 C   0  0  0  0  0  0  0  0  0  0  0  0
  108.7709  -75.2815  -87.5514 C   0  0  0  0  0  0  0  0  0  0  0  0
  111.4240  -74.2639  -80.4883 N   0  3  0  0  0  0  0  0  0  0  0  0
  112.1419  -75.1058  -79.5379 C   0  0  0  0  0  0  0  0  0  0  0  0
  110.9474  -73.0150  -79.8541 C   0  0  0  0  0  0  0  0  0  0  0  0
  112.7578  -80.5976  -87.3061 N   0  0  0  0  0  0  0  0  0  0  0  0
  113.3601  -81.6279  -86.4309 C   0  0  0  0  0  0  0  0  0  0  0  0
  112.7202  -81.0573  -88.7394 C   0  0  0  0  0  0  0  0  0  0  0  0
  1  2  1  0  0  0  0
  1 14  1  0  0  0  0
  1 21  2  0  0  0  0
  2  3  2  0  0  0  0
  3  4  1  0  0  0  0
  3 12  1  0  0  0  0
  4  5  1  0  0  0  0
  5  6  1  0  0  0  0
  5 10  2  0  0  0  0
  6  7  2  0  0  0  0
  7  8  1  0  0  0  0
  7 24  1  0  0  0  0
  8  9  2  0  0  0  0
  9 10  1  0  0  0  0
 10 11  1  0  0  0  0
 11 12  2  0  0  0  0
 11 15  1  0  0  0  0
 12 13  1  0  0  0  0
 13 14  2  0  0  0  0
 15 16  2  0  0  0  0
 15 20  1  0  0  0  0
 16 17  1  0  0  0  0
 17 18  2  0  0  0  0
 18 19  1  0  0  0  0
 19 20  2  0  0  0  0
 21 22  1  0  0  0  0
 21 23  1  0  0  0  0
 24 25  1  0  0  0  0
 24 26  1  0  0  0  0
M  CHG  1  21   1
M  END
>  <CHROM.1>
4.84929145,-123.37099273,111.09809658,-76.21612804,-85.25393341,-1.81777047
1.04887769,-2.08452258

>  <Name>
1f1t Malachite green aptamer (Xray 2.8A)

>  <RI>
0

>  <Rbt.Current_Directory>
/home/itssahil/PROJECTS/Mol_Feturizer/New_Systems/rnas/1f1t

>  <Rbt.Executable>
rbdock ($Id: //depot/dev/client3/rdock/2013.1/src/exe/rbdock.cxx#4 $)

>  <Rbt.Library>
libRbt.so (2013.1, Build901 2013/11/27)

>  <Rbt.Parameter_File>
/export/apps/rDock/src/rDock_2013.1_src/data/scripts/dock_solv.prm

>  <Rbt.Receptor>
prm/pocket_docking_6.prm

>  <SCORE>
-63.258

>  <SCORE.INTER>
-63.3523

>  <SCORE.INTER.CONST>
1

>  <SCORE.INTER.POLAR>
0

>  <SCORE.INTER.ROT>
2

>  <SCORE.INTER.SOLV>
10.9574

>  <SCORE.INTER.VDW>
-50.8206

>  <SCORE.INTER.norm>
-2.43663

>  <SCORE.INTRA>
0.0942539

>  <SCORE.INTRA.DIHEDRAL>
-0.776366

>  <SCORE.INTRA.DIHEDRAL.0>
4.18538

>  <SCORE.INTRA.POLAR>
0

>  <SCORE.INTRA.POLAR.0>
0

>  <SCORE.INTRA.REPUL>
0

>  <SCORE.INTRA.REPUL.0>
0

>  <SCORE.INTRA.SOLV>
0.0144195

>  <SCORE.INTRA.SOLV.lig_0>
-5.16926

>  <SCORE.INTRA.VDW>
0.475227

>  <SCORE.INTRA.VDW.0>
1.11912

>  <SCORE.INTRA.norm>
0.00362515

>  <SCORE.RESTR>
0

>  <SCORE.RESTR.CAVITY>
0

>  <SCORE.RESTR.norm>
0

>  <SCORE.SYSTEM>
0

>  <SCORE.SYSTEM.CONST>
0

>  <SCORE.SYSTEM.DIHEDRAL>
0

>  <SCORE.SYSTEM.SOLV>
0

>  <SCORE.SYSTEM.norm>
0

>  <SCORE.heavy>
26

>  <SCORE.norm>
-2.433

>  <RMSD>
0.587

$$$$
1f1t Malachite green aptamer (Xray 2.8A)
 OpenBabel11021811393D
libRbt.so/2013.1/901 2013/11/27
 26 29  0  0  0  0  0  0  0  0999 V2000
  111.2378  -74.6590  -81.8034 C   0  0  0  0  0  0  0  0  0  0  0  0
  111.7507  -75.9326  -82.2862 C   0  0  0  0  0  0  0  0  0  0  0  0
  111.4926  -76.1486  -83.6413 C   0  0  0  0  0  0  0  0  0  0  0  0
  112.0388  -77.4627  -84.0823 O   0  0  0  0  0  0  0  0  0  0  0  0
  111.8077  -77.6467  -85.3235 C   0  0  0  0  0  0  0  0  0  0  0  0
  112.3677  -78.9570  -85.6539 C   0  0  0  0  0  0  0  0  0  0  0  0
  112.2054  -79.3333  -87.0344 C   0  0  0  0  0  0  0  0  0  0  0  0
  111.5697  -78.4966  -87.9848 C   0  0  0  0  0  0  0  0  0  0  0  0
  111.0263  -77.2102  -87.5905 C   0  0  0  0  0  0  0  0  0  0  0  0
  111.1647  -76.8190  -86.2091 C   0  0  0  0  0  0  0  0  0  0  0  0
  110.5583  -75.4749  -85.8810 C   0  0  0  0  0  0  0  0  0  0  0  0
  110.8260  -75.2937  -84.5121 C   0  0  0  0  0  0  0  0  0  0  0  0
  110.3112  -74.0197  -84.0054 C   0  0  0  0  0  0  0  0  0  0  0  0
  110.5645  -73.7721  -82.6209 C   0  0  0  0  0  0  0  0  0  0  0  0
  109.9129  -74.6895  -86.8172 C   0  0  0  0  0  0  0  0  0  0  0  0
  110.2486  -73.3540  -87.1401 C   0  0  0  0  0  0  0  0  0  0  0  0
  109.6195  -72.5524  -88.0944 C   0  0  0  0  0  0  0  0  0  0  0  0
  108.5064  -73.0887  -88.8633 C   0  0  0  0  0  0  0  0  0  0  0  0
  108.1885  -74.4218  -88.5087 C   0  0  0  0  0  0  0  0  0  0  0  0
  108.7880  -75.2596  -87.5582 C   0  0  0  0  0  0  0  0  0  0  0  0
  111.4202  -74.2968  -80.4760 N   0  3  0  0  0  0  0  0  0  0  0  0
  112.1280  -75.1493  -79.5275 C   0  0  0  0  0  0  0  0  0  0  0  0
  110.9512  -73.0475  -79.8371 C   0  0  0  0  0  0  0  0  0  0  0  0
  112.7275  -80.6061  -87.3216 N   0  0  0  0  0  0  0  0  0  0  0  0
  113.3271  -81.6418  -86.4509 C   0  0  0  0  0  0  0  0  0  0  0  0
  112.6809  -81.0627  -88.7556 C   0  0  0  0  0  0  0  0  0  0  0  0
  1  2  1  0  0  0  0
  1 14  1  0  0  0  0
  1 21  2  0  0  0  0
  2  3  2  0  0  0  0
  3  4  1  0  0  0  0
  3 12  1  0  0  0  0
  4  5  1  0  0  0  0
  5  6  1  0  0  0  0
  5 10  2  0  0  0  0
  6  7  2  0  0  0  0
  7  8  1  0  0  0  0
  7 24  1  0  0  0  0
  8  9  2  0  0  0  0
  9 10  1  0  0  0  0
 10 11  1  0  0  0  0
 11 12  2  0  0  0  0
 11 15  1  0  0  0  0
 12 13  1  0  0  0  0
 13 14  2  0  0  0  0
 15 16  2  0  0  0  0
 15 20  1  0  0  0  0
 16 17  1  0  0  0  0
 17 18  2  0  0  0  0
 18 19  1  0  0  0  0
 19 20  2  0  0  0  0
 21 22  1  0  0  0  0
 21 23  1  0  0  0  0
 24 25  1  0  0  0  0
 24 26  1  0  0  0  0
M  CHG  1  21   1
M  END
>  <CHROM.1>
4.35987969,-123.68265361,111.09535288,-76.22213795,-85.25272252,-1.81570211
1.05743507,-2.08125905

>  <Name>
1f1t Malachite green aptamer (Xray 2.8A)

>  <RI>
0

>  <Rbt.Current_Directory>
/home/itssahil/PROJECTS/Mol_Feturizer/New_Systems/rnas/1f1t

>  <Rbt.Executable>
rbdock ($Id: //depot/dev/client3/rdock/2013.1/src/exe/rbdock.cxx#4 $)

>  <Rbt.Library>
libRbt.so (2013.1, Build901 2013/11/27)

>  <Rbt.Parameter_File>
/export/apps/rDock/src/rDock_2013.1_src/data/scripts/dock_solv.prm

>  <Rbt.Receptor>
prm/pocket_docking_4.prm

>  <SCORE>
-63.2205

>  <SCORE.INTER>
-63.3189

>  <SCORE.INTER.CONST>
1

>  <SCORE.INTER.POLAR>
0

>  <SCORE.INTER.ROT>
2

>  <SCORE.INTER.SOLV>
10.9497

>  <SCORE.INTER.VDW>
-50.7958

>  <SCORE.INTER.norm>
-2.43534

>  <SCORE.INTRA>
0.0984621

>  <SCORE.INTRA.DIHEDRAL>
-0.817489

>  <SCORE.INTRA.DIHEDRAL.0>
4.18538

>  <SCORE.INTRA.POLAR>
0

>  <SCORE.INTRA.POLAR.0>
0

>  <SCORE.INTRA.REPUL>
0

>  <SCORE.INTRA.REPUL.0>
0

>  <SCORE.INTRA.SOLV>
0.0147819

>  <SCORE.INTRA.SOLV.lig_0>
-5.16926

>  <SCORE.INTRA.VDW>
0.499815

>  <SCORE.INTRA.VDW.0>
1.11912

>  <SCORE.INTRA.norm>
0.003787

>  <SCORE.RESTR>
0

>  <SCORE.RESTR.CAVITY>
0

>  <SCORE.RESTR.norm>
0

>  <SCORE.SYSTEM>
0

>  <SCORE.SYSTEM.CONST>
0

>  <SCORE.SYSTEM.DIHEDRAL>
0

>  <SCORE.SYSTEM.SOLV>
0

>  <SCORE.SYSTEM.norm>
0

>  <SCORE.heavy>
26

>  <SCORE.norm>
-2.43156

>  <RMSD>
0.590

$$$$
1f1t Malachite green aptamer (Xray 2.8A)
 OpenBabel11021811393D
libRbt.so/2013.1/901 2013/11/27
 26 29  0  0  0  0  0  0  0  0999 V2000
  111.2506  -74.6624  -81.8119 C   0  0  0  0  0  0  0  0  0  0  0  0
  111.7666  -75.9313  -82.3037 C   0  0  0  0  0  0  0  0  0  0  0  0
  111.5010  -76.1424  -83.6581 C   0  0  0  0  0  0  0  0  0  0  0  0
  112.0507  -77.4518  -84.1084 O   0  0  0  0  0  0  0  0  0  0  0  0
  111.8127  -77.6314  -85.3490 C   0  0  0  0  0  0  0  0  0  0  0  0
  112.3769  -78.9374  -85.6889 C   0  0  0  0  0  0  0  0  0  0  0  0
  112.2077  -79.3082  -87.0700 C   0  0  0  0  0  0  0  0  0  0  0  0
  111.5620  -78.4704  -88.0126 C   0  0  0  0  0  0  0  0  0  0  0  0
  111.0148  -77.1884  -87.6090 C   0  0  0  0  0  0  0  0  0  0  0  0
  111.1600  -76.8028  -86.2268 C   0  0  0  0  0  0  0  0  0  0  0  0
  110.5492  -75.4631  -85.8887 C   0  0  0  0  0  0  0  0  0  0  0  0
  110.8248  -75.2869  -84.5208 C   0  0  0  0  0  0  0  0  0  0  0  0
  110.3070  -74.0177  -84.0050 C   0  0  0  0  0  0  0  0  0  0  0  0
  110.5679  -73.7751  -82.6210 C   0  0  0  0  0  0  0  0  0  0  0  0
  109.8941  -74.6767  -86.8173 C   0  0  0  0  0  0  0  0  0  0  0  0
  110.2337  -73.3447  -87.1505 C   0  0  0  0  0  0  0  0  0  0  0  0
  109.5947  -72.5423  -88.0974 C   0  0  0  0  0  0  0  0  0  0  0  0
  108.4657  -73.0736  -88.8463 C   0  0  0  0  0  0  0  0  0  0  0  0
  108.1445  -74.4032  -88.4817 C   0  0  0  0  0  0  0  0  0  0  0  0
  108.7536  -75.2417  -87.5379 C   0  0  0  0  0  0  0  0  0  0  0  0
  111.4397  -74.3053  -80.4841 N   0  3  0  0  0  0  0  0  0  0  0  0
  112.1576  -75.1586  -79.5439 C   0  0  0  0  0  0  0  0  0  0  0  0
  110.9687  -73.0612  -79.8365 C   0  0  0  0  0  0  0  0  0  0  0  0
  112.7341  -80.5772  -87.3663 N   0  0  0  0  0  0  0  0  0  0  0  0
  113.3306  -81.6200  -86.5020 C   0  0  0  0  0  0  0  0  0  0  0  0
  112.6971  -81.0201  -88.8049 C   0  0  0  0  0  0  0  0  0  0  0  0
  1  2  1  0  0  0  0
  1 14  1  0  0  0  0
  1 21  2  0  0  0  0
  2  3  2  0  0  0  0
  3  4  1  0  0  0  0
  3 12  1  0  0  0  0
  4  5  1  0  0  0  0
  5  6  1  0  0  0  0
  5 10  2  0  0  0  0
  6  7  2  0  0  0  0
  7  8  1  0  0  0  0
  7 24  1  0  0  0  0
  8  9  2  0  0  0  0
  9 10  1  0  0  0  0
 10 11  1  0  0  0  0
 11 12  2  0  0  0  0
 11 15  1  0  0  0  0
 12 13  1  0  0  0  0
 13 14  2  0  0  0  0
 15 16  2  0  0  0  0
 15 20  1  0  0  0  0
 16 17  1  0  0  0  0
 17 18  2  0  0  0  0
 18 19  1  0  0  0  0
 19 20  2  0  0  0  0
 21 22  1  0  0  0  0
 21 23  1  0  0  0  0
 24 25  1  0  0  0  0
 24 26  1  0  0  0  0
M  CHG  1  21   1
M  END
>  <CHROM.1>
5.14270109,-122.68959930,111.09387663,-76.21055274,-85.26719119,-1.80994100
1.05011277,-2.08163181

>  <Name>
1f1t Malachite green aptamer (Xray 2.8A)

>  <RI>
0

>  <Rbt.Current_Directory>
/home/itssahil/PROJECTS/Mol_Feturizer/New_Systems/rnas/1f1t

>  <Rbt.Executable>
rbdock ($Id: //depot/dev/client3/rdock/2013.1/src/exe/rbdock.cxx#4 $)

>  <Rbt.Library>
libRbt.so (2013.1, Build901 2013/11/27)

>  <Rbt.Parameter_File>
/export/apps/rDock/src/rDock_2013.1_src/data/scripts/dock_solv.prm

>  <Rbt.Receptor>
prm/pocket_docking_3.prm

>  <SCORE>
-63.2682

>  <SCORE.INTER>
-63.3498

>  <SCORE.INTER.CONST>
1

>  <SCORE.INTER.POLAR>
0

>  <SCORE.INTER.ROT>
2

>  <SCORE.INTER.SOLV>
10.9711

>  <SCORE.INTER.VDW>
-50.8236

>  <SCORE.INTER.norm>
-2.43653

>  <SCORE.INTRA>
0.0815936

>  <SCORE.INTRA.DIHEDRAL>
-0.712874

>  <SCORE.INTRA.DIHEDRAL.0>
4.18538

>  <SCORE.INTRA.POLAR>
0

>  <SCORE.INTRA.POLAR.0>
0

>  <SCORE.INTRA.REPUL>
0

>  <SCORE.INTRA.REPUL.0>
0

>  <SCORE.INTRA.SOLV>
0.0136242

>  <SCORE.INTRA.SOLV.lig_0>
-5.16926

>  <SCORE.INTRA.VDW>
0.431219

>  <SCORE.INTRA.VDW.0>
1.11912

>  <SCORE.INTRA.norm>
0.00313822

>  <SCORE.RESTR>
0

>  <SCORE.RESTR.CAVITY>
0

>  <SCORE.RESTR.norm>
0

>  <SCORE.SYSTEM>
0

>  <SCORE.SYSTEM.CONST>
0

>  <SCORE.SYSTEM.DIHEDRAL>
0

>  <SCORE.SYSTEM.SOLV>
0

>  <SCORE.SYSTEM.norm>
0

>  <SCORE.heavy>
26

>  <SCORE.norm>
-2.43339

>  <RMSD>
0.598

$$$$
1f1t Malachite green aptamer (Xray 2.8A)
 OpenBabel11021811393D
libRbt.so/2013.1/901 2013/11/27
 26 29  0  0  0  0  0  0  0  0999 V2000
  111.2430  -74.6527  -81.8047 C   0  0  0  0  0  0  0  0  0  0  0  0
  111.7534  -75.9243  -82.2953 C   0  0  0  0  0  0  0  0  0  0  0  0
  111.4868  -76.1355  -83.6495 C   0  0  0  0  0  0  0  0  0  0  0  0
  112.0307  -77.4478  -84.0986 O   0  0  0  0  0  0  0  0  0  0  0  0
  111.7919  -77.6275  -85.3390 C   0  0  0  0  0  0  0  0  0  0  0  0
  112.3504  -78.9363  -85.6777 C   0  0  0  0  0  0  0  0  0  0  0  0
  112.1794  -79.3077  -87.0584 C   0  0  0  0  0  0  0  0  0  0  0  0
  111.5373  -78.4679  -88.0018 C   0  0  0  0  0  0  0  0  0  0  0  0
  110.9958  -77.1832  -87.5994 C   0  0  0  0  0  0  0  0  0  0  0  0
  111.1428  -76.7969  -86.2175 C   0  0  0  0  0  0  0  0  0  0  0  0
  110.5379  -75.4543  -85.8807 C   0  0  0  0  0  0  0  0  0  0  0  0
  110.8142  -75.2779  -84.5130 C   0  0  0  0  0  0  0  0  0  0  0  0
  110.3020  -74.0060  -83.9984 C   0  0  0  0  0  0  0  0  0  0  0  0
  110.5641  -73.7632  -82.6146 C   0  0  0  0  0  0  0  0  0  0  0  0
  109.8862  -74.6658  -86.8100 C   0  0  0  0  0  0  0  0  0  0  0  0
  110.2319  -73.3359  -87.1449 C   0  0  0  0  0  0  0  0  0  0  0  0
  109.5963  -72.5316  -88.0926 C   0  0  0  0  0  0  0  0  0  0  0  0
  108.4646  -73.0585  -88.8404 C   0  0  0  0  0  0  0  0  0  0  0  0
  108.1372  -74.3861  -88.4741 C   0  0  0  0  0  0  0  0  0  0  0  0
  108.7427  -75.2264  -87.5296 C   0  0  0  0  0  0  0  0  0  0  0  0
  111.4337  -74.2952  -80.4772 N   0  3  0  0  0  0  0  0  0  0  0  0
  112.1479  -75.1507  -79.5363 C   0  0  0  0  0  0  0  0  0  0  0  0
  110.9682  -73.0484  -79.8308 C   0  0  0  0  0  0  0  0  0  0  0  0
  112.7002  -80.5793  -87.3536 N   0  0  0  0  0  0  0  0  0  0  0  0
  113.2951  -81.6226  -86.4887 C   0  0  0  0  0  0  0  0  0  0  0  0
  112.6577  -81.0249  -88.7911 C   0  0  0  0  0  0  0  0  0  0  0  0
  1  2  1  0  0  0  0
  1 14  1  0  0  0  0
  1 21  2  0  0  0  0
  2  3  2  0  0  0  0
  3  4  1  0  0  0  0
  3 12  1  0  0  0  0
  4  5  1  0  0  0  0
  5  6  1  0  0  0  0
  5 10  2  0  0  0  0
  6  7  2  0  0  0  0
  7  8  1  0  0  0  0
  7 24  1  0  0  0  0
  8  9  2  0  0  0  0
  9 10  1  0  0  0  0
 10 11  1  0  0  0  0
 11 12  2  0  0  0  0
 11 15  1  0  0  0  0
 12 13  1  0  0  0  0
 13 14  2  0  0  0  0
 15 16  2  0  0  0  0
 15 20  1  0  0  0  0
 16 17  1  0  0  0  0
 17 18  2  0  0  0  0
 18 19  1  0  0  0  0
 19 20  2  0  0  0  0
 21 22  1  0  0  0  0
 21 23  1  0  0  0  0
 24 25  1  0  0  0  0
 24 26  1  0  0  0  0
M  CHG  1  21   1
M  END
>  <CHROM.1>
4.97814660,-122.66031161,111.07924293,-76.20347274,-85.25850430,-1.80542948
1.05386327,-2.08651748

>  <Name>
1f1t Malachite green aptamer (Xray 2.8A)

>  <RI>
0

>  <Rbt.Current_Directory>
/home/itssahil/PROJECTS/Mol_Feturizer/New_Systems/rnas/1f1t

>  <Rbt.Executable>
rbdock ($Id: //depot/dev/client3/rdock/2013.1/src/exe/rbdock.cxx#4 $)

>  <Rbt.Library>
libRbt.so (2013.1, Build901 2013/11/27)

>  <Rbt.Parameter_File>
/export/apps/rDock/src/rDock_2013.1_src/data/scripts/dock_solv.prm

>  <Rbt.Receptor>
prm/pocket_docking_2.prm

>  <SCORE>
-63.2947

>  <SCORE.INTER>
-63.3746

>  <SCORE.INTER.CONST>
1

>  <SCORE.INTER.POLAR>
0

>  <SCORE.INTER.ROT>
2

>  <SCORE.INTER.SOLV>
10.9677

>  <SCORE.INTER.VDW>
-50.839

>  <SCORE.INTER.norm>
-2.43748

>  <SCORE.INTRA>
0.0798631

>  <SCORE.INTRA.DIHEDRAL>
-0.716913

>  <SCORE.INTRA.DIHEDRAL.0>
4.18538

>  <SCORE.INTRA.POLAR>
0

>  <SCORE.INTRA.POLAR.0>
0

>  <SCORE.INTRA.REPUL>
0

>  <SCORE.INTRA.REPUL.0>
0

>  <SCORE.INTRA.SOLV>
0.0135897

>  <SCORE.INTRA.SOLV.lig_0>
-5.16926

>  <SCORE.INTRA.VDW>
0.431525

>  <SCORE.INTRA.VDW.0>
1.11912

>  <SCORE.INTRA.norm>
0.00307166

>  <SCORE.RESTR>
0

>  <SCORE.RESTR.CAVITY>
0

>  <SCORE.RESTR.norm>
0

>  <SCORE.SYSTEM>
0

>  <SCORE.SYSTEM.CONST>
0

>  <SCORE.SYSTEM.DIHEDRAL>
0

>  <SCORE.SYSTEM.SOLV>
0

>  <SCORE.SYSTEM.norm>
0

>  <SCORE.heavy>
26

>  <SCORE.norm>
-2.43441

>  <RMSD>
0.601

$$$$
1f1t Malachite green aptamer (Xray 2.8A)
 OpenBabel11021811393D
libRbt.so/2013.1/901 2013/11/27
 26 29  0  0  0  0  0  0  0  0999 V2000
  111.2387  -74.6512  -81.8113 C   0  0  0  0  0  0  0  0  0  0  0  0
  111.7544  -75.9212  -82.3007 C   0  0  0  0  0  0  0  0  0  0  0  0
  111.4904  -76.1339  -83.6551 C   0  0  0  0  0  0  0  0  0  0  0  0
  112.0398  -77.4443  -84.1030 O   0  0  0  0  0  0  0  0  0  0  0  0
  111.8032  -77.6254  -85.3437 C   0  0  0  0  0  0  0  0  0  0  0  0
  112.3670  -78.9323  -85.6810 C   0  0  0  0  0  0  0  0  0  0  0  0
  112.1992  -79.3048  -87.0619 C   0  0  0  0  0  0  0  0  0  0  0  0
  111.5552  -78.4679  -88.0064 C   0  0  0  0  0  0  0  0  0  0  0  0
  111.0084  -77.1850  -87.6052 C   0  0  0  0  0  0  0  0  0  0  0  0
  111.1522  -76.7976  -86.2234 C   0  0  0  0  0  0  0  0  0  0  0  0
  110.5418  -75.4571  -85.8879 C   0  0  0  0  0  0  0  0  0  0  0  0
  110.8158  -75.2791  -84.5198 C   0  0  0  0  0  0  0  0  0  0  0  0
  110.2982  -74.0089  -84.0064 C   0  0  0  0  0  0  0  0  0  0  0  0
  110.5575  -73.7646  -82.6224 C   0  0  0  0  0  0  0  0  0  0  0  0
  109.8884  -74.6714  -86.8183 C   0  0  0  0  0  0  0  0  0  0  0  0
  110.2371  -73.3446  -87.1622 C   0  0  0  0  0  0  0  0  0  0  0  0
  109.5997  -72.5432  -88.1111 C   0  0  0  0  0  0  0  0  0  0  0  0
  108.4626  -73.0702  -88.8506 C   0  0  0  0  0  0  0  0  0  0  0  0
  108.1324  -74.3947  -88.4755 C   0  0  0  0  0  0  0  0  0  0  0  0
  108.7395  -75.2319  -87.5293 C   0  0  0  0  0  0  0  0  0  0  0  0
  111.4264  -74.2924  -80.4837 N   0  3  0  0  0  0  0  0  0  0  0  0
  112.1426  -75.1449  -79.5415 C   0  0  0  0  0  0  0  0  0  0  0  0
  110.9554  -73.0471  -79.8384 C   0  0  0  0  0  0  0  0  0  0  0  0
  112.7251  -80.5746  -87.3558 N   0  0  0  0  0  0  0  0  0  0  0  0
  113.3211  -81.6161  -86.4895 C   0  0  0  0  0  0  0  0  0  0  0  0
  112.6882  -81.0200  -88.7936 C   0  0  0  0  0  0  0  0  0  0  0  0
  1  2  1  0  0  0  0
  1 14  1  0  0  0  0
  1 21  2  0  0  0  0
  2  3  2  0  0  0  0
  3  4  1  0  0  0  0
  3 12  1  0  0  0  0
  4  5  1  0  0  0  0
  5  6  1  0  0  0  0
  5 10  2  0  0  0  0
  6  7  2  0  0  0  0
  7  8  1  0  0  0  0
  7 24  1  0  0  0  0
  8  9  2  0  0  0  0
  9 10  1  0  0  0  0
 10 11  1  0  0  0  0
 11 12  2  0  0  0  0
 11 15  1  0  0  0  0
 12 13  1  0  0  0  0
 13 14  2  0  0  0  0
 15 16  2  0  0  0  0
 15 20  1  0  0  0  0
 16 17  1  0  0  0  0
 17 18  2  0  0  0  0
 18 19  1  0  0  0  0
 19 20  2  0  0  0  0
 21 22  1  0  0  0  0
 21 23  1  0  0  0  0
 24 25  1  0  0  0  0
 24 26  1  0  0  0  0
M  CHG  1  21   1
M  END
>  <CHROM.1>
5.07647319,-122.04719455,111.08509952,-76.20398216,-85.26458364,-1.81156197
1.05118111,-2.08155694

>  <Name>
1f1t Malachite green aptamer (Xray 2.8A)

>  <RI>
0

>  <Rbt.Current_Directory>
/home/itssahil/PROJECTS/Mol_Feturizer/New_Systems/rnas/1f1t

>  <Rbt.Executable>
rbdock ($Id: //depot/dev/client3/rdock/2013.1/src/exe/rbdock.cxx#4 $)

>  <Rbt.Library>
libRbt.so (2013.1, Build901 2013/11/27)

>  <Rbt.Parameter_File>
/export/apps/rDock/src/rDock_2013.1_src/data/scripts/dock_solv.prm

>  <Rbt.Receptor>
prm/pocket_docking_5.prm

>  <SCORE>
-63.3408

>  <SCORE.INTER>
-63.4096

>  <SCORE.INTER.CONST>
1

>  <SCORE.INTER.POLAR>
0

>  <SCORE.INTER.ROT>
2

>  <SCORE.INTER.SOLV>
10.9784

>  <SCORE.INTER.VDW>
-50.8659

>  <SCORE.INTER.norm>
-2.43883

>  <SCORE.INTRA>
0.0688134

>  <SCORE.INTRA.DIHEDRAL>
-0.666492

>  <SCORE.INTRA.DIHEDRAL.0>
4.18538

>  <SCORE.INTRA.POLAR>
0

>  <SCORE.INTRA.POLAR.0>
0

>  <SCORE.INTRA.REPUL>
0

>  <SCORE.INTRA.REPUL.0>
0

>  <SCORE.INTRA.SOLV>
0.0128713

>  <SCORE.INTRA.SOLV.lig_0>
-5.16926

>  <SCORE.INTRA.VDW>
0.395624

>  <SCORE.INTRA.VDW.0>
1.11912

>  <SCORE.INTRA.norm>
0.00264667

>  <SCORE.RESTR>
0

>  <SCORE.RESTR.CAVITY>
0

>  <SCORE.RESTR.norm>
0

>  <SCORE.SYSTEM>
0

>  <SCORE.SYSTEM.CONST>
0

>  <SCORE.SYSTEM.DIHEDRAL>
0

>  <SCORE.SYSTEM.SOLV>
0

>  <SCORE.SYSTEM.norm>
0

>  <SCORE.heavy>
26

>  <SCORE.norm>
-2.43619

>  <RMSD>
0.601

$$$$
1f1t Malachite green aptamer (Xray 2.8A)
 OpenBabel11021811393D
libRbt.so/2013.1/901 2013/11/27
 26 29  0  0  0  0  0  0  0  0999 V2000
  111.2404  -74.6111  -81.8417 C   0  0  0  0  0  0  0  0  0  0  0  0
  111.7709  -75.8836  -82.3084 C   0  0  0  0  0  0  0  0  0  0  0  0
  111.5060  -76.1253  -83.6578 C   0  0  0  0  0  0  0  0  0  0  0  0
  112.0707  -77.4370  -84.0823 O   0  0  0  0  0  0  0  0  0  0  0  0
  111.8331  -77.6446  -85.3186 C   0  0  0  0  0  0  0  0  0  0  0  0
  112.4125  -78.9505  -85.6327 C   0  0  0  0  0  0  0  0  0  0  0  0
  112.2458  -79.3514  -87.0057 C   0  0  0  0  0  0  0  0  0  0  0  0
  111.5888  -78.5407  -87.9641 C   0  0  0  0  0  0  0  0  0  0  0  0
  111.0269  -77.2574  -87.5858 C   0  0  0  0  0  0  0  0  0  0  0  0
  111.1694  -76.8420  -86.2120 C   0  0  0  0  0  0  0  0  0  0  0  0
  110.5430  -75.5031  -85.9002 C   0  0  0  0  0  0  0  0  0  0  0  0
  110.8183  -75.2957  -84.5366 C   0  0  0  0  0  0  0  0  0  0  0  0
  110.2860  -74.0226  -84.0460 C   0  0  0  0  0  0  0  0  0  0  0  0
  110.5459  -73.7487  -82.6676 C   0  0  0  0  0  0  0  0  0  0  0  0
  109.8772  -74.7436  -86.8436 C   0  0  0  0  0  0  0  0  0  0  0  0
  108.8215  -75.1987  -87.6674 C   0  0  0  0  0  0  0  0  0  0  0  0
  108.1267  -74.4414  -88.6123 C   0  0  0  0  0  0  0  0  0  0  0  0
  108.4766  -73.0430  -88.8116 C   0  0  0  0  0  0  0  0  0  0  0  0
  109.5430  -72.6222  -87.9811 C   0  0  0  0  0  0  0  0  0  0  0  0
  110.2692  -73.3463  -87.0255 C   0  0  0  0  0  0  0  0  0  0  0  0
  111.4270  -74.2248  -80.5217 N   0  3  0  0  0  0  0  0  0  0  0  0
  112.1564  -75.0501  -79.5656 C   0  0  0  0  0  0  0  0  0  0  0  0
  110.9420  -72.9735  -79.8989 C   0  0  0  0  0  0  0  0  0  0  0  0
  112.7870  -80.6197  -87.2770 N   0  0  0  0  0  0  0  0  0  0  0  0
  112.9867  -81.3517  -88.5477 C   0  0  0  0  0  0  0  0  0  0  0  0
  113.2876  -81.4208  -86.1045 C   0  0  0  0  0  0  0  0  0  0  0  0
  1  2  1  0  0  0  0
  1 14  1  0  0  0  0
  1 21  2  0  0  0  0
  2  3  2  0  0  0  0
  3  4  1  0  0  0  0
  3 12  1  0  0  0  0
  4  5  1  0  0  0  0
  5  6  1  0  0  0  0
  5 10  2  0  0  0  0
  6  7  2  0  0  0  0
  7  8  1  0  0  0  0
  7 24  1  0  0  0  0
  8  9  2  0  0  0  0
  9 10  1  0  0  0  0
 10 11  1  0  0  0  0
 11 12  2  0  0  0  0
 11 15  1  0  0  0  0
 12 13  1  0  0  0  0
 13 14  2  0  0  0  0
 15 16  2  0  0  0  0
 15 20  1  0  0  0  0
 16 17  1  0  0  0  0
 17 18  2  0  0  0  0
 18 19  1  0  0  0  0
 19 20  2  0  0  0  0
 21 22  1  0  0  0  0
 21 23  1  0  0  0  0
 24 25  1  0  0  0  0
 24 26  1  0  0  0  0
M  CHG  1  21   1
M  END
>  <CHROM.1>
-171.81847318,52.78065083,111.11023321,-76.21541662,-85.23600586,-1.85159170
1.04460973,-2.09181117

>  <Name>
1f1t Malachite green aptamer (Xray 2.8A)

>  <RI>
0

>  <Rbt.Current_Directory>
/home/itssahil/PROJECTS/Mol_Feturizer/New_Systems/rnas/1f1t

>  <Rbt.Executable>
rbdock ($Id: //depot/dev/client3/rdock/2013.1/src/exe/rbdock.cxx#4 $)

>  <Rbt.Library>
libRbt.so (2013.1, Build901 2013/11/27)

>  <Rbt.Parameter_File>
/export/apps/rDock/src/rDock_2013.1_src/data/scripts/dock_solv.prm

>  <Rbt.Receptor>
prm/pocket_docking_6.prm

>  <SCORE>
-59.1746

>  <SCORE.INTER>
-62.5488

>  <SCORE.INTER.CONST>
1

>  <SCORE.INTER.POLAR>
0

>  <SCORE.INTER.ROT>
2

>  <SCORE.INTER.SOLV>
11.0176

>  <SCORE.INTER.VDW>
-50.3051

>  <SCORE.INTER.norm>
-2.40572

>  <SCORE.INTRA>
3.37426

>  <SCORE.INTRA.DIHEDRAL>
-0.917295

>  <SCORE.INTRA.DIHEDRAL.0>
4.18538

>  <SCORE.INTRA.POLAR>
0

>  <SCORE.INTRA.POLAR.0>
0

>  <SCORE.INTRA.REPUL>
0

>  <SCORE.INTRA.REPUL.0>
0

>  <SCORE.INTRA.SOLV>
0.0168306

>  <SCORE.INTRA.SOLV.lig_0>
-5.16926

>  <SCORE.INTRA.VDW>
3.82449

>  <SCORE.INTRA.VDW.0>
1.11912

>  <SCORE.INTRA.norm>
0.129779

>  <SCORE.RESTR>
0

>  <SCORE.RESTR.CAVITY>
0

>  <SCORE.RESTR.norm>
0

>  <SCORE.SYSTEM>
0

>  <SCORE.SYSTEM.CONST>
0

>  <SCORE.SYSTEM.DIHEDRAL>
0

>  <SCORE.SYSTEM.SOLV>
0

>  <SCORE.SYSTEM.norm>
0

>  <SCORE.heavy>
26

>  <SCORE.norm>
-2.27595

>  <RMSD>
0.603

$$$$
1f1t Malachite green aptamer (Xray 2.8A)
 OpenBabel11021811393D
libRbt.so/2013.1/901 2013/11/27
 26 29  0  0  0  0  0  0  0  0999 V2000
  111.2279  -74.6405  -81.8122 C   0  0  0  0  0  0  0  0  0  0  0  0
  111.7423  -75.9126  -82.2974 C   0  0  0  0  0  0  0  0  0  0  0  0
  111.4810  -76.1282  -83.6518 C   0  0  0  0  0  0  0  0  0  0  0  0
  112.0289  -77.4407  -84.0953 O   0  0  0  0  0  0  0  0  0  0  0  0
  111.7947  -77.6244  -85.3360 C   0  0  0  0  0  0  0  0  0  0  0  0
  112.3568  -78.9332  -85.6689 C   0  0  0  0  0  0  0  0  0  0  0  0
  112.1914  -79.3089  -87.0491 C   0  0  0  0  0  0  0  0  0  0  0  0
  111.5511  -78.4730  -87.9972 C   0  0  0  0  0  0  0  0  0  0  0  0
  111.0058  -77.1881  -87.6004 C   0  0  0  0  0  0  0  0  0  0  0  0
  111.1472  -76.7976  -86.2192 C   0  0  0  0  0  0  0  0  0  0  0  0
  110.5386  -75.4551  -85.8884 C   0  0  0  0  0  0  0  0  0  0  0  0
  110.8099  -75.2743  -84.5202 C   0  0  0  0  0  0  0  0  0  0  0  0
  110.2935  -74.0018  -84.0111 C   0  0  0  0  0  0  0  0  0  0  0  0
  110.5502  -73.7546  -82.6271 C   0  0  0  0  0  0  0  0  0  0  0  0
  109.8888  -74.6705  -86.8223 C   0  0  0  0  0  0  0  0  0  0  0  0
  110.2413  -73.3455  -87.1693 C   0  0  0  0  0  0  0  0  0  0  0  0
  109.6077  -72.5453  -88.1216 C   0  0  0  0  0  0  0  0  0  0  0  0
  108.4705  -73.0717  -88.8616 C   0  0  0  0  0  0  0  0  0  0  0  0
  108.1364  -74.3943  -88.4833 C   0  0  0  0  0  0  0  0  0  0  0  0
  108.7398  -75.2302  -87.5336 C   0  0  0  0  0  0  0  0  0  0  0  0
  111.4133  -74.2788  -80.4851 N   0  3  0  0  0  0  0  0  0  0  0  0
  112.1257  -75.1303  -79.5392 C   0  0  0  0  0  0  0  0  0  0  0  0
  110.9432  -73.0310  -79.8440 C   0  0  0  0  0  0  0  0  0  0  0  0
  112.7156  -80.5803  -87.3388 N   0  0  0  0  0  0  0  0  0  0  0  0
  113.3279  -81.6117  -86.4718 C   0  0  0  0  0  0  0  0  0  0  0  0
  112.6567  -81.0403  -88.7713 C   0  0  0  0  0  0  0  0  0  0  0  0
  1  2  1  0  0  0  0
  1 14  1  0  0  0  0
  1 21  2  0  0  0  0
  2  3  2  0  0  0  0
  3  4  1  0  0  0  0
  3 12  1  0  0  0  0
  4  5  1  0  0  0  0
  5  6  1  0  0  0  0
  5 10  2  0  0  0  0
  6  7  2  0  0  0  0
  7  8  1  0  0  0  0
  7 24  1  0  0  0  0
  8  9  2  0  0  0  0
  9 10  1  0  0  0  0
 10 11  1  0  0  0  0
 11 12  2  0  0  0  0
 11 15  1  0  0  0  0
 12 13  1  0  0  0  0
 13 14  2  0  0  0  0
 15 16  2  0  0  0  0
 15 20  1  0  0  0  0
 16 17  1  0  0  0  0
 17 18  2  0  0  0  0
 18 19  1  0  0  0  0
 19 20  2  0  0  0  0
 21 22  1  0  0  0  0
 21 23  1  0  0  0  0
 24 25  1  0  0  0  0
 24 26  1  0  0  0  0
M  CHG  1  21   1
M  END
>  <CHROM.1>
3.91596650,-121.99920316,111.07893092,-76.20156865,-85.26198222,-1.81305304
1.05370248,-2.08282530

>  <Name>
1f1t Malachite green aptamer (Xray 2.8A)

>  <RI>
0

>  <Rbt.Current_Directory>
/home/itssahil/PROJECTS/Mol_Feturizer/New_Systems/rnas/1f1t

>  <Rbt.Executable>
rbdock ($Id: //depot/dev/client3/rdock/2013.1/src/exe/rbdock.cxx#4 $)

>  <Rbt.Library>
libRbt.so (2013.1, Build901 2013/11/27)

>  <Rbt.Parameter_File>
/export/apps/rDock/src/rDock_2013.1_src/data/scripts/dock_solv.prm

>  <Rbt.Receptor>
prm/pocket_docking_3.prm

>  <SCORE>
-63.291

>  <SCORE.INTER>
-63.3518

>  <SCORE.INTER.CONST>
1

>  <SCORE.INTER.POLAR>
0

>  <SCORE.INTER.ROT>
2

>  <SCORE.INTER.SOLV>
10.9962

>  <SCORE.INTER.VDW>
-50.8333

>  <SCORE.INTER.norm>
-2.43661

>  <SCORE.INTRA>
0.0608466

>  <SCORE.INTRA.DIHEDRAL>
-0.702106

>  <SCORE.INTRA.DIHEDRAL.0>
4.18538

>  <SCORE.INTRA.POLAR>
0

>  <SCORE.INTRA.POLAR.0>
0

>  <SCORE.INTRA.REPUL>
0

>  <SCORE.INTRA.REPUL.0>
0

>  <SCORE.INTRA.SOLV>
0.0128141

>  <SCORE.INTRA.SOLV.lig_0>
-5.16926

>  <SCORE.INTRA.VDW>
0.405493

>  <SCORE.INTRA.VDW.0>
1.11912

>  <SCORE.INTRA.norm>
0.00234026

>  <SCORE.RESTR>
0

>  <SCORE.RESTR.CAVITY>
0

>  <SCORE.RESTR.norm>
0

>  <SCORE.SYSTEM>
0

>  <SCORE.SYSTEM.CONST>
0

>  <SCORE.SYSTEM.DIHEDRAL>
0

>  <SCORE.SYSTEM.SOLV>
0

>  <SCORE.SYSTEM.norm>
0

>  <SCORE.heavy>
26

>  <SCORE.norm>
-2.43427

>  <RMSD>
0.604

$$$$
1f1t Malachite green aptamer (Xray 2.8A)
 OpenBabel11021811393D
libRbt.so/2013.1/901 2013/11/27
 26 29  0  0  0  0  0  0  0  0999 V2000
  111.2447  -74.6342  -81.8169 C   0  0  0  0  0  0  0  0  0  0  0  0
  111.7585  -75.9063  -82.3031 C   0  0  0  0  0  0  0  0  0  0  0  0
  111.4927  -76.1228  -83.6566 C   0  0  0  0  0  0  0  0  0  0  0  0
  112.0401  -77.4351  -84.1012 O   0  0  0  0  0  0  0  0  0  0  0  0
  111.8018  -77.6197  -85.3410 C   0  0  0  0  0  0  0  0  0  0  0  0
  112.3638  -78.9283  -85.6751 C   0  0  0  0  0  0  0  0  0  0  0  0
  112.1940  -79.3048  -87.0545 C   0  0  0  0  0  0  0  0  0  0  0  0
  111.5498  -78.4699  -88.0009 C   0  0  0  0  0  0  0  0  0  0  0  0
  111.0049  -77.1852  -87.6029 C   0  0  0  0  0  0  0  0  0  0  0  0
  111.1507  -76.7938  -86.2224 C   0  0  0  0  0  0  0  0  0  0  0  0
  110.5422  -75.4516  -85.8903 C   0  0  0  0  0  0  0  0  0  0  0  0
  110.8180  -75.2699  -84.5231 C   0  0  0  0  0  0  0  0  0  0  0  0
  110.3024  -73.9975  -84.0129 C   0  0  0  0  0  0  0  0  0  0  0  0
  110.5636  -73.7493  -82.6300 C   0  0  0  0  0  0  0  0  0  0  0  0
  109.8886  -74.6681  -86.8223 C   0  0  0  0  0  0  0  0  0  0  0  0
  110.2362  -73.3414  -87.1681 C   0  0  0  0  0  0  0  0  0  0  0  0
  109.5987  -72.5422  -88.1187 C   0  0  0  0  0  0  0  0  0  0  0  0
  108.4625  -73.0714  -88.8580 C   0  0  0  0  0  0  0  0  0  0  0  0
  108.1333  -74.3956  -88.4809 C   0  0  0  0  0  0  0  0  0  0  0  0
  108.7407  -75.2307  -87.5331 C   0  0  0  0  0  0  0  0  0  0  0  0
  111.4343  -74.2717  -80.4906 N   0  3  0  0  0  0  0  0  0  0  0  0
  112.1507  -75.1221  -79.5467 C   0  0  0  0  0  0  0  0  0  0  0  0
  110.9655  -73.0239  -79.8486 C   0  0  0  0  0  0  0  0  0  0  0  0
  112.7181  -80.5760  -87.3453 N   0  0  0  0  0  0  0  0  0  0  0  0
  113.3204  -81.6126  -86.4775 C   0  0  0  0  0  0  0  0  0  0  0  0
  112.6713  -81.0293  -88.7803 C   0  0  0  0  0  0  0  0  0  0  0  0
  1  2  1  0  0  0  0
  1 14  1  0  0  0  0
  1 21  2  0  0  0  0
  2  3  2  0  0  0  0
  3  4  1  0  0  0  0
  3 12  1  0  0  0  0
  4  5  1  0  0  0  0
  5  6  1  0  0  0  0
  5 10  2  0  0  0  0
  6  7  2  0  0  0  0
  7  8  1  0  0  0  0
  7 24  1  0  0  0  0
  8  9  2  0  0  0  0
  9 10  1  0  0  0  0
 10 11  1  0  0  0  0
 11 12  2  0  0  0  0
 11 15  1  0  0  0  0
 12 13  1  0  0  0  0
 13 14  2  0  0  0  0
 15 16  2  0  0  0  0
 15 20  1  0  0  0  0
 16 17  1  0  0  0  0
 17 18  2  0  0  0  0
 18 19  1  0  0  0  0
 19 20  2  0  0  0  0
 21 22  1  0  0  0  0
 21 23  1  0  0  0  0
 24 25  1  0  0  0  0
 24 26  1  0  0  0  0
M  CHG  1  21   1
M  END
>  <CHROM.1>
4.70566186,-122.22099298,111.08536560,-76.19730639,-85.26535317,-1.80819087
1.05154182,-2.08754069

>  <Name>
1f1t Malachite green aptamer (Xray 2.8A)

>  <RI>
0

>  <Rbt.Current_Directory>
/home/itssahil/PROJECTS/Mol_Feturizer/New_Systems/rnas/1f1t

>  <Rbt.Executable>
rbdock ($Id: //depot/dev/client3/rdock/2013.1/src/exe/rbdock.cxx#4 $)

>  <Rbt.Library>
libRbt.so (2013.1, Build901 2013/11/27)

>  <Rbt.Parameter_File>
/export/apps/rDock/src/rDock_2013.1_src/data/scripts/dock_solv.prm

>  <Rbt.Receptor>
prm/pocket_docking_4.prm

>  <SCORE>
-63.3089

>  <SCORE.INTER>
-63.3784

>  <SCORE.INTER.CONST>
1

>  <SCORE.INTER.POLAR>
0

>  <SCORE.INTER.ROT>
2

>  <SCORE.INTER.SOLV>
11

>  <SCORE.INTER.VDW>
-50.8523

>  <SCORE.INTER.norm>
-2.43763

>  <SCORE.INTRA>
0.0695307

>  <SCORE.INTRA.DIHEDRAL>
-0.69335

>  <SCORE.INTRA.DIHEDRAL.0>
4.18538

>  <SCORE.INTRA.POLAR>
0

>  <SCORE.INTRA.POLAR.0>
0

>  <SCORE.INTRA.REPUL>
0

>  <SCORE.INTRA.REPUL.0>
0

>  <SCORE.INTRA.SOLV>
0.0130748

>  <SCORE.INTRA.SOLV.lig_0>
-5.16926

>  <SCORE.INTRA.VDW>
0.409669

>  <SCORE.INTRA.VDW.0>
1.11912

>  <SCORE.INTRA.norm>
0.00267426

>  <SCORE.RESTR>
0

>  <SCORE.RESTR.CAVITY>
0

>  <SCORE.RESTR.norm>
0

>  <SCORE.SYSTEM>
0

>  <SCORE.SYSTEM.CONST>
0

>  <SCORE.SYSTEM.DIHEDRAL>
0

>  <SCORE.SYSTEM.SOLV>
0

>  <SCORE.SYSTEM.norm>
0

>  <SCORE.heavy>
26

>  <SCORE.norm>
-2.43496

>  <RMSD>
0.607

$$$$
1f1t Malachite green aptamer (Xray 2.8A)
 OpenBabel11021811393D
libRbt.so/2013.1/901 2013/11/27
 26 29  0  0  0  0  0  0  0  0999 V2000
  111.2352  -74.6333  -81.8138 C   0  0  0  0  0  0  0  0  0  0  0  0
  111.7494  -75.9057  -82.2984 C   0  0  0  0  0  0  0  0  0  0  0  0
  111.4856  -76.1230  -83.6521 C   0  0  0  0  0  0  0  0  0  0  0  0
  112.0334  -77.4358  -84.0950 O   0  0  0  0  0  0  0  0  0  0  0  0
  111.7971  -77.6211  -85.3351 C   0  0  0  0  0  0  0  0  0  0  0  0
  112.3592  -78.9300  -85.6674 C   0  0  0  0  0  0  0  0  0  0  0  0
  112.1915  -79.3074  -87.0470 C   0  0  0  0  0  0  0  0  0  0  0  0
  111.5490  -78.4729  -87.9949 C   0  0  0  0  0  0  0  0  0  0  0  0
  111.0039  -77.1878  -87.5986 C   0  0  0  0  0  0  0  0  0  0  0  0
  111.1476  -76.7956  -86.2181 C   0  0  0  0  0  0  0  0  0  0  0  0
  110.5389  -75.4530  -85.8877 C   0  0  0  0  0  0  0  0  0  0  0  0
  110.8126  -75.2705  -84.5203 C   0  0  0  0  0  0  0  0  0  0  0  0
  110.2965  -73.9977  -84.0117 C   0  0  0  0  0  0  0  0  0  0  0  0
  110.5556  -73.7487  -82.6285 C   0  0  0  0  0  0  0  0  0  0  0  0
  109.8870  -74.6699  -86.8214 C   0  0  0  0  0  0  0  0  0  0  0  0
  110.2179  -73.3338  -87.1469 C   0  0  0  0  0  0  0  0  0  0  0  0
  109.5821  -72.5345  -88.0986 C   0  0  0  0  0  0  0  0  0  0  0  0
  108.4665  -73.0740  -88.8616 C   0  0  0  0  0  0  0  0  0  0  0  0
  108.1537  -74.4077  -88.5045 C   0  0  0  0  0  0  0  0  0  0  0  0
  108.7599  -75.2433  -87.5564 C   0  0  0  0  0  0  0  0  0  0  0  0
  111.4228  -74.2699  -80.4875 N   0  3  0  0  0  0  0  0  0  0  0  0
  112.1374  -75.1200  -79.5419 C   0  0  0  0  0  0  0  0  0  0  0  0
  110.9533  -73.0216  -79.8469 C   0  0  0  0  0  0  0  0  0  0  0  0
  112.7157  -80.5789  -87.3361 N   0  0  0  0  0  0  0  0  0  0  0  0
  113.3166  -81.6150  -86.4668 C   0  0  0  0  0  0  0  0  0  0  0  0
  112.6706  -81.0333  -88.7708 C   0  0  0  0  0  0  0  0  0  0  0  0
  1  2  1  0  0  0  0
  1 14  1  0  0  0  0
  1 21  2  0  0  0  0
  2  3  2  0  0  0  0
  3  4  1  0  0  0  0
  3 12  1  0  0  0  0
  4  5  1  0  0  0  0
  5  6  1  0  0  0  0
  5 10  2  0  0  0  0
  6  7  2  0  0  0  0
  7  8  1  0  0  0  0
  7 24  1  0  0  0  0
  8  9  2  0  0  0  0
  9 10  1  0  0  0  0
 10 11  1  0  0  0  0
 11 12  2  0  0  0  0
 11 15  1  0  0  0  0
 12 13  1  0  0  0  0
 13 14  2  0  0  0  0
 15 16  2  0  0  0  0
 15 20  1  0  0  0  0
 16 17  1  0  0  0  0
 17 18  2  0  0  0  0
 18 19  1  0  0  0  0
 19 20  2  0  0  0  0
 21 22  1  0  0  0  0
 21 23  1  0  0  0  0
 24 25  1  0  0  0  0
 24 26  1  0  0  0  0
M  CHG  1  21   1
M  END
>  <CHROM.1>
4.68636142,-123.65278083,111.08109521,-76.19846893,-85.26166682,-1.81041055
1.05277024,-2.08631914

>  <Name>
1f1t Malachite green aptamer (Xray 2.8A)

>  <RI>
0

>  <Rbt.Current_Directory>
/home/itssahil/PROJECTS/Mol_Feturizer/New_Systems/rnas/1f1t

>  <Rbt.Executable>
rbdock ($Id: //depot/dev/client3/rdock/2013.1/src/exe/rbdock.cxx#4 $)

>  <Rbt.Library>
libRbt.so (2013.1, Build901 2013/11/27)

>  <Rbt.Parameter_File>
/export/apps/rDock/src/rDock_2013.1_src/data/scripts/dock_solv.prm

>  <Rbt.Receptor>
prm/pocket_docking_4.prm

>  <SCORE>
-63.2624

>  <SCORE.INTER>
-63.3622

>  <SCORE.INTER.CONST>
1

>  <SCORE.INTER.POLAR>
0

>  <SCORE.INTER.ROT>
2

>  <SCORE.INTER.SOLV>
10.9931

>  <SCORE.INTER.VDW>
-50.8391

>  <SCORE.INTER.norm>
-2.43701

>  <SCORE.INTRA>
0.099759

>  <SCORE.INTRA.DIHEDRAL>
-0.804058

>  <SCORE.INTRA.DIHEDRAL.0>
4.18538

>  <SCORE.INTRA.POLAR>
0

>  <SCORE.INTRA.POLAR.0>
0

>  <SCORE.INTRA.REPUL>
0

>  <SCORE.INTRA.REPUL.0>
0

>  <SCORE.INTRA.SOLV>
0.0147474

>  <SCORE.INTRA.SOLV.lig_0>
-5.16926

>  <SCORE.INTRA.VDW>
0.494414

>  <SCORE.INTRA.VDW.0>
1.11912

>  <SCORE.INTRA.norm>
0.00383689

>  <SCORE.RESTR>
0

>  <SCORE.RESTR.CAVITY>
0

>  <SCORE.RESTR.norm>
0

>  <SCORE.SYSTEM>
0

>  <SCORE.SYSTEM.CONST>
0

>  <SCORE.SYSTEM.DIHEDRAL>
0

>  <SCORE.SYSTEM.SOLV>
0

>  <SCORE.SYSTEM.norm>
0

>  <SCORE.heavy>
26

>  <SCORE.norm>
-2.43317

>  <RMSD>
0.607

$$$$
1f1t Malachite green aptamer (Xray 2.8A)
 OpenBabel11021811393D
libRbt.so/2013.1/901 2013/11/27
 26 29  0  0  0  0  0  0  0  0999 V2000
  111.2380  -74.6401  -81.8184 C   0  0  0  0  0  0  0  0  0  0  0  0
  111.7512  -75.9132  -82.3023 C   0  0  0  0  0  0  0  0  0  0  0  0
  111.4899  -76.1298  -83.6566 C   0  0  0  0  0  0  0  0  0  0  0  0
  112.0365  -77.4433  -84.0987 O   0  0  0  0  0  0  0  0  0  0  0  0
  111.8025  -77.6279  -85.3393 C   0  0  0  0  0  0  0  0  0  0  0  0
  112.3632  -78.9376  -85.6708 C   0  0  0  0  0  0  0  0  0  0  0  0
  112.1978  -79.3144  -87.0508 C   0  0  0  0  0  0  0  0  0  0  0  0
  111.5586  -78.4787  -87.9998 C   0  0  0  0  0  0  0  0  0  0  0  0
  111.0147  -77.1928  -87.6043 C   0  0  0  0  0  0  0  0  0  0  0  0
  111.1561  -76.8011  -86.2234 C   0  0  0  0  0  0  0  0  0  0  0  0
  110.5489  -75.4577  -85.8940 C   0  0  0  0  0  0  0  0  0  0  0  0
  110.8200  -75.2759  -84.5259 C   0  0  0  0  0  0  0  0  0  0  0  0
  110.3050  -74.0024  -84.0181 C   0  0  0  0  0  0  0  0  0  0  0  0
  110.5616  -73.7542  -82.6343 C   0  0  0  0  0  0  0  0  0  0  0  0
  109.9002  -74.6733  -86.8288 C   0  0  0  0  0  0  0  0  0  0  0  0
  110.2291  -73.3352  -87.1478 C   0  0  0  0  0  0  0  0  0  0  0  0
  109.5966  -72.5345  -88.1005 C   0  0  0  0  0  0  0  0  0  0  0  0
  108.4870  -73.0746  -88.8719 C   0  0  0  0  0  0  0  0  0  0  0  0
  108.1760  -74.4104  -88.5211 C   0  0  0  0  0  0  0  0  0  0  0  0
  108.7791  -75.2475  -87.5723 C   0  0  0  0  0  0  0  0  0  0  0  0
  111.4234  -74.2774  -80.4916 N   0  3  0  0  0  0  0  0  0  0  0  0
  112.1347  -75.1288  -79.5447 C   0  0  0  0  0  0  0  0  0  0  0  0
  110.9546  -73.0285  -79.8517 C   0  0  0  0  0  0  0  0  0  0  0  0
  112.7206  -80.5866  -87.3391 N   0  0  0  0  0  0  0  0  0  0  0  0
  113.3099  -81.6276  -86.4676 C   0  0  0  0  0  0  0  0  0  0  0  0
  112.6876  -81.0361  -88.7757 C   0  0  0  0  0  0  0  0  0  0  0  0
  1  2  1  0  0  0  0
  1 14  1  0  0  0  0
  1 21  2  0  0  0  0
  2  3  2  0  0  0  0
  3  4  1  0  0  0  0
  3 12  1  0  0  0  0
  4  5  1  0  0  0  0
  5  6  1  0  0  0  0
  5 10  2  0  0  0  0
  6  7  2  0  0  0  0
  7  8  1  0  0  0  0
  7 24  1  0  0  0  0
  8  9  2  0  0  0  0
  9 10  1  0  0  0  0
 10 11  1  0  0  0  0
 11 12  2  0  0  0  0
 11 15  1  0  0  0  0
 12 13  1  0  0  0  0
 13 14  2  0  0  0  0
 15 16  2  0  0  0  0
 15 20  1  0  0  0  0
 16 17  1  0  0  0  0
 17 18  2  0  0  0  0
 18 19  1  0  0  0  0
 19 20  2  0  0  0  0
 21 22  1  0  0  0  0
 21 23  1  0  0  0  0
 24 25  1  0  0  0  0
 24 26  1  0  0  0  0
M  CHG  1  21   1
M  END
>  <CHROM.1>
5.15194357,-124.03266411,111.08874886,-76.20412120,-85.26704629,-1.81268672
1.05530911,-2.08406209

>  <Name>
1f1t Malachite green aptamer (Xray 2.8A)

>  <RI>
0

>  <Rbt.Current_Directory>
/home/itssahil/PROJECTS/Mol_Feturizer/New_Systems/rnas/1f1t

>  <Rbt.Executable>
rbdock ($Id: //depot/dev/client3/rdock/2013.1/src/exe/rbdock.cxx#4 $)

>  <Rbt.Library>
libRbt.so (2013.1, Build901 2013/11/27)

>  <Rbt.Parameter_File>
/export/apps/rDock/src/rDock_2013.1_src/data/scripts/dock_solv.prm

>  <Rbt.Receptor>
prm/pocket_docking_3.prm

>  <SCORE>
-63.2653

>  <SCORE.INTER>
-63.3775

>  <SCORE.INTER.CONST>
1

>  <SCORE.INTER.POLAR>
0

>  <SCORE.INTER.ROT>
2

>  <SCORE.INTER.SOLV>
10.9921

>  <SCORE.INTER.VDW>
-50.8491

>  <SCORE.INTER.norm>
-2.4376

>  <SCORE.INTRA>
0.112215

>  <SCORE.INTRA.DIHEDRAL>
-0.816376

>  <SCORE.INTRA.DIHEDRAL.0>
4.18538

>  <SCORE.INTRA.POLAR>
0

>  <SCORE.INTRA.POLAR.0>
0

>  <SCORE.INTRA.REPUL>
0

>  <SCORE.INTRA.REPUL.0>
0

>  <SCORE.INTRA.SOLV>
0.0151894

>  <SCORE.INTRA.SOLV.lig_0>
-5.16926

>  <SCORE.INTRA.VDW>
0.512808

>  <SCORE.INTRA.VDW.0>
1.11912

>  <SCORE.INTRA.norm>
0.00431596

>  <SCORE.RESTR>
0

>  <SCORE.RESTR.CAVITY>
0

>  <SCORE.RESTR.norm>
0

>  <SCORE.SYSTEM>
0

>  <SCORE.SYSTEM.CONST>
0

>  <SCORE.SYSTEM.DIHEDRAL>
0

>  <SCORE.SYSTEM.SOLV>
0

>  <SCORE.SYSTEM.norm>
0

>  <SCORE.heavy>
26

>  <SCORE.norm>
-2.43328

>  <RMSD>
0.609

$$$$
1f1t Malachite green aptamer (Xray 2.8A)
 OpenBabel11021811393D
libRbt.so/2013.1/901 2013/11/27
 26 29  0  0  0  0  0  0  0  0999 V2000
  111.2385  -74.6419  -81.8200 C   0  0  0  0  0  0  0  0  0  0  0  0
  111.7514  -75.9155  -82.3030 C   0  0  0  0  0  0  0  0  0  0  0  0
  111.4910  -76.1324  -83.6575 C   0  0  0  0  0  0  0  0  0  0  0  0
  112.0372  -77.4463  -84.0987 O   0  0  0  0  0  0  0  0  0  0  0  0
  111.8040  -77.6313  -85.3394 C   0  0  0  0  0  0  0  0  0  0  0  0
  112.3643  -78.9414  -85.6700 C   0  0  0  0  0  0  0  0  0  0  0  0
  112.1997  -79.3186  -87.0500 C   0  0  0  0  0  0  0  0  0  0  0  0
  111.5617  -78.4829  -87.9998 C   0  0  0  0  0  0  0  0  0  0  0  0
  111.0181  -77.1966  -87.6052 C   0  0  0  0  0  0  0  0  0  0  0  0
  111.1587  -76.8045  -86.2243 C   0  0  0  0  0  0  0  0  0  0  0  0
  110.5520  -75.4606  -85.8958 C   0  0  0  0  0  0  0  0  0  0  0  0
  110.8222  -75.2785  -84.5276 C   0  0  0  0  0  0  0  0  0  0  0  0
  110.3074  -74.0045  -84.0206 C   0  0  0  0  0  0  0  0  0  0  0  0
  110.5631  -73.7559  -82.6367 C   0  0  0  0  0  0  0  0  0  0  0  0
  109.9044  -74.6762  -86.8314 C   0  0  0  0  0  0  0  0  0  0  0  0
  110.2284  -73.3354  -87.1441 C   0  0  0  0  0  0  0  0  0  0  0  0
  109.5970  -72.5346  -88.0974 C   0  0  0  0  0  0  0  0  0  0  0  0
  108.4942  -73.0775  -88.8765 C   0  0  0  0  0  0  0  0  0  0  0  0
  108.1879  -74.4159  -88.5319 C   0  0  0  0  0  0  0  0  0  0  0  0
  108.7901  -75.2533  -87.5827 C   0  0  0  0  0  0  0  0  0  0  0  0
  111.4231  -74.2788  -80.4932 N   0  3  0  0  0  0  0  0  0  0  0  0
  112.1332  -75.1303  -79.5455 C   0  0  0  0  0  0  0  0  0  0  0  0
  110.9544  -73.0294  -79.8541 C   0  0  0  0  0  0  0  0  0  0  0  0
  112.7221  -80.5912  -87.3375 N   0  0  0  0  0  0  0  0  0  0  0  0
  113.3218  -81.6270  -86.4669 C   0  0  0  0  0  0  0  0  0  0  0  0
  112.6759  -81.0475  -88.7716 C   0  0  0  0  0  0  0  0  0  0  0  0
  1  2  1  0  0  0  0
  1 14  1  0  0  0  0
  1 21  2  0  0  0  0
  2  3  2  0  0  0  0
  3  4  1  0  0  0  0
  3 12  1  0  0  0  0
  4  5  1  0  0  0  0
  5  6  1  0  0  0  0
  5 10  2  0  0  0  0
  6  7  2  0  0  0  0
  7  8  1  0  0  0  0
  7 24  1  0  0  0  0
  8  9  2  0  0  0  0
  9 10  1  0  0  0  0
 10 11  1  0  0  0  0
 11 12  2  0  0  0  0
 11 15  1  0  0  0  0
 12 13  1  0  0  0  0
 13 14  2  0  0  0  0
 15 16  2  0  0  0  0
 15 20  1  0  0  0  0
 16 17  1  0  0  0  0
 17 18  2  0  0  0  0
 18 19  1  0  0  0  0
 19 20  2  0  0  0  0
 21 22  1  0  0  0  0
 21 23  1  0  0  0  0
 24 25  1  0  0  0  0
 24 26  1  0  0  0  0
M  CHG  1  21   1
M  END
>  <CHROM.1>
4.49004198,-124.49333575,111.09093374,-76.20714414,-85.26821411,-1.81305688
1.05607468,-2.08417342

>  <Name>
1f1t Malachite green aptamer (Xray 2.8A)

>  <RI>
0

>  <Rbt.Current_Directory>
/home/itssahil/PROJECTS/Mol_Feturizer/New_Systems/rnas/1f1t

>  <Rbt.Executable>
rbdock ($Id: //depot/dev/client3/rdock/2013.1/src/exe/rbdock.cxx#4 $)

>  <Rbt.Library>
libRbt.so (2013.1, Build901 2013/11/27)

>  <Rbt.Parameter_File>
/export/apps/rDock/src/rDock_2013.1_src/data/scripts/dock_solv.prm

>  <Rbt.Receptor>
prm/pocket_docking_5.prm

>  <SCORE>
-63.2634

>  <SCORE.INTER>
-63.3833

>  <SCORE.INTER.CONST>
1

>  <SCORE.INTER.POLAR>
0

>  <SCORE.INTER.ROT>
2

>  <SCORE.INTER.SOLV>
10.9992

>  <SCORE.INTER.VDW>
-50.8553

>  <SCORE.INTER.norm>
-2.43782

>  <SCORE.INTRA>
0.119935

>  <SCORE.INTRA.DIHEDRAL>
-0.876494

>  <SCORE.INTRA.DIHEDRAL.0>
4.18538

>  <SCORE.INTRA.POLAR>
0

>  <SCORE.INTRA.POLAR.0>
0

>  <SCORE.INTRA.REPUL>
0

>  <SCORE.INTRA.REPUL.0>
0

>  <SCORE.INTRA.SOLV>
0.0157228

>  <SCORE.INTRA.SOLV.lig_0>
-5.16926

>  <SCORE.INTRA.VDW>
0.550321

>  <SCORE.INTRA.VDW.0>
1.11912

>  <SCORE.INTRA.norm>
0.0046129

>  <SCORE.RESTR>
0

>  <SCORE.RESTR.CAVITY>
0

>  <SCORE.RESTR.norm>
0

>  <SCORE.SYSTEM>
0

>  <SCORE.SYSTEM.CONST>
0

>  <SCORE.SYSTEM.DIHEDRAL>
0

>  <SCORE.SYSTEM.SOLV>
0

>  <SCORE.SYSTEM.norm>
0

>  <SCORE.heavy>
26

>  <SCORE.norm>
-2.43321

>  <RMSD>
0.609

$$$$
1f1t Malachite green aptamer (Xray 2.8A)
 OpenBabel11021811393D
libRbt.so/2013.1/901 2013/11/27
 26 29  0  0  0  0  0  0  0  0999 V2000
  111.2388  -74.6417  -81.8189 C   0  0  0  0  0  0  0  0  0  0  0  0
  111.7514  -75.9154  -82.3020 C   0  0  0  0  0  0  0  0  0  0  0  0
  111.4914  -76.1320  -83.6566 C   0  0  0  0  0  0  0  0  0  0  0  0
  112.0373  -77.4461  -84.0978 O   0  0  0  0  0  0  0  0  0  0  0  0
  111.8045  -77.6307  -85.3386 C   0  0  0  0  0  0  0  0  0  0  0  0
  112.3644  -78.9410  -85.6693 C   0  0  0  0  0  0  0  0  0  0  0  0
  112.2001  -79.3178  -87.0494 C   0  0  0  0  0  0  0  0  0  0  0  0
  111.5627  -78.4817  -87.9993 C   0  0  0  0  0  0  0  0  0  0  0  0
  111.0195  -77.1953  -87.6046 C   0  0  0  0  0  0  0  0  0  0  0  0
  111.1598  -76.8035  -86.2236 C   0  0  0  0  0  0  0  0  0  0  0  0
  110.5535  -75.4595  -85.8951 C   0  0  0  0  0  0  0  0  0  0  0  0
  110.8232  -75.2777  -84.5268 C   0  0  0  0  0  0  0  0  0  0  0  0
  110.3087  -74.0036  -84.0198 C   0  0  0  0  0  0  0  0  0  0  0  0
  110.5640  -73.7554  -82.6357 C   0  0  0  0  0  0  0  0  0  0  0  0
  109.9064  -74.6747  -86.8308 C   0  0  0  0  0  0  0  0  0  0  0  0
  110.2320  -73.3344  -87.1442 C   0  0  0  0  0  0  0  0  0  0  0  0
  109.6012  -72.5332  -88.0977 C   0  0  0  0  0  0  0  0  0  0  0  0
  108.4974  -73.0751  -88.8760 C   0  0  0  0  0  0  0  0  0  0  0  0
  108.1895  -74.4130  -88.5307 C   0  0  0  0  0  0  0  0  0  0  0  0
  108.7911  -75.2507  -87.5814 C   0  0  0  0  0  0  0  0  0  0  0  0
  111.4231  -74.2789  -80.4920 N   0  3  0  0  0  0  0  0  0  0  0  0
  112.1326  -75.1308  -79.5442 C   0  0  0  0  0  0  0  0  0  0  0  0
  110.9546  -73.0295  -79.8528 C   0  0  0  0  0  0  0  0  0  0  0  0
  112.7222  -80.5906  -87.3369 N   0  0  0  0  0  0  0  0  0  0  0  0
  113.3125  -81.6306  -86.4650 C   0  0  0  0  0  0  0  0  0  0  0  0
  112.6868  -81.0419  -88.7729 C   0  0  0  0  0  0  0  0  0  0  0  0
  1  2  1  0  0  0  0
  1 14  1  0  0  0  0
  1 21  2  0  0  0  0
  2  3  2  0  0  0  0
  3  4  1  0  0  0  0
  3 12  1  0  0  0  0
  4  5  1  0  0  0  0
  5  6  1  0  0  0  0
  5 10  2  0  0  0  0
  6  7  2  0  0  0  0
  7  8  1  0  0  0  0
  7 24  1  0  0  0  0
  8  9  2  0  0  0  0
  9 10  1  0  0  0  0
 10 11  1  0  0  0  0
 11 12  2  0  0  0  0
 11 15  1  0  0  0  0
 12 13  1  0  0  0  0
 13 14  2  0  0  0  0
 15 16  2  0  0  0  0
 15 20  1  0  0  0  0
 16 17  1  0  0  0  0
 17 18  2  0  0  0  0
 18 19  1  0  0  0  0
 19 20  2  0  0  0  0
 21 22  1  0  0  0  0
 21 23  1  0  0  0  0
 24 25  1  0  0  0  0
 24 26  1  0  0  0  0
M  CHG  1  21   1
M  END
>  <CHROM.1>
4.98632548,-124.41643398,111.09193305,-76.20627649,-85.26747478,-1.81358905
1.05664187,-2.08349147

>  <Name>
1f1t Malachite green aptamer (Xray 2.8A)

>  <RI>
0

>  <Rbt.Current_Directory>
/home/itssahil/PROJECTS/Mol_Feturizer/New_Systems/rnas/1f1t

>  <Rbt.Executable>
rbdock ($Id: //depot/dev/client3/rdock/2013.1/src/exe/rbdock.cxx#4 $)

>  <Rbt.Library>
libRbt.so (2013.1, Build901 2013/11/27)

>  <Rbt.Parameter_File>
/export/apps/rDock/src/rDock_2013.1_src/data/scripts/dock_solv.prm

>  <Rbt.Receptor>
prm/pocket_docking_8.prm

>  <SCORE>
-63.2608

>  <SCORE.INTER>
-63.3818

>  <SCORE.INTER.CONST>
1

>  <SCORE.INTER.POLAR>
0

>  <SCORE.INTER.ROT>
2

>  <SCORE.INTER.SOLV>
10.9944

>  <SCORE.INTER.VDW>
-50.8527

>  <SCORE.INTER.norm>
-2.43776

>  <SCORE.INTRA>
0.121067

>  <SCORE.INTRA.DIHEDRAL>
-0.852746

>  <SCORE.INTRA.DIHEDRAL.0>
4.18538

>  <SCORE.INTRA.POLAR>
0

>  <SCORE.INTRA.POLAR.0>
0

>  <SCORE.INTRA.REPUL>
0

>  <SCORE.INTRA.REPUL.0>
0

>  <SCORE.INTRA.SOLV>
0.0156342

>  <SCORE.INTRA.SOLV.lig_0>
-5.16926

>  <SCORE.INTRA.VDW>
0.539623

>  <SCORE.INTRA.VDW.0>
1.11912

>  <SCORE.INTRA.norm>
0.00465642

>  <SCORE.RESTR>
0

>  <SCORE.RESTR.CAVITY>
0

>  <SCORE.RESTR.norm>
0

>  <SCORE.SYSTEM>
0

>  <SCORE.SYSTEM.CONST>
0

>  <SCORE.SYSTEM.DIHEDRAL>
0

>  <SCORE.SYSTEM.SOLV>
0

>  <SCORE.SYSTEM.norm>
0

>  <SCORE.heavy>
26

>  <SCORE.norm>
-2.43311

>  <RMSD>
0.610

$$$$
1f1t Malachite green aptamer (Xray 2.8A)
 OpenBabel11021811393D
libRbt.so/2013.1/901 2013/11/27
 26 29  0  0  0  0  0  0  0  0999 V2000
  111.2550  -74.6130  -81.8085 C   0  0  0  0  0  0  0  0  0  0  0  0
  111.7738  -75.8827  -82.2955 C   0  0  0  0  0  0  0  0  0  0  0  0
  111.5095  -76.0990  -83.6493 C   0  0  0  0  0  0  0  0  0  0  0  0
  112.0620  -77.4090  -84.0947 O   0  0  0  0  0  0  0  0  0  0  0  0
  111.8252  -77.5933  -85.3348 C   0  0  0  0  0  0  0  0  0  0  0  0
  112.3921  -78.8995  -85.6697 C   0  0  0  0  0  0  0  0  0  0  0  0
  112.2245  -79.2754  -87.0497 C   0  0  0  0  0  0  0  0  0  0  0  0
  111.5778  -78.4421  -87.9956 C   0  0  0  0  0  0  0  0  0  0  0  0
  111.0279  -77.1598  -87.5969 C   0  0  0  0  0  0  0  0  0  0  0  0
  111.1715  -76.7691  -86.2159 C   0  0  0  0  0  0  0  0  0  0  0  0
  110.5579  -75.4294  -85.8829 C   0  0  0  0  0  0  0  0  0  0  0  0
  110.8322  -75.2478  -84.5155 C   0  0  0  0  0  0  0  0  0  0  0  0
  110.3117  -73.9778  -84.0045 C   0  0  0  0  0  0  0  0  0  0  0  0
  110.5712  -73.7299  -82.6212 C   0  0  0  0  0  0  0  0  0  0  0  0
  109.9019  -74.6474  -86.8147 C   0  0  0  0  0  0  0  0  0  0  0  0
  110.2494  -73.3218  -87.1644 C   0  0  0  0  0  0  0  0  0  0  0  0
  109.6095  -72.5241  -88.1148 C   0  0  0  0  0  0  0  0  0  0  0  0
  108.4706  -73.0542  -88.8494 C   0  0  0  0  0  0  0  0  0  0  0  0
  108.1418  -74.3774  -88.4685 C   0  0  0  0  0  0  0  0  0  0  0  0
  108.7515  -75.2109  -87.5207 C   0  0  0  0  0  0  0  0  0  0  0  0
  111.4426  -74.2510  -80.4818 N   0  3  0  0  0  0  0  0  0  0  0  0
  112.1615  -75.0996  -79.5382 C   0  0  0  0  0  0  0  0  0  0  0  0
  110.9688  -73.0055  -79.8389 C   0  0  0  0  0  0  0  0  0  0  0  0
  112.7535  -80.5444  -87.3412 N   0  0  0  0  0  0  0  0  0  0  0  0
  113.3281  -81.5935  -86.4697 C   0  0  0  0  0  0  0  0  0  0  0  0
  112.7464  -80.9797  -88.7826 C   0  0  0  0  0  0  0  0  0  0  0  0
  1  2  1  0  0  0  0
  1 14  1  0  0  0  0
  1 21  2  0  0  0  0
  2  3  2  0  0  0  0
  3  4  1  0  0  0  0
  3 12  1  0  0  0  0
  4  5  1  0  0  0  0
  5  6  1  0  0  0  0
  5 10  2  0  0  0  0
  6  7  2  0  0  0  0
  7  8  1  0  0  0  0
  7 24  1  0  0  0  0
  8  9  2  0  0  0  0
  9 10  1  0  0  0  0
 10 11  1  0  0  0  0
 11 12  2  0  0  0  0
 11 15  1  0  0  0  0
 12 13  1  0  0  0  0
 13 14  2  0  0  0  0
 15 16  2  0  0  0  0
 15 20  1  0  0  0  0
 16 17  1  0  0  0  0
 17 18  2  0  0  0  0
 18 19  1  0  0  0  0
 19 20  2  0  0  0  0
 21 22  1  0  0  0  0
 21 23  1  0  0  0  0
 24 25  1  0  0  0  0
 24 26  1  0  0  0  0
M  CHG  1  21   1
M  END
>  <CHROM.1>
6.47652912,-121.85280174,111.10365909,-76.17348654,-85.25840861,-1.81385700
1.04890098,-2.08160026

>  <Name>
1f1t Malachite green aptamer (Xray 2.8A)

>  <RI>
0

>  <Rbt.Current_Directory>
/home/itssahil/PROJECTS/Mol_Feturizer/New_Systems/rnas/1f1t

>  <Rbt.Executable>
rbdock ($Id: //depot/dev/client3/rdock/2013.1/src/exe/rbdock.cxx#4 $)

>  <Rbt.Library>
libRbt.so (2013.1, Build901 2013/11/27)

>  <Rbt.Parameter_File>
/export/apps/rDock/src/rDock_2013.1_src/data/scripts/dock_solv.prm

>  <Rbt.Receptor>
prm/pocket_docking_3.prm

>  <SCORE>
-63.1756

>  <SCORE.INTER>
-63.2521

>  <SCORE.INTER.CONST>
1

>  <SCORE.INTER.POLAR>
0

>  <SCORE.INTER.ROT>
2

>  <SCORE.INTER.SOLV>
11.0171

>  <SCORE.INTER.VDW>
-50.7738

>  <SCORE.INTER.norm>
-2.43277

>  <SCORE.INTRA>
0.0764585

>  <SCORE.INTRA.DIHEDRAL>
-0.590674

>  <SCORE.INTRA.DIHEDRAL.0>
4.18538

>  <SCORE.INTRA.POLAR>
0

>  <SCORE.INTRA.POLAR.0>
0

>  <SCORE.INTRA.REPUL>
0

>  <SCORE.INTRA.REPUL.0>
0

>  <SCORE.INTRA.SOLV>
0.0126389

>  <SCORE.INTRA.SOLV.lig_0>
-5.16926

>  <SCORE.INTRA.VDW>
0.365476

>  <SCORE.INTRA.VDW.0>
1.11912

>  <SCORE.INTRA.norm>
0.00294071

>  <SCORE.RESTR>
0

>  <SCORE.RESTR.CAVITY>
0

>  <SCORE.RESTR.norm>
0

>  <SCORE.SYSTEM>
0

>  <SCORE.SYSTEM.CONST>
0

>  <SCORE.SYSTEM.DIHEDRAL>
0

>  <SCORE.SYSTEM.SOLV>
0

>  <SCORE.SYSTEM.norm>
0

>  <SCORE.heavy>
26

>  <SCORE.norm>
-2.42983

>  <RMSD>
0.615

$$$$
1f1t Malachite green aptamer (Xray 2.8A)
 OpenBabel11021811393D
libRbt.so/2013.1/901 2013/11/27
 26 29  0  0  0  0  0  0  0  0999 V2000
  111.2419  -74.6538  -81.8025 C   0  0  0  0  0  0  0  0  0  0  0  0
  111.7512  -75.9259  -82.2933 C   0  0  0  0  0  0  0  0  0  0  0  0
  111.4928  -76.1323  -83.6498 C   0  0  0  0  0  0  0  0  0  0  0  0
  112.0351  -77.4452  -84.0991 O   0  0  0  0  0  0  0  0  0  0  0  0
  111.8038  -77.6206  -85.3415 C   0  0  0  0  0  0  0  0  0  0  0  0
  112.3600  -78.9304  -85.6802 C   0  0  0  0  0  0  0  0  0  0  0  0
  112.1968  -79.2973  -87.0631 C   0  0  0  0  0  0  0  0  0  0  0  0
  111.5638  -78.4527  -88.0083 C   0  0  0  0  0  0  0  0  0  0  0  0
  111.0241  -77.1672  -87.6058 C   0  0  0  0  0  0  0  0  0  0  0  0
  111.1633  -76.7853  -86.2219 C   0  0  0  0  0  0  0  0  0  0  0  0
  110.5608  -75.4416  -85.8853 C   0  0  0  0  0  0  0  0  0  0  0  0
  110.8288  -75.2700  -84.5153 C   0  0  0  0  0  0  0  0  0  0  0  0
  110.3176  -73.9977  -84.0005 C   0  0  0  0  0  0  0  0  0  0  0  0
  110.5714  -73.7597  -82.6143 C   0  0  0  0  0  0  0  0  0  0  0  0
  109.9180  -74.6483  -86.8166 C   0  0  0  0  0  0  0  0  0  0  0  0
  110.2582  -73.3120  -87.1314 C   0  0  0  0  0  0  0  0  0  0  0  0
  109.6316  -72.5025  -88.0806 C   0  0  0  0  0  0  0  0  0  0  0  0
  108.5166  -73.0303  -88.8526 C   0  0  0  0  0  0  0  0  0  0  0  0
  108.1942  -74.3644  -88.5061 C   0  0  0  0  0  0  0  0  0  0  0  0
  108.7911  -75.2101  -87.5609 C   0  0  0  0  0  0  0  0  0  0  0  0
  111.4251  -74.3007  -80.4728 N   0  3  0  0  0  0  0  0  0  0  0  0
  112.1303  -75.1613  -79.5296 C   0  0  0  0  0  0  0  0  0  0  0  0
  110.9597  -73.0541  -79.8259 C   0  0  0  0  0  0  0  0  0  0  0  0
  112.7152  -80.5698  -87.3584 N   0  0  0  0  0  0  0  0  0  0  0  0
  113.3166  -81.6106  -86.4950 C   0  0  0  0  0  0  0  0  0  0  0  0
  112.6616  -81.0198  -88.7943 C   0  0  0  0  0  0  0  0  0  0  0  0
  1  2  1  0  0  0  0
  1 14  1  0  0  0  0
  1 21  2  0  0  0  0
  2  3  2  0  0  0  0
  3  4  1  0  0  0  0
  3 12  1  0  0  0  0
  4  5  1  0  0  0  0
  5  6  1  0  0  0  0
  5 10  2  0  0  0  0
  6  7  2  0  0  0  0
  7  8  1  0  0  0  0
  7 24  1  0  0  0  0
  8  9  2  0  0  0  0
  9 10  1  0  0  0  0
 10 11  1  0  0  0  0
 11 12  2  0  0  0  0
 11 15  1  0  0  0  0
 12 13  1  0  0  0  0
 13 14  2  0  0  0  0
 15 16  2  0  0  0  0
 15 20  1  0  0  0  0
 16 17  1  0  0  0  0
 17 18  2  0  0  0  0
 18 19  1  0  0  0  0
 19 20  2  0  0  0  0
 21 22  1  0  0  0  0
 21 23  1  0  0  0  0
 24 25  1  0  0  0  0
 24 26  1  0  0  0  0
M  CHG  1  21   1
M  END
>  <CHROM.1>
4.07532589,-123.64474518,111.09554583,-76.19444365,-85.26172771,-1.81297384
1.06004522,-2.07724951

>  <Name>
1f1t Malachite green aptamer (Xray 2.8A)

>  <RI>
0

>  <Rbt.Current_Directory>
/home/itssahil/PROJECTS/Mol_Feturizer/New_Systems/rnas/1f1t

>  <Rbt.Executable>
rbdock ($Id: //depot/dev/client3/rdock/2013.1/src/exe/rbdock.cxx#4 $)

>  <Rbt.Library>
libRbt.so (2013.1, Build901 2013/11/27)

>  <Rbt.Parameter_File>
/export/apps/rDock/src/rDock_2013.1_src/data/scripts/dock_solv.prm

>  <Rbt.Receptor>
prm/pocket_docking_7.prm

>  <SCORE>
-63.2039

>  <SCORE.INTER>
-63.2998

>  <SCORE.INTER.CONST>
1

>  <SCORE.INTER.POLAR>
0

>  <SCORE.INTER.ROT>
2

>  <SCORE.INTER.SOLV>
11.0162

>  <SCORE.INTER.VDW>
-50.8053

>  <SCORE.INTER.norm>
-2.43461

>  <SCORE.INTRA>
0.0959269

>  <SCORE.INTRA.DIHEDRAL>
-0.823557

>  <SCORE.INTRA.DIHEDRAL.0>
4.18538

>  <SCORE.INTRA.POLAR>
0

>  <SCORE.INTRA.POLAR.0>
0

>  <SCORE.INTRA.REPUL>
0

>  <SCORE.INTRA.REPUL.0>
0

>  <SCORE.INTRA.SOLV>
0.0147377

>  <SCORE.INTRA.SOLV.lig_0>
-5.16926

>  <SCORE.INTRA.VDW>
0.500337

>  <SCORE.INTRA.VDW.0>
1.11912

>  <SCORE.INTRA.norm>
0.0036895

>  <SCORE.RESTR>
0

>  <SCORE.RESTR.CAVITY>
0

>  <SCORE.RESTR.norm>
0

>  <SCORE.SYSTEM>
0

>  <SCORE.SYSTEM.CONST>
0

>  <SCORE.SYSTEM.DIHEDRAL>
0

>  <SCORE.SYSTEM.SOLV>
0

>  <SCORE.SYSTEM.norm>
0

>  <SCORE.heavy>
26

>  <SCORE.norm>
-2.43092

>  <RMSD>
0.615

$$$$
1f1t Malachite green aptamer (Xray 2.8A)
 OpenBabel11021811393D
libRbt.so/2013.1/901 2013/11/27
 26 29  0  0  0  0  0  0  0  0999 V2000
  111.2383  -74.6401  -81.8286 C   0  0  0  0  0  0  0  0  0  0  0  0
  111.7489  -75.9139  -82.3137 C   0  0  0  0  0  0  0  0  0  0  0  0
  111.4866  -76.1288  -83.6680 C   0  0  0  0  0  0  0  0  0  0  0  0
  112.0305  -77.4430  -84.1114 O   0  0  0  0  0  0  0  0  0  0  0  0
  111.7955  -77.6262  -85.3521 C   0  0  0  0  0  0  0  0  0  0  0  0
  112.3536  -78.9367  -85.6849 C   0  0  0  0  0  0  0  0  0  0  0  0
  112.1868  -79.3121  -87.0651 C   0  0  0  0  0  0  0  0  0  0  0  0
  111.5488  -78.4744  -88.0131 C   0  0  0  0  0  0  0  0  0  0  0  0
  111.0074  -77.1879  -87.6164 C   0  0  0  0  0  0  0  0  0  0  0  0
  111.1503  -76.7976  -86.2352 C   0  0  0  0  0  0  0  0  0  0  0  0
  110.5457  -75.4533  -85.9044 C   0  0  0  0  0  0  0  0  0  0  0  0
  110.8178  -75.2731  -84.5363 C   0  0  0  0  0  0  0  0  0  0  0  0
  110.3054  -73.9990  -84.0273 C   0  0  0  0  0  0  0  0  0  0  0  0
  110.5631  -73.7524  -82.6434 C   0  0  0  0  0  0  0  0  0  0  0  0
  109.8980  -74.6669  -86.8383 C   0  0  0  0  0  0  0  0  0  0  0  0
  110.2482  -73.3394  -87.1783 C   0  0  0  0  0  0  0  0  0  0  0  0
  109.6167  -72.5373  -88.1305 C   0  0  0  0  0  0  0  0  0  0  0  0
  108.4847  -73.0641  -88.8780 C   0  0  0  0  0  0  0  0  0  0  0  0
  108.1528  -74.3892  -88.5066 C   0  0  0  0  0  0  0  0  0  0  0  0
  108.7542  -75.2272  -87.5574 C   0  0  0  0  0  0  0  0  0  0  0  0
  111.4251  -74.2788  -80.5015 N   0  3  0  0  0  0  0  0  0  0  0  0
  112.1353  -75.1323  -79.5557 C   0  0  0  0  0  0  0  0  0  0  0  0
  110.9589  -73.0296  -79.8604 C   0  0  0  0  0  0  0  0  0  0  0  0
  112.7072  -80.5851  -87.3547 N   0  0  0  0  0  0  0  0  0  0  0  0
  113.2926  -81.6288  -86.4839 C   0  0  0  0  0  0  0  0  0  0  0  0
  112.6754  -81.0321  -88.7921 C   0  0  0  0  0  0  0  0  0  0  0  0
  1  2  1  0  0  0  0
  1 14  1  0  0  0  0
  1 21  2  0  0  0  0
  2  3  2  0  0  0  0
  3  4  1  0  0  0  0
  3 12  1  0  0  0  0
  4  5  1  0  0  0  0
  5  6  1  0  0  0  0
  5 10  2  0  0  0  0
  6  7  2  0  0  0  0
  7  8  1  0  0  0  0
  7 24  1  0  0  0  0
  8  9  2  0  0  0  0
  9 10  1  0  0  0  0
 10 11  1  0  0  0  0
 11 12  2  0  0  0  0
 11 15  1  0  0  0  0
 12 13  1  0  0  0  0
 13 14  2  0  0  0  0
 15 16  2  0  0  0  0
 15 20  1  0  0  0  0
 16 17  1  0  0  0  0
 17 18  2  0  0  0  0
 18 19  1  0  0  0  0
 19 20  2  0  0  0  0
 21 22  1  0  0  0  0
 21 23  1  0  0  0  0
 24 25  1  0  0  0  0
 24 26  1  0  0  0  0
M  CHG  1  21   1
M  END
>  <CHROM.1>
5.28596523,-122.50516032,111.08426556,-76.20115900,-85.27818415,-1.81031926
1.05650030,-2.08525098

>  <Name>
1f1t Malachite green aptamer (Xray 2.8A)

>  <RI>
0

>  <Rbt.Current_Directory>
/home/itssahil/PROJECTS/Mol_Feturizer/New_Systems/rnas/1f1t

>  <Rbt.Executable>
rbdock ($Id: //depot/dev/client3/rdock/2013.1/src/exe/rbdock.cxx#4 $)

>  <Rbt.Library>
libRbt.so (2013.1, Build901 2013/11/27)

>  <Rbt.Parameter_File>
/export/apps/rDock/src/rDock_2013.1_src/data/scripts/dock_solv.prm

>  <Rbt.Receptor>
prm/pocket_docking_2.prm

>  <SCORE>
-63.2286

>  <SCORE.INTER>
-63.3076

>  <SCORE.INTER.CONST>
1

>  <SCORE.INTER.POLAR>
0

>  <SCORE.INTER.ROT>
2

>  <SCORE.INTER.SOLV>
11.0111

>  <SCORE.INTER.VDW>
-50.8088

>  <SCORE.INTER.norm>
-2.43491

>  <SCORE.INTRA>
0.0789326

>  <SCORE.INTRA.DIHEDRAL>
-0.693137

>  <SCORE.INTRA.DIHEDRAL.0>
4.18538

>  <SCORE.INTRA.POLAR>
0

>  <SCORE.INTRA.POLAR.0>
0

>  <SCORE.INTRA.REPUL>
0

>  <SCORE.INTRA.REPUL.0>
0

>  <SCORE.INTRA.SOLV>
0.0134085

>  <SCORE.INTRA.SOLV.lig_0>
-5.16926

>  <SCORE.INTRA.VDW>
0.418797

>  <SCORE.INTRA.VDW.0>
1.11912

>  <SCORE.INTRA.norm>
0.00303587

>  <SCORE.RESTR>
0

>  <SCORE.RESTR.CAVITY>
0

>  <SCORE.RESTR.norm>
0

>  <SCORE.SYSTEM>
0

>  <SCORE.SYSTEM.CONST>
0

>  <SCORE.SYSTEM.DIHEDRAL>
0

>  <SCORE.SYSTEM.SOLV>
0

>  <SCORE.SYSTEM.norm>
0

>  <SCORE.heavy>
26

>  <SCORE.norm>
-2.43187

>  <RMSD>
0.618

$$$$
1f1t Malachite green aptamer (Xray 2.8A)
 OpenBabel11021811393D
libRbt.so/2013.1/901 2013/11/27
 26 29  0  0  0  0  0  0  0  0999 V2000
  111.2166  -74.6475  -81.8060 C   0  0  0  0  0  0  0  0  0  0  0  0
  111.7284  -75.9194  -82.2946 C   0  0  0  0  0  0  0  0  0  0  0  0
  111.4734  -76.1273  -83.6515 C   0  0  0  0  0  0  0  0  0  0  0  0
  112.0182  -77.4399  -84.0984 O   0  0  0  0  0  0  0  0  0  0  0  0
  111.7900  -77.6166  -85.3412 C   0  0  0  0  0  0  0  0  0  0  0  0
  112.3484  -78.9261  -85.6775 C   0  0  0  0  0  0  0  0  0  0  0  0
  112.1889  -79.2943  -87.0605 C   0  0  0  0  0  0  0  0  0  0  0  0
  111.5570  -78.4512  -88.0079 C   0  0  0  0  0  0  0  0  0  0  0  0
  111.0150  -77.1660  -87.6077 C   0  0  0  0  0  0  0  0  0  0  0  0
  111.1506  -76.7828  -86.2238 C   0  0  0  0  0  0  0  0  0  0  0  0
  110.5458  -75.4394  -85.8897 C   0  0  0  0  0  0  0  0  0  0  0  0
  110.8104  -75.2664  -84.5192 C   0  0  0  0  0  0  0  0  0  0  0  0
  110.2966  -73.9943  -84.0066 C   0  0  0  0  0  0  0  0  0  0  0  0
  110.5469  -73.7549  -82.6201 C   0  0  0  0  0  0  0  0  0  0  0  0
  109.9041  -74.6477  -86.8231 C   0  0  0  0  0  0  0  0  0  0  0  0
  110.2480  -73.3136  -87.1433 C   0  0  0  0  0  0  0  0  0  0  0  0
  109.6227  -72.5057  -88.0948 C   0  0  0  0  0  0  0  0  0  0  0  0
  108.5051  -73.0329  -88.8634 C   0  0  0  0  0  0  0  0  0  0  0  0
  108.1792  -74.3648  -88.5115 C   0  0  0  0  0  0  0  0  0  0  0  0
  108.7746  -75.2088  -87.5639 C   0  0  0  0  0  0  0  0  0  0  0  0
  111.3964  -74.2931  -80.4761 N   0  3  0  0  0  0  0  0  0  0  0  0
  112.1003  -75.1522  -79.5306 C   0  0  0  0  0  0  0  0  0  0  0  0
  110.9280  -73.0465  -79.8314 C   0  0  0  0  0  0  0  0  0  0  0  0
  112.7093  -80.5665  -87.3536 N   0  0  0  0  0  0  0  0  0  0  0  0
  113.3127  -81.6046  -86.4884 C   0  0  0  0  0  0  0  0  0  0  0  0
  112.6562  -81.0192  -88.7886 C   0  0  0  0  0  0  0  0  0  0  0  0
  1  2  1  0  0  0  0
  1 14  1  0  0  0  0
  1 21  2  0  0  0  0
  2  3  2  0  0  0  0
  3  4  1  0  0  0  0
  3 12  1  0  0  0  0
  4  5  1  0  0  0  0
  5  6  1  0  0  0  0
  5 10  2  0  0  0  0
  6  7  2  0  0  0  0
  7  8  1  0  0  0  0
  7 24  1  0  0  0  0
  8  9  2  0  0  0  0
  9 10  1  0  0  0  0
 10 11  1  0  0  0  0
 11 12  2  0  0  0  0
 11 15  1  0  0  0  0
 12 13  1  0  0  0  0
 13 14  2  0  0  0  0
 15 16  2  0  0  0  0
 15 20  1  0  0  0  0
 16 17  1  0  0  0  0
 17 18  2  0  0  0  0
 18 19  1  0  0  0  0
 19 20  2  0  0  0  0
 21 22  1  0  0  0  0
 21 23  1  0  0  0  0
 24 25  1  0  0  0  0
 24 26  1  0  0  0  0
M  CHG  1  21   1
M  END
>  <CHROM.1>
3.91767507,-123.28947146,111.07983394,-76.19120036,-85.26421397,-1.81819126
1.06008366,-2.07352629

>  <Name>
1f1t Malachite green aptamer (Xray 2.8A)

>  <RI>
0

>  <Rbt.Current_Directory>
/home/itssahil/PROJECTS/Mol_Feturizer/New_Systems/rnas/1f1t

>  <Rbt.Executable>
rbdock ($Id: //depot/dev/client3/rdock/2013.1/src/exe/rbdock.cxx#4 $)

>  <Rbt.Library>
libRbt.so (2013.1, Build901 2013/11/27)

>  <Rbt.Parameter_File>
/export/apps/rDock/src/rDock_2013.1_src/data/scripts/dock_solv.prm

>  <Rbt.Receptor>
prm/pocket_docking_4.prm

>  <SCORE>
-63.2601

>  <SCORE.INTER>
-63.347

>  <SCORE.INTER.CONST>
1

>  <SCORE.INTER.POLAR>
0

>  <SCORE.INTER.ROT>
2

>  <SCORE.INTER.SOLV>
11.0208

>  <SCORE.INTER.VDW>
-50.8383

>  <SCORE.INTER.norm>
-2.43642

>  <SCORE.INTRA>
0.0868558

>  <SCORE.INTRA.DIHEDRAL>
-0.800763

>  <SCORE.INTRA.DIHEDRAL.0>
4.18538

>  <SCORE.INTRA.POLAR>
0

>  <SCORE.INTRA.POLAR.0>
0

>  <SCORE.INTRA.REPUL>
0

>  <SCORE.INTRA.REPUL.0>
0

>  <SCORE.INTRA.SOLV>
0.0143238

>  <SCORE.INTRA.SOLV.lig_0>
-5.16926

>  <SCORE.INTRA.VDW>
0.480076

>  <SCORE.INTRA.VDW.0>
1.11912

>  <SCORE.INTRA.norm>
0.00334061

>  <SCORE.RESTR>
0

>  <SCORE.RESTR.CAVITY>
0

>  <SCORE.RESTR.norm>
0

>  <SCORE.SYSTEM>
0

>  <SCORE.SYSTEM.CONST>
0

>  <SCORE.SYSTEM.DIHEDRAL>
0

>  <SCORE.SYSTEM.SOLV>
0

>  <SCORE.SYSTEM.norm>
0

>  <SCORE.heavy>
26

>  <SCORE.norm>
-2.43308

>  <RMSD>
0.619

$$$$
1f1t Malachite green aptamer (Xray 2.8A)
 OpenBabel11021811393D
libRbt.so/2013.1/901 2013/11/27
 26 29  0  0  0  0  0  0  0  0999 V2000
  111.2418  -74.6509  -81.8114 C   0  0  0  0  0  0  0  0  0  0  0  0
  111.7495  -75.9241  -82.3010 C   0  0  0  0  0  0  0  0  0  0  0  0
  111.4910  -76.1315  -83.6573 C   0  0  0  0  0  0  0  0  0  0  0  0
  112.0316  -77.4455  -84.1052 O   0  0  0  0  0  0  0  0  0  0  0  0
  111.8002  -77.6218  -85.3475 C   0  0  0  0  0  0  0  0  0  0  0  0
  112.3547  -78.9327  -85.6849 C   0  0  0  0  0  0  0  0  0  0  0  0
  112.1912  -79.3007  -87.0674 C   0  0  0  0  0  0  0  0  0  0  0  0
  111.5594  -78.4562  -88.0135 C   0  0  0  0  0  0  0  0  0  0  0  0
  111.0213  -77.1696  -87.6123 C   0  0  0  0  0  0  0  0  0  0  0  0
  111.1609  -76.7865  -86.2288 C   0  0  0  0  0  0  0  0  0  0  0  0
  110.5601  -75.4417  -85.8935 C   0  0  0  0  0  0  0  0  0  0  0  0
  110.8282  -75.2691  -84.5236 C   0  0  0  0  0  0  0  0  0  0  0  0
  110.3186  -73.9957  -84.0101 C   0  0  0  0  0  0  0  0  0  0  0  0
  110.5726  -73.7567  -82.6242 C   0  0  0  0  0  0  0  0  0  0  0  0
  109.9184  -74.6485  -86.8257 C   0  0  0  0  0  0  0  0  0  0  0  0
  110.2599  -73.3127  -87.1413 C   0  0  0  0  0  0  0  0  0  0  0  0
  109.6345  -72.5033  -88.0913 C   0  0  0  0  0  0  0  0  0  0  0  0
  108.5194  -73.0306  -88.8634 C   0  0  0  0  0  0  0  0  0  0  0  0
  108.1957  -74.3643  -88.5161 C   0  0  0  0  0  0  0  0  0  0  0  0
  108.7913  -75.2098  -87.5700 C   0  0  0  0  0  0  0  0  0  0  0  0
  111.4254  -74.2967  -80.4820 N   0  3  0  0  0  0  0  0  0  0  0  0
  112.1293  -75.1573  -79.5380 C   0  0  0  0  0  0  0  0  0  0  0  0
  110.9615  -73.0489  -79.8364 C   0  0  0  0  0  0  0  0  0  0  0  0
  112.7080  -80.5742  -87.3615 N   0  0  0  0  0  0  0  0  0  0  0  0
  113.3105  -81.6138  -86.4974 C   0  0  0  0  0  0  0  0  0  0  0  0
  112.6508  -81.0269  -88.7963 C   0  0  0  0  0  0  0  0  0  0  0  0
  1  2  1  0  0  0  0
  1 14  1  0  0  0  0
  1 21  2  0  0  0  0
  2  3  2  0  0  0  0
  3  4  1  0  0  0  0
  3 12  1  0  0  0  0
  4  5  1  0  0  0  0
  5  6  1  0  0  0  0
  5 10  2  0  0  0  0
  6  7  2  0  0  0  0
  7  8  1  0  0  0  0
  7 24  1  0  0  0  0
  8  9  2  0  0  0  0
  9 10  1  0  0  0  0
 10 11  1  0  0  0  0
 11 12  2  0  0  0  0
 11 15  1  0  0  0  0
 12 13  1  0  0  0  0
 13 14  2  0  0  0  0
 15 16  2  0  0  0  0
 15 20  1  0  0  0  0
 16 17  1  0  0  0  0
 17 18  2  0  0  0  0
 18 19  1  0  0  0  0
 19 20  2  0  0  0  0
 21 22  1  0  0  0  0
 21 23  1  0  0  0  0
 24 25  1  0  0  0  0
 24 26  1  0  0  0  0
M  CHG  1  21   1
M  END
>  <CHROM.1>
3.92547928,-123.67970902,111.09378836,-76.19467232,-85.26918520,-1.81177096
1.06120688,-2.07928527

>  <Name>
1f1t Malachite green aptamer (Xray 2.8A)

>  <RI>
0

>  <Rbt.Current_Directory>
/home/itssahil/PROJECTS/Mol_Feturizer/New_Systems/rnas/1f1t

>  <Rbt.Executable>
rbdock ($Id: //depot/dev/client3/rdock/2013.1/src/exe/rbdock.cxx#4 $)

>  <Rbt.Library>
libRbt.so (2013.1, Build901 2013/11/27)

>  <Rbt.Parameter_File>
/export/apps/rDock/src/rDock_2013.1_src/data/scripts/dock_solv.prm

>  <Rbt.Receptor>
prm/pocket_docking_8.prm

>  <SCORE>
-63.2392

>  <SCORE.INTER>
-63.3351

>  <SCORE.INTER.CONST>
1

>  <SCORE.INTER.POLAR>
0

>  <SCORE.INTER.ROT>
2

>  <SCORE.INTER.SOLV>
11.0317

>  <SCORE.INTER.VDW>
-50.834

>  <SCORE.INTER.norm>
-2.43597

>  <SCORE.INTRA>
0.0959483

>  <SCORE.INTRA.DIHEDRAL>
-0.830768

>  <SCORE.INTRA.DIHEDRAL.0>
4.18538

>  <SCORE.INTRA.POLAR>
0

>  <SCORE.INTRA.POLAR.0>
0

>  <SCORE.INTRA.REPUL>
0

>  <SCORE.INTRA.REPUL.0>
0

>  <SCORE.INTRA.SOLV>
0.0147783

>  <SCORE.INTRA.SOLV.lig_0>
-5.16926

>  <SCORE.INTRA.VDW>
0.503943

>  <SCORE.INTRA.VDW.0>
1.11912

>  <SCORE.INTRA.norm>
0.00369032

>  <SCORE.RESTR>
0

>  <SCORE.RESTR.CAVITY>
0

>  <SCORE.RESTR.norm>
0

>  <SCORE.SYSTEM>
0

>  <SCORE.SYSTEM.CONST>
0

>  <SCORE.SYSTEM.DIHEDRAL>
0

>  <SCORE.SYSTEM.SOLV>
0

>  <SCORE.SYSTEM.norm>
0

>  <SCORE.heavy>
26

>  <SCORE.norm>
-2.43228

>  <RMSD>
0.621

$$$$
1f1t Malachite green aptamer (Xray 2.8A)
 OpenBabel11021811393D
libRbt.so/2013.1/901 2013/11/27
 26 29  0  0  0  0  0  0  0  0999 V2000
  111.2304  -74.6521  -81.8148 C   0  0  0  0  0  0  0  0  0  0  0  0
  111.7432  -75.9222  -82.3069 C   0  0  0  0  0  0  0  0  0  0  0  0
  111.4848  -76.1282  -83.6635 C   0  0  0  0  0  0  0  0  0  0  0  0
  112.0309  -77.4391  -84.1141 O   0  0  0  0  0  0  0  0  0  0  0  0
  111.7995  -77.6141  -85.3566 C   0  0  0  0  0  0  0  0  0  0  0  0
  112.3595  -78.9220  -85.6966 C   0  0  0  0  0  0  0  0  0  0  0  0
  112.1968  -79.2882  -87.0798 C   0  0  0  0  0  0  0  0  0  0  0  0
  111.5608  -78.4447  -88.0239 C   0  0  0  0  0  0  0  0  0  0  0  0
  111.0174  -77.1612  -87.6201 C   0  0  0  0  0  0  0  0  0  0  0  0
  111.1561  -76.7800  -86.2360 C   0  0  0  0  0  0  0  0  0  0  0  0
  110.5497  -75.4384  -85.8979 C   0  0  0  0  0  0  0  0  0  0  0  0
  110.8179  -75.2672  -84.5279 C   0  0  0  0  0  0  0  0  0  0  0  0
  110.3031  -73.9969  -84.0118 C   0  0  0  0  0  0  0  0  0  0  0  0
  110.5568  -73.7593  -82.6255 C   0  0  0  0  0  0  0  0  0  0  0  0
  109.9040  -74.6462  -86.8283 C   0  0  0  0  0  0  0  0  0  0  0  0
  110.2431  -73.3103  -87.1455 C   0  0  0  0  0  0  0  0  0  0  0  0
  109.6136  -72.5019  -88.0938 C   0  0  0  0  0  0  0  0  0  0  0  0
  108.4965  -73.0308  -88.8620 C   0  0  0  0  0  0  0  0  0  0  0  0
  108.1754  -74.3646  -88.5131 C   0  0  0  0  0  0  0  0  0  0  0  0
  108.7751  -75.2091  -87.5686 C   0  0  0  0  0  0  0  0  0  0  0  0
  111.4132  -74.2995  -80.4848 N   0  3  0  0  0  0  0  0  0  0  0  0
  112.1213  -75.1588  -79.5427 C   0  0  0  0  0  0  0  0  0  0  0  0
  110.9443  -73.0549  -79.8367 C   0  0  0  0  0  0  0  0  0  0  0  0
  112.7188  -80.5589  -87.3764 N   0  0  0  0  0  0  0  0  0  0  0  0
  113.3299  -81.5959  -86.5152 C   0  0  0  0  0  0  0  0  0  0  0  0
  112.6585  -81.0111  -88.8113 C   0  0  0  0  0  0  0  0  0  0  0  0
  1  2  1  0  0  0  0
  1 14  1  0  0  0  0
  1 21  2  0  0  0  0
  2  3  2  0  0  0  0
  3  4  1  0  0  0  0
  3 12  1  0  0  0  0
  4  5  1  0  0  0  0
  5  6  1  0  0  0  0
  5 10  2  0  0  0  0
  6  7  2  0  0  0  0
  7  8  1  0  0  0  0
  7 24  1  0  0  0  0
  8  9  2  0  0  0  0
  9 10  1  0  0  0  0
 10 11  1  0  0  0  0
 11 12  2  0  0  0  0
 11 15  1  0  0  0  0
 12 13  1  0  0  0  0
 13 14  2  0  0  0  0
 15 16  2  0  0  0  0
 15 20  1  0  0  0  0
 16 17  1  0  0  0  0
 17 18  2  0  0  0  0
 18 19  1  0  0  0  0
 19 20  2  0  0  0  0
 21 22  1  0  0  0  0
 21 23  1  0  0  0  0
 24 25  1  0  0  0  0
 24 26  1  0  0  0  0
M  CHG  1  21   1
M  END
>  <CHROM.1>
3.72555861,-123.40554327,111.08691940,-76.19020290,-85.27520401,-1.81495660
1.05708046,-2.07469392

>  <Name>
1f1t Malachite green aptamer (Xray 2.8A)

>  <RI>
0

>  <Rbt.Current_Directory>
/home/itssahil/PROJECTS/Mol_Feturizer/New_Systems/rnas/1f1t

>  <Rbt.Executable>
rbdock ($Id: //depot/dev/client3/rdock/2013.1/src/exe/rbdock.cxx#4 $)

>  <Rbt.Library>
libRbt.so (2013.1, Build901 2013/11/27)

>  <Rbt.Parameter_File>
/export/apps/rDock/src/rDock_2013.1_src/data/scripts/dock_solv.prm

>  <Rbt.Receptor>
prm/pocket_docking_2.prm

>  <SCORE>
-63.2487

>  <SCORE.INTER>
-63.3371

>  <SCORE.INTER.CONST>
1

>  <SCORE.INTER.POLAR>
0

>  <SCORE.INTER.ROT>
2

>  <SCORE.INTER.SOLV>
11.0419

>  <SCORE.INTER.VDW>
-50.8387

>  <SCORE.INTER.norm>
-2.43604

>  <SCORE.INTRA>
0.0884939

>  <SCORE.INTRA.DIHEDRAL>
-0.815236

>  <SCORE.INTRA.DIHEDRAL.0>
4.18538

>  <SCORE.INTRA.POLAR>
0

>  <SCORE.INTRA.POLAR.0>
0

>  <SCORE.INTRA.REPUL>
0

>  <SCORE.INTRA.REPUL.0>
0

>  <SCORE.INTRA.SOLV>
0.0144591

>  <SCORE.INTRA.SOLV.lig_0>
-5.16926

>  <SCORE.INTRA.VDW>
0.488882

>  <SCORE.INTRA.VDW.0>
1.11912

>  <SCORE.INTRA.norm>
0.00340361

>  <SCORE.RESTR>
0

>  <SCORE.RESTR.CAVITY>
0

>  <SCORE.RESTR.norm>
0

>  <SCORE.SYSTEM>
0

>  <SCORE.SYSTEM.CONST>
0

>  <SCORE.SYSTEM.DIHEDRAL>
0

>  <SCORE.SYSTEM.SOLV>
0

>  <SCORE.SYSTEM.norm>
0

>  <SCORE.heavy>
26

>  <SCORE.norm>
-2.43264

>  <RMSD>
0.623

$$$$
1f1t Malachite green aptamer (Xray 2.8A)
 OpenBabel11021811393D
libRbt.so/2013.1/901 2013/11/27
 26 29  0  0  0  0  0  0  0  0999 V2000
  111.2296  -74.6319  -81.8108 C   0  0  0  0  0  0  0  0  0  0  0  0
  111.7404  -75.9050  -82.2975 C   0  0  0  0  0  0  0  0  0  0  0  0
  111.4826  -76.1160  -83.6533 C   0  0  0  0  0  0  0  0  0  0  0  0
  112.0266  -77.4297  -84.0983 O   0  0  0  0  0  0  0  0  0  0  0  0
  111.7957  -77.6093  -85.3402 C   0  0  0  0  0  0  0  0  0  0  0  0
  112.3535  -78.9196  -85.6746 C   0  0  0  0  0  0  0  0  0  0  0  0
  112.1911  -79.2910  -87.0563 C   0  0  0  0  0  0  0  0  0  0  0  0
  111.5573  -78.4502  -88.0044 C   0  0  0  0  0  0  0  0  0  0  0  0
  111.0161  -77.1640  -87.6061 C   0  0  0  0  0  0  0  0  0  0  0  0
  111.1545  -76.7776  -86.2234 C   0  0  0  0  0  0  0  0  0  0  0  0
  110.5504  -75.4334  -85.8912 C   0  0  0  0  0  0  0  0  0  0  0  0
  110.8179  -75.2572  -84.5217 C   0  0  0  0  0  0  0  0  0  0  0  0
  110.3051  -73.9839  -84.0110 C   0  0  0  0  0  0  0  0  0  0  0  0
  110.5583  -73.7412  -82.6256 C   0  0  0  0  0  0  0  0  0  0  0  0
  109.9068  -74.6439  -86.8252 C   0  0  0  0  0  0  0  0  0  0  0  0
  110.2479  -73.3094  -87.1468 C   0  0  0  0  0  0  0  0  0  0  0  0
  109.6206  -72.5038  -88.0988 C   0  0  0  0  0  0  0  0  0  0  0  0
  108.5038  -73.0340  -88.8665 C   0  0  0  0  0  0  0  0  0  0  0  0
  108.1807  -74.3662  -88.5132 C   0  0  0  0  0  0  0  0  0  0  0  0
  108.7781  -75.2080  -87.5650 C   0  0  0  0  0  0  0  0  0  0  0  0
  111.4121  -74.2744  -80.4821 N   0  3  0  0  0  0  0  0  0  0  0  0
  112.1180  -75.1312  -79.5361 C   0  0  0  0  0  0  0  0  0  0  0  0
  110.9451  -73.0263  -79.8394 C   0  0  0  0  0  0  0  0  0  0  0  0
  112.7110  -80.5639  -87.3475 N   0  0  0  0  0  0  0  0  0  0  0  0
  113.3150  -81.6005  -86.4810 C   0  0  0  0  0  0  0  0  0  0  0  0
  112.6563  -81.0194  -88.7816 C   0  0  0  0  0  0  0  0  0  0  0  0
  1  2  1  0  0  0  0
  1 14  1  0  0  0  0
  1 21  2  0  0  0  0
  2  3  2  0  0  0  0
  3  4  1  0  0  0  0
  3 12  1  0  0  0  0
  4  5  1  0  0  0  0
  5  6  1  0  0  0  0
  5 10  2  0  0  0  0
  6  7  2  0  0  0  0
  7  8  1  0  0  0  0
  7 24  1  0  0  0  0
  8  9  2  0  0  0  0
  9 10  1  0  0  0  0
 10 11  1  0  0  0  0
 11 12  2  0  0  0  0
 11 15  1  0  0  0  0
 12 13  1  0  0  0  0
 13 14  2  0  0  0  0
 15 16  2  0  0  0  0
 15 20  1  0  0  0  0
 16 17  1  0  0  0  0
 17 18  2  0  0  0  0
 18 19  1  0  0  0  0
 19 20  2  0  0  0  0
 21 22  1  0  0  0  0
 21 23  1  0  0  0  0
 24 25  1  0  0  0  0
 24 26  1  0  0  0  0
M  CHG  1  21   1
M  END
>  <CHROM.1>
3.98286058,-123.45920368,111.08579006,-76.18372256,-85.26510365,-1.81451431
1.05910694,-2.07908797

>  <Name>
1f1t Malachite green aptamer (Xray 2.8A)

>  <RI>
0

>  <Rbt.Current_Directory>
/home/itssahil/PROJECTS/Mol_Feturizer/New_Systems/rnas/1f1t

>  <Rbt.Executable>
rbdock ($Id: //depot/dev/client3/rdock/2013.1/src/exe/rbdock.cxx#4 $)

>  <Rbt.Library>
libRbt.so (2013.1, Build901 2013/11/27)

>  <Rbt.Parameter_File>
/export/apps/rDock/src/rDock_2013.1_src/data/scripts/dock_solv.prm

>  <Rbt.Receptor>
prm/pocket_docking_6.prm

>  <SCORE>
-63.2684

>  <SCORE.INTER>
-63.3595

>  <SCORE.INTER.CONST>
1

>  <SCORE.INTER.POLAR>
0

>  <SCORE.INTER.ROT>
2

>  <SCORE.INTER.SOLV>
11.0399

>  <SCORE.INTER.VDW>
-50.8529

>  <SCORE.INTER.norm>
-2.4369

>  <SCORE.INTRA>
0.0910712

>  <SCORE.INTRA.DIHEDRAL>
-0.811963

>  <SCORE.INTRA.DIHEDRAL.0>
4.18538

>  <SCORE.INTRA.POLAR>
0

>  <SCORE.INTRA.POLAR.0>
0

>  <SCORE.INTRA.REPUL>
0

>  <SCORE.INTRA.REPUL.0>
0

>  <SCORE.INTRA.SOLV>
0.0145217

>  <SCORE.INTRA.SOLV.lig_0>
-5.16926

>  <SCORE.INTRA.VDW>
0.489792

>  <SCORE.INTRA.VDW.0>
1.11912

>  <SCORE.INTRA.norm>
0.00350274

>  <SCORE.RESTR>
0

>  <SCORE.RESTR.CAVITY>
0

>  <SCORE.RESTR.norm>
0

>  <SCORE.SYSTEM>
0

>  <SCORE.SYSTEM.CONST>
0

>  <SCORE.SYSTEM.DIHEDRAL>
0

>  <SCORE.SYSTEM.SOLV>
0

>  <SCORE.SYSTEM.norm>
0

>  <SCORE.heavy>
26

>  <SCORE.norm>
-2.4334

>  <RMSD>
0.624

$$$$
1f1t Malachite green aptamer (Xray 2.8A)
 OpenBabel11021811393D
libRbt.so/2013.1/901 2013/11/27
 26 29  0  0  0  0  0  0  0  0999 V2000
  111.1851  -74.6385  -81.8797 C   0  0  0  0  0  0  0  0  0  0  0  0
  111.7133  -75.9101  -82.3512 C   0  0  0  0  0  0  0  0  0  0  0  0
  111.4523  -76.1440  -83.7027 C   0  0  0  0  0  0  0  0  0  0  0  0
  112.0145  -77.4552  -84.1322 O   0  0  0  0  0  0  0  0  0  0  0  0
  111.7805  -77.6556  -85.3703 C   0  0  0  0  0  0  0  0  0  0  0  0
  112.3570  -78.9616  -85.6893 C   0  0  0  0  0  0  0  0  0  0  0  0
  112.1938  -79.3548  -87.0649 C   0  0  0  0  0  0  0  0  0  0  0  0
  111.5425  -78.5371  -88.0213 C   0  0  0  0  0  0  0  0  0  0  0  0
  110.9832  -77.2541  -87.6382 C   0  0  0  0  0  0  0  0  0  0  0  0
  111.1222  -76.8463  -86.2617 C   0  0  0  0  0  0  0  0  0  0  0  0
  110.4988  -75.5072  -85.9452 C   0  0  0  0  0  0  0  0  0  0  0  0
  110.7701  -75.3078  -84.5796 C   0  0  0  0  0  0  0  0  0  0  0  0
  110.2400  -74.0356  -84.0841 C   0  0  0  0  0  0  0  0  0  0  0  0
  110.4960  -73.7697  -82.7034 C   0  0  0  0  0  0  0  0  0  0  0  0
  109.8386  -74.7408  -86.8868 C   0  0  0  0  0  0  0  0  0  0  0  0
  108.7688  -75.1816  -87.7003 C   0  0  0  0  0  0  0  0  0  0  0  0
  108.0795  -74.4169  -88.6432 C   0  0  0  0  0  0  0  0  0  0  0  0
  108.4515  -73.0255  -88.8517 C   0  0  0  0  0  0  0  0  0  0  0  0
  109.5313  -72.6191  -88.0314 C   0  0  0  0  0  0  0  0  0  0  0  0
  110.2527  -73.3511  -87.0782 C   0  0  0  0  0  0  0  0  0  0  0  0
  111.3683  -74.2596  -80.5571 N   0  3  0  0  0  0  0  0  0  0  0  0
  112.0920  -75.0921  -79.6028 C   0  0  0  0  0  0  0  0  0  0  0  0
  110.8850  -73.0101  -79.9293 C   0  0  0  0  0  0  0  0  0  0  0  0
  112.7320  -80.6234  -87.3410 N   0  0  0  0  0  0  0  0  0  0  0  0
  113.3287  -81.6510  -86.4587 C   0  0  0  0  0  0  0  0  0  0  0  0
  112.7107  -81.0842  -88.7742 C   0  0  0  0  0  0  0  0  0  0  0  0
  1  2  1  0  0  0  0
  1 14  1  0  0  0  0
  1 21  2  0  0  0  0
  2  3  2  0  0  0  0
  3  4  1  0  0  0  0
  3 12  1  0  0  0  0
  4  5  1  0  0  0  0
  5  6  1  0  0  0  0
  5 10  2  0  0  0  0
  6  7  2  0  0  0  0
  7  8  1  0  0  0  0
  7 24  1  0  0  0  0
  8  9  2  0  0  0  0
  9 10  1  0  0  0  0
 10 11  1  0  0  0  0
 11 12  2  0  0  0  0
 11 15  1  0  0  0  0
 12 13  1  0  0  0  0
 13 14  2  0  0  0  0
 15 16  2  0  0  0  0
 15 20  1  0  0  0  0
 16 17  1  0  0  0  0
 17 18  2  0  0  0  0
 18 19  1  0  0  0  0
 19 20  2  0  0  0  0
 21 22  1  0  0  0  0
 21 23  1  0  0  0  0
 24 25  1  0  0  0  0
 24 26  1  0  0  0  0
M  CHG  1  21   1
M  END
>  <CHROM.1>
5.56701842,53.94664678,111.05655580,-76.22265925,-85.30244857,-1.84108930
1.04835128,-2.08425782

>  <Name>
1f1t Malachite green aptamer (Xray 2.8A)

>  <RI>
0

>  <Rbt.Current_Directory>
/home/itssahil/PROJECTS/Mol_Feturizer/New_Systems/rnas/1f1t

>  <Rbt.Executable>
rbdock ($Id: //depot/dev/client3/rdock/2013.1/src/exe/rbdock.cxx#4 $)

>  <Rbt.Library>
libRbt.so (2013.1, Build901 2013/11/27)

>  <Rbt.Parameter_File>
/export/apps/rDock/src/rDock_2013.1_src/data/scripts/dock_solv.prm

>  <Rbt.Receptor>
prm/pocket_docking_2.prm

>  <SCORE>
-62.787

>  <SCORE.INTER>
-62.8343

>  <SCORE.INTER.CONST>
1

>  <SCORE.INTER.POLAR>
0

>  <SCORE.INTER.ROT>
2

>  <SCORE.INTER.SOLV>
11.0193

>  <SCORE.INTER.VDW>
-50.4959

>  <SCORE.INTER.norm>
-2.4167

>  <SCORE.INTRA>
0.0472795

>  <SCORE.INTRA.DIHEDRAL>
-0.959373

>  <SCORE.INTRA.DIHEDRAL.0>
4.18538

>  <SCORE.INTRA.POLAR>
0

>  <SCORE.INTRA.POLAR.0>
0

>  <SCORE.INTRA.REPUL>
0

>  <SCORE.INTRA.REPUL.0>
0

>  <SCORE.INTRA.SOLV>
0.0174921

>  <SCORE.INTRA.SOLV.lig_0>
-5.16926

>  <SCORE.INTRA.VDW>
0.51822

>  <SCORE.INTRA.VDW.0>
1.11912

>  <SCORE.INTRA.norm>
0.00181844

>  <SCORE.RESTR>
0

>  <SCORE.RESTR.CAVITY>
0

>  <SCORE.RESTR.norm>
0

>  <SCORE.SYSTEM>
0

>  <SCORE.SYSTEM.CONST>
0

>  <SCORE.SYSTEM.DIHEDRAL>
0

>  <SCORE.SYSTEM.SOLV>
0

>  <SCORE.SYSTEM.norm>
0

>  <SCORE.heavy>
26

>  <SCORE.norm>
-2.41488

>  <RMSD>
0.628

$$$$
1f1t Malachite green aptamer (Xray 2.8A)
 OpenBabel11021811393D
libRbt.so/2013.1/901 2013/11/27
 26 29  0  0  0  0  0  0  0  0999 V2000
  111.2230  -74.6385  -81.8283 C   0  0  0  0  0  0  0  0  0  0  0  0
  111.7349  -75.9112  -82.3145 C   0  0  0  0  0  0  0  0  0  0  0  0
  111.4769  -76.1232  -83.6702 C   0  0  0  0  0  0  0  0  0  0  0  0
  112.0220  -77.4366  -84.1147 O   0  0  0  0  0  0  0  0  0  0  0  0
  111.7910  -77.6170  -85.3564 C   0  0  0  0  0  0  0  0  0  0  0  0
  112.3500  -78.9269  -85.6903 C   0  0  0  0  0  0  0  0  0  0  0  0
  112.1876  -79.2992  -87.0719 C   0  0  0  0  0  0  0  0  0  0  0  0
  111.5526  -78.4595  -88.0201 C   0  0  0  0  0  0  0  0  0  0  0  0
  111.0102  -77.1737  -87.6223 C   0  0  0  0  0  0  0  0  0  0  0  0
  111.1487  -76.7864  -86.2399 C   0  0  0  0  0  0  0  0  0  0  0  0
  110.5433  -75.4427  -85.9081 C   0  0  0  0  0  0  0  0  0  0  0  0
  110.8110  -75.2655  -84.5388 C   0  0  0  0  0  0  0  0  0  0  0  0
  110.2971  -73.9925  -84.0286 C   0  0  0  0  0  0  0  0  0  0  0  0
  110.5504  -73.7489  -82.6434 C   0  0  0  0  0  0  0  0  0  0  0  0
  109.8986  -74.6543  -86.8423 C   0  0  0  0  0  0  0  0  0  0  0  0
  110.2368  -73.3189  -87.1631 C   0  0  0  0  0  0  0  0  0  0  0  0
  109.6085  -72.5143  -88.1153 C   0  0  0  0  0  0  0  0  0  0  0  0
  108.4935  -73.0468  -88.8840 C   0  0  0  0  0  0  0  0  0  0  0  0
  108.1731  -74.3799  -88.5315 C   0  0  0  0  0  0  0  0  0  0  0  0
  108.7718  -75.2207  -87.5832 C   0  0  0  0  0  0  0  0  0  0  0  0
  111.4055  -74.2801  -80.4999 N   0  3  0  0  0  0  0  0  0  0  0  0
  112.1126  -75.1357  -79.5536 C   0  0  0  0  0  0  0  0  0  0  0  0
  110.9374  -73.0322  -79.8576 C   0  0  0  0  0  0  0  0  0  0  0  0
  112.7087  -80.5717  -87.3626 N   0  0  0  0  0  0  0  0  0  0  0  0
  113.3143  -81.6071  -86.4957 C   0  0  0  0  0  0  0  0  0  0  0  0
  112.6537  -81.0280  -88.7963 C   0  0  0  0  0  0  0  0  0  0  0  0
  1  2  1  0  0  0  0
  1 14  1  0  0  0  0
  1 21  2  0  0  0  0
  2  3  2  0  0  0  0
  3  4  1  0  0  0  0
  3 12  1  0  0  0  0
  4  5  1  0  0  0  0
  5  6  1  0  0  0  0
  5 10  2  0  0  0  0
  6  7  2  0  0  0  0
  7  8  1  0  0  0  0
  7 24  1  0  0  0  0
  8  9  2  0  0  0  0
  9 10  1  0  0  0  0
 10 11  1  0  0  0  0
 11 12  2  0  0  0  0
 11 15  1  0  0  0  0
 12 13  1  0  0  0  0
 13 14  2  0  0  0  0
 15 16  2  0  0  0  0
 15 20  1  0  0  0  0
 16 17  1  0  0  0  0
 17 18  2  0  0  0  0
 18 19  1  0  0  0  0
 19 20  2  0  0  0  0
 21 22  1  0  0  0  0
 21 23  1  0  0  0  0
 24 25  1  0  0  0  0
 24 26  1  0  0  0  0
M  CHG  1  21   1
M  END
>  <CHROM.1>
3.96924389,-123.56919892,111.07963854,-76.19214107,-85.28182517,-1.81494880
1.05807433,-2.07921061

>  <Name>
1f1t Malachite green aptamer (Xray 2.8A)

>  <RI>
0

>  <Rbt.Current_Directory>
/home/itssahil/PROJECTS/Mol_Feturizer/New_Systems/rnas/1f1t

>  <Rbt.Executable>
rbdock ($Id: //depot/dev/client3/rdock/2013.1/src/exe/rbdock.cxx#4 $)

>  <Rbt.Library>
libRbt.so (2013.1, Build901 2013/11/27)

>  <Rbt.Parameter_File>
/export/apps/rDock/src/rDock_2013.1_src/data/scripts/dock_solv.prm

>  <Rbt.Receptor>
prm/pocket_docking_4.prm

>  <SCORE>
-63.2603

>  <SCORE.INTER>
-63.3538

>  <SCORE.INTER.CONST>
1

>  <SCORE.INTER.POLAR>
0

>  <SCORE.INTER.ROT>
2

>  <SCORE.INTER.SOLV>
11.0493

>  <SCORE.INTER.VDW>
-50.8523

>  <SCORE.INTER.norm>
-2.43669

>  <SCORE.INTRA>
0.0935611

>  <SCORE.INTRA.DIHEDRAL>
-0.820894

>  <SCORE.INTRA.DIHEDRAL.0>
4.18538

>  <SCORE.INTRA.POLAR>
0

>  <SCORE.INTRA.POLAR.0>
0

>  <SCORE.INTRA.REPUL>
0

>  <SCORE.INTRA.REPUL.0>
0

>  <SCORE.INTRA.SOLV>
0.0146497

>  <SCORE.INTRA.SOLV.lig_0>
-5.16926

>  <SCORE.INTRA.VDW>
0.496683

>  <SCORE.INTRA.VDW.0>
1.11912

>  <SCORE.INTRA.norm>
0.0035985

>  <SCORE.RESTR>
0

>  <SCORE.RESTR.CAVITY>
0

>  <SCORE.RESTR.norm>
0

>  <SCORE.SYSTEM>
0

>  <SCORE.SYSTEM.CONST>
0

>  <SCORE.SYSTEM.DIHEDRAL>
0

>  <SCORE.SYSTEM.SOLV>
0

>  <SCORE.SYSTEM.norm>
0

>  <SCORE.heavy>
26

>  <SCORE.norm>
-2.43309

>  <RMSD>
0.628

$$$$
1f1t Malachite green aptamer (Xray 2.8A)
 OpenBabel11021811393D
libRbt.so/2013.1/901 2013/11/27
 26 29  0  0  0  0  0  0  0  0999 V2000
  111.2284  -74.6328  -81.8192 C   0  0  0  0  0  0  0  0  0  0  0  0
  111.7389  -75.9059  -82.3060 C   0  0  0  0  0  0  0  0  0  0  0  0
  111.4809  -76.1168  -83.6619 C   0  0  0  0  0  0  0  0  0  0  0  0
  112.0245  -77.4305  -84.1070 O   0  0  0  0  0  0  0  0  0  0  0  0
  111.7936  -77.6100  -85.3490 C   0  0  0  0  0  0  0  0  0  0  0  0
  112.3510  -78.9203  -85.6835 C   0  0  0  0  0  0  0  0  0  0  0  0
  112.1885  -79.2916  -87.0653 C   0  0  0  0  0  0  0  0  0  0  0  0
  111.5549  -78.4504  -88.0132 C   0  0  0  0  0  0  0  0  0  0  0  0
  111.0141  -77.1642  -87.6148 C   0  0  0  0  0  0  0  0  0  0  0  0
  111.1527  -76.7779  -86.2321 C   0  0  0  0  0  0  0  0  0  0  0  0
  110.5490  -75.4336  -85.8997 C   0  0  0  0  0  0  0  0  0  0  0  0
  110.8165  -75.2576  -84.5301 C   0  0  0  0  0  0  0  0  0  0  0  0
  110.3041  -73.9842  -84.0194 C   0  0  0  0  0  0  0  0  0  0  0  0
  110.5574  -73.7418  -82.6339 C   0  0  0  0  0  0  0  0  0  0  0  0
  109.9056  -74.6437  -86.8336 C   0  0  0  0  0  0  0  0  0  0  0  0
  110.2514  -73.3116  -87.1599 C   0  0  0  0  0  0  0  0  0  0  0  0
  109.6244  -72.5058  -88.1119 C   0  0  0  0  0  0  0  0  0  0  0  0
  108.5027  -73.0332  -88.8744 C   0  0  0  0  0  0  0  0  0  0  0  0
  108.1750  -74.3630  -88.5165 C   0  0  0  0  0  0  0  0  0  0  0  0
  108.7721  -75.2049  -87.5681 C   0  0  0  0  0  0  0  0  0  0  0  0
  111.4111  -74.2755  -80.4905 N   0  3  0  0  0  0  0  0  0  0  0  0
  112.1167  -75.1326  -79.5445 C   0  0  0  0  0  0  0  0  0  0  0  0
  110.9444  -73.0273  -79.8476 C   0  0  0  0  0  0  0  0  0  0  0  0
  112.7079  -80.5646  -87.3566 N   0  0  0  0  0  0  0  0  0  0  0  0
  113.3212  -81.5972  -86.4917 C   0  0  0  0  0  0  0  0  0  0  0  0
  112.6416  -81.0251  -88.7885 C   0  0  0  0  0  0  0  0  0  0  0  0
  1  2  1  0  0  0  0
  1 14  1  0  0  0  0
  1 21  2  0  0  0  0
  2  3  2  0  0  0  0
  3  4  1  0  0  0  0
  3 12  1  0  0  0  0
  4  5  1  0  0  0  0
  5  6  1  0  0  0  0
  5 10  2  0  0  0  0
  6  7  2  0  0  0  0
  7  8  1  0  0  0  0
  7 24  1  0  0  0  0
  8  9  2  0  0  0  0
  9 10  1  0  0  0  0
 10 11  1  0  0  0  0
 11 12  2  0  0  0  0
 11 15  1  0  0  0  0
 12 13  1  0  0  0  0
 13 14  2  0  0  0  0
 15 16  2  0  0  0  0
 15 20  1  0  0  0  0
 16 17  1  0  0  0  0
 17 18  2  0  0  0  0
 18 19  1  0  0  0  0
 19 20  2  0  0  0  0
 21 22  1  0  0  0  0
 21 23  1  0  0  0  0
 24 25  1  0  0  0  0
 24 26  1  0  0  0  0
M  CHG  1  21   1
M  END
>  <CHROM.1>
3.43420819,-123.12231569,111.08397811,-76.18418091,-85.27361134,-1.81397700
1.05923972,-2.07947450

>  <Name>
1f1t Malachite green aptamer (Xray 2.8A)

>  <RI>
0

>  <Rbt.Current_Directory>
/home/itssahil/PROJECTS/Mol_Feturizer/New_Systems/rnas/1f1t

>  <Rbt.Executable>
rbdock ($Id: //depot/dev/client3/rdock/2013.1/src/exe/rbdock.cxx#4 $)

>  <Rbt.Library>
libRbt.so (2013.1, Build901 2013/11/27)

>  <Rbt.Parameter_File>
/export/apps/rDock/src/rDock_2013.1_src/data/scripts/dock_solv.prm

>  <Rbt.Receptor>
prm/pocket_docking_7.prm

>  <SCORE>
-63.2589

>  <SCORE.INTER>
-63.3397

>  <SCORE.INTER.CONST>
1

>  <SCORE.INTER.POLAR>
0

>  <SCORE.INTER.ROT>
2

>  <SCORE.INTER.SOLV>
11.0596

>  <SCORE.INTER.VDW>
-50.8463

>  <SCORE.INTER.norm>
-2.43614

>  <SCORE.INTRA>
0.0807487

>  <SCORE.INTRA.DIHEDRAL>
-0.801155

>  <SCORE.INTRA.DIHEDRAL.0>
4.18538

>  <SCORE.INTRA.POLAR>
0

>  <SCORE.INTRA.POLAR.0>
0

>  <SCORE.INTRA.REPUL>
0

>  <SCORE.INTRA.REPUL.0>
0

>  <SCORE.INTRA.SOLV>
0.0141289

>  <SCORE.INTRA.SOLV.lig_0>
-5.16926

>  <SCORE.INTRA.VDW>
0.474262

>  <SCORE.INTRA.VDW.0>
1.11912

>  <SCORE.INTRA.norm>
0.00310572

>  <SCORE.RESTR>
0

>  <SCORE.RESTR.CAVITY>
0

>  <SCORE.RESTR.norm>
0

>  <SCORE.SYSTEM>
0

>  <SCORE.SYSTEM.CONST>
0

>  <SCORE.SYSTEM.DIHEDRAL>
0

>  <SCORE.SYSTEM.SOLV>
0

>  <SCORE.SYSTEM.norm>
0

>  <SCORE.heavy>
26

>  <SCORE.norm>
-2.43304

>  <RMSD>
0.628

$$$$
1f1t Malachite green aptamer (Xray 2.8A)
 OpenBabel11021811393D
libRbt.so/2013.1/901 2013/11/27
 26 29  0  0  0  0  0  0  0  0999 V2000
  111.2258  -74.6331  -81.8171 C   0  0  0  0  0  0  0  0  0  0  0  0
  111.7366  -75.9058  -82.3044 C   0  0  0  0  0  0  0  0  0  0  0  0
  111.4793  -76.1159  -83.6605 C   0  0  0  0  0  0  0  0  0  0  0  0
  112.0233  -77.4294  -84.1062 O   0  0  0  0  0  0  0  0  0  0  0  0
  111.7929  -77.6081  -85.3483 C   0  0  0  0  0  0  0  0  0  0  0  0
  112.3506  -78.9182  -85.6834 C   0  0  0  0  0  0  0  0  0  0  0  0
  112.1888  -79.2887  -87.0655 C   0  0  0  0  0  0  0  0  0  0  0  0
  111.5555  -78.4471  -88.0132 C   0  0  0  0  0  0  0  0  0  0  0  0
  111.0142  -77.1611  -87.6142 C   0  0  0  0  0  0  0  0  0  0  0  0
  111.1522  -76.7756  -86.2312 C   0  0  0  0  0  0  0  0  0  0  0  0
  110.5481  -75.4317  -85.8983 C   0  0  0  0  0  0  0  0  0  0  0  0
  110.8151  -75.2564  -84.5286 C   0  0  0  0  0  0  0  0  0  0  0  0
  110.3023  -73.9834  -84.0173 C   0  0  0  0  0  0  0  0  0  0  0  0
  110.5549  -73.7417  -82.6316 C   0  0  0  0  0  0  0  0  0  0  0  0
  109.9050  -74.6413  -86.8321 C   0  0  0  0  0  0  0  0  0  0  0  0
  110.2460  -73.3065  -87.1521 C   0  0  0  0  0  0  0  0  0  0  0  0
  109.6192  -72.5001  -88.1038 C   0  0  0  0  0  0  0  0  0  0  0  0
  108.5032  -73.0298  -88.8728 C   0  0  0  0  0  0  0  0  0  0  0  0
  108.1801  -74.3625  -88.5211 C   0  0  0  0  0  0  0  0  0  0  0  0
  108.7771  -75.2051  -87.5732 C   0  0  0  0  0  0  0  0  0  0  0  0
  111.4078  -74.2765  -80.4881 N   0  3  0  0  0  0  0  0  0  0  0  0
  112.1132  -75.1340  -79.5424 C   0  0  0  0  0  0  0  0  0  0  0  0
  110.9407  -73.0287  -79.8447 C   0  0  0  0  0  0  0  0  0  0  0  0
  112.7086  -80.5614  -87.3573 N   0  0  0  0  0  0  0  0  0  0  0  0
  113.3194  -81.5955  -86.4924 C   0  0  0  0  0  0  0  0  0  0  0  0
  112.6456  -81.0199  -88.7901 C   0  0  0  0  0  0  0  0  0  0  0  0
  1  2  1  0  0  0  0
  1 14  1  0  0  0  0
  1 21  2  0  0  0  0
  2  3  2  0  0  0  0
  3  4  1  0  0  0  0
  3 12  1  0  0  0  0
  4  5  1  0  0  0  0
  5  6  1  0  0  0  0
  5 10  2  0  0  0  0
  6  7  2  0  0  0  0
  7  8  1  0  0  0  0
  7 24  1  0  0  0  0
  8  9  2  0  0  0  0
  9 10  1  0  0  0  0
 10 11  1  0  0  0  0
 11 12  2  0  0  0  0
 11 15  1  0  0  0  0
 12 13  1  0  0  0  0
 13 14  2  0  0  0  0
 15 16  2  0  0  0  0
 15 20  1  0  0  0  0
 16 17  1  0  0  0  0
 17 18  2  0  0  0  0
 18 19  1  0  0  0  0
 19 20  2  0  0  0  0
 21 22  1  0  0  0  0
 21 23  1  0  0  0  0
 24 25  1  0  0  0  0
 24 26  1  0  0  0  0
M  CHG  1  21   1
M  END
>  <CHROM.1>
3.56324258,-123.49587650,111.08308429,-76.18248621,-85.27251759,-1.81487259
1.05935928,-2.07812550

>  <Name>
1f1t Malachite green aptamer (Xray 2.8A)

>  <RI>
0

>  <Rbt.Current_Directory>
/home/itssahil/PROJECTS/Mol_Feturizer/New_Systems/rnas/1f1t

>  <Rbt.Executable>
rbdock ($Id: //depot/dev/client3/rdock/2013.1/src/exe/rbdock.cxx#4 $)

>  <Rbt.Library>
libRbt.so (2013.1, Build901 2013/11/27)

>  <Rbt.Parameter_File>
/export/apps/rDock/src/rDock_2013.1_src/data/scripts/dock_solv.prm

>  <Rbt.Receptor>
prm/pocket_docking_3.prm

>  <SCORE>
-63.2634

>  <SCORE.INTER>
-63.3532

>  <SCORE.INTER.CONST>
1

>  <SCORE.INTER.POLAR>
0

>  <SCORE.INTER.ROT>
2

>  <SCORE.INTER.SOLV>
11.0585

>  <SCORE.INTER.VDW>
-50.855

>  <SCORE.INTER.norm>
-2.43666

>  <SCORE.INTRA>
0.0897776

>  <SCORE.INTRA.DIHEDRAL>
-0.826653

>  <SCORE.INTRA.DIHEDRAL.0>
4.18538

>  <SCORE.INTRA.POLAR>
0

>  <SCORE.INTRA.POLAR.0>
0

>  <SCORE.INTRA.REPUL>
0

>  <SCORE.INTRA.REPUL.0>
0

>  <SCORE.INTRA.SOLV>
0.0145643

>  <SCORE.INTRA.SOLV.lig_0>
-5.16926

>  <SCORE.INTRA.VDW>
0.495822

>  <SCORE.INTRA.VDW.0>
1.11912

>  <SCORE.INTRA.norm>
0.00345299

>  <SCORE.RESTR>
0

>  <SCORE.RESTR.CAVITY>
0

>  <SCORE.RESTR.norm>
0

>  <SCORE.SYSTEM>
0

>  <SCORE.SYSTEM.CONST>
0

>  <SCORE.SYSTEM.DIHEDRAL>
0

>  <SCORE.SYSTEM.SOLV>
0

>  <SCORE.SYSTEM.norm>
0

>  <SCORE.heavy>
26

>  <SCORE.norm>
-2.43321

>  <RMSD>
0.629

$$$$
1f1t Malachite green aptamer (Xray 2.8A)
 OpenBabel11021811393D
libRbt.so/2013.1/901 2013/11/27
 26 29  0  0  0  0  0  0  0  0999 V2000
  111.2330  -74.6513  -81.8306 C   0  0  0  0  0  0  0  0  0  0  0  0
  111.7458  -75.9217  -82.3220 C   0  0  0  0  0  0  0  0  0  0  0  0
  111.4853  -76.1297  -83.6779 C   0  0  0  0  0  0  0  0  0  0  0  0
  112.0315  -77.4407  -84.1278 O   0  0  0  0  0  0  0  0  0  0  0  0
  111.7982  -77.6175  -85.3696 C   0  0  0  0  0  0  0  0  0  0  0  0
  112.3585  -78.9254  -85.7089 C   0  0  0  0  0  0  0  0  0  0  0  0
  112.1938  -79.2935  -87.0913 C   0  0  0  0  0  0  0  0  0  0  0  0
  111.5557  -78.4516  -88.0355 C   0  0  0  0  0  0  0  0  0  0  0  0
  111.0121  -77.1680  -87.6324 C   0  0  0  0  0  0  0  0  0  0  0  0
  111.1529  -76.7849  -86.2490 C   0  0  0  0  0  0  0  0  0  0  0  0
  110.5462  -75.4433  -85.9117 C   0  0  0  0  0  0  0  0  0  0  0  0
  110.8164  -75.2701  -84.5423 C   0  0  0  0  0  0  0  0  0  0  0  0
  110.3017  -73.9995  -84.0269 C   0  0  0  0  0  0  0  0  0  0  0  0
  110.5575  -73.7600  -82.6414 C   0  0  0  0  0  0  0  0  0  0  0  0
  109.8984  -74.6527  -86.8420 C   0  0  0  0  0  0  0  0  0  0  0  0
  110.2351  -73.3164  -87.1603 C   0  0  0  0  0  0  0  0  0  0  0  0
  109.6036  -72.5097  -88.1086 C   0  0  0  0  0  0  0  0  0  0  0  0
  108.4867  -73.0407  -88.8755 C   0  0  0  0  0  0  0  0  0  0  0  0
  108.1680  -74.3749  -88.5255 C   0  0  0  0  0  0  0  0  0  0  0  0
  108.7698  -75.2178  -87.5810 C   0  0  0  0  0  0  0  0  0  0  0  0
  111.4177  -74.2970  -80.5015 N   0  3  0  0  0  0  0  0  0  0  0  0
  112.1279  -75.1546  -79.5594 C   0  0  0  0  0  0  0  0  0  0  0  0
  110.9491  -73.0518  -79.8541 C   0  0  0  0  0  0  0  0  0  0  0  0
  112.7162  -80.5643  -87.3872 N   0  0  0  0  0  0  0  0  0  0  0  0
  113.3155  -81.6059  -86.5234 C   0  0  0  0  0  0  0  0  0  0  0  0
  112.6705  -81.0108  -88.8244 C   0  0  0  0  0  0  0  0  0  0  0  0
  1  2  1  0  0  0  0
  1 14  1  0  0  0  0
  1 21  2  0  0  0  0
  2  3  2  0  0  0  0
  3  4  1  0  0  0  0
  3 12  1  0  0  0  0
  4  5  1  0  0  0  0
  5  6  1  0  0  0  0
  5 10  2  0  0  0  0
  6  7  2  0  0  0  0
  7  8  1  0  0  0  0
  7 24  1  0  0  0  0
  8  9  2  0  0  0  0
  9 10  1  0  0  0  0
 10 11  1  0  0  0  0
 11 12  2  0  0  0  0
 11 15  1  0  0  0  0
 12 13  1  0  0  0  0
 13 14  2  0  0  0  0
 15 16  2  0  0  0  0
 15 20  1  0  0  0  0
 16 17  1  0  0  0  0
 17 18  2  0  0  0  0
 18 19  1  0  0  0  0
 19 20  2  0  0  0  0
 21 22  1  0  0  0  0
 21 23  1  0  0  0  0
 24 25  1  0  0  0  0
 24 26  1  0  0  0  0
M  CHG  1  21   1
M  END
>  <CHROM.1>
4.51802738,-123.48369442,111.08499921,-76.19389216,-85.28892740,-1.81310078
1.05588369,-2.07751705

>  <Name>
1f1t Malachite green aptamer (Xray 2.8A)

>  <RI>
0

>  <Rbt.Current_Directory>
/home/itssahil/PROJECTS/Mol_Feturizer/New_Systems/rnas/1f1t

>  <Rbt.Executable>
rbdock ($Id: //depot/dev/client3/rdock/2013.1/src/exe/rbdock.cxx#4 $)

>  <Rbt.Library>
libRbt.so (2013.1, Build901 2013/11/27)

>  <Rbt.Parameter_File>
/export/apps/rDock/src/rDock_2013.1_src/data/scripts/dock_solv.prm

>  <Rbt.Receptor>
prm/pocket_docking_3.prm

>  <SCORE>
-63.26

>  <SCORE.INTER>
-63.3547

>  <SCORE.INTER.CONST>
1

>  <SCORE.INTER.POLAR>
0

>  <SCORE.INTER.ROT>
2

>  <SCORE.INTER.SOLV>
11.047

>  <SCORE.INTER.VDW>
-50.8522

>  <SCORE.INTER.norm>
-2.43672

>  <SCORE.INTRA>
0.0947289

>  <SCORE.INTRA.DIHEDRAL>
-0.796773

>  <SCORE.INTRA.DIHEDRAL.0>
4.18538

>  <SCORE.INTRA.POLAR>
0

>  <SCORE.INTRA.POLAR.0>
0

>  <SCORE.INTRA.REPUL>
0

>  <SCORE.INTRA.REPUL.0>
0

>  <SCORE.INTRA.SOLV>
0.0145505

>  <SCORE.INTRA.SOLV.lig_0>
-5.16926

>  <SCORE.INTRA.VDW>
0.48584

>  <SCORE.INTRA.VDW.0>
1.11912

>  <SCORE.INTRA.norm>
0.00364342

>  <SCORE.RESTR>
0

>  <SCORE.RESTR.CAVITY>
0

>  <SCORE.RESTR.norm>
0

>  <SCORE.SYSTEM>
0

>  <SCORE.SYSTEM.CONST>
0

>  <SCORE.SYSTEM.DIHEDRAL>
0

>  <SCORE.SYSTEM.SOLV>
0

>  <SCORE.SYSTEM.norm>
0

>  <SCORE.heavy>
26

>  <SCORE.norm>
-2.43308

>  <RMSD>
0.629

$$$$
1f1t Malachite green aptamer (Xray 2.8A)
 OpenBabel11021811393D
libRbt.so/2013.1/901 2013/11/27
 26 29  0  0  0  0  0  0  0  0999 V2000
  111.2390  -74.6301  -81.8187 C   0  0  0  0  0  0  0  0  0  0  0  0
  111.7523  -75.9012  -82.3078 C   0  0  0  0  0  0  0  0  0  0  0  0
  111.4922  -76.1116  -83.6633 C   0  0  0  0  0  0  0  0  0  0  0  0
  112.0388  -77.4233  -84.1108 O   0  0  0  0  0  0  0  0  0  0  0  0
  111.8058  -77.6023  -85.3524 C   0  0  0  0  0  0  0  0  0  0  0  0
  112.3665  -78.9106  -85.6893 C   0  0  0  0  0  0  0  0  0  0  0  0
  112.2022  -79.2811  -87.0711 C   0  0  0  0  0  0  0  0  0  0  0  0
  111.5642  -78.4410  -88.0170 C   0  0  0  0  0  0  0  0  0  0  0  0
  111.0202  -77.1567  -87.6162 C   0  0  0  0  0  0  0  0  0  0  0  0
  111.1605  -76.7713  -86.2334 C   0  0  0  0  0  0  0  0  0  0  0  0
  110.5534  -75.4292  -85.8985 C   0  0  0  0  0  0  0  0  0  0  0  0
  110.8233  -75.2537  -84.5294 C   0  0  0  0  0  0  0  0  0  0  0  0
  110.3081  -73.9823  -84.0164 C   0  0  0  0  0  0  0  0  0  0  0  0
  110.5635  -73.7404  -82.6312 C   0  0  0  0  0  0  0  0  0  0  0  0
  109.9058  -74.6404  -86.8304 C   0  0  0  0  0  0  0  0  0  0  0  0
  110.2376  -73.3022  -87.1457 C   0  0  0  0  0  0  0  0  0  0  0  0
  109.6062  -72.4971  -88.0954 C   0  0  0  0  0  0  0  0  0  0  0  0
  108.4947  -73.0322  -88.8674 C   0  0  0  0  0  0  0  0  0  0  0  0
  108.1807  -74.3682  -88.5204 C   0  0  0  0  0  0  0  0  0  0  0  0
  108.7826  -75.2096  -87.5746 C   0  0  0  0  0  0  0  0  0  0  0  0
  111.4233  -74.2734  -80.4901 N   0  3  0  0  0  0  0  0  0  0  0  0
  112.1335  -75.1293  -79.5464 C   0  0  0  0  0  0  0  0  0  0  0  0
  110.9542  -73.0273  -79.8450 C   0  0  0  0  0  0  0  0  0  0  0  0
  112.7249  -80.5522  -87.3647 N   0  0  0  0  0  0  0  0  0  0  0  0
  113.3309  -81.5893  -86.5001 C   0  0  0  0  0  0  0  0  0  0  0  0
  112.6717  -81.0049  -88.7997 C   0  0  0  0  0  0  0  0  0  0  0  0
  1  2  1  0  0  0  0
  1 14  1  0  0  0  0
  1 21  2  0  0  0  0
  2  3  2  0  0  0  0
  3  4  1  0  0  0  0
  3 12  1  0  0  0  0
  4  5  1  0  0  0  0
  5  6  1  0  0  0  0
  5 10  2  0  0  0  0
  6  7  2  0  0  0  0
  7  8  1  0  0  0  0
  7 24  1  0  0  0  0
  8  9  2  0  0  0  0
  9 10  1  0  0  0  0
 10 11  1  0  0  0  0
 11 12  2  0  0  0  0
 11 15  1  0  0  0  0
 12 13  1  0  0  0  0
 13 14  2  0  0  0  0
 15 16  2  0  0  0  0
 15 20  1  0  0  0  0
 16 17  1  0  0  0  0
 17 18  2  0  0  0  0
 18 19  1  0  0  0  0
 19 20  2  0  0  0  0
 21 22  1  0  0  0  0
 21 23  1  0  0  0  0
 24 25  1  0  0  0  0
 24 26  1  0  0  0  0
M  CHG  1  21   1
M  END
>  <CHROM.1>
4.13719729,-123.85091790,111.09225833,-76.17866969,-85.27440010,-1.81351144
1.05580283,-2.07892569

>  <Name>
1f1t Malachite green aptamer (Xray 2.8A)

>  <RI>
0

>  <Rbt.Current_Directory>
/home/itssahil/PROJECTS/Mol_Feturizer/New_Systems/rnas/1f1t

>  <Rbt.Executable>
rbdock ($Id: //depot/dev/client3/rdock/2013.1/src/exe/rbdock.cxx#4 $)

>  <Rbt.Library>
libRbt.so (2013.1, Build901 2013/11/27)

>  <Rbt.Parameter_File>
/export/apps/rDock/src/rDock_2013.1_src/data/scripts/dock_solv.prm

>  <Rbt.Receptor>
prm/pocket_docking_3.prm

>  <SCORE>
-63.2515

>  <SCORE.INTER>
-63.3528

>  <SCORE.INTER.CONST>
1

>  <SCORE.INTER.POLAR>
0

>  <SCORE.INTER.ROT>
2

>  <SCORE.INTER.SOLV>
11.0627

>  <SCORE.INTER.VDW>
-50.8561

>  <SCORE.INTER.norm>
-2.43665

>  <SCORE.INTRA>
0.10126

>  <SCORE.INTRA.DIHEDRAL>
-0.837684

>  <SCORE.INTRA.DIHEDRAL.0>
4.18538

>  <SCORE.INTRA.POLAR>
0

>  <SCORE.INTRA.POLAR.0>
0

>  <SCORE.INTRA.REPUL>
0

>  <SCORE.INTRA.REPUL.0>
0

>  <SCORE.INTRA.SOLV>
0.0149775

>  <SCORE.INTRA.SOLV.lig_0>
-5.16926

>  <SCORE.INTRA.VDW>
0.512613

>  <SCORE.INTRA.VDW.0>
1.11912

>  <SCORE.INTRA.norm>
0.0038946

>  <SCORE.RESTR>
0

>  <SCORE.RESTR.CAVITY>
0

>  <SCORE.RESTR.norm>
0

>  <SCORE.SYSTEM>
0

>  <SCORE.SYSTEM.CONST>
0

>  <SCORE.SYSTEM.DIHEDRAL>
0

>  <SCORE.SYSTEM.SOLV>
0

>  <SCORE.SYSTEM.norm>
0

>  <SCORE.heavy>
26

>  <SCORE.norm>
-2.43275

>  <RMSD>
0.630

$$$$
1f1t Malachite green aptamer (Xray 2.8A)
 OpenBabel11021811393D
libRbt.so/2013.1/901 2013/11/27
 26 29  0  0  0  0  0  0  0  0999 V2000
  111.2594  -74.6290  -81.8241 C   0  0  0  0  0  0  0  0  0  0  0  0
  111.7613  -75.9052  -82.3117 C   0  0  0  0  0  0  0  0  0  0  0  0
  111.4936  -76.1178  -83.6654 C   0  0  0  0  0  0  0  0  0  0  0  0
  112.0287  -77.4347  -84.1114 O   0  0  0  0  0  0  0  0  0  0  0  0
  111.7889  -77.6157  -85.3514 C   0  0  0  0  0  0  0  0  0  0  0  0
  112.3385  -78.9291  -85.6868 C   0  0  0  0  0  0  0  0  0  0  0  0
  112.1654  -79.3025  -87.0667 C   0  0  0  0  0  0  0  0  0  0  0  0
  111.5291  -78.4606  -88.0122 C   0  0  0  0  0  0  0  0  0  0  0  0
  110.9963  -77.1713  -87.6129 C   0  0  0  0  0  0  0  0  0  0  0  0
  111.1456  -76.7828  -86.2320 C   0  0  0  0  0  0  0  0  0  0  0  0
  110.5497  -75.4353  -85.8984 C   0  0  0  0  0  0  0  0  0  0  0  0
  110.8270  -75.2576  -84.5310 C   0  0  0  0  0  0  0  0  0  0  0  0
  110.3233  -73.9810  -84.0195 C   0  0  0  0  0  0  0  0  0  0  0  0
  110.5867  -73.7368  -82.6363 C   0  0  0  0  0  0  0  0  0  0  0  0
  109.9036  -74.6447  -86.8297 C   0  0  0  0  0  0  0  0  0  0  0  0
  110.2411  -73.3085  -87.1477 C   0  0  0  0  0  0  0  0  0  0  0  0
  109.6112  -72.5016  -88.0970 C   0  0  0  0  0  0  0  0  0  0  0  0
  108.4952  -73.0324  -88.8654 C   0  0  0  0  0  0  0  0  0  0  0  0
  108.1755  -74.3664  -88.5157 C   0  0  0  0  0  0  0  0  0  0  0  0
  108.7758  -75.2094  -87.5703 C   0  0  0  0  0  0  0  0  0  0  0  0
  111.4523  -74.2697  -80.4974 N   0  3  0  0  0  0  0  0  0  0  0  0
  112.1605  -75.1278  -79.5544 C   0  0  0  0  0  0  0  0  0  0  0  0
  110.9951  -73.0182  -79.8541 C   0  0  0  0  0  0  0  0  0  0  0  0
  112.6776  -80.5783  -87.3588 N   0  0  0  0  0  0  0  0  0  0  0  0
  113.2796  -81.6173  -86.4937 C   0  0  0  0  0  0  0  0  0  0  0  0
  112.6150  -81.0346  -88.7923 C   0  0  0  0  0  0  0  0  0  0  0  0
  1  2  1  0  0  0  0
  1 14  1  0  0  0  0
  1 21  2  0  0  0  0
  2  3  2  0  0  0  0
  3  4  1  0  0  0  0
  3 12  1  0  0  0  0
  4  5  1  0  0  0  0
  5  6  1  0  0  0  0
  5 10  2  0  0  0  0
  6  7  2  0  0  0  0
  7  8  1  0  0  0  0
  7 24  1  0  0  0  0
  8  9  2  0  0  0  0
  9 10  1  0  0  0  0
 10 11  1  0  0  0  0
 11 12  2  0  0  0  0
 11 15  1  0  0  0  0
 12 13  1  0  0  0  0
 13 14  2  0  0  0  0
 15 16  2  0  0  0  0
 15 20  1  0  0  0  0
 16 17  1  0  0  0  0
 17 18  2  0  0  0  0
 18 19  1  0  0  0  0
 19 20  2  0  0  0  0
 21 22  1  0  0  0  0
 21 23  1  0  0  0  0
 24 25  1  0  0  0  0
 24 26  1  0  0  0  0
M  CHG  1  21   1
M  END
>  <CHROM.1>
4.15677987,-124.05033626,111.08595406,-76.18678089,-85.27445866,-1.79825304
1.05988314,-2.09523581

>  <Name>
1f1t Malachite green aptamer (Xray 2.8A)

>  <RI>
0

>  <Rbt.Current_Directory>
/home/itssahil/PROJECTS/Mol_Feturizer/New_Systems/rnas/1f1t

>  <Rbt.Executable>
rbdock ($Id: //depot/dev/client3/rdock/2013.1/src/exe/rbdock.cxx#4 $)

>  <Rbt.Library>
libRbt.so (2013.1, Build901 2013/11/27)

>  <Rbt.Parameter_File>
/export/apps/rDock/src/rDock_2013.1_src/data/scripts/dock_solv.prm

>  <Rbt.Receptor>
prm/pocket_docking_6.prm

>  <SCORE>
-63.2445

>  <SCORE.INTER>
-63.3508

>  <SCORE.INTER.CONST>
1

>  <SCORE.INTER.POLAR>
0

>  <SCORE.INTER.ROT>
2

>  <SCORE.INTER.SOLV>
11.0441

>  <SCORE.INTER.VDW>
-50.8486

>  <SCORE.INTER.norm>
-2.43657

>  <SCORE.INTRA>
0.10635

>  <SCORE.INTRA.DIHEDRAL>
-0.852626

>  <SCORE.INTRA.DIHEDRAL.0>
4.18538

>  <SCORE.INTRA.POLAR>
0

>  <SCORE.INTRA.POLAR.0>
0

>  <SCORE.INTRA.REPUL>
0

>  <SCORE.INTRA.REPUL.0>
0

>  <SCORE.INTRA.SOLV>
0.0152091

>  <SCORE.INTRA.SOLV.lig_0>
-5.16926

>  <SCORE.INTRA.VDW>
0.525059

>  <SCORE.INTRA.VDW.0>
1.11912

>  <SCORE.INTRA.norm>
0.0040904

>  <SCORE.RESTR>
0

>  <SCORE.RESTR.CAVITY>
0

>  <SCORE.RESTR.norm>
0

>  <SCORE.SYSTEM>
0

>  <SCORE.SYSTEM.CONST>
0

>  <SCORE.SYSTEM.DIHEDRAL>
0

>  <SCORE.SYSTEM.SOLV>
0

>  <SCORE.SYSTEM.norm>
0

>  <SCORE.heavy>
26

>  <SCORE.norm>
-2.43248

>  <RMSD>
0.630

$$$$
1f1t Malachite green aptamer (Xray 2.8A)
 OpenBabel11021811393D
libRbt.so/2013.1/901 2013/11/27
 26 29  0  0  0  0  0  0  0  0999 V2000
  111.2272  -74.6146  -81.8104 C   0  0  0  0  0  0  0  0  0  0  0  0
  111.7436  -75.8852  -82.2975 C   0  0  0  0  0  0  0  0  0  0  0  0
  111.4863  -76.0972  -83.6533 C   0  0  0  0  0  0  0  0  0  0  0  0
  112.0360  -77.4083  -84.0987 O   0  0  0  0  0  0  0  0  0  0  0  0
  111.8056  -77.5887  -85.3405 C   0  0  0  0  0  0  0  0  0  0  0  0
  112.3691  -78.8964  -85.6753 C   0  0  0  0  0  0  0  0  0  0  0  0
  112.2079  -79.2684  -87.0571 C   0  0  0  0  0  0  0  0  0  0  0  0
  111.5701  -78.4302  -88.0048 C   0  0  0  0  0  0  0  0  0  0  0  0
  111.0232  -77.1465  -87.6061 C   0  0  0  0  0  0  0  0  0  0  0  0
  111.1604  -76.7597  -86.2234 C   0  0  0  0  0  0  0  0  0  0  0  0
  110.5503  -75.4183  -85.8907 C   0  0  0  0  0  0  0  0  0  0  0  0
  110.8175  -75.2412  -84.5213 C   0  0  0  0  0  0  0  0  0  0  0  0
  110.2992  -73.9703  -84.0102 C   0  0  0  0  0  0  0  0  0  0  0  0
  110.5517  -73.7267  -82.6248 C   0  0  0  0  0  0  0  0  0  0  0  0
  109.9030  -74.6315  -86.8244 C   0  0  0  0  0  0  0  0  0  0  0  0
  110.2459  -73.2997  -87.1550 C   0  0  0  0  0  0  0  0  0  0  0  0
  109.6148  -72.4969  -88.1068 C   0  0  0  0  0  0  0  0  0  0  0  0
  108.4913  -73.0275  -88.8644 C   0  0  0  0  0  0  0  0  0  0  0  0
  108.1664  -74.3569  -88.5023 C   0  0  0  0  0  0  0  0  0  0  0  0
  108.7677  -75.1958  -87.5538 C   0  0  0  0  0  0  0  0  0  0  0  0
  111.4086  -74.2564  -80.4817 N   0  3  0  0  0  0  0  0  0  0  0  0
  112.1185  -75.1102  -79.5361 C   0  0  0  0  0  0  0  0  0  0  0  0
  110.9362  -73.0105  -79.8386 C   0  0  0  0  0  0  0  0  0  0  0  0
  112.7334  -80.5388  -87.3486 N   0  0  0  0  0  0  0  0  0  0  0  0
  113.3239  -81.5812  -86.4796 C   0  0  0  0  0  0  0  0  0  0  0  0
  112.7025  -80.9842  -88.7866 C   0  0  0  0  0  0  0  0  0  0  0  0
  1  2  1  0  0  0  0
  1 14  1  0  0  0  0
  1 21  2  0  0  0  0
  2  3  2  0  0  0  0
  3  4  1  0  0  0  0
  3 12  1  0  0  0  0
  4  5  1  0  0  0  0
  5  6  1  0  0  0  0
  5 10  2  0  0  0  0
  6  7  2  0  0  0  0
  7  8  1  0  0  0  0
  7 24  1  0  0  0  0
  8  9  2  0  0  0  0
  9 10  1  0  0  0  0
 10 11  1  0  0  0  0
 11 12  2  0  0  0  0
 11 15  1  0  0  0  0
 12 13  1  0  0  0  0
 13 14  2  0  0  0  0
 15 16  2  0  0  0  0
 15 20  1  0  0  0  0
 16 17  1  0  0  0  0
 17 18  2  0  0  0  0
 18 19  1  0  0  0  0
 19 20  2  0  0  0  0
 21 22  1  0  0  0  0
 21 23  1  0  0  0  0
 24 25  1  0  0  0  0
 24 26  1  0  0  0  0
M  CHG  1  21   1
M  END
>  <CHROM.1>
5.03771797,-122.82242631,111.08934182,-76.16625850,-85.26492253,-1.81905718
1.05515666,-2.07483340

>  <Name>
1f1t Malachite green aptamer (Xray 2.8A)

>  <RI>
0

>  <Rbt.Current_Directory>
/home/itssahil/PROJECTS/Mol_Feturizer/New_Systems/rnas/1f1t

>  <Rbt.Executable>
rbdock ($Id: //depot/dev/client3/rdock/2013.1/src/exe/rbdock.cxx#4 $)

>  <Rbt.Library>
libRbt.so (2013.1, Build901 2013/11/27)

>  <Rbt.Parameter_File>
/export/apps/rDock/src/rDock_2013.1_src/data/scripts/dock_solv.prm

>  <Rbt.Receptor>
prm/pocket_docking_3.prm

>  <SCORE>
-63.209

>  <SCORE.INTER>
-63.2926

>  <SCORE.INTER.CONST>
1

>  <SCORE.INTER.POLAR>
0

>  <SCORE.INTER.ROT>
2

>  <SCORE.INTER.SOLV>
11.0582

>  <SCORE.INTER.VDW>
-50.8144

>  <SCORE.INTER.norm>
-2.43433

>  <SCORE.INTRA>
0.0835899

>  <SCORE.INTRA.DIHEDRAL>
-0.727085

>  <SCORE.INTRA.DIHEDRAL.0>
4.18538

>  <SCORE.INTRA.POLAR>
0

>  <SCORE.INTRA.POLAR.0>
0

>  <SCORE.INTRA.REPUL>
0

>  <SCORE.INTRA.REPUL.0>
0

>  <SCORE.INTRA.SOLV>
0.0137794

>  <SCORE.INTRA.SOLV.lig_0>
-5.16926

>  <SCORE.INTRA.VDW>
0.440243

>  <SCORE.INTRA.VDW.0>
1.11912

>  <SCORE.INTRA.norm>
0.003215

>  <SCORE.RESTR>
0

>  <SCORE.RESTR.CAVITY>
0

>  <SCORE.RESTR.norm>
0

>  <SCORE.SYSTEM>
0

>  <SCORE.SYSTEM.CONST>
0

>  <SCORE.SYSTEM.DIHEDRAL>
0

>  <SCORE.SYSTEM.SOLV>
0

>  <SCORE.SYSTEM.norm>
0

>  <SCORE.heavy>
26

>  <SCORE.norm>
-2.43111

>  <RMSD>
0.631

$$$$
1f1t Malachite green aptamer (Xray 2.8A)
 OpenBabel11021811393D
libRbt.so/2013.1/901 2013/11/27
 26 29  0  0  0  0  0  0  0  0999 V2000
  111.2406  -74.6190  -81.8235 C   0  0  0  0  0  0  0  0  0  0  0  0
  111.7518  -75.8923  -82.3091 C   0  0  0  0  0  0  0  0  0  0  0  0
  111.4904  -76.1065  -83.6638 C   0  0  0  0  0  0  0  0  0  0  0  0
  112.0348  -77.4203  -84.1077 O   0  0  0  0  0  0  0  0  0  0  0  0
  111.8007  -77.6028  -85.3486 C   0  0  0  0  0  0  0  0  0  0  0  0
  112.3593  -78.9129  -85.6819 C   0  0  0  0  0  0  0  0  0  0  0  0
  112.1934  -79.2874  -87.0624 C   0  0  0  0  0  0  0  0  0  0  0  0
  111.5558  -78.4493  -88.0103 C   0  0  0  0  0  0  0  0  0  0  0  0
  111.0139  -77.1631  -87.6131 C   0  0  0  0  0  0  0  0  0  0  0  0
  111.1558  -76.7737  -86.2316 C   0  0  0  0  0  0  0  0  0  0  0  0
  110.5508  -75.4297  -85.9004 C   0  0  0  0  0  0  0  0  0  0  0  0
  110.8220  -75.2503  -84.5320 C   0  0  0  0  0  0  0  0  0  0  0  0
  110.3090  -73.9767  -84.0225 C   0  0  0  0  0  0  0  0  0  0  0  0
  110.5658  -73.7309  -82.6382 C   0  0  0  0  0  0  0  0  0  0  0  0
  109.9035  -74.6429  -86.8341 C   0  0  0  0  0  0  0  0  0  0  0  0
  110.2411  -73.3082  -87.1585 C   0  0  0  0  0  0  0  0  0  0  0  0
  109.6100  -72.5053  -88.1103 C   0  0  0  0  0  0  0  0  0  0  0  0
  108.4926  -73.0390  -88.8747 C   0  0  0  0  0  0  0  0  0  0  0  0
  108.1731  -74.3713  -88.5187 C   0  0  0  0  0  0  0  0  0  0  0  0
  108.7744  -75.2105  -87.5706 C   0  0  0  0  0  0  0  0  0  0  0  0
  111.4264  -74.2586  -80.4962 N   0  3  0  0  0  0  0  0  0  0  0  0
  112.1362  -75.1125  -79.5504 C   0  0  0  0  0  0  0  0  0  0  0  0
  110.9596  -73.0098  -79.8546 C   0  0  0  0  0  0  0  0  0  0  0  0
  112.7142  -80.5602  -87.3525 N   0  0  0  0  0  0  0  0  0  0  0  0
  113.3261  -81.5924  -86.4863 C   0  0  0  0  0  0  0  0  0  0  0  0
  112.6512  -81.0208  -88.7846 C   0  0  0  0  0  0  0  0  0  0  0  0
  1  2  1  0  0  0  0
  1 14  1  0  0  0  0
  1 21  2  0  0  0  0
  2  3  2  0  0  0  0
  3  4  1  0  0  0  0
  3 12  1  0  0  0  0
  4  5  1  0  0  0  0
  5  6  1  0  0  0  0
  5 10  2  0  0  0  0
  6  7  2  0  0  0  0
  7  8  1  0  0  0  0
  7 24  1  0  0  0  0
  8  9  2  0  0  0  0
  9 10  1  0  0  0  0
 10 11  1  0  0  0  0
 11 12  2  0  0  0  0
 11 15  1  0  0  0  0
 12 13  1  0  0  0  0
 13 14  2  0  0  0  0
 15 16  2  0  0  0  0
 15 20  1  0  0  0  0
 16 17  1  0  0  0  0
 17 18  2  0  0  0  0
 18 19  1  0  0  0  0
 19 20  2  0  0  0  0
 21 22  1  0  0  0  0
 21 23  1  0  0  0  0
 24 25  1  0  0  0  0
 24 26  1  0  0  0  0
M  CHG  1  21   1
M  END
>  <CHROM.1>
3.75288875,-123.52512775,111.08900155,-76.17800492,-85.27430573,-1.81065042
1.05649999,-2.08449544

>  <Name>
1f1t Malachite green aptamer (Xray 2.8A)

>  <RI>
0

>  <Rbt.Current_Directory>
/home/itssahil/PROJECTS/Mol_Feturizer/New_Systems/rnas/1f1t

>  <Rbt.Executable>
rbdock ($Id: //depot/dev/client3/rdock/2013.1/src/exe/rbdock.cxx#4 $)

>  <Rbt.Library>
libRbt.so (2013.1, Build901 2013/11/27)

>  <Rbt.Parameter_File>
/export/apps/rDock/src/rDock_2013.1_src/data/scripts/dock_solv.prm

>  <Rbt.Receptor>
prm/pocket_docking_4.prm

>  <SCORE>
-63.2431

>  <SCORE.INTER>
-63.3345

>  <SCORE.INTER.CONST>
1

>  <SCORE.INTER.POLAR>
0

>  <SCORE.INTER.ROT>
2

>  <SCORE.INTER.SOLV>
11.0699

>  <SCORE.INTER.VDW>
-50.8463

>  <SCORE.INTER.norm>
-2.43594

>  <SCORE.INTRA>
0.091397

>  <SCORE.INTRA.DIHEDRAL>
-0.823733

>  <SCORE.INTRA.DIHEDRAL.0>
4.18538

>  <SCORE.INTRA.POLAR>
0

>  <SCORE.INTRA.POLAR.0>
0

>  <SCORE.INTRA.REPUL>
0

>  <SCORE.INTRA.REPUL.0>
0

>  <SCORE.INTRA.SOLV>
0.0145984

>  <SCORE.INTRA.SOLV.lig_0>
-5.16926

>  <SCORE.INTRA.VDW>
0.495965

>  <SCORE.INTRA.VDW.0>
1.11912

>  <SCORE.INTRA.norm>
0.00351527

>  <SCORE.RESTR>
0

>  <SCORE.RESTR.CAVITY>
0

>  <SCORE.RESTR.norm>
0

>  <SCORE.SYSTEM>
0

>  <SCORE.SYSTEM.CONST>
0

>  <SCORE.SYSTEM.DIHEDRAL>
0

>  <SCORE.SYSTEM.SOLV>
0

>  <SCORE.SYSTEM.norm>
0

>  <SCORE.heavy>
26

>  <SCORE.norm>
-2.43243

>  <RMSD>
0.631

$$$$
1f1t Malachite green aptamer (Xray 2.8A)
 OpenBabel11021811393D
libRbt.so/2013.1/901 2013/11/27
 26 29  0  0  0  0  0  0  0  0999 V2000
  111.2427  -74.6383  -81.8194 C   0  0  0  0  0  0  0  0  0  0  0  0
  111.7531  -75.9095  -82.3111 C   0  0  0  0  0  0  0  0  0  0  0  0
  111.4916  -76.1169  -83.6669 C   0  0  0  0  0  0  0  0  0  0  0  0
  112.0352  -77.4289  -84.1171 O   0  0  0  0  0  0  0  0  0  0  0  0
  111.8010  -77.6051  -85.3589 C   0  0  0  0  0  0  0  0  0  0  0  0
  112.3588  -78.9140  -85.6986 C   0  0  0  0  0  0  0  0  0  0  0  0
  112.1928  -79.2816  -87.0809 C   0  0  0  0  0  0  0  0  0  0  0  0
  111.5557  -78.4385  -88.0248 C   0  0  0  0  0  0  0  0  0  0  0  0
  111.0146  -77.1539  -87.6213 C   0  0  0  0  0  0  0  0  0  0  0  0
  111.1567  -76.7713  -86.2379 C   0  0  0  0  0  0  0  0  0  0  0  0
  110.5525  -75.4286  -85.9001 C   0  0  0  0  0  0  0  0  0  0  0  0
  110.8238  -75.2561  -84.5309 C   0  0  0  0  0  0  0  0  0  0  0  0
  110.3115  -73.9846  -84.0152 C   0  0  0  0  0  0  0  0  0  0  0  0
  110.5684  -73.7457  -82.6298 C   0  0  0  0  0  0  0  0  0  0  0  0
  109.9057  -74.6368  -86.8301 C   0  0  0  0  0  0  0  0  0  0  0  0
  110.2454  -73.3015  -87.1493 C   0  0  0  0  0  0  0  0  0  0  0  0
  109.6148  -72.4935  -88.0972 C   0  0  0  0  0  0  0  0  0  0  0  0
  108.4957  -73.0221  -88.8627 C   0  0  0  0  0  0  0  0  0  0  0  0
  108.1741  -74.3553  -88.5118 C   0  0  0  0  0  0  0  0  0  0  0  0
  108.7749  -75.1994  -87.5677 C   0  0  0  0  0  0  0  0  0  0  0  0
  111.4287  -74.2844  -80.4903 N   0  3  0  0  0  0  0  0  0  0  0  0
  112.1379  -75.1433  -79.5486 C   0  0  0  0  0  0  0  0  0  0  0  0
  110.9626  -73.0384  -79.8426 C   0  0  0  0  0  0  0  0  0  0  0  0
  112.7128  -80.5533  -87.3772 N   0  0  0  0  0  0  0  0  0  0  0  0
  113.3215  -81.5912  -86.5156 C   0  0  0  0  0  0  0  0  0  0  0  0
  112.6525  -81.0055  -88.8121 C   0  0  0  0  0  0  0  0  0  0  0  0
  1  2  1  0  0  0  0
  1 14  1  0  0  0  0
  1 21  2  0  0  0  0
  2  3  2  0  0  0  0
  3  4  1  0  0  0  0
  3 12  1  0  0  0  0
  4  5  1  0  0  0  0
  5  6  1  0  0  0  0
  5 10  2  0  0  0  0
  6  7  2  0  0  0  0
  7  8  1  0  0  0  0
  7 24  1  0  0  0  0
  8  9  2  0  0  0  0
  9 10  1  0  0  0  0
 10 11  1  0  0  0  0
 11 12  2  0  0  0  0
 11 15  1  0  0  0  0
 12 13  1  0  0  0  0
 13 14  2  0  0  0  0
 15 16  2  0  0  0  0
 15 20  1  0  0  0  0
 16 17  1  0  0  0  0
 17 18  2  0  0  0  0
 18 19  1  0  0  0  0
 19 20  2  0  0  0  0
 21 22  1  0  0  0  0
 21 23  1  0  0  0  0
 24 25  1  0  0  0  0
 24 26  1  0  0  0  0
M  CHG  1  21   1
M  END
>  <CHROM.1>
3.89546300,-123.42374878,111.09021325,-76.18027068,-85.27770070,-1.81016405
1.05706388,-2.08002629

>  <Name>
1f1t Malachite green aptamer (Xray 2.8A)

>  <RI>
0

>  <Rbt.Current_Directory>
/home/itssahil/PROJECTS/Mol_Feturizer/New_Systems/rnas/1f1t

>  <Rbt.Executable>
rbdock ($Id: //depot/dev/client3/rdock/2013.1/src/exe/rbdock.cxx#4 $)

>  <Rbt.Library>
libRbt.so (2013.1, Build901 2013/11/27)

>  <Rbt.Parameter_File>
/export/apps/rDock/src/rDock_2013.1_src/data/scripts/dock_solv.prm

>  <Rbt.Receptor>
prm/pocket_docking_3.prm

>  <SCORE>
-63.2503

>  <SCORE.INTER>
-63.3401

>  <SCORE.INTER.CONST>
1

>  <SCORE.INTER.POLAR>
0

>  <SCORE.INTER.ROT>
2

>  <SCORE.INTER.SOLV>
11.0645

>  <SCORE.INTER.VDW>
-50.8482

>  <SCORE.INTER.norm>
-2.43616

>  <SCORE.INTRA>
0.089788

>  <SCORE.INTRA.DIHEDRAL>
-0.811798

>  <SCORE.INTRA.DIHEDRAL.0>
4.18538

>  <SCORE.INTRA.POLAR>
0

>  <SCORE.INTRA.POLAR.0>
0

>  <SCORE.INTRA.REPUL>
0

>  <SCORE.INTRA.REPUL.0>
0

>  <SCORE.INTRA.SOLV>
0.0144803

>  <SCORE.INTRA.SOLV.lig_0>
-5.16926

>  <SCORE.INTRA.VDW>
0.488447

>  <SCORE.INTRA.VDW.0>
1.11912

>  <SCORE.INTRA.norm>
0.00345339

>  <SCORE.RESTR>
0

>  <SCORE.RESTR.CAVITY>
0

>  <SCORE.RESTR.norm>
0

>  <SCORE.SYSTEM>
0

>  <SCORE.SYSTEM.CONST>
0

>  <SCORE.SYSTEM.DIHEDRAL>
0

>  <SCORE.SYSTEM.SOLV>
0

>  <SCORE.SYSTEM.norm>
0

>  <SCORE.heavy>
26

>  <SCORE.norm>
-2.4327

>  <RMSD>
0.632

$$$$
1f1t Malachite green aptamer (Xray 2.8A)
 OpenBabel11021811393D
libRbt.so/2013.1/901 2013/11/27
 26 29  0  0  0  0  0  0  0  0999 V2000
  111.2346  -74.6071  -81.8129 C   0  0  0  0  0  0  0  0  0  0  0  0
  111.7505  -75.8787  -82.2979 C   0  0  0  0  0  0  0  0  0  0  0  0
  111.4922  -76.0932  -83.6532 C   0  0  0  0  0  0  0  0  0  0  0  0
  112.0414  -77.4053  -84.0965 O   0  0  0  0  0  0  0  0  0  0  0  0
  111.8101  -77.5880  -85.3378 C   0  0  0  0  0  0  0  0  0  0  0  0
  112.3733  -78.8964  -85.6706 C   0  0  0  0  0  0  0  0  0  0  0  0
  112.2111  -79.2709  -87.0515 C   0  0  0  0  0  0  0  0  0  0  0  0
  111.5727  -78.4345  -88.0003 C   0  0  0  0  0  0  0  0  0  0  0  0
  111.0262  -77.1500  -87.6037 C   0  0  0  0  0  0  0  0  0  0  0  0
  111.1644  -76.7606  -86.2218 C   0  0  0  0  0  0  0  0  0  0  0  0
  110.5547  -75.4185  -85.8913 C   0  0  0  0  0  0  0  0  0  0  0  0
  110.8229  -75.2388  -84.5223 C   0  0  0  0  0  0  0  0  0  0  0  0
  110.3050  -73.9669  -84.0133 C   0  0  0  0  0  0  0  0  0  0  0  0
  110.5586  -73.7207  -82.6286 C   0  0  0  0  0  0  0  0  0  0  0  0
  109.9068  -74.6334  -86.8259 C   0  0  0  0  0  0  0  0  0  0  0  0
  110.2405  -73.2974  -87.1489 C   0  0  0  0  0  0  0  0  0  0  0  0
  109.6088  -72.4961  -88.1016 C   0  0  0  0  0  0  0  0  0  0  0  0
  108.4948  -73.0331  -88.8686 C   0  0  0  0  0  0  0  0  0  0  0  0
  108.1789  -74.3667  -88.5140 C   0  0  0  0  0  0  0  0  0  0  0  0
  108.7811  -75.2043  -87.5650 C   0  0  0  0  0  0  0  0  0  0  0  0
  111.4169  -74.2465  -80.4851 N   0  3  0  0  0  0  0  0  0  0  0  0
  112.1275  -75.0986  -79.5383 C   0  0  0  0  0  0  0  0  0  0  0  0
  110.9451  -72.9993  -79.8439 C   0  0  0  0  0  0  0  0  0  0  0  0
  112.7363  -80.5420  -87.3410 N   0  0  0  0  0  0  0  0  0  0  0  0
  113.3279  -81.5825  -86.4706 C   0  0  0  0  0  0  0  0  0  0  0  0
  112.7035  -80.9905  -88.7780 C   0  0  0  0  0  0  0  0  0  0  0  0
  1  2  1  0  0  0  0
  1 14  1  0  0  0  0
  1 21  2  0  0  0  0
  2  3  2  0  0  0  0
  3  4  1  0  0  0  0
  3 12  1  0  0  0  0
  4  5  1  0  0  0  0
  5  6  1  0  0  0  0
  5 10  2  0  0  0  0
  6  7  2  0  0  0  0
  7  8  1  0  0  0  0
  7 24  1  0  0  0  0
  8  9  2  0  0  0  0
  9 10  1  0  0  0  0
 10 11  1  0  0  0  0
 11 12  2  0  0  0  0
 11 15  1  0  0  0  0
 12 13  1  0  0  0  0
 13 14  2  0  0  0  0
 15 16  2  0  0  0  0
 15 20  1  0  0  0  0
 16 17  1  0  0  0  0
 17 18  2  0  0  0  0
 18 19  1  0  0  0  0
 19 20  2  0  0  0  0
 21 22  1  0  0  0  0
 21 23  1  0  0  0  0
 24 25  1  0  0  0  0
 24 26  1  0  0  0  0
M  CHG  1  21   1
M  END
>  <CHROM.1>
5.00239462,-123.55012827,111.09421881,-76.16533965,-85.26447989,-1.81753707
1.05499239,-2.07808597

>  <Name>
1f1t Malachite green aptamer (Xray 2.8A)

>  <RI>
0

>  <Rbt.Current_Directory>
/home/itssahil/PROJECTS/Mol_Feturizer/New_Systems/rnas/1f1t

>  <Rbt.Executable>
rbdock ($Id: //depot/dev/client3/rdock/2013.1/src/exe/rbdock.cxx#4 $)

>  <Rbt.Library>
libRbt.so (2013.1, Build901 2013/11/27)

>  <Rbt.Parameter_File>
/export/apps/rDock/src/rDock_2013.1_src/data/scripts/dock_solv.prm

>  <Rbt.Receptor>
prm/pocket_docking_5.prm

>  <SCORE>
-63.2364

>  <SCORE.INTER>
-63.3358

>  <SCORE.INTER.CONST>
1

>  <SCORE.INTER.POLAR>
0

>  <SCORE.INTER.ROT>
2

>  <SCORE.INTER.SOLV>
11.0643

>  <SCORE.INTER.VDW>
-50.8453

>  <SCORE.INTER.norm>
-2.43599

>  <SCORE.INTRA>
0.0994218

>  <SCORE.INTRA.DIHEDRAL>
-0.784555

>  <SCORE.INTRA.DIHEDRAL.0>
4.18538

>  <SCORE.INTRA.POLAR>
0

>  <SCORE.INTRA.POLAR.0>
0

>  <SCORE.INTRA.REPUL>
0

>  <SCORE.INTRA.REPUL.0>
0

>  <SCORE.INTRA.SOLV>
0.0146283

>  <SCORE.INTRA.SOLV.lig_0>
-5.16926

>  <SCORE.INTRA.VDW>
0.484385

>  <SCORE.INTRA.VDW.0>
1.11912

>  <SCORE.INTRA.norm>
0.00382392

>  <SCORE.RESTR>
0

>  <SCORE.RESTR.CAVITY>
0

>  <SCORE.RESTR.norm>
0

>  <SCORE.SYSTEM>
0

>  <SCORE.SYSTEM.CONST>
0

>  <SCORE.SYSTEM.DIHEDRAL>
0

>  <SCORE.SYSTEM.SOLV>
0

>  <SCORE.SYSTEM.norm>
0

>  <SCORE.heavy>
26

>  <SCORE.norm>
-2.43217

>  <RMSD>
0.632

$$$$
1f1t Malachite green aptamer (Xray 2.8A)
 OpenBabel11021811393D
libRbt.so/2013.1/901 2013/11/27
 26 29  0  0  0  0  0  0  0  0999 V2000
  111.2270  -74.6347  -81.8313 C   0  0  0  0  0  0  0  0  0  0  0  0
  111.7364  -75.9086  -82.3170 C   0  0  0  0  0  0  0  0  0  0  0  0
  111.4771  -76.1211  -83.6724 C   0  0  0  0  0  0  0  0  0  0  0  0
  112.0196  -77.4356  -84.1164 O   0  0  0  0  0  0  0  0  0  0  0  0
  111.7874  -77.6165  -85.3579 C   0  0  0  0  0  0  0  0  0  0  0  0
  112.3439  -78.9275  -85.6913 C   0  0  0  0  0  0  0  0  0  0  0  0
  112.1799  -79.3005  -87.0725 C   0  0  0  0  0  0  0  0  0  0  0  0
  111.5458  -78.4602  -88.0209 C   0  0  0  0  0  0  0  0  0  0  0  0
  111.0058  -77.1733  -87.6235 C   0  0  0  0  0  0  0  0  0  0  0  0
  111.1459  -76.7853  -86.2414 C   0  0  0  0  0  0  0  0  0  0  0  0
  110.5431  -75.4404  -85.9101 C   0  0  0  0  0  0  0  0  0  0  0  0
  110.8121  -75.2628  -84.5411 C   0  0  0  0  0  0  0  0  0  0  0  0
  110.3007  -73.9885  -84.0314 C   0  0  0  0  0  0  0  0  0  0  0  0
  110.5555  -73.7444  -82.6465 C   0  0  0  0  0  0  0  0  0  0  0  0
  109.8992  -74.6514  -86.8444 C   0  0  0  0  0  0  0  0  0  0  0  0
  110.2410  -73.3177  -87.1680 C   0  0  0  0  0  0  0  0  0  0  0  0
  109.6134  -72.5126  -88.1203 C   0  0  0  0  0  0  0  0  0  0  0  0
  108.4953  -73.0428  -88.8861 C   0  0  0  0  0  0  0  0  0  0  0  0
  108.1714  -74.3743  -88.5308 C   0  0  0  0  0  0  0  0  0  0  0  0
  108.7692  -75.2155  -87.5822 C   0  0  0  0  0  0  0  0  0  0  0  0
  111.4111  -74.2758  -80.5033 N   0  3  0  0  0  0  0  0  0  0  0  0
  112.1173  -75.1320  -79.5569 C   0  0  0  0  0  0  0  0  0  0  0  0
  110.9456  -73.0266  -79.8614 C   0  0  0  0  0  0  0  0  0  0  0  0
  112.6986  -80.5740  -87.3627 N   0  0  0  0  0  0  0  0  0  0  0  0
  113.3014  -81.6107  -86.4954 C   0  0  0  0  0  0  0  0  0  0  0  0
  112.6437  -81.0304  -88.7965 C   0  0  0  0  0  0  0  0  0  0  0  0
  1  2  1  0  0  0  0
  1 14  1  0  0  0  0
  1 21  2  0  0  0  0
  2  3  2  0  0  0  0
  3  4  1  0  0  0  0
  3 12  1  0  0  0  0
  4  5  1  0  0  0  0
  5  6  1  0  0  0  0
  5 10  2  0  0  0  0
  6  7  2  0  0  0  0
  7  8  1  0  0  0  0
  7 24  1  0  0  0  0
  8  9  2  0  0  0  0
  9 10  1  0  0  0  0
 10 11  1  0  0  0  0
 11 12  2  0  0  0  0
 11 15  1  0  0  0  0
 12 13  1  0  0  0  0
 13 14  2  0  0  0  0
 15 16  2  0  0  0  0
 15 20  1  0  0  0  0
 16 17  1  0  0  0  0
 17 18  2  0  0  0  0
 18 19  1  0  0  0  0
 19 20  2  0  0  0  0
 21 22  1  0  0  0  0
 21 23  1  0  0  0  0
 24 25  1  0  0  0  0
 24 26  1  0  0  0  0
M  CHG  1  21   1
M  END
>  <CHROM.1>
4.05731977,-123.44922197,111.07860620,-76.19032049,-85.28370829,-1.81205876
1.05925928,-2.08236241

>  <Name>
1f1t Malachite green aptamer (Xray 2.8A)

>  <RI>
0

>  <Rbt.Current_Directory>
/home/itssahil/PROJECTS/Mol_Feturizer/New_Systems/rnas/1f1t

>  <Rbt.Executable>
rbdock ($Id: //depot/dev/client3/rdock/2013.1/src/exe/rbdock.cxx#4 $)

>  <Rbt.Library>
libRbt.so (2013.1, Build901 2013/11/27)

>  <Rbt.Parameter_File>
/export/apps/rDock/src/rDock_2013.1_src/data/scripts/dock_solv.prm

>  <Rbt.Receptor>
prm/pocket_docking_8.prm

>  <SCORE>
-63.2379

>  <SCORE.INTER>
-63.3292

>  <SCORE.INTER.CONST>
1

>  <SCORE.INTER.POLAR>
0

>  <SCORE.INTER.ROT>
2

>  <SCORE.INTER.SOLV>
11.0551

>  <SCORE.INTER.VDW>
-50.8378

>  <SCORE.INTER.norm>
-2.43574

>  <SCORE.INTRA>
0.0912469

>  <SCORE.INTRA.DIHEDRAL>
-0.808945

>  <SCORE.INTRA.DIHEDRAL.0>
4.18538

>  <SCORE.INTRA.POLAR>
0

>  <SCORE.INTRA.POLAR.0>
0

>  <SCORE.INTRA.REPUL>
0

>  <SCORE.INTRA.REPUL.0>
0

>  <SCORE.INTRA.SOLV>
0.01451

>  <SCORE.INTRA.SOLV.lig_0>
-5.16926

>  <SCORE.INTRA.VDW>
0.488464

>  <SCORE.INTRA.VDW.0>
1.11912

>  <SCORE.INTRA.norm>
0.0035095

>  <SCORE.RESTR>
0

>  <SCORE.RESTR.CAVITY>
0

>  <SCORE.RESTR.norm>
0

>  <SCORE.SYSTEM>
0

>  <SCORE.SYSTEM.CONST>
0

>  <SCORE.SYSTEM.DIHEDRAL>
0

>  <SCORE.SYSTEM.SOLV>
0

>  <SCORE.SYSTEM.norm>
0

>  <SCORE.heavy>
26

>  <SCORE.norm>
-2.43223

>  <RMSD>
0.632

$$$$
1f1t Malachite green aptamer (Xray 2.8A)
 OpenBabel11021811393D
libRbt.so/2013.1/901 2013/11/27
 26 29  0  0  0  0  0  0  0  0999 V2000
  111.2322  -74.6247  -81.8225 C   0  0  0  0  0  0  0  0  0  0  0  0
  111.7497  -75.8943  -82.3111 C   0  0  0  0  0  0  0  0  0  0  0  0
  111.4910  -76.1056  -83.6667 C   0  0  0  0  0  0  0  0  0  0  0  0
  112.0419  -77.4157  -84.1138 O   0  0  0  0  0  0  0  0  0  0  0  0
  111.8103  -77.5955  -85.3555 C   0  0  0  0  0  0  0  0  0  0  0  0
  112.3752  -78.9022  -85.6919 C   0  0  0  0  0  0  0  0  0  0  0  0
  112.2128  -79.2733  -87.0738 C   0  0  0  0  0  0  0  0  0  0  0  0
  111.5727  -78.4353  -88.0201 C   0  0  0  0  0  0  0  0  0  0  0  0
  111.0245  -77.1527  -87.6198 C   0  0  0  0  0  0  0  0  0  0  0  0
  111.1629  -76.7667  -86.2370 C   0  0  0  0  0  0  0  0  0  0  0  0
  110.5514  -75.4264  -85.9026 C   0  0  0  0  0  0  0  0  0  0  0  0
  110.8200  -75.2499  -84.5333 C   0  0  0  0  0  0  0  0  0  0  0  0
  110.3006  -73.9801  -84.0207 C   0  0  0  0  0  0  0  0  0  0  0  0
  110.5544  -73.7372  -82.6354 C   0  0  0  0  0  0  0  0  0  0  0  0
  109.9018  -74.6398  -86.8349 C   0  0  0  0  0  0  0  0  0  0  0  0
  110.2350  -73.3033  -87.1562 C   0  0  0  0  0  0  0  0  0  0  0  0
  109.6016  -72.5004  -88.1065 C   0  0  0  0  0  0  0  0  0  0  0  0
  108.4863  -73.0362  -88.8725 C   0  0  0  0  0  0  0  0  0  0  0  0
  108.1711  -74.3704  -88.5196 C   0  0  0  0  0  0  0  0  0  0  0  0
  108.7749  -75.2096  -87.5730 C   0  0  0  0  0  0  0  0  0  0  0  0
  111.4146  -74.2673  -80.4938 N   0  3  0  0  0  0  0  0  0  0  0  0
  112.1270  -75.1208  -79.5496 C   0  0  0  0  0  0  0  0  0  0  0  0
  110.9413  -73.0225  -79.8491 C   0  0  0  0  0  0  0  0  0  0  0  0
  112.7397  -80.5429  -87.3669 N   0  0  0  0  0  0  0  0  0  0  0  0
  113.2985  -81.6002  -86.4951 C   0  0  0  0  0  0  0  0  0  0  0  0
  112.7488  -80.9688  -88.8110 C   0  0  0  0  0  0  0  0  0  0  0  0
  1  2  1  0  0  0  0
  1 14  1  0  0  0  0
  1 21  2  0  0  0  0
  2  3  2  0  0  0  0
  3  4  1  0  0  0  0
  3 12  1  0  0  0  0
  4  5  1  0  0  0  0
  5  6  1  0  0  0  0
  5 10  2  0  0  0  0
  6  7  2  0  0  0  0
  7  8  1  0  0  0  0
  7 24  1  0  0  0  0
  8  9  2  0  0  0  0
  9 10  1  0  0  0  0
 10 11  1  0  0  0  0
 11 12  2  0  0  0  0
 11 15  1  0  0  0  0
 12 13  1  0  0  0  0
 13 14  2  0  0  0  0
 15 16  2  0  0  0  0
 15 20  1  0  0  0  0
 16 17  1  0  0  0  0
 17 18  2  0  0  0  0
 18 19  1  0  0  0  0
 19 20  2  0  0  0  0
 21 22  1  0  0  0  0
 21 23  1  0  0  0  0
 24 25  1  0  0  0  0
 24 26  1  0  0  0  0
M  CHG  1  21   1
M  END
>  <CHROM.1>
6.98781595,-123.42983779,111.09260195,-76.17393521,-85.27810331,-1.81917160
1.05380730,-2.07390465

>  <Name>
1f1t Malachite green aptamer (Xray 2.8A)

>  <RI>
0

>  <Rbt.Current_Directory>
/home/itssahil/PROJECTS/Mol_Feturizer/New_Systems/rnas/1f1t

>  <Rbt.Executable>
rbdock ($Id: //depot/dev/client3/rdock/2013.1/src/exe/rbdock.cxx#4 $)

>  <Rbt.Library>
libRbt.so (2013.1, Build901 2013/11/27)

>  <Rbt.Parameter_File>
/export/apps/rDock/src/rDock_2013.1_src/data/scripts/dock_solv.prm

>  <Rbt.Receptor>
prm/pocket_docking_4.prm

>  <SCORE>
-63.248

>  <SCORE.INTER>
-63.361

>  <SCORE.INTER.CONST>
1

>  <SCORE.INTER.POLAR>
0

>  <SCORE.INTER.ROT>
2

>  <SCORE.INTER.SOLV>
11.0402

>  <SCORE.INTER.VDW>
-50.854

>  <SCORE.INTER.norm>
-2.43696

>  <SCORE.INTRA>
0.112982

>  <SCORE.INTRA.DIHEDRAL>
-0.685267

>  <SCORE.INTRA.DIHEDRAL.0>
4.18538

>  <SCORE.INTRA.POLAR>
0

>  <SCORE.INTRA.POLAR.0>
0

>  <SCORE.INTRA.REPUL>
0

>  <SCORE.INTRA.REPUL.0>
0

>  <SCORE.INTRA.SOLV>
0.0144802

>  <SCORE.INTRA.SOLV.lig_0>
-5.16926

>  <SCORE.INTRA.VDW>
0.448375

>  <SCORE.INTRA.VDW.0>
1.11912

>  <SCORE.INTRA.norm>
0.00434546

>  <SCORE.RESTR>
0

>  <SCORE.RESTR.CAVITY>
0

>  <SCORE.RESTR.norm>
0

>  <SCORE.SYSTEM>
0

>  <SCORE.SYSTEM.CONST>
0

>  <SCORE.SYSTEM.DIHEDRAL>
0

>  <SCORE.SYSTEM.SOLV>
0

>  <SCORE.SYSTEM.norm>
0

>  <SCORE.heavy>
26

>  <SCORE.norm>
-2.43261

>  <RMSD>
0.633

$$$$
1f1t Malachite green aptamer (Xray 2.8A)
 OpenBabel11021811393D
libRbt.so/2013.1/901 2013/11/27
 26 29  0  0  0  0  0  0  0  0999 V2000
  111.2311  -74.6228  -81.8218 C   0  0  0  0  0  0  0  0  0  0  0  0
  111.7481  -75.8928  -82.3101 C   0  0  0  0  0  0  0  0  0  0  0  0
  111.4893  -76.1044  -83.6657 C   0  0  0  0  0  0  0  0  0  0  0  0
  112.0397  -77.4148  -84.1123 O   0  0  0  0  0  0  0  0  0  0  0  0
  111.8079  -77.5949  -85.3540 C   0  0  0  0  0  0  0  0  0  0  0  0
  112.3723  -78.9019  -85.6900 C   0  0  0  0  0  0  0  0  0  0  0  0
  112.2097  -79.2734  -87.0718 C   0  0  0  0  0  0  0  0  0  0  0  0
  111.5699  -78.4354  -88.0183 C   0  0  0  0  0  0  0  0  0  0  0  0
  111.0223  -77.1525  -87.6184 C   0  0  0  0  0  0  0  0  0  0  0  0
  111.1608  -76.7661  -86.2357 C   0  0  0  0  0  0  0  0  0  0  0  0
  110.5499  -75.4255  -85.9017 C   0  0  0  0  0  0  0  0  0  0  0  0
  110.8186  -75.2486  -84.5325 C   0  0  0  0  0  0  0  0  0  0  0  0
  110.2997  -73.9785  -84.0202 C   0  0  0  0  0  0  0  0  0  0  0  0
  110.5537  -73.7353  -82.6350 C   0  0  0  0  0  0  0  0  0  0  0  0
  109.9006  -74.6388  -86.8342 C   0  0  0  0  0  0  0  0  0  0  0  0
  110.2314  -73.3011  -87.1526 C   0  0  0  0  0  0  0  0  0  0  0  0
  109.5983  -72.4981  -88.1030 C   0  0  0  0  0  0  0  0  0  0  0  0
  108.4861  -73.0353  -88.8725 C   0  0  0  0  0  0  0  0  0  0  0  0
  108.1732  -74.3708  -88.5224 C   0  0  0  0  0  0  0  0  0  0  0  0
  108.7768  -75.2101  -87.5758 C   0  0  0  0  0  0  0  0  0  0  0  0
  111.4138  -74.2651  -80.4932 N   0  3  0  0  0  0  0  0  0  0  0  0
  112.1257  -75.1186  -79.5488 C   0  0  0  0  0  0  0  0  0  0  0  0
  110.9410  -73.0199  -79.8490 C   0  0  0  0  0  0  0  0  0  0  0  0
  112.7361  -80.5432  -87.3645 N   0  0  0  0  0  0  0  0  0  0  0  0
  113.3174  -81.5904  -86.4951 C   0  0  0  0  0  0  0  0  0  0  0  0
  112.7173  -80.9820  -88.8047 C   0  0  0  0  0  0  0  0  0  0  0  0
  1  2  1  0  0  0  0
  1 14  1  0  0  0  0
  1 21  2  0  0  0  0
  2  3  2  0  0  0  0
  3  4  1  0  0  0  0
  3 12  1  0  0  0  0
  4  5  1  0  0  0  0
  5  6  1  0  0  0  0
  5 10  2  0  0  0  0
  6  7  2  0  0  0  0
  7  8  1  0  0  0  0
  7 24  1  0  0  0  0
  8  9  2  0  0  0  0
  9 10  1  0  0  0  0
 10 11  1  0  0  0  0
 11 12  2  0  0  0  0
 11 15  1  0  0  0  0
 12 13  1  0  0  0  0
 13 14  2  0  0  0  0
 15 16  2  0  0  0  0
 15 20  1  0  0  0  0
 16 17  1  0  0  0  0
 17 18  2  0  0  0  0
 18 19  1  0  0  0  0
 19 20  2  0  0  0  0
 21 22  1  0  0  0  0
 21 23  1  0  0  0  0
 24 25  1  0  0  0  0
 24 26  1  0  0  0  0
M  CHG  1  21   1
M  END
>  <CHROM.1>
5.67893753,-123.66363846,111.09065054,-76.17311209,-85.27697305,-1.81797903
1.05395269,-2.07532987

>  <Name>
1f1t Malachite green aptamer (Xray 2.8A)

>  <RI>
0

>  <Rbt.Current_Directory>
/home/itssahil/PROJECTS/Mol_Feturizer/New_Systems/rnas/1f1t

>  <Rbt.Executable>
rbdock ($Id: //depot/dev/client3/rdock/2013.1/src/exe/rbdock.cxx#4 $)

>  <Rbt.Library>
libRbt.so (2013.1, Build901 2013/11/27)

>  <Rbt.Parameter_File>
/export/apps/rDock/src/rDock_2013.1_src/data/scripts/dock_solv.prm

>  <Rbt.Receptor>
prm/pocket_docking_8.prm

>  <SCORE>
-63.2608

>  <SCORE.INTER>
-63.3679

>  <SCORE.INTER.CONST>
1

>  <SCORE.INTER.POLAR>
0

>  <SCORE.INTER.ROT>
2

>  <SCORE.INTER.SOLV>
11.0565

>  <SCORE.INTER.VDW>
-50.8641

>  <SCORE.INTER.norm>
-2.43723

>  <SCORE.INTRA>
0.107052

>  <SCORE.INTRA.DIHEDRAL>
-0.76609

>  <SCORE.INTRA.DIHEDRAL.0>
4.18538

>  <SCORE.INTRA.POLAR>
0

>  <SCORE.INTRA.POLAR.0>
0

>  <SCORE.INTRA.REPUL>
0

>  <SCORE.INTRA.REPUL.0>
0

>  <SCORE.INTRA.SOLV>
0.0147614

>  <SCORE.INTRA.SOLV.lig_0>
-5.16926

>  <SCORE.INTRA.VDW>
0.482717

>  <SCORE.INTRA.VDW.0>
1.11912

>  <SCORE.INTRA.norm>
0.00411739

>  <SCORE.RESTR>
0

>  <SCORE.RESTR.CAVITY>
0

>  <SCORE.RESTR.norm>
0

>  <SCORE.SYSTEM>
0

>  <SCORE.SYSTEM.CONST>
0

>  <SCORE.SYSTEM.DIHEDRAL>
0

>  <SCORE.SYSTEM.SOLV>
0

>  <SCORE.SYSTEM.norm>
0

>  <SCORE.heavy>
26

>  <SCORE.norm>
-2.43311

>  <RMSD>
0.633

$$$$
1f1t Malachite green aptamer (Xray 2.8A)
 OpenBabel11021811393D
libRbt.so/2013.1/901 2013/11/27
 26 29  0  0  0  0  0  0  0  0999 V2000
  111.2367  -74.6580  -81.8372 C   0  0  0  0  0  0  0  0  0  0  0  0
  111.7486  -75.9275  -82.3320 C   0  0  0  0  0  0  0  0  0  0  0  0
  111.4867  -76.1323  -83.6880 C   0  0  0  0  0  0  0  0  0  0  0  0
  112.0320  -77.4426  -84.1414 O   0  0  0  0  0  0  0  0  0  0  0  0
  111.7974  -77.6165  -85.3834 C   0  0  0  0  0  0  0  0  0  0  0  0
  112.3569  -78.9238  -85.7262 C   0  0  0  0  0  0  0  0  0  0  0  0
  112.1907  -79.2888  -87.1092 C   0  0  0  0  0  0  0  0  0  0  0  0
  111.5519  -78.4445  -88.0509 C   0  0  0  0  0  0  0  0  0  0  0  0
  111.0092  -77.1616  -87.6444 C   0  0  0  0  0  0  0  0  0  0  0  0
  111.1515  -76.7817  -86.2603 C   0  0  0  0  0  0  0  0  0  0  0  0
  110.5455  -75.4406  -85.9193 C   0  0  0  0  0  0  0  0  0  0  0  0
  110.8172  -75.2706  -84.5498 C   0  0  0  0  0  0  0  0  0  0  0  0
  110.3034  -74.0010  -84.0311 C   0  0  0  0  0  0  0  0  0  0  0  0
  110.5607  -73.7647  -82.6454 C   0  0  0  0  0  0  0  0  0  0  0  0
  109.8972  -74.6477  -86.8472 C   0  0  0  0  0  0  0  0  0  0  0  0
  110.2363  -73.3121  -87.1656 C   0  0  0  0  0  0  0  0  0  0  0  0
  109.6042  -72.5031  -88.1115 C   0  0  0  0  0  0  0  0  0  0  0  0
  108.4837  -73.0307  -88.8756 C   0  0  0  0  0  0  0  0  0  0  0  0
  108.1626  -74.3643  -88.5256 C   0  0  0  0  0  0  0  0  0  0  0  0
  108.7650  -75.2094  -87.5834 C   0  0  0  0  0  0  0  0  0  0  0  0
  111.4229  -74.3067  -80.5074 N   0  3  0  0  0  0  0  0  0  0  0  0
  112.1337  -75.1667  -79.5680 C   0  0  0  0  0  0  0  0  0  0  0  0
  110.9553  -73.0628  -79.8569 C   0  0  0  0  0  0  0  0  0  0  0  0
  112.7123  -80.5590  -87.4085 N   0  0  0  0  0  0  0  0  0  0  0  0
  113.3101  -81.6037  -86.5473 C   0  0  0  0  0  0  0  0  0  0  0  0
  112.6675  -81.0012  -88.8470 C   0  0  0  0  0  0  0  0  0  0  0  0
  1  2  1  0  0  0  0
  1 14  1  0  0  0  0
  1 21  2  0  0  0  0
  2  3  2  0  0  0  0
  3  4  1  0  0  0  0
  3 12  1  0  0  0  0
  4  5  1  0  0  0  0
  5  6  1  0  0  0  0
  5 10  2  0  0  0  0
  6  7  2  0  0  0  0
  7  8  1  0  0  0  0
  7 24  1  0  0  0  0
  8  9  2  0  0  0  0
  9 10  1  0  0  0  0
 10 11  1  0  0  0  0
 11 12  2  0  0  0  0
 11 15  1  0  0  0  0
 12 13  1  0  0  0  0
 13 14  2  0  0  0  0
 15 16  2  0  0  0  0
 15 20  1  0  0  0  0
 16 17  1  0  0  0  0
 17 18  2  0  0  0  0
 18 19  1  0  0  0  0
 19 20  2  0  0  0  0
 21 22  1  0  0  0  0
 21 23  1  0  0  0  0
 24 25  1  0  0  0  0
 24 26  1  0  0  0  0
M  CHG  1  21   1
M  END
>  <CHROM.1>
4.63513196,-123.29592162,111.08472321,-76.19277186,-85.29879167,-1.81109045
1.05569941,-2.07701222

>  <Name>
1f1t Malachite green aptamer (Xray 2.8A)

>  <RI>
0

>  <Rbt.Current_Directory>
/home/itssahil/PROJECTS/Mol_Feturizer/New_Systems/rnas/1f1t

>  <Rbt.Executable>
rbdock ($Id: //depot/dev/client3/rdock/2013.1/src/exe/rbdock.cxx#4 $)

>  <Rbt.Library>
libRbt.so (2013.1, Build901 2013/11/27)

>  <Rbt.Parameter_File>
/export/apps/rDock/src/rDock_2013.1_src/data/scripts/dock_solv.prm

>  <Rbt.Receptor>
prm/pocket_docking_4.prm

>  <SCORE>
-63.2937

>  <SCORE.INTER>
-63.3848

>  <SCORE.INTER.CONST>
1

>  <SCORE.INTER.POLAR>
0

>  <SCORE.INTER.ROT>
2

>  <SCORE.INTER.SOLV>
11.0593

>  <SCORE.INTER.VDW>
-50.8763

>  <SCORE.INTER.norm>
-2.43788

>  <SCORE.INTRA>
0.0911706

>  <SCORE.INTRA.DIHEDRAL>
-0.778212

>  <SCORE.INTRA.DIHEDRAL.0>
4.18538

>  <SCORE.INTRA.POLAR>
0

>  <SCORE.INTRA.POLAR.0>
0

>  <SCORE.INTRA.REPUL>
0

>  <SCORE.INTRA.REPUL.0>
0

>  <SCORE.INTRA.SOLV>
0.0143317

>  <SCORE.INTRA.SOLV.lig_0>
-5.16926

>  <SCORE.INTRA.VDW>
0.473111

>  <SCORE.INTRA.VDW.0>
1.11912

>  <SCORE.INTRA.norm>
0.00350656

>  <SCORE.RESTR>
0

>  <SCORE.RESTR.CAVITY>
0

>  <SCORE.RESTR.norm>
0

>  <SCORE.SYSTEM>
0

>  <SCORE.SYSTEM.CONST>
0

>  <SCORE.SYSTEM.DIHEDRAL>
0

>  <SCORE.SYSTEM.SOLV>
0

>  <SCORE.SYSTEM.norm>
0

>  <SCORE.heavy>
26

>  <SCORE.norm>
-2.43437

>  <RMSD>
0.636

$$$$
1f1t Malachite green aptamer (Xray 2.8A)
 OpenBabel11021811393D
libRbt.so/2013.1/901 2013/11/27
 26 29  0  0  0  0  0  0  0  0999 V2000
  111.2222  -74.6044  -81.8227 C   0  0  0  0  0  0  0  0  0  0  0  0
  111.7400  -75.8761  -82.3055 C   0  0  0  0  0  0  0  0  0  0  0  0
  111.4842  -76.0923  -83.6609 C   0  0  0  0  0  0  0  0  0  0  0  0
  112.0354  -77.4043  -84.1019 O   0  0  0  0  0  0  0  0  0  0  0  0
  111.8063  -77.5886  -85.3434 C   0  0  0  0  0  0  0  0  0  0  0  0
  112.3712  -78.8969  -85.6738 C   0  0  0  0  0  0  0  0  0  0  0  0
  112.2117  -79.2731  -87.0546 C   0  0  0  0  0  0  0  0  0  0  0  0
  111.5741  -78.4382  -88.0054 C   0  0  0  0  0  0  0  0  0  0  0  0
  111.0258  -77.1538  -87.6111 C   0  0  0  0  0  0  0  0  0  0  0  0
  111.1613  -76.7628  -86.2294 C   0  0  0  0  0  0  0  0  0  0  0  0
  110.5499  -75.4209  -85.9013 C   0  0  0  0  0  0  0  0  0  0  0  0
  110.8156  -75.2394  -84.5321 C   0  0  0  0  0  0  0  0  0  0  0  0
  110.2957  -73.9674  -84.0254 C   0  0  0  0  0  0  0  0  0  0  0  0
  110.5467  -73.7195  -82.6405 C   0  0  0  0  0  0  0  0  0  0  0  0
  109.9028  -74.6374  -86.8380 C   0  0  0  0  0  0  0  0  0  0  0  0
  110.2432  -73.3054  -87.1701 C   0  0  0  0  0  0  0  0  0  0  0  0
  109.6124  -72.5058  -88.1249 C   0  0  0  0  0  0  0  0  0  0  0  0
  108.4920  -73.0406  -88.8842 C   0  0  0  0  0  0  0  0  0  0  0  0
  108.1697  -74.3702  -88.5205 C   0  0  0  0  0  0  0  0  0  0  0  0
  108.7707  -75.2059  -87.5691 C   0  0  0  0  0  0  0  0  0  0  0  0
  111.4019  -74.2422  -80.4950 N   0  3  0  0  0  0  0  0  0  0  0  0
  112.1117  -75.0926  -79.5461 C   0  0  0  0  0  0  0  0  0  0  0  0
  110.9279  -72.9947  -79.8560 C   0  0  0  0  0  0  0  0  0  0  0  0
  112.7385  -80.5440  -87.3418 N   0  0  0  0  0  0  0  0  0  0  0  0
  113.3210  -81.5868  -86.4680 C   0  0  0  0  0  0  0  0  0  0  0  0
  112.7190  -80.9894  -88.7800 C   0  0  0  0  0  0  0  0  0  0  0  0
  1  2  1  0  0  0  0
  1 14  1  0  0  0  0
  1 21  2  0  0  0  0
  2  3  2  0  0  0  0
  3  4  1  0  0  0  0
  3 12  1  0  0  0  0
  4  5  1  0  0  0  0
  5  6  1  0  0  0  0
  5 10  2  0  0  0  0
  6  7  2  0  0  0  0
  7  8  1  0  0  0  0
  7 24  1  0  0  0  0
  8  9  2  0  0  0  0
  9 10  1  0  0  0  0
 10 11  1  0  0  0  0
 11 12  2  0  0  0  0
 11 15  1  0  0  0  0
 12 13  1  0  0  0  0
 13 14  2  0  0  0  0
 15 16  2  0  0  0  0
 15 20  1  0  0  0  0
 16 17  1  0  0  0  0
 17 18  2  0  0  0  0
 18 19  1  0  0  0  0
 19 20  2  0  0  0  0
 21 22  1  0  0  0  0
 21 23  1  0  0  0  0
 24 25  1  0  0  0  0
 24 26  1  0  0  0  0
M  CHG  1  21   1
M  END
>  <CHROM.1>
5.49565962,-122.96712584,111.08900235,-76.16649285,-85.27279740,-1.82178778
1.05502440,-2.07541943

>  <Name>
1f1t Malachite green aptamer (Xray 2.8A)

>  <RI>
0

>  <Rbt.Current_Directory>
/home/itssahil/PROJECTS/Mol_Feturizer/New_Systems/rnas/1f1t

>  <Rbt.Executable>
rbdock ($Id: //depot/dev/client3/rdock/2013.1/src/exe/rbdock.cxx#4 $)

>  <Rbt.Library>
libRbt.so (2013.1, Build901 2013/11/27)

>  <Rbt.Parameter_File>
/export/apps/rDock/src/rDock_2013.1_src/data/scripts/dock_solv.prm

>  <Rbt.Receptor>
prm/pocket_docking_5.prm

>  <SCORE>
-63.2186

>  <SCORE.INTER>
-63.3086

>  <SCORE.INTER.CONST>
1

>  <SCORE.INTER.POLAR>
0

>  <SCORE.INTER.ROT>
2

>  <SCORE.INTER.SOLV>
11.0696

>  <SCORE.INTER.VDW>
-50.8289

>  <SCORE.INTER.norm>
-2.43495

>  <SCORE.INTRA>
0.0899315

>  <SCORE.INTRA.DIHEDRAL>
-0.719996

>  <SCORE.INTRA.DIHEDRAL.0>
4.18538

>  <SCORE.INTRA.POLAR>
0

>  <SCORE.INTRA.POLAR.0>
0

>  <SCORE.INTRA.REPUL>
0

>  <SCORE.INTRA.REPUL.0>
0

>  <SCORE.INTRA.SOLV>
0.0139491

>  <SCORE.INTRA.SOLV.lig_0>
-5.16926

>  <SCORE.INTRA.VDW>
0.442955

>  <SCORE.INTRA.VDW.0>
1.11912

>  <SCORE.INTRA.norm>
0.00345891

>  <SCORE.RESTR>
0

>  <SCORE.RESTR.CAVITY>
0

>  <SCORE.RESTR.norm>
0

>  <SCORE.SYSTEM>
0

>  <SCORE.SYSTEM.CONST>
0

>  <SCORE.SYSTEM.DIHEDRAL>
0

>  <SCORE.SYSTEM.SOLV>
0

>  <SCORE.SYSTEM.norm>
0

>  <SCORE.heavy>
26

>  <SCORE.norm>
-2.43149

>  <RMSD>
0.636

$$$$
1f1t Malachite green aptamer (Xray 2.8A)
 OpenBabel11021811393D
libRbt.so/2013.1/901 2013/11/27
 26 29  0  0  0  0  0  0  0  0999 V2000
  111.2404  -74.6220  -81.8273 C   0  0  0  0  0  0  0  0  0  0  0  0
  111.7543  -75.8926  -82.3170 C   0  0  0  0  0  0  0  0  0  0  0  0
  111.4924  -76.1034  -83.6721 C   0  0  0  0  0  0  0  0  0  0  0  0
  112.0397  -77.4146  -84.1203 O   0  0  0  0  0  0  0  0  0  0  0  0
  111.8051  -77.5940  -85.3615 C   0  0  0  0  0  0  0  0  0  0  0  0
  112.3667  -78.9017  -85.6992 C   0  0  0  0  0  0  0  0  0  0  0  0
  112.2007  -79.2726  -87.0806 C   0  0  0  0  0  0  0  0  0  0  0  0
  111.5602  -78.4333  -88.0256 C   0  0  0  0  0  0  0  0  0  0  0  0
  111.0154  -77.1496  -87.6241 C   0  0  0  0  0  0  0  0  0  0  0  0
  111.1574  -76.7639  -86.2416 C   0  0  0  0  0  0  0  0  0  0  0  0
  110.5494  -75.4224  -85.9059 C   0  0  0  0  0  0  0  0  0  0  0  0
  110.8212  -75.2464  -84.5372 C   0  0  0  0  0  0  0  0  0  0  0  0
  110.3054  -73.9755  -84.0236 C   0  0  0  0  0  0  0  0  0  0  0  0
  110.5627  -73.7331  -82.6388 C   0  0  0  0  0  0  0  0  0  0  0  0
  109.8994  -74.6344  -86.8369 C   0  0  0  0  0  0  0  0  0  0  0  0
  110.2429  -73.3032  -87.1686 C   0  0  0  0  0  0  0  0  0  0  0  0
  109.6091  -72.4993  -88.1178 C   0  0  0  0  0  0  0  0  0  0  0  0
  108.4818  -73.0281  -88.8709 C   0  0  0  0  0  0  0  0  0  0  0  0
  108.1564  -74.3571  -88.5076 C   0  0  0  0  0  0  0  0  0  0  0  0
  108.7603  -75.1970  -87.5617 C   0  0  0  0  0  0  0  0  0  0  0  0
  111.4264  -74.2650  -80.4990 N   0  3  0  0  0  0  0  0  0  0  0  0
  112.1390  -75.1199  -79.5563 C   0  0  0  0  0  0  0  0  0  0  0  0
  110.9569  -73.0193  -79.8534 C   0  0  0  0  0  0  0  0  0  0  0  0
  112.7244  -80.5432  -87.3749 N   0  0  0  0  0  0  0  0  0  0  0  0
  113.3022  -81.5931  -86.5065 C   0  0  0  0  0  0  0  0  0  0  0  0
  112.7064  -80.9794  -88.8158 C   0  0  0  0  0  0  0  0  0  0  0  0
  1  2  1  0  0  0  0
  1 14  1  0  0  0  0
  1 21  2  0  0  0  0
  2  3  2  0  0  0  0
  3  4  1  0  0  0  0
  3 12  1  0  0  0  0
  4  5  1  0  0  0  0
  5  6  1  0  0  0  0
  5 10  2  0  0  0  0
  6  7  2  0  0  0  0
  7  8  1  0  0  0  0
  7 24  1  0  0  0  0
  8  9  2  0  0  0  0
  9 10  1  0  0  0  0
 10 11  1  0  0  0  0
 11 12  2  0  0  0  0
 11 15  1  0  0  0  0
 12 13  1  0  0  0  0
 13 14  2  0  0  0  0
 15 16  2  0  0  0  0
 15 20  1  0  0  0  0
 16 17  1  0  0  0  0
 17 18  2  0  0  0  0
 18 19  1  0  0  0  0
 19 20  2  0  0  0  0
 21 22  1  0  0  0  0
 21 23  1  0  0  0  0
 24 25  1  0  0  0  0
 24 26  1  0  0  0  0
M  CHG  1  21   1
M  END
>  <CHROM.1>
5.89103588,-122.74872398,111.09012028,-76.17103266,-85.28249777,-1.81299326
1.05421910,-2.07931163

>  <Name>
1f1t Malachite green aptamer (Xray 2.8A)

>  <RI>
0

>  <Rbt.Current_Directory>
/home/itssahil/PROJECTS/Mol_Feturizer/New_Systems/rnas/1f1t

>  <Rbt.Executable>
rbdock ($Id: //depot/dev/client3/rdock/2013.1/src/exe/rbdock.cxx#4 $)

>  <Rbt.Library>
libRbt.so (2013.1, Build901 2013/11/27)

>  <Rbt.Parameter_File>
/export/apps/rDock/src/rDock_2013.1_src/data/scripts/dock_solv.prm

>  <Rbt.Receptor>
prm/pocket_docking_3.prm

>  <SCORE>
-63.2305

>  <SCORE.INTER>
-63.3189

>  <SCORE.INTER.CONST>
1

>  <SCORE.INTER.POLAR>
0

>  <SCORE.INTER.ROT>
2

>  <SCORE.INTER.SOLV>
11.0648

>  <SCORE.INTER.VDW>
-50.8342

>  <SCORE.INTER.norm>
-2.43534

>  <SCORE.INTRA>
0.0884556

>  <SCORE.INTRA.DIHEDRAL>
-0.686224

>  <SCORE.INTRA.DIHEDRAL.0>
4.18538

>  <SCORE.INTRA.POLAR>
0

>  <SCORE.INTRA.POLAR.0>
0

>  <SCORE.INTRA.REPUL>
0

>  <SCORE.INTRA.REPUL.0>
0

>  <SCORE.INTRA.SOLV>
0.0136933

>  <SCORE.INTRA.SOLV.lig_0>
-5.16926

>  <SCORE.INTRA.VDW>
0.424721

>  <SCORE.INTRA.VDW.0>
1.11912

>  <SCORE.INTRA.norm>
0.00340214

>  <SCORE.RESTR>
0

>  <SCORE.RESTR.CAVITY>
0

>  <SCORE.RESTR.norm>
0

>  <SCORE.SYSTEM>
0

>  <SCORE.SYSTEM.CONST>
0

>  <SCORE.SYSTEM.DIHEDRAL>
0

>  <SCORE.SYSTEM.SOLV>
0

>  <SCORE.SYSTEM.norm>
0

>  <SCORE.heavy>
26

>  <SCORE.norm>
-2.43194

>  <RMSD>
0.638

$$$$
1f1t Malachite green aptamer (Xray 2.8A)
 OpenBabel11021811393D
libRbt.so/2013.1/901 2013/11/27
 26 29  0  0  0  0  0  0  0  0999 V2000
  111.2166  -74.6325  -81.8485 C   0  0  0  0  0  0  0  0  0  0  0  0
  111.7312  -75.9036  -82.3362 C   0  0  0  0  0  0  0  0  0  0  0  0
  111.4719  -76.1155  -83.6916 C   0  0  0  0  0  0  0  0  0  0  0  0
  112.0199  -77.4271  -84.1377 O   0  0  0  0  0  0  0  0  0  0  0  0
  111.7876  -77.6074  -85.3792 C   0  0  0  0  0  0  0  0  0  0  0  0
  112.3496  -78.9156  -85.7147 C   0  0  0  0  0  0  0  0  0  0  0  0
  112.1863  -79.2875  -87.0962 C   0  0  0  0  0  0  0  0  0  0  0  0
  111.5479  -78.4489  -88.0431 C   0  0  0  0  0  0  0  0  0  0  0  0
  111.0026  -77.1648  -87.6437 C   0  0  0  0  0  0  0  0  0  0  0  0
  111.1419  -76.7779  -86.2613 C   0  0  0  0  0  0  0  0  0  0  0  0
  110.5334  -75.4361  -85.9279 C   0  0  0  0  0  0  0  0  0  0  0  0
  110.8026  -75.2590  -84.5588 C   0  0  0  0  0  0  0  0  0  0  0  0
  110.2860  -73.9876  -84.0471 C   0  0  0  0  0  0  0  0  0  0  0  0
  110.5406  -73.7442  -82.6621 C   0  0  0  0  0  0  0  0  0  0  0  0
  109.8854  -74.6487  -86.8607 C   0  0  0  0  0  0  0  0  0  0  0  0
  110.2353  -73.3208  -87.1992 C   0  0  0  0  0  0  0  0  0  0  0  0
  109.6035  -72.5177  -88.1503 C   0  0  0  0  0  0  0  0  0  0  0  0
  108.4716  -73.0438  -88.8984 C   0  0  0  0  0  0  0  0  0  0  0  0
  108.1400  -74.3694  -88.5285 C   0  0  0  0  0  0  0  0  0  0  0  0
  108.7416  -75.2084  -87.5804 C   0  0  0  0  0  0  0  0  0  0  0  0
  111.4000  -74.2744  -80.5201 N   0  3  0  0  0  0  0  0  0  0  0  0
  112.1106  -75.1288  -79.5754 C   0  0  0  0  0  0  0  0  0  0  0  0
  110.9295  -73.0281  -79.8764 C   0  0  0  0  0  0  0  0  0  0  0  0
  112.7103  -80.5584  -87.3884 N   0  0  0  0  0  0  0  0  0  0  0  0
  113.3178  -81.5937  -86.5226 C   0  0  0  0  0  0  0  0  0  0  0  0
  112.6570  -81.0130  -88.8228 C   0  0  0  0  0  0  0  0  0  0  0  0
  1  2  1  0  0  0  0
  1 14  1  0  0  0  0
  1 21  2  0  0  0  0
  2  3  2  0  0  0  0
  3  4  1  0  0  0  0
  3 12  1  0  0  0  0
  4  5  1  0  0  0  0
  5  6  1  0  0  0  0
  5 10  2  0  0  0  0
  6  7  2  0  0  0  0
  7  8  1  0  0  0  0
  7 24  1  0  0  0  0
  8  9  2  0  0  0  0
  9 10  1  0  0  0  0
 10 11  1  0  0  0  0
 11 12  2  0  0  0  0
 11 15  1  0  0  0  0
 12 13  1  0  0  0  0
 13 14  2  0  0  0  0
 15 16  2  0  0  0  0
 15 20  1  0  0  0  0
 16 17  1  0  0  0  0
 17 18  2  0  0  0  0
 18 19  1  0  0  0  0
 19 20  2  0  0  0  0
 21 22  1  0  0  0  0
 21 23  1  0  0  0  0
 24 25  1  0  0  0  0
 24 26  1  0  0  0  0
M  CHG  1  21   1
M  END
>  <CHROM.1>
4.08484949,-122.31100707,111.07246706,-76.18443483,-85.30263179,-1.81543017
1.05496009,-2.07811648

>  <Name>
1f1t Malachite green aptamer (Xray 2.8A)

>  <RI>
0

>  <Rbt.Current_Directory>
/home/itssahil/PROJECTS/Mol_Feturizer/New_Systems/rnas/1f1t

>  <Rbt.Executable>
rbdock ($Id: //depot/dev/client3/rdock/2013.1/src/exe/rbdock.cxx#4 $)

>  <Rbt.Library>
libRbt.so (2013.1, Build901 2013/11/27)

>  <Rbt.Parameter_File>
/export/apps/rDock/src/rDock_2013.1_src/data/scripts/dock_solv.prm

>  <Rbt.Receptor>
prm/pocket_docking_3.prm

>  <SCORE>
-63.2339

>  <SCORE.INTER>
-63.3014

>  <SCORE.INTER.CONST>
1

>  <SCORE.INTER.POLAR>
0

>  <SCORE.INTER.ROT>
2

>  <SCORE.INTER.SOLV>
11.0882

>  <SCORE.INTER.VDW>
-50.8303

>  <SCORE.INTER.norm>
-2.43467

>  <SCORE.INTRA>
0.067513

>  <SCORE.INTRA.DIHEDRAL>
-0.72071

>  <SCORE.INTRA.DIHEDRAL.0>
4.18538

>  <SCORE.INTRA.POLAR>
0

>  <SCORE.INTRA.POLAR.0>
0

>  <SCORE.INTRA.REPUL>
0

>  <SCORE.INTRA.REPUL.0>
0

>  <SCORE.INTRA.SOLV>
0.0131799

>  <SCORE.INTRA.SOLV.lig_0>
-5.16926

>  <SCORE.INTRA.VDW>
0.421278

>  <SCORE.INTRA.VDW.0>
1.11912

>  <SCORE.INTRA.norm>
0.00259666

>  <SCORE.RESTR>
0

>  <SCORE.RESTR.CAVITY>
0

>  <SCORE.RESTR.norm>
0

>  <SCORE.SYSTEM>
0

>  <SCORE.SYSTEM.CONST>
0

>  <SCORE.SYSTEM.DIHEDRAL>
0

>  <SCORE.SYSTEM.SOLV>
0

>  <SCORE.SYSTEM.norm>
0

>  <SCORE.heavy>
26

>  <SCORE.norm>
-2.43207

>  <RMSD>
0.643

$$$$
1f1t Malachite green aptamer (Xray 2.8A)
 OpenBabel11021811393D
libRbt.so/2013.1/901 2013/11/27
 26 29  0  0  0  0  0  0  0  0999 V2000
  111.2456  -74.6524  -81.8338 C   0  0  0  0  0  0  0  0  0  0  0  0
  111.7494  -75.9254  -82.3279 C   0  0  0  0  0  0  0  0  0  0  0  0
  111.4874  -76.1286  -83.6842 C   0  0  0  0  0  0  0  0  0  0  0  0
  112.0242  -77.4426  -84.1369 O   0  0  0  0  0  0  0  0  0  0  0  0
  111.7896  -77.6151  -85.3791 C   0  0  0  0  0  0  0  0  0  0  0  0
  112.3406  -78.9262  -85.7212 C   0  0  0  0  0  0  0  0  0  0  0  0
  112.1732  -79.2902  -87.1043 C   0  0  0  0  0  0  0  0  0  0  0  0
  111.5411  -78.4418  -88.0467 C   0  0  0  0  0  0  0  0  0  0  0  0
  111.0067  -77.1552  -87.6409 C   0  0  0  0  0  0  0  0  0  0  0  0
  111.1502  -76.7761  -86.2567 C   0  0  0  0  0  0  0  0  0  0  0  0
  110.5530  -75.4308  -85.9165 C   0  0  0  0  0  0  0  0  0  0  0  0
  110.8246  -75.2625  -84.5467 C   0  0  0  0  0  0  0  0  0  0  0  0
  110.3189  -73.9894  -84.0287 C   0  0  0  0  0  0  0  0  0  0  0  0
  110.5765  -73.7546  -82.6427 C   0  0  0  0  0  0  0  0  0  0  0  0
  109.9109  -74.6337  -86.8451 C   0  0  0  0  0  0  0  0  0  0  0  0
  110.2514  -73.2962  -87.1541 C   0  0  0  0  0  0  0  0  0  0  0  0
  109.6256  -72.4828  -88.1006 C   0  0  0  0  0  0  0  0  0  0  0  0
  108.5112  -73.0074  -88.8756 C   0  0  0  0  0  0  0  0  0  0  0  0
  108.1885  -74.3430  -88.5348 C   0  0  0  0  0  0  0  0  0  0  0  0
  108.7846  -75.1925  -87.5925 C   0  0  0  0  0  0  0  0  0  0  0  0
  111.4329  -74.3022  -80.5039 N   0  3  0  0  0  0  0  0  0  0  0  0
  112.1371  -75.1669  -79.5637 C   0  0  0  0  0  0  0  0  0  0  0  0
  110.9732  -73.0551  -79.8539 C   0  0  0  0  0  0  0  0  0  0  0  0
  112.6865  -80.5640  -87.4029 N   0  0  0  0  0  0  0  0  0  0  0  0
  113.3029  -81.6009  -86.5455 C   0  0  0  0  0  0  0  0  0  0  0  0
  112.6081  -81.0203  -88.8356 C   0  0  0  0  0  0  0  0  0  0  0  0
  1  2  1  0  0  0  0
  1 14  1  0  0  0  0
  1 21  2  0  0  0  0
  2  3  2  0  0  0  0
  3  4  1  0  0  0  0
  3 12  1  0  0  0  0
  4  5  1  0  0  0  0
  5  6  1  0  0  0  0
  5 10  2  0  0  0  0
  6  7  2  0  0  0  0
  7  8  1  0  0  0  0
  7 24  1  0  0  0  0
  8  9  2  0  0  0  0
  9 10  1  0  0  0  0
 10 11  1  0  0  0  0
 11 12  2  0  0  0  0
 11 15  1  0  0  0  0
 12 13  1  0  0  0  0
 13 14  2  0  0  0  0
 15 16  2  0  0  0  0
 15 20  1  0  0  0  0
 16 17  1  0  0  0  0
 17 18  2  0  0  0  0
 18 19  1  0  0  0  0
 19 20  2  0  0  0  0
 21 22  1  0  0  0  0
 21 23  1  0  0  0  0
 24 25  1  0  0  0  0
 24 26  1  0  0  0  0
M  CHG  1  21   1
M  END
>  <CHROM.1>
3.11471005,-123.93782388,111.08639121,-76.18668809,-85.29534099,-1.80512589
1.06186877,-2.08249975

>  <Name>
1f1t Malachite green aptamer (Xray 2.8A)

>  <RI>
0

>  <Rbt.Current_Directory>
/home/itssahil/PROJECTS/Mol_Feturizer/New_Systems/rnas/1f1t

>  <Rbt.Executable>
rbdock ($Id: //depot/dev/client3/rdock/2013.1/src/exe/rbdock.cxx#4 $)

>  <Rbt.Library>
libRbt.so (2013.1, Build901 2013/11/27)

>  <Rbt.Parameter_File>
/export/apps/rDock/src/rDock_2013.1_src/data/scripts/dock_solv.prm

>  <Rbt.Receptor>
prm/pocket_docking_8.prm

>  <SCORE>
-63.2548

>  <SCORE.INTER>
-63.3532

>  <SCORE.INTER.CONST>
1

>  <SCORE.INTER.POLAR>
0

>  <SCORE.INTER.ROT>
2

>  <SCORE.INTER.SOLV>
11.0903

>  <SCORE.INTER.VDW>
-50.8656

>  <SCORE.INTER.norm>
-2.43666

>  <SCORE.INTRA>
0.0983986

>  <SCORE.INTRA.DIHEDRAL>
-0.872165

>  <SCORE.INTRA.DIHEDRAL.0>
4.18538

>  <SCORE.INTRA.POLAR>
0

>  <SCORE.INTRA.POLAR.0>
0

>  <SCORE.INTRA.REPUL>
0

>  <SCORE.INTRA.REPUL.0>
0

>  <SCORE.INTRA.SOLV>
0.0150785

>  <SCORE.INTRA.SOLV.lig_0>
-5.16926

>  <SCORE.INTRA.VDW>
0.526942

>  <SCORE.INTRA.VDW.0>
1.11912

>  <SCORE.INTRA.norm>
0.00378456

>  <SCORE.RESTR>
0

>  <SCORE.RESTR.CAVITY>
0

>  <SCORE.RESTR.norm>
0

>  <SCORE.SYSTEM>
0

>  <SCORE.SYSTEM.CONST>
0

>  <SCORE.SYSTEM.DIHEDRAL>
0

>  <SCORE.SYSTEM.SOLV>
0

>  <SCORE.SYSTEM.norm>
0

>  <SCORE.heavy>
26

>  <SCORE.norm>
-2.43288

>  <RMSD>
0.644

$$$$
1f1t Malachite green aptamer (Xray 2.8A)
 OpenBabel11021811393D
libRbt.so/2013.1/901 2013/11/27
 26 29  0  0  0  0  0  0  0  0999 V2000
  111.1896  -74.5945  -81.8856 C   0  0  0  0  0  0  0  0  0  0  0  0
  111.7326  -75.8607  -82.3547 C   0  0  0  0  0  0  0  0  0  0  0  0
  111.4752  -76.0998  -83.7060 C   0  0  0  0  0  0  0  0  0  0  0  0
  112.0525  -77.4052  -84.1329 O   0  0  0  0  0  0  0  0  0  0  0  0
  111.8217  -77.6104  -85.3709 C   0  0  0  0  0  0  0  0  0  0  0  0
  112.4132  -78.9102  -85.6873 C   0  0  0  0  0  0  0  0  0  0  0  0
  112.2554  -79.3075  -87.0624 C   0  0  0  0  0  0  0  0  0  0  0  0
  111.5955  -78.4989  -88.0206 C   0  0  0  0  0  0  0  0  0  0  0  0
  111.0213  -77.2217  -87.6399 C   0  0  0  0  0  0  0  0  0  0  0  0
  111.1548  -76.8100  -86.2640 C   0  0  0  0  0  0  0  0  0  0  0  0
  110.5160  -75.4776  -85.9501 C   0  0  0  0  0  0  0  0  0  0  0  0
  110.7841  -75.2729  -84.5846 C   0  0  0  0  0  0  0  0  0  0  0  0
  110.2392  -74.0060  -84.0916 C   0  0  0  0  0  0  0  0  0  0  0  0
  110.4913  -73.7350  -82.7112 C   0  0  0  0  0  0  0  0  0  0  0  0
  109.8477  -74.7203  -86.8934 C   0  0  0  0  0  0  0  0  0  0  0  0
  108.7778  -75.1720  -87.7006 C   0  0  0  0  0  0  0  0  0  0  0  0
  108.0804  -74.4166  -88.6451 C   0  0  0  0  0  0  0  0  0  0  0  0
  108.4431  -73.0241  -88.8624 C   0  0  0  0  0  0  0  0  0  0  0  0
  109.5233  -72.6067  -88.0482 C   0  0  0  0  0  0  0  0  0  0  0  0
  110.2525  -73.3291  -87.0937 C   0  0  0  0  0  0  0  0  0  0  0  0
  111.3677  -74.2114  -80.5635 N   0  3  0  0  0  0  0  0  0  0  0  0
  112.1002  -75.0340  -79.6073 C   0  0  0  0  0  0  0  0  0  0  0  0
  110.8698  -72.9664  -79.9381 C   0  0  0  0  0  0  0  0  0  0  0  0
  112.8083  -80.5703  -87.3360 N   0  0  0  0  0  0  0  0  0  0  0  0
  113.3409  -81.6242  -86.4439 C   0  0  0  0  0  0  0  0  0  0  0  0
  112.8838  -80.9916  -88.7796 C   0  0  0  0  0  0  0  0  0  0  0  0
  1  2  1  0  0  0  0
  1 14  1  0  0  0  0
  1 21  2  0  0  0  0
  2  3  2  0  0  0  0
  3  4  1  0  0  0  0
  3 12  1  0  0  0  0
  4  5  1  0  0  0  0
  5  6  1  0  0  0  0
  5 10  2  0  0  0  0
  6  7  2  0  0  0  0
  7  8  1  0  0  0  0
  7 24  1  0  0  0  0
  8  9  2  0  0  0  0
  9 10  1  0  0  0  0
 10 11  1  0  0  0  0
 11 12  2  0  0  0  0
 11 15  1  0  0  0  0
 12 13  1  0  0  0  0
 13 14  2  0  0  0  0
 15 16  2  0  0  0  0
 15 20  1  0  0  0  0
 16 17  1  0  0  0  0
 17 18  2  0  0  0  0
 18 19  1  0  0  0  0
 19 20  2  0  0  0  0
 21 22  1  0  0  0  0
 21 23  1  0  0  0  0
 24 25  1  0  0  0  0
 24 26  1  0  0  0  0
M  CHG  1  21   1
M  END
>  <CHROM.1>
9.87328307,54.38854331,111.08216173,-76.18528730,-85.30600177,-1.85563230
1.03948459,-2.07301524

>  <Name>
1f1t Malachite green aptamer (Xray 2.8A)

>  <RI>
0

>  <Rbt.Current_Directory>
/home/itssahil/PROJECTS/Mol_Feturizer/New_Systems/rnas/1f1t

>  <Rbt.Executable>
rbdock ($Id: //depot/dev/client3/rdock/2013.1/src/exe/rbdock.cxx#4 $)

>  <Rbt.Library>
libRbt.so (2013.1, Build901 2013/11/27)

>  <Rbt.Parameter_File>
/export/apps/rDock/src/rDock_2013.1_src/data/scripts/dock_solv.prm

>  <Rbt.Receptor>
prm/pocket_docking_7.prm

>  <SCORE>
-62.7305

>  <SCORE.INTER>
-62.8165

>  <SCORE.INTER.CONST>
1

>  <SCORE.INTER.POLAR>
0

>  <SCORE.INTER.ROT>
2

>  <SCORE.INTER.SOLV>
11.0567

>  <SCORE.INTER.VDW>
-50.4966

>  <SCORE.INTER.norm>
-2.41602

>  <SCORE.INTRA>
0.086025

>  <SCORE.INTRA.DIHEDRAL>
-0.672836

>  <SCORE.INTRA.DIHEDRAL.0>
4.18538

>  <SCORE.INTRA.POLAR>
0

>  <SCORE.INTRA.POLAR.0>
0

>  <SCORE.INTRA.REPUL>
0

>  <SCORE.INTRA.REPUL.0>
0

>  <SCORE.INTRA.SOLV>
0.0169514

>  <SCORE.INTRA.SOLV.lig_0>
-5.16926

>  <SCORE.INTRA.VDW>
0.413967

>  <SCORE.INTRA.VDW.0>
1.11912

>  <SCORE.INTRA.norm>
0.00330865

>  <SCORE.RESTR>
0

>  <SCORE.RESTR.CAVITY>
0

>  <SCORE.RESTR.norm>
0

>  <SCORE.SYSTEM>
0

>  <SCORE.SYSTEM.CONST>
0

>  <SCORE.SYSTEM.DIHEDRAL>
0

>  <SCORE.SYSTEM.SOLV>
0

>  <SCORE.SYSTEM.norm>
0

>  <SCORE.heavy>
26

>  <SCORE.norm>
-2.41271

>  <RMSD>
0.646

$$$$
1f1t Malachite green aptamer (Xray 2.8A)
 OpenBabel11021811393D
libRbt.so/2013.1/901 2013/11/27
 26 29  0  0  0  0  0  0  0  0999 V2000
  111.2355  -74.6072  -81.8419 C   0  0  0  0  0  0  0  0  0  0  0  0
  111.7531  -75.8779  -82.3274 C   0  0  0  0  0  0  0  0  0  0  0  0
  111.4946  -76.0925  -83.6826 C   0  0  0  0  0  0  0  0  0  0  0  0
  112.0457  -77.4036  -84.1264 O   0  0  0  0  0  0  0  0  0  0  0  0
  111.8142  -77.5864  -85.3677 C   0  0  0  0  0  0  0  0  0  0  0  0
  112.3792  -78.8939  -85.7009 C   0  0  0  0  0  0  0  0  0  0  0  0
  112.2171  -79.2684  -87.0819 C   0  0  0  0  0  0  0  0  0  0  0  0
  111.5771  -78.4326  -88.0303 C   0  0  0  0  0  0  0  0  0  0  0  0
  111.0288  -77.1491  -87.6332 C   0  0  0  0  0  0  0  0  0  0  0  0
  111.1669  -76.7598  -86.2513 C   0  0  0  0  0  0  0  0  0  0  0  0
  110.5553  -75.4187  -85.9202 C   0  0  0  0  0  0  0  0  0  0  0  0
  110.8237  -75.2389  -84.5513 C   0  0  0  0  0  0  0  0  0  0  0  0
  110.3041  -73.9679  -84.0419 C   0  0  0  0  0  0  0  0  0  0  0  0
  110.5578  -73.7216  -82.6571 C   0  0  0  0  0  0  0  0  0  0  0  0
  109.9059  -74.6344  -86.8545 C   0  0  0  0  0  0  0  0  0  0  0  0
  110.2351  -73.2966  -87.1745 C   0  0  0  0  0  0  0  0  0  0  0  0
  109.6018  -72.4959  -88.1268 C   0  0  0  0  0  0  0  0  0  0  0  0
  108.4910  -73.0358  -88.8965 C   0  0  0  0  0  0  0  0  0  0  0  0
  108.1796  -74.3712  -88.5447 C   0  0  0  0  0  0  0  0  0  0  0  0
  108.7834  -75.2082  -87.5963 C   0  0  0  0  0  0  0  0  0  0  0  0
  111.4177  -74.2466  -80.5141 N   0  3  0  0  0  0  0  0  0  0  0  0
  112.1299  -75.0978  -79.5677 C   0  0  0  0  0  0  0  0  0  0  0  0
  110.9442  -73.0003  -79.8725 C   0  0  0  0  0  0  0  0  0  0  0  0
  112.7441  -80.5386  -87.3719 N   0  0  0  0  0  0  0  0  0  0  0  0
  113.3302  -81.5817  -86.5008 C   0  0  0  0  0  0  0  0  0  0  0  0
  112.7204  -80.9827  -88.8104 C   0  0  0  0  0  0  0  0  0  0  0  0
  1  2  1  0  0  0  0
  1 14  1  0  0  0  0
  1 21  2  0  0  0  0
  2  3  2  0  0  0  0
  3  4  1  0  0  0  0
  3 12  1  0  0  0  0
  4  5  1  0  0  0  0
  5  6  1  0  0  0  0
  5 10  2  0  0  0  0
  6  7  2  0  0  0  0
  7  8  1  0  0  0  0
  7 24  1  0  0  0  0
  8  9  2  0  0  0  0
  9 10  1  0  0  0  0
 10 11  1  0  0  0  0
 11 12  2  0  0  0  0
 11 15  1  0  0  0  0
 12 13  1  0  0  0  0
 13 14  2  0  0  0  0
 15 16  2  0  0  0  0
 15 20  1  0  0  0  0
 16 17  1  0  0  0  0
 17 18  2  0  0  0  0
 18 19  1  0  0  0  0
 19 20  2  0  0  0  0
 21 22  1  0  0  0  0
 21 23  1  0  0  0  0
 24 25  1  0  0  0  0
 24 26  1  0  0  0  0
M  CHG  1  21   1
M  END
>  <CHROM.1>
5.42738913,-123.73990392,111.09626169,-76.16483491,-85.29383435,-1.81858429
1.05360125,-2.07693023

>  <Name>
1f1t Malachite green aptamer (Xray 2.8A)

>  <RI>
0

>  <Rbt.Current_Directory>
/home/itssahil/PROJECTS/Mol_Feturizer/New_Systems/rnas/1f1t

>  <Rbt.Executable>
rbdock ($Id: //depot/dev/client3/rdock/2013.1/src/exe/rbdock.cxx#4 $)

>  <Rbt.Library>
libRbt.so (2013.1, Build901 2013/11/27)

>  <Rbt.Parameter_File>
/export/apps/rDock/src/rDock_2013.1_src/data/scripts/dock_solv.prm

>  <Rbt.Receptor>
prm/pocket_docking_2.prm

>  <SCORE>
-63.2293

>  <SCORE.INTER>
-63.3362

>  <SCORE.INTER.CONST>
1

>  <SCORE.INTER.POLAR>
0

>  <SCORE.INTER.ROT>
2

>  <SCORE.INTER.SOLV>
11.1107

>  <SCORE.INTER.VDW>
-50.8611

>  <SCORE.INTER.norm>
-2.43601

>  <SCORE.INTRA>
0.106969

>  <SCORE.INTRA.DIHEDRAL>
-0.782568

>  <SCORE.INTRA.DIHEDRAL.0>
4.18538

>  <SCORE.INTRA.POLAR>
0

>  <SCORE.INTRA.POLAR.0>
0

>  <SCORE.INTRA.REPUL>
0

>  <SCORE.INTRA.REPUL.0>
0

>  <SCORE.INTRA.SOLV>
0.0148497

>  <SCORE.INTRA.SOLV.lig_0>
-5.16926

>  <SCORE.INTRA.VDW>
0.490829

>  <SCORE.INTRA.VDW.0>
1.11912

>  <SCORE.INTRA.norm>
0.00411421

>  <SCORE.RESTR>
0

>  <SCORE.RESTR.CAVITY>
0

>  <SCORE.RESTR.norm>
0

>  <SCORE.SYSTEM>
0

>  <SCORE.SYSTEM.CONST>
0

>  <SCORE.SYSTEM.DIHEDRAL>
0

>  <SCORE.SYSTEM.SOLV>
0

>  <SCORE.SYSTEM.norm>
0

>  <SCORE.heavy>
26

>  <SCORE.norm>
-2.43189

>  <RMSD>
0.650

$$$$
1f1t Malachite green aptamer (Xray 2.8A)
 OpenBabel11021811393D
libRbt.so/2013.1/901 2013/11/27
 26 29  0  0  0  0  0  0  0  0999 V2000
  111.2602  -74.6298  -81.8527 C   0  0  0  0  0  0  0  0  0  0  0  0
  111.7702  -75.9011  -82.3448 C   0  0  0  0  0  0  0  0  0  0  0  0
  111.5027  -76.1109  -83.6990 C   0  0  0  0  0  0  0  0  0  0  0  0
  112.0463  -77.4228  -84.1498 O   0  0  0  0  0  0  0  0  0  0  0  0
  111.8066  -77.6013  -85.3902 C   0  0  0  0  0  0  0  0  0  0  0  0
  112.3648  -78.9099  -85.7304 C   0  0  0  0  0  0  0  0  0  0  0  0
  112.1930  -79.2799  -87.1114 C   0  0  0  0  0  0  0  0  0  0  0  0
  111.5503  -78.4392  -88.0536 C   0  0  0  0  0  0  0  0  0  0  0  0
  111.0091  -77.1548  -87.6496 C   0  0  0  0  0  0  0  0  0  0  0  0
  111.1570  -76.7698  -86.2675 C   0  0  0  0  0  0  0  0  0  0  0  0
  110.5524  -75.4275  -85.9290 C   0  0  0  0  0  0  0  0  0  0  0  0
  110.8297  -75.2524  -84.5613 C   0  0  0  0  0  0  0  0  0  0  0  0
  110.3179  -73.9810  -84.0451 C   0  0  0  0  0  0  0  0  0  0  0  0
  110.5808  -73.7395  -82.6613 C   0  0  0  0  0  0  0  0  0  0  0  0
  109.9001  -74.6381  -86.8571 C   0  0  0  0  0  0  0  0  0  0  0  0
  110.2461  -73.3081  -87.1915 C   0  0  0  0  0  0  0  0  0  0  0  0
  109.6100  -72.5029  -88.1379 C   0  0  0  0  0  0  0  0  0  0  0  0
  108.4773  -73.0287  -88.8850 C   0  0  0  0  0  0  0  0  0  0  0  0
  108.1497  -74.3565  -88.5193 C   0  0  0  0  0  0  0  0  0  0  0  0
  108.7557  -75.1976  -87.5759 C   0  0  0  0  0  0  0  0  0  0  0  0
  111.4518  -74.2736  -80.5250 N   0  3  0  0  0  0  0  0  0  0  0  0
  112.1666  -75.1301  -79.5853 C   0  0  0  0  0  0  0  0  0  0  0  0
  110.9868  -73.0274  -79.8771 C   0  0  0  0  0  0  0  0  0  0  0  0
  112.7135  -80.5512  -87.4081 N   0  0  0  0  0  0  0  0  0  0  0  0
  113.3092  -81.5952  -86.5447 C   0  0  0  0  0  0  0  0  0  0  0  0
  112.6696  -80.9957  -88.8460 C   0  0  0  0  0  0  0  0  0  0  0  0
  1  2  1  0  0  0  0
  1 14  1  0  0  0  0
  1 21  2  0  0  0  0
  2  3  2  0  0  0  0
  3  4  1  0  0  0  0
  3 12  1  0  0  0  0
  4  5  1  0  0  0  0
  5  6  1  0  0  0  0
  5 10  2  0  0  0  0
  6  7  2  0  0  0  0
  7  8  1  0  0  0  0
  7 24  1  0  0  0  0
  8  9  2  0  0  0  0
  9 10  1  0  0  0  0
 10 11  1  0  0  0  0
 11 12  2  0  0  0  0
 11 15  1  0  0  0  0
 12 13  1  0  0  0  0
 13 14  2  0  0  0  0
 15 16  2  0  0  0  0
 15 20  1  0  0  0  0
 16 17  1  0  0  0  0
 17 18  2  0  0  0  0
 18 19  1  0  0  0  0
 19 20  2  0  0  0  0
 21 22  1  0  0  0  0
 21 23  1  0  0  0  0
 24 25  1  0  0  0  0
 24 26  1  0  0  0  0
M  CHG  1  21   1
M  END
>  <CHROM.1>
4.95774851,-122.62660667,111.09411437,-76.17731285,-85.30783685,-1.80422107
1.05358631,-2.08660855

>  <Name>
1f1t Malachite green aptamer (Xray 2.8A)

>  <RI>
0

>  <Rbt.Current_Directory>
/home/itssahil/PROJECTS/Mol_Feturizer/New_Systems/rnas/1f1t

>  <Rbt.Executable>
rbdock ($Id: //depot/dev/client3/rdock/2013.1/src/exe/rbdock.cxx#4 $)

>  <Rbt.Library>
libRbt.so (2013.1, Build901 2013/11/27)

>  <Rbt.Parameter_File>
/export/apps/rDock/src/rDock_2013.1_src/data/scripts/dock_solv.prm

>  <Rbt.Receptor>
prm/pocket_docking_2.prm

>  <SCORE>
-63.3112

>  <SCORE.INTER>
-63.3903

>  <SCORE.INTER.CONST>
1

>  <SCORE.INTER.POLAR>
0

>  <SCORE.INTER.ROT>
2

>  <SCORE.INTER.SOLV>
11.1052

>  <SCORE.INTER.VDW>
-50.8952

>  <SCORE.INTER.norm>
-2.43809

>  <SCORE.INTRA>
0.0790463

>  <SCORE.INTRA.DIHEDRAL>
-0.715098

>  <SCORE.INTRA.DIHEDRAL.0>
4.18538

>  <SCORE.INTRA.POLAR>
0

>  <SCORE.INTRA.POLAR.0>
0

>  <SCORE.INTRA.REPUL>
0

>  <SCORE.INTRA.REPUL.0>
0

>  <SCORE.INTRA.SOLV>
0.0135502

>  <SCORE.INTRA.SOLV.lig_0>
-5.16926

>  <SCORE.INTRA.VDW>
0.42982

>  <SCORE.INTRA.VDW.0>
1.11912

>  <SCORE.INTRA.norm>
0.00304024

>  <SCORE.RESTR>
0

>  <SCORE.RESTR.CAVITY>
0

>  <SCORE.RESTR.norm>
0

>  <SCORE.SYSTEM>
0

>  <SCORE.SYSTEM.CONST>
0

>  <SCORE.SYSTEM.DIHEDRAL>
0

>  <SCORE.SYSTEM.SOLV>
0

>  <SCORE.SYSTEM.norm>
0

>  <SCORE.heavy>
26

>  <SCORE.norm>
-2.43505

>  <RMSD>
0.650

$$$$
1f1t Malachite green aptamer (Xray 2.8A)
 OpenBabel11021811393D
libRbt.so/2013.1/901 2013/11/27
 26 29  0  0  0  0  0  0  0  0999 V2000
  111.2359  -74.6338  -81.8656 C   0  0  0  0  0  0  0  0  0  0  0  0
  111.7521  -75.9033  -82.3559 C   0  0  0  0  0  0  0  0  0  0  0  0
  111.4883  -76.1151  -83.7105 C   0  0  0  0  0  0  0  0  0  0  0  0
  112.0381  -77.4250  -84.1593 O   0  0  0  0  0  0  0  0  0  0  0  0
  111.8017  -77.6054  -85.4000 C   0  0  0  0  0  0  0  0  0  0  0  0
  112.3659  -78.9119  -85.7383 C   0  0  0  0  0  0  0  0  0  0  0  0
  112.1984  -79.2835  -87.1193 C   0  0  0  0  0  0  0  0  0  0  0  0
  111.5543  -78.4461  -88.0634 C   0  0  0  0  0  0  0  0  0  0  0  0
  111.0070  -77.1636  -87.6614 C   0  0  0  0  0  0  0  0  0  0  0  0
  111.1505  -76.7771  -86.2792 C   0  0  0  0  0  0  0  0  0  0  0  0
  110.5397  -75.4370  -85.9429 C   0  0  0  0  0  0  0  0  0  0  0  0
  110.8135  -75.2600  -84.5747 C   0  0  0  0  0  0  0  0  0  0  0  0
  110.2954  -73.9903  -84.0605 C   0  0  0  0  0  0  0  0  0  0  0  0
  110.5545  -73.7468  -82.6763 C   0  0  0  0  0  0  0  0  0  0  0  0
  109.8862  -74.6510  -86.8729 C   0  0  0  0  0  0  0  0  0  0  0  0
  110.2257  -73.3189  -87.2054 C   0  0  0  0  0  0  0  0  0  0  0  0
  109.5883  -72.5168  -88.1537 C   0  0  0  0  0  0  0  0  0  0  0  0
  108.4611  -73.0487  -88.9049 C   0  0  0  0  0  0  0  0  0  0  0  0
  108.1398  -74.3785  -88.5409 C   0  0  0  0  0  0  0  0  0  0  0  0
  108.7474  -75.2166  -87.5958 C   0  0  0  0  0  0  0  0  0  0  0  0
  111.4233  -74.2759  -80.5378 N   0  3  0  0  0  0  0  0  0  0  0  0
  112.1397  -75.1288  -79.5961 C   0  0  0  0  0  0  0  0  0  0  0  0
  110.9519  -73.0312  -79.8917 C   0  0  0  0  0  0  0  0  0  0  0  0
  112.7248  -80.5529  -87.4141 N   0  0  0  0  0  0  0  0  0  0  0  0
  113.3282  -81.5915  -86.5496 C   0  0  0  0  0  0  0  0  0  0  0  0
  112.6793  -81.0013  -88.8507 C   0  0  0  0  0  0  0  0  0  0  0  0
  1  2  1  0  0  0  0
  1 14  1  0  0  0  0
  1 21  2  0  0  0  0
  2  3  2  0  0  0  0
  3  4  1  0  0  0  0
  3 12  1  0  0  0  0
  4  5  1  0  0  0  0
  5  6  1  0  0  0  0
  5 10  2  0  0  0  0
  6  7  2  0  0  0  0
  7  8  1  0  0  0  0
  7 24  1  0  0  0  0
  8  9  2  0  0  0  0
  9 10  1  0  0  0  0
 10 11  1  0  0  0  0
 11 12  2  0  0  0  0
 11 15  1  0  0  0  0
 12 13  1  0  0  0  0
 13 14  2  0  0  0  0
 15 16  2  0  0  0  0
 15 20  1  0  0  0  0
 16 17  1  0  0  0  0
 17 18  2  0  0  0  0
 18 19  1  0  0  0  0
 19 20  2  0  0  0  0
 21 22  1  0  0  0  0
 21 23  1  0  0  0  0
 24 25  1  0  0  0  0
 24 26  1  0  0  0  0
M  CHG  1  21   1
M  END
>  <CHROM.1>
4.65685456,-122.76180130,111.08320926,-76.18426728,-85.32010251,-1.81169468
1.05099836,-2.08081575

>  <Name>
1f1t Malachite green aptamer (Xray 2.8A)

>  <RI>
0

>  <Rbt.Current_Directory>
/home/itssahil/PROJECTS/Mol_Feturizer/New_Systems/rnas/1f1t

>  <Rbt.Executable>
rbdock ($Id: //depot/dev/client3/rdock/2013.1/src/exe/rbdock.cxx#4 $)

>  <Rbt.Library>
libRbt.so (2013.1, Build901 2013/11/27)

>  <Rbt.Parameter_File>
/export/apps/rDock/src/rDock_2013.1_src/data/scripts/dock_solv.prm

>  <Rbt.Receptor>
prm/pocket_docking_2.prm

>  <SCORE>
-63.2896

>  <SCORE.INTER>
-63.3694

>  <SCORE.INTER.CONST>
1

>  <SCORE.INTER.POLAR>
0

>  <SCORE.INTER.ROT>
2

>  <SCORE.INTER.SOLV>
11.1102

>  <SCORE.INTER.VDW>
-50.883

>  <SCORE.INTER.norm>
-2.43728

>  <SCORE.INTRA>
0.0798188

>  <SCORE.INTRA.DIHEDRAL>
-0.736347

>  <SCORE.INTRA.DIHEDRAL.0>
4.18538

>  <SCORE.INTRA.POLAR>
0

>  <SCORE.INTRA.POLAR.0>
0

>  <SCORE.INTRA.REPUL>
0

>  <SCORE.INTRA.REPUL.0>
0

>  <SCORE.INTRA.SOLV>
0.0137081

>  <SCORE.INTRA.SOLV.lig_0>
-5.16926

>  <SCORE.INTRA.VDW>
0.441138

>  <SCORE.INTRA.VDW.0>
1.11912

>  <SCORE.INTRA.norm>
0.00306995

>  <SCORE.RESTR>
0

>  <SCORE.RESTR.CAVITY>
0

>  <SCORE.RESTR.norm>
0

>  <SCORE.SYSTEM>
0

>  <SCORE.SYSTEM.CONST>
0

>  <SCORE.SYSTEM.DIHEDRAL>
0

>  <SCORE.SYSTEM.SOLV>
0

>  <SCORE.SYSTEM.norm>
0

>  <SCORE.heavy>
26

>  <SCORE.norm>
-2.43421

>  <RMSD>
0.651

$$$$
1f1t Malachite green aptamer (Xray 2.8A)
 OpenBabel11021811393D
libRbt.so/2013.1/901 2013/11/27
 26 29  0  0  0  0  0  0  0  0999 V2000
  111.2230  -74.6208  -81.8410 C   0  0  0  0  0  0  0  0  0  0  0  0
  111.7372  -75.8922  -82.3282 C   0  0  0  0  0  0  0  0  0  0  0  0
  111.4809  -76.1030  -83.6844 C   0  0  0  0  0  0  0  0  0  0  0  0
  112.0284  -77.4150  -84.1298 O   0  0  0  0  0  0  0  0  0  0  0  0
  111.7990  -77.5943  -85.3721 C   0  0  0  0  0  0  0  0  0  0  0  0
  112.3601  -78.9030  -85.7069 C   0  0  0  0  0  0  0  0  0  0  0  0
  112.1997  -79.2739  -87.0891 C   0  0  0  0  0  0  0  0  0  0  0  0
  111.5646  -78.4339  -88.0370 C   0  0  0  0  0  0  0  0  0  0  0  0
  111.0200  -77.1494  -87.6382 C   0  0  0  0  0  0  0  0  0  0  0  0
  111.1564  -76.7635  -86.2552 C   0  0  0  0  0  0  0  0  0  0  0  0
  110.5488  -75.4211  -85.9225 C   0  0  0  0  0  0  0  0  0  0  0  0
  110.8148  -75.2452  -84.5526 C   0  0  0  0  0  0  0  0  0  0  0  0
  110.2986  -73.9735  -84.0415 C   0  0  0  0  0  0  0  0  0  0  0  0
  110.5501  -73.7311  -82.6557 C   0  0  0  0  0  0  0  0  0  0  0  0
  109.9041  -74.6324  -86.8564 C   0  0  0  0  0  0  0  0  0  0  0  0
  110.2410  -73.2963  -87.1755 C   0  0  0  0  0  0  0  0  0  0  0  0
  109.6125  -72.4914  -88.1274 C   0  0  0  0  0  0  0  0  0  0  0  0
  108.4989  -73.0244  -88.8978 C   0  0  0  0  0  0  0  0  0  0  0  0
  108.1798  -74.3583  -88.5470 C   0  0  0  0  0  0  0  0  0  0  0  0
  108.7786  -75.1994  -87.5990 C   0  0  0  0  0  0  0  0  0  0  0  0
  111.4036  -74.2637  -80.5120 N   0  3  0  0  0  0  0  0  0  0  0  0
  112.1108  -75.1195  -79.5660 C   0  0  0  0  0  0  0  0  0  0  0  0
  110.9331  -73.0172  -79.8687 C   0  0  0  0  0  0  0  0  0  0  0  0
  112.7229  -80.5453  -87.3807 N   0  0  0  0  0  0  0  0  0  0  0  0
  113.3302  -81.5804  -86.5146 C   0  0  0  0  0  0  0  0  0  0  0  0
  112.6686  -81.0007  -88.8148 C   0  0  0  0  0  0  0  0  0  0  0  0
  1  2  1  0  0  0  0
  1 14  1  0  0  0  0
  1 21  2  0  0  0  0
  2  3  2  0  0  0  0
  3  4  1  0  0  0  0
  3 12  1  0  0  0  0
  4  5  1  0  0  0  0
  5  6  1  0  0  0  0
  5 10  2  0  0  0  0
  6  7  2  0  0  0  0
  7  8  1  0  0  0  0
  7 24  1  0  0  0  0
  8  9  2  0  0  0  0
  9 10  1  0  0  0  0
 10 11  1  0  0  0  0
 11 12  2  0  0  0  0
 11 15  1  0  0  0  0
 12 13  1  0  0  0  0
 13 14  2  0  0  0  0
 15 16  2  0  0  0  0
 15 20  1  0  0  0  0
 16 17  1  0  0  0  0
 17 18  2  0  0  0  0
 18 19  1  0  0  0  0
 19 20  2  0  0  0  0
 21 22  1  0  0  0  0
 21 23  1  0  0  0  0
 24 25  1  0  0  0  0
 24 26  1  0  0  0  0
M  CHG  1  21   1
M  END
>  <CHROM.1>
3.89970829,-123.55359002,111.08552454,-76.17051509,-85.29651043,-1.81821003
1.05737697,-2.07518175

>  <Name>
1f1t Malachite green aptamer (Xray 2.8A)

>  <RI>
0

>  <Rbt.Current_Directory>
/home/itssahil/PROJECTS/Mol_Feturizer/New_Systems/rnas/1f1t

>  <Rbt.Executable>
rbdock ($Id: //depot/dev/client3/rdock/2013.1/src/exe/rbdock.cxx#4 $)

>  <Rbt.Library>
libRbt.so (2013.1, Build901 2013/11/27)

>  <Rbt.Parameter_File>
/export/apps/rDock/src/rDock_2013.1_src/data/scripts/dock_solv.prm

>  <Rbt.Receptor>
prm/pocket_docking_4.prm

>  <SCORE>
-63.2419

>  <SCORE.INTER>
-63.3348

>  <SCORE.INTER.CONST>
1

>  <SCORE.INTER.POLAR>
0

>  <SCORE.INTER.ROT>
2

>  <SCORE.INTER.SOLV>
11.1195

>  <SCORE.INTER.VDW>
-50.863

>  <SCORE.INTER.norm>
-2.43595

>  <SCORE.INTRA>
0.0928238

>  <SCORE.INTRA.DIHEDRAL>
-0.821734

>  <SCORE.INTRA.DIHEDRAL.0>
4.18538

>  <SCORE.INTRA.POLAR>
0

>  <SCORE.INTRA.POLAR.0>
0

>  <SCORE.INTRA.REPUL>
0

>  <SCORE.INTRA.REPUL.0>
0

>  <SCORE.INTRA.SOLV>
0.0146315

>  <SCORE.INTRA.SOLV.lig_0>
-5.16926

>  <SCORE.INTRA.VDW>
0.496375

>  <SCORE.INTRA.VDW.0>
1.11912

>  <SCORE.INTRA.norm>
0.00357014

>  <SCORE.RESTR>
0

>  <SCORE.RESTR.CAVITY>
0

>  <SCORE.RESTR.norm>
0

>  <SCORE.SYSTEM>
0

>  <SCORE.SYSTEM.CONST>
0

>  <SCORE.SYSTEM.DIHEDRAL>
0

>  <SCORE.SYSTEM.SOLV>
0

>  <SCORE.SYSTEM.norm>
0

>  <SCORE.heavy>
26

>  <SCORE.norm>
-2.43238

>  <RMSD>
0.651

$$$$
1f1t Malachite green aptamer (Xray 2.8A)
 OpenBabel11021811393D
libRbt.so/2013.1/901 2013/11/27
 26 29  0  0  0  0  0  0  0  0999 V2000
  111.2200  -74.6165  -81.8598 C   0  0  0  0  0  0  0  0  0  0  0  0
  111.7389  -75.8866  -82.3456 C   0  0  0  0  0  0  0  0  0  0  0  0
  111.4793  -76.1019  -83.7004 C   0  0  0  0  0  0  0  0  0  0  0  0
  112.0318  -77.4123  -84.1446 O   0  0  0  0  0  0  0  0  0  0  0  0
  111.7992  -77.5957  -85.3856 C   0  0  0  0  0  0  0  0  0  0  0  0
  112.3658  -78.9024  -85.7191 C   0  0  0  0  0  0  0  0  0  0  0  0
  112.2027  -79.2774  -87.0998 C   0  0  0  0  0  0  0  0  0  0  0  0
  111.5604  -78.4429  -88.0477 C   0  0  0  0  0  0  0  0  0  0  0  0
  111.0107  -77.1601  -87.6503 C   0  0  0  0  0  0  0  0  0  0  0  0
  111.1497  -76.7702  -86.2686 C   0  0  0  0  0  0  0  0  0  0  0  0
  110.5365  -75.4300  -85.9371 C   0  0  0  0  0  0  0  0  0  0  0  0
  110.8061  -75.2494  -84.5686 C   0  0  0  0  0  0  0  0  0  0  0  0
  110.2853  -73.9791  -84.0589 C   0  0  0  0  0  0  0  0  0  0  0  0
  110.5401  -73.7322  -82.6745 C   0  0  0  0  0  0  0  0  0  0  0  0
  109.8849  -74.6468  -86.8709 C   0  0  0  0  0  0  0  0  0  0  0  0
  110.2261  -73.3162  -87.2080 C   0  0  0  0  0  0  0  0  0  0  0  0
  109.5906  -72.5171  -88.1600 C   0  0  0  0  0  0  0  0  0  0  0  0
  108.4638  -73.0508  -88.9106 C   0  0  0  0  0  0  0  0  0  0  0  0
  108.1409  -74.3789  -88.5420 C   0  0  0  0  0  0  0  0  0  0  0  0
  108.7465  -75.2141  -87.5931 C   0  0  0  0  0  0  0  0  0  0  0  0
  111.4032  -74.2553  -80.5322 N   0  3  0  0  0  0  0  0  0  0  0  0
  112.1177  -75.1053  -79.5865 C   0  0  0  0  0  0  0  0  0  0  0  0
  110.9286  -73.0096  -79.8904 C   0  0  0  0  0  0  0  0  0  0  0  0
  112.7312  -80.5469  -87.3901 N   0  0  0  0  0  0  0  0  0  0  0  0
  113.3145  -81.5913  -86.5187 C   0  0  0  0  0  0  0  0  0  0  0  0
  112.7129  -80.9886  -88.8294 C   0  0  0  0  0  0  0  0  0  0  0  0
  1  2  1  0  0  0  0
  1 14  1  0  0  0  0
  1 21  2  0  0  0  0
  2  3  2  0  0  0  0
  3  4  1  0  0  0  0
  3 12  1  0  0  0  0
  4  5  1  0  0  0  0
  5  6  1  0  0  0  0
  5 10  2  0  0  0  0
  6  7  2  0  0  0  0
  7  8  1  0  0  0  0
  7 24  1  0  0  0  0
  8  9  2  0  0  0  0
  9 10  1  0  0  0  0
 10 11  1  0  0  0  0
 11 12  2  0  0  0  0
 11 15  1  0  0  0  0
 12 13  1  0  0  0  0
 13 14  2  0  0  0  0
 15 16  2  0  0  0  0
 15 20  1  0  0  0  0
 16 17  1  0  0  0  0
 17 18  2  0  0  0  0
 18 19  1  0  0  0  0
 19 20  2  0  0  0  0
 21 22  1  0  0  0  0
 21 23  1  0  0  0  0
 24 25  1  0  0  0  0
 24 26  1  0  0  0  0
M  CHG  1  21   1
M  END
>  <CHROM.1>
5.72682795,-122.59241878,111.07913797,-76.17511357,-85.31108927,-1.81844571
1.05167457,-2.07719902

>  <Name>
1f1t Malachite green aptamer (Xray 2.8A)

>  <RI>
0

>  <Rbt.Current_Directory>
/home/itssahil/PROJECTS/Mol_Feturizer/New_Systems/rnas/1f1t

>  <Rbt.Executable>
rbdock ($Id: //depot/dev/client3/rdock/2013.1/src/exe/rbdock.cxx#4 $)

>  <Rbt.Library>
libRbt.so (2013.1, Build901 2013/11/27)

>  <Rbt.Parameter_File>
/export/apps/rDock/src/rDock_2013.1_src/data/scripts/dock_solv.prm

>  <Rbt.Receptor>
prm/pocket_docking_7.prm

>  <SCORE>
-63.2386

>  <SCORE.INTER>
-63.3226

>  <SCORE.INTER.CONST>
1

>  <SCORE.INTER.POLAR>
0

>  <SCORE.INTER.ROT>
2

>  <SCORE.INTER.SOLV>
11.1029

>  <SCORE.INTER.VDW>
-50.8493

>  <SCORE.INTER.norm>
-2.43548

>  <SCORE.INTRA>
0.0839859

>  <SCORE.INTRA.DIHEDRAL>
-0.681469

>  <SCORE.INTRA.DIHEDRAL.0>
4.18538

>  <SCORE.INTRA.POLAR>
0

>  <SCORE.INTRA.POLAR.0>
0

>  <SCORE.INTRA.REPUL>
0

>  <SCORE.INTRA.REPUL.0>
0

>  <SCORE.INTRA.SOLV>
0.0135114

>  <SCORE.INTRA.SOLV.lig_0>
-5.16926

>  <SCORE.INTRA.VDW>
0.417965

>  <SCORE.INTRA.VDW.0>
1.11912

>  <SCORE.INTRA.norm>
0.00323023

>  <SCORE.RESTR>
0

>  <SCORE.RESTR.CAVITY>
0

>  <SCORE.RESTR.norm>
0

>  <SCORE.SYSTEM>
0

>  <SCORE.SYSTEM.CONST>
0

>  <SCORE.SYSTEM.DIHEDRAL>
0

>  <SCORE.SYSTEM.SOLV>
0

>  <SCORE.SYSTEM.norm>
0

>  <SCORE.heavy>
26

>  <SCORE.norm>
-2.43225

>  <RMSD>
0.652

$$$$
1f1t Malachite green aptamer (Xray 2.8A)
 OpenBabel11021811393D
libRbt.so/2013.1/901 2013/11/27
 26 29  0  0  0  0  0  0  0  0999 V2000
  111.2326  -74.6330  -81.8654 C   0  0  0  0  0  0  0  0  0  0  0  0
  111.7495  -75.9025  -82.3548 C   0  0  0  0  0  0  0  0  0  0  0  0
  111.4875  -76.1146  -83.7097 C   0  0  0  0  0  0  0  0  0  0  0  0
  112.0380  -77.4246  -84.1575 O   0  0  0  0  0  0  0  0  0  0  0  0
  111.8033  -77.6051  -85.3985 C   0  0  0  0  0  0  0  0  0  0  0  0
  112.3681  -78.9116  -85.7358 C   0  0  0  0  0  0  0  0  0  0  0  0
  112.2024  -79.2836  -87.1170 C   0  0  0  0  0  0  0  0  0  0  0  0
  111.5594  -78.4463  -88.0621 C   0  0  0  0  0  0  0  0  0  0  0  0
  111.0116  -77.1639  -87.6610 C   0  0  0  0  0  0  0  0  0  0  0  0
  111.1532  -76.7771  -86.2787 C   0  0  0  0  0  0  0  0  0  0  0  0
  110.5418  -75.4370  -85.9434 C   0  0  0  0  0  0  0  0  0  0  0  0
  110.8138  -75.2597  -84.5749 C   0  0  0  0  0  0  0  0  0  0  0  0
  110.2950  -73.9899  -84.0616 C   0  0  0  0  0  0  0  0  0  0  0  0
  110.5522  -73.7462  -82.6771 C   0  0  0  0  0  0  0  0  0  0  0  0
  109.8894  -74.6512  -86.8744 C   0  0  0  0  0  0  0  0  0  0  0  0
  110.2260  -73.3173  -87.2030 C   0  0  0  0  0  0  0  0  0  0  0  0
  109.5898  -72.5154  -88.1522 C   0  0  0  0  0  0  0  0  0  0  0  0
  108.4673  -73.0494  -88.9088 C   0  0  0  0  0  0  0  0  0  0  0  0
  108.1489  -74.3809  -88.5488 C   0  0  0  0  0  0  0  0  0  0  0  0
  108.7554  -75.2190  -87.6030 C   0  0  0  0  0  0  0  0  0  0  0  0
  111.4182  -74.2748  -80.5374 N   0  3  0  0  0  0  0  0  0  0  0  0
  112.1334  -75.1275  -79.5946 C   0  0  0  0  0  0  0  0  0  0  0  0
  110.9458  -73.0300  -79.8921 C   0  0  0  0  0  0  0  0  0  0  0  0
  112.7292  -80.5529  -87.4109 N   0  0  0  0  0  0  0  0  0  0  0  0
  113.3126  -81.5999  -86.5426 C   0  0  0  0  0  0  0  0  0  0  0  0
  112.7087  -80.9913  -88.8512 C   0  0  0  0  0  0  0  0  0  0  0  0
  1  2  1  0  0  0  0
  1 14  1  0  0  0  0
  1 21  2  0  0  0  0
  2  3  2  0  0  0  0
  3  4  1  0  0  0  0
  3 12  1  0  0  0  0
  4  5  1  0  0  0  0
  5  6  1  0  0  0  0
  5 10  2  0  0  0  0
  6  7  2  0  0  0  0
  7  8  1  0  0  0  0
  7 24  1  0  0  0  0
  8  9  2  0  0  0  0
  9 10  1  0  0  0  0
 10 11  1  0  0  0  0
 11 12  2  0  0  0  0
 11 15  1  0  0  0  0
 12 13  1  0  0  0  0
 13 14  2  0  0  0  0
 15 16  2  0  0  0  0
 15 20  1  0  0  0  0
 16 17  1  0  0  0  0
 17 18  2  0  0  0  0
 18 19  1  0  0  0  0
 19 20  2  0  0  0  0
 21 22  1  0  0  0  0
 21 23  1  0  0  0  0
 24 25  1  0  0  0  0
 24 26  1  0  0  0  0
M  CHG  1  21   1
M  END
>  <CHROM.1>
5.74740411,-123.02854002,111.08477783,-76.18399397,-85.31987876,-1.81461421
1.05180844,-2.07839836

>  <Name>
1f1t Malachite green aptamer (Xray 2.8A)

>  <RI>
0

>  <Rbt.Current_Directory>
/home/itssahil/PROJECTS/Mol_Feturizer/New_Systems/rnas/1f1t

>  <Rbt.Executable>
rbdock ($Id: //depot/dev/client3/rdock/2013.1/src/exe/rbdock.cxx#4 $)

>  <Rbt.Library>
libRbt.so (2013.1, Build901 2013/11/27)

>  <Rbt.Parameter_File>
/export/apps/rDock/src/rDock_2013.1_src/data/scripts/dock_solv.prm

>  <Rbt.Receptor>
prm/pocket_docking_8.prm

>  <SCORE>
-63.2903

>  <SCORE.INTER>
-63.3835

>  <SCORE.INTER.CONST>
1

>  <SCORE.INTER.POLAR>
0

>  <SCORE.INTER.ROT>
2

>  <SCORE.INTER.SOLV>
11.0997

>  <SCORE.INTER.VDW>
-50.8889

>  <SCORE.INTER.norm>
-2.43783

>  <SCORE.INTRA>
0.0931857

>  <SCORE.INTRA.DIHEDRAL>
-0.714029

>  <SCORE.INTRA.DIHEDRAL.0>
4.18538

>  <SCORE.INTRA.POLAR>
0

>  <SCORE.INTRA.POLAR.0>
0

>  <SCORE.INTRA.REPUL>
0

>  <SCORE.INTRA.REPUL.0>
0

>  <SCORE.INTRA.SOLV>
0.0140212

>  <SCORE.INTRA.SOLV.lig_0>
-5.16926

>  <SCORE.INTRA.VDW>
0.44319

>  <SCORE.INTRA.VDW.0>
1.11912

>  <SCORE.INTRA.norm>
0.00358406

>  <SCORE.RESTR>
0

>  <SCORE.RESTR.CAVITY>
0

>  <SCORE.RESTR.norm>
0

>  <SCORE.SYSTEM>
0

>  <SCORE.SYSTEM.CONST>
0

>  <SCORE.SYSTEM.DIHEDRAL>
0

>  <SCORE.SYSTEM.SOLV>
0

>  <SCORE.SYSTEM.norm>
0

>  <SCORE.heavy>
26

>  <SCORE.norm>
-2.43424

>  <RMSD>
0.652

$$$$
1f1t Malachite green aptamer (Xray 2.8A)
 OpenBabel11021811393D
libRbt.so/2013.1/901 2013/11/27
 26 29  0  0  0  0  0  0  0  0999 V2000
  111.2342  -74.5981  -81.8398 C   0  0  0  0  0  0  0  0  0  0  0  0
  111.7485  -75.8708  -82.3235 C   0  0  0  0  0  0  0  0  0  0  0  0
  111.4899  -76.0864  -83.6785 C   0  0  0  0  0  0  0  0  0  0  0  0
  112.0376  -77.3996  -84.1205 O   0  0  0  0  0  0  0  0  0  0  0  0
  111.8060  -77.5834  -85.3616 C   0  0  0  0  0  0  0  0  0  0  0  0
  112.3676  -78.8928  -85.6930 C   0  0  0  0  0  0  0  0  0  0  0  0
  112.2049  -79.2686  -87.0735 C   0  0  0  0  0  0  0  0  0  0  0  0
  111.5673  -78.4324  -88.0232 C   0  0  0  0  0  0  0  0  0  0  0  0
  111.0224  -77.1469  -87.6279 C   0  0  0  0  0  0  0  0  0  0  0  0
  111.1611  -76.7561  -86.2464 C   0  0  0  0  0  0  0  0  0  0  0  0
  110.5531  -75.4130  -85.9173 C   0  0  0  0  0  0  0  0  0  0  0  0
  110.8215  -75.2321  -84.5485 C   0  0  0  0  0  0  0  0  0  0  0  0
  110.3052  -73.9591  -84.0409 C   0  0  0  0  0  0  0  0  0  0  0  0
  110.5591  -73.7118  -82.6564 C   0  0  0  0  0  0  0  0  0  0  0  0
  109.9060  -74.6281  -86.8527 C   0  0  0  0  0  0  0  0  0  0  0  0
  110.2384  -73.2914  -87.1739 C   0  0  0  0  0  0  0  0  0  0  0  0
  109.6076  -72.4903  -88.1273 C   0  0  0  0  0  0  0  0  0  0  0  0
  108.4960  -73.0283  -88.8972 C   0  0  0  0  0  0  0  0  0  0  0  0
  108.1814  -74.3627  -88.5443 C   0  0  0  0  0  0  0  0  0  0  0  0
  108.7828  -75.2002  -87.5947 C   0  0  0  0  0  0  0  0  0  0  0  0
  111.4170  -74.2363  -80.5124 N   0  3  0  0  0  0  0  0  0  0  0  0
  112.1266  -75.0882  -79.5647 C   0  0  0  0  0  0  0  0  0  0  0  0
  110.9467  -72.9879  -79.8725 C   0  0  0  0  0  0  0  0  0  0  0  0
  112.7285  -80.5406  -87.3618 N   0  0  0  0  0  0  0  0  0  0  0  0
  113.3282  -81.5767  -86.4916 C   0  0  0  0  0  0  0  0  0  0  0  0
  112.6840  -80.9955  -88.7963 C   0  0  0  0  0  0  0  0  0  0  0  0
  1  2  1  0  0  0  0
  1 14  1  0  0  0  0
  1 21  2  0  0  0  0
  2  3  2  0  0  0  0
  3  4  1  0  0  0  0
  3 12  1  0  0  0  0
  4  5  1  0  0  0  0
  5  6  1  0  0  0  0
  5 10  2  0  0  0  0
  6  7  2  0  0  0  0
  7  8  1  0  0  0  0
  7 24  1  0  0  0  0
  8  9  2  0  0  0  0
  9 10  1  0  0  0  0
 10 11  1  0  0  0  0
 11 12  2  0  0  0  0
 11 15  1  0  0  0  0
 12 13  1  0  0  0  0
 13 14  2  0  0  0  0
 15 16  2  0  0  0  0
 15 20  1  0  0  0  0
 16 17  1  0  0  0  0
 17 18  2  0  0  0  0
 18 19  1  0  0  0  0
 19 20  2  0  0  0  0
 21 22  1  0  0  0  0
 21 23  1  0  0  0  0
 24 25  1  0  0  0  0
 24 26  1  0  0  0  0
M  CHG  1  21   1
M  END
>  <CHROM.1>
4.47566335,-123.77639013,111.09167204,-76.15983373,-85.28974500,-1.81594503
1.05592019,-2.08058097

>  <Name>
1f1t Malachite green aptamer (Xray 2.8A)

>  <RI>
0

>  <Rbt.Current_Directory>
/home/itssahil/PROJECTS/Mol_Feturizer/New_Systems/rnas/1f1t

>  <Rbt.Executable>
rbdock ($Id: //depot/dev/client3/rdock/2013.1/src/exe/rbdock.cxx#4 $)

>  <Rbt.Library>
libRbt.so (2013.1, Build901 2013/11/27)

>  <Rbt.Parameter_File>
/export/apps/rDock/src/rDock_2013.1_src/data/scripts/dock_solv.prm

>  <Rbt.Receptor>
prm/pocket_docking_5.prm

>  <SCORE>
-63.2129

>  <SCORE.INTER>
-63.3144

>  <SCORE.INTER.CONST>
1

>  <SCORE.INTER.POLAR>
0

>  <SCORE.INTER.ROT>
2

>  <SCORE.INTER.SOLV>
11.1277

>  <SCORE.INTER.VDW>
-50.8521

>  <SCORE.INTER.norm>
-2.43517

>  <SCORE.INTRA>
0.101419

>  <SCORE.INTRA.DIHEDRAL>
-0.82093

>  <SCORE.INTRA.DIHEDRAL.0>
4.18538

>  <SCORE.INTRA.POLAR>
0

>  <SCORE.INTRA.POLAR.0>
0

>  <SCORE.INTRA.REPUL>
0

>  <SCORE.INTRA.REPUL.0>
0

>  <SCORE.INTRA.SOLV>
0.014891

>  <SCORE.INTRA.SOLV.lig_0>
-5.16926

>  <SCORE.INTRA.VDW>
0.504439

>  <SCORE.INTRA.VDW.0>
1.11912

>  <SCORE.INTRA.norm>
0.00390073

>  <SCORE.RESTR>
0

>  <SCORE.RESTR.CAVITY>
0

>  <SCORE.RESTR.norm>
0

>  <SCORE.SYSTEM>
0

>  <SCORE.SYSTEM.CONST>
0

>  <SCORE.SYSTEM.DIHEDRAL>
0

>  <SCORE.SYSTEM.SOLV>
0

>  <SCORE.SYSTEM.norm>
0

>  <SCORE.heavy>
26

>  <SCORE.norm>
-2.43127

>  <RMSD>
0.653

$$$$
1f1t Malachite green aptamer (Xray 2.8A)
 OpenBabel11021811393D
libRbt.so/2013.1/901 2013/11/27
 26 29  0  0  0  0  0  0  0  0999 V2000
  111.2338  -74.6300  -81.8666 C   0  0  0  0  0  0  0  0  0  0  0  0
  111.7473  -75.9012  -82.3553 C   0  0  0  0  0  0  0  0  0  0  0  0
  111.4834  -76.1140  -83.7097 C   0  0  0  0  0  0  0  0  0  0  0  0
  112.0304  -77.4257  -84.1568 O   0  0  0  0  0  0  0  0  0  0  0  0
  111.7940  -77.6069  -85.3974 C   0  0  0  0  0  0  0  0  0  0  0  0
  112.3554  -78.9151  -85.7339 C   0  0  0  0  0  0  0  0  0  0  0  0
  112.1875  -79.2880  -87.1146 C   0  0  0  0  0  0  0  0  0  0  0  0
  111.5454  -78.4502  -88.0598 C   0  0  0  0  0  0  0  0  0  0  0  0
  111.0009  -77.1661  -87.6595 C   0  0  0  0  0  0  0  0  0  0  0  0
  111.1448  -76.7783  -86.2777 C   0  0  0  0  0  0  0  0  0  0  0  0
  110.5369  -75.4365  -85.9431 C   0  0  0  0  0  0  0  0  0  0  0  0
  110.8107  -75.2584  -84.5750 C   0  0  0  0  0  0  0  0  0  0  0  0
  110.2953  -73.9870  -84.0624 C   0  0  0  0  0  0  0  0  0  0  0  0
  110.5546  -73.7425  -82.6785 C   0  0  0  0  0  0  0  0  0  0  0  0
  109.8853  -74.6501  -86.8742 C   0  0  0  0  0  0  0  0  0  0  0  0
  110.2273  -73.3188  -87.2075 C   0  0  0  0  0  0  0  0  0  0  0  0
  109.5919  -72.5164  -88.1569 C   0  0  0  0  0  0  0  0  0  0  0  0
  108.4644  -73.0471  -88.9085 C   0  0  0  0  0  0  0  0  0  0  0  0
  108.1407  -74.3760  -88.5437 C   0  0  0  0  0  0  0  0  0  0  0  0
  108.7462  -75.2144  -87.5975 C   0  0  0  0  0  0  0  0  0  0  0  0
  111.4216  -74.2710  -80.5391 N   0  3  0  0  0  0  0  0  0  0  0  0
  112.1358  -75.1244  -79.5963 C   0  0  0  0  0  0  0  0  0  0  0  0
  110.9528  -73.0245  -79.8946 C   0  0  0  0  0  0  0  0  0  0  0  0
  112.7111  -80.5588  -87.4078 N   0  0  0  0  0  0  0  0  0  0  0  0
  113.2981  -81.6040  -86.5398 C   0  0  0  0  0  0  0  0  0  0  0  0
  112.6818  -81.0013  -88.8467 C   0  0  0  0  0  0  0  0  0  0  0  0
  1  2  1  0  0  0  0
  1 14  1  0  0  0  0
  1 21  2  0  0  0  0
  2  3  2  0  0  0  0
  3  4  1  0  0  0  0
  3 12  1  0  0  0  0
  4  5  1  0  0  0  0
  5  6  1  0  0  0  0
  5 10  2  0  0  0  0
  6  7  2  0  0  0  0
  7  8  1  0  0  0  0
  7 24  1  0  0  0  0
  8  9  2  0  0  0  0
  9 10  1  0  0  0  0
 10 11  1  0  0  0  0
 11 12  2  0  0  0  0
 11 15  1  0  0  0  0
 12 13  1  0  0  0  0
 13 14  2  0  0  0  0
 15 16  2  0  0  0  0
 15 20  1  0  0  0  0
 16 17  1  0  0  0  0
 17 18  2  0  0  0  0
 18 19  1  0  0  0  0
 19 20  2  0  0  0  0
 21 22  1  0  0  0  0
 21 23  1  0  0  0  0
 24 25  1  0  0  0  0
 24 26  1  0  0  0  0
M  CHG  1  21   1
M  END
>  <CHROM.1>
5.45226803,-122.81128301,111.07870911,-76.18412085,-85.31934630,-1.81039549
1.05320546,-2.08305521

>  <Name>
1f1t Malachite green aptamer (Xray 2.8A)

>  <RI>
0

>  <Rbt.Current_Directory>
/home/itssahil/PROJECTS/Mol_Feturizer/New_Systems/rnas/1f1t

>  <Rbt.Executable>
rbdock ($Id: //depot/dev/client3/rdock/2013.1/src/exe/rbdock.cxx#4 $)

>  <Rbt.Library>
libRbt.so (2013.1, Build901 2013/11/27)

>  <Rbt.Parameter_File>
/export/apps/rDock/src/rDock_2013.1_src/data/scripts/dock_solv.prm

>  <Rbt.Receptor>
prm/pocket_docking_6.prm

>  <SCORE>
-63.2322

>  <SCORE.INTER>
-63.3185

>  <SCORE.INTER.CONST>
1

>  <SCORE.INTER.POLAR>
0

>  <SCORE.INTER.ROT>
2

>  <SCORE.INTER.SOLV>
11.0995

>  <SCORE.INTER.VDW>
-50.8455

>  <SCORE.INTER.norm>
-2.43533

>  <SCORE.INTRA>
0.086333

>  <SCORE.INTRA.DIHEDRAL>
-0.709822

>  <SCORE.INTRA.DIHEDRAL.0>
4.18538

>  <SCORE.INTRA.POLAR>
0

>  <SCORE.INTRA.POLAR.0>
0

>  <SCORE.INTRA.REPUL>
0

>  <SCORE.INTRA.REPUL.0>
0

>  <SCORE.INTRA.SOLV>
0.0137669

>  <SCORE.INTRA.SOLV.lig_0>
-5.16926

>  <SCORE.INTRA.VDW>
0.43436

>  <SCORE.INTRA.VDW.0>
1.11912

>  <SCORE.INTRA.norm>
0.0033205

>  <SCORE.RESTR>
0

>  <SCORE.RESTR.CAVITY>
0

>  <SCORE.RESTR.norm>
0

>  <SCORE.SYSTEM>
0

>  <SCORE.SYSTEM.CONST>
0

>  <SCORE.SYSTEM.DIHEDRAL>
0

>  <SCORE.SYSTEM.SOLV>
0

>  <SCORE.SYSTEM.norm>
0

>  <SCORE.heavy>
26

>  <SCORE.norm>
-2.43201

>  <RMSD>
0.653

$$$$
1f1t Malachite green aptamer (Xray 2.8A)
 OpenBabel11021811393D
libRbt.so/2013.1/901 2013/11/27
 26 29  0  0  0  0  0  0  0  0999 V2000
  111.2355  -74.6319  -81.8635 C   0  0  0  0  0  0  0  0  0  0  0  0
  111.7500  -75.9023  -82.3532 C   0  0  0  0  0  0  0  0  0  0  0  0
  111.4879  -76.1135  -83.7082 C   0  0  0  0  0  0  0  0  0  0  0  0
  112.0359  -77.4244  -84.1563 O   0  0  0  0  0  0  0  0  0  0  0  0
  111.8011  -77.6041  -85.3975 C   0  0  0  0  0  0  0  0  0  0  0  0
  112.3633  -78.9116  -85.7350 C   0  0  0  0  0  0  0  0  0  0  0  0
  112.1972  -79.2827  -87.1164 C   0  0  0  0  0  0  0  0  0  0  0  0
  111.5562  -78.4439  -88.0614 C   0  0  0  0  0  0  0  0  0  0  0  0
  111.0108  -77.1604  -87.6600 C   0  0  0  0  0  0  0  0  0  0  0  0
  111.1529  -76.7744  -86.2776 C   0  0  0  0  0  0  0  0  0  0  0  0
  110.5442  -75.4332  -85.9420 C   0  0  0  0  0  0  0  0  0  0  0  0
  110.8161  -75.2569  -84.5733 C   0  0  0  0  0  0  0  0  0  0  0  0
  110.2998  -73.9862  -84.0597 C   0  0  0  0  0  0  0  0  0  0  0  0
  110.5572  -73.7435  -82.6751 C   0  0  0  0  0  0  0  0  0  0  0  0
  109.8936  -74.6457  -86.8729 C   0  0  0  0  0  0  0  0  0  0  0  0
  110.2326  -73.3122  -87.2004 C   0  0  0  0  0  0  0  0  0  0  0  0
  109.5983  -72.5087  -88.1495 C   0  0  0  0  0  0  0  0  0  0  0  0
  108.4753  -73.0404  -88.9071 C   0  0  0  0  0  0  0  0  0  0  0  0
  108.1545  -74.3716  -88.5481 C   0  0  0  0  0  0  0  0  0  0  0  0
  108.7590  -75.2112  -87.6024 C   0  0  0  0  0  0  0  0  0  0  0  0
  111.4215  -74.2746  -80.5353 N   0  3  0  0  0  0  0  0  0  0  0  0
  112.1347  -75.1291  -79.5926 C   0  0  0  0  0  0  0  0  0  0  0  0
  110.9515  -73.0291  -79.8898 C   0  0  0  0  0  0  0  0  0  0  0  0
  112.7215  -80.5531  -87.4106 N   0  0  0  0  0  0  0  0  0  0  0  0
  113.3190  -81.5942  -86.5449 C   0  0  0  0  0  0  0  0  0  0  0  0
  112.6806  -80.9998  -88.8478 C   0  0  0  0  0  0  0  0  0  0  0  0
  1  2  1  0  0  0  0
  1 14  1  0  0  0  0
  1 21  2  0  0  0  0
  2  3  2  0  0  0  0
  3  4  1  0  0  0  0
  3 12  1  0  0  0  0
  4  5  1  0  0  0  0
  5  6  1  0  0  0  0
  5 10  2  0  0  0  0
  6  7  2  0  0  0  0
  7  8  1  0  0  0  0
  7 24  1  0  0  0  0
  8  9  2  0  0  0  0
  9 10  1  0  0  0  0
 10 11  1  0  0  0  0
 11 12  2  0  0  0  0
 11 15  1  0  0  0  0
 12 13  1  0  0  0  0
 13 14  2  0  0  0  0
 15 16  2  0  0  0  0
 15 20  1  0  0  0  0
 16 17  1  0  0  0  0
 17 18  2  0  0  0  0
 18 19  1  0  0  0  0
 19 20  2  0  0  0  0
 21 22  1  0  0  0  0
 21 23  1  0  0  0  0
 24 25  1  0  0  0  0
 24 26  1  0  0  0  0
M  CHG  1  21   1
M  END
>  <CHROM.1>
4.80341818,-123.05992100,111.08529750,-76.18157525,-85.31850380,-1.81256001
1.05354517,-2.07991358

>  <Name>
1f1t Malachite green aptamer (Xray 2.8A)

>  <RI>
0

>  <Rbt.Current_Directory>
/home/itssahil/PROJECTS/Mol_Feturizer/New_Systems/rnas/1f1t

>  <Rbt.Executable>
rbdock ($Id: //depot/dev/client3/rdock/2013.1/src/exe/rbdock.cxx#4 $)

>  <Rbt.Library>
libRbt.so (2013.1, Build901 2013/11/27)

>  <Rbt.Parameter_File>
/export/apps/rDock/src/rDock_2013.1_src/data/scripts/dock_solv.prm

>  <Rbt.Receptor>
prm/pocket_docking_3.prm

>  <SCORE>
-63.3124

>  <SCORE.INTER>
-63.3994

>  <SCORE.INTER.CONST>
1

>  <SCORE.INTER.POLAR>
0

>  <SCORE.INTER.ROT>
2

>  <SCORE.INTER.SOLV>
11.1158

>  <SCORE.INTER.VDW>
-50.9049

>  <SCORE.INTER.norm>
-2.43844

>  <SCORE.INTRA>
0.0870489

>  <SCORE.INTRA.DIHEDRAL>
-0.754028

>  <SCORE.INTRA.DIHEDRAL.0>
4.18538

>  <SCORE.INTRA.POLAR>
0

>  <SCORE.INTRA.POLAR.0>
0

>  <SCORE.INTRA.REPUL>
0

>  <SCORE.INTRA.REPUL.0>
0

>  <SCORE.INTRA.SOLV>
0.0140566

>  <SCORE.INTRA.SOLV.lig_0>
-5.16926

>  <SCORE.INTRA.VDW>
0.457035

>  <SCORE.INTRA.VDW.0>
1.11912

>  <SCORE.INTRA.norm>
0.00334803

>  <SCORE.RESTR>
0

>  <SCORE.RESTR.CAVITY>
0

>  <SCORE.RESTR.norm>
0

>  <SCORE.SYSTEM>
0

>  <SCORE.SYSTEM.CONST>
0

>  <SCORE.SYSTEM.DIHEDRAL>
0

>  <SCORE.SYSTEM.SOLV>
0

>  <SCORE.SYSTEM.norm>
0

>  <SCORE.heavy>
26

>  <SCORE.norm>
-2.43509

>  <RMSD>
0.654

$$$$
1f1t Malachite green aptamer (Xray 2.8A)
 OpenBabel11021811393D
libRbt.so/2013.1/901 2013/11/27
 26 29  0  0  0  0  0  0  0  0999 V2000
  111.2311  -74.6313  -81.8666 C   0  0  0  0  0  0  0  0  0  0  0  0
  111.7470  -75.9013  -82.3558 C   0  0  0  0  0  0  0  0  0  0  0  0
  111.4844  -76.1136  -83.7105 C   0  0  0  0  0  0  0  0  0  0  0  0
  112.0338  -77.4241  -84.1582 O   0  0  0  0  0  0  0  0  0  0  0  0
  111.7985  -77.6048  -85.3991 C   0  0  0  0  0  0  0  0  0  0  0  0
  112.3622  -78.9118  -85.7362 C   0  0  0  0  0  0  0  0  0  0  0  0
  112.1958  -79.2840  -87.1172 C   0  0  0  0  0  0  0  0  0  0  0  0
  111.5530  -78.4466  -88.0623 C   0  0  0  0  0  0  0  0  0  0  0  0
  111.0062  -77.1636  -87.6614 C   0  0  0  0  0  0  0  0  0  0  0  0
  111.1486  -76.7766  -86.2793 C   0  0  0  0  0  0  0  0  0  0  0  0
  110.5383  -75.4360  -85.9441 C   0  0  0  0  0  0  0  0  0  0  0  0
  110.8109  -75.2584  -84.5757 C   0  0  0  0  0  0  0  0  0  0  0  0
  110.2932  -73.9882  -84.0626 C   0  0  0  0  0  0  0  0  0  0  0  0
  110.5511  -73.7443  -82.6783 C   0  0  0  0  0  0  0  0  0  0  0  0
  109.8861  -74.6499  -86.8751 C   0  0  0  0  0  0  0  0  0  0  0  0
  110.2217  -73.3154  -87.2020 C   0  0  0  0  0  0  0  0  0  0  0  0
  109.5856  -72.5132  -88.1511 C   0  0  0  0  0  0  0  0  0  0  0  0
  108.4646  -73.0477  -88.9096 C   0  0  0  0  0  0  0  0  0  0  0  0
  108.1471  -74.3799  -88.5511 C   0  0  0  0  0  0  0  0  0  0  0  0
  108.7535  -75.2183  -87.6054 C   0  0  0  0  0  0  0  0  0  0  0  0
  111.4175  -74.2729  -80.5387 N   0  3  0  0  0  0  0  0  0  0  0  0
  112.1325  -75.1258  -79.5960 C   0  0  0  0  0  0  0  0  0  0  0  0
  110.9462  -73.0276  -79.8936 C   0  0  0  0  0  0  0  0  0  0  0  0
  112.7216  -80.5538  -87.4110 N   0  0  0  0  0  0  0  0  0  0  0  0
  113.3216  -81.5933  -86.5451 C   0  0  0  0  0  0  0  0  0  0  0  0
  112.6797  -81.0018  -88.8478 C   0  0  0  0  0  0  0  0  0  0  0  0
  1  2  1  0  0  0  0
  1 14  1  0  0  0  0
  1 21  2  0  0  0  0
  2  3  2  0  0  0  0
  3  4  1  0  0  0  0
  3 12  1  0  0  0  0
  4  5  1  0  0  0  0
  5  6  1  0  0  0  0
  5 10  2  0  0  0  0
  6  7  2  0  0  0  0
  7  8  1  0  0  0  0
  7 24  1  0  0  0  0
  8  9  2  0  0  0  0
  9 10  1  0  0  0  0
 10 11  1  0  0  0  0
 11 12  2  0  0  0  0
 11 15  1  0  0  0  0
 12 13  1  0  0  0  0
 13 14  2  0  0  0  0
 15 16  2  0  0  0  0
 15 20  1  0  0  0  0
 16 17  1  0  0  0  0
 17 18  2  0  0  0  0
 18 19  1  0  0  0  0
 19 20  2  0  0  0  0
 21 22  1  0  0  0  0
 21 23  1  0  0  0  0
 24 25  1  0  0  0  0
 24 26  1  0  0  0  0
M  CHG  1  21   1
M  END
>  <CHROM.1>
4.77272996,-123.17717233,111.08085526,-76.18323466,-85.32053994,-1.81273595
1.05207718,-2.08038414

>  <Name>
1f1t Malachite green aptamer (Xray 2.8A)

>  <RI>
0

>  <Rbt.Current_Directory>
/home/itssahil/PROJECTS/Mol_Feturizer/New_Systems/rnas/1f1t

>  <Rbt.Executable>
rbdock ($Id: //depot/dev/client3/rdock/2013.1/src/exe/rbdock.cxx#4 $)

>  <Rbt.Library>
libRbt.so (2013.1, Build901 2013/11/27)

>  <Rbt.Parameter_File>
/export/apps/rDock/src/rDock_2013.1_src/data/scripts/dock_solv.prm

>  <Rbt.Receptor>
prm/pocket_docking_6.prm

>  <SCORE>
-63.3238

>  <SCORE.INTER>
-63.4132

>  <SCORE.INTER.CONST>
1

>  <SCORE.INTER.POLAR>
0

>  <SCORE.INTER.ROT>
2

>  <SCORE.INTER.SOLV>
11.1123

>  <SCORE.INTER.VDW>
-50.9129

>  <SCORE.INTER.norm>
-2.43897

>  <SCORE.INTRA>
0.0894086

>  <SCORE.INTRA.DIHEDRAL>
-0.764171

>  <SCORE.INTRA.DIHEDRAL.0>
4.18538

>  <SCORE.INTRA.POLAR>
0

>  <SCORE.INTRA.POLAR.0>
0

>  <SCORE.INTRA.REPUL>
0

>  <SCORE.INTRA.REPUL.0>
0

>  <SCORE.INTRA.SOLV>
0.0141934

>  <SCORE.INTRA.SOLV.lig_0>
-5.16926

>  <SCORE.INTRA.VDW>
0.464397

>  <SCORE.INTRA.VDW.0>
1.11912

>  <SCORE.INTRA.norm>
0.00343879

>  <SCORE.RESTR>
0

>  <SCORE.RESTR.CAVITY>
0

>  <SCORE.RESTR.norm>
0

>  <SCORE.SYSTEM>
0

>  <SCORE.SYSTEM.CONST>
0

>  <SCORE.SYSTEM.DIHEDRAL>
0

>  <SCORE.SYSTEM.SOLV>
0

>  <SCORE.SYSTEM.norm>
0

>  <SCORE.heavy>
26

>  <SCORE.norm>
-2.43553

>  <RMSD>
0.654

$$$$
1f1t Malachite green aptamer (Xray 2.8A)
 OpenBabel11021811393D
libRbt.so/2013.1/901 2013/11/27
 26 29  0  0  0  0  0  0  0  0999 V2000
  111.2362  -74.6293  -81.8626 C   0  0  0  0  0  0  0  0  0  0  0  0
  111.7495  -75.9001  -82.3522 C   0  0  0  0  0  0  0  0  0  0  0  0
  111.4861  -76.1116  -83.7069 C   0  0  0  0  0  0  0  0  0  0  0  0
  112.0330  -77.4230  -84.1550 O   0  0  0  0  0  0  0  0  0  0  0  0
  111.7970  -77.6031  -85.3959 C   0  0  0  0  0  0  0  0  0  0  0  0
  112.3582  -78.9110  -85.7334 C   0  0  0  0  0  0  0  0  0  0  0  0
  112.1907  -79.2826  -87.1145 C   0  0  0  0  0  0  0  0  0  0  0  0
  111.5492  -78.4438  -88.0592 C   0  0  0  0  0  0  0  0  0  0  0  0
  111.0049  -77.1599  -87.6579 C   0  0  0  0  0  0  0  0  0  0  0  0
  111.1484  -76.7734  -86.2757 C   0  0  0  0  0  0  0  0  0  0  0  0
  110.5408  -75.4317  -85.9401 C   0  0  0  0  0  0  0  0  0  0  0  0
  110.8140  -75.2550  -84.5718 C   0  0  0  0  0  0  0  0  0  0  0  0
  110.2988  -73.9839  -84.0582 C   0  0  0  0  0  0  0  0  0  0  0  0
  110.5576  -73.7408  -82.6739 C   0  0  0  0  0  0  0  0  0  0  0  0
  109.8898  -74.6443  -86.8707 C   0  0  0  0  0  0  0  0  0  0  0  0
  110.2372  -73.3154  -87.2084 C   0  0  0  0  0  0  0  0  0  0  0  0
  109.6024  -72.5121  -88.1574 C   0  0  0  0  0  0  0  0  0  0  0  0
  108.4696  -73.0390  -88.9037 C   0  0  0  0  0  0  0  0  0  0  0  0
  108.1406  -74.3655  -88.5347 C   0  0  0  0  0  0  0  0  0  0  0  0
  108.7453  -75.2047  -87.5887 C   0  0  0  0  0  0  0  0  0  0  0  0
  111.4236  -74.2715  -80.5347 N   0  3  0  0  0  0  0  0  0  0  0  0
  112.1372  -75.1260  -79.5923 C   0  0  0  0  0  0  0  0  0  0  0  0
  110.9548  -73.0255  -79.8892 C   0  0  0  0  0  0  0  0  0  0  0  0
  112.7140  -80.5533  -87.4087 N   0  0  0  0  0  0  0  0  0  0  0  0
  113.3156  -81.5927  -86.5437 C   0  0  0  0  0  0  0  0  0  0  0  0
  112.6668  -81.0028  -88.8449 C   0  0  0  0  0  0  0  0  0  0  0  0
  1  2  1  0  0  0  0
  1 14  1  0  0  0  0
  1 21  2  0  0  0  0
  2  3  2  0  0  0  0
  3  4  1  0  0  0  0
  3 12  1  0  0  0  0
  4  5  1  0  0  0  0
  5  6  1  0  0  0  0
  5 10  2  0  0  0  0
  6  7  2  0  0  0  0
  7  8  1  0  0  0  0
  7 24  1  0  0  0  0
  8  9  2  0  0  0  0
  9 10  1  0  0  0  0
 10 11  1  0  0  0  0
 11 12  2  0  0  0  0
 11 15  1  0  0  0  0
 12 13  1  0  0  0  0
 13 14  2  0  0  0  0
 15 16  2  0  0  0  0
 15 20  1  0  0  0  0
 16 17  1  0  0  0  0
 17 18  2  0  0  0  0
 18 19  1  0  0  0  0
 19 20  2  0  0  0  0
 21 22  1  0  0  0  0
 21 23  1  0  0  0  0
 24 25  1  0  0  0  0
 24 26  1  0  0  0  0
M  CHG  1  21   1
M  END
>  <CHROM.1>
4.58086852,-122.41495461,111.08189868,-76.18016559,-85.31674794,-1.81045146
1.05344301,-2.08212148

>  <Name>
1f1t Malachite green aptamer (Xray 2.8A)

>  <RI>
0

>  <Rbt.Current_Directory>
/home/itssahil/PROJECTS/Mol_Feturizer/New_Systems/rnas/1f1t

>  <Rbt.Executable>
rbdock ($Id: //depot/dev/client3/rdock/2013.1/src/exe/rbdock.cxx#4 $)

>  <Rbt.Library>
libRbt.so (2013.1, Build901 2013/11/27)

>  <Rbt.Parameter_File>
/export/apps/rDock/src/rDock_2013.1_src/data/scripts/dock_solv.prm

>  <Rbt.Receptor>
prm/pocket_docking_7.prm

>  <SCORE>
-63.2989

>  <SCORE.INTER>
-63.3713

>  <SCORE.INTER.CONST>
1

>  <SCORE.INTER.POLAR>
0

>  <SCORE.INTER.ROT>
2

>  <SCORE.INTER.SOLV>
11.115

>  <SCORE.INTER.VDW>
-50.8859

>  <SCORE.INTER.norm>
-2.43736

>  <SCORE.INTRA>
0.0724258

>  <SCORE.INTRA.DIHEDRAL>
-0.712476

>  <SCORE.INTRA.DIHEDRAL.0>
4.18538

>  <SCORE.INTRA.POLAR>
0

>  <SCORE.INTRA.POLAR.0>
0

>  <SCORE.INTRA.REPUL>
0

>  <SCORE.INTRA.REPUL.0>
0

>  <SCORE.INTRA.SOLV>
0.013302

>  <SCORE.INTRA.SOLV.lig_0>
-5.16926

>  <SCORE.INTRA.VDW>
0.422013

>  <SCORE.INTRA.VDW.0>
1.11912

>  <SCORE.INTRA.norm>
0.00278561

>  <SCORE.RESTR>
0

>  <SCORE.RESTR.CAVITY>
0

>  <SCORE.RESTR.norm>
0

>  <SCORE.SYSTEM>
0

>  <SCORE.SYSTEM.CONST>
0

>  <SCORE.SYSTEM.DIHEDRAL>
0

>  <SCORE.SYSTEM.SOLV>
0

>  <SCORE.SYSTEM.norm>
0

>  <SCORE.heavy>
26

>  <SCORE.norm>
-2.43457

>  <RMSD>
0.654

$$$$
1f1t Malachite green aptamer (Xray 2.8A)
 OpenBabel11021811393D
libRbt.so/2013.1/901 2013/11/27
 26 29  0  0  0  0  0  0  0  0999 V2000
  111.2296  -74.6323  -81.8638 C   0  0  0  0  0  0  0  0  0  0  0  0
  111.7461  -75.9018  -82.3536 C   0  0  0  0  0  0  0  0  0  0  0  0
  111.4850  -76.1128  -83.7089 C   0  0  0  0  0  0  0  0  0  0  0  0
  112.0350  -77.4228  -84.1572 O   0  0  0  0  0  0  0  0  0  0  0  0
  111.8012  -77.6023  -85.3985 C   0  0  0  0  0  0  0  0  0  0  0  0
  112.3653  -78.9089  -85.7363 C   0  0  0  0  0  0  0  0  0  0  0  0
  112.2006  -79.2797  -87.1179 C   0  0  0  0  0  0  0  0  0  0  0  0
  111.5590  -78.4414  -88.0629 C   0  0  0  0  0  0  0  0  0  0  0  0
  111.0117  -77.1588  -87.6614 C   0  0  0  0  0  0  0  0  0  0  0  0
  111.1524  -76.7732  -86.2787 C   0  0  0  0  0  0  0  0  0  0  0  0
  110.5417  -75.4329  -85.9429 C   0  0  0  0  0  0  0  0  0  0  0  0
  110.8126  -75.2567  -84.5741 C   0  0  0  0  0  0  0  0  0  0  0  0
  110.2943  -73.9870  -84.0603 C   0  0  0  0  0  0  0  0  0  0  0  0
  110.5505  -73.7445  -82.6754 C   0  0  0  0  0  0  0  0  0  0  0  0
  109.8906  -74.6459  -86.8739 C   0  0  0  0  0  0  0  0  0  0  0  0
  110.2267  -73.3111  -87.1992 C   0  0  0  0  0  0  0  0  0  0  0  0
  109.5918  -72.5080  -88.1483 C   0  0  0  0  0  0  0  0  0  0  0  0
  108.4715  -73.0417  -88.9085 C   0  0  0  0  0  0  0  0  0  0  0  0
  108.1535  -74.3742  -88.5516 C   0  0  0  0  0  0  0  0  0  0  0  0
  108.7587  -75.2135  -87.6060 C   0  0  0  0  0  0  0  0  0  0  0  0
  111.4144  -74.2752  -80.5353 N   0  3  0  0  0  0  0  0  0  0  0  0
  112.1282  -75.1291  -79.5925 C   0  0  0  0  0  0  0  0  0  0  0  0
  110.9423  -73.0306  -79.8895 C   0  0  0  0  0  0  0  0  0  0  0  0
  112.7268  -80.5493  -87.4123 N   0  0  0  0  0  0  0  0  0  0  0  0
  113.3106  -81.5964  -86.5446 C   0  0  0  0  0  0  0  0  0  0  0  0
  112.7048  -80.9876  -88.8525 C   0  0  0  0  0  0  0  0  0  0  0  0
  1  2  1  0  0  0  0
  1 14  1  0  0  0  0
  1 21  2  0  0  0  0
  2  3  2  0  0  0  0
  3  4  1  0  0  0  0
  3 12  1  0  0  0  0
  4  5  1  0  0  0  0
  5  6  1  0  0  0  0
  5 10  2  0  0  0  0
  6  7  2  0  0  0  0
  7  8  1  0  0  0  0
  7 24  1  0  0  0  0
  8  9  2  0  0  0  0
  9 10  1  0  0  0  0
 10 11  1  0  0  0  0
 11 12  2  0  0  0  0
 11 15  1  0  0  0  0
 12 13  1  0  0  0  0
 13 14  2  0  0  0  0
 15 16  2  0  0  0  0
 15 20  1  0  0  0  0
 16 17  1  0  0  0  0
 17 18  2  0  0  0  0
 18 19  1  0  0  0  0
 19 20  2  0  0  0  0
 21 22  1  0  0  0  0
 21 23  1  0  0  0  0
 24 25  1  0  0  0  0
 24 26  1  0  0  0  0
M  CHG  1  21   1
M  END
>  <CHROM.1>
5.63677532,-123.16786349,111.08360684,-76.18071845,-85.31947915,-1.81532100
1.05282089,-2.07706940

>  <Name>
1f1t Malachite green aptamer (Xray 2.8A)

>  <RI>
0

>  <Rbt.Current_Directory>
/home/itssahil/PROJECTS/Mol_Feturizer/New_Systems/rnas/1f1t

>  <Rbt.Executable>
rbdock ($Id: //depot/dev/client3/rdock/2013.1/src/exe/rbdock.cxx#4 $)

>  <Rbt.Library>
libRbt.so (2013.1, Build901 2013/11/27)

>  <Rbt.Parameter_File>
/export/apps/rDock/src/rDock_2013.1_src/data/scripts/dock_solv.prm

>  <Rbt.Receptor>
prm/pocket_docking_3.prm

>  <SCORE>
-63.2861

>  <SCORE.INTER>
-63.3815

>  <SCORE.INTER.CONST>
1

>  <SCORE.INTER.POLAR>
0

>  <SCORE.INTER.ROT>
2

>  <SCORE.INTER.SOLV>
11.1066

>  <SCORE.INTER.VDW>
-50.8898

>  <SCORE.INTER.norm>
-2.43775

>  <SCORE.INTRA>
0.0953537

>  <SCORE.INTRA.DIHEDRAL>
-0.729521

>  <SCORE.INTRA.DIHEDRAL.0>
4.18538

>  <SCORE.INTRA.POLAR>
0

>  <SCORE.INTRA.POLAR.0>
0

>  <SCORE.INTRA.REPUL>
0

>  <SCORE.INTRA.REPUL.0>
0

>  <SCORE.INTRA.SOLV>
0.0141837

>  <SCORE.INTRA.SOLV.lig_0>
-5.16926

>  <SCORE.INTRA.VDW>
0.453022

>  <SCORE.INTRA.VDW.0>
1.11912

>  <SCORE.INTRA.norm>
0.00366745

>  <SCORE.RESTR>
0

>  <SCORE.RESTR.CAVITY>
0

>  <SCORE.RESTR.norm>
0

>  <SCORE.SYSTEM>
0

>  <SCORE.SYSTEM.CONST>
0

>  <SCORE.SYSTEM.DIHEDRAL>
0

>  <SCORE.SYSTEM.SOLV>
0

>  <SCORE.SYSTEM.norm>
0

>  <SCORE.heavy>
26

>  <SCORE.norm>
-2.43408

>  <RMSD>
0.655

$$$$
1f1t Malachite green aptamer (Xray 2.8A)
 OpenBabel11021811393D
libRbt.so/2013.1/901 2013/11/27
 26 29  0  0  0  0  0  0  0  0999 V2000
  111.2610  -74.6265  -81.8525 C   0  0  0  0  0  0  0  0  0  0  0  0
  111.7692  -75.8988  -82.3440 C   0  0  0  0  0  0  0  0  0  0  0  0
  111.5027  -76.1084  -83.6984 C   0  0  0  0  0  0  0  0  0  0  0  0
  112.0443  -77.4213  -84.1484 O   0  0  0  0  0  0  0  0  0  0  0  0
  111.8056  -77.5996  -85.3890 C   0  0  0  0  0  0  0  0  0  0  0  0
  112.3617  -78.9092  -85.7284 C   0  0  0  0  0  0  0  0  0  0  0  0
  112.1906  -79.2792  -87.1095 C   0  0  0  0  0  0  0  0  0  0  0  0
  111.5504  -78.4375  -88.0525 C   0  0  0  0  0  0  0  0  0  0  0  0
  111.0112  -77.1520  -87.6493 C   0  0  0  0  0  0  0  0  0  0  0  0
  111.1584  -76.7671  -86.2671 C   0  0  0  0  0  0  0  0  0  0  0  0
  110.5559  -75.4235  -85.9294 C   0  0  0  0  0  0  0  0  0  0  0  0
  110.8321  -75.2488  -84.5615 C   0  0  0  0  0  0  0  0  0  0  0  0
  110.3222  -73.9763  -84.0461 C   0  0  0  0  0  0  0  0  0  0  0  0
  110.5841  -73.7351  -82.6620 C   0  0  0  0  0  0  0  0  0  0  0  0
  109.9061  -74.6331  -86.8584 C   0  0  0  0  0  0  0  0  0  0  0  0
  110.2394  -73.2955  -87.1746 C   0  0  0  0  0  0  0  0  0  0  0  0
  109.6057  -72.4888  -88.1215 C   0  0  0  0  0  0  0  0  0  0  0  0
  108.4900  -73.0214  -88.8891 C   0  0  0  0  0  0  0  0  0  0  0  0
  108.1747  -74.3569  -88.5412 C   0  0  0  0  0  0  0  0  0  0  0  0
  108.7787  -75.1998  -87.5982 C   0  0  0  0  0  0  0  0  0  0  0  0
  111.4519  -74.2704  -80.5247 N   0  3  0  0  0  0  0  0  0  0  0  0
  112.1642  -75.1280  -79.5842 C   0  0  0  0  0  0  0  0  0  0  0  0
  110.9886  -73.0232  -79.8775 C   0  0  0  0  0  0  0  0  0  0  0  0
  112.7090  -80.5515  -87.4055 N   0  0  0  0  0  0  0  0  0  0  0  0
  113.3110  -81.5925  -86.5427 C   0  0  0  0  0  0  0  0  0  0  0  0
  112.6549  -81.0010  -88.8415 C   0  0  0  0  0  0  0  0  0  0  0  0
  1  2  1  0  0  0  0
  1 14  1  0  0  0  0
  1 21  2  0  0  0  0
  2  3  2  0  0  0  0
  3  4  1  0  0  0  0
  3 12  1  0  0  0  0
  4  5  1  0  0  0  0
  5  6  1  0  0  0  0
  5 10  2  0  0  0  0
  6  7  2  0  0  0  0
  7  8  1  0  0  0  0
  7 24  1  0  0  0  0
  8  9  2  0  0  0  0
  9 10  1  0  0  0  0
 10 11  1  0  0  0  0
 11 12  2  0  0  0  0
 11 15  1  0  0  0  0
 12 13  1  0  0  0  0
 13 14  2  0  0  0  0
 15 16  2  0  0  0  0
 15 20  1  0  0  0  0
 16 17  1  0  0  0  0
 17 18  2  0  0  0  0
 18 19  1  0  0  0  0
 19 20  2  0  0  0  0
 21 22  1  0  0  0  0
 21 23  1  0  0  0  0
 24 25  1  0  0  0  0
 24 26  1  0  0  0  0
M  CHG  1  21   1
M  END
>  <CHROM.1>
4.44130412,-123.87779404,111.09572625,-76.17432963,-85.30772604,-1.80366874
1.05578018,-2.08736260

>  <Name>
1f1t Malachite green aptamer (Xray 2.8A)

>  <RI>
0

>  <Rbt.Current_Directory>
/home/itssahil/PROJECTS/Mol_Feturizer/New_Systems/rnas/1f1t

>  <Rbt.Executable>
rbdock ($Id: //depot/dev/client3/rdock/2013.1/src/exe/rbdock.cxx#4 $)

>  <Rbt.Library>
libRbt.so (2013.1, Build901 2013/11/27)

>  <Rbt.Parameter_File>
/export/apps/rDock/src/rDock_2013.1_src/data/scripts/dock_solv.prm

>  <Rbt.Receptor>
prm/pocket_docking_4.prm

>  <SCORE>
-63.3383

>  <SCORE.INTER>
-63.442

>  <SCORE.INTER.CONST>
1

>  <SCORE.INTER.POLAR>
0

>  <SCORE.INTER.ROT>
2

>  <SCORE.INTER.SOLV>
11.1214

>  <SCORE.INTER.VDW>
-50.9351

>  <SCORE.INTER.norm>
-2.44008

>  <SCORE.INTRA>
0.103695

>  <SCORE.INTRA.DIHEDRAL>
-0.829977

>  <SCORE.INTRA.DIHEDRAL.0>
4.18538

>  <SCORE.INTRA.POLAR>
0

>  <SCORE.INTRA.POLAR.0>
0

>  <SCORE.INTRA.REPUL>
0

>  <SCORE.INTRA.REPUL.0>
0

>  <SCORE.INTRA.SOLV>
0.0150089

>  <SCORE.INTRA.SOLV.lig_0>
-5.16926

>  <SCORE.INTRA.VDW>
0.511179

>  <SCORE.INTRA.VDW.0>
1.11912

>  <SCORE.INTRA.norm>
0.00398826

>  <SCORE.RESTR>
0

>  <SCORE.RESTR.CAVITY>
0

>  <SCORE.RESTR.norm>
0

>  <SCORE.SYSTEM>
0

>  <SCORE.SYSTEM.CONST>
0

>  <SCORE.SYSTEM.DIHEDRAL>
0

>  <SCORE.SYSTEM.SOLV>
0

>  <SCORE.SYSTEM.norm>
0

>  <SCORE.heavy>
26

>  <SCORE.norm>
-2.43609

>  <RMSD>
0.655

$$$$
1f1t Malachite green aptamer (Xray 2.8A)
 OpenBabel11021811393D
libRbt.so/2013.1/901 2013/11/27
 26 29  0  0  0  0  0  0  0  0999 V2000
  111.2460  -74.6301  -81.8585 C   0  0  0  0  0  0  0  0  0  0  0  0
  111.7582  -75.9012  -82.3489 C   0  0  0  0  0  0  0  0  0  0  0  0
  111.4951  -76.1113  -83.7039 C   0  0  0  0  0  0  0  0  0  0  0  0
  112.0407  -77.4229  -84.1529 O   0  0  0  0  0  0  0  0  0  0  0  0
  111.8050  -77.6016  -85.3940 C   0  0  0  0  0  0  0  0  0  0  0  0
  112.3648  -78.9099  -85.7324 C   0  0  0  0  0  0  0  0  0  0  0  0
  112.1975  -79.2801  -87.1139 C   0  0  0  0  0  0  0  0  0  0  0  0
  111.5574  -78.4398  -88.0582 C   0  0  0  0  0  0  0  0  0  0  0  0
  111.0144  -77.1556  -87.6560 C   0  0  0  0  0  0  0  0  0  0  0  0
  111.1578  -76.7705  -86.2735 C   0  0  0  0  0  0  0  0  0  0  0  0
  110.5514  -75.4284  -85.9370 C   0  0  0  0  0  0  0  0  0  0  0  0
  110.8243  -75.2531  -84.5684 C   0  0  0  0  0  0  0  0  0  0  0  0
  110.3104  -73.9819  -84.0540 C   0  0  0  0  0  0  0  0  0  0  0  0
  110.5688  -73.7402  -82.6693 C   0  0  0  0  0  0  0  0  0  0  0  0
  109.9018  -74.6394  -86.8672 C   0  0  0  0  0  0  0  0  0  0  0  0
  110.2401  -73.3048  -87.1911 C   0  0  0  0  0  0  0  0  0  0  0  0
  109.6066  -72.4997  -88.1394 C   0  0  0  0  0  0  0  0  0  0  0  0
  108.4855  -73.0308  -88.9003 C   0  0  0  0  0  0  0  0  0  0  0  0
  108.1653  -74.3631  -88.5448 C   0  0  0  0  0  0  0  0  0  0  0  0
  108.7690  -75.2044  -87.6000 C   0  0  0  0  0  0  0  0  0  0  0  0
  111.4333  -74.2737  -80.5302 N   0  3  0  0  0  0  0  0  0  0  0  0
  112.1455  -75.1298  -79.5882 C   0  0  0  0  0  0  0  0  0  0  0  0
  110.9657  -73.0277  -79.8839 C   0  0  0  0  0  0  0  0  0  0  0  0
  112.7195  -80.5512  -87.4089 N   0  0  0  0  0  0  0  0  0  0  0  0
  113.3206  -81.5915  -86.5447 C   0  0  0  0  0  0  0  0  0  0  0  0
  112.6712  -80.9999  -88.8453 C   0  0  0  0  0  0  0  0  0  0  0  0
  1  2  1  0  0  0  0
  1 14  1  0  0  0  0
  1 21  2  0  0  0  0
  2  3  2  0  0  0  0
  3  4  1  0  0  0  0
  3 12  1  0  0  0  0
  4  5  1  0  0  0  0
  5  6  1  0  0  0  0
  5 10  2  0  0  0  0
  6  7  2  0  0  0  0
  7  8  1  0  0  0  0
  7 24  1  0  0  0  0
  8  9  2  0  0  0  0
  9 10  1  0  0  0  0
 10 11  1  0  0  0  0
 11 12  2  0  0  0  0
 11 15  1  0  0  0  0
 12 13  1  0  0  0  0
 13 14  2  0  0  0  0
 15 16  2  0  0  0  0
 15 20  1  0  0  0  0
 16 17  1  0  0  0  0
 17 18  2  0  0  0  0
 18 19  1  0  0  0  0
 19 20  2  0  0  0  0
 21 22  1  0  0  0  0
 21 23  1  0  0  0  0
 24 25  1  0  0  0  0
 24 26  1  0  0  0  0
M  CHG  1  21   1
M  END
>  <CHROM.1>
4.52324268,-123.28424500,111.09159902,-76.17797501,-85.31410403,-1.80987501
1.05474745,-2.08183212

>  <Name>
1f1t Malachite green aptamer (Xray 2.8A)

>  <RI>
0

>  <Rbt.Current_Directory>
/home/itssahil/PROJECTS/Mol_Feturizer/New_Systems/rnas/1f1t

>  <Rbt.Executable>
rbdock ($Id: //depot/dev/client3/rdock/2013.1/src/exe/rbdock.cxx#4 $)

>  <Rbt.Library>
libRbt.so (2013.1, Build901 2013/11/27)

>  <Rbt.Parameter_File>
/export/apps/rDock/src/rDock_2013.1_src/data/scripts/dock_solv.prm

>  <Rbt.Receptor>
prm/pocket_docking_5.prm

>  <SCORE>
-63.3143

>  <SCORE.INTER>
-63.4045

>  <SCORE.INTER.CONST>
1

>  <SCORE.INTER.POLAR>
0

>  <SCORE.INTER.ROT>
2

>  <SCORE.INTER.SOLV>
11.123

>  <SCORE.INTER.VDW>
-50.9107

>  <SCORE.INTER.norm>
-2.43863

>  <SCORE.INTRA>
0.0902104

>  <SCORE.INTRA.DIHEDRAL>
-0.781166

>  <SCORE.INTRA.DIHEDRAL.0>
4.18538

>  <SCORE.INTRA.POLAR>
0

>  <SCORE.INTRA.POLAR.0>
0

>  <SCORE.INTRA.REPUL>
0

>  <SCORE.INTRA.REPUL.0>
0

>  <SCORE.INTRA.SOLV>
0.014318

>  <SCORE.INTRA.SOLV.lig_0>
-5.16926

>  <SCORE.INTRA.VDW>
0.473634

>  <SCORE.INTRA.VDW.0>
1.11912

>  <SCORE.INTRA.norm>
0.00346963

>  <SCORE.RESTR>
0

>  <SCORE.RESTR.CAVITY>
0

>  <SCORE.RESTR.norm>
0

>  <SCORE.SYSTEM>
0

>  <SCORE.SYSTEM.CONST>
0

>  <SCORE.SYSTEM.DIHEDRAL>
0

>  <SCORE.SYSTEM.SOLV>
0

>  <SCORE.SYSTEM.norm>
0

>  <SCORE.heavy>
26

>  <SCORE.norm>
-2.43516

>  <RMSD>
0.655

$$$$
1f1t Malachite green aptamer (Xray 2.8A)
 OpenBabel11021811393D
libRbt.so/2013.1/901 2013/11/27
 26 29  0  0  0  0  0  0  0  0999 V2000
  111.2512  -74.6198  -81.8529 C   0  0  0  0  0  0  0  0  0  0  0  0
  111.7612  -75.8921  -82.3424 C   0  0  0  0  0  0  0  0  0  0  0  0
  111.4973  -76.1030  -83.6971 C   0  0  0  0  0  0  0  0  0  0  0  0
  112.0407  -77.4159  -84.1451 O   0  0  0  0  0  0  0  0  0  0  0  0
  111.8043  -77.5954  -85.3860 C   0  0  0  0  0  0  0  0  0  0  0  0
  112.3620  -78.9049  -85.7234 C   0  0  0  0  0  0  0  0  0  0  0  0
  112.1936  -79.2761  -87.1045 C   0  0  0  0  0  0  0  0  0  0  0  0
  111.5544  -78.4356  -88.0493 C   0  0  0  0  0  0  0  0  0  0  0  0
  111.0135  -77.1503  -87.6481 C   0  0  0  0  0  0  0  0  0  0  0  0
  111.1580  -76.7641  -86.2659 C   0  0  0  0  0  0  0  0  0  0  0  0
  110.5539  -75.4208  -85.9304 C   0  0  0  0  0  0  0  0  0  0  0  0
  110.8275  -75.2447  -84.5621 C   0  0  0  0  0  0  0  0  0  0  0  0
  110.3157  -73.9722  -84.0487 C   0  0  0  0  0  0  0  0  0  0  0  0
  110.5750  -73.7296  -82.6643 C   0  0  0  0  0  0  0  0  0  0  0  0
  109.9050  -74.6316  -86.8612 C   0  0  0  0  0  0  0  0  0  0  0  0
  110.2456  -73.2980  -87.1868 C   0  0  0  0  0  0  0  0  0  0  0  0
  109.6130  -72.4928  -88.1356 C   0  0  0  0  0  0  0  0  0  0  0  0
  108.4904  -73.0227  -88.8951 C   0  0  0  0  0  0  0  0  0  0  0  0
  108.1680  -74.3540  -88.5380 C   0  0  0  0  0  0  0  0  0  0  0  0
  108.7708  -75.1953  -87.5926 C   0  0  0  0  0  0  0  0  0  0  0  0
  111.4395  -74.2625  -80.5251 N   0  3  0  0  0  0  0  0  0  0  0  0
  112.1508  -75.1188  -79.5826 C   0  0  0  0  0  0  0  0  0  0  0  0
  110.9740  -73.0152  -79.8797 C   0  0  0  0  0  0  0  0  0  0  0  0
  112.7136  -80.5482  -87.3985 N   0  0  0  0  0  0  0  0  0  0  0  0
  113.3194  -81.5860  -86.5346 C   0  0  0  0  0  0  0  0  0  0  0  0
  112.6568  -81.0014  -88.8332 C   0  0  0  0  0  0  0  0  0  0  0  0
  1  2  1  0  0  0  0
  1 14  1  0  0  0  0
  1 21  2  0  0  0  0
  2  3  2  0  0  0  0
  3  4  1  0  0  0  0
  3 12  1  0  0  0  0
  4  5  1  0  0  0  0
  5  6  1  0  0  0  0
  5 10  2  0  0  0  0
  6  7  2  0  0  0  0
  7  8  1  0  0  0  0
  7 24  1  0  0  0  0
  8  9  2  0  0  0  0
  9 10  1  0  0  0  0
 10 11  1  0  0  0  0
 11 12  2  0  0  0  0
 11 15  1  0  0  0  0
 12 13  1  0  0  0  0
 13 14  2  0  0  0  0
 15 16  2  0  0  0  0
 15 20  1  0  0  0  0
 16 17  1  0  0  0  0
 17 18  2  0  0  0  0
 18 19  1  0  0  0  0
 19 20  2  0  0  0  0
 21 22  1  0  0  0  0
 21 23  1  0  0  0  0
 24 25  1  0  0  0  0
 24 26  1  0  0  0  0
M  CHG  1  21   1
M  END
>  <CHROM.1>
4.17915179,-123.25860687,111.09304267,-76.17063261,-85.30707020,-1.80751701
1.05583026,-2.08482234

>  <Name>
1f1t Malachite green aptamer (Xray 2.8A)

>  <RI>
0

>  <Rbt.Current_Directory>
/home/itssahil/PROJECTS/Mol_Feturizer/New_Systems/rnas/1f1t

>  <Rbt.Executable>
rbdock ($Id: //depot/dev/client3/rdock/2013.1/src/exe/rbdock.cxx#4 $)

>  <Rbt.Library>
libRbt.so (2013.1, Build901 2013/11/27)

>  <Rbt.Parameter_File>
/export/apps/rDock/src/rDock_2013.1_src/data/scripts/dock_solv.prm

>  <Rbt.Receptor>
prm/pocket_docking_5.prm

>  <SCORE>
-63.2661

>  <SCORE.INTER>
-63.3537

>  <SCORE.INTER.CONST>
1

>  <SCORE.INTER.POLAR>
0

>  <SCORE.INTER.ROT>
2

>  <SCORE.INTER.SOLV>
11.1319

>  <SCORE.INTER.VDW>
-50.8798

>  <SCORE.INTER.norm>
-2.43668

>  <SCORE.INTRA>
0.0876004

>  <SCORE.INTRA.DIHEDRAL>
-0.790439

>  <SCORE.INTRA.DIHEDRAL.0>
4.18538

>  <SCORE.INTRA.POLAR>
0

>  <SCORE.INTRA.POLAR.0>
0

>  <SCORE.INTRA.REPUL>
0

>  <SCORE.INTRA.REPUL.0>
0

>  <SCORE.INTRA.SOLV>
0.0142879

>  <SCORE.INTRA.SOLV.lig_0>
-5.16926

>  <SCORE.INTRA.VDW>
0.475676

>  <SCORE.INTRA.VDW.0>
1.11912

>  <SCORE.INTRA.norm>
0.00336924

>  <SCORE.RESTR>
0

>  <SCORE.RESTR.CAVITY>
0

>  <SCORE.RESTR.norm>
0

>  <SCORE.SYSTEM>
0

>  <SCORE.SYSTEM.CONST>
0

>  <SCORE.SYSTEM.DIHEDRAL>
0

>  <SCORE.SYSTEM.SOLV>
0

>  <SCORE.SYSTEM.norm>
0

>  <SCORE.heavy>
26

>  <SCORE.norm>
-2.43331

>  <RMSD>
0.656

$$$$
1f1t Malachite green aptamer (Xray 2.8A)
 OpenBabel11021811393D
libRbt.so/2013.1/901 2013/11/27
 26 29  0  0  0  0  0  0  0  0999 V2000
  111.2293  -74.6288  -81.8649 C   0  0  0  0  0  0  0  0  0  0  0  0
  111.7435  -75.8996  -82.3538 C   0  0  0  0  0  0  0  0  0  0  0  0
  111.4815  -76.1114  -83.7087 C   0  0  0  0  0  0  0  0  0  0  0  0
  112.0292  -77.4227  -84.1561 O   0  0  0  0  0  0  0  0  0  0  0  0
  111.7946  -77.6029  -85.3972 C   0  0  0  0  0  0  0  0  0  0  0  0
  112.3565  -78.9108  -85.7339 C   0  0  0  0  0  0  0  0  0  0  0  0
  112.1905  -79.2826  -87.1152 C   0  0  0  0  0  0  0  0  0  0  0  0
  111.5498  -78.4441  -88.0607 C   0  0  0  0  0  0  0  0  0  0  0  0
  111.0048  -77.1603  -87.6601 C   0  0  0  0  0  0  0  0  0  0  0  0
  111.1467  -76.7736  -86.2778 C   0  0  0  0  0  0  0  0  0  0  0  0
  110.5383  -75.4320  -85.9430 C   0  0  0  0  0  0  0  0  0  0  0  0
  110.8101  -75.2551  -84.5744 C   0  0  0  0  0  0  0  0  0  0  0  0
  110.2940  -73.9840  -84.0616 C   0  0  0  0  0  0  0  0  0  0  0  0
  110.5513  -73.7406  -82.6770 C   0  0  0  0  0  0  0  0  0  0  0  0
  109.8881  -74.6449  -86.8744 C   0  0  0  0  0  0  0  0  0  0  0  0
  110.2315  -73.3138  -87.2072 C   0  0  0  0  0  0  0  0  0  0  0  0
  109.5974  -72.5107  -88.1569 C   0  0  0  0  0  0  0  0  0  0  0  0
  108.4701  -73.0403  -88.9095 C   0  0  0  0  0  0  0  0  0  0  0  0
  108.1450  -74.3690  -88.5452 C   0  0  0  0  0  0  0  0  0  0  0  0
  108.7490  -75.2081  -87.5987 C   0  0  0  0  0  0  0  0  0  0  0  0
  111.4152  -74.2708  -80.5369 N   0  3  0  0  0  0  0  0  0  0  0  0
  112.1280  -75.1249  -79.5936 C   0  0  0  0  0  0  0  0  0  0  0  0
  110.9454  -73.0248  -79.8920 C   0  0  0  0  0  0  0  0  0  0  0  0
  112.7146  -80.5533  -87.4086 N   0  0  0  0  0  0  0  0  0  0  0  0
  113.3146  -81.5927  -86.5427 C   0  0  0  0  0  0  0  0  0  0  0  0
  112.6701  -81.0024  -88.8450 C   0  0  0  0  0  0  0  0  0  0  0  0
  1  2  1  0  0  0  0
  1 14  1  0  0  0  0
  1 21  2  0  0  0  0
  2  3  2  0  0  0  0
  3  4  1  0  0  0  0
  3 12  1  0  0  0  0
  4  5  1  0  0  0  0
  5  6  1  0  0  0  0
  5 10  2  0  0  0  0
  6  7  2  0  0  0  0
  7  8  1  0  0  0  0
  7 24  1  0  0  0  0
  8  9  2  0  0  0  0
  9 10  1  0  0  0  0
 10 11  1  0  0  0  0
 11 12  2  0  0  0  0
 11 15  1  0  0  0  0
 12 13  1  0  0  0  0
 13 14  2  0  0  0  0
 15 16  2  0  0  0  0
 15 20  1  0  0  0  0
 16 17  1  0  0  0  0
 17 18  2  0  0  0  0
 18 19  1  0  0  0  0
 19 20  2  0  0  0  0
 21 22  1  0  0  0  0
 21 23  1  0  0  0  0
 24 25  1  0  0  0  0
 24 26  1  0  0  0  0
M  CHG  1  21   1
M  END
>  <CHROM.1>
4.63411907,-122.73975954,111.07908239,-76.18023422,-85.31902785,-1.81252826
1.05376575,-2.08047565

>  <Name>
1f1t Malachite green aptamer (Xray 2.8A)

>  <RI>
0

>  <Rbt.Current_Directory>
/home/itssahil/PROJECTS/Mol_Feturizer/New_Systems/rnas/1f1t

>  <Rbt.Executable>
rbdock ($Id: //depot/dev/client3/rdock/2013.1/src/exe/rbdock.cxx#4 $)

>  <Rbt.Library>
libRbt.so (2013.1, Build901 2013/11/27)

>  <Rbt.Parameter_File>
/export/apps/rDock/src/rDock_2013.1_src/data/scripts/dock_solv.prm

>  <Rbt.Receptor>
prm/pocket_docking_8.prm

>  <SCORE>
-63.3124

>  <SCORE.INTER>
-63.3917

>  <SCORE.INTER.CONST>
1

>  <SCORE.INTER.POLAR>
0

>  <SCORE.INTER.ROT>
2

>  <SCORE.INTER.SOLV>
11.1178

>  <SCORE.INTER.VDW>
-50.9004

>  <SCORE.INTER.norm>
-2.43814

>  <SCORE.INTRA>
0.0792228

>  <SCORE.INTRA.DIHEDRAL>
-0.735453

>  <SCORE.INTRA.DIHEDRAL.0>
4.18538

>  <SCORE.INTRA.POLAR>
0

>  <SCORE.INTRA.POLAR.0>
0

>  <SCORE.INTRA.REPUL>
0

>  <SCORE.INTRA.REPUL.0>
0

>  <SCORE.INTRA.SOLV>
0.0136823

>  <SCORE.INTRA.SOLV.lig_0>
-5.16926

>  <SCORE.INTRA.VDW>
0.440108

>  <SCORE.INTRA.VDW.0>
1.11912

>  <SCORE.INTRA.norm>
0.00304703

>  <SCORE.RESTR>
0

>  <SCORE.RESTR.CAVITY>
0

>  <SCORE.RESTR.norm>
0

>  <SCORE.SYSTEM>
0

>  <SCORE.SYSTEM.CONST>
0

>  <SCORE.SYSTEM.DIHEDRAL>
0

>  <SCORE.SYSTEM.SOLV>
0

>  <SCORE.SYSTEM.norm>
0

>  <SCORE.heavy>
26

>  <SCORE.norm>
-2.43509

>  <RMSD>
0.656

$$$$
1f1t Malachite green aptamer (Xray 2.8A)
 OpenBabel11021811393D
libRbt.so/2013.1/901 2013/11/27
 26 29  0  0  0  0  0  0  0  0999 V2000
  111.2207  -74.6373  -81.8704 C   0  0  0  0  0  0  0  0  0  0  0  0
  111.7404  -75.9055  -82.3602 C   0  0  0  0  0  0  0  0  0  0  0  0
  111.4806  -76.1168  -83.7156 C   0  0  0  0  0  0  0  0  0  0  0  0
  112.0339  -77.4255  -84.1639 O   0  0  0  0  0  0  0  0  0  0  0  0
  111.8011  -77.6053  -85.4054 C   0  0  0  0  0  0  0  0  0  0  0  0
  112.3685  -78.9106  -85.7431 C   0  0  0  0  0  0  0  0  0  0  0  0
  112.2054  -79.2815  -87.1249 C   0  0  0  0  0  0  0  0  0  0  0  0
  111.5623  -78.4444  -88.0701 C   0  0  0  0  0  0  0  0  0  0  0  0
  111.0118  -77.1632  -87.6686 C   0  0  0  0  0  0  0  0  0  0  0  0
  111.1509  -76.7775  -86.2858 C   0  0  0  0  0  0  0  0  0  0  0  0
  110.5369  -75.4387  -85.9501 C   0  0  0  0  0  0  0  0  0  0  0  0
  110.8067  -75.2622  -84.5810 C   0  0  0  0  0  0  0  0  0  0  0  0
  110.2851  -73.9937  -84.0673 C   0  0  0  0  0  0  0  0  0  0  0  0
  110.5400  -73.7509  -82.6822 C   0  0  0  0  0  0  0  0  0  0  0  0
  109.8845  -74.6531  -86.8813 C   0  0  0  0  0  0  0  0  0  0  0  0
  110.2093  -73.3131  -87.1966 C   0  0  0  0  0  0  0  0  0  0  0  0
  109.5730  -72.5111  -88.1457 C   0  0  0  0  0  0  0  0  0  0  0  0
  108.4637  -73.0517  -88.9169 C   0  0  0  0  0  0  0  0  0  0  0  0
  108.1567  -74.3894  -88.5699 C   0  0  0  0  0  0  0  0  0  0  0  0
  108.7637  -75.2279  -87.6247 C   0  0  0  0  0  0  0  0  0  0  0  0
  111.4039  -74.2801  -80.5418 N   0  3  0  0  0  0  0  0  0  0  0  0
  112.1192  -75.1325  -79.5988 C   0  0  0  0  0  0  0  0  0  0  0  0
  110.9286  -73.0366  -79.8960 C   0  0  0  0  0  0  0  0  0  0  0  0
  112.7346  -80.5497  -87.4192 N   0  0  0  0  0  0  0  0  0  0  0  0
  113.3137  -81.5987  -86.5505 C   0  0  0  0  0  0  0  0  0  0  0  0
  112.7225  -80.9842  -88.8608 C   0  0  0  0  0  0  0  0  0  0  0  0
  1  2  1  0  0  0  0
  1 14  1  0  0  0  0
  1 21  2  0  0  0  0
  2  3  2  0  0  0  0
  3  4  1  0  0  0  0
  3 12  1  0  0  0  0
  4  5  1  0  0  0  0
  5  6  1  0  0  0  0
  5 10  2  0  0  0  0
  6  7  2  0  0  0  0
  7  8  1  0  0  0  0
  7 24  1  0  0  0  0
  8  9  2  0  0  0  0
  9 10  1  0  0  0  0
 10 11  1  0  0  0  0
 11 12  2  0  0  0  0
 11 15  1  0  0  0  0
 12 13  1  0  0  0  0
 13 14  2  0  0  0  0
 15 16  2  0  0  0  0
 15 20  1  0  0  0  0
 16 17  1  0  0  0  0
 17 18  2  0  0  0  0
 18 19  1  0  0  0  0
 19 20  2  0  0  0  0
 21 22  1  0  0  0  0
 21 23  1  0  0  0  0
 24 25  1  0  0  0  0
 24 26  1  0  0  0  0
M  CHG  1  21   1
M  END
>  <CHROM.1>
6.01912454,-123.83361841,111.08035316,-76.18538558,-85.32657373,-1.81863828
1.05121128,-2.07400669

>  <Name>
1f1t Malachite green aptamer (Xray 2.8A)

>  <RI>
0

>  <Rbt.Current_Directory>
/home/itssahil/PROJECTS/Mol_Feturizer/New_Systems/rnas/1f1t

>  <Rbt.Executable>
rbdock ($Id: //depot/dev/client3/rdock/2013.1/src/exe/rbdock.cxx#4 $)

>  <Rbt.Library>
libRbt.so (2013.1, Build901 2013/11/27)

>  <Rbt.Parameter_File>
/export/apps/rDock/src/rDock_2013.1_src/data/scripts/dock_solv.prm

>  <Rbt.Receptor>
prm/pocket_docking_2.prm

>  <SCORE>
-63.2606

>  <SCORE.INTER>
-63.3745

>  <SCORE.INTER.CONST>
1

>  <SCORE.INTER.POLAR>
0

>  <SCORE.INTER.ROT>
2

>  <SCORE.INTER.SOLV>
11.1004

>  <SCORE.INTER.VDW>
-50.8831

>  <SCORE.INTER.norm>
-2.43748

>  <SCORE.INTRA>
0.113895

>  <SCORE.INTRA.DIHEDRAL>
-0.76427

>  <SCORE.INTRA.DIHEDRAL.0>
4.18538

>  <SCORE.INTRA.POLAR>
0

>  <SCORE.INTRA.POLAR.0>
0

>  <SCORE.INTRA.REPUL>
0

>  <SCORE.INTRA.REPUL.0>
0

>  <SCORE.INTRA.SOLV>
0.0149573

>  <SCORE.INTRA.SOLV.lig_0>
-5.16926

>  <SCORE.INTRA.VDW>
0.488552

>  <SCORE.INTRA.VDW.0>
1.11912

>  <SCORE.INTRA.norm>
0.00438059

>  <SCORE.RESTR>
0

>  <SCORE.RESTR.CAVITY>
0

>  <SCORE.RESTR.norm>
0

>  <SCORE.SYSTEM>
0

>  <SCORE.SYSTEM.CONST>
0

>  <SCORE.SYSTEM.DIHEDRAL>
0

>  <SCORE.SYSTEM.SOLV>
0

>  <SCORE.SYSTEM.norm>
0

>  <SCORE.heavy>
26

>  <SCORE.norm>
-2.4331

>  <RMSD>
0.657

$$$$
1f1t Malachite green aptamer (Xray 2.8A)
 OpenBabel11021811393D
libRbt.so/2013.1/901 2013/11/27
 26 29  0  0  0  0  0  0  0  0999 V2000
  111.2500  -74.6285  -81.8746 C   0  0  0  0  0  0  0  0  0  0  0  0
  111.7636  -75.8996  -82.3636 C   0  0  0  0  0  0  0  0  0  0  0  0
  111.4976  -76.1131  -83.7174 C   0  0  0  0  0  0  0  0  0  0  0  0
  112.0448  -77.4246  -84.1649 O   0  0  0  0  0  0  0  0  0  0  0  0
  111.8064  -77.6065  -85.4050 C   0  0  0  0  0  0  0  0  0  0  0  0
  112.3681  -78.9145  -85.7419 C   0  0  0  0  0  0  0  0  0  0  0  0
  112.1982  -79.2880  -87.1222 C   0  0  0  0  0  0  0  0  0  0  0  0
  111.5541  -78.4511  -88.0668 C   0  0  0  0  0  0  0  0  0  0  0  0
  111.0095  -77.1671  -87.6660 C   0  0  0  0  0  0  0  0  0  0  0  0
  111.1554  -76.7787  -86.2847 C   0  0  0  0  0  0  0  0  0  0  0  0
  110.5472  -75.4371  -85.9496 C   0  0  0  0  0  0  0  0  0  0  0  0
  110.8230  -75.2583  -84.5821 C   0  0  0  0  0  0  0  0  0  0  0  0
  110.3077  -73.9869  -84.0692 C   0  0  0  0  0  0  0  0  0  0  0  0
  110.5690  -73.7417  -82.6858 C   0  0  0  0  0  0  0  0  0  0  0  0
  109.8936  -74.6514  -86.8800 C   0  0  0  0  0  0  0  0  0  0  0  0
  110.2324  -73.3191  -87.2123 C   0  0  0  0  0  0  0  0  0  0  0  0
  109.5950  -72.5174  -88.1610 C   0  0  0  0  0  0  0  0  0  0  0  0
  108.4687  -73.0501  -88.9129 C   0  0  0  0  0  0  0  0  0  0  0  0
  108.1482  -74.3802  -88.5491 C   0  0  0  0  0  0  0  0  0  0  0  0
  108.7558  -75.2179  -87.6037 C   0  0  0  0  0  0  0  0  0  0  0  0
  111.4398  -74.2688  -80.5476 N   0  3  0  0  0  0  0  0  0  0  0  0
  112.1560  -75.1214  -79.6055 C   0  0  0  0  0  0  0  0  0  0  0  0
  110.9712  -73.0223  -79.9028 C   0  0  0  0  0  0  0  0  0  0  0  0
  112.7221  -80.5587  -87.4157 N   0  0  0  0  0  0  0  0  0  0  0  0
  113.3182  -81.6000  -86.5493 C   0  0  0  0  0  0  0  0  0  0  0  0
  112.6823  -81.0056  -88.8529 C   0  0  0  0  0  0  0  0  0  0  0  0
  1  2  1  0  0  0  0
  1 14  1  0  0  0  0
  1 21  2  0  0  0  0
  2  3  2  0  0  0  0
  3  4  1  0  0  0  0
  3 12  1  0  0  0  0
  4  5  1  0  0  0  0
  5  6  1  0  0  0  0
  5 10  2  0  0  0  0
  6  7  2  0  0  0  0
  7  8  1  0  0  0  0
  7 24  1  0  0  0  0
  8  9  2  0  0  0  0
  9 10  1  0  0  0  0
 10 11  1  0  0  0  0
 11 12  2  0  0  0  0
 11 15  1  0  0  0  0
 12 13  1  0  0  0  0
 13 14  2  0  0  0  0
 15 16  2  0  0  0  0
 15 20  1  0  0  0  0
 16 17  1  0  0  0  0
 17 18  2  0  0  0  0
 18 19  1  0  0  0  0
 19 20  2  0  0  0  0
 21 22  1  0  0  0  0
 21 23  1  0  0  0  0
 24 25  1  0  0  0  0
 24 26  1  0  0  0  0
M  CHG  1  21   1
M  END
>  <CHROM.1>
5.04870102,-122.96105615,111.09039454,-76.18415688,-85.32646073,-1.80795823
1.05183829,-2.08562540

>  <Name>
1f1t Malachite green aptamer (Xray 2.8A)

>  <RI>
0

>  <Rbt.Current_Directory>
/home/itssahil/PROJECTS/Mol_Feturizer/New_Systems/rnas/1f1t

>  <Rbt.Executable>
rbdock ($Id: //depot/dev/client3/rdock/2013.1/src/exe/rbdock.cxx#4 $)

>  <Rbt.Library>
libRbt.so (2013.1, Build901 2013/11/27)

>  <Rbt.Parameter_File>
/export/apps/rDock/src/rDock_2013.1_src/data/scripts/dock_solv.prm

>  <Rbt.Receptor>
prm/pocket_docking_2.prm

>  <SCORE>
-63.3011

>  <SCORE.INTER>
-63.3877

>  <SCORE.INTER.CONST>
1

>  <SCORE.INTER.POLAR>
0

>  <SCORE.INTER.ROT>
2

>  <SCORE.INTER.SOLV>
11.1221

>  <SCORE.INTER.VDW>
-50.8992

>  <SCORE.INTER.norm>
-2.43799

>  <SCORE.INTRA>
0.0865785

>  <SCORE.INTRA.DIHEDRAL>
-0.737314

>  <SCORE.INTRA.DIHEDRAL.0>
4.18538

>  <SCORE.INTRA.POLAR>
0

>  <SCORE.INTRA.POLAR.0>
0

>  <SCORE.INTRA.REPUL>
0

>  <SCORE.INTRA.REPUL.0>
0

>  <SCORE.INTRA.SOLV>
0.0139414

>  <SCORE.INTRA.SOLV.lig_0>
-5.16926

>  <SCORE.INTRA.VDW>
0.448265

>  <SCORE.INTRA.VDW.0>
1.11912

>  <SCORE.INTRA.norm>
0.00332994

>  <SCORE.RESTR>
0

>  <SCORE.RESTR.CAVITY>
0

>  <SCORE.RESTR.norm>
0

>  <SCORE.SYSTEM>
0

>  <SCORE.SYSTEM.CONST>
0

>  <SCORE.SYSTEM.DIHEDRAL>
0

>  <SCORE.SYSTEM.SOLV>
0

>  <SCORE.SYSTEM.norm>
0

>  <SCORE.heavy>
26

>  <SCORE.norm>
-2.43466

>  <RMSD>
0.657

$$$$
1f1t Malachite green aptamer (Xray 2.8A)
 OpenBabel11021811393D
libRbt.so/2013.1/901 2013/11/27
 26 29  0  0  0  0  0  0  0  0999 V2000
  111.2407  -74.6165  -81.8467 C   0  0  0  0  0  0  0  0  0  0  0  0
  111.7518  -75.8882  -82.3365 C   0  0  0  0  0  0  0  0  0  0  0  0
  111.4908  -76.0977  -83.6920 C   0  0  0  0  0  0  0  0  0  0  0  0
  112.0353  -77.4100  -84.1402 O   0  0  0  0  0  0  0  0  0  0  0  0
  111.8015  -77.5881  -85.3818 C   0  0  0  0  0  0  0  0  0  0  0  0
  112.3601  -78.8972  -85.7195 C   0  0  0  0  0  0  0  0  0  0  0  0
  112.1947  -79.2669  -87.1013 C   0  0  0  0  0  0  0  0  0  0  0  0
  111.5574  -78.4255  -88.0466 C   0  0  0  0  0  0  0  0  0  0  0  0
  111.0156  -77.1406  -87.6451 C   0  0  0  0  0  0  0  0  0  0  0  0
  111.1571  -76.7559  -86.2622 C   0  0  0  0  0  0  0  0  0  0  0  0
  110.5521  -75.4130  -85.9265 C   0  0  0  0  0  0  0  0  0  0  0  0
  110.8228  -75.2384  -84.5574 C   0  0  0  0  0  0  0  0  0  0  0  0
  110.3098  -73.9665  -84.0437 C   0  0  0  0  0  0  0  0  0  0  0  0
  110.5662  -73.7255  -82.6585 C   0  0  0  0  0  0  0  0  0  0  0  0
  109.9052  -74.6229  -86.8577 C   0  0  0  0  0  0  0  0  0  0  0  0
  110.2578  -73.2953  -87.1945 C   0  0  0  0  0  0  0  0  0  0  0  0
  109.6272  -72.4894  -88.1441 C   0  0  0  0  0  0  0  0  0  0  0  0
  108.4935  -73.0119  -88.8921 C   0  0  0  0  0  0  0  0  0  0  0  0
  108.1592  -74.3373  -88.5239 C   0  0  0  0  0  0  0  0  0  0  0  0
  108.7596  -75.1790  -87.5774 C   0  0  0  0  0  0  0  0  0  0  0  0
  111.4261  -74.2607  -80.5180 N   0  3  0  0  0  0  0  0  0  0  0  0
  112.1354  -75.1179  -79.5749 C   0  0  0  0  0  0  0  0  0  0  0  0
  110.9592  -73.0141  -79.8722 C   0  0  0  0  0  0  0  0  0  0  0  0
  112.7154  -80.5387  -87.3956 N   0  0  0  0  0  0  0  0  0  0  0  0
  113.3263  -81.5743  -86.5327 C   0  0  0  0  0  0  0  0  0  0  0  0
  112.6534  -80.9941  -88.8294 C   0  0  0  0  0  0  0  0  0  0  0  0
  1  2  1  0  0  0  0
  1 14  1  0  0  0  0
  1 21  2  0  0  0  0
  2  3  2  0  0  0  0
  3  4  1  0  0  0  0
  3 12  1  0  0  0  0
  4  5  1  0  0  0  0
  5  6  1  0  0  0  0
  5 10  2  0  0  0  0
  6  7  2  0  0  0  0
  7  8  1  0  0  0  0
  7 24  1  0  0  0  0
  8  9  2  0  0  0  0
  9 10  1  0  0  0  0
 10 11  1  0  0  0  0
 11 12  2  0  0  0  0
 11 15  1  0  0  0  0
 12 13  1  0  0  0  0
 13 14  2  0  0  0  0
 15 16  2  0  0  0  0
 15 20  1  0  0  0  0
 16 17  1  0  0  0  0
 17 18  2  0  0  0  0
 18 19  1  0  0  0  0
 19 20  2  0  0  0  0
 21 22  1  0  0  0  0
 21 23  1  0  0  0  0
 24 25  1  0  0  0  0
 24 26  1  0  0  0  0
M  CHG  1  21   1
M  END
>  <CHROM.1>
3.78380719,-122.32619195,111.08981464,-76.16355319,-85.30270945,-1.81136073
1.05659547,-2.08036384

>  <Name>
1f1t Malachite green aptamer (Xray 2.8A)

>  <RI>
0

>  <Rbt.Current_Directory>
/home/itssahil/PROJECTS/Mol_Feturizer/New_Systems/rnas/1f1t

>  <Rbt.Executable>
rbdock ($Id: //depot/dev/client3/rdock/2013.1/src/exe/rbdock.cxx#4 $)

>  <Rbt.Library>
libRbt.so (2013.1, Build901 2013/11/27)

>  <Rbt.Parameter_File>
/export/apps/rDock/src/rDock_2013.1_src/data/scripts/dock_solv.prm

>  <Rbt.Receptor>
prm/pocket_docking_4.prm

>  <SCORE>
-63.2425

>  <SCORE.INTER>
-63.3087

>  <SCORE.INTER.CONST>
1

>  <SCORE.INTER.POLAR>
0

>  <SCORE.INTER.ROT>
2

>  <SCORE.INTER.SOLV>
11.1409

>  <SCORE.INTER.VDW>
-50.8527

>  <SCORE.INTER.norm>
-2.43495

>  <SCORE.INTRA>
0.0661961

>  <SCORE.INTRA.DIHEDRAL>
-0.730743

>  <SCORE.INTRA.DIHEDRAL.0>
4.18538

>  <SCORE.INTRA.POLAR>
0

>  <SCORE.INTRA.POLAR.0>
0

>  <SCORE.INTRA.REPUL>
0

>  <SCORE.INTRA.REPUL.0>
0

>  <SCORE.INTRA.SOLV>
0.0131977

>  <SCORE.INTRA.SOLV.lig_0>
-5.16926

>  <SCORE.INTRA.VDW>
0.424969

>  <SCORE.INTRA.VDW.0>
1.11912

>  <SCORE.INTRA.norm>
0.002546

>  <SCORE.RESTR>
0

>  <SCORE.RESTR.CAVITY>
0

>  <SCORE.RESTR.norm>
0

>  <SCORE.SYSTEM>
0

>  <SCORE.SYSTEM.CONST>
0

>  <SCORE.SYSTEM.DIHEDRAL>
0

>  <SCORE.SYSTEM.SOLV>
0

>  <SCORE.SYSTEM.norm>
0

>  <SCORE.heavy>
26

>  <SCORE.norm>
-2.4324

>  <RMSD>
0.657

$$$$
1f1t Malachite green aptamer (Xray 2.8A)
 OpenBabel11021811393D
libRbt.so/2013.1/901 2013/11/27
 26 29  0  0  0  0  0  0  0  0999 V2000
  111.2735  -74.6233  -81.8575 C   0  0  0  0  0  0  0  0  0  0  0  0
  111.7818  -75.8948  -82.3508 C   0  0  0  0  0  0  0  0  0  0  0  0
  111.5113  -76.1045  -83.7044 C   0  0  0  0  0  0  0  0  0  0  0  0
  112.0532  -77.4166  -84.1563 O   0  0  0  0  0  0  0  0  0  0  0  0
  111.8108  -77.5950  -85.3962 C   0  0  0  0  0  0  0  0  0  0  0  0
  112.3676  -78.9038  -85.7377 C   0  0  0  0  0  0  0  0  0  0  0  0
  112.1925  -79.2737  -87.1183 C   0  0  0  0  0  0  0  0  0  0  0  0
  111.5482  -78.4327  -88.0591 C   0  0  0  0  0  0  0  0  0  0  0  0
  111.0085  -77.1481  -87.6539 C   0  0  0  0  0  0  0  0  0  0  0  0
  111.1596  -76.7632  -86.2721 C   0  0  0  0  0  0  0  0  0  0  0  0
  110.5564  -75.4206  -85.9322 C   0  0  0  0  0  0  0  0  0  0  0  0
  110.8367  -75.2457  -84.5651 C   0  0  0  0  0  0  0  0  0  0  0  0
  110.3267  -73.9740  -84.0478 C   0  0  0  0  0  0  0  0  0  0  0  0
  110.5927  -73.7327  -82.6646 C   0  0  0  0  0  0  0  0  0  0  0  0
  109.9025  -74.6309  -86.8589 C   0  0  0  0  0  0  0  0  0  0  0  0
  110.2394  -73.2961  -87.1835 C   0  0  0  0  0  0  0  0  0  0  0  0
  109.6016  -72.4903  -88.1284 C   0  0  0  0  0  0  0  0  0  0  0  0
  108.4769  -73.0207  -88.8843 C   0  0  0  0  0  0  0  0  0  0  0  0
  108.1582  -74.3533  -88.5283 C   0  0  0  0  0  0  0  0  0  0  0  0
  108.7662  -75.1952  -87.5869 C   0  0  0  0  0  0  0  0  0  0  0  0
  111.4681  -74.2672  -80.5302 N   0  3  0  0  0  0  0  0  0  0  0  0
  112.1846  -75.1241  -79.5921 C   0  0  0  0  0  0  0  0  0  0  0  0
  111.0051  -73.0208  -79.8812 C   0  0  0  0  0  0  0  0  0  0  0  0
  112.7118  -80.5453  -87.4162 N   0  0  0  0  0  0  0  0  0  0  0  0
  113.3127  -81.5879  -86.5547 C   0  0  0  0  0  0  0  0  0  0  0  0
  112.6601  -80.9917  -88.8532 C   0  0  0  0  0  0  0  0  0  0  0  0
  1  2  1  0  0  0  0
  1 14  1  0  0  0  0
  1 21  2  0  0  0  0
  2  3  2  0  0  0  0
  3  4  1  0  0  0  0
  3 12  1  0  0  0  0
  4  5  1  0  0  0  0
  5  6  1  0  0  0  0
  5 10  2  0  0  0  0
  6  7  2  0  0  0  0
  7  8  1  0  0  0  0
  7 24  1  0  0  0  0
  8  9  2  0  0  0  0
  9 10  1  0  0  0  0
 10 11  1  0  0  0  0
 11 12  2  0  0  0  0
 11 15  1  0  0  0  0
 12 13  1  0  0  0  0
 13 14  2  0  0  0  0
 15 16  2  0  0  0  0
 15 20  1  0  0  0  0
 16 17  1  0  0  0  0
 17 18  2  0  0  0  0
 18 19  1  0  0  0  0
 19 20  2  0  0  0  0
 21 22  1  0  0  0  0
 21 23  1  0  0  0  0
 24 25  1  0  0  0  0
 24 26  1  0  0  0  0
M  CHG  1  21   1
M  END
>  <CHROM.1>
4.74519859,-123.35363478,111.09918483,-76.17069274,-85.31236266,-1.79965871
1.05297617,-2.09060506

>  <Name>
1f1t Malachite green aptamer (Xray 2.8A)

>  <RI>
0

>  <Rbt.Current_Directory>
/home/itssahil/PROJECTS/Mol_Feturizer/New_Systems/rnas/1f1t

>  <Rbt.Executable>
rbdock ($Id: //depot/dev/client3/rdock/2013.1/src/exe/rbdock.cxx#4 $)

>  <Rbt.Library>
libRbt.so (2013.1, Build901 2013/11/27)

>  <Rbt.Parameter_File>
/export/apps/rDock/src/rDock_2013.1_src/data/scripts/dock_solv.prm

>  <Rbt.Receptor>
prm/pocket_docking_5.prm

>  <SCORE>
-63.3142

>  <SCORE.INTER>
-63.4074

>  <SCORE.INTER.CONST>
1

>  <SCORE.INTER.POLAR>
0

>  <SCORE.INTER.ROT>
2

>  <SCORE.INTER.SOLV>
11.1282

>  <SCORE.INTER.VDW>
-50.9143

>  <SCORE.INTER.norm>
-2.43875

>  <SCORE.INTRA>
0.0931782

>  <SCORE.INTRA.DIHEDRAL>
-0.778786

>  <SCORE.INTRA.DIHEDRAL.0>
4.18538

>  <SCORE.INTRA.POLAR>
0

>  <SCORE.INTRA.POLAR.0>
0

>  <SCORE.INTRA.REPUL>
0

>  <SCORE.INTRA.REPUL.0>
0

>  <SCORE.INTRA.SOLV>
0.0143991

>  <SCORE.INTRA.SOLV.lig_0>
-5.16926

>  <SCORE.INTRA.VDW>
0.475372

>  <SCORE.INTRA.VDW.0>
1.11912

>  <SCORE.INTRA.norm>
0.00358378

>  <SCORE.RESTR>
0

>  <SCORE.RESTR.CAVITY>
0

>  <SCORE.RESTR.norm>
0

>  <SCORE.SYSTEM>
0

>  <SCORE.SYSTEM.CONST>
0

>  <SCORE.SYSTEM.DIHEDRAL>
0

>  <SCORE.SYSTEM.SOLV>
0

>  <SCORE.SYSTEM.norm>
0

>  <SCORE.heavy>
26

>  <SCORE.norm>
-2.43516

>  <RMSD>
0.657

$$$$
1f1t Malachite green aptamer (Xray 2.8A)
 OpenBabel11021811393D
libRbt.so/2013.1/901 2013/11/27
 26 29  0  0  0  0  0  0  0  0999 V2000
  111.2489  -74.6280  -81.8553 C   0  0  0  0  0  0  0  0  0  0  0  0
  111.7571  -75.9004  -82.3461 C   0  0  0  0  0  0  0  0  0  0  0  0
  111.4940  -76.1090  -83.7014 C   0  0  0  0  0  0  0  0  0  0  0  0
  112.0354  -77.4222  -84.1507 O   0  0  0  0  0  0  0  0  0  0  0  0
  111.7998  -77.5995  -85.3921 C   0  0  0  0  0  0  0  0  0  0  0  0
  112.3555  -78.9095  -85.7308 C   0  0  0  0  0  0  0  0  0  0  0  0
  112.1876  -79.2784  -87.1126 C   0  0  0  0  0  0  0  0  0  0  0  0
  111.5508  -78.4355  -88.0568 C   0  0  0  0  0  0  0  0  0  0  0  0
  111.0118  -77.1497  -87.6542 C   0  0  0  0  0  0  0  0  0  0  0  0
  111.1557  -76.7658  -86.2714 C   0  0  0  0  0  0  0  0  0  0  0  0
  110.5537  -75.4219  -85.9345 C   0  0  0  0  0  0  0  0  0  0  0  0
  110.8265  -75.2482  -84.5657 C   0  0  0  0  0  0  0  0  0  0  0  0
  110.3164  -73.9755  -84.0509 C   0  0  0  0  0  0  0  0  0  0  0  0
  110.5750  -73.7354  -82.6660 C   0  0  0  0  0  0  0  0  0  0  0  0
  109.9070  -74.6303  -86.8647 C   0  0  0  0  0  0  0  0  0  0  0  0
  110.2635  -73.3042  -87.2036 C   0  0  0  0  0  0  0  0  0  0  0  0
  109.6331  -72.4969  -88.1522 C   0  0  0  0  0  0  0  0  0  0  0  0
  108.4955  -73.0160  -88.8966 C   0  0  0  0  0  0  0  0  0  0  0  0
  108.1575  -74.3399  -88.5262 C   0  0  0  0  0  0  0  0  0  0  0  0
  108.7575  -75.1828  -87.5806 C   0  0  0  0  0  0  0  0  0  0  0  0
  111.4366  -74.2728  -80.5267 N   0  3  0  0  0  0  0  0  0  0  0  0
  112.1456  -75.1317  -79.5849 C   0  0  0  0  0  0  0  0  0  0  0  0
  110.9728  -73.0256  -79.8800 C   0  0  0  0  0  0  0  0  0  0  0  0
  112.7056  -80.5511  -87.4080 N   0  0  0  0  0  0  0  0  0  0  0  0
  113.3142  -81.5887  -86.5459 C   0  0  0  0  0  0  0  0  0  0  0  0
  112.6429  -81.0050  -88.8422 C   0  0  0  0  0  0  0  0  0  0  0  0
  1  2  1  0  0  0  0
  1 14  1  0  0  0  0
  1 21  2  0  0  0  0
  2  3  2  0  0  0  0
  3  4  1  0  0  0  0
  3 12  1  0  0  0  0
  4  5  1  0  0  0  0
  5  6  1  0  0  0  0
  5 10  2  0  0  0  0
  6  7  2  0  0  0  0
  7  8  1  0  0  0  0
  7 24  1  0  0  0  0
  8  9  2  0  0  0  0
  9 10  1  0  0  0  0
 10 11  1  0  0  0  0
 11 12  2  0  0  0  0
 11 15  1  0  0  0  0
 12 13  1  0  0  0  0
 13 14  2  0  0  0  0
 15 16  2  0  0  0  0
 15 20  1  0  0  0  0
 16 17  1  0  0  0  0
 17 18  2  0  0  0  0
 18 19  1  0  0  0  0
 19 20  2  0  0  0  0
 21 22  1  0  0  0  0
 21 23  1  0  0  0  0
 24 25  1  0  0  0  0
 24 26  1  0  0  0  0
M  CHG  1  21   1
M  END
>  <CHROM.1>
3.87298824,-122.17493900,111.09077597,-76.17357734,-85.31160037,-1.80735581
1.05757657,-2.08351784

>  <Name>
1f1t Malachite green aptamer (Xray 2.8A)

>  <RI>
0

>  <Rbt.Current_Directory>
/home/itssahil/PROJECTS/Mol_Feturizer/New_Systems/rnas/1f1t

>  <Rbt.Executable>
rbdock ($Id: //depot/dev/client3/rdock/2013.1/src/exe/rbdock.cxx#4 $)

>  <Rbt.Library>
libRbt.so (2013.1, Build901 2013/11/27)

>  <Rbt.Parameter_File>
/export/apps/rDock/src/rDock_2013.1_src/data/scripts/dock_solv.prm

>  <Rbt.Receptor>
prm/pocket_docking_8.prm

>  <SCORE>
-63.2958

>  <SCORE.INTER>
-63.3596

>  <SCORE.INTER.CONST>
1

>  <SCORE.INTER.POLAR>
0

>  <SCORE.INTER.ROT>
2

>  <SCORE.INTER.SOLV>
11.1354

>  <SCORE.INTER.VDW>
-50.8849

>  <SCORE.INTER.norm>
-2.43691

>  <SCORE.INTRA>
0.0638201

>  <SCORE.INTRA.DIHEDRAL>
-0.716686

>  <SCORE.INTRA.DIHEDRAL.0>
4.18538

>  <SCORE.INTRA.POLAR>
0

>  <SCORE.INTRA.POLAR.0>
0

>  <SCORE.INTRA.REPUL>
0

>  <SCORE.INTRA.REPUL.0>
0

>  <SCORE.INTRA.SOLV>
0.0130203

>  <SCORE.INTRA.SOLV.lig_0>
-5.16926

>  <SCORE.INTRA.VDW>
0.415653

>  <SCORE.INTRA.VDW.0>
1.11912

>  <SCORE.INTRA.norm>
0.00245462

>  <SCORE.RESTR>
0

>  <SCORE.RESTR.CAVITY>
0

>  <SCORE.RESTR.norm>
0

>  <SCORE.SYSTEM>
0

>  <SCORE.SYSTEM.CONST>
0

>  <SCORE.SYSTEM.DIHEDRAL>
0

>  <SCORE.SYSTEM.SOLV>
0

>  <SCORE.SYSTEM.norm>
0

>  <SCORE.heavy>
26

>  <SCORE.norm>
-2.43445

>  <RMSD>
0.657

$$$$
1f1t Malachite green aptamer (Xray 2.8A)
 OpenBabel11021811393D
libRbt.so/2013.1/901 2013/11/27
 26 29  0  0  0  0  0  0  0  0999 V2000
  111.2317  -74.6276  -81.8629 C   0  0  0  0  0  0  0  0  0  0  0  0
  111.7452  -75.8988  -82.3517 C   0  0  0  0  0  0  0  0  0  0  0  0
  111.4836  -76.1102  -83.7068 C   0  0  0  0  0  0  0  0  0  0  0  0
  112.0304  -77.4219  -84.1541 O   0  0  0  0  0  0  0  0  0  0  0  0
  111.7961  -77.6019  -85.3953 C   0  0  0  0  0  0  0  0  0  0  0  0
  112.3571  -78.9102  -85.7319 C   0  0  0  0  0  0  0  0  0  0  0  0
  112.1914  -79.2817  -87.1133 C   0  0  0  0  0  0  0  0  0  0  0  0
  111.5518  -78.4426  -88.0590 C   0  0  0  0  0  0  0  0  0  0  0  0
  111.0076  -77.1584  -87.6584 C   0  0  0  0  0  0  0  0  0  0  0  0
  111.1493  -76.7719  -86.2761 C   0  0  0  0  0  0  0  0  0  0  0  0
  110.5418  -75.4299  -85.9414 C   0  0  0  0  0  0  0  0  0  0  0  0
  110.8132  -75.2533  -84.5727 C   0  0  0  0  0  0  0  0  0  0  0  0
  110.2979  -73.9819  -84.0599 C   0  0  0  0  0  0  0  0  0  0  0  0
  110.5548  -73.7389  -82.6752 C   0  0  0  0  0  0  0  0  0  0  0  0
  109.8926  -74.6422  -86.8730 C   0  0  0  0  0  0  0  0  0  0  0  0
  110.2271  -73.3059  -87.1939 C   0  0  0  0  0  0  0  0  0  0  0  0
  109.5941  -72.5019  -88.1435 C   0  0  0  0  0  0  0  0  0  0  0  0
  108.4778  -73.0362  -88.9092 C   0  0  0  0  0  0  0  0  0  0  0  0
  108.1614  -74.3702  -88.5567 C   0  0  0  0  0  0  0  0  0  0  0  0
  108.7648  -75.2104  -87.6108 C   0  0  0  0  0  0  0  0  0  0  0  0
  111.4174  -74.2700  -80.5348 N   0  3  0  0  0  0  0  0  0  0  0  0
  112.1292  -75.1248  -79.5913 C   0  0  0  0  0  0  0  0  0  0  0  0
  110.9484  -73.0236  -79.8900 C   0  0  0  0  0  0  0  0  0  0  0  0
  112.7146  -80.5527  -87.4066 N   0  0  0  0  0  0  0  0  0  0  0  0
  113.3150  -81.5921  -86.5408 C   0  0  0  0  0  0  0  0  0  0  0  0
  112.6685  -81.0025  -88.8428 C   0  0  0  0  0  0  0  0  0  0  0  0
  1  2  1  0  0  0  0
  1 14  1  0  0  0  0
  1 21  2  0  0  0  0
  2  3  2  0  0  0  0
  3  4  1  0  0  0  0
  3 12  1  0  0  0  0
  4  5  1  0  0  0  0
  5  6  1  0  0  0  0
  5 10  2  0  0  0  0
  6  7  2  0  0  0  0
  7  8  1  0  0  0  0
  7 24  1  0  0  0  0
  8  9  2  0  0  0  0
  9 10  1  0  0  0  0
 10 11  1  0  0  0  0
 11 12  2  0  0  0  0
 11 15  1  0  0  0  0
 12 13  1  0  0  0  0
 13 14  2  0  0  0  0
 15 16  2  0  0  0  0
 15 20  1  0  0  0  0
 16 17  1  0  0  0  0
 17 18  2  0  0  0  0
 18 19  1  0  0  0  0
 19 20  2  0  0  0  0
 21 22  1  0  0  0  0
 21 23  1  0  0  0  0
 24 25  1  0  0  0  0
 24 26  1  0  0  0  0
M  CHG  1  21   1
M  END
>  <CHROM.1>
4.54467130,-123.55573770,111.08184509,-76.17863989,-85.31736359,-1.81226188
1.05476092,-2.08064942

>  <Name>
1f1t Malachite green aptamer (Xray 2.8A)

>  <RI>
0

>  <Rbt.Current_Directory>
/home/itssahil/PROJECTS/Mol_Feturizer/New_Systems/rnas/1f1t

>  <Rbt.Executable>
rbdock ($Id: //depot/dev/client3/rdock/2013.1/src/exe/rbdock.cxx#4 $)

>  <Rbt.Library>
libRbt.so (2013.1, Build901 2013/11/27)

>  <Rbt.Parameter_File>
/export/apps/rDock/src/rDock_2013.1_src/data/scripts/dock_solv.prm

>  <Rbt.Receptor>
prm/pocket_docking_8.prm

>  <SCORE>
-63.3102

>  <SCORE.INTER>
-63.4068

>  <SCORE.INTER.CONST>
1

>  <SCORE.INTER.POLAR>
0

>  <SCORE.INTER.ROT>
2

>  <SCORE.INTER.SOLV>
11.1226

>  <SCORE.INTER.VDW>
-50.9121

>  <SCORE.INTER.norm>
-2.43872

>  <SCORE.INTRA>
0.0965736

>  <SCORE.INTRA.DIHEDRAL>
-0.801449

>  <SCORE.INTRA.DIHEDRAL.0>
4.18538

>  <SCORE.INTRA.POLAR>
0

>  <SCORE.INTRA.POLAR.0>
0

>  <SCORE.INTRA.REPUL>
0

>  <SCORE.INTRA.REPUL.0>
0

>  <SCORE.INTRA.SOLV>
0.0146344

>  <SCORE.INTRA.SOLV.lig_0>
-5.16926

>  <SCORE.INTRA.VDW>
0.489981

>  <SCORE.INTRA.VDW.0>
1.11912

>  <SCORE.INTRA.norm>
0.00371437

>  <SCORE.RESTR>
0

>  <SCORE.RESTR.CAVITY>
0

>  <SCORE.RESTR.norm>
0

>  <SCORE.SYSTEM>
0

>  <SCORE.SYSTEM.CONST>
0

>  <SCORE.SYSTEM.DIHEDRAL>
0

>  <SCORE.SYSTEM.SOLV>
0

>  <SCORE.SYSTEM.norm>
0

>  <SCORE.heavy>
26

>  <SCORE.norm>
-2.43501

>  <RMSD>
0.657

$$$$
1f1t Malachite green aptamer (Xray 2.8A)
 OpenBabel11021811393D
libRbt.so/2013.1/901 2013/11/27
 26 29  0  0  0  0  0  0  0  0999 V2000
  111.2451  -74.6288  -81.8781 C   0  0  0  0  0  0  0  0  0  0  0  0
  111.7601  -75.8997  -82.3661 C   0  0  0  0  0  0  0  0  0  0  0  0
  111.4952  -76.1141  -83.7201 C   0  0  0  0  0  0  0  0  0  0  0  0
  112.0438  -77.4254  -84.1665 O   0  0  0  0  0  0  0  0  0  0  0  0
  111.8064  -77.6081  -85.4067 C   0  0  0  0  0  0  0  0  0  0  0  0
  112.3695  -78.9157  -85.7426 C   0  0  0  0  0  0  0  0  0  0  0  0
  112.2007  -79.2901  -87.1229 C   0  0  0  0  0  0  0  0  0  0  0  0
  111.5564  -78.4541  -88.0682 C   0  0  0  0  0  0  0  0  0  0  0  0
  111.0104  -77.1705  -87.6684 C   0  0  0  0  0  0  0  0  0  0  0  0
  111.1551  -76.7812  -86.2872 C   0  0  0  0  0  0  0  0  0  0  0  0
  110.5455  -75.4400  -85.9532 C   0  0  0  0  0  0  0  0  0  0  0  0
  110.8204  -75.2603  -84.5855 C   0  0  0  0  0  0  0  0  0  0  0  0
  110.3036  -73.9892  -84.0736 C   0  0  0  0  0  0  0  0  0  0  0  0
  110.5638  -73.7430  -82.6901 C   0  0  0  0  0  0  0  0  0  0  0  0
  109.8918  -74.6554  -86.8843 C   0  0  0  0  0  0  0  0  0  0  0  0
  110.2218  -73.3188  -87.2081 C   0  0  0  0  0  0  0  0  0  0  0  0
  109.5843  -72.5179  -88.1573 C   0  0  0  0  0  0  0  0  0  0  0  0
  108.4675  -73.0564  -88.9194 C   0  0  0  0  0  0  0  0  0  0  0  0
  108.1555  -74.3907  -88.5640 C   0  0  0  0  0  0  0  0  0  0  0  0
  108.7636  -75.2278  -87.6184 C   0  0  0  0  0  0  0  0  0  0  0  0
  111.4338  -74.2683  -80.5511 N   0  3  0  0  0  0  0  0  0  0  0  0
  112.1502  -75.1198  -79.6082 C   0  0  0  0  0  0  0  0  0  0  0  0
  110.9637  -73.0219  -79.9073 C   0  0  0  0  0  0  0  0  0  0  0  0
  112.7260  -80.5604  -87.4154 N   0  0  0  0  0  0  0  0  0  0  0  0
  113.3323  -81.5963  -86.5496 C   0  0  0  0  0  0  0  0  0  0  0  0
  112.6756  -81.0134  -88.8504 C   0  0  0  0  0  0  0  0  0  0  0  0
  1  2  1  0  0  0  0
  1 14  1  0  0  0  0
  1 21  2  0  0  0  0
  2  3  2  0  0  0  0
  3  4  1  0  0  0  0
  3 12  1  0  0  0  0
  4  5  1  0  0  0  0
  5  6  1  0  0  0  0
  5 10  2  0  0  0  0
  6  7  2  0  0  0  0
  7  8  1  0  0  0  0
  7 24  1  0  0  0  0
  8  9  2  0  0  0  0
  9 10  1  0  0  0  0
 10 11  1  0  0  0  0
 11 12  2  0  0  0  0
 11 15  1  0  0  0  0
 12 13  1  0  0  0  0
 13 14  2  0  0  0  0
 15 16  2  0  0  0  0
 15 20  1  0  0  0  0
 16 17  1  0  0  0  0
 17 18  2  0  0  0  0
 18 19  1  0  0  0  0
 19 20  2  0  0  0  0
 21 22  1  0  0  0  0
 21 23  1  0  0  0  0
 24 25  1  0  0  0  0
 24 26  1  0  0  0  0
M  CHG  1  21   1
M  END
>  <CHROM.1>
4.48744189,-123.58568127,111.08901578,-76.18635828,-85.32932865,-1.80950782
1.05133529,-2.08484359

>  <Name>
1f1t Malachite green aptamer (Xray 2.8A)

>  <RI>
0

>  <Rbt.Current_Directory>
/home/itssahil/PROJECTS/Mol_Feturizer/New_Systems/rnas/1f1t

>  <Rbt.Executable>
rbdock ($Id: //depot/dev/client3/rdock/2013.1/src/exe/rbdock.cxx#4 $)

>  <Rbt.Library>
libRbt.so (2013.1, Build901 2013/11/27)

>  <Rbt.Parameter_File>
/export/apps/rDock/src/rDock_2013.1_src/data/scripts/dock_solv.prm

>  <Rbt.Receptor>
prm/pocket_docking_7.prm

>  <SCORE>
-63.286

>  <SCORE.INTER>
-63.3829

>  <SCORE.INTER.CONST>
1

>  <SCORE.INTER.POLAR>
0

>  <SCORE.INTER.ROT>
2

>  <SCORE.INTER.SOLV>
11.1297

>  <SCORE.INTER.VDW>
-50.8985

>  <SCORE.INTER.norm>
-2.4378

>  <SCORE.INTRA>
0.0969259

>  <SCORE.INTRA.DIHEDRAL>
-0.805716

>  <SCORE.INTRA.DIHEDRAL.0>
4.18538

>  <SCORE.INTRA.POLAR>
0

>  <SCORE.INTRA.POLAR.0>
0

>  <SCORE.INTRA.REPUL>
0

>  <SCORE.INTRA.REPUL.0>
0

>  <SCORE.INTRA.SOLV>
0.0146692

>  <SCORE.INTRA.SOLV.lig_0>
-5.16926

>  <SCORE.INTRA.VDW>
0.49245

>  <SCORE.INTRA.VDW.0>
1.11912

>  <SCORE.INTRA.norm>
0.00372792

>  <SCORE.RESTR>
0

>  <SCORE.RESTR.CAVITY>
0

>  <SCORE.RESTR.norm>
0

>  <SCORE.SYSTEM>
0

>  <SCORE.SYSTEM.CONST>
0

>  <SCORE.SYSTEM.DIHEDRAL>
0

>  <SCORE.SYSTEM.SOLV>
0

>  <SCORE.SYSTEM.norm>
0

>  <SCORE.heavy>
26

>  <SCORE.norm>
-2.43408

>  <RMSD>
0.658

$$$$
1f1t Malachite green aptamer (Xray 2.8A)
 OpenBabel11021811393D
libRbt.so/2013.1/901 2013/11/27
 26 29  0  0  0  0  0  0  0  0999 V2000
  111.2283  -74.6244  -81.8709 C   0  0  0  0  0  0  0  0  0  0  0  0
  111.7447  -75.8949  -82.3584 C   0  0  0  0  0  0  0  0  0  0  0  0
  111.4848  -76.1078  -83.7136 C   0  0  0  0  0  0  0  0  0  0  0  0
  112.0347  -77.4187  -84.1594 O   0  0  0  0  0  0  0  0  0  0  0  0
  111.8019  -77.6000  -85.4007 C   0  0  0  0  0  0  0  0  0  0  0  0
  112.3658  -78.9074  -85.7360 C   0  0  0  0  0  0  0  0  0  0  0  0
  112.2021  -79.2802  -87.1172 C   0  0  0  0  0  0  0  0  0  0  0  0
  111.5616  -78.4431  -88.0640 C   0  0  0  0  0  0  0  0  0  0  0  0
  111.0144  -77.1597  -87.6649 C   0  0  0  0  0  0  0  0  0  0  0  0
  111.1541  -76.7720  -86.2827 C   0  0  0  0  0  0  0  0  0  0  0  0
  110.5436  -75.4310  -85.9495 C   0  0  0  0  0  0  0  0  0  0  0  0
  110.8135  -75.2528  -84.5806 C   0  0  0  0  0  0  0  0  0  0  0  0
  110.2951  -73.9821  -84.0692 C   0  0  0  0  0  0  0  0  0  0  0  0
  110.5503  -73.7376  -82.6845 C   0  0  0  0  0  0  0  0  0  0  0  0
  109.8937  -74.6452  -86.8822 C   0  0  0  0  0  0  0  0  0  0  0  0
  110.2327  -73.3122  -87.2118 C   0  0  0  0  0  0  0  0  0  0  0  0
  109.5989  -72.5103  -88.1627 C   0  0  0  0  0  0  0  0  0  0  0  0
  108.4767  -73.0435  -88.9203 C   0  0  0  0  0  0  0  0  0  0  0  0
  108.1558  -74.3742  -88.5592 C   0  0  0  0  0  0  0  0  0  0  0  0
  108.7597  -75.2121  -87.6117 C   0  0  0  0  0  0  0  0  0  0  0  0
  111.4121  -74.2654  -80.5429 N   0  3  0  0  0  0  0  0  0  0  0  0
  112.1247  -75.1181  -79.5982 C   0  0  0  0  0  0  0  0  0  0  0  0
  110.9399  -73.0196  -79.8994 C   0  0  0  0  0  0  0  0  0  0  0  0
  112.7281  -80.5504  -87.4091 N   0  0  0  0  0  0  0  0  0  0  0  0
  113.3302  -81.5877  -86.5422 C   0  0  0  0  0  0  0  0  0  0  0  0
  112.6837  -81.0015  -88.8449 C   0  0  0  0  0  0  0  0  0  0  0  0
  1  2  1  0  0  0  0
  1 14  1  0  0  0  0
  1 21  2  0  0  0  0
  2  3  2  0  0  0  0
  3  4  1  0  0  0  0
  3 12  1  0  0  0  0
  4  5  1  0  0  0  0
  5  6  1  0  0  0  0
  5 10  2  0  0  0  0
  6  7  2  0  0  0  0
  7  8  1  0  0  0  0
  7 24  1  0  0  0  0
  8  9  2  0  0  0  0
  9 10  1  0  0  0  0
 10 11  1  0  0  0  0
 11 12  2  0  0  0  0
 11 15  1  0  0  0  0
 12 13  1  0  0  0  0
 13 14  2  0  0  0  0
 15 16  2  0  0  0  0
 15 20  1  0  0  0  0
 16 17  1  0  0  0  0
 17 18  2  0  0  0  0
 18 19  1  0  0  0  0
 19 20  2  0  0  0  0
 21 22  1  0  0  0  0
 21 23  1  0  0  0  0
 24 25  1  0  0  0  0
 24 26  1  0  0  0  0
M  CHG  1  21   1
M  END
>  <CHROM.1>
4.52324867,-122.99317110,111.08452849,-76.17815015,-85.32436660,-1.81592654
1.05334139,-2.07814082

>  <Name>
1f1t Malachite green aptamer (Xray 2.8A)

>  <RI>
0

>  <Rbt.Current_Directory>
/home/itssahil/PROJECTS/Mol_Feturizer/New_Systems/rnas/1f1t

>  <Rbt.Executable>
rbdock ($Id: //depot/dev/client3/rdock/2013.1/src/exe/rbdock.cxx#4 $)

>  <Rbt.Library>
libRbt.so (2013.1, Build901 2013/11/27)

>  <Rbt.Parameter_File>
/export/apps/rDock/src/rDock_2013.1_src/data/scripts/dock_solv.prm

>  <Rbt.Receptor>
prm/pocket_docking_4.prm

>  <SCORE>
-63.3

>  <SCORE.INTER>
-63.3838

>  <SCORE.INTER.CONST>
1

>  <SCORE.INTER.POLAR>
0

>  <SCORE.INTER.ROT>
2

>  <SCORE.INTER.SOLV>
11.1378

>  <SCORE.INTER.VDW>
-50.9018

>  <SCORE.INTER.norm>
-2.43784

>  <SCORE.INTRA>
0.0838333

>  <SCORE.INTRA.DIHEDRAL>
-0.758728

>  <SCORE.INTRA.DIHEDRAL.0>
4.18538

>  <SCORE.INTRA.POLAR>
0

>  <SCORE.INTRA.POLAR.0>
0

>  <SCORE.INTRA.REPUL>
0

>  <SCORE.INTRA.REPUL.0>
0

>  <SCORE.INTRA.SOLV>
0.0139784

>  <SCORE.INTRA.SOLV.lig_0>
-5.16926

>  <SCORE.INTRA.VDW>
0.456208

>  <SCORE.INTRA.VDW.0>
1.11912

>  <SCORE.INTRA.norm>
0.00322436

>  <SCORE.RESTR>
0

>  <SCORE.RESTR.CAVITY>
0

>  <SCORE.RESTR.norm>
0

>  <SCORE.SYSTEM>
0

>  <SCORE.SYSTEM.CONST>
0

>  <SCORE.SYSTEM.DIHEDRAL>
0

>  <SCORE.SYSTEM.SOLV>
0

>  <SCORE.SYSTEM.norm>
0

>  <SCORE.heavy>
26

>  <SCORE.norm>
-2.43462

>  <RMSD>
0.660

$$$$
1f1t Malachite green aptamer (Xray 2.8A)
 OpenBabel11021811393D
libRbt.so/2013.1/901 2013/11/27
 26 29  0  0  0  0  0  0  0  0999 V2000
  111.2382  -74.6286  -81.8546 C   0  0  0  0  0  0  0  0  0  0  0  0
  111.7496  -75.8998  -82.3454 C   0  0  0  0  0  0  0  0  0  0  0  0
  111.4895  -76.1079  -83.7012 C   0  0  0  0  0  0  0  0  0  0  0  0
  112.0342  -77.4198  -84.1504 O   0  0  0  0  0  0  0  0  0  0  0  0
  111.8012  -77.5967  -85.3924 C   0  0  0  0  0  0  0  0  0  0  0  0
  112.3599  -78.9055  -85.7309 C   0  0  0  0  0  0  0  0  0  0  0  0
  112.1954  -79.2738  -87.1133 C   0  0  0  0  0  0  0  0  0  0  0  0
  111.5588  -78.4314  -88.0581 C   0  0  0  0  0  0  0  0  0  0  0  0
  111.0168  -77.1469  -87.6557 C   0  0  0  0  0  0  0  0  0  0  0  0
  111.1574  -76.7636  -86.2723 C   0  0  0  0  0  0  0  0  0  0  0  0
  110.5523  -75.4210  -85.9357 C   0  0  0  0  0  0  0  0  0  0  0  0
  110.8221  -75.2478  -84.5663 C   0  0  0  0  0  0  0  0  0  0  0  0
  110.3088  -73.9763  -84.0516 C   0  0  0  0  0  0  0  0  0  0  0  0
  110.5643  -73.7367  -82.6661 C   0  0  0  0  0  0  0  0  0  0  0  0
  109.9060  -74.6299  -86.8666 C   0  0  0  0  0  0  0  0  0  0  0  0
  110.2438  -73.2938  -87.1844 C   0  0  0  0  0  0  0  0  0  0  0  0
  109.6138  -72.4865  -88.1332 C   0  0  0  0  0  0  0  0  0  0  0  0
  108.4974  -73.0168  -88.9014 C   0  0  0  0  0  0  0  0  0  0  0  0
  108.1775  -74.3508  -88.5520 C   0  0  0  0  0  0  0  0  0  0  0  0
  108.7778  -75.1942  -87.6070 C   0  0  0  0  0  0  0  0  0  0  0  0
  111.4228  -74.2740  -80.5255 N   0  3  0  0  0  0  0  0  0  0  0  0
  112.1315  -75.1323  -79.5828 C   0  0  0  0  0  0  0  0  0  0  0  0
  110.9555  -73.0280  -79.8788 C   0  0  0  0  0  0  0  0  0  0  0  0
  112.7163  -80.5453  -87.4085 N   0  0  0  0  0  0  0  0  0  0  0  0
  113.3066  -81.5907  -86.5430 C   0  0  0  0  0  0  0  0  0  0  0  0
  112.6793  -80.9884  -88.8470 C   0  0  0  0  0  0  0  0  0  0  0  0
  1  2  1  0  0  0  0
  1 14  1  0  0  0  0
  1 21  2  0  0  0  0
  2  3  2  0  0  0  0
  3  4  1  0  0  0  0
  3 12  1  0  0  0  0
  4  5  1  0  0  0  0
  5  6  1  0  0  0  0
  5 10  2  0  0  0  0
  6  7  2  0  0  0  0
  7  8  1  0  0  0  0
  7 24  1  0  0  0  0
  8  9  2  0  0  0  0
  9 10  1  0  0  0  0
 10 11  1  0  0  0  0
 11 12  2  0  0  0  0
 11 15  1  0  0  0  0
 12 13  1  0  0  0  0
 13 14  2  0  0  0  0
 15 16  2  0  0  0  0
 15 20  1  0  0  0  0
 16 17  1  0  0  0  0
 17 18  2  0  0  0  0
 18 19  1  0  0  0  0
 19 20  2  0  0  0  0
 21 22  1  0  0  0  0
 21 23  1  0  0  0  0
 24 25  1  0  0  0  0
 24 26  1  0  0  0  0
M  CHG  1  21   1
M  END
>  <CHROM.1>
4.93045321,-123.54444418,111.08989934,-76.17209542,-85.31249653,-1.81284107
1.05734227,-2.07805162

>  <Name>
1f1t Malachite green aptamer (Xray 2.8A)

>  <RI>
0

>  <Rbt.Current_Directory>
/home/itssahil/PROJECTS/Mol_Feturizer/New_Systems/rnas/1f1t

>  <Rbt.Executable>
rbdock ($Id: //depot/dev/client3/rdock/2013.1/src/exe/rbdock.cxx#4 $)

>  <Rbt.Library>
libRbt.so (2013.1, Build901 2013/11/27)

>  <Rbt.Parameter_File>
/export/apps/rDock/src/rDock_2013.1_src/data/scripts/dock_solv.prm

>  <Rbt.Receptor>
prm/pocket_docking_5.prm

>  <SCORE>
-63.2798

>  <SCORE.INTER>
-63.3786

>  <SCORE.INTER.CONST>
1

>  <SCORE.INTER.POLAR>
0

>  <SCORE.INTER.ROT>
2

>  <SCORE.INTER.SOLV>
11.1278

>  <SCORE.INTER.VDW>
-50.895

>  <SCORE.INTER.norm>
-2.43764

>  <SCORE.INTRA>
0.0988008

>  <SCORE.INTRA.DIHEDRAL>
-0.786808

>  <SCORE.INTRA.DIHEDRAL.0>
4.18538

>  <SCORE.INTRA.POLAR>
0

>  <SCORE.INTRA.POLAR.0>
0

>  <SCORE.INTRA.REPUL>
0

>  <SCORE.INTRA.REPUL.0>
0

>  <SCORE.INTRA.SOLV>
0.0146216

>  <SCORE.INTRA.SOLV.lig_0>
-5.16926

>  <SCORE.INTRA.VDW>
0.484894

>  <SCORE.INTRA.VDW.0>
1.11912

>  <SCORE.INTRA.norm>
0.00380003

>  <SCORE.RESTR>
0

>  <SCORE.RESTR.CAVITY>
0

>  <SCORE.RESTR.norm>
0

>  <SCORE.SYSTEM>
0

>  <SCORE.SYSTEM.CONST>
0

>  <SCORE.SYSTEM.DIHEDRAL>
0

>  <SCORE.SYSTEM.SOLV>
0

>  <SCORE.SYSTEM.norm>
0

>  <SCORE.heavy>
26

>  <SCORE.norm>
-2.43384

>  <RMSD>
0.660

$$$$
1f1t Malachite green aptamer (Xray 2.8A)
 OpenBabel11021811393D
libRbt.so/2013.1/901 2013/11/27
 26 29  0  0  0  0  0  0  0  0999 V2000
  111.2279  -74.6283  -81.8629 C   0  0  0  0  0  0  0  0  0  0  0  0
  111.7415  -75.8993  -82.3518 C   0  0  0  0  0  0  0  0  0  0  0  0
  111.4820  -76.1097  -83.7074 C   0  0  0  0  0  0  0  0  0  0  0  0
  112.0290  -77.4213  -84.1547 O   0  0  0  0  0  0  0  0  0  0  0  0
  111.7966  -77.6003  -85.3964 C   0  0  0  0  0  0  0  0  0  0  0  0
  112.3576  -78.9086  -85.7331 C   0  0  0  0  0  0  0  0  0  0  0  0
  112.1939  -79.2790  -87.1150 C   0  0  0  0  0  0  0  0  0  0  0  0
  111.5562  -78.4390  -88.0611 C   0  0  0  0  0  0  0  0  0  0  0  0
  111.0119  -77.1548  -87.6605 C   0  0  0  0  0  0  0  0  0  0  0  0
  111.1516  -76.7694  -86.2777 C   0  0  0  0  0  0  0  0  0  0  0  0
  110.5442  -75.4274  -85.9430 C   0  0  0  0  0  0  0  0  0  0  0  0
  110.8134  -75.2518  -84.5737 C   0  0  0  0  0  0  0  0  0  0  0  0
  110.2979  -73.9805  -84.0609 C   0  0  0  0  0  0  0  0  0  0  0  0
  110.5527  -73.7386  -82.6756 C   0  0  0  0  0  0  0  0  0  0  0  0
  109.8968  -74.6386  -86.8751 C   0  0  0  0  0  0  0  0  0  0  0  0
  110.2333  -73.3028  -87.1956 C   0  0  0  0  0  0  0  0  0  0  0  0
  109.6022  -72.4979  -88.1457 C   0  0  0  0  0  0  0  0  0  0  0  0
  108.4859  -73.0305  -88.9123 C   0  0  0  0  0  0  0  0  0  0  0  0
  108.1673  -74.3642  -88.5602 C   0  0  0  0  0  0  0  0  0  0  0  0
  108.7687  -75.2053  -87.6139 C   0  0  0  0  0  0  0  0  0  0  0  0
  111.4116  -74.2716  -80.5342 N   0  3  0  0  0  0  0  0  0  0  0  0
  112.1215  -75.1274  -79.5902 C   0  0  0  0  0  0  0  0  0  0  0  0
  110.9421  -73.0255  -79.8893 C   0  0  0  0  0  0  0  0  0  0  0  0
  112.7169  -80.5501  -87.4084 N   0  0  0  0  0  0  0  0  0  0  0  0
  113.3201  -81.5883  -86.5431 C   0  0  0  0  0  0  0  0  0  0  0  0
  112.6674  -81.0013  -88.8440 C   0  0  0  0  0  0  0  0  0  0  0  0
  1  2  1  0  0  0  0
  1 14  1  0  0  0  0
  1 21  2  0  0  0  0
  2  3  2  0  0  0  0
  3  4  1  0  0  0  0
  3 12  1  0  0  0  0
  4  5  1  0  0  0  0
  5  6  1  0  0  0  0
  5 10  2  0  0  0  0
  6  7  2  0  0  0  0
  7  8  1  0  0  0  0
  7 24  1  0  0  0  0
  8  9  2  0  0  0  0
  9 10  1  0  0  0  0
 10 11  1  0  0  0  0
 11 12  2  0  0  0  0
 11 15  1  0  0  0  0
 12 13  1  0  0  0  0
 13 14  2  0  0  0  0
 15 16  2  0  0  0  0
 15 20  1  0  0  0  0
 16 17  1  0  0  0  0
 17 18  2  0  0  0  0
 18 19  1  0  0  0  0
 19 20  2  0  0  0  0
 21 22  1  0  0  0  0
 21 23  1  0  0  0  0
 24 25  1  0  0  0  0
 24 26  1  0  0  0  0
M  CHG  1  21   1
M  END
>  <CHROM.1>
4.28245912,-123.47636343,111.08278408,-76.17675851,-85.31863101,-1.81453164
1.05587197,-2.07798174

>  <Name>
1f1t Malachite green aptamer (Xray 2.8A)

>  <RI>
0

>  <Rbt.Current_Directory>
/home/itssahil/PROJECTS/Mol_Feturizer/New_Systems/rnas/1f1t

>  <Rbt.Executable>
rbdock ($Id: //depot/dev/client3/rdock/2013.1/src/exe/rbdock.cxx#4 $)

>  <Rbt.Library>
libRbt.so (2013.1, Build901 2013/11/27)

>  <Rbt.Parameter_File>
/export/apps/rDock/src/rDock_2013.1_src/data/scripts/dock_solv.prm

>  <Rbt.Receptor>
prm/pocket_docking_8.prm

>  <SCORE>
-63.3035

>  <SCORE.INTER>
-63.3967

>  <SCORE.INTER.CONST>
1

>  <SCORE.INTER.POLAR>
0

>  <SCORE.INTER.ROT>
2

>  <SCORE.INTER.SOLV>
11.1337

>  <SCORE.INTER.VDW>
-50.909

>  <SCORE.INTER.norm>
-2.43833

>  <SCORE.INTRA>
0.093149

>  <SCORE.INTRA.DIHEDRAL>
-0.803999

>  <SCORE.INTRA.DIHEDRAL.0>
4.18538

>  <SCORE.INTRA.POLAR>
0

>  <SCORE.INTRA.POLAR.0>
0

>  <SCORE.INTRA.REPUL>
0

>  <SCORE.INTRA.REPUL.0>
0

>  <SCORE.INTRA.SOLV>
0.0145418

>  <SCORE.INTRA.SOLV.lig_0>
-5.16926

>  <SCORE.INTRA.VDW>
0.487877

>  <SCORE.INTRA.VDW.0>
1.11912

>  <SCORE.INTRA.norm>
0.00358265

>  <SCORE.RESTR>
0

>  <SCORE.RESTR.CAVITY>
0

>  <SCORE.RESTR.norm>
0

>  <SCORE.SYSTEM>
0

>  <SCORE.SYSTEM.CONST>
0

>  <SCORE.SYSTEM.DIHEDRAL>
0

>  <SCORE.SYSTEM.SOLV>
0

>  <SCORE.SYSTEM.norm>
0

>  <SCORE.heavy>
26

>  <SCORE.norm>
-2.43475

>  <RMSD>
0.660

$$$$
1f1t Malachite green aptamer (Xray 2.8A)
 OpenBabel11021811393D
libRbt.so/2013.1/901 2013/11/27
 26 29  0  0  0  0  0  0  0  0999 V2000
  111.2349  -74.6266  -81.8720 C   0  0  0  0  0  0  0  0  0  0  0  0
  111.7488  -75.8982  -82.3594 C   0  0  0  0  0  0  0  0  0  0  0  0
  111.4882  -76.1108  -83.7145 C   0  0  0  0  0  0  0  0  0  0  0  0
  112.0354  -77.4229  -84.1602 O   0  0  0  0  0  0  0  0  0  0  0  0
  111.8020  -77.6039  -85.4014 C   0  0  0  0  0  0  0  0  0  0  0  0
  112.3634  -78.9125  -85.7365 C   0  0  0  0  0  0  0  0  0  0  0  0
  112.1987  -79.2852  -87.1177 C   0  0  0  0  0  0  0  0  0  0  0  0
  111.5597  -78.4470  -88.0645 C   0  0  0  0  0  0  0  0  0  0  0  0
  111.0151  -77.1625  -87.6655 C   0  0  0  0  0  0  0  0  0  0  0  0
  111.1558  -76.7748  -86.2834 C   0  0  0  0  0  0  0  0  0  0  0  0
  110.5480  -75.4325  -85.9503 C   0  0  0  0  0  0  0  0  0  0  0  0
  110.8184  -75.2547  -84.5815 C   0  0  0  0  0  0  0  0  0  0  0  0
  110.3026  -73.9829  -84.0703 C   0  0  0  0  0  0  0  0  0  0  0  0
  110.5585  -73.7386  -82.6856 C   0  0  0  0  0  0  0  0  0  0  0  0
  109.8994  -74.6456  -86.8831 C   0  0  0  0  0  0  0  0  0  0  0  0
  110.2357  -73.3105  -87.2068 C   0  0  0  0  0  0  0  0  0  0  0  0
  109.6033  -72.5075  -88.1576 C   0  0  0  0  0  0  0  0  0  0  0  0
  108.4857  -73.0415  -88.9215 C   0  0  0  0  0  0  0  0  0  0  0  0
  108.1674  -74.3743  -88.5661 C   0  0  0  0  0  0  0  0  0  0  0  0
  108.7701  -75.2136  -87.6190 C   0  0  0  0  0  0  0  0  0  0  0  0
  111.4196  -74.2678  -80.5441 N   0  3  0  0  0  0  0  0  0  0  0  0
  112.1308  -75.1217  -79.5994 C   0  0  0  0  0  0  0  0  0  0  0  0
  110.9500  -73.0209  -79.9007 C   0  0  0  0  0  0  0  0  0  0  0  0
  112.7222  -80.5564  -87.4095 N   0  0  0  0  0  0  0  0  0  0  0  0
  113.3173  -81.5971  -86.5417 C   0  0  0  0  0  0  0  0  0  0  0  0
  112.6829  -81.0049  -88.8463 C   0  0  0  0  0  0  0  0  0  0  0  0
  1  2  1  0  0  0  0
  1 14  1  0  0  0  0
  1 21  2  0  0  0  0
  2  3  2  0  0  0  0
  3  4  1  0  0  0  0
  3 12  1  0  0  0  0
  4  5  1  0  0  0  0
  5  6  1  0  0  0  0
  5 10  2  0  0  0  0
  6  7  2  0  0  0  0
  7  8  1  0  0  0  0
  7 24  1  0  0  0  0
  8  9  2  0  0  0  0
  9 10  1  0  0  0  0
 10 11  1  0  0  0  0
 11 12  2  0  0  0  0
 11 15  1  0  0  0  0
 12 13  1  0  0  0  0
 13 14  2  0  0  0  0
 15 16  2  0  0  0  0
 15 20  1  0  0  0  0
 16 17  1  0  0  0  0
 17 18  2  0  0  0  0
 18 19  1  0  0  0  0
 19 20  2  0  0  0  0
 21 22  1  0  0  0  0
 21 23  1  0  0  0  0
 24 25  1  0  0  0  0
 24 26  1  0  0  0  0
M  CHG  1  21   1
M  END
>  <CHROM.1>
4.81733323,-123.41547323,111.08760956,-76.18063581,-85.32521868,-1.81377315
1.05506581,-2.08017765

>  <Name>
1f1t Malachite green aptamer (Xray 2.8A)

>  <RI>
0

>  <Rbt.Current_Directory>
/home/itssahil/PROJECTS/Mol_Feturizer/New_Systems/rnas/1f1t

>  <Rbt.Executable>
rbdock ($Id: //depot/dev/client3/rdock/2013.1/src/exe/rbdock.cxx#4 $)

>  <Rbt.Library>
libRbt.so (2013.1, Build901 2013/11/27)

>  <Rbt.Parameter_File>
/export/apps/rDock/src/rDock_2013.1_src/data/scripts/dock_solv.prm

>  <Rbt.Receptor>
prm/pocket_docking_2.prm

>  <SCORE>
-63.2948

>  <SCORE.INTER>
-63.3899

>  <SCORE.INTER.CONST>
1

>  <SCORE.INTER.POLAR>
0

>  <SCORE.INTER.ROT>
2

>  <SCORE.INTER.SOLV>
11.1345

>  <SCORE.INTER.VDW>
-50.9048

>  <SCORE.INTER.norm>
-2.43807

>  <SCORE.INTRA>
0.0950596

>  <SCORE.INTRA.DIHEDRAL>
-0.780972

>  <SCORE.INTRA.DIHEDRAL.0>
4.18538

>  <SCORE.INTRA.POLAR>
0

>  <SCORE.INTRA.POLAR.0>
0

>  <SCORE.INTRA.REPUL>
0

>  <SCORE.INTRA.REPUL.0>
0

>  <SCORE.INTRA.SOLV>
0.0144712

>  <SCORE.INTRA.SOLV.lig_0>
-5.16926

>  <SCORE.INTRA.VDW>
0.47831

>  <SCORE.INTRA.VDW.0>
1.11912

>  <SCORE.INTRA.norm>
0.00365614

>  <SCORE.RESTR>
0

>  <SCORE.RESTR.CAVITY>
0

>  <SCORE.RESTR.norm>
0

>  <SCORE.SYSTEM>
0

>  <SCORE.SYSTEM.CONST>
0

>  <SCORE.SYSTEM.DIHEDRAL>
0

>  <SCORE.SYSTEM.SOLV>
0

>  <SCORE.SYSTEM.norm>
0

>  <SCORE.heavy>
26

>  <SCORE.norm>
-2.43442

>  <RMSD>
0.661

$$$$
1f1t Malachite green aptamer (Xray 2.8A)
 OpenBabel11021811393D
libRbt.so/2013.1/901 2013/11/27
 26 29  0  0  0  0  0  0  0  0999 V2000
  111.1863  -74.6292  -81.9196 C   0  0  0  0  0  0  0  0  0  0  0  0
  111.7228  -75.8990  -82.3867 C   0  0  0  0  0  0  0  0  0  0  0  0
  111.4713  -76.1352  -83.7396 C   0  0  0  0  0  0  0  0  0  0  0  0
  112.0417  -77.4443  -84.1643 O   0  0  0  0  0  0  0  0  0  0  0  0
  111.8163  -77.6469  -85.4037 C   0  0  0  0  0  0  0  0  0  0  0  0
  112.4003  -78.9507  -85.7178 C   0  0  0  0  0  0  0  0  0  0  0  0
  112.2474  -79.3458  -87.0941 C   0  0  0  0  0  0  0  0  0  0  0  0
  111.5986  -78.5317  -88.0553 C   0  0  0  0  0  0  0  0  0  0  0  0
  111.0315  -77.2507  -87.6769 C   0  0  0  0  0  0  0  0  0  0  0  0
  111.1602  -76.8411  -86.3000 C   0  0  0  0  0  0  0  0  0  0  0  0
  110.5292  -75.5044  -85.9885 C   0  0  0  0  0  0  0  0  0  0  0  0
  110.7911  -75.3026  -84.6214 C   0  0  0  0  0  0  0  0  0  0  0  0
  110.2525  -74.0322  -84.1304 C   0  0  0  0  0  0  0  0  0  0  0  0
  110.4987  -73.7641  -82.7484 C   0  0  0  0  0  0  0  0  0  0  0  0
  109.8716  -74.7416  -86.9349 C   0  0  0  0  0  0  0  0  0  0  0  0
  108.8329  -75.1978  -87.7796 C   0  0  0  0  0  0  0  0  0  0  0  0
  108.1464  -74.4374  -88.7280 C   0  0  0  0  0  0  0  0  0  0  0  0
  108.4871  -73.0342  -88.9085 C   0  0  0  0  0  0  0  0  0  0  0  0
  109.5366  -72.6122  -88.0573 C   0  0  0  0  0  0  0  0  0  0  0  0
  110.2541  -73.3392  -87.0973 C   0  0  0  0  0  0  0  0  0  0  0  0
  111.3597  -74.2484  -80.5962 N   0  3  0  0  0  0  0  0  0  0  0  0
  112.0808  -75.0770  -79.6366 C   0  0  0  0  0  0  0  0  0  0  0  0
  110.8672  -73.0004  -79.9726 C   0  0  0  0  0  0  0  0  0  0  0  0
  112.7927  -80.6123  -87.3657 N   0  0  0  0  0  0  0  0  0  0  0  0
  113.3397  -81.6586  -86.4733 C   0  0  0  0  0  0  0  0  0  0  0  0
  112.8408  -81.0477  -88.8062 C   0  0  0  0  0  0  0  0  0  0  0  0
  1  2  1  0  0  0  0
  1 14  1  0  0  0  0
  1 21  2  0  0  0  0
  2  3  2  0  0  0  0
  3  4  1  0  0  0  0
  3 12  1  0  0  0  0
  4  5  1  0  0  0  0
  5  6  1  0  0  0  0
  5 10  2  0  0  0  0
  6  7  2  0  0  0  0
  7  8  1  0  0  0  0
  7 24  1  0  0  0  0
  8  9  2  0  0  0  0
  9 10  1  0  0  0  0
 10 11  1  0  0  0  0
 11 12  2  0  0  0  0
 11 15  1  0  0  0  0
 12 13  1  0  0  0  0
 13 14  2  0  0  0  0
 15 16  2  0  0  0  0
 15 20  1  0  0  0  0
 16 17  1  0  0  0  0
 17 18  2  0  0  0  0
 18 19  1  0  0  0  0
 19 20  2  0  0  0  0
 21 22  1  0  0  0  0
 21 23  1  0  0  0  0
 24 25  1  0  0  0  0
 24 26  1  0  0  0  0
M  CHG  1  21   1
M  END
>  <CHROM.1>
8.34148528,52.15068368,111.08606472,-76.21669640,-85.34155507,-1.85756478
1.04806160,-2.07098666

>  <Name>
1f1t Malachite green aptamer (Xray 2.8A)

>  <RI>
0

>  <Rbt.Current_Directory>
/home/itssahil/PROJECTS/Mol_Feturizer/New_Systems/rnas/1f1t

>  <Rbt.Executable>
rbdock ($Id: //depot/dev/client3/rdock/2013.1/src/exe/rbdock.cxx#4 $)

>  <Rbt.Library>
libRbt.so (2013.1, Build901 2013/11/27)

>  <Rbt.Parameter_File>
/export/apps/rDock/src/rDock_2013.1_src/data/scripts/dock_solv.prm

>  <Rbt.Receptor>
prm/pocket_docking_5.prm

>  <SCORE>
-62.7413

>  <SCORE.INTER>
-62.8337

>  <SCORE.INTER.CONST>
1

>  <SCORE.INTER.POLAR>
0

>  <SCORE.INTER.ROT>
2

>  <SCORE.INTER.SOLV>
11.0645

>  <SCORE.INTER.VDW>
-50.5106

>  <SCORE.INTER.norm>
-2.41668

>  <SCORE.INTRA>
0.0923636

>  <SCORE.INTRA.DIHEDRAL>
-0.958451

>  <SCORE.INTRA.DIHEDRAL.0>
4.18538

>  <SCORE.INTRA.POLAR>
0

>  <SCORE.INTRA.POLAR.0>
0

>  <SCORE.INTRA.REPUL>
0

>  <SCORE.INTRA.REPUL.0>
0

>  <SCORE.INTRA.SOLV>
0.0194952

>  <SCORE.INTRA.SOLV.lig_0>
-5.16926

>  <SCORE.INTRA.VDW>
0.561841

>  <SCORE.INTRA.VDW.0>
1.11912

>  <SCORE.INTRA.norm>
0.00355245

>  <SCORE.RESTR>
0

>  <SCORE.RESTR.CAVITY>
0

>  <SCORE.RESTR.norm>
0

>  <SCORE.SYSTEM>
0

>  <SCORE.SYSTEM.CONST>
0

>  <SCORE.SYSTEM.DIHEDRAL>
0

>  <SCORE.SYSTEM.SOLV>
0

>  <SCORE.SYSTEM.norm>
0

>  <SCORE.heavy>
26

>  <SCORE.norm>
-2.41313

>  <RMSD>
0.661

$$$$
1f1t Malachite green aptamer (Xray 2.8A)
 OpenBabel11021811393D
libRbt.so/2013.1/901 2013/11/27
 26 29  0  0  0  0  0  0  0  0999 V2000
  111.2305  -74.6235  -81.8727 C   0  0  0  0  0  0  0  0  0  0  0  0
  111.7450  -75.8949  -82.3597 C   0  0  0  0  0  0  0  0  0  0  0  0
  111.4835  -76.1086  -83.7145 C   0  0  0  0  0  0  0  0  0  0  0  0
  112.0315  -77.4204  -84.1599 O   0  0  0  0  0  0  0  0  0  0  0  0
  111.7973  -77.6023  -85.4008 C   0  0  0  0  0  0  0  0  0  0  0  0
  112.3594  -78.9106  -85.7357 C   0  0  0  0  0  0  0  0  0  0  0  0
  112.1940  -79.2843  -87.1165 C   0  0  0  0  0  0  0  0  0  0  0  0
  111.5534  -78.4471  -88.0633 C   0  0  0  0  0  0  0  0  0  0  0  0
  111.0080  -77.1628  -87.6645 C   0  0  0  0  0  0  0  0  0  0  0  0
  111.1496  -76.7743  -86.2828 C   0  0  0  0  0  0  0  0  0  0  0  0
  110.5409  -75.4324  -85.9499 C   0  0  0  0  0  0  0  0  0  0  0  0
  110.8122  -75.2535  -84.5815 C   0  0  0  0  0  0  0  0  0  0  0  0
  110.2958  -73.9818  -84.0705 C   0  0  0  0  0  0  0  0  0  0  0  0
  110.5526  -73.7366  -82.6862 C   0  0  0  0  0  0  0  0  0  0  0  0
  109.8908  -74.6465  -86.8826 C   0  0  0  0  0  0  0  0  0  0  0  0
  110.2285  -73.3128  -87.2106 C   0  0  0  0  0  0  0  0  0  0  0  0
  109.5946  -72.5109  -88.1614 C   0  0  0  0  0  0  0  0  0  0  0  0
  108.4737  -73.0448  -88.9206 C   0  0  0  0  0  0  0  0  0  0  0  0
  108.1542  -74.3762  -88.5610 C   0  0  0  0  0  0  0  0  0  0  0  0
  108.7583  -75.2143  -87.6137 C   0  0  0  0  0  0  0  0  0  0  0  0
  111.4160  -74.2638  -80.5451 N   0  3  0  0  0  0  0  0  0  0  0  0
  112.1287  -75.1165  -79.6005 C   0  0  0  0  0  0  0  0  0  0  0  0
  110.9458  -73.0169  -79.9021 C   0  0  0  0  0  0  0  0  0  0  0  0
  112.7183  -80.5552  -87.4080 N   0  0  0  0  0  0  0  0  0  0  0  0
  113.3115  -81.5964  -86.5396 C   0  0  0  0  0  0  0  0  0  0  0  0
  112.6823  -81.0026  -88.8452 C   0  0  0  0  0  0  0  0  0  0  0  0
  1  2  1  0  0  0  0
  1 14  1  0  0  0  0
  1 21  2  0  0  0  0
  2  3  2  0  0  0  0
  3  4  1  0  0  0  0
  3 12  1  0  0  0  0
  4  5  1  0  0  0  0
  5  6  1  0  0  0  0
  5 10  2  0  0  0  0
  6  7  2  0  0  0  0
  7  8  1  0  0  0  0
  7 24  1  0  0  0  0
  8  9  2  0  0  0  0
  9 10  1  0  0  0  0
 10 11  1  0  0  0  0
 11 12  2  0  0  0  0
 11 15  1  0  0  0  0
 12 13  1  0  0  0  0
 13 14  2  0  0  0  0
 15 16  2  0  0  0  0
 15 20  1  0  0  0  0
 16 17  1  0  0  0  0
 17 18  2  0  0  0  0
 18 19  1  0  0  0  0
 19 20  2  0  0  0  0
 21 22  1  0  0  0  0
 21 23  1  0  0  0  0
 24 25  1  0  0  0  0
 24 26  1  0  0  0  0
M  CHG  1  21   1
M  END
>  <CHROM.1>
5.01627608,-123.19208195,111.08166051,-76.17961160,-85.32485952,-1.81330450
1.05391654,-2.08112927

>  <Name>
1f1t Malachite green aptamer (Xray 2.8A)

>  <RI>
0

>  <Rbt.Current_Directory>
/home/itssahil/PROJECTS/Mol_Feturizer/New_Systems/rnas/1f1t

>  <Rbt.Executable>
rbdock ($Id: //depot/dev/client3/rdock/2013.1/src/exe/rbdock.cxx#4 $)

>  <Rbt.Library>
libRbt.so (2013.1, Build901 2013/11/27)

>  <Rbt.Parameter_File>
/export/apps/rDock/src/rDock_2013.1_src/data/scripts/dock_solv.prm

>  <Rbt.Receptor>
prm/pocket_docking_6.prm

>  <SCORE>
-63.3043

>  <SCORE.INTER>
-63.3957

>  <SCORE.INTER.CONST>
1

>  <SCORE.INTER.POLAR>
0

>  <SCORE.INTER.ROT>
2

>  <SCORE.INTER.SOLV>
11.1281

>  <SCORE.INTER.VDW>
-50.9065

>  <SCORE.INTER.norm>
-2.4383

>  <SCORE.INTRA>
0.0913647

>  <SCORE.INTRA.DIHEDRAL>
-0.756337

>  <SCORE.INTRA.DIHEDRAL.0>
4.18538

>  <SCORE.INTRA.POLAR>
0

>  <SCORE.INTRA.POLAR.0>
0

>  <SCORE.INTRA.REPUL>
0

>  <SCORE.INTRA.REPUL.0>
0

>  <SCORE.INTRA.SOLV>
0.014211

>  <SCORE.INTRA.SOLV.lig_0>
-5.16926

>  <SCORE.INTRA.VDW>
0.462427

>  <SCORE.INTRA.VDW.0>
1.11912

>  <SCORE.INTRA.norm>
0.00351403

>  <SCORE.RESTR>
0

>  <SCORE.RESTR.CAVITY>
0

>  <SCORE.RESTR.norm>
0

>  <SCORE.SYSTEM>
0

>  <SCORE.SYSTEM.CONST>
0

>  <SCORE.SYSTEM.DIHEDRAL>
0

>  <SCORE.SYSTEM.SOLV>
0

>  <SCORE.SYSTEM.norm>
0

>  <SCORE.heavy>
26

>  <SCORE.norm>
-2.43478

>  <RMSD>
0.661

$$$$
1f1t Malachite green aptamer (Xray 2.8A)
 OpenBabel11021811393D
libRbt.so/2013.1/901 2013/11/27
 26 29  0  0  0  0  0  0  0  0999 V2000
  111.2336  -74.6251  -81.8717 C   0  0  0  0  0  0  0  0  0  0  0  0
  111.7469  -75.8966  -82.3598 C   0  0  0  0  0  0  0  0  0  0  0  0
  111.4850  -76.1089  -83.7147 C   0  0  0  0  0  0  0  0  0  0  0  0
  112.0317  -77.4210  -84.1612 O   0  0  0  0  0  0  0  0  0  0  0  0
  111.7972  -77.6017  -85.4022 C   0  0  0  0  0  0  0  0  0  0  0  0
  112.3581  -78.9103  -85.7381 C   0  0  0  0  0  0  0  0  0  0  0  0
  112.1921  -79.2827  -87.1192 C   0  0  0  0  0  0  0  0  0  0  0  0
  111.5523  -78.4442  -88.0652 C   0  0  0  0  0  0  0  0  0  0  0  0
  111.0082  -77.1598  -87.6655 C   0  0  0  0  0  0  0  0  0  0  0  0
  111.1502  -76.7724  -86.2834 C   0  0  0  0  0  0  0  0  0  0  0  0
  110.5428  -75.4301  -85.9495 C   0  0  0  0  0  0  0  0  0  0  0  0
  110.8145  -75.2526  -84.5810 C   0  0  0  0  0  0  0  0  0  0  0  0
  110.2993  -73.9808  -84.0690 C   0  0  0  0  0  0  0  0  0  0  0  0
  110.5565  -73.7368  -82.6845 C   0  0  0  0  0  0  0  0  0  0  0  0
  109.8934  -74.6430  -86.8815 C   0  0  0  0  0  0  0  0  0  0  0  0
  110.2356  -73.3111  -87.2123 C   0  0  0  0  0  0  0  0  0  0  0  0
  109.6024  -72.5080  -88.1626 C   0  0  0  0  0  0  0  0  0  0  0  0
  108.4773  -73.0384  -88.9179 C   0  0  0  0  0  0  0  0  0  0  0  0
  108.1533  -74.3679  -88.5556 C   0  0  0  0  0  0  0  0  0  0  0  0
  108.7566  -75.2071  -87.6087 C   0  0  0  0  0  0  0  0  0  0  0  0
  111.4196  -74.2665  -80.5439 N   0  3  0  0  0  0  0  0  0  0  0  0
  112.1316  -75.1207  -79.6000 C   0  0  0  0  0  0  0  0  0  0  0  0
  110.9507  -73.0197  -79.8998 C   0  0  0  0  0  0  0  0  0  0  0  0
  112.7151  -80.5540  -87.4117 N   0  0  0  0  0  0  0  0  0  0  0  0
  113.3074  -81.5964  -86.5441 C   0  0  0  0  0  0  0  0  0  0  0  0
  112.6787  -81.0002  -88.8493 C   0  0  0  0  0  0  0  0  0  0  0  0
  1  2  1  0  0  0  0
  1 14  1  0  0  0  0
  1 21  2  0  0  0  0
  2  3  2  0  0  0  0
  3  4  1  0  0  0  0
  3 12  1  0  0  0  0
  4  5  1  0  0  0  0
  5  6  1  0  0  0  0
  5 10  2  0  0  0  0
  6  7  2  0  0  0  0
  7  8  1  0  0  0  0
  7 24  1  0  0  0  0
  8  9  2  0  0  0  0
  9 10  1  0  0  0  0
 10 11  1  0  0  0  0
 11 12  2  0  0  0  0
 11 15  1  0  0  0  0
 12 13  1  0  0  0  0
 13 14  2  0  0  0  0
 15 16  2  0  0  0  0
 15 20  1  0  0  0  0
 16 17  1  0  0  0  0
 17 18  2  0  0  0  0
 18 19  1  0  0  0  0
 19 20  2  0  0  0  0
 21 22  1  0  0  0  0
 21 23  1  0  0  0  0
 24 25  1  0  0  0  0
 24 26  1  0  0  0  0
M  CHG  1  21   1
M  END
>  <CHROM.1>
5.01953620,-122.92675377,111.08292587,-76.17837969,-85.32503748,-1.81222353
1.05466998,-2.08129214

>  <Name>
1f1t Malachite green aptamer (Xray 2.8A)

>  <RI>
0

>  <Rbt.Current_Directory>
/home/itssahil/PROJECTS/Mol_Feturizer/New_Systems/rnas/1f1t

>  <Rbt.Executable>
rbdock ($Id: //depot/dev/client3/rdock/2013.1/src/exe/rbdock.cxx#4 $)

>  <Rbt.Library>
libRbt.so (2013.1, Build901 2013/11/27)

>  <Rbt.Parameter_File>
/export/apps/rDock/src/rDock_2013.1_src/data/scripts/dock_solv.prm

>  <Rbt.Receptor>
prm/pocket_docking_3.prm

>  <SCORE>
-63.2901

>  <SCORE.INTER>
-63.3758

>  <SCORE.INTER.CONST>
1

>  <SCORE.INTER.POLAR>
0

>  <SCORE.INTER.ROT>
2

>  <SCORE.INTER.SOLV>
11.1308

>  <SCORE.INTER.VDW>
-50.8941

>  <SCORE.INTER.norm>
-2.43753

>  <SCORE.INTRA>
0.0856508

>  <SCORE.INTRA.DIHEDRAL>
-0.735785

>  <SCORE.INTRA.DIHEDRAL.0>
4.18538

>  <SCORE.INTRA.POLAR>
0

>  <SCORE.INTRA.POLAR.0>
0

>  <SCORE.INTRA.REPUL>
0

>  <SCORE.INTRA.REPUL.0>
0

>  <SCORE.INTRA.SOLV>
0.0139013

>  <SCORE.INTRA.SOLV.lig_0>
-5.16926

>  <SCORE.INTRA.VDW>
0.446592

>  <SCORE.INTRA.VDW.0>
1.11912

>  <SCORE.INTRA.norm>
0.00329426

>  <SCORE.RESTR>
0

>  <SCORE.RESTR.CAVITY>
0

>  <SCORE.RESTR.norm>
0

>  <SCORE.SYSTEM>
0

>  <SCORE.SYSTEM.CONST>
0

>  <SCORE.SYSTEM.DIHEDRAL>
0

>  <SCORE.SYSTEM.SOLV>
0

>  <SCORE.SYSTEM.norm>
0

>  <SCORE.heavy>
26

>  <SCORE.norm>
-2.43423

>  <RMSD>
0.662

$$$$
1f1t Malachite green aptamer (Xray 2.8A)
 OpenBabel11021811393D
libRbt.so/2013.1/901 2013/11/27
 26 29  0  0  0  0  0  0  0  0999 V2000
  111.2300  -74.6246  -81.8713 C   0  0  0  0  0  0  0  0  0  0  0  0
  111.7435  -75.8963  -82.3586 C   0  0  0  0  0  0  0  0  0  0  0  0
  111.4824  -76.1091  -83.7135 C   0  0  0  0  0  0  0  0  0  0  0  0
  112.0293  -77.4213  -84.1593 O   0  0  0  0  0  0  0  0  0  0  0  0
  111.7955  -77.6025  -85.4004 C   0  0  0  0  0  0  0  0  0  0  0  0
  112.3565  -78.9112  -85.7355 C   0  0  0  0  0  0  0  0  0  0  0  0
  112.1913  -79.2841  -87.1165 C   0  0  0  0  0  0  0  0  0  0  0  0
  111.5520  -78.4459  -88.0633 C   0  0  0  0  0  0  0  0  0  0  0  0
  111.0078  -77.1612  -87.6643 C   0  0  0  0  0  0  0  0  0  0  0  0
  111.1490  -76.7734  -86.2823 C   0  0  0  0  0  0  0  0  0  0  0  0
  110.5415  -75.4310  -85.9492 C   0  0  0  0  0  0  0  0  0  0  0  0
  110.8124  -75.2530  -84.5805 C   0  0  0  0  0  0  0  0  0  0  0  0
  110.2971  -73.9810  -84.0693 C   0  0  0  0  0  0  0  0  0  0  0  0
  110.5535  -73.7366  -82.6847 C   0  0  0  0  0  0  0  0  0  0  0  0
  109.8927  -74.6441  -86.8818 C   0  0  0  0  0  0  0  0  0  0  0  0
  110.2290  -73.3090  -87.2057 C   0  0  0  0  0  0  0  0  0  0  0  0
  109.5964  -72.5060  -88.1564 C   0  0  0  0  0  0  0  0  0  0  0  0
  108.4786  -73.0401  -88.9200 C   0  0  0  0  0  0  0  0  0  0  0  0
  108.1604  -74.3729  -88.5646 C   0  0  0  0  0  0  0  0  0  0  0  0
  108.7633  -75.2121  -87.6175 C   0  0  0  0  0  0  0  0  0  0  0  0
  111.4153  -74.2656  -80.5434 N   0  3  0  0  0  0  0  0  0  0  0  0
  112.1266  -75.1195  -79.5988 C   0  0  0  0  0  0  0  0  0  0  0  0
  110.9461  -73.0185  -79.9001 C   0  0  0  0  0  0  0  0  0  0  0  0
  112.7144  -80.5555  -87.4084 N   0  0  0  0  0  0  0  0  0  0  0  0
  113.3122  -81.5950  -86.5410 C   0  0  0  0  0  0  0  0  0  0  0  0
  112.6714  -81.0055  -88.8445 C   0  0  0  0  0  0  0  0  0  0  0  0
  1  2  1  0  0  0  0
  1 14  1  0  0  0  0
  1 21  2  0  0  0  0
  2  3  2  0  0  0  0
  3  4  1  0  0  0  0
  3 12  1  0  0  0  0
  4  5  1  0  0  0  0
  5  6  1  0  0  0  0
  5 10  2  0  0  0  0
  6  7  2  0  0  0  0
  7  8  1  0  0  0  0
  7 24  1  0  0  0  0
  8  9  2  0  0  0  0
  9 10  1  0  0  0  0
 10 11  1  0  0  0  0
 11 12  2  0  0  0  0
 11 15  1  0  0  0  0
 12 13  1  0  0  0  0
 13 14  2  0  0  0  0
 15 16  2  0  0  0  0
 15 20  1  0  0  0  0
 16 17  1  0  0  0  0
 17 18  2  0  0  0  0
 18 19  1  0  0  0  0
 19 20  2  0  0  0  0
 21 22  1  0  0  0  0
 21 23  1  0  0  0  0
 24 25  1  0  0  0  0
 24 26  1  0  0  0  0
M  CHG  1  21   1
M  END
>  <CHROM.1>
4.67214771,-123.43111782,111.08126562,-76.17908710,-85.32415973,-1.81290852
1.05501788,-2.08109119

>  <Name>
1f1t Malachite green aptamer (Xray 2.8A)

>  <RI>
0

>  <Rbt.Current_Directory>
/home/itssahil/PROJECTS/Mol_Feturizer/New_Systems/rnas/1f1t

>  <Rbt.Executable>
rbdock ($Id: //depot/dev/client3/rdock/2013.1/src/exe/rbdock.cxx#4 $)

>  <Rbt.Library>
libRbt.so (2013.1, Build901 2013/11/27)

>  <Rbt.Parameter_File>
/export/apps/rDock/src/rDock_2013.1_src/data/scripts/dock_solv.prm

>  <Rbt.Receptor>
prm/pocket_docking_5.prm

>  <SCORE>
-63.3012

>  <SCORE.INTER>
-63.3957

>  <SCORE.INTER.CONST>
1

>  <SCORE.INTER.POLAR>
0

>  <SCORE.INTER.ROT>
2

>  <SCORE.INTER.SOLV>
11.1329

>  <SCORE.INTER.VDW>
-50.9081

>  <SCORE.INTER.norm>
-2.4383

>  <SCORE.INTRA>
0.0944795

>  <SCORE.INTRA.DIHEDRAL>
-0.787371

>  <SCORE.INTRA.DIHEDRAL.0>
4.18538

>  <SCORE.INTRA.POLAR>
0

>  <SCORE.INTRA.POLAR.0>
0

>  <SCORE.INTRA.REPUL>
0

>  <SCORE.INTRA.REPUL.0>
0

>  <SCORE.INTRA.SOLV>
0.0144893

>  <SCORE.INTRA.SOLV.lig_0>
-5.16926

>  <SCORE.INTRA.VDW>
0.48092

>  <SCORE.INTRA.VDW.0>
1.11912

>  <SCORE.INTRA.norm>
0.00363383

>  <SCORE.RESTR>
0

>  <SCORE.RESTR.CAVITY>
0

>  <SCORE.RESTR.norm>
0

>  <SCORE.SYSTEM>
0

>  <SCORE.SYSTEM.CONST>
0

>  <SCORE.SYSTEM.DIHEDRAL>
0

>  <SCORE.SYSTEM.SOLV>
0

>  <SCORE.SYSTEM.norm>
0

>  <SCORE.heavy>
26

>  <SCORE.norm>
-2.43466

>  <RMSD>
0.662

$$$$
1f1t Malachite green aptamer (Xray 2.8A)
 OpenBabel11021811393D
libRbt.so/2013.1/901 2013/11/27
 26 29  0  0  0  0  0  0  0  0999 V2000
  111.2295  -74.6253  -81.8704 C   0  0  0  0  0  0  0  0  0  0  0  0
  111.7438  -75.8963  -82.3587 C   0  0  0  0  0  0  0  0  0  0  0  0
  111.4828  -76.1082  -83.7139 C   0  0  0  0  0  0  0  0  0  0  0  0
  112.0306  -77.4197  -84.1606 O   0  0  0  0  0  0  0  0  0  0  0  0
  111.7968  -77.6000  -85.4019 C   0  0  0  0  0  0  0  0  0  0  0  0
  112.3587  -78.9081  -85.7381 C   0  0  0  0  0  0  0  0  0  0  0  0
  112.1937  -79.2800  -87.1194 C   0  0  0  0  0  0  0  0  0  0  0  0
  111.5539  -78.4415  -88.0654 C   0  0  0  0  0  0  0  0  0  0  0  0
  111.0088  -77.1575  -87.6654 C   0  0  0  0  0  0  0  0  0  0  0  0
  111.1498  -76.7707  -86.2831 C   0  0  0  0  0  0  0  0  0  0  0  0
  110.5414  -75.4290  -85.9489 C   0  0  0  0  0  0  0  0  0  0  0  0
  110.8122  -75.2518  -84.5802 C   0  0  0  0  0  0  0  0  0  0  0  0
  110.2960  -73.9806  -84.0679 C   0  0  0  0  0  0  0  0  0  0  0  0
  110.5523  -73.7371  -82.6831 C   0  0  0  0  0  0  0  0  0  0  0  0
  109.8920  -74.6418  -86.8809 C   0  0  0  0  0  0  0  0  0  0  0  0
  110.2337  -73.3096  -87.2111 C   0  0  0  0  0  0  0  0  0  0  0  0
  109.6006  -72.5065  -88.1613 C   0  0  0  0  0  0  0  0  0  0  0  0
  108.4761  -73.0371  -88.9174 C   0  0  0  0  0  0  0  0  0  0  0  0
  108.1525  -74.3670  -88.5557 C   0  0  0  0  0  0  0  0  0  0  0  0
  108.7558  -75.2062  -87.6088 C   0  0  0  0  0  0  0  0  0  0  0  0
  111.4145  -74.2672  -80.5423 N   0  3  0  0  0  0  0  0  0  0  0  0
  112.1265  -75.1214  -79.5984 C   0  0  0  0  0  0  0  0  0  0  0  0
  110.9445  -73.0210  -79.8980 C   0  0  0  0  0  0  0  0  0  0  0  0
  112.7177  -80.5508  -87.4122 N   0  0  0  0  0  0  0  0  0  0  0  0
  113.3146  -81.5913  -86.5454 C   0  0  0  0  0  0  0  0  0  0  0  0
  112.6769  -80.9989  -88.8491 C   0  0  0  0  0  0  0  0  0  0  0  0
  1  2  1  0  0  0  0
  1 14  1  0  0  0  0
  1 21  2  0  0  0  0
  2  3  2  0  0  0  0
  3  4  1  0  0  0  0
  3 12  1  0  0  0  0
  4  5  1  0  0  0  0
  5  6  1  0  0  0  0
  5 10  2  0  0  0  0
  6  7  2  0  0  0  0
  7  8  1  0  0  0  0
  7 24  1  0  0  0  0
  8  9  2  0  0  0  0
  9 10  1  0  0  0  0
 10 11  1  0  0  0  0
 11 12  2  0  0  0  0
 11 15  1  0  0  0  0
 12 13  1  0  0  0  0
 13 14  2  0  0  0  0
 15 16  2  0  0  0  0
 15 20  1  0  0  0  0
 16 17  1  0  0  0  0
 17 18  2  0  0  0  0
 18 19  1  0  0  0  0
 19 20  2  0  0  0  0
 21 22  1  0  0  0  0
 21 23  1  0  0  0  0
 24 25  1  0  0  0  0
 24 26  1  0  0  0  0
M  CHG  1  21   1
M  END
>  <CHROM.1>
4.76480857,-122.91614908,111.08158827,-76.17716549,-85.32446503,-1.81366529
1.05435432,-2.07961349

>  <Name>
1f1t Malachite green aptamer (Xray 2.8A)

>  <RI>
0

>  <Rbt.Current_Directory>
/home/itssahil/PROJECTS/Mol_Feturizer/New_Systems/rnas/1f1t

>  <Rbt.Executable>
rbdock ($Id: //depot/dev/client3/rdock/2013.1/src/exe/rbdock.cxx#4 $)

>  <Rbt.Library>
libRbt.so (2013.1, Build901 2013/11/27)

>  <Rbt.Parameter_File>
/export/apps/rDock/src/rDock_2013.1_src/data/scripts/dock_solv.prm

>  <Rbt.Receptor>
prm/pocket_docking_5.prm

>  <SCORE>
-63.2966

>  <SCORE.INTER>
-63.3803

>  <SCORE.INTER.CONST>
1

>  <SCORE.INTER.POLAR>
0

>  <SCORE.INTER.ROT>
2

>  <SCORE.INTER.SOLV>
11.1341

>  <SCORE.INTER.VDW>
-50.8983

>  <SCORE.INTER.norm>
-2.43771

>  <SCORE.INTRA>
0.083726

>  <SCORE.INTRA.DIHEDRAL>
-0.744362

>  <SCORE.INTRA.DIHEDRAL.0>
4.18538

>  <SCORE.INTRA.POLAR>
0

>  <SCORE.INTRA.POLAR.0>
0

>  <SCORE.INTRA.REPUL>
0

>  <SCORE.INTRA.REPUL.0>
0

>  <SCORE.INTRA.SOLV>
0.0138886

>  <SCORE.INTRA.SOLV.lig_0>
-5.16926

>  <SCORE.INTRA.VDW>
0.448963

>  <SCORE.INTRA.VDW.0>
1.11912

>  <SCORE.INTRA.norm>
0.00322023

>  <SCORE.RESTR>
0

>  <SCORE.RESTR.CAVITY>
0

>  <SCORE.RESTR.norm>
0

>  <SCORE.SYSTEM>
0

>  <SCORE.SYSTEM.CONST>
0

>  <SCORE.SYSTEM.DIHEDRAL>
0

>  <SCORE.SYSTEM.SOLV>
0

>  <SCORE.SYSTEM.norm>
0

>  <SCORE.heavy>
26

>  <SCORE.norm>
-2.43448

>  <RMSD>
0.662

$$$$
1f1t Malachite green aptamer (Xray 2.8A)
 OpenBabel11021811393D
libRbt.so/2013.1/901 2013/11/27
 26 29  0  0  0  0  0  0  0  0999 V2000
  111.2308  -74.6243  -81.8719 C   0  0  0  0  0  0  0  0  0  0  0  0
  111.7450  -75.8957  -82.3593 C   0  0  0  0  0  0  0  0  0  0  0  0
  111.4843  -76.1084  -83.7144 C   0  0  0  0  0  0  0  0  0  0  0  0
  112.0320  -77.4202  -84.1602 O   0  0  0  0  0  0  0  0  0  0  0  0
  111.7985  -77.6013  -85.4014 C   0  0  0  0  0  0  0  0  0  0  0  0
  112.3602  -78.9096  -85.7367 C   0  0  0  0  0  0  0  0  0  0  0  0
  112.1955  -79.2824  -87.1178 C   0  0  0  0  0  0  0  0  0  0  0  0
  111.5561  -78.4443  -88.0645 C   0  0  0  0  0  0  0  0  0  0  0  0
  111.0111  -77.1600  -87.6654 C   0  0  0  0  0  0  0  0  0  0  0  0
  111.1519  -76.7723  -86.2833 C   0  0  0  0  0  0  0  0  0  0  0  0
  110.5436  -75.4303  -85.9501 C   0  0  0  0  0  0  0  0  0  0  0  0
  110.8141  -75.2524  -84.5814 C   0  0  0  0  0  0  0  0  0  0  0  0
  110.2980  -73.9808  -84.0700 C   0  0  0  0  0  0  0  0  0  0  0  0
  110.5540  -73.7365  -82.6853 C   0  0  0  0  0  0  0  0  0  0  0  0
  109.8947  -74.6436  -86.8827 C   0  0  0  0  0  0  0  0  0  0  0  0
  110.2276  -73.3069  -87.2033 C   0  0  0  0  0  0  0  0  0  0  0  0
  109.5948  -72.5039  -88.1539 C   0  0  0  0  0  0  0  0  0  0  0  0
  108.4805  -73.0399  -88.9212 C   0  0  0  0  0  0  0  0  0  0  0  0
  108.1655  -74.3743  -88.5690 C   0  0  0  0  0  0  0  0  0  0  0  0
  108.7687  -75.2136  -87.6221 C   0  0  0  0  0  0  0  0  0  0  0  0
  111.4155  -74.2655  -80.5439 N   0  3  0  0  0  0  0  0  0  0  0  0
  112.1271  -75.1192  -79.5993 C   0  0  0  0  0  0  0  0  0  0  0  0
  110.9456  -73.0188  -79.9005 C   0  0  0  0  0  0  0  0  0  0  0  0
  112.7194  -80.5534  -87.4097 N   0  0  0  0  0  0  0  0  0  0  0  0
  113.3191  -81.5921  -86.5426 C   0  0  0  0  0  0  0  0  0  0  0  0
  112.6751  -81.0041  -88.8457 C   0  0  0  0  0  0  0  0  0  0  0  0
  1  2  1  0  0  0  0
  1 14  1  0  0  0  0
  1 21  2  0  0  0  0
  2  3  2  0  0  0  0
  3  4  1  0  0  0  0
  3 12  1  0  0  0  0
  4  5  1  0  0  0  0
  5  6  1  0  0  0  0
  5 10  2  0  0  0  0
  6  7  2  0  0  0  0
  7  8  1  0  0  0  0
  7 24  1  0  0  0  0
  8  9  2  0  0  0  0
  9 10  1  0  0  0  0
 10 11  1  0  0  0  0
 11 12  2  0  0  0  0
 11 15  1  0  0  0  0
 12 13  1  0  0  0  0
 13 14  2  0  0  0  0
 15 16  2  0  0  0  0
 15 20  1  0  0  0  0
 16 17  1  0  0  0  0
 17 18  2  0  0  0  0
 18 19  1  0  0  0  0
 19 20  2  0  0  0  0
 21 22  1  0  0  0  0
 21 23  1  0  0  0  0
 24 25  1  0  0  0  0
 24 26  1  0  0  0  0
M  CHG  1  21   1
M  END
>  <CHROM.1>
4.58300733,-123.64334623,111.08359761,-76.17826311,-85.32511791,-1.81372513
1.05470500,-2.08021232

>  <Name>
1f1t Malachite green aptamer (Xray 2.8A)

>  <RI>
0

>  <Rbt.Current_Directory>
/home/itssahil/PROJECTS/Mol_Feturizer/New_Systems/rnas/1f1t

>  <Rbt.Executable>
rbdock ($Id: //depot/dev/client3/rdock/2013.1/src/exe/rbdock.cxx#4 $)

>  <Rbt.Library>
libRbt.so (2013.1, Build901 2013/11/27)

>  <Rbt.Parameter_File>
/export/apps/rDock/src/rDock_2013.1_src/data/scripts/dock_solv.prm

>  <Rbt.Receptor>
prm/pocket_docking_2.prm

>  <SCORE>
-63.2988

>  <SCORE.INTER>
-63.3976

>  <SCORE.INTER.CONST>
1

>  <SCORE.INTER.POLAR>
0

>  <SCORE.INTER.ROT>
2

>  <SCORE.INTER.SOLV>
11.1385

>  <SCORE.INTER.VDW>
-50.9112

>  <SCORE.INTER.norm>
-2.43837

>  <SCORE.INTRA>
0.0988817

>  <SCORE.INTRA.DIHEDRAL>
-0.806931

>  <SCORE.INTRA.DIHEDRAL.0>
4.18538

>  <SCORE.INTRA.POLAR>
0

>  <SCORE.INTRA.POLAR.0>
0

>  <SCORE.INTRA.REPUL>
0

>  <SCORE.INTRA.REPUL.0>
0

>  <SCORE.INTRA.SOLV>
0.0147364

>  <SCORE.INTRA.SOLV.lig_0>
-5.16926

>  <SCORE.INTRA.VDW>
0.494979

>  <SCORE.INTRA.VDW.0>
1.11912

>  <SCORE.INTRA.norm>
0.00380314

>  <SCORE.RESTR>
0

>  <SCORE.RESTR.CAVITY>
0

>  <SCORE.RESTR.norm>
0

>  <SCORE.SYSTEM>
0

>  <SCORE.SYSTEM.CONST>
0

>  <SCORE.SYSTEM.DIHEDRAL>
0

>  <SCORE.SYSTEM.SOLV>
0

>  <SCORE.SYSTEM.norm>
0

>  <SCORE.heavy>
26

>  <SCORE.norm>
-2.43457

>  <RMSD>
0.663

$$$$
1f1t Malachite green aptamer (Xray 2.8A)
 OpenBabel11021811393D
libRbt.so/2013.1/901 2013/11/27
 26 29  0  0  0  0  0  0  0  0999 V2000
  111.2468  -74.6292  -81.8774 C   0  0  0  0  0  0  0  0  0  0  0  0
  111.7599  -75.8999  -82.3677 C   0  0  0  0  0  0  0  0  0  0  0  0
  111.4941  -76.1119  -83.7219 C   0  0  0  0  0  0  0  0  0  0  0  0
  112.0408  -77.4231  -84.1707 O   0  0  0  0  0  0  0  0  0  0  0  0
  111.8026  -77.6035  -85.4111 C   0  0  0  0  0  0  0  0  0  0  0  0
  112.3639  -78.9113  -85.7494 C   0  0  0  0  0  0  0  0  0  0  0  0
  112.1940  -79.2832  -87.1301 C   0  0  0  0  0  0  0  0  0  0  0  0
  111.5504  -78.4449  -88.0738 C   0  0  0  0  0  0  0  0  0  0  0  0
  111.0061  -77.1612  -87.6717 C   0  0  0  0  0  0  0  0  0  0  0  0
  111.1520  -76.7744  -86.2899 C   0  0  0  0  0  0  0  0  0  0  0  0
  110.5442  -75.4330  -85.9534 C   0  0  0  0  0  0  0  0  0  0  0  0
  110.8200  -75.2558  -84.5857 C   0  0  0  0  0  0  0  0  0  0  0  0
  110.3050  -73.9848  -84.0714 C   0  0  0  0  0  0  0  0  0  0  0  0
  110.5662  -73.7413  -82.6876 C   0  0  0  0  0  0  0  0  0  0  0  0
  109.8911  -74.6460  -86.8830 C   0  0  0  0  0  0  0  0  0  0  0  0
  110.2287  -73.3125  -87.2117 C   0  0  0  0  0  0  0  0  0  0  0  0
  109.5917  -72.5095  -88.1595 C   0  0  0  0  0  0  0  0  0  0  0  0
  108.4672  -73.0419  -88.9144 C   0  0  0  0  0  0  0  0  0  0  0  0
  108.1479  -74.3732  -88.5542 C   0  0  0  0  0  0  0  0  0  0  0  0
  108.7551  -75.2123  -87.6098 C   0  0  0  0  0  0  0  0  0  0  0  0
  111.4365  -74.2711  -80.5499 N   0  3  0  0  0  0  0  0  0  0  0  0
  112.1523  -75.1250  -79.6087 C   0  0  0  0  0  0  0  0  0  0  0  0
  110.9683  -73.0251  -79.9039 C   0  0  0  0  0  0  0  0  0  0  0  0
  112.7175  -80.5537  -87.4249 N   0  0  0  0  0  0  0  0  0  0  0  0
  113.3080  -81.5985  -86.5588 C   0  0  0  0  0  0  0  0  0  0  0  0
  112.6840  -80.9962  -88.8637 C   0  0  0  0  0  0  0  0  0  0  0  0
  1  2  1  0  0  0  0
  1 14  1  0  0  0  0
  1 21  2  0  0  0  0
  2  3  2  0  0  0  0
  3  4  1  0  0  0  0
  3 12  1  0  0  0  0
  4  5  1  0  0  0  0
  5  6  1  0  0  0  0
  5 10  2  0  0  0  0
  6  7  2  0  0  0  0
  7  8  1  0  0  0  0
  7 24  1  0  0  0  0
  8  9  2  0  0  0  0
  9 10  1  0  0  0  0
 10 11  1  0  0  0  0
 11 12  2  0  0  0  0
 11 15  1  0  0  0  0
 12 13  1  0  0  0  0
 13 14  2  0  0  0  0
 15 16  2  0  0  0  0
 15 20  1  0  0  0  0
 16 17  1  0  0  0  0
 17 18  2  0  0  0  0
 18 19  1  0  0  0  0
 19 20  2  0  0  0  0
 21 22  1  0  0  0  0
 21 23  1  0  0  0  0
 24 25  1  0  0  0  0
 24 26  1  0  0  0  0
M  CHG  1  21   1
M  END
>  <CHROM.1>
5.34433745,-123.10332910,111.08714657,-76.18091749,-85.33104208,-1.80797166
1.05229781,-2.08447565

>  <Name>
1f1t Malachite green aptamer (Xray 2.8A)

>  <RI>
0

>  <Rbt.Current_Directory>
/home/itssahil/PROJECTS/Mol_Feturizer/New_Systems/rnas/1f1t

>  <Rbt.Executable>
rbdock ($Id: //depot/dev/client3/rdock/2013.1/src/exe/rbdock.cxx#4 $)

>  <Rbt.Library>
libRbt.so (2013.1, Build901 2013/11/27)

>  <Rbt.Parameter_File>
/export/apps/rDock/src/rDock_2013.1_src/data/scripts/dock_solv.prm

>  <Rbt.Receptor>
prm/pocket_docking_3.prm

>  <SCORE>
-63.2966

>  <SCORE.INTER>
-63.3883

>  <SCORE.INTER.CONST>
1

>  <SCORE.INTER.POLAR>
0

>  <SCORE.INTER.ROT>
2

>  <SCORE.INTER.SOLV>
11.1283

>  <SCORE.INTER.VDW>
-50.9016

>  <SCORE.INTER.norm>
-2.43801

>  <SCORE.INTRA>
0.091741

>  <SCORE.INTRA.DIHEDRAL>
-0.736672

>  <SCORE.INTRA.DIHEDRAL.0>
4.18538

>  <SCORE.INTRA.POLAR>
0

>  <SCORE.INTRA.POLAR.0>
0

>  <SCORE.INTRA.REPUL>
0

>  <SCORE.INTRA.REPUL.0>
0

>  <SCORE.INTRA.SOLV>
0.0141079

>  <SCORE.INTRA.SOLV.lig_0>
-5.16926

>  <SCORE.INTRA.VDW>
0.453023

>  <SCORE.INTRA.VDW.0>
1.11912

>  <SCORE.INTRA.norm>
0.0035285

>  <SCORE.RESTR>
0

>  <SCORE.RESTR.CAVITY>
0

>  <SCORE.RESTR.norm>
0

>  <SCORE.SYSTEM>
0

>  <SCORE.SYSTEM.CONST>
0

>  <SCORE.SYSTEM.DIHEDRAL>
0

>  <SCORE.SYSTEM.SOLV>
0

>  <SCORE.SYSTEM.norm>
0

>  <SCORE.heavy>
26

>  <SCORE.norm>
-2.43448

>  <RMSD>
0.663

$$$$
1f1t Malachite green aptamer (Xray 2.8A)
 OpenBabel11021811393D
libRbt.so/2013.1/901 2013/11/27
 26 29  0  0  0  0  0  0  0  0999 V2000
  111.2726  -74.6940  -81.8742 C   0  0  0  0  0  0  0  0  0  0  0  0
  111.7875  -75.9551  -82.3871 C   0  0  0  0  0  0  0  0  0  0  0  0
  111.5202  -76.1441  -83.7443 C   0  0  0  0  0  0  0  0  0  0  0  0
  112.0689  -77.4462  -84.2165 O   0  0  0  0  0  0  0  0  0  0  0  0
  111.8293  -77.6056  -85.4596 C   0  0  0  0  0  0  0  0  0  0  0  0
  112.3926  -78.9062  -85.8212 C   0  0  0  0  0  0  0  0  0  0  0  0
  112.2216  -79.2545  -87.2079 C   0  0  0  0  0  0  0  0  0  0  0  0
  111.5750  -78.4013  -88.1361 C   0  0  0  0  0  0  0  0  0  0  0  0
  111.0289  -77.1258  -87.7111 C   0  0  0  0  0  0  0  0  0  0  0  0
  111.1759  -76.7627  -86.3230 C   0  0  0  0  0  0  0  0  0  0  0  0
  110.5660  -75.4285  -85.9626 C   0  0  0  0  0  0  0  0  0  0  0  0
  110.8432  -75.2745  -84.5923 C   0  0  0  0  0  0  0  0  0  0  0  0
  110.3265  -74.0136  -84.0554 C   0  0  0  0  0  0  0  0  0  0  0  0
  110.5892  -73.7935  -82.6680 C   0  0  0  0  0  0  0  0  0  0  0  0
  109.9101  -74.6269  -86.8775 C   0  0  0  0  0  0  0  0  0  0  0  0
  110.2580  -73.2943  -87.1993 C   0  0  0  0  0  0  0  0  0  0  0  0
  109.6181  -72.4766  -88.1325 C   0  0  0  0  0  0  0  0  0  0  0  0
  108.4788  -72.9907  -88.8779 C   0  0  0  0  0  0  0  0  0  0  0  0
  108.1496  -74.3214  -88.5248 C   0  0  0  0  0  0  0  0  0  0  0  0
  108.7592  -75.1749  -87.5949 C   0  0  0  0  0  0  0  0  0  0  0  0
  111.4634  -74.3586  -80.5409 N   0  3  0  0  0  0  0  0  0  0  0  0
  112.1821  -75.2272  -79.6156 C   0  0  0  0  0  0  0  0  0  0  0  0
  110.9936  -73.1249  -79.8728 C   0  0  0  0  0  0  0  0  0  0  0  0
  112.7471  -80.5187  -87.5254 N   0  0  0  0  0  0  0  0  0  0  0  0
  112.9367  -81.2069  -88.8219 C   0  0  0  0  0  0  0  0  0  0  0  0
  113.2393  -81.3674  -86.3832 C   0  0  0  0  0  0  0  0  0  0  0  0
  1  2  1  0  0  0  0
  1 14  1  0  0  0  0
  1 21  2  0  0  0  0
  2  3  2  0  0  0  0
  3  4  1  0  0  0  0
  3 12  1  0  0  0  0
  4  5  1  0  0  0  0
  5  6  1  0  0  0  0
  5 10  2  0  0  0  0
  6  7  2  0  0  0  0
  7  8  1  0  0  0  0
  7 24  1  0  0  0  0
  8  9  2  0  0  0  0
  9 10  1  0  0  0  0
 10 11  1  0  0  0  0
 11 12  2  0  0  0  0
 11 15  1  0  0  0  0
 12 13  1  0  0  0  0
 13 14  2  0  0  0  0
 15 16  2  0  0  0  0
 15 20  1  0  0  0  0
 16 17  1  0  0  0  0
 17 18  2  0  0  0  0
 18 19  1  0  0  0  0
 19 20  2  0  0  0  0
 21 22  1  0  0  0  0
 21 23  1  0  0  0  0
 24 25  1  0  0  0  0
 24 26  1  0  0  0  0
M  CHG  1  21   1
M  END
>  <CHROM.1>
-171.91031541,-122.01372271,111.11640192,-76.18868075,-85.33432957,-1.82044679
1.05048339,-2.06686712

>  <Name>
1f1t Malachite green aptamer (Xray 2.8A)

>  <RI>
0

>  <Rbt.Current_Directory>
/home/itssahil/PROJECTS/Mol_Feturizer/New_Systems/rnas/1f1t

>  <Rbt.Executable>
rbdock ($Id: //depot/dev/client3/rdock/2013.1/src/exe/rbdock.cxx#4 $)

>  <Rbt.Library>
libRbt.so (2013.1, Build901 2013/11/27)

>  <Rbt.Parameter_File>
/export/apps/rDock/src/rDock_2013.1_src/data/scripts/dock_solv.prm

>  <Rbt.Receptor>
prm/pocket_docking_5.prm

>  <SCORE>
-59.8881

>  <SCORE.INTER>
-63.2659

>  <SCORE.INTER.CONST>
1

>  <SCORE.INTER.POLAR>
0

>  <SCORE.INTER.ROT>
2

>  <SCORE.INTER.SOLV>
11.0495

>  <SCORE.INTER.VDW>
-50.7938

>  <SCORE.INTER.norm>
-2.4333

>  <SCORE.INTRA>
3.37779

>  <SCORE.INTRA.DIHEDRAL>
-0.51396

>  <SCORE.INTRA.DIHEDRAL.0>
4.18538

>  <SCORE.INTRA.POLAR>
0

>  <SCORE.INTRA.POLAR.0>
0

>  <SCORE.INTRA.REPUL>
0

>  <SCORE.INTRA.REPUL.0>
0

>  <SCORE.INTRA.SOLV>
0.0108995

>  <SCORE.INTRA.SOLV.lig_0>
-5.16926

>  <SCORE.INTRA.VDW>
3.62932

>  <SCORE.INTRA.VDW.0>
1.11912

>  <SCORE.INTRA.norm>
0.129915

>  <SCORE.RESTR>
0

>  <SCORE.RESTR.CAVITY>
0

>  <SCORE.RESTR.norm>
0

>  <SCORE.SYSTEM>
0

>  <SCORE.SYSTEM.CONST>
0

>  <SCORE.SYSTEM.DIHEDRAL>
0

>  <SCORE.SYSTEM.SOLV>
0

>  <SCORE.SYSTEM.norm>
0

>  <SCORE.heavy>
26

>  <SCORE.norm>
-2.30339

>  <RMSD>
0.666

$$$$
1f1t Malachite green aptamer (Xray 2.8A)
 OpenBabel11021811393D
libRbt.so/2013.1/901 2013/11/27
 26 29  0  0  0  0  0  0  0  0999 V2000
  111.2368  -74.6170  -81.8864 C   0  0  0  0  0  0  0  0  0  0  0  0
  111.7503  -75.8891  -82.3725 C   0  0  0  0  0  0  0  0  0  0  0  0
  111.4863  -76.1048  -83.7264 C   0  0  0  0  0  0  0  0  0  0  0  0
  112.0334  -77.4173  -84.1709 O   0  0  0  0  0  0  0  0  0  0  0  0
  111.7968  -77.6011  -85.4111 C   0  0  0  0  0  0  0  0  0  0  0  0
  112.3583  -78.9099  -85.7450 C   0  0  0  0  0  0  0  0  0  0  0  0
  112.1903  -79.2857  -87.1249 C   0  0  0  0  0  0  0  0  0  0  0  0
  111.5480  -78.4499  -88.0718 C   0  0  0  0  0  0  0  0  0  0  0  0
  111.0035  -77.1650  -87.6740 C   0  0  0  0  0  0  0  0  0  0  0  0
  111.1475  -76.7744  -86.2931 C   0  0  0  0  0  0  0  0  0  0  0  0
  110.5395  -75.4319  -85.9612 C   0  0  0  0  0  0  0  0  0  0  0  0
  110.8135  -75.2510  -84.5935 C   0  0  0  0  0  0  0  0  0  0  0  0
  110.2980  -73.9785  -84.0835 C   0  0  0  0  0  0  0  0  0  0  0  0
  110.5574  -73.7312  -82.7000 C   0  0  0  0  0  0  0  0  0  0  0  0
  109.8878  -74.6474  -86.8938 C   0  0  0  0  0  0  0  0  0  0  0  0
  110.2243  -73.3139  -87.2237 C   0  0  0  0  0  0  0  0  0  0  0  0
  109.5887  -72.5134  -88.1745 C   0  0  0  0  0  0  0  0  0  0  0  0
  108.4671  -73.0487  -88.9316 C   0  0  0  0  0  0  0  0  0  0  0  0
  108.1488  -74.3799  -88.5702 C   0  0  0  0  0  0  0  0  0  0  0  0
  108.7546  -75.2166  -87.6228 C   0  0  0  0  0  0  0  0  0  0  0  0
  111.4247  -74.2552  -80.5597 N   0  3  0  0  0  0  0  0  0  0  0  0
  112.1391  -75.1066  -79.6151 C   0  0  0  0  0  0  0  0  0  0  0  0
  110.9558  -73.0074  -79.9177 C   0  0  0  0  0  0  0  0  0  0  0  0
  112.7140  -80.5571  -87.4155 N   0  0  0  0  0  0  0  0  0  0  0  0
  113.3159  -81.5938  -86.5477 C   0  0  0  0  0  0  0  0  0  0  0  0
  112.6668  -81.0105  -88.8505 C   0  0  0  0  0  0  0  0  0  0  0  0
  1  2  1  0  0  0  0
  1 14  1  0  0  0  0
  1 21  2  0  0  0  0
  2  3  2  0  0  0  0
  3  4  1  0  0  0  0
  3 12  1  0  0  0  0
  4  5  1  0  0  0  0
  5  6  1  0  0  0  0
  5 10  2  0  0  0  0
  6  7  2  0  0  0  0
  7  8  1  0  0  0  0
  7 24  1  0  0  0  0
  8  9  2  0  0  0  0
  9 10  1  0  0  0  0
 10 11  1  0  0  0  0
 11 12  2  0  0  0  0
 11 15  1  0  0  0  0
 12 13  1  0  0  0  0
 13 14  2  0  0  0  0
 15 16  2  0  0  0  0
 15 20  1  0  0  0  0
 16 17  1  0  0  0  0
 17 18  2  0  0  0  0
 18 19  1  0  0  0  0
 19 20  2  0  0  0  0
 21 22  1  0  0  0  0
 21 23  1  0  0  0  0
 24 25  1  0  0  0  0
 24 26  1  0  0  0  0
M  CHG  1  21   1
M  END
>  <CHROM.1>
4.61055064,-123.24539826,111.08140597,-76.17827349,-85.33594961,-1.80976153
1.05298778,-2.08575018

>  <Name>
1f1t Malachite green aptamer (Xray 2.8A)

>  <RI>
0

>  <Rbt.Current_Directory>
/home/itssahil/PROJECTS/Mol_Feturizer/New_Systems/rnas/1f1t

>  <Rbt.Executable>
rbdock ($Id: //depot/dev/client3/rdock/2013.1/src/exe/rbdock.cxx#4 $)

>  <Rbt.Library>
libRbt.so (2013.1, Build901 2013/11/27)

>  <Rbt.Parameter_File>
/export/apps/rDock/src/rDock_2013.1_src/data/scripts/dock_solv.prm

>  <Rbt.Receptor>
prm/pocket_docking_6.prm

>  <SCORE>
-63.292

>  <SCORE.INTER>
-63.3819

>  <SCORE.INTER.CONST>
1

>  <SCORE.INTER.POLAR>
0

>  <SCORE.INTER.ROT>
2

>  <SCORE.INTER.SOLV>
11.1523

>  <SCORE.INTER.VDW>
-50.9053

>  <SCORE.INTER.norm>
-2.43776

>  <SCORE.INTRA>
0.0898844

>  <SCORE.INTRA.DIHEDRAL>
-0.775165

>  <SCORE.INTRA.DIHEDRAL.0>
4.18538

>  <SCORE.INTRA.POLAR>
0

>  <SCORE.INTRA.POLAR.0>
0

>  <SCORE.INTRA.REPUL>
0

>  <SCORE.INTRA.REPUL.0>
0

>  <SCORE.INTRA.SOLV>
0.0142728

>  <SCORE.INTRA.SOLV.lig_0>
-5.16926

>  <SCORE.INTRA.VDW>
0.470331

>  <SCORE.INTRA.VDW.0>
1.11912

>  <SCORE.INTRA.norm>
0.00345709

>  <SCORE.RESTR>
0

>  <SCORE.RESTR.CAVITY>
0

>  <SCORE.RESTR.norm>
0

>  <SCORE.SYSTEM>
0

>  <SCORE.SYSTEM.CONST>
0

>  <SCORE.SYSTEM.DIHEDRAL>
0

>  <SCORE.SYSTEM.SOLV>
0

>  <SCORE.SYSTEM.norm>
0

>  <SCORE.heavy>
26

>  <SCORE.norm>
-2.43431

>  <RMSD>
0.669

$$$$
1f1t Malachite green aptamer (Xray 2.8A)
 OpenBabel11021811393D
libRbt.so/2013.1/901 2013/11/27
 26 29  0  0  0  0  0  0  0  0999 V2000
  111.2392  -74.6194  -81.8868 C   0  0  0  0  0  0  0  0  0  0  0  0
  111.7519  -75.8916  -82.3736 C   0  0  0  0  0  0  0  0  0  0  0  0
  111.4883  -76.1060  -83.7278 C   0  0  0  0  0  0  0  0  0  0  0  0
  112.0345  -77.4186  -84.1730 O   0  0  0  0  0  0  0  0  0  0  0  0
  111.7984  -77.6013  -85.4135 C   0  0  0  0  0  0  0  0  0  0  0  0
  112.3589  -78.9103  -85.7481 C   0  0  0  0  0  0  0  0  0  0  0  0
  112.1912  -79.2849  -87.1284 C   0  0  0  0  0  0  0  0  0  0  0  0
  111.5501  -78.4479  -88.0750 C   0  0  0  0  0  0  0  0  0  0  0  0
  111.0065  -77.1628  -87.6764 C   0  0  0  0  0  0  0  0  0  0  0  0
  111.1502  -76.7733  -86.2952 C   0  0  0  0  0  0  0  0  0  0  0  0
  110.5432  -75.4306  -85.9625 C   0  0  0  0  0  0  0  0  0  0  0  0
  110.8166  -75.2510  -84.5946 C   0  0  0  0  0  0  0  0  0  0  0  0
  110.3020  -73.9785  -84.0838 C   0  0  0  0  0  0  0  0  0  0  0  0
  110.5610  -73.7324  -82.7001 C   0  0  0  0  0  0  0  0  0  0  0  0
  109.8926  -74.6449  -86.8949 C   0  0  0  0  0  0  0  0  0  0  0  0
  110.2338  -73.3133  -87.2277 C   0  0  0  0  0  0  0  0  0  0  0  0
  109.5994  -72.5116  -88.1783 C   0  0  0  0  0  0  0  0  0  0  0  0
  108.4738  -73.0435  -88.9319 C   0  0  0  0  0  0  0  0  0  0  0  0
  108.1507  -74.3727  -88.5676 C   0  0  0  0  0  0  0  0  0  0  0  0
  108.7553  -75.2105  -87.6203 C   0  0  0  0  0  0  0  0  0  0  0  0
  111.4268  -74.2588  -80.5597 N   0  3  0  0  0  0  0  0  0  0  0  0
  112.1400  -75.1115  -79.6155 C   0  0  0  0  0  0  0  0  0  0  0  0
  110.9587  -73.0110  -79.9170 C   0  0  0  0  0  0  0  0  0  0  0  0
  112.7140  -80.5565  -87.4197 N   0  0  0  0  0  0  0  0  0  0  0  0
  113.3016  -81.6002  -86.5504 C   0  0  0  0  0  0  0  0  0  0  0  0
  112.6828  -81.0018  -88.8577 C   0  0  0  0  0  0  0  0  0  0  0  0
  1  2  1  0  0  0  0
  1 14  1  0  0  0  0
  1 21  2  0  0  0  0
  2  3  2  0  0  0  0
  3  4  1  0  0  0  0
  3 12  1  0  0  0  0
  4  5  1  0  0  0  0
  5  6  1  0  0  0  0
  5 10  2  0  0  0  0
  6  7  2  0  0  0  0
  7  8  1  0  0  0  0
  7 24  1  0  0  0  0
  8  9  2  0  0  0  0
  9 10  1  0  0  0  0
 10 11  1  0  0  0  0
 11 12  2  0  0  0  0
 11 15  1  0  0  0  0
 12 13  1  0  0  0  0
 13 14  2  0  0  0  0
 15 16  2  0  0  0  0
 15 20  1  0  0  0  0
 16 17  1  0  0  0  0
 17 18  2  0  0  0  0
 18 19  1  0  0  0  0
 19 20  2  0  0  0  0
 21 22  1  0  0  0  0
 21 23  1  0  0  0  0
 24 25  1  0  0  0  0
 24 26  1  0  0  0  0
M  CHG  1  21   1
M  END
>  <CHROM.1>
5.35523717,-122.95999830,111.08420434,-76.17785558,-85.33760246,-1.81020652
1.05405499,-2.08453741

>  <Name>
1f1t Malachite green aptamer (Xray 2.8A)

>  <RI>
0

>  <Rbt.Current_Directory>
/home/itssahil/PROJECTS/Mol_Feturizer/New_Systems/rnas/1f1t

>  <Rbt.Executable>
rbdock ($Id: //depot/dev/client3/rdock/2013.1/src/exe/rbdock.cxx#4 $)

>  <Rbt.Library>
libRbt.so (2013.1, Build901 2013/11/27)

>  <Rbt.Parameter_File>
/export/apps/rDock/src/rDock_2013.1_src/data/scripts/dock_solv.prm

>  <Rbt.Receptor>
prm/pocket_docking_2.prm

>  <SCORE>
-63.2799

>  <SCORE.INTER>
-63.3686

>  <SCORE.INTER.CONST>
1

>  <SCORE.INTER.POLAR>
0

>  <SCORE.INTER.ROT>
2

>  <SCORE.INTER.SOLV>
11.1485

>  <SCORE.INTER.VDW>
-50.8952

>  <SCORE.INTER.norm>
-2.43725

>  <SCORE.INTRA>
0.0887367

>  <SCORE.INTRA.DIHEDRAL>
-0.725201

>  <SCORE.INTRA.DIHEDRAL.0>
4.18538

>  <SCORE.INTRA.POLAR>
0

>  <SCORE.INTRA.POLAR.0>
0

>  <SCORE.INTRA.REPUL>
0

>  <SCORE.INTRA.REPUL.0>
0

>  <SCORE.INTRA.SOLV>
0.0139406

>  <SCORE.INTRA.SOLV.lig_0>
-5.16926

>  <SCORE.INTRA.VDW>
0.444367

>  <SCORE.INTRA.VDW.0>
1.11912

>  <SCORE.INTRA.norm>
0.00341295

>  <SCORE.RESTR>
0

>  <SCORE.RESTR.CAVITY>
0

>  <SCORE.RESTR.norm>
0

>  <SCORE.SYSTEM>
0

>  <SCORE.SYSTEM.CONST>
0

>  <SCORE.SYSTEM.DIHEDRAL>
0

>  <SCORE.SYSTEM.SOLV>
0

>  <SCORE.SYSTEM.norm>
0

>  <SCORE.heavy>
26

>  <SCORE.norm>
-2.43384

>  <RMSD>
0.671

$$$$
1f1t Malachite green aptamer (Xray 2.8A)
 OpenBabel11021811393D
libRbt.so/2013.1/901 2013/11/27
 26 29  0  0  0  0  0  0  0  0999 V2000
  111.1965  -74.6240  -81.9231 C   0  0  0  0  0  0  0  0  0  0  0  0
  111.7234  -75.8963  -82.3942 C   0  0  0  0  0  0  0  0  0  0  0  0
  111.4644  -76.1293  -83.7462 C   0  0  0  0  0  0  0  0  0  0  0  0
  112.0251  -77.4412  -84.1752 O   0  0  0  0  0  0  0  0  0  0  0  0
  111.7930  -77.6408  -85.4138 C   0  0  0  0  0  0  0  0  0  0  0  0
  112.3678  -78.9476  -85.7323 C   0  0  0  0  0  0  0  0  0  0  0  0
  112.2064  -79.3400  -87.1084 C   0  0  0  0  0  0  0  0  0  0  0  0
  111.5582  -78.5208  -88.0656 C   0  0  0  0  0  0  0  0  0  0  0  0
  111.0004  -77.2370  -87.6830 C   0  0  0  0  0  0  0  0  0  0  0  0
  111.1377  -76.8300  -86.3061 C   0  0  0  0  0  0  0  0  0  0  0  0
  110.5161  -75.4899  -85.9901 C   0  0  0  0  0  0  0  0  0  0  0  0
  110.7853  -75.2915  -84.6240 C   0  0  0  0  0  0  0  0  0  0  0  0
  110.2565  -74.0186  -84.1289 C   0  0  0  0  0  0  0  0  0  0  0  0
  110.5105  -73.7537  -82.7477 C   0  0  0  0  0  0  0  0  0  0  0  0
  109.8588  -74.7220  -86.9326 C   0  0  0  0  0  0  0  0  0  0  0  0
  108.8181  -75.1726  -87.7777 C   0  0  0  0  0  0  0  0  0  0  0  0
  108.1318  -74.4071  -88.7221 C   0  0  0  0  0  0  0  0  0  0  0  0
  108.4753  -73.0039  -88.8975 C   0  0  0  0  0  0  0  0  0  0  0  0
  109.5268  -72.5875  -88.0460 C   0  0  0  0  0  0  0  0  0  0  0  0
  110.2440  -73.3198  -87.0899 C   0  0  0  0  0  0  0  0  0  0  0  0
  111.3781  -74.2460  -80.6000 N   0  3  0  0  0  0  0  0  0  0  0  0
  112.0986  -75.0801  -79.6447 C   0  0  0  0  0  0  0  0  0  0  0  0
  110.8958  -72.9958  -79.9726 C   0  0  0  0  0  0  0  0  0  0  0  0
  112.7429  -80.6094  -87.3840 N   0  0  0  0  0  0  0  0  0  0  0  0
  113.3367  -81.6382  -86.5012 C   0  0  0  0  0  0  0  0  0  0  0  0
  112.7229  -81.0699  -88.8174 C   0  0  0  0  0  0  0  0  0  0  0  0
  1  2  1  0  0  0  0
  1 14  1  0  0  0  0
  1 21  2  0  0  0  0
  2  3  2  0  0  0  0
  3  4  1  0  0  0  0
  3 12  1  0  0  0  0
  4  5  1  0  0  0  0
  5  6  1  0  0  0  0
  5 10  2  0  0  0  0
  6  7  2  0  0  0  0
  7  8  1  0  0  0  0
  7 24  1  0  0  0  0
  8  9  2  0  0  0  0
  9 10  1  0  0  0  0
 10 11  1  0  0  0  0
 11 12  2  0  0  0  0
 11 15  1  0  0  0  0
 12 13  1  0  0  0  0
 13 14  2  0  0  0  0
 15 16  2  0  0  0  0
 15 20  1  0  0  0  0
 16 17  1  0  0  0  0
 17 18  2  0  0  0  0
 18 19  1  0  0  0  0
 19 20  2  0  0  0  0
 21 22  1  0  0  0  0
 21 23  1  0  0  0  0
 24 25  1  0  0  0  0
 24 26  1  0  0  0  0
M  CHG  1  21   1
M  END
>  <CHROM.1>
5.54422180,51.82766062,111.07107811,-76.20658895,-85.34646175,-1.84236201
1.05058994,-2.08309197

>  <Name>
1f1t Malachite green aptamer (Xray 2.8A)

>  <RI>
0

>  <Rbt.Current_Directory>
/home/itssahil/PROJECTS/Mol_Feturizer/New_Systems/rnas/1f1t

>  <Rbt.Executable>
rbdock ($Id: //depot/dev/client3/rdock/2013.1/src/exe/rbdock.cxx#4 $)

>  <Rbt.Library>
libRbt.so (2013.1, Build901 2013/11/27)

>  <Rbt.Parameter_File>
/export/apps/rDock/src/rDock_2013.1_src/data/scripts/dock_solv.prm

>  <Rbt.Receptor>
prm/pocket_docking_7.prm

>  <SCORE>
-62.8513

>  <SCORE.INTER>
-62.9244

>  <SCORE.INTER.CONST>
1

>  <SCORE.INTER.POLAR>
0

>  <SCORE.INTER.ROT>
2

>  <SCORE.INTER.SOLV>
11.1194

>  <SCORE.INTER.VDW>
-50.5894

>  <SCORE.INTER.norm>
-2.42017

>  <SCORE.INTRA>
0.0731608

>  <SCORE.INTRA.DIHEDRAL>
-1.13167

>  <SCORE.INTRA.DIHEDRAL.0>
4.18538

>  <SCORE.INTRA.POLAR>
0

>  <SCORE.INTRA.POLAR.0>
0

>  <SCORE.INTRA.REPUL>
0

>  <SCORE.INTRA.REPUL.0>
0

>  <SCORE.INTRA.SOLV>
0.0198775

>  <SCORE.INTRA.SOLV.lig_0>
-5.16926

>  <SCORE.INTRA.VDW>
0.629059

>  <SCORE.INTRA.VDW.0>
1.11912

>  <SCORE.INTRA.norm>
0.00281388

>  <SCORE.RESTR>
0

>  <SCORE.RESTR.CAVITY>
0

>  <SCORE.RESTR.norm>
0

>  <SCORE.SYSTEM>
0

>  <SCORE.SYSTEM.CONST>
0

>  <SCORE.SYSTEM.DIHEDRAL>
0

>  <SCORE.SYSTEM.SOLV>
0

>  <SCORE.SYSTEM.norm>
0

>  <SCORE.heavy>
26

>  <SCORE.norm>
-2.41736

>  <RMSD>
0.672

$$$$
1f1t Malachite green aptamer (Xray 2.8A)
 OpenBabel11021811393D
libRbt.so/2013.1/901 2013/11/27
 26 29  0  0  0  0  0  0  0  0999 V2000
  111.2217  -74.6048  -81.8721 C   0  0  0  0  0  0  0  0  0  0  0  0
  111.7336  -75.8796  -82.3530 C   0  0  0  0  0  0  0  0  0  0  0  0
  111.4816  -76.0942  -83.7093 C   0  0  0  0  0  0  0  0  0  0  0  0
  112.0264  -77.4096  -84.1482 O   0  0  0  0  0  0  0  0  0  0  0  0
  111.8009  -77.5925  -85.3906 C   0  0  0  0  0  0  0  0  0  0  0  0
  112.3591  -78.9042  -85.7189 C   0  0  0  0  0  0  0  0  0  0  0  0
  112.2025  -79.2794  -87.1003 C   0  0  0  0  0  0  0  0  0  0  0  0
  111.5736  -78.4407  -88.0534 C   0  0  0  0  0  0  0  0  0  0  0  0
  111.0316  -77.1530  -87.6612 C   0  0  0  0  0  0  0  0  0  0  0  0
  111.1643  -76.7628  -86.2790 C   0  0  0  0  0  0  0  0  0  0  0  0
  110.5598  -75.4172  -85.9532 C   0  0  0  0  0  0  0  0  0  0  0  0
  110.8214  -75.2373  -84.5830 C   0  0  0  0  0  0  0  0  0  0  0  0
  110.3075  -73.9622  -84.0783 C   0  0  0  0  0  0  0  0  0  0  0  0
  110.5548  -73.7158  -82.6924 C   0  0  0  0  0  0  0  0  0  0  0  0
  109.9211  -74.6297  -86.8923 C   0  0  0  0  0  0  0  0  0  0  0  0
  110.2726  -73.3008  -87.2251 C   0  0  0  0  0  0  0  0  0  0  0  0
  109.6502  -72.4975  -88.1823 C   0  0  0  0  0  0  0  0  0  0  0  0
  108.5276  -73.0245  -88.9437 C   0  0  0  0  0  0  0  0  0  0  0  0
  108.1941  -74.3511  -88.5793 C   0  0  0  0  0  0  0  0  0  0  0  0
  108.7864  -75.1903  -87.6255 C   0  0  0  0  0  0  0  0  0  0  0  0
  111.3987  -74.2436  -80.5437 N   0  3  0  0  0  0  0  0  0  0  0  0
  112.0997  -75.0983  -79.5921 C   0  0  0  0  0  0  0  0  0  0  0  0
  110.9299  -72.9933  -79.9065 C   0  0  0  0  0  0  0  0  0  0  0  0
  112.7226  -80.5535  -87.3855 N   0  0  0  0  0  0  0  0  0  0  0  0
  113.3260  -81.5864  -86.5141 C   0  0  0  0  0  0  0  0  0  0  0  0
  112.6688  -81.0152  -88.8176 C   0  0  0  0  0  0  0  0  0  0  0  0
  1  2  1  0  0  0  0
  1 14  1  0  0  0  0
  1 21  2  0  0  0  0
  2  3  2  0  0  0  0
  3  4  1  0  0  0  0
  3 12  1  0  0  0  0
  4  5  1  0  0  0  0
  5  6  1  0  0  0  0
  5 10  2  0  0  0  0
  6  7  2  0  0  0  0
  7  8  1  0  0  0  0
  7 24  1  0  0  0  0
  8  9  2  0  0  0  0
  9 10  1  0  0  0  0
 10 11  1  0  0  0  0
 11 12  2  0  0  0  0
 11 15  1  0  0  0  0
 12 13  1  0  0  0  0
 13 14  2  0  0  0  0
 15 16  2  0  0  0  0
 15 20  1  0  0  0  0
 16 17  1  0  0  0  0
 17 18  2  0  0  0  0
 18 19  1  0  0  0  0
 19 20  2  0  0  0  0
 21 22  1  0  0  0  0
 21 23  1  0  0  0  0
 24 25  1  0  0  0  0
 24 26  1  0  0  0  0
M  CHG  1  21   1
M  END
>  <CHROM.1>
3.74686915,-122.82971873,111.09171884,-76.16617074,-85.32260159,-1.82158200
1.06184753,-2.07573117

>  <Name>
1f1t Malachite green aptamer (Xray 2.8A)

>  <RI>
0

>  <Rbt.Current_Directory>
/home/itssahil/PROJECTS/Mol_Feturizer/New_Systems/rnas/1f1t

>  <Rbt.Executable>
rbdock ($Id: //depot/dev/client3/rdock/2013.1/src/exe/rbdock.cxx#4 $)

>  <Rbt.Library>
libRbt.so (2013.1, Build901 2013/11/27)

>  <Rbt.Parameter_File>
/export/apps/rDock/src/rDock_2013.1_src/data/scripts/dock_solv.prm

>  <Rbt.Receptor>
prm/pocket_docking_2.prm

>  <SCORE>
-63.2269

>  <SCORE.INTER>
-63.3029

>  <SCORE.INTER.CONST>
1

>  <SCORE.INTER.POLAR>
0

>  <SCORE.INTER.ROT>
2

>  <SCORE.INTER.SOLV>
11.1892

>  <SCORE.INTER.VDW>
-50.865

>  <SCORE.INTER.norm>
-2.43473

>  <SCORE.INTRA>
0.0760287

>  <SCORE.INTRA.DIHEDRAL>
-0.770267

>  <SCORE.INTRA.DIHEDRAL.0>
4.18538

>  <SCORE.INTRA.POLAR>
0

>  <SCORE.INTRA.POLAR.0>
0

>  <SCORE.INTRA.REPUL>
0

>  <SCORE.INTRA.REPUL.0>
0

>  <SCORE.INTRA.SOLV>
0.0137871

>  <SCORE.INTRA.SOLV.lig_0>
-5.16926

>  <SCORE.INTRA.VDW>
0.454269

>  <SCORE.INTRA.VDW.0>
1.11912

>  <SCORE.INTRA.norm>
0.00292418

>  <SCORE.RESTR>
0

>  <SCORE.RESTR.CAVITY>
0

>  <SCORE.RESTR.norm>
0

>  <SCORE.SYSTEM>
0

>  <SCORE.SYSTEM.CONST>
0

>  <SCORE.SYSTEM.DIHEDRAL>
0

>  <SCORE.SYSTEM.SOLV>
0

>  <SCORE.SYSTEM.norm>
0

>  <SCORE.heavy>
26

>  <SCORE.norm>
-2.4318

>  <RMSD>
0.674

$$$$
1f1t Malachite green aptamer (Xray 2.8A)
 OpenBabel11021811393D
libRbt.so/2013.1/901 2013/11/27
 26 29  0  0  0  0  0  0  0  0999 V2000
  111.1966  -74.6296  -81.8924 C   0  0  0  0  0  0  0  0  0  0  0  0
  111.7153  -75.9001  -82.3771 C   0  0  0  0  0  0  0  0  0  0  0  0
  111.4612  -76.1137  -83.7333 C   0  0  0  0  0  0  0  0  0  0  0  0
  112.0133  -77.4247  -84.1762 O   0  0  0  0  0  0  0  0  0  0  0  0
  111.7858  -77.6065  -85.4184 C   0  0  0  0  0  0  0  0  0  0  0  0
  112.3514  -78.9140  -85.7507 C   0  0  0  0  0  0  0  0  0  0  0  0
  112.1937  -79.2874  -87.1324 C   0  0  0  0  0  0  0  0  0  0  0  0
  111.5571  -78.4508  -88.0823 C   0  0  0  0  0  0  0  0  0  0  0  0
  111.0080  -77.1673  -87.6861 C   0  0  0  0  0  0  0  0  0  0  0  0
  111.1417  -76.7790  -86.3035 C   0  0  0  0  0  0  0  0  0  0  0  0
  110.5295  -75.4380  -85.9734 C   0  0  0  0  0  0  0  0  0  0  0  0
  110.7935  -75.2592  -84.6036 C   0  0  0  0  0  0  0  0  0  0  0  0
  110.2727  -73.9884  -84.0949 C   0  0  0  0  0  0  0  0  0  0  0  0
  110.5219  -73.7432  -82.7092 C   0  0  0  0  0  0  0  0  0  0  0  0
  109.8834  -74.6527  -86.9093 C   0  0  0  0  0  0  0  0  0  0  0  0
  110.2250  -73.3205  -87.2396 C   0  0  0  0  0  0  0  0  0  0  0  0
  109.5951  -72.5193  -88.1936 C   0  0  0  0  0  0  0  0  0  0  0  0
  108.4747  -73.0522  -88.9540 C   0  0  0  0  0  0  0  0  0  0  0  0
  108.1511  -74.3820  -88.5921 C   0  0  0  0  0  0  0  0  0  0  0  0
  108.7511  -75.2194  -87.6416 C   0  0  0  0  0  0  0  0  0  0  0  0
  111.3746  -74.2700  -80.5637 N   0  3  0  0  0  0  0  0  0  0  0  0
  112.0834  -75.1221  -79.6156 C   0  0  0  0  0  0  0  0  0  0  0  0
  110.8994  -73.0240  -79.9228 C   0  0  0  0  0  0  0  0  0  0  0  0
  112.7212  -80.5576  -87.4216 N   0  0  0  0  0  0  0  0  0  0  0  0
  113.3122  -81.5979  -86.5505 C   0  0  0  0  0  0  0  0  0  0  0  0
  112.6923  -81.0051  -88.8589 C   0  0  0  0  0  0  0  0  0  0  0  0
  1  2  1  0  0  0  0
  1 14  1  0  0  0  0
  1 21  2  0  0  0  0
  2  3  2  0  0  0  0
  3  4  1  0  0  0  0
  3 12  1  0  0  0  0
  4  5  1  0  0  0  0
  5  6  1  0  0  0  0
  5 10  2  0  0  0  0
  6  7  2  0  0  0  0
  7  8  1  0  0  0  0
  7 24  1  0  0  0  0
  8  9  2  0  0  0  0
  9 10  1  0  0  0  0
 10 11  1  0  0  0  0
 11 12  2  0  0  0  0
 11 15  1  0  0  0  0
 12 13  1  0  0  0  0
 13 14  2  0  0  0  0
 15 16  2  0  0  0  0
 15 20  1  0  0  0  0
 16 17  1  0  0  0  0
 17 18  2  0  0  0  0
 18 19  1  0  0  0  0
 19 20  2  0  0  0  0
 21 22  1  0  0  0  0
 21 23  1  0  0  0  0
 24 25  1  0  0  0  0
 24 26  1  0  0  0  0
M  CHG  1  21   1
M  END
>  <CHROM.1>
4.96214369,-122.87936144,111.06794485,-76.18475007,-85.34571940,-1.82396348
1.05529890,-2.07153568

>  <Name>
1f1t Malachite green aptamer (Xray 2.8A)

>  <RI>
0

>  <Rbt.Current_Directory>
/home/itssahil/PROJECTS/Mol_Feturizer/New_Systems/rnas/1f1t

>  <Rbt.Executable>
rbdock ($Id: //depot/dev/client3/rdock/2013.1/src/exe/rbdock.cxx#4 $)

>  <Rbt.Library>
libRbt.so (2013.1, Build901 2013/11/27)

>  <Rbt.Parameter_File>
/export/apps/rDock/src/rDock_2013.1_src/data/scripts/dock_solv.prm

>  <Rbt.Receptor>
prm/pocket_docking_7.prm

>  <SCORE>
-63.2688

>  <SCORE.INTER>
-63.3531

>  <SCORE.INTER.CONST>
1

>  <SCORE.INTER.POLAR>
0

>  <SCORE.INTER.ROT>
2

>  <SCORE.INTER.SOLV>
11.1476

>  <SCORE.INTER.VDW>
-50.8846

>  <SCORE.INTER.norm>
-2.43666

>  <SCORE.INTRA>
0.0842619

>  <SCORE.INTRA.DIHEDRAL>
-0.734304

>  <SCORE.INTRA.DIHEDRAL.0>
4.18538

>  <SCORE.INTRA.POLAR>
0

>  <SCORE.INTRA.POLAR.0>
0

>  <SCORE.INTRA.REPUL>
0

>  <SCORE.INTRA.REPUL.0>
0

>  <SCORE.INTRA.SOLV>
0.0138458

>  <SCORE.INTRA.SOLV.lig_0>
-5.16926

>  <SCORE.INTRA.VDW>
0.444491

>  <SCORE.INTRA.VDW.0>
1.11912

>  <SCORE.INTRA.norm>
0.00324084

>  <SCORE.RESTR>
0

>  <SCORE.RESTR.CAVITY>
0

>  <SCORE.RESTR.norm>
0

>  <SCORE.SYSTEM>
0

>  <SCORE.SYSTEM.CONST>
0

>  <SCORE.SYSTEM.DIHEDRAL>
0

>  <SCORE.SYSTEM.SOLV>
0

>  <SCORE.SYSTEM.norm>
0

>  <SCORE.heavy>
26

>  <SCORE.norm>
-2.43342

>  <RMSD>
0.674

$$$$
1f1t Malachite green aptamer (Xray 2.8A)
 OpenBabel11021811393D
libRbt.so/2013.1/901 2013/11/27
 26 29  0  0  0  0  0  0  0  0999 V2000
  111.1476  -74.5840  -81.9207 C   0  0  0  0  0  0  0  0  0  0  0  0
  111.6872  -75.8556  -82.3793 C   0  0  0  0  0  0  0  0  0  0  0  0
  111.4394  -76.0998  -83.7315 C   0  0  0  0  0  0  0  0  0  0  0  0
  112.0128  -77.4104  -84.1474 O   0  0  0  0  0  0  0  0  0  0  0  0
  111.7908  -77.6202  -85.3862 C   0  0  0  0  0  0  0  0  0  0  0  0
  112.3775  -78.9249  -85.6916 C   0  0  0  0  0  0  0  0  0  0  0  0
  112.2286  -79.3280  -87.0660 C   0  0  0  0  0  0  0  0  0  0  0  0
  111.5811  -78.5202  -88.0334 C   0  0  0  0  0  0  0  0  0  0  0  0
  111.0112  -77.2380  -87.6636 C   0  0  0  0  0  0  0  0  0  0  0  0
  111.1358  -76.8205  -86.2887 C   0  0  0  0  0  0  0  0  0  0  0  0
  110.5021  -75.4830  -85.9863 C   0  0  0  0  0  0  0  0  0  0  0  0
  110.7602  -75.2732  -84.6197 C   0  0  0  0  0  0  0  0  0  0  0  0
  110.2186  -74.0008  -84.1372 C   0  0  0  0  0  0  0  0  0  0  0  0
  110.4609  -73.7246  -82.7561 C   0  0  0  0  0  0  0  0  0  0  0  0
  109.8458  -74.7265  -86.9386 C   0  0  0  0  0  0  0  0  0  0  0  0
  108.8104  -75.1891  -87.7838 C   0  0  0  0  0  0  0  0  0  0  0  0
  108.1251  -74.4351  -88.7382 C   0  0  0  0  0  0  0  0  0  0  0  0
  108.4637  -73.0322  -88.9252 C   0  0  0  0  0  0  0  0  0  0  0  0
  109.5100  -72.6037  -88.0732 C   0  0  0  0  0  0  0  0  0  0  0  0
  110.2261  -73.3242  -87.1074 C   0  0  0  0  0  0  0  0  0  0  0  0
  111.3171  -74.1956  -80.5991 N   0  3  0  0  0  0  0  0  0  0  0  0
  112.0371  -75.0177  -79.6331 C   0  0  0  0  0  0  0  0  0  0  0  0
  110.8212  -72.9448  -79.9837 C   0  0  0  0  0  0  0  0  0  0  0  0
  112.7765  -80.5952  -87.3291 N   0  0  0  0  0  0  0  0  0  0  0  0
  113.3382  -81.6287  -86.4310 C   0  0  0  0  0  0  0  0  0  0  0  0
  112.8102  -81.0470  -88.7650 C   0  0  0  0  0  0  0  0  0  0  0  0
  1  2  1  0  0  0  0
  1 14  1  0  0  0  0
  1 21  2  0  0  0  0
  2  3  2  0  0  0  0
  3  4  1  0  0  0  0
  3 12  1  0  0  0  0
  4  5  1  0  0  0  0
  5  6  1  0  0  0  0
  5 10  2  0  0  0  0
  6  7  2  0  0  0  0
  7  8  1  0  0  0  0
  7 24  1  0  0  0  0
  8  9  2  0  0  0  0
  9 10  1  0  0  0  0
 10 11  1  0  0  0  0
 11 12  2  0  0  0  0
 11 15  1  0  0  0  0
 12 13  1  0  0  0  0
 13 14  2  0  0  0  0
 15 16  2  0  0  0  0
 15 20  1  0  0  0  0
 16 17  1  0  0  0  0
 17 18  2  0  0  0  0
 18 19  1  0  0  0  0
 19 20  2  0  0  0  0
 21 22  1  0  0  0  0
 21 23  1  0  0  0  0
 24 25  1  0  0  0  0
 24 26  1  0  0  0  0
M  CHG  1  21   1
M  END
>  <CHROM.1>
7.46162376,52.11627007,111.05820265,-76.19089491,-85.33393498,-1.86289036
1.04783491,-2.07202964

>  <Name>
1f1t Malachite green aptamer (Xray 2.8A)

>  <RI>
0

>  <Rbt.Current_Directory>
/home/itssahil/PROJECTS/Mol_Feturizer/New_Systems/rnas/1f1t

>  <Rbt.Executable>
rbdock ($Id: //depot/dev/client3/rdock/2013.1/src/exe/rbdock.cxx#4 $)

>  <Rbt.Library>
libRbt.so (2013.1, Build901 2013/11/27)

>  <Rbt.Parameter_File>
/export/apps/rDock/src/rDock_2013.1_src/data/scripts/dock_solv.prm

>  <Rbt.Receptor>
prm/pocket_docking_3.prm

>  <SCORE>
-62.8461

>  <SCORE.INTER>
-62.9296

>  <SCORE.INTER.CONST>
1

>  <SCORE.INTER.POLAR>
0

>  <SCORE.INTER.ROT>
2

>  <SCORE.INTER.SOLV>
11.114

>  <SCORE.INTER.VDW>
-50.5911

>  <SCORE.INTER.norm>
-2.42037

>  <SCORE.INTRA>
0.0835091

>  <SCORE.INTRA.DIHEDRAL>
-1.01384

>  <SCORE.INTRA.DIHEDRAL.0>
4.18538

>  <SCORE.INTRA.POLAR>
0

>  <SCORE.INTRA.POLAR.0>
0

>  <SCORE.INTRA.REPUL>
0

>  <SCORE.INTRA.REPUL.0>
0

>  <SCORE.INTRA.SOLV>
0.019542

>  <SCORE.INTRA.SOLV.lig_0>
-5.16926

>  <SCORE.INTRA.VDW>
0.580657

>  <SCORE.INTRA.VDW.0>
1.11912

>  <SCORE.INTRA.norm>
0.00321189

>  <SCORE.RESTR>
0

>  <SCORE.RESTR.CAVITY>
0

>  <SCORE.RESTR.norm>
0

>  <SCORE.SYSTEM>
0

>  <SCORE.SYSTEM.CONST>
0

>  <SCORE.SYSTEM.DIHEDRAL>
0

>  <SCORE.SYSTEM.SOLV>
0

>  <SCORE.SYSTEM.norm>
0

>  <SCORE.heavy>
26

>  <SCORE.norm>
-2.41716

>  <RMSD>
0.675

$$$$
1f1t Malachite green aptamer (Xray 2.8A)
 OpenBabel11021811393D
libRbt.so/2013.1/901 2013/11/27
 26 29  0  0  0  0  0  0  0  0999 V2000
  111.1670  -74.5927  -81.9255 C   0  0  0  0  0  0  0  0  0  0  0  0
  111.6983  -75.8668  -82.3869 C   0  0  0  0  0  0  0  0  0  0  0  0
  111.4439  -76.1090  -83.7382 C   0  0  0  0  0  0  0  0  0  0  0  0
  112.0090  -77.4223  -84.1570 O   0  0  0  0  0  0  0  0  0  0  0  0
  111.7812  -77.6304  -85.3951 C   0  0  0  0  0  0  0  0  0  0  0  0
  112.3600  -78.9379  -85.7034 C   0  0  0  0  0  0  0  0  0  0  0  0
  112.2037  -79.3394  -87.0774 C   0  0  0  0  0  0  0  0  0  0  0  0
  111.5565  -78.5279  -88.0418 C   0  0  0  0  0  0  0  0  0  0  0  0
  110.9945  -77.2430  -87.6691 C   0  0  0  0  0  0  0  0  0  0  0  0
  111.1267  -76.8268  -86.2945 C   0  0  0  0  0  0  0  0  0  0  0  0
  110.5009  -75.4863  -85.9890 C   0  0  0  0  0  0  0  0  0  0  0  0
  110.7655  -75.2785  -84.6233 C   0  0  0  0  0  0  0  0  0  0  0  0
  110.2322  -74.0037  -84.1380 C   0  0  0  0  0  0  0  0  0  0  0  0
  110.4814  -73.7293  -82.7578 C   0  0  0  0  0  0  0  0  0  0  0  0
  109.8448  -74.7260  -86.9384 C   0  0  0  0  0  0  0  0  0  0  0  0
  108.8031  -75.1826  -87.7791 C   0  0  0  0  0  0  0  0  0  0  0  0
  108.1180  -74.4247  -88.7304 C   0  0  0  0  0  0  0  0  0  0  0  0
  108.4636  -73.0236  -88.9186 C   0  0  0  0  0  0  0  0  0  0  0  0
  109.5159  -72.6012  -88.0712 C   0  0  0  0  0  0  0  0  0  0  0  0
  110.2321  -73.3258  -87.1085 C   0  0  0  0  0  0  0  0  0  0  0  0
  111.3436  -74.2058  -80.6043 N   0  3  0  0  0  0  0  0  0  0  0  0
  112.0632  -75.0321  -79.6416 C   0  0  0  0  0  0  0  0  0  0  0  0
  110.8565  -72.9528  -79.9865 C   0  0  0  0  0  0  0  0  0  0  0  0
  112.7440  -80.6093  -87.3433 N   0  0  0  0  0  0  0  0  0  0  0  0
  113.3457  -81.6272  -86.4533 C   0  0  0  0  0  0  0  0  0  0  0  0
  112.7195  -81.0835  -88.7721 C   0  0  0  0  0  0  0  0  0  0  0  0
  1  2  1  0  0  0  0
  1 14  1  0  0  0  0
  1 21  2  0  0  0  0
  2  3  2  0  0  0  0
  3  4  1  0  0  0  0
  3 12  1  0  0  0  0
  4  5  1  0  0  0  0
  5  6  1  0  0  0  0
  5 10  2  0  0  0  0
  6  7  2  0  0  0  0
  7  8  1  0  0  0  0
  7 24  1  0  0  0  0
  8  9  2  0  0  0  0
  9 10  1  0  0  0  0
 10 11  1  0  0  0  0
 11 12  2  0  0  0  0
 11 15  1  0  0  0  0
 12 13  1  0  0  0  0
 13 14  2  0  0  0  0
 15 16  2  0  0  0  0
 15 20  1  0  0  0  0
 16 17  1  0  0  0  0
 17 18  2  0  0  0  0
 18 19  1  0  0  0  0
 19 20  2  0  0  0  0
 21 22  1  0  0  0  0
 21 23  1  0  0  0  0
 24 25  1  0  0  0  0
 24 26  1  0  0  0  0
M  CHG  1  21   1
M  END
>  <CHROM.1>
5.07082349,52.15800707,111.05563032,-76.19752093,-85.33907789,-1.84976814
1.04995915,-2.08305769

>  <Name>
1f1t Malachite green aptamer (Xray 2.8A)

>  <RI>
0

>  <Rbt.Current_Directory>
/home/itssahil/PROJECTS/Mol_Feturizer/New_Systems/rnas/1f1t

>  <Rbt.Executable>
rbdock ($Id: //depot/dev/client3/rdock/2013.1/src/exe/rbdock.cxx#4 $)

>  <Rbt.Library>
libRbt.so (2013.1, Build901 2013/11/27)

>  <Rbt.Parameter_File>
/export/apps/rDock/src/rDock_2013.1_src/data/scripts/dock_solv.prm

>  <Rbt.Receptor>
prm/pocket_docking_3.prm

>  <SCORE>
-62.8447

>  <SCORE.INTER>
-62.9066

>  <SCORE.INTER.CONST>
1

>  <SCORE.INTER.POLAR>
0

>  <SCORE.INTER.ROT>
2

>  <SCORE.INTER.SOLV>
11.1388

>  <SCORE.INTER.VDW>
-50.584

>  <SCORE.INTER.norm>
-2.41949

>  <SCORE.INTRA>
0.0619307

>  <SCORE.INTRA.DIHEDRAL>
-1.12371

>  <SCORE.INTRA.DIHEDRAL.0>
4.18538

>  <SCORE.INTRA.POLAR>
0

>  <SCORE.INTRA.POLAR.0>
0

>  <SCORE.INTRA.REPUL>
0

>  <SCORE.INTRA.REPUL.0>
0

>  <SCORE.INTRA.SOLV>
0.0195076

>  <SCORE.INTRA.SOLV.lig_0>
-5.16926

>  <SCORE.INTRA.VDW>
0.614031

>  <SCORE.INTRA.VDW.0>
1.11912

>  <SCORE.INTRA.norm>
0.00238195

>  <SCORE.RESTR>
0

>  <SCORE.RESTR.CAVITY>
0

>  <SCORE.RESTR.norm>
0

>  <SCORE.SYSTEM>
0

>  <SCORE.SYSTEM.CONST>
0

>  <SCORE.SYSTEM.DIHEDRAL>
0

>  <SCORE.SYSTEM.SOLV>
0

>  <SCORE.SYSTEM.norm>
0

>  <SCORE.heavy>
26

>  <SCORE.norm>
-2.4171

>  <RMSD>
0.675

$$$$
1f1t Malachite green aptamer (Xray 2.8A)
 OpenBabel11021811393D
libRbt.so/2013.1/901 2013/11/27
 26 29  0  0  0  0  0  0  0  0999 V2000
  111.2017  -74.6283  -81.8957 C   0  0  0  0  0  0  0  0  0  0  0  0
  111.7197  -75.8992  -82.3806 C   0  0  0  0  0  0  0  0  0  0  0  0
  111.4638  -76.1133  -83.7363 C   0  0  0  0  0  0  0  0  0  0  0  0
  112.0151  -77.4245  -84.1794 O   0  0  0  0  0  0  0  0  0  0  0  0
  111.7859  -77.6069  -85.4212 C   0  0  0  0  0  0  0  0  0  0  0  0
  112.3510  -78.9145  -85.7537 C   0  0  0  0  0  0  0  0  0  0  0  0
  112.1914  -79.2886  -87.1351 C   0  0  0  0  0  0  0  0  0  0  0  0
  111.5535  -78.4523  -88.0845 C   0  0  0  0  0  0  0  0  0  0  0  0
  111.0050  -77.1687  -87.6881 C   0  0  0  0  0  0  0  0  0  0  0  0
  111.1407  -76.7798  -86.3058 C   0  0  0  0  0  0  0  0  0  0  0  0
  110.5290  -75.4385  -85.9755 C   0  0  0  0  0  0  0  0  0  0  0  0
  110.7948  -75.2592  -84.6061 C   0  0  0  0  0  0  0  0  0  0  0  0
  110.2748  -73.9881  -84.0973 C   0  0  0  0  0  0  0  0  0  0  0  0
  110.5260  -73.7423  -82.7120 C   0  0  0  0  0  0  0  0  0  0  0  0
  109.8817  -74.6536  -86.9109 C   0  0  0  0  0  0  0  0  0  0  0  0
  110.2218  -73.3211  -87.2410 C   0  0  0  0  0  0  0  0  0  0  0  0
  109.5907  -72.5202  -88.1944 C   0  0  0  0  0  0  0  0  0  0  0  0
  108.4703  -73.0540  -88.9544 C   0  0  0  0  0  0  0  0  0  0  0  0
  108.1482  -74.3841  -88.5927 C   0  0  0  0  0  0  0  0  0  0  0  0
  108.7495  -75.2212  -87.6426 C   0  0  0  0  0  0  0  0  0  0  0  0
  111.3816  -74.2682  -80.5675 N   0  3  0  0  0  0  0  0  0  0  0  0
  112.0916  -75.1200  -79.6200 C   0  0  0  0  0  0  0  0  0  0  0  0
  110.9074  -73.0218  -79.9265 C   0  0  0  0  0  0  0  0  0  0  0  0
  112.7184  -80.5589  -87.4244 N   0  0  0  0  0  0  0  0  0  0  0  0
  113.3077  -81.6001  -86.5532 C   0  0  0  0  0  0  0  0  0  0  0  0
  112.6908  -81.0056  -88.8620 C   0  0  0  0  0  0  0  0  0  0  0  0
  1  2  1  0  0  0  0
  1 14  1  0  0  0  0
  1 21  2  0  0  0  0
  2  3  2  0  0  0  0
  3  4  1  0  0  0  0
  3 12  1  0  0  0  0
  4  5  1  0  0  0  0
  5  6  1  0  0  0  0
  5 10  2  0  0  0  0
  6  7  2  0  0  0  0
  7  8  1  0  0  0  0
  7 24  1  0  0  0  0
  8  9  2  0  0  0  0
  9 10  1  0  0  0  0
 10 11  1  0  0  0  0
 11 12  2  0  0  0  0
 11 15  1  0  0  0  0
 12 13  1  0  0  0  0
 13 14  2  0  0  0  0
 15 16  2  0  0  0  0
 15 20  1  0  0  0  0
 16 17  1  0  0  0  0
 17 18  2  0  0  0  0
 18 19  1  0  0  0  0
 19 20  2  0  0  0  0
 21 22  1  0  0  0  0
 21 23  1  0  0  0  0
 24 25  1  0  0  0  0
 24 26  1  0  0  0  0
M  CHG  1  21   1
M  END
>  <CHROM.1>
5.12147673,-122.96256453,111.06828524,-76.18504590,-85.34823058,-1.82152638
1.05473104,-2.07409512

>  <Name>
1f1t Malachite green aptamer (Xray 2.8A)

>  <RI>
0

>  <Rbt.Current_Directory>
/home/itssahil/PROJECTS/Mol_Feturizer/New_Systems/rnas/1f1t

>  <Rbt.Executable>
rbdock ($Id: //depot/dev/client3/rdock/2013.1/src/exe/rbdock.cxx#4 $)

>  <Rbt.Library>
libRbt.so (2013.1, Build901 2013/11/27)

>  <Rbt.Parameter_File>
/export/apps/rDock/src/rDock_2013.1_src/data/scripts/dock_solv.prm

>  <Rbt.Receptor>
prm/pocket_docking_3.prm

>  <SCORE>
-63.2673

>  <SCORE.INTER>
-63.3544

>  <SCORE.INTER.CONST>
1

>  <SCORE.INTER.POLAR>
0

>  <SCORE.INTER.ROT>
2

>  <SCORE.INTER.SOLV>
11.1475

>  <SCORE.INTER.VDW>
-50.8854

>  <SCORE.INTER.norm>
-2.43671

>  <SCORE.INTRA>
0.0871163

>  <SCORE.INTRA.DIHEDRAL>
-0.734639

>  <SCORE.INTRA.DIHEDRAL.0>
4.18538

>  <SCORE.INTRA.POLAR>
0

>  <SCORE.INTRA.POLAR.0>
0

>  <SCORE.INTRA.REPUL>
0

>  <SCORE.INTRA.REPUL.0>
0

>  <SCORE.INTRA.SOLV>
0.0139432

>  <SCORE.INTRA.SOLV.lig_0>
-5.16926

>  <SCORE.INTRA.VDW>
0.447464

>  <SCORE.INTRA.VDW.0>
1.11912

>  <SCORE.INTRA.norm>
0.00335063

>  <SCORE.RESTR>
0

>  <SCORE.RESTR.CAVITY>
0

>  <SCORE.RESTR.norm>
0

>  <SCORE.SYSTEM>
0

>  <SCORE.SYSTEM.CONST>
0

>  <SCORE.SYSTEM.DIHEDRAL>
0

>  <SCORE.SYSTEM.SOLV>
0

>  <SCORE.SYSTEM.norm>
0

>  <SCORE.heavy>
26

>  <SCORE.norm>
-2.43336

>  <RMSD>
0.675

$$$$
1f1t Malachite green aptamer (Xray 2.8A)
 OpenBabel11021811393D
libRbt.so/2013.1/901 2013/11/27
 26 29  0  0  0  0  0  0  0  0999 V2000
  111.2326  -74.7224  -81.9408 C   0  0  0  0  0  0  0  0  0  0  0  0
  111.7598  -75.9843  -82.4387 C   0  0  0  0  0  0  0  0  0  0  0  0
  111.4940  -76.1923  -83.7935 C   0  0  0  0  0  0  0  0  0  0  0  0
  112.0554  -77.4946  -84.2501 O   0  0  0  0  0  0  0  0  0  0  0  0
  111.8171  -77.6714  -85.4910 C   0  0  0  0  0  0  0  0  0  0  0  0
  112.3931  -78.9706  -85.8372 C   0  0  0  0  0  0  0  0  0  0  0  0
  112.2252  -79.3373  -87.2195 C   0  0  0  0  0  0  0  0  0  0  0  0
  111.5699  -78.5018  -88.1576 C   0  0  0  0  0  0  0  0  0  0  0  0
  111.0113  -77.2268  -87.7479 C   0  0  0  0  0  0  0  0  0  0  0  0
  111.1551  -76.8454  -86.3643 C   0  0  0  0  0  0  0  0  0  0  0  0
  110.5321  -75.5131  -86.0198 C   0  0  0  0  0  0  0  0  0  0  0  0
  110.8082  -75.3398  -84.6516 C   0  0  0  0  0  0  0  0  0  0  0  0
  110.2792  -74.0777  -84.1298 C   0  0  0  0  0  0  0  0  0  0  0  0
  110.5400  -73.8383  -82.7452 C   0  0  0  0  0  0  0  0  0  0  0  0
  109.8680  -74.7291  -86.9441 C   0  0  0  0  0  0  0  0  0  0  0  0
  108.8312  -75.1690  -87.7997 C   0  0  0  0  0  0  0  0  0  0  0  0
  108.1382  -74.3876  -88.7260 C   0  0  0  0  0  0  0  0  0  0  0  0
  108.4691  -72.9776  -88.8682 C   0  0  0  0  0  0  0  0  0  0  0  0
  109.5169  -72.5721  -88.0070 C   0  0  0  0  0  0  0  0  0  0  0  0
  110.2406  -73.3202  -87.0683 C   0  0  0  0  0  0  0  0  0  0  0  0
  111.4204  -74.3690  -80.6118 N   0  3  0  0  0  0  0  0  0  0  0  0
  112.1480  -75.2192  -79.6764 C   0  0  0  0  0  0  0  0  0  0  0  0
  110.9387  -73.1320  -79.9584 C   0  0  0  0  0  0  0  0  0  0  0  0
  112.7631  -80.6000  -87.5219 N   0  0  0  0  0  0  0  0  0  0  0  0
  112.9300  -81.3150  -88.8069 C   0  0  0  0  0  0  0  0  0  0  0  0
  113.2991  -81.4138  -86.3741 C   0  0  0  0  0  0  0  0  0  0  0  0
  1  2  1  0  0  0  0
  1 14  1  0  0  0  0
  1 21  2  0  0  0  0
  2  3  2  0  0  0  0
  3  4  1  0  0  0  0
  3 12  1  0  0  0  0
  4  5  1  0  0  0  0
  5  6  1  0  0  0  0
  5 10  2  0  0  0  0
  6  7  2  0  0  0  0
  7  8  1  0  0  0  0
  7 24  1  0  0  0  0
  8  9  2  0  0  0  0
  9 10  1  0  0  0  0
 10 11  1  0  0  0  0
 11 12  2  0  0  0  0
 11 15  1  0  0  0  0
 12 13  1  0  0  0  0
 13 14  2  0  0  0  0
 15 16  2  0  0  0  0
 15 20  1  0  0  0  0
 16 17  1  0  0  0  0
 17 18  2  0  0  0  0
 18 19  1  0  0  0  0
 19 20  2  0  0  0  0
 21 22  1  0  0  0  0
 21 23  1  0  0  0  0
 24 25  1  0  0  0  0
 24 26  1  0  0  0  0
M  CHG  1  21   1
M  END
>  <CHROM.1>
-173.57211328,51.27084653,111.09776179,-76.24269245,-85.37322121,-1.84808724
1.04599010,-2.07060695

>  <Name>
1f1t Malachite green aptamer (Xray 2.8A)

>  <RI>
0

>  <Rbt.Current_Directory>
/home/itssahil/PROJECTS/Mol_Feturizer/New_Systems/rnas/1f1t

>  <Rbt.Executable>
rbdock ($Id: //depot/dev/client3/rdock/2013.1/src/exe/rbdock.cxx#4 $)

>  <Rbt.Library>
libRbt.so (2013.1, Build901 2013/11/27)

>  <Rbt.Parameter_File>
/export/apps/rDock/src/rDock_2013.1_src/data/scripts/dock_solv.prm

>  <Rbt.Receptor>
prm/pocket_docking_6.prm

>  <SCORE>
-59.2751

>  <SCORE.INTER>
-62.6915

>  <SCORE.INTER.CONST>
1

>  <SCORE.INTER.POLAR>
0

>  <SCORE.INTER.ROT>
2

>  <SCORE.INTER.SOLV>
11.0584

>  <SCORE.INTER.VDW>
-50.4138

>  <SCORE.INTER.norm>
-2.41121

>  <SCORE.INTRA>
3.4164

>  <SCORE.INTRA.DIHEDRAL>
-1.13724

>  <SCORE.INTRA.DIHEDRAL.0>
4.18538

>  <SCORE.INTRA.POLAR>
0

>  <SCORE.INTRA.POLAR.0>
0

>  <SCORE.INTRA.REPUL>
0

>  <SCORE.INTRA.REPUL.0>
0

>  <SCORE.INTRA.SOLV>
0.0186532

>  <SCORE.INTRA.SOLV.lig_0>
-5.16926

>  <SCORE.INTRA.VDW>
3.9757

>  <SCORE.INTRA.VDW.0>
1.11912

>  <SCORE.INTRA.norm>
0.1314

>  <SCORE.RESTR>
0

>  <SCORE.RESTR.CAVITY>
0

>  <SCORE.RESTR.norm>
0

>  <SCORE.SYSTEM>
0

>  <SCORE.SYSTEM.CONST>
0

>  <SCORE.SYSTEM.DIHEDRAL>
0

>  <SCORE.SYSTEM.SOLV>
0

>  <SCORE.SYSTEM.norm>
0

>  <SCORE.heavy>
26

>  <SCORE.norm>
-2.27981

>  <RMSD>
0.675

$$$$
1f1t Malachite green aptamer (Xray 2.8A)
 OpenBabel11021811393D
libRbt.so/2013.1/901 2013/11/27
 26 29  0  0  0  0  0  0  0  0999 V2000
  111.2380  -74.6128  -81.8915 C   0  0  0  0  0  0  0  0  0  0  0  0
  111.7514  -75.8855  -82.3763 C   0  0  0  0  0  0  0  0  0  0  0  0
  111.4897  -76.1013  -83.7307 C   0  0  0  0  0  0  0  0  0  0  0  0
  112.0365  -77.4144  -84.1738 O   0  0  0  0  0  0  0  0  0  0  0  0
  111.8022  -77.5983  -85.4144 C   0  0  0  0  0  0  0  0  0  0  0  0
  112.3631  -78.9076  -85.7469 C   0  0  0  0  0  0  0  0  0  0  0  0
  112.1974  -79.2835  -87.1271 C   0  0  0  0  0  0  0  0  0  0  0  0
  111.5577  -78.4474  -88.0754 C   0  0  0  0  0  0  0  0  0  0  0  0
  111.0135  -77.1620  -87.6789 C   0  0  0  0  0  0  0  0  0  0  0  0
  111.1553  -76.7711  -86.2978 C   0  0  0  0  0  0  0  0  0  0  0  0
  110.5478  -75.4281  -85.9674 C   0  0  0  0  0  0  0  0  0  0  0  0
  110.8193  -75.2471  -84.5992 C   0  0  0  0  0  0  0  0  0  0  0  0
  110.3040  -73.9740  -84.0905 C   0  0  0  0  0  0  0  0  0  0  0  0
  110.5610  -73.7266  -82.7066 C   0  0  0  0  0  0  0  0  0  0  0  0
  109.8986  -74.6432  -86.9014 C   0  0  0  0  0  0  0  0  0  0  0  0
  110.2312  -73.3071  -87.2246 C   0  0  0  0  0  0  0  0  0  0  0  0
  109.5981  -72.5061  -88.1767 C   0  0  0  0  0  0  0  0  0  0  0  0
  108.4838  -73.0437  -88.9428 C   0  0  0  0  0  0  0  0  0  0  0  0
  108.1691  -74.3776  -88.5880 C   0  0  0  0  0  0  0  0  0  0  0  0
  108.7726  -75.2149  -87.6396 C   0  0  0  0  0  0  0  0  0  0  0  0
  111.4237  -74.2509  -80.5645 N   0  3  0  0  0  0  0  0  0  0  0  0
  112.1356  -75.1027  -79.6184 C   0  0  0  0  0  0  0  0  0  0  0  0
  110.9547  -73.0025  -79.9237 C   0  0  0  0  0  0  0  0  0  0  0  0
  112.7205  -80.5555  -87.4164 N   0  0  0  0  0  0  0  0  0  0  0  0
  113.3139  -81.5952  -86.5463 C   0  0  0  0  0  0  0  0  0  0  0  0
  112.6828  -81.0060  -88.8526 C   0  0  0  0  0  0  0  0  0  0  0  0
  1  2  1  0  0  0  0
  1 14  1  0  0  0  0
  1 21  2  0  0  0  0
  2  3  2  0  0  0  0
  3  4  1  0  0  0  0
  3 12  1  0  0  0  0
  4  5  1  0  0  0  0
  5  6  1  0  0  0  0
  5 10  2  0  0  0  0
  6  7  2  0  0  0  0
  7  8  1  0  0  0  0
  7 24  1  0  0  0  0
  8  9  2  0  0  0  0
  9 10  1  0  0  0  0
 10 11  1  0  0  0  0
 11 12  2  0  0  0  0
 11 15  1  0  0  0  0
 12 13  1  0  0  0  0
 13 14  2  0  0  0  0
 15 16  2  0  0  0  0
 15 20  1  0  0  0  0
 16 17  1  0  0  0  0
 17 18  2  0  0  0  0
 18 19  1  0  0  0  0
 19 20  2  0  0  0  0
 21 22  1  0  0  0  0
 21 23  1  0  0  0  0
 24 25  1  0  0  0  0
 24 26  1  0  0  0  0
M  CHG  1  21   1
M  END
>  <CHROM.1>
4.94940484,-123.69469195,111.08796601,-76.17473889,-85.34100115,-1.81235113
1.05481868,-2.08372608

>  <Name>
1f1t Malachite green aptamer (Xray 2.8A)

>  <RI>
0

>  <Rbt.Current_Directory>
/home/itssahil/PROJECTS/Mol_Feturizer/New_Systems/rnas/1f1t

>  <Rbt.Executable>
rbdock ($Id: //depot/dev/client3/rdock/2013.1/src/exe/rbdock.cxx#4 $)

>  <Rbt.Library>
libRbt.so (2013.1, Build901 2013/11/27)

>  <Rbt.Parameter_File>
/export/apps/rDock/src/rDock_2013.1_src/data/scripts/dock_solv.prm

>  <Rbt.Receptor>
prm/pocket_docking_2.prm

>  <SCORE>
-63.3104

>  <SCORE.INTER>
-63.4129

>  <SCORE.INTER.CONST>
1

>  <SCORE.INTER.POLAR>
0

>  <SCORE.INTER.ROT>
2

>  <SCORE.INTER.SOLV>
11.1711

>  <SCORE.INTER.VDW>
-50.9323

>  <SCORE.INTER.norm>
-2.43896

>  <SCORE.INTRA>
0.10249

>  <SCORE.INTRA.DIHEDRAL>
-0.797765

>  <SCORE.INTRA.DIHEDRAL.0>
4.18538

>  <SCORE.INTRA.POLAR>
0

>  <SCORE.INTRA.POLAR.0>
0

>  <SCORE.INTRA.REPUL>
0

>  <SCORE.INTRA.REPUL.0>
0

>  <SCORE.INTRA.SOLV>
0.0147965

>  <SCORE.INTRA.SOLV.lig_0>
-5.16926

>  <SCORE.INTRA.VDW>
0.493974

>  <SCORE.INTRA.VDW.0>
1.11912

>  <SCORE.INTRA.norm>
0.00394192

>  <SCORE.RESTR>
0

>  <SCORE.RESTR.CAVITY>
0

>  <SCORE.RESTR.norm>
0

>  <SCORE.SYSTEM>
0

>  <SCORE.SYSTEM.CONST>
0

>  <SCORE.SYSTEM.DIHEDRAL>
0

>  <SCORE.SYSTEM.SOLV>
0

>  <SCORE.SYSTEM.norm>
0

>  <SCORE.heavy>
26

>  <SCORE.norm>
-2.43501

>  <RMSD>
0.676

$$$$
1f1t Malachite green aptamer (Xray 2.8A)
 OpenBabel11021811393D
libRbt.so/2013.1/901 2013/11/27
 26 29  0  0  0  0  0  0  0  0999 V2000
  111.2446  -74.6246  -81.8700 C   0  0  0  0  0  0  0  0  0  0  0  0
  111.7522  -75.8973  -82.3606 C   0  0  0  0  0  0  0  0  0  0  0  0
  111.4918  -76.1046  -83.7166 C   0  0  0  0  0  0  0  0  0  0  0  0
  112.0327  -77.4182  -84.1656 O   0  0  0  0  0  0  0  0  0  0  0  0
  111.7995  -77.5944  -85.4076 C   0  0  0  0  0  0  0  0  0  0  0  0
  112.3543  -78.9049  -85.7460 C   0  0  0  0  0  0  0  0  0  0  0  0
  112.1890  -79.2727  -87.1284 C   0  0  0  0  0  0  0  0  0  0  0  0
  111.5552  -78.4283  -88.0734 C   0  0  0  0  0  0  0  0  0  0  0  0
  111.0170  -77.1422  -87.6711 C   0  0  0  0  0  0  0  0  0  0  0  0
  111.1584  -76.7593  -86.2877 C   0  0  0  0  0  0  0  0  0  0  0  0
  110.5573  -75.4149  -85.9513 C   0  0  0  0  0  0  0  0  0  0  0  0
  110.8273  -75.2425  -84.5818 C   0  0  0  0  0  0  0  0  0  0  0  0
  110.3177  -73.9695  -84.0672 C   0  0  0  0  0  0  0  0  0  0  0  0
  110.5735  -73.7306  -82.6816 C   0  0  0  0  0  0  0  0  0  0  0  0
  109.9136  -74.6219  -86.8823 C   0  0  0  0  0  0  0  0  0  0  0  0
  110.2485  -73.2831  -87.1919 C   0  0  0  0  0  0  0  0  0  0  0  0
  109.6211  -72.4737  -88.1408 C   0  0  0  0  0  0  0  0  0  0  0  0
  108.5112  -73.0044  -88.9180 C   0  0  0  0  0  0  0  0  0  0  0  0
  108.1941  -74.3412  -88.5766 C   0  0  0  0  0  0  0  0  0  0  0  0
  108.7919  -75.1868  -87.6320 C   0  0  0  0  0  0  0  0  0  0  0  0
  111.4299  -74.2706  -80.5408 N   0  3  0  0  0  0  0  0  0  0  0  0
  112.1357  -75.1310  -79.5980 C   0  0  0  0  0  0  0  0  0  0  0  0
  110.9662  -73.0232  -79.8943 C   0  0  0  0  0  0  0  0  0  0  0  0
  112.7061  -80.5458  -87.4235 N   0  0  0  0  0  0  0  0  0  0  0  0
  113.3051  -81.5876  -86.5597 C   0  0  0  0  0  0  0  0  0  0  0  0
  112.6536  -80.9952  -88.8596 C   0  0  0  0  0  0  0  0  0  0  0  0
  1  2  1  0  0  0  0
  1 14  1  0  0  0  0
  1 21  2  0  0  0  0
  2  3  2  0  0  0  0
  3  4  1  0  0  0  0
  3 12  1  0  0  0  0
  4  5  1  0  0  0  0
  5  6  1  0  0  0  0
  5 10  2  0  0  0  0
  6  7  2  0  0  0  0
  7  8  1  0  0  0  0
  7 24  1  0  0  0  0
  8  9  2  0  0  0  0
  9 10  1  0  0  0  0
 10 11  1  0  0  0  0
 11 12  2  0  0  0  0
 11 15  1  0  0  0  0
 12 13  1  0  0  0  0
 13 14  2  0  0  0  0
 15 16  2  0  0  0  0
 15 20  1  0  0  0  0
 16 17  1  0  0  0  0
 17 18  2  0  0  0  0
 18 19  1  0  0  0  0
 19 20  2  0  0  0  0
 21 22  1  0  0  0  0
 21 23  1  0  0  0  0
 24 25  1  0  0  0  0
 24 26  1  0  0  0  0
M  CHG  1  21   1
M  END
>  <CHROM.1>
4.23942312,-124.11215571,111.09242771,-76.16768476,-85.32795317,-1.80982502
1.06005999,-2.08075933

>  <Name>
1f1t Malachite green aptamer (Xray 2.8A)

>  <RI>
0

>  <Rbt.Current_Directory>
/home/itssahil/PROJECTS/Mol_Feturizer/New_Systems/rnas/1f1t

>  <Rbt.Executable>
rbdock ($Id: //depot/dev/client3/rdock/2013.1/src/exe/rbdock.cxx#4 $)

>  <Rbt.Library>
libRbt.so (2013.1, Build901 2013/11/27)

>  <Rbt.Parameter_File>
/export/apps/rDock/src/rDock_2013.1_src/data/scripts/dock_solv.prm

>  <Rbt.Receptor>
prm/pocket_docking_2.prm

>  <SCORE>
-63.2777

>  <SCORE.INTER>
-63.3861

>  <SCORE.INTER.CONST>
1

>  <SCORE.INTER.POLAR>
0

>  <SCORE.INTER.ROT>
2

>  <SCORE.INTER.SOLV>
11.1734

>  <SCORE.INTER.VDW>
-50.9152

>  <SCORE.INTER.norm>
-2.43793

>  <SCORE.INTRA>
0.108397

>  <SCORE.INTRA.DIHEDRAL>
-0.85485

>  <SCORE.INTRA.DIHEDRAL.0>
4.18538

>  <SCORE.INTRA.POLAR>
0

>  <SCORE.INTRA.POLAR.0>
0

>  <SCORE.INTRA.REPUL>
0

>  <SCORE.INTRA.REPUL.0>
0

>  <SCORE.INTRA.SOLV>
0.0152809

>  <SCORE.INTRA.SOLV.lig_0>
-5.16926

>  <SCORE.INTRA.VDW>
0.528182

>  <SCORE.INTRA.VDW.0>
1.11912

>  <SCORE.INTRA.norm>
0.00416913

>  <SCORE.RESTR>
0

>  <SCORE.RESTR.CAVITY>
0

>  <SCORE.RESTR.norm>
0

>  <SCORE.SYSTEM>
0

>  <SCORE.SYSTEM.CONST>
0

>  <SCORE.SYSTEM.DIHEDRAL>
0

>  <SCORE.SYSTEM.SOLV>
0

>  <SCORE.SYSTEM.norm>
0

>  <SCORE.heavy>
26

>  <SCORE.norm>
-2.43376

>  <RMSD>
0.676

$$$$
1f1t Malachite green aptamer (Xray 2.8A)
 OpenBabel11021811393D
libRbt.so/2013.1/901 2013/11/27
 26 29  0  0  0  0  0  0  0  0999 V2000
  111.2436  -74.7176  -81.9414 C   0  0  0  0  0  0  0  0  0  0  0  0
  111.7673  -75.9810  -82.4391 C   0  0  0  0  0  0  0  0  0  0  0  0
  111.4995  -76.1892  -83.7935 C   0  0  0  0  0  0  0  0  0  0  0  0
  112.0573  -77.4931  -84.2500 O   0  0  0  0  0  0  0  0  0  0  0  0
  111.8171  -77.6700  -85.4905 C   0  0  0  0  0  0  0  0  0  0  0  0
  112.3898  -78.9707  -85.8366 C   0  0  0  0  0  0  0  0  0  0  0  0
  112.2194  -79.3379  -87.2185 C   0  0  0  0  0  0  0  0  0  0  0  0
  111.5649  -78.5014  -88.1564 C   0  0  0  0  0  0  0  0  0  0  0  0
  111.0096  -77.2249  -87.7467 C   0  0  0  0  0  0  0  0  0  0  0  0
  111.1560  -76.8431  -86.3635 C   0  0  0  0  0  0  0  0  0  0  0  0
  110.5364  -75.5091  -86.0190 C   0  0  0  0  0  0  0  0  0  0  0  0
  110.8146  -75.3356  -84.6512 C   0  0  0  0  0  0  0  0  0  0  0  0
  110.2891  -74.0721  -84.1295 C   0  0  0  0  0  0  0  0  0  0  0  0
  110.5521  -73.8325  -82.7454 C   0  0  0  0  0  0  0  0  0  0  0  0
  109.8730  -74.7241  -86.9430 C   0  0  0  0  0  0  0  0  0  0  0  0
  108.8282  -75.1599  -87.7908 C   0  0  0  0  0  0  0  0  0  0  0  0
  108.1358  -74.3773  -88.7166 C   0  0  0  0  0  0  0  0  0  0  0  0
  108.4765  -72.9705  -88.8669 C   0  0  0  0  0  0  0  0  0  0  0  0
  109.5321  -72.5691  -88.0133 C   0  0  0  0  0  0  0  0  0  0  0  0
  110.2555  -73.3186  -87.0754 C   0  0  0  0  0  0  0  0  0  0  0  0
  111.4338  -74.3638  -80.6128 N   0  3  0  0  0  0  0  0  0  0  0  0
  112.1606  -75.2152  -79.6777 C   0  0  0  0  0  0  0  0  0  0  0  0
  110.9557  -73.1254  -79.9595 C   0  0  0  0  0  0  0  0  0  0  0  0
  112.7541  -80.6020  -87.5208 N   0  0  0  0  0  0  0  0  0  0  0  0
  112.9302  -81.3125  -88.8071 C   0  0  0  0  0  0  0  0  0  0  0  0
  113.2746  -81.4232  -86.3712 C   0  0  0  0  0  0  0  0  0  0  0  0
  1  2  1  0  0  0  0
  1 14  1  0  0  0  0
  1 21  2  0  0  0  0
  2  3  2  0  0  0  0
  3  4  1  0  0  0  0
  3 12  1  0  0  0  0
  4  5  1  0  0  0  0
  5  6  1  0  0  0  0
  5 10  2  0  0  0  0
  6  7  2  0  0  0  0
  7  8  1  0  0  0  0
  7 24  1  0  0  0  0
  8  9  2  0  0  0  0
  9 10  1  0  0  0  0
 10 11  1  0  0  0  0
 11 12  2  0  0  0  0
 11 15  1  0  0  0  0
 12 13  1  0  0  0  0
 13 14  2  0  0  0  0
 15 16  2  0  0  0  0
 15 20  1  0  0  0  0
 16 17  1  0  0  0  0
 17 18  2  0  0  0  0
 18 19  1  0  0  0  0
 19 20  2  0  0  0  0
 21 22  1  0  0  0  0
 21 23  1  0  0  0  0
 24 25  1  0  0  0  0
 24 26  1  0  0  0  0
M  CHG  1  21   1
M  END
>  <CHROM.1>
-172.86486558,51.71787252,111.10117449,-76.23965596,-85.37273378,-1.84406012
1.04767851,-2.07460373

>  <Name>
1f1t Malachite green aptamer (Xray 2.8A)

>  <RI>
0

>  <Rbt.Current_Directory>
/home/itssahil/PROJECTS/Mol_Feturizer/New_Systems/rnas/1f1t

>  <Rbt.Executable>
rbdock ($Id: //depot/dev/client3/rdock/2013.1/src/exe/rbdock.cxx#4 $)

>  <Rbt.Library>
libRbt.so (2013.1, Build901 2013/11/27)

>  <Rbt.Parameter_File>
/export/apps/rDock/src/rDock_2013.1_src/data/scripts/dock_solv.prm

>  <Rbt.Receptor>
prm/pocket_docking_6.prm

>  <SCORE>
-59.293

>  <SCORE.INTER>
-62.689

>  <SCORE.INTER.CONST>
1

>  <SCORE.INTER.POLAR>
0

>  <SCORE.INTER.ROT>
2

>  <SCORE.INTER.SOLV>
11.0612

>  <SCORE.INTER.VDW>
-50.4131

>  <SCORE.INTER.norm>
-2.41112

>  <SCORE.INTRA>
3.39604

>  <SCORE.INTRA.DIHEDRAL>
-1.06437

>  <SCORE.INTRA.DIHEDRAL.0>
4.18538

>  <SCORE.INTRA.POLAR>
0

>  <SCORE.INTRA.POLAR.0>
0

>  <SCORE.INTRA.REPUL>
0

>  <SCORE.INTRA.REPUL.0>
0

>  <SCORE.INTRA.SOLV>
0.0181062

>  <SCORE.INTRA.SOLV.lig_0>
-5.16926

>  <SCORE.INTRA.VDW>
3.91917

>  <SCORE.INTRA.VDW.0>
1.11912

>  <SCORE.INTRA.norm>
0.130617

>  <SCORE.RESTR>
0

>  <SCORE.RESTR.CAVITY>
0

>  <SCORE.RESTR.norm>
0

>  <SCORE.SYSTEM>
0

>  <SCORE.SYSTEM.CONST>
0

>  <SCORE.SYSTEM.DIHEDRAL>
0

>  <SCORE.SYSTEM.SOLV>
0

>  <SCORE.SYSTEM.norm>
0

>  <SCORE.heavy>
26

>  <SCORE.norm>
-2.2805

>  <RMSD>
0.677

$$$$
1f1t Malachite green aptamer (Xray 2.8A)
 OpenBabel11021811393D
libRbt.so/2013.1/901 2013/11/27
 26 29  0  0  0  0  0  0  0  0999 V2000
  111.1592  -74.5963  -81.9154 C   0  0  0  0  0  0  0  0  0  0  0  0
  111.6878  -75.8709  -82.3785 C   0  0  0  0  0  0  0  0  0  0  0  0
  111.4368  -76.1087  -83.7312 C   0  0  0  0  0  0  0  0  0  0  0  0
  111.9990  -77.4227  -84.1518 O   0  0  0  0  0  0  0  0  0  0  0  0
  111.7743  -77.6267  -85.3911 C   0  0  0  0  0  0  0  0  0  0  0  0
  112.3499  -78.9353  -85.7011 C   0  0  0  0  0  0  0  0  0  0  0  0
  112.1965  -79.3327  -87.0767 C   0  0  0  0  0  0  0  0  0  0  0  0
  111.5549  -78.5166  -88.0409 C   0  0  0  0  0  0  0  0  0  0  0  0
  110.9959  -77.2308  -87.6666 C   0  0  0  0  0  0  0  0  0  0  0  0
  111.1252  -76.8187  -86.2904 C   0  0  0  0  0  0  0  0  0  0  0  0
  110.5028  -75.4770  -85.9832 C   0  0  0  0  0  0  0  0  0  0  0  0
  110.7638  -75.2736  -84.6162 C   0  0  0  0  0  0  0  0  0  0  0  0
  110.2331  -73.9984  -84.1292 C   0  0  0  0  0  0  0  0  0  0  0  0
  110.4789  -73.7286  -82.7475 C   0  0  0  0  0  0  0  0  0  0  0  0
  109.8520  -74.7121  -86.9326 C   0  0  0  0  0  0  0  0  0  0  0  0
  108.8110  -75.1630  -87.7773 C   0  0  0  0  0  0  0  0  0  0  0  0
  108.1312  -74.4003  -88.7287 C   0  0  0  0  0  0  0  0  0  0  0  0
  108.4824  -73.0001  -88.9126 C   0  0  0  0  0  0  0  0  0  0  0  0
  109.5339  -72.5834  -88.0613 C   0  0  0  0  0  0  0  0  0  0  0  0
  110.2449  -73.3129  -87.0984 C   0  0  0  0  0  0  0  0  0  0  0  0
  111.3330  -74.2135  -80.5927 N   0  3  0  0  0  0  0  0  0  0  0  0
  112.0470  -75.0446  -79.6299 C   0  0  0  0  0  0  0  0  0  0  0  0
  110.8480  -72.9606  -79.9730 C   0  0  0  0  0  0  0  0  0  0  0  0
  112.7336  -80.6036  -87.3443 N   0  0  0  0  0  0  0  0  0  0  0  0
  113.3167  -81.6315  -86.4534 C   0  0  0  0  0  0  0  0  0  0  0  0
  112.7271  -81.0670  -88.7768 C   0  0  0  0  0  0  0  0  0  0  0  0
  1  2  1  0  0  0  0
  1 14  1  0  0  0  0
  1 21  2  0  0  0  0
  2  3  2  0  0  0  0
  3  4  1  0  0  0  0
  3 12  1  0  0  0  0
  4  5  1  0  0  0  0
  5  6  1  0  0  0  0
  5 10  2  0  0  0  0
  6  7  2  0  0  0  0
  7  8  1  0  0  0  0
  7 24  1  0  0  0  0
  8  9  2  0  0  0  0
  9 10  1  0  0  0  0
 10 11  1  0  0  0  0
 11 12  2  0  0  0  0
 11 15  1  0  0  0  0
 12 13  1  0  0  0  0
 13 14  2  0  0  0  0
 15 16  2  0  0  0  0
 15 20  1  0  0  0  0
 16 17  1  0  0  0  0
 17 18  2  0  0  0  0
 18 19  1  0  0  0  0
 19 20  2  0  0  0  0
 21 22  1  0  0  0  0
 21 23  1  0  0  0  0
 24 25  1  0  0  0  0
 24 26  1  0  0  0  0
M  CHG  1  21   1
M  END
>  <CHROM.1>
5.79097814,52.19118964,111.05332079,-76.19167177,-85.33357969,-1.85240317
1.05439159,-2.07805945

>  <Name>
1f1t Malachite green aptamer (Xray 2.8A)

>  <RI>
0

>  <Rbt.Current_Directory>
/home/itssahil/PROJECTS/Mol_Feturizer/New_Systems/rnas/1f1t

>  <Rbt.Executable>
rbdock ($Id: //depot/dev/client3/rdock/2013.1/src/exe/rbdock.cxx#4 $)

>  <Rbt.Library>
libRbt.so (2013.1, Build901 2013/11/27)

>  <Rbt.Parameter_File>
/export/apps/rDock/src/rDock_2013.1_src/data/scripts/dock_solv.prm

>  <Rbt.Receptor>
prm/pocket_docking_2.prm

>  <SCORE>
-62.8818

>  <SCORE.INTER>
-62.9483

>  <SCORE.INTER.CONST>
1

>  <SCORE.INTER.POLAR>
0

>  <SCORE.INTER.ROT>
2

>  <SCORE.INTER.SOLV>
11.133

>  <SCORE.INTER.VDW>
-50.6099

>  <SCORE.INTER.norm>
-2.42109

>  <SCORE.INTRA>
0.0665246

>  <SCORE.INTRA.DIHEDRAL>
-1.09148

>  <SCORE.INTRA.DIHEDRAL.0>
4.18538

>  <SCORE.INTRA.POLAR>
0

>  <SCORE.INTRA.POLAR.0>
0

>  <SCORE.INTRA.REPUL>
0

>  <SCORE.INTRA.REPUL.0>
0

>  <SCORE.INTRA.SOLV>
0.0194711

>  <SCORE.INTRA.SOLV.lig_0>
-5.16926

>  <SCORE.INTRA.VDW>
0.602528

>  <SCORE.INTRA.VDW.0>
1.11912

>  <SCORE.INTRA.norm>
0.00255864

>  <SCORE.RESTR>
0

>  <SCORE.RESTR.CAVITY>
0

>  <SCORE.RESTR.norm>
0

>  <SCORE.SYSTEM>
0

>  <SCORE.SYSTEM.CONST>
0

>  <SCORE.SYSTEM.DIHEDRAL>
0

>  <SCORE.SYSTEM.SOLV>
0

>  <SCORE.SYSTEM.norm>
0

>  <SCORE.heavy>
26

>  <SCORE.norm>
-2.41853

>  <RMSD>
0.678

$$$$
1f1t Malachite green aptamer (Xray 2.8A)
 OpenBabel11021811393D
libRbt.so/2013.1/901 2013/11/27
 26 29  0  0  0  0  0  0  0  0999 V2000
  111.1719  -74.5957  -81.9220 C   0  0  0  0  0  0  0  0  0  0  0  0
  111.7007  -75.8697  -82.3866 C   0  0  0  0  0  0  0  0  0  0  0  0
  111.4453  -76.1081  -83.7384 C   0  0  0  0  0  0  0  0  0  0  0  0
  112.0077  -77.4214  -84.1607 O   0  0  0  0  0  0  0  0  0  0  0  0
  111.7789  -77.6260  -85.3992 C   0  0  0  0  0  0  0  0  0  0  0  0
  112.3552  -78.9339  -85.7109 C   0  0  0  0  0  0  0  0  0  0  0  0
  112.1975  -79.3318  -87.0859 C   0  0  0  0  0  0  0  0  0  0  0  0
  111.5514  -78.5167  -88.0480 C   0  0  0  0  0  0  0  0  0  0  0  0
  110.9920  -77.2316  -87.6720 C   0  0  0  0  0  0  0  0  0  0  0  0
  111.1256  -76.8191  -86.2964 C   0  0  0  0  0  0  0  0  0  0  0  0
  110.5025  -75.4781  -85.9873 C   0  0  0  0  0  0  0  0  0  0  0  0
  110.7680  -75.2741  -84.6212 C   0  0  0  0  0  0  0  0  0  0  0  0
  110.2374  -73.9995  -84.1326 C   0  0  0  0  0  0  0  0  0  0  0  0
  110.4876  -73.7290  -82.7518 C   0  0  0  0  0  0  0  0  0  0  0  0
  109.8473  -74.7142  -86.9345 C   0  0  0  0  0  0  0  0  0  0  0  0
  108.8026  -75.1661  -87.7740 C   0  0  0  0  0  0  0  0  0  0  0  0
  108.1184  -74.4045  -88.7231 C   0  0  0  0  0  0  0  0  0  0  0  0
  108.4687  -73.0045  -88.9102 C   0  0  0  0  0  0  0  0  0  0  0  0
  109.5241  -72.5869  -88.0641 C   0  0  0  0  0  0  0  0  0  0  0  0
  110.2394  -73.3153  -87.1036 C   0  0  0  0  0  0  0  0  0  0  0  0
  111.3499  -74.2124  -80.5999 N   0  3  0  0  0  0  0  0  0  0  0  0
  112.0683  -75.0424  -79.6395 C   0  0  0  0  0  0  0  0  0  0  0  0
  110.8654  -72.9600  -79.9788 C   0  0  0  0  0  0  0  0  0  0  0  0
  112.7354  -80.6020  -87.3551 N   0  0  0  0  0  0  0  0  0  0  0  0
  113.3275  -81.6269  -86.4666 C   0  0  0  0  0  0  0  0  0  0  0  0
  112.7191  -81.0682  -88.7866 C   0  0  0  0  0  0  0  0  0  0  0  0
  1  2  1  0  0  0  0
  1 14  1  0  0  0  0
  1 21  2  0  0  0  0
  2  3  2  0  0  0  0
  3  4  1  0  0  0  0
  3 12  1  0  0  0  0
  4  5  1  0  0  0  0
  5  6  1  0  0  0  0
  5 10  2  0  0  0  0
  6  7  2  0  0  0  0
  7  8  1  0  0  0  0
  7 24  1  0  0  0  0
  8  9  2  0  0  0  0
  9 10  1  0  0  0  0
 10 11  1  0  0  0  0
 11 12  2  0  0  0  0
 11 15  1  0  0  0  0
 12 13  1  0  0  0  0
 13 14  2  0  0  0  0
 15 16  2  0  0  0  0
 15 20  1  0  0  0  0
 16 17  1  0  0  0  0
 17 18  2  0  0  0  0
 18 19  1  0  0  0  0
 19 20  2  0  0  0  0
 21 22  1  0  0  0  0
 21 23  1  0  0  0  0
 24 25  1  0  0  0  0
 24 26  1  0  0  0  0
M  CHG  1  21   1
M  END
>  <CHROM.1>
5.53686581,52.30009608,111.05622730,-76.19194183,-85.33940569,-1.84741852
1.05147460,-2.08259682

>  <Name>
1f1t Malachite green aptamer (Xray 2.8A)

>  <RI>
0

>  <Rbt.Current_Directory>
/home/itssahil/PROJECTS/Mol_Feturizer/New_Systems/rnas/1f1t

>  <Rbt.Executable>
rbdock ($Id: //depot/dev/client3/rdock/2013.1/src/exe/rbdock.cxx#4 $)

>  <Rbt.Library>
libRbt.so (2013.1, Build901 2013/11/27)

>  <Rbt.Parameter_File>
/export/apps/rDock/src/rDock_2013.1_src/data/scripts/dock_solv.prm

>  <Rbt.Receptor>
prm/pocket_docking_6.prm

>  <SCORE>
-62.854

>  <SCORE.INTER>
-62.9161

>  <SCORE.INTER.CONST>
1

>  <SCORE.INTER.POLAR>
0

>  <SCORE.INTER.ROT>
2

>  <SCORE.INTER.SOLV>
11.1435

>  <SCORE.INTER.VDW>
-50.5919

>  <SCORE.INTER.norm>
-2.41985

>  <SCORE.INTRA>
0.0620768

>  <SCORE.INTRA.DIHEDRAL>
-1.09349

>  <SCORE.INTRA.DIHEDRAL.0>
4.18538

>  <SCORE.INTRA.POLAR>
0

>  <SCORE.INTRA.POLAR.0>
0

>  <SCORE.INTRA.REPUL>
0

>  <SCORE.INTRA.REPUL.0>
0

>  <SCORE.INTRA.SOLV>
0.0193491

>  <SCORE.INTRA.SOLV.lig_0>
-5.16926

>  <SCORE.INTRA.VDW>
0.599148

>  <SCORE.INTRA.VDW.0>
1.11912

>  <SCORE.INTRA.norm>
0.00238757

>  <SCORE.RESTR>
0

>  <SCORE.RESTR.CAVITY>
0

>  <SCORE.RESTR.norm>
0

>  <SCORE.SYSTEM>
0

>  <SCORE.SYSTEM.CONST>
0

>  <SCORE.SYSTEM.DIHEDRAL>
0

>  <SCORE.SYSTEM.SOLV>
0

>  <SCORE.SYSTEM.norm>
0

>  <SCORE.heavy>
26

>  <SCORE.norm>
-2.41746

>  <RMSD>
0.678

$$$$
1f1t Malachite green aptamer (Xray 2.8A)
 OpenBabel11021811393D
libRbt.so/2013.1/901 2013/11/27
 26 29  0  0  0  0  0  0  0  0999 V2000
  111.2361  -74.6082  -81.8970 C   0  0  0  0  0  0  0  0  0  0  0  0
  111.7479  -75.8819  -82.3808 C   0  0  0  0  0  0  0  0  0  0  0  0
  111.4845  -76.0992  -83.7346 C   0  0  0  0  0  0  0  0  0  0  0  0
  112.0298  -77.4133  -84.1766 O   0  0  0  0  0  0  0  0  0  0  0  0
  111.7938  -77.5987  -85.4167 C   0  0  0  0  0  0  0  0  0  0  0  0
  112.3534  -78.9089  -85.7482 C   0  0  0  0  0  0  0  0  0  0  0  0
  112.1857  -79.2865  -87.1277 C   0  0  0  0  0  0  0  0  0  0  0  0
  111.5455  -78.4511  -88.0763 C   0  0  0  0  0  0  0  0  0  0  0  0
  111.0027  -77.1647  -87.6808 C   0  0  0  0  0  0  0  0  0  0  0  0
  111.1465  -76.7722  -86.3004 C   0  0  0  0  0  0  0  0  0  0  0  0
  110.5404  -75.4282  -85.9710 C   0  0  0  0  0  0  0  0  0  0  0  0
  110.8137  -75.2457  -84.6034 C   0  0  0  0  0  0  0  0  0  0  0  0
  110.2999  -73.9716  -84.0957 C   0  0  0  0  0  0  0  0  0  0  0  0
  110.5588  -73.7225  -82.7125 C   0  0  0  0  0  0  0  0  0  0  0  0
  109.8906  -74.6442  -86.9053 C   0  0  0  0  0  0  0  0  0  0  0  0
  110.2279  -73.3108  -87.2352 C   0  0  0  0  0  0  0  0  0  0  0  0
  109.5942  -72.5107  -88.1876 C   0  0  0  0  0  0  0  0  0  0  0  0
  108.4741  -73.0463  -88.9467 C   0  0  0  0  0  0  0  0  0  0  0  0
  108.1549  -74.3773  -88.5853 C   0  0  0  0  0  0  0  0  0  0  0  0
  108.7588  -75.2136  -87.6362 C   0  0  0  0  0  0  0  0  0  0  0  0
  111.4237  -74.2447  -80.5707 N   0  3  0  0  0  0  0  0  0  0  0  0
  112.1361  -75.0958  -79.6244 C   0  0  0  0  0  0  0  0  0  0  0  0
  110.9564  -72.9951  -79.9310 C   0  0  0  0  0  0  0  0  0  0  0  0
  112.7075  -80.5592  -87.4159 N   0  0  0  0  0  0  0  0  0  0  0  0
  113.3064  -81.5959  -86.5460 C   0  0  0  0  0  0  0  0  0  0  0  0
  112.6615  -81.0144  -88.8504 C   0  0  0  0  0  0  0  0  0  0  0  0
  1  2  1  0  0  0  0
  1 14  1  0  0  0  0
  1 21  2  0  0  0  0
  2  3  2  0  0  0  0
  3  4  1  0  0  0  0
  3 12  1  0  0  0  0
  4  5  1  0  0  0  0
  5  6  1  0  0  0  0
  5 10  2  0  0  0  0
  6  7  2  0  0  0  0
  7  8  1  0  0  0  0
  7 24  1  0  0  0  0
  8  9  2  0  0  0  0
  9 10  1  0  0  0  0
 10 11  1  0  0  0  0
 11 12  2  0  0  0  0
 11 15  1  0  0  0  0
 12 13  1  0  0  0  0
 13 14  2  0  0  0  0
 15 16  2  0  0  0  0
 15 20  1  0  0  0  0
 16 17  1  0  0  0  0
 17 18  2  0  0  0  0
 18 19  1  0  0  0  0
 19 20  2  0  0  0  0
 21 22  1  0  0  0  0
 21 23  1  0  0  0  0
 24 25  1  0  0  0  0
 24 26  1  0  0  0  0
M  CHG  1  21   1
M  END
>  <CHROM.1>
4.65025873,-123.37422076,111.08063991,-76.17452889,-85.34426437,-1.80937094
1.05477361,-2.08763614

>  <Name>
1f1t Malachite green aptamer (Xray 2.8A)

>  <RI>
0

>  <Rbt.Current_Directory>
/home/itssahil/PROJECTS/Mol_Feturizer/New_Systems/rnas/1f1t

>  <Rbt.Executable>
rbdock ($Id: //depot/dev/client3/rdock/2013.1/src/exe/rbdock.cxx#4 $)

>  <Rbt.Library>
libRbt.so (2013.1, Build901 2013/11/27)

>  <Rbt.Parameter_File>
/export/apps/rDock/src/rDock_2013.1_src/data/scripts/dock_solv.prm

>  <Rbt.Receptor>
prm/pocket_docking_2.prm

>  <SCORE>
-63.3196

>  <SCORE.INTER>
-63.4127

>  <SCORE.INTER.CONST>
1

>  <SCORE.INTER.POLAR>
0

>  <SCORE.INTER.ROT>
2

>  <SCORE.INTER.SOLV>
11.1769

>  <SCORE.INTER.VDW>
-50.9341

>  <SCORE.INTER.norm>
-2.43895

>  <SCORE.INTRA>
0.0930384

>  <SCORE.INTRA.DIHEDRAL>
-0.783736

>  <SCORE.INTRA.DIHEDRAL.0>
4.18538

>  <SCORE.INTRA.POLAR>
0

>  <SCORE.INTRA.POLAR.0>
0

>  <SCORE.INTRA.REPUL>
0

>  <SCORE.INTRA.REPUL.0>
0

>  <SCORE.INTRA.SOLV>
0.014423

>  <SCORE.INTRA.SOLV.lig_0>
-5.16926

>  <SCORE.INTRA.VDW>
0.477695

>  <SCORE.INTRA.VDW.0>
1.11912

>  <SCORE.INTRA.norm>
0.0035784

>  <SCORE.RESTR>
0

>  <SCORE.RESTR.CAVITY>
0

>  <SCORE.RESTR.norm>
0

>  <SCORE.SYSTEM>
0

>  <SCORE.SYSTEM.CONST>
0

>  <SCORE.SYSTEM.DIHEDRAL>
0

>  <SCORE.SYSTEM.SOLV>
0

>  <SCORE.SYSTEM.norm>
0

>  <SCORE.heavy>
26

>  <SCORE.norm>
-2.43537

>  <RMSD>
0.679

$$$$
1f1t Malachite green aptamer (Xray 2.8A)
 OpenBabel11021811393D
libRbt.so/2013.1/901 2013/11/27
 26 29  0  0  0  0  0  0  0  0999 V2000
  111.1594  -74.5874  -81.9231 C   0  0  0  0  0  0  0  0  0  0  0  0
  111.6893  -75.8623  -82.3837 C   0  0  0  0  0  0  0  0  0  0  0  0
  111.4361  -76.1043  -83.7353 C   0  0  0  0  0  0  0  0  0  0  0  0
  111.9996  -77.4185  -84.1534 O   0  0  0  0  0  0  0  0  0  0  0  0
  111.7728  -77.6263  -85.3917 C   0  0  0  0  0  0  0  0  0  0  0  0
  112.3500  -78.9347  -85.6992 C   0  0  0  0  0  0  0  0  0  0  0  0
  112.1946  -79.3361  -87.0734 C   0  0  0  0  0  0  0  0  0  0  0  0
  111.5497  -78.5238  -88.0386 C   0  0  0  0  0  0  0  0  0  0  0  0
  110.9893  -77.2379  -87.6667 C   0  0  0  0  0  0  0  0  0  0  0  0
  111.1206  -76.8219  -86.2919 C   0  0  0  0  0  0  0  0  0  0  0  0
  110.4965  -75.4803  -85.9872 C   0  0  0  0  0  0  0  0  0  0  0  0
  110.7599  -75.2728  -84.6213 C   0  0  0  0  0  0  0  0  0  0  0  0
  110.2280  -73.9972  -84.1367 C   0  0  0  0  0  0  0  0  0  0  0  0
  110.4761  -73.7231  -82.7562 C   0  0  0  0  0  0  0  0  0  0  0  0
  109.8426  -74.7191  -86.9374 C   0  0  0  0  0  0  0  0  0  0  0  0
  108.8087  -75.1772  -87.7868 C   0  0  0  0  0  0  0  0  0  0  0  0
  108.1258  -74.4185  -88.7391 C   0  0  0  0  0  0  0  0  0  0  0  0
  108.4655  -73.0149  -88.9189 C   0  0  0  0  0  0  0  0  0  0  0  0
  109.5103  -72.5910  -88.0629 C   0  0  0  0  0  0  0  0  0  0  0  0
  110.2240  -73.3163  -87.0989 C   0  0  0  0  0  0  0  0  0  0  0  0
  111.3352  -74.2007  -80.6018 N   0  3  0  0  0  0  0  0  0  0  0  0
  112.0524  -75.0280  -79.6381 C   0  0  0  0  0  0  0  0  0  0  0  0
  110.8493  -72.9469  -79.9845 C   0  0  0  0  0  0  0  0  0  0  0  0
  112.7334  -80.6068  -87.3386 N   0  0  0  0  0  0  0  0  0  0  0  0
  113.3358  -81.6241  -86.4483 C   0  0  0  0  0  0  0  0  0  0  0  0
  112.7057  -81.0830  -88.7667 C   0  0  0  0  0  0  0  0  0  0  0  0
  1  2  1  0  0  0  0
  1 14  1  0  0  0  0
  1 21  2  0  0  0  0
  2  3  2  0  0  0  0
  3  4  1  0  0  0  0
  3 12  1  0  0  0  0
  4  5  1  0  0  0  0
  5  6  1  0  0  0  0
  5 10  2  0  0  0  0
  6  7  2  0  0  0  0
  7  8  1  0  0  0  0
  7 24  1  0  0  0  0
  8  9  2  0  0  0  0
  9 10  1  0  0  0  0
 10 11  1  0  0  0  0
 11 12  2  0  0  0  0
 11 15  1  0  0  0  0
 12 13  1  0  0  0  0
 13 14  2  0  0  0  0
 15 16  2  0  0  0  0
 15 20  1  0  0  0  0
 16 17  1  0  0  0  0
 17 18  2  0  0  0  0
 18 19  1  0  0  0  0
 19 20  2  0  0  0  0
 21 22  1  0  0  0  0
 21 23  1  0  0  0  0
 24 25  1  0  0  0  0
 24 26  1  0  0  0  0
M  CHG  1  21   1
M  END
>  <CHROM.1>
4.88248507,51.61170350,111.04932529,-76.19237249,-85.33658093,-1.85010737
1.05176958,-2.08294706

>  <Name>
1f1t Malachite green aptamer (Xray 2.8A)

>  <RI>
0

>  <Rbt.Current_Directory>
/home/itssahil/PROJECTS/Mol_Feturizer/New_Systems/rnas/1f1t

>  <Rbt.Executable>
rbdock ($Id: //depot/dev/client3/rdock/2013.1/src/exe/rbdock.cxx#4 $)

>  <Rbt.Library>
libRbt.so (2013.1, Build901 2013/11/27)

>  <Rbt.Parameter_File>
/export/apps/rDock/src/rDock_2013.1_src/data/scripts/dock_solv.prm

>  <Rbt.Receptor>
prm/pocket_docking_4.prm

>  <SCORE>
-62.8445

>  <SCORE.INTER>
-62.9183

>  <SCORE.INTER.CONST>
1

>  <SCORE.INTER.POLAR>
0

>  <SCORE.INTER.ROT>
2

>  <SCORE.INTER.SOLV>
11.1441

>  <SCORE.INTER.VDW>
-50.5935

>  <SCORE.INTER.norm>
-2.41993

>  <SCORE.INTRA>
0.0737414

>  <SCORE.INTRA.DIHEDRAL>
-1.17535

>  <SCORE.INTRA.DIHEDRAL.0>
4.18538

>  <SCORE.INTRA.POLAR>
0

>  <SCORE.INTRA.POLAR.0>
0

>  <SCORE.INTRA.REPUL>
0

>  <SCORE.INTRA.REPUL.0>
0

>  <SCORE.INTRA.SOLV>
0.0201175

>  <SCORE.INTRA.SOLV.lig_0>
-5.16926

>  <SCORE.INTRA.VDW>
0.651358

>  <SCORE.INTRA.VDW.0>
1.11912

>  <SCORE.INTRA.norm>
0.00283621

>  <SCORE.RESTR>
0

>  <SCORE.RESTR.CAVITY>
0

>  <SCORE.RESTR.norm>
0

>  <SCORE.SYSTEM>
0

>  <SCORE.SYSTEM.CONST>
0

>  <SCORE.SYSTEM.DIHEDRAL>
0

>  <SCORE.SYSTEM.SOLV>
0

>  <SCORE.SYSTEM.norm>
0

>  <SCORE.heavy>
26

>  <SCORE.norm>
-2.4171

>  <RMSD>
0.679

$$$$
1f1t Malachite green aptamer (Xray 2.8A)
 OpenBabel11021811393D
libRbt.so/2013.1/901 2013/11/27
 26 29  0  0  0  0  0  0  0  0999 V2000
  111.1732  -74.5884  -81.9198 C   0  0  0  0  0  0  0  0  0  0  0  0
  111.6992  -75.8645  -82.3816 C   0  0  0  0  0  0  0  0  0  0  0  0
  111.4444  -76.1049  -83.7331 C   0  0  0  0  0  0  0  0  0  0  0  0
  112.0039  -77.4205  -84.1524 O   0  0  0  0  0  0  0  0  0  0  0  0
  111.7757  -77.6269  -85.3906 C   0  0  0  0  0  0  0  0  0  0  0  0
  112.3490  -78.9368  -85.6994 C   0  0  0  0  0  0  0  0  0  0  0  0
  112.1916  -79.3369  -87.0737 C   0  0  0  0  0  0  0  0  0  0  0  0
  111.5483  -78.5221  -88.0380 C   0  0  0  0  0  0  0  0  0  0  0  0
  110.9918  -77.2350  -87.6649 C   0  0  0  0  0  0  0  0  0  0  0  0
  111.1252  -76.8201  -86.2899 C   0  0  0  0  0  0  0  0  0  0  0  0
  110.5052  -75.4770  -85.9840 C   0  0  0  0  0  0  0  0  0  0  0  0
  110.7700  -75.2710  -84.6181 C   0  0  0  0  0  0  0  0  0  0  0  0
  110.2421  -73.9941  -84.1324 C   0  0  0  0  0  0  0  0  0  0  0  0
  110.4918  -73.7216  -82.7519 C   0  0  0  0  0  0  0  0  0  0  0  0
  109.8527  -74.7133  -86.9333 C   0  0  0  0  0  0  0  0  0  0  0  0
  108.8117  -75.1659  -87.7770 C   0  0  0  0  0  0  0  0  0  0  0  0
  108.1303  -74.4045  -88.7282 C   0  0  0  0  0  0  0  0  0  0  0  0
  108.4797  -73.0040  -88.9132 C   0  0  0  0  0  0  0  0  0  0  0  0
  109.5314  -72.5857  -88.0629 C   0  0  0  0  0  0  0  0  0  0  0  0
  110.2439  -73.3138  -87.1001 C   0  0  0  0  0  0  0  0  0  0  0  0
  111.3510  -74.2030  -80.5983 N   0  3  0  0  0  0  0  0  0  0  0  0
  112.0665  -75.0329  -79.6357 C   0  0  0  0  0  0  0  0  0  0  0  0
  110.8691  -72.9482  -79.9800 C   0  0  0  0  0  0  0  0  0  0  0  0
  112.7265  -80.6090  -87.3399 N   0  0  0  0  0  0  0  0  0  0  0  0
  113.3235  -81.6299  -86.4502 C   0  0  0  0  0  0  0  0  0  0  0  0
  112.7004  -81.0825  -88.7690 C   0  0  0  0  0  0  0  0  0  0  0  0
  1  2  1  0  0  0  0
  1 14  1  0  0  0  0
  1 21  2  0  0  0  0
  2  3  2  0  0  0  0
  3  4  1  0  0  0  0
  3 12  1  0  0  0  0
  4  5  1  0  0  0  0
  5  6  1  0  0  0  0
  5 10  2  0  0  0  0
  6  7  2  0  0  0  0
  7  8  1  0  0  0  0
  7 24  1  0  0  0  0
  8  9  2  0  0  0  0
  9 10  1  0  0  0  0
 10 11  1  0  0  0  0
 11 12  2  0  0  0  0
 11 15  1  0  0  0  0
 12 13  1  0  0  0  0
 13 14  2  0  0  0  0
 15 16  2  0  0  0  0
 15 20  1  0  0  0  0
 16 17  1  0  0  0  0
 17 18  2  0  0  0  0
 18 19  1  0  0  0  0
 19 20  2  0  0  0  0
 21 22  1  0  0  0  0
 21 23  1  0  0  0  0
 24 25  1  0  0  0  0
 24 26  1  0  0  0  0
M  CHG  1  21   1
M  END
>  <CHROM.1>
5.06286077,51.99844717,111.05643243,-76.19094941,-85.33421401,-1.84623095
1.05397037,-2.08563950

>  <Name>
1f1t Malachite green aptamer (Xray 2.8A)

>  <RI>
0

>  <Rbt.Current_Directory>
/home/itssahil/PROJECTS/Mol_Feturizer/New_Systems/rnas/1f1t

>  <Rbt.Executable>
rbdock ($Id: //depot/dev/client3/rdock/2013.1/src/exe/rbdock.cxx#4 $)

>  <Rbt.Library>
libRbt.so (2013.1, Build901 2013/11/27)

>  <Rbt.Parameter_File>
/export/apps/rDock/src/rDock_2013.1_src/data/scripts/dock_solv.prm

>  <Rbt.Receptor>
prm/pocket_docking_4.prm

>  <SCORE>
-62.9072

>  <SCORE.INTER>
-62.9728

>  <SCORE.INTER.CONST>
1

>  <SCORE.INTER.POLAR>
0

>  <SCORE.INTER.ROT>
2

>  <SCORE.INTER.SOLV>
11.1489

>  <SCORE.INTER.VDW>
-50.6315

>  <SCORE.INTER.norm>
-2.42203

>  <SCORE.INTRA>
0.0655921

>  <SCORE.INTRA.DIHEDRAL>
-1.13701

>  <SCORE.INTRA.DIHEDRAL.0>
4.18538

>  <SCORE.INTRA.POLAR>
0

>  <SCORE.INTRA.POLAR.0>
0

>  <SCORE.INTRA.REPUL>
0

>  <SCORE.INTRA.REPUL.0>
0

>  <SCORE.INTRA.SOLV>
0.0196861

>  <SCORE.INTRA.SOLV.lig_0>
-5.16926

>  <SCORE.INTRA.VDW>
0.624255

>  <SCORE.INTRA.VDW.0>
1.11912

>  <SCORE.INTRA.norm>
0.00252277

>  <SCORE.RESTR>
0

>  <SCORE.RESTR.CAVITY>
0

>  <SCORE.RESTR.norm>
0

>  <SCORE.SYSTEM>
0

>  <SCORE.SYSTEM.CONST>
0

>  <SCORE.SYSTEM.DIHEDRAL>
0

>  <SCORE.SYSTEM.SOLV>
0

>  <SCORE.SYSTEM.norm>
0

>  <SCORE.heavy>
26

>  <SCORE.norm>
-2.41951

>  <RMSD>
0.679

$$$$
1f1t Malachite green aptamer (Xray 2.8A)
 OpenBabel11021811393D
libRbt.so/2013.1/901 2013/11/27
 26 29  0  0  0  0  0  0  0  0999 V2000
  111.1711  -74.5878  -81.9178 C   0  0  0  0  0  0  0  0  0  0  0  0
  111.6985  -75.8631  -82.3801 C   0  0  0  0  0  0  0  0  0  0  0  0
  111.4446  -76.1029  -83.7319 C   0  0  0  0  0  0  0  0  0  0  0  0
  112.0057  -77.4177  -84.1517 O   0  0  0  0  0  0  0  0  0  0  0  0
  111.7783  -77.6236  -85.3902 C   0  0  0  0  0  0  0  0  0  0  0  0
  112.3530  -78.9327  -85.6994 C   0  0  0  0  0  0  0  0  0  0  0  0
  112.1966  -79.3321  -87.0741 C   0  0  0  0  0  0  0  0  0  0  0  0
  111.5531  -78.5173  -88.0382 C   0  0  0  0  0  0  0  0  0  0  0  0
  110.9952  -77.2309  -87.6646 C   0  0  0  0  0  0  0  0  0  0  0  0
  111.1274  -76.8168  -86.2893 C   0  0  0  0  0  0  0  0  0  0  0  0
  110.5060  -75.4744  -85.9829 C   0  0  0  0  0  0  0  0  0  0  0  0
  110.7699  -75.2691  -84.6167 C   0  0  0  0  0  0  0  0  0  0  0  0
  110.2405  -73.9930  -84.1305 C   0  0  0  0  0  0  0  0  0  0  0  0
  110.4893  -73.7211  -82.7497 C   0  0  0  0  0  0  0  0  0  0  0  0
  109.8533  -74.7108  -86.9320 C   0  0  0  0  0  0  0  0  0  0  0  0
  108.8127  -75.1637  -87.7761 C   0  0  0  0  0  0  0  0  0  0  0  0
  108.1311  -74.4023  -88.7273 C   0  0  0  0  0  0  0  0  0  0  0  0
  108.4797  -73.0015  -88.9116 C   0  0  0  0  0  0  0  0  0  0  0  0
  109.5309  -72.5829  -88.0609 C   0  0  0  0  0  0  0  0  0  0  0  0
  110.2437  -73.3110  -87.0982 C   0  0  0  0  0  0  0  0  0  0  0  0
  111.3478  -74.2030  -80.5960 N   0  3  0  0  0  0  0  0  0  0  0  0
  112.0636  -75.0328  -79.6335 C   0  0  0  0  0  0  0  0  0  0  0  0
  110.8644  -72.9491  -79.9771 C   0  0  0  0  0  0  0  0  0  0  0  0
  112.7329  -80.6035  -87.3409 N   0  0  0  0  0  0  0  0  0  0  0  0
  113.3330  -81.6233  -86.4519 C   0  0  0  0  0  0  0  0  0  0  0  0
  112.7048  -81.0776  -88.7697 C   0  0  0  0  0  0  0  0  0  0  0  0
  1  2  1  0  0  0  0
  1 14  1  0  0  0  0
  1 21  2  0  0  0  0
  2  3  2  0  0  0  0
  3  4  1  0  0  0  0
  3 12  1  0  0  0  0
  4  5  1  0  0  0  0
  5  6  1  0  0  0  0
  5 10  2  0  0  0  0
  6  7  2  0  0  0  0
  7  8  1  0  0  0  0
  7 24  1  0  0  0  0
  8  9  2  0  0  0  0
  9 10  1  0  0  0  0
 10 11  1  0  0  0  0
 11 12  2  0  0  0  0
 11 15  1  0  0  0  0
 12 13  1  0  0  0  0
 13 14  2  0  0  0  0
 15 16  2  0  0  0  0
 15 20  1  0  0  0  0
 16 17  1  0  0  0  0
 17 18  2  0  0  0  0
 18 19  1  0  0  0  0
 19 20  2  0  0  0  0
 21 22  1  0  0  0  0
 21 23  1  0  0  0  0
 24 25  1  0  0  0  0
 24 26  1  0  0  0  0
M  CHG  1  21   1
M  END
>  <CHROM.1>
4.91154064,52.02699858,111.05756979,-76.18832899,-85.33325148,-1.84800141
1.05337320,-2.08348323

>  <Name>
1f1t Malachite green aptamer (Xray 2.8A)

>  <RI>
0

>  <Rbt.Current_Directory>
/home/itssahil/PROJECTS/Mol_Feturizer/New_Systems/rnas/1f1t

>  <Rbt.Executable>
rbdock ($Id: //depot/dev/client3/rdock/2013.1/src/exe/rbdock.cxx#4 $)

>  <Rbt.Library>
libRbt.so (2013.1, Build901 2013/11/27)

>  <Rbt.Parameter_File>
/export/apps/rDock/src/rDock_2013.1_src/data/scripts/dock_solv.prm

>  <Rbt.Receptor>
prm/pocket_docking_5.prm

>  <SCORE>
-62.9069

>  <SCORE.INTER>
-62.9708

>  <SCORE.INTER.CONST>
1

>  <SCORE.INTER.POLAR>
0

>  <SCORE.INTER.ROT>
2

>  <SCORE.INTER.SOLV>
11.1543

>  <SCORE.INTER.VDW>
-50.632

>  <SCORE.INTER.norm>
-2.42195

>  <SCORE.INTRA>
0.06389

>  <SCORE.INTRA.DIHEDRAL>
-1.14037

>  <SCORE.INTRA.DIHEDRAL.0>
4.18538

>  <SCORE.INTRA.POLAR>
0

>  <SCORE.INTRA.POLAR.0>
0

>  <SCORE.INTRA.REPUL>
0

>  <SCORE.INTRA.REPUL.0>
0

>  <SCORE.INTRA.SOLV>
0.019654

>  <SCORE.INTRA.SOLV.lig_0>
-5.16926

>  <SCORE.INTRA.VDW>
0.62425

>  <SCORE.INTRA.VDW.0>
1.11912

>  <SCORE.INTRA.norm>
0.00245731

>  <SCORE.RESTR>
0

>  <SCORE.RESTR.CAVITY>
0

>  <SCORE.RESTR.norm>
0

>  <SCORE.SYSTEM>
0

>  <SCORE.SYSTEM.CONST>
0

>  <SCORE.SYSTEM.DIHEDRAL>
0

>  <SCORE.SYSTEM.SOLV>
0

>  <SCORE.SYSTEM.norm>
0

>  <SCORE.heavy>
26

>  <SCORE.norm>
-2.4195

>  <RMSD>
0.679

$$$$
1f1t Malachite green aptamer (Xray 2.8A)
 OpenBabel11021811393D
libRbt.so/2013.1/901 2013/11/27
 26 29  0  0  0  0  0  0  0  0999 V2000
  111.2564  -74.6126  -81.8818 C   0  0  0  0  0  0  0  0  0  0  0  0
  111.7644  -75.8867  -82.3685 C   0  0  0  0  0  0  0  0  0  0  0  0
  111.5024  -76.0991  -83.7233 C   0  0  0  0  0  0  0  0  0  0  0  0
  112.0437  -77.4138  -84.1684 O   0  0  0  0  0  0  0  0  0  0  0  0
  111.8091  -77.5947  -85.4094 C   0  0  0  0  0  0  0  0  0  0  0  0
  112.3645  -78.9059  -85.7438 C   0  0  0  0  0  0  0  0  0  0  0  0
  112.1977  -79.2788  -87.1247 C   0  0  0  0  0  0  0  0  0  0  0  0
  111.5620  -78.4384  -88.0718 C   0  0  0  0  0  0  0  0  0  0  0  0
  111.0232  -77.1513  -87.6735 C   0  0  0  0  0  0  0  0  0  0  0  0
  111.1661  -76.7633  -86.2917 C   0  0  0  0  0  0  0  0  0  0  0  0
  110.5644  -75.4182  -85.9593 C   0  0  0  0  0  0  0  0  0  0  0  0
  110.8361  -75.2406  -84.5907 C   0  0  0  0  0  0  0  0  0  0  0  0
  110.3261  -73.9662  -84.0801 C   0  0  0  0  0  0  0  0  0  0  0  0
  110.5836  -73.7221  -82.6957 C   0  0  0  0  0  0  0  0  0  0  0  0
  109.9189  -74.6290  -86.8923 C   0  0  0  0  0  0  0  0  0  0  0  0
  110.2525  -73.2911  -87.2074 C   0  0  0  0  0  0  0  0  0  0  0  0
  109.6233  -72.4857  -88.1583 C   0  0  0  0  0  0  0  0  0  0  0  0
  108.5125  -73.0200  -88.9320 C   0  0  0  0  0  0  0  0  0  0  0  0
  108.1968  -74.3557  -88.5851 C   0  0  0  0  0  0  0  0  0  0  0  0
  108.7964  -75.1974  -87.6382 C   0  0  0  0  0  0  0  0  0  0  0  0
  111.4431  -74.2537  -80.5541 N   0  3  0  0  0  0  0  0  0  0  0  0
  112.1508  -75.1101  -79.6091 C   0  0  0  0  0  0  0  0  0  0  0  0
  110.9793  -73.0043  -79.9115 C   0  0  0  0  0  0  0  0  0  0  0  0
  112.7154  -80.5526  -87.4158 N   0  0  0  0  0  0  0  0  0  0  0  0
  113.3030  -81.5967  -86.5470 C   0  0  0  0  0  0  0  0  0  0  0  0
  112.6776  -81.0001  -88.8530 C   0  0  0  0  0  0  0  0  0  0  0  0
  1  2  1  0  0  0  0
  1 14  1  0  0  0  0
  1 21  2  0  0  0  0
  2  3  2  0  0  0  0
  3  4  1  0  0  0  0
  3 12  1  0  0  0  0
  4  5  1  0  0  0  0
  5  6  1  0  0  0  0
  5 10  2  0  0  0  0
  6  7  2  0  0  0  0
  7  8  1  0  0  0  0
  7 24  1  0  0  0  0
  8  9  2  0  0  0  0
  9 10  1  0  0  0  0
 10 11  1  0  0  0  0
 11 12  2  0  0  0  0
 11 15  1  0  0  0  0
 12 13  1  0  0  0  0
 13 14  2  0  0  0  0
 15 16  2  0  0  0  0
 15 20  1  0  0  0  0
 16 17  1  0  0  0  0
 17 18  2  0  0  0  0
 18 19  1  0  0  0  0
 19 20  2  0  0  0  0
 21 22  1  0  0  0  0
 21 23  1  0  0  0  0
 24 25  1  0  0  0  0
 24 26  1  0  0  0  0
M  CHG  1  21   1
M  END
>  <CHROM.1>
5.00531112,-124.09570406,111.10107357,-76.16820076,-85.33397847,-1.80871081
1.05886650,-2.08526978

>  <Name>
1f1t Malachite green aptamer (Xray 2.8A)

>  <RI>
0

>  <Rbt.Current_Directory>
/home/itssahil/PROJECTS/Mol_Feturizer/New_Systems/rnas/1f1t

>  <Rbt.Executable>
rbdock ($Id: //depot/dev/client3/rdock/2013.1/src/exe/rbdock.cxx#4 $)

>  <Rbt.Library>
libRbt.so (2013.1, Build901 2013/11/27)

>  <Rbt.Parameter_File>
/export/apps/rDock/src/rDock_2013.1_src/data/scripts/dock_solv.prm

>  <Rbt.Receptor>
prm/pocket_docking_8.prm

>  <SCORE>
-63.273

>  <SCORE.INTER>
-63.3858

>  <SCORE.INTER.CONST>
1

>  <SCORE.INTER.POLAR>
0

>  <SCORE.INTER.ROT>
2

>  <SCORE.INTER.SOLV>
11.1816

>  <SCORE.INTER.VDW>
-50.9177

>  <SCORE.INTER.norm>
-2.43791

>  <SCORE.INTRA>
0.1128

>  <SCORE.INTRA.DIHEDRAL>
-0.826916

>  <SCORE.INTRA.DIHEDRAL.0>
4.18538

>  <SCORE.INTRA.POLAR>
0

>  <SCORE.INTRA.POLAR.0>
0

>  <SCORE.INTRA.REPUL>
0

>  <SCORE.INTRA.REPUL.0>
0

>  <SCORE.INTRA.SOLV>
0.0152624

>  <SCORE.INTRA.SOLV.lig_0>
-5.16926

>  <SCORE.INTRA.VDW>
0.518627

>  <SCORE.INTRA.VDW.0>
1.11912

>  <SCORE.INTRA.norm>
0.00433845

>  <SCORE.RESTR>
0

>  <SCORE.RESTR.CAVITY>
0

>  <SCORE.RESTR.norm>
0

>  <SCORE.SYSTEM>
0

>  <SCORE.SYSTEM.CONST>
0

>  <SCORE.SYSTEM.DIHEDRAL>
0

>  <SCORE.SYSTEM.SOLV>
0

>  <SCORE.SYSTEM.norm>
0

>  <SCORE.heavy>
26

>  <SCORE.norm>
-2.43358

>  <RMSD>
0.679

$$$$
1f1t Malachite green aptamer (Xray 2.8A)
 OpenBabel11021811393D
libRbt.so/2013.1/901 2013/11/27
 26 29  0  0  0  0  0  0  0  0999 V2000
  111.1609  -74.6026  -81.9180 C   0  0  0  0  0  0  0  0  0  0  0  0
  111.6908  -75.8754  -82.3844 C   0  0  0  0  0  0  0  0  0  0  0  0
  111.4396  -76.1102  -83.7376 C   0  0  0  0  0  0  0  0  0  0  0  0
  112.0031  -77.4225  -84.1617 O   0  0  0  0  0  0  0  0  0  0  0  0
  111.7781  -77.6238  -85.4014 C   0  0  0  0  0  0  0  0  0  0  0  0
  112.3551  -78.9309  -85.7149 C   0  0  0  0  0  0  0  0  0  0  0  0
  112.2016  -79.3250  -87.0914 C   0  0  0  0  0  0  0  0  0  0  0  0
  111.5586  -78.5072  -88.0533 C   0  0  0  0  0  0  0  0  0  0  0  0
  110.9983  -77.2231  -87.6755 C   0  0  0  0  0  0  0  0  0  0  0  0
  111.1277  -76.8143  -86.2984 C   0  0  0  0  0  0  0  0  0  0  0  0
  110.5039  -75.4740  -85.9877 C   0  0  0  0  0  0  0  0  0  0  0  0
  110.7652  -75.2737  -84.6203 C   0  0  0  0  0  0  0  0  0  0  0  0
  110.2333  -74.0003  -84.1299 C   0  0  0  0  0  0  0  0  0  0  0  0
  110.4794  -73.7336  -82.7476 C   0  0  0  0  0  0  0  0  0  0  0  0
  109.8518  -74.7074  -86.9349 C   0  0  0  0  0  0  0  0  0  0  0  0
  108.7964  -75.1513  -87.7652 C   0  0  0  0  0  0  0  0  0  0  0  0
  108.1153  -74.3866  -88.7141 C   0  0  0  0  0  0  0  0  0  0  0  0
  108.4811  -72.9920  -88.9111 C   0  0  0  0  0  0  0  0  0  0  0  0
  109.5468  -72.5825  -88.0740 C   0  0  0  0  0  0  0  0  0  0  0  0
  110.2595  -73.3142  -87.1142 C   0  0  0  0  0  0  0  0  0  0  0  0
  111.3349  -74.2229  -80.5943 N   0  3  0  0  0  0  0  0  0  0  0  0
  112.0501  -75.0556  -79.6339 C   0  0  0  0  0  0  0  0  0  0  0  0
  110.8487  -72.9721  -79.9713 C   0  0  0  0  0  0  0  0  0  0  0  0
  112.7400  -80.5946  -87.3623 N   0  0  0  0  0  0  0  0  0  0  0  0
  113.3449  -81.6149  -86.4771 C   0  0  0  0  0  0  0  0  0  0  0  0
  112.7091  -81.0657  -88.7920 C   0  0  0  0  0  0  0  0  0  0  0  0
  1  2  1  0  0  0  0
  1 14  1  0  0  0  0
  1 21  2  0  0  0  0
  2  3  2  0  0  0  0
  3  4  1  0  0  0  0
  3 12  1  0  0  0  0
  4  5  1  0  0  0  0
  5  6  1  0  0  0  0
  5 10  2  0  0  0  0
  6  7  2  0  0  0  0
  7  8  1  0  0  0  0
  7 24  1  0  0  0  0
  8  9  2  0  0  0  0
  9 10  1  0  0  0  0
 10 11  1  0  0  0  0
 11 12  2  0  0  0  0
 11 15  1  0  0  0  0
 12 13  1  0  0  0  0
 13 14  2  0  0  0  0
 15 16  2  0  0  0  0
 15 20  1  0  0  0  0
 16 17  1  0  0  0  0
 17 18  2  0  0  0  0
 18 19  1  0  0  0  0
 19 20  2  0  0  0  0
 21 22  1  0  0  0  0
 21 23  1  0  0  0  0
 24 25  1  0  0  0  0
 24 26  1  0  0  0  0
M  CHG  1  21   1
M  END
>  <CHROM.1>
4.63126591,53.28471269,111.05549993,-76.18973289,-85.34009411,-1.85226279
1.05306479,-2.07562089

>  <Name>
1f1t Malachite green aptamer (Xray 2.8A)

>  <RI>
0

>  <Rbt.Current_Directory>
/home/itssahil/PROJECTS/Mol_Feturizer/New_Systems/rnas/1f1t

>  <Rbt.Executable>
rbdock ($Id: //depot/dev/client3/rdock/2013.1/src/exe/rbdock.cxx#4 $)

>  <Rbt.Library>
libRbt.so (2013.1, Build901 2013/11/27)

>  <Rbt.Parameter_File>
/export/apps/rDock/src/rDock_2013.1_src/data/scripts/dock_solv.prm

>  <Rbt.Receptor>
prm/pocket_docking_3.prm

>  <SCORE>
-62.8506

>  <SCORE.INTER>
-62.9036

>  <SCORE.INTER.CONST>
1

>  <SCORE.INTER.POLAR>
0

>  <SCORE.INTER.ROT>
2

>  <SCORE.INTER.SOLV>
11.1613

>  <SCORE.INTER.VDW>
-50.5895

>  <SCORE.INTER.norm>
-2.41937

>  <SCORE.INTRA>
0.0529761

>  <SCORE.INTRA.DIHEDRAL>
-1.04851

>  <SCORE.INTRA.DIHEDRAL.0>
4.18538

>  <SCORE.INTRA.POLAR>
0

>  <SCORE.INTRA.POLAR.0>
0

>  <SCORE.INTRA.REPUL>
0

>  <SCORE.INTRA.REPUL.0>
0

>  <SCORE.INTRA.SOLV>
0.0182403

>  <SCORE.INTRA.SOLV.lig_0>
-5.16926

>  <SCORE.INTRA.VDW>
0.568113

>  <SCORE.INTRA.VDW.0>
1.11912

>  <SCORE.INTRA.norm>
0.00203754

>  <SCORE.RESTR>
0

>  <SCORE.RESTR.CAVITY>
0

>  <SCORE.RESTR.norm>
0

>  <SCORE.SYSTEM>
0

>  <SCORE.SYSTEM.CONST>
0

>  <SCORE.SYSTEM.DIHEDRAL>
0

>  <SCORE.SYSTEM.SOLV>
0

>  <SCORE.SYSTEM.norm>
0

>  <SCORE.heavy>
26

>  <SCORE.norm>
-2.41733

>  <RMSD>
0.680

$$$$
1f1t Malachite green aptamer (Xray 2.8A)
 OpenBabel11021811393D
libRbt.so/2013.1/901 2013/11/27
 26 29  0  0  0  0  0  0  0  0999 V2000
  111.1666  -74.6012  -81.9227 C   0  0  0  0  0  0  0  0  0  0  0  0
  111.6970  -75.8737  -82.3892 C   0  0  0  0  0  0  0  0  0  0  0  0
  111.4425  -76.1103  -83.7415 C   0  0  0  0  0  0  0  0  0  0  0  0
  112.0067  -77.4223  -84.1657 O   0  0  0  0  0  0  0  0  0  0  0  0
  111.7787  -77.6251  -85.4045 C   0  0  0  0  0  0  0  0  0  0  0  0
  112.3566  -78.9318  -85.7182 C   0  0  0  0  0  0  0  0  0  0  0  0
  112.2000  -79.3276  -87.0938 C   0  0  0  0  0  0  0  0  0  0  0  0
  111.5533  -78.5118  -88.0550 C   0  0  0  0  0  0  0  0  0  0  0  0
  110.9923  -77.2280  -87.6770 C   0  0  0  0  0  0  0  0  0  0  0  0
  111.1247  -76.8175  -86.3007 C   0  0  0  0  0  0  0  0  0  0  0  0
  110.4999  -75.4778  -85.9897 C   0  0  0  0  0  0  0  0  0  0  0  0
  110.7646  -75.2757  -84.6232 C   0  0  0  0  0  0  0  0  0  0  0  0
  110.2322  -74.0025  -84.1328 C   0  0  0  0  0  0  0  0  0  0  0  0
  110.4816  -73.7340  -82.7514 C   0  0  0  0  0  0  0  0  0  0  0  0
  109.8442  -74.7132  -86.9360 C   0  0  0  0  0  0  0  0  0  0  0  0
  108.7999  -75.1648  -87.7762 C   0  0  0  0  0  0  0  0  0  0  0  0
  108.1152  -74.4024  -88.7243 C   0  0  0  0  0  0  0  0  0  0  0  0
  108.4644  -73.0019  -88.9095 C   0  0  0  0  0  0  0  0  0  0  0  0
  109.5194  -72.5846  -88.0627 C   0  0  0  0  0  0  0  0  0  0  0  0
  110.2352  -73.3137  -87.1032 C   0  0  0  0  0  0  0  0  0  0  0  0
  111.3436  -74.2198  -80.6000 N   0  3  0  0  0  0  0  0  0  0  0  0
  112.0626  -75.0505  -79.6406 C   0  0  0  0  0  0  0  0  0  0  0  0
  110.8573  -72.9690  -79.9770 C   0  0  0  0  0  0  0  0  0  0  0  0
  112.7395  -80.5967  -87.3649 N   0  0  0  0  0  0  0  0  0  0  0  0
  113.3209  -81.6276  -86.4763 C   0  0  0  0  0  0  0  0  0  0  0  0
  112.7383  -81.0543  -88.7993 C   0  0  0  0  0  0  0  0  0  0  0  0
  1  2  1  0  0  0  0
  1 14  1  0  0  0  0
  1 21  2  0  0  0  0
  2  3  2  0  0  0  0
  3  4  1  0  0  0  0
  3 12  1  0  0  0  0
  4  5  1  0  0  0  0
  5  6  1  0  0  0  0
  5 10  2  0  0  0  0
  6  7  2  0  0  0  0
  7  8  1  0  0  0  0
  7 24  1  0  0  0  0
  8  9  2  0  0  0  0
  9 10  1  0  0  0  0
 10 11  1  0  0  0  0
 11 12  2  0  0  0  0
 11 15  1  0  0  0  0
 12 13  1  0  0  0  0
 13 14  2  0  0  0  0
 15 16  2  0  0  0  0
 15 20  1  0  0  0  0
 16 17  1  0  0  0  0
 17 18  2  0  0  0  0
 18 19  1  0  0  0  0
 19 20  2  0  0  0  0
 21 22  1  0  0  0  0
 21 23  1  0  0  0  0
 24 25  1  0  0  0  0
 24 26  1  0  0  0  0
M  CHG  1  21   1
M  END
>  <CHROM.1>
6.19738683,52.33414974,111.05434302,-76.19195660,-85.34279103,-1.84969065
1.05075229,-2.07895068

>  <Name>
1f1t Malachite green aptamer (Xray 2.8A)

>  <RI>
0

>  <Rbt.Current_Directory>
/home/itssahil/PROJECTS/Mol_Feturizer/New_Systems/rnas/1f1t

>  <Rbt.Executable>
rbdock ($Id: //depot/dev/client3/rdock/2013.1/src/exe/rbdock.cxx#4 $)

>  <Rbt.Library>
libRbt.so (2013.1, Build901 2013/11/27)

>  <Rbt.Parameter_File>
/export/apps/rDock/src/rDock_2013.1_src/data/scripts/dock_solv.prm

>  <Rbt.Receptor>
prm/pocket_docking_4.prm

>  <SCORE>
-62.8564

>  <SCORE.INTER>
-62.923

>  <SCORE.INTER.CONST>
1

>  <SCORE.INTER.POLAR>
0

>  <SCORE.INTER.ROT>
2

>  <SCORE.INTER.SOLV>
11.1347

>  <SCORE.INTER.VDW>
-50.5936

>  <SCORE.INTER.norm>
-2.42012

>  <SCORE.INTRA>
0.0666302

>  <SCORE.INTRA.DIHEDRAL>
-1.06143

>  <SCORE.INTRA.DIHEDRAL.0>
4.18538

>  <SCORE.INTRA.POLAR>
0

>  <SCORE.INTRA.POLAR.0>
0

>  <SCORE.INTRA.REPUL>
0

>  <SCORE.INTRA.REPUL.0>
0

>  <SCORE.INTRA.SOLV>
0.0193082

>  <SCORE.INTRA.SOLV.lig_0>
-5.16926

>  <SCORE.INTRA.VDW>
0.587692

>  <SCORE.INTRA.VDW.0>
1.11912

>  <SCORE.INTRA.norm>
0.0025627

>  <SCORE.RESTR>
0

>  <SCORE.RESTR.CAVITY>
0

>  <SCORE.RESTR.norm>
0

>  <SCORE.SYSTEM>
0

>  <SCORE.SYSTEM.CONST>
0

>  <SCORE.SYSTEM.DIHEDRAL>
0

>  <SCORE.SYSTEM.SOLV>
0

>  <SCORE.SYSTEM.norm>
0

>  <SCORE.heavy>
26

>  <SCORE.norm>
-2.41755

>  <RMSD>
0.680

$$$$
1f1t Malachite green aptamer (Xray 2.8A)
 OpenBabel11021811393D
libRbt.so/2013.1/901 2013/11/27
 26 29  0  0  0  0  0  0  0  0999 V2000
  111.2681  -74.6781  -81.9083 C   0  0  0  0  0  0  0  0  0  0  0  0
  111.7880  -75.9395  -82.4151 C   0  0  0  0  0  0  0  0  0  0  0  0
  111.5198  -76.1370  -83.7710 C   0  0  0  0  0  0  0  0  0  0  0  0
  112.0736  -77.4392  -84.2369 O   0  0  0  0  0  0  0  0  0  0  0  0
  111.8331  -77.6063  -85.4788 C   0  0  0  0  0  0  0  0  0  0  0  0
  112.4018  -78.9063  -85.8342 C   0  0  0  0  0  0  0  0  0  0  0  0
  112.2305  -79.2628  -87.2188 C   0  0  0  0  0  0  0  0  0  0  0  0
  111.5789  -78.4174  -88.1507 C   0  0  0  0  0  0  0  0  0  0  0  0
  111.0276  -77.1422  -87.7318 C   0  0  0  0  0  0  0  0  0  0  0  0
  111.1748  -76.7709  -86.3458 C   0  0  0  0  0  0  0  0  0  0  0  0
  110.5594  -75.4375  -85.9917 C   0  0  0  0  0  0  0  0  0  0  0  0
  110.8378  -75.2750  -84.6227 C   0  0  0  0  0  0  0  0  0  0  0  0
  110.3162  -74.0136  -84.0919 C   0  0  0  0  0  0  0  0  0  0  0  0
  110.5797  -73.7849  -82.7060 C   0  0  0  0  0  0  0  0  0  0  0  0
  109.8988  -74.6438  -86.9101 C   0  0  0  0  0  0  0  0  0  0  0  0
  110.2318  -73.3068  -87.2294 C   0  0  0  0  0  0  0  0  0  0  0  0
  109.5870  -72.4967  -88.1659 C   0  0  0  0  0  0  0  0  0  0  0  0
  108.4586  -73.0247  -88.9179 C   0  0  0  0  0  0  0  0  0  0  0  0
  108.1440  -74.3596  -88.5672 C   0  0  0  0  0  0  0  0  0  0  0  0
  108.7590  -75.2058  -87.6342 C   0  0  0  0  0  0  0  0  0  0  0  0
  111.4592  -74.3346  -80.5771 N   0  3  0  0  0  0  0  0  0  0  0  0
  112.1830  -75.1951  -79.6481 C   0  0  0  0  0  0  0  0  0  0  0  0
  110.9848  -73.0995  -79.9149 C   0  0  0  0  0  0  0  0  0  0  0  0
  112.7613  -80.5263  -87.5302 N   0  0  0  0  0  0  0  0  0  0  0  0
  112.9530  -81.2202  -88.8233 C   0  0  0  0  0  0  0  0  0  0  0  0
  113.2577  -81.3670  -86.3841 C   0  0  0  0  0  0  0  0  0  0  0  0
  1  2  1  0  0  0  0
  1 14  1  0  0  0  0
  1 21  2  0  0  0  0
  2  3  2  0  0  0  0
  3  4  1  0  0  0  0
  3 12  1  0  0  0  0
  4  5  1  0  0  0  0
  5  6  1  0  0  0  0
  5 10  2  0  0  0  0
  6  7  2  0  0  0  0
  7  8  1  0  0  0  0
  7 24  1  0  0  0  0
  8  9  2  0  0  0  0
  9 10  1  0  0  0  0
 10 11  1  0  0  0  0
 11 12  2  0  0  0  0
 11 15  1  0  0  0  0
 12 13  1  0  0  0  0
 13 14  2  0  0  0  0
 15 16  2  0  0  0  0
 15 20  1  0  0  0  0
 16 17  1  0  0  0  0
 17 18  2  0  0  0  0
 18 19  1  0  0  0  0
 19 20  2  0  0  0  0
 21 22  1  0  0  0  0
 21 23  1  0  0  0  0
 24 25  1  0  0  0  0
 24 26  1  0  0  0  0
M  CHG  1  21   1
M  END
>  <CHROM.1>
-171.86710216,-122.71121808,111.11418938,-76.19191361,-85.36025741,-1.82224543
1.04604270,-2.07068892

>  <Name>
1f1t Malachite green aptamer (Xray 2.8A)

>  <RI>
0

>  <Rbt.Current_Directory>
/home/itssahil/PROJECTS/Mol_Feturizer/New_Systems/rnas/1f1t

>  <Rbt.Executable>
rbdock ($Id: //depot/dev/client3/rdock/2013.1/src/exe/rbdock.cxx#4 $)

>  <Rbt.Library>
libRbt.so (2013.1, Build901 2013/11/27)

>  <Rbt.Parameter_File>
/export/apps/rDock/src/rDock_2013.1_src/data/scripts/dock_solv.prm

>  <Rbt.Receptor>
prm/pocket_docking_6.prm

>  <SCORE>
-59.9473

>  <SCORE.INTER>
-63.3377

>  <SCORE.INTER.CONST>
1

>  <SCORE.INTER.POLAR>
0

>  <SCORE.INTER.ROT>
2

>  <SCORE.INTER.SOLV>
11.0889

>  <SCORE.INTER.VDW>
-50.8548

>  <SCORE.INTER.norm>
-2.43607

>  <SCORE.INTRA>
3.39046

>  <SCORE.INTRA.DIHEDRAL>
-0.564436

>  <SCORE.INTRA.DIHEDRAL.0>
4.18538

>  <SCORE.INTRA.POLAR>
0

>  <SCORE.INTRA.POLAR.0>
0

>  <SCORE.INTRA.REPUL>
0

>  <SCORE.INTRA.REPUL.0>
0

>  <SCORE.INTRA.SOLV>
0.0117164

>  <SCORE.INTRA.SOLV.lig_0>
-5.16926

>  <SCORE.INTRA.VDW>
3.66682

>  <SCORE.INTRA.VDW.0>
1.11912

>  <SCORE.INTRA.norm>
0.130402

>  <SCORE.RESTR>
0

>  <SCORE.RESTR.CAVITY>
0

>  <SCORE.RESTR.norm>
0

>  <SCORE.SYSTEM>
0

>  <SCORE.SYSTEM.CONST>
0

>  <SCORE.SYSTEM.DIHEDRAL>
0

>  <SCORE.SYSTEM.SOLV>
0

>  <SCORE.SYSTEM.norm>
0

>  <SCORE.heavy>
26

>  <SCORE.norm>
-2.30566

>  <RMSD>
0.680

$$$$
1f1t Malachite green aptamer (Xray 2.8A)
 OpenBabel11021811393D
libRbt.so/2013.1/901 2013/11/27
 26 29  0  0  0  0  0  0  0  0999 V2000
  111.1715  -74.5842  -81.9184 C   0  0  0  0  0  0  0  0  0  0  0  0
  111.6963  -75.8612  -82.3792 C   0  0  0  0  0  0  0  0  0  0  0  0
  111.4416  -76.1023  -83.7306 C   0  0  0  0  0  0  0  0  0  0  0  0
  111.9999  -77.4187  -84.1489 O   0  0  0  0  0  0  0  0  0  0  0  0
  111.7718  -77.6257  -85.3870 C   0  0  0  0  0  0  0  0  0  0  0  0
  112.3438  -78.9363  -85.6947 C   0  0  0  0  0  0  0  0  0  0  0  0
  112.1863  -79.3372  -87.0688 C   0  0  0  0  0  0  0  0  0  0  0  0
  111.5441  -78.5225  -88.0338 C   0  0  0  0  0  0  0  0  0  0  0  0
  110.9887  -77.2345  -87.6617 C   0  0  0  0  0  0  0  0  0  0  0  0
  111.1222  -76.8188  -86.2870 C   0  0  0  0  0  0  0  0  0  0  0  0
  110.5034  -75.4749  -85.9821 C   0  0  0  0  0  0  0  0  0  0  0  0
  110.7682  -75.2683  -84.6163 C   0  0  0  0  0  0  0  0  0  0  0  0
  110.2414  -73.9906  -84.1316 C   0  0  0  0  0  0  0  0  0  0  0  0
  110.4911  -73.7174  -82.7512 C   0  0  0  0  0  0  0  0  0  0  0  0
  109.8519  -74.7112  -86.9321 C   0  0  0  0  0  0  0  0  0  0  0  0
  108.8115  -75.1637  -87.7765 C   0  0  0  0  0  0  0  0  0  0  0  0
  108.1310  -74.4023  -88.7285 C   0  0  0  0  0  0  0  0  0  0  0  0
  108.4809  -73.0019  -88.9133 C   0  0  0  0  0  0  0  0  0  0  0  0
  109.5319  -72.5837  -88.0622 C   0  0  0  0  0  0  0  0  0  0  0  0
  110.2435  -73.3119  -87.0988 C   0  0  0  0  0  0  0  0  0  0  0  0
  111.3493  -74.1981  -80.5971 N   0  3  0  0  0  0  0  0  0  0  0  0
  112.0638  -75.0281  -79.6337 C   0  0  0  0  0  0  0  0  0  0  0  0
  110.8685  -72.9424  -79.9798 C   0  0  0  0  0  0  0  0  0  0  0  0
  112.7200  -80.6100  -87.3341 N   0  0  0  0  0  0  0  0  0  0  0  0
  113.3051  -81.6358  -86.4420 C   0  0  0  0  0  0  0  0  0  0  0  0
  112.7067  -81.0786  -88.7649 C   0  0  0  0  0  0  0  0  0  0  0  0
  1  2  1  0  0  0  0
  1 14  1  0  0  0  0
  1 21  2  0  0  0  0
  2  3  2  0  0  0  0
  3  4  1  0  0  0  0
  3 12  1  0  0  0  0
  4  5  1  0  0  0  0
  5  6  1  0  0  0  0
  5 10  2  0  0  0  0
  6  7  2  0  0  0  0
  7  8  1  0  0  0  0
  7 24  1  0  0  0  0
  8  9  2  0  0  0  0
  9 10  1  0  0  0  0
 10 11  1  0  0  0  0
 11 12  2  0  0  0  0
 11 15  1  0  0  0  0
 12 13  1  0  0  0  0
 13 14  2  0  0  0  0
 15 16  2  0  0  0  0
 15 20  1  0  0  0  0
 16 17  1  0  0  0  0
 17 18  2  0  0  0  0
 18 19  1  0  0  0  0
 19 20  2  0  0  0  0
 21 22  1  0  0  0  0
 21 23  1  0  0  0  0
 24 25  1  0  0  0  0
 24 26  1  0  0  0  0
M  CHG  1  21   1
M  END
>  <CHROM.1>
5.67604717,51.93394151,111.05393755,-76.18894576,-85.33173426,-1.84595959
1.05502967,-2.08651224

>  <Name>
1f1t Malachite green aptamer (Xray 2.8A)

>  <RI>
0

>  <Rbt.Current_Directory>
/home/itssahil/PROJECTS/Mol_Feturizer/New_Systems/rnas/1f1t

>  <Rbt.Executable>
rbdock ($Id: //depot/dev/client3/rdock/2013.1/src/exe/rbdock.cxx#4 $)

>  <Rbt.Library>
libRbt.so (2013.1, Build901 2013/11/27)

>  <Rbt.Parameter_File>
/export/apps/rDock/src/rDock_2013.1_src/data/scripts/dock_solv.prm

>  <Rbt.Receptor>
prm/pocket_docking_6.prm

>  <SCORE>
-62.9287

>  <SCORE.INTER>
-63.0003

>  <SCORE.INTER.CONST>
1

>  <SCORE.INTER.POLAR>
0

>  <SCORE.INTER.ROT>
2

>  <SCORE.INTER.SOLV>
11.1417

>  <SCORE.INTER.VDW>
-50.6475

>  <SCORE.INTER.norm>
-2.42309

>  <SCORE.INTRA>
0.0716266

>  <SCORE.INTRA.DIHEDRAL>
-1.11742

>  <SCORE.INTRA.DIHEDRAL.0>
4.18538

>  <SCORE.INTRA.POLAR>
0

>  <SCORE.INTRA.POLAR.0>
0

>  <SCORE.INTRA.REPUL>
0

>  <SCORE.INTRA.REPUL.0>
0

>  <SCORE.INTRA.SOLV>
0.0197591

>  <SCORE.INTRA.SOLV.lig_0>
-5.16926

>  <SCORE.INTRA.VDW>
0.620455

>  <SCORE.INTRA.VDW.0>
1.11912

>  <SCORE.INTRA.norm>
0.00275487

>  <SCORE.RESTR>
0

>  <SCORE.RESTR.CAVITY>
0

>  <SCORE.RESTR.norm>
0

>  <SCORE.SYSTEM>
0

>  <SCORE.SYSTEM.CONST>
0

>  <SCORE.SYSTEM.DIHEDRAL>
0

>  <SCORE.SYSTEM.SOLV>
0

>  <SCORE.SYSTEM.norm>
0

>  <SCORE.heavy>
26

>  <SCORE.norm>
-2.42034

>  <RMSD>
0.680

$$$$
1f1t Malachite green aptamer (Xray 2.8A)
 OpenBabel11021811393D
libRbt.so/2013.1/901 2013/11/27
 26 29  0  0  0  0  0  0  0  0999 V2000
  111.1780  -74.5954  -81.9353 C   0  0  0  0  0  0  0  0  0  0  0  0
  111.7061  -75.8704  -82.3977 C   0  0  0  0  0  0  0  0  0  0  0  0
  111.4473  -76.1127  -83.7482 C   0  0  0  0  0  0  0  0  0  0  0  0
  112.0093  -77.4269  -84.1683 O   0  0  0  0  0  0  0  0  0  0  0  0
  111.7774  -77.6351  -85.4055 C   0  0  0  0  0  0  0  0  0  0  0  0
  112.3534  -78.9435  -85.7152 C   0  0  0  0  0  0  0  0  0  0  0  0
  112.1924  -79.3453  -87.0886 C   0  0  0  0  0  0  0  0  0  0  0  0
  111.5434  -78.5333  -88.0513 C   0  0  0  0  0  0  0  0  0  0  0  0
  110.9845  -77.2474  -87.6774 C   0  0  0  0  0  0  0  0  0  0  0  0
  111.1213  -76.8310  -86.3033 C   0  0  0  0  0  0  0  0  0  0  0  0
  110.4984  -75.4894  -85.9964 C   0  0  0  0  0  0  0  0  0  0  0  0
  110.7674  -75.2815  -84.6316 C   0  0  0  0  0  0  0  0  0  0  0  0
  110.2374  -74.0058  -84.1451 C   0  0  0  0  0  0  0  0  0  0  0  0
  110.4911  -73.7313  -82.7657 C   0  0  0  0  0  0  0  0  0  0  0  0
  109.8405  -74.7285  -86.9440 C   0  0  0  0  0  0  0  0  0  0  0  0
  108.8047  -75.1876  -87.7907 C   0  0  0  0  0  0  0  0  0  0  0  0
  108.1178  -74.4292  -88.7404 C   0  0  0  0  0  0  0  0  0  0  0  0
  108.4549  -73.0250  -88.9202 C   0  0  0  0  0  0  0  0  0  0  0  0
  109.5016  -72.6001  -88.0670 C   0  0  0  0  0  0  0  0  0  0  0  0
  110.2193  -73.3250  -87.1057 C   0  0  0  0  0  0  0  0  0  0  0  0
  111.3592  -74.2083  -80.6148 N   0  3  0  0  0  0  0  0  0  0  0  0
  112.0804  -75.0352  -79.6539 C   0  0  0  0  0  0  0  0  0  0  0  0
  110.8757  -72.9544  -79.9958 C   0  0  0  0  0  0  0  0  0  0  0  0
  112.7301  -80.6161  -87.3556 N   0  0  0  0  0  0  0  0  0  0  0  0
  113.3116  -81.6443  -86.4640 C   0  0  0  0  0  0  0  0  0  0  0  0
  112.7264  -81.0790  -88.7883 C   0  0  0  0  0  0  0  0  0  0  0  0
  1  2  1  0  0  0  0
  1 14  1  0  0  0  0
  1 21  2  0  0  0  0
  2  3  2  0  0  0  0
  3  4  1  0  0  0  0
  3 12  1  0  0  0  0
  4  5  1  0  0  0  0
  5  6  1  0  0  0  0
  5 10  2  0  0  0  0
  6  7  2  0  0  0  0
  7  8  1  0  0  0  0
  7 24  1  0  0  0  0
  8  9  2  0  0  0  0
  9 10  1  0  0  0  0
 10 11  1  0  0  0  0
 11 12  2  0  0  0  0
 11 15  1  0  0  0  0
 12 13  1  0  0  0  0
 13 14  2  0  0  0  0
 15 16  2  0  0  0  0
 15 20  1  0  0  0  0
 16 17  1  0  0  0  0
 17 18  2  0  0  0  0
 18 19  1  0  0  0  0
 19 20  2  0  0  0  0
 21 22  1  0  0  0  0
 21 23  1  0  0  0  0
 24 25  1  0  0  0  0
 24 26  1  0  0  0  0
M  CHG  1  21   1
M  END
>  <CHROM.1>
6.29889177,51.49344982,111.05417400,-76.20111692,-85.34787237,-1.84372199
1.04989792,-2.08865998

>  <Name>
1f1t Malachite green aptamer (Xray 2.8A)

>  <RI>
0

>  <Rbt.Current_Directory>
/home/itssahil/PROJECTS/Mol_Feturizer/New_Systems/rnas/1f1t

>  <Rbt.Executable>
rbdock ($Id: //depot/dev/client3/rdock/2013.1/src/exe/rbdock.cxx#4 $)

>  <Rbt.Library>
libRbt.so (2013.1, Build901 2013/11/27)

>  <Rbt.Parameter_File>
/export/apps/rDock/src/rDock_2013.1_src/data/scripts/dock_solv.prm

>  <Rbt.Receptor>
prm/pocket_docking_6.prm

>  <SCORE>
-62.8792

>  <SCORE.INTER>
-62.9668

>  <SCORE.INTER.CONST>
1

>  <SCORE.INTER.POLAR>
0

>  <SCORE.INTER.ROT>
2

>  <SCORE.INTER.SOLV>
11.1234

>  <SCORE.INTER.VDW>
-50.619

>  <SCORE.INTER.norm>
-2.4218

>  <SCORE.INTRA>
0.0875657

>  <SCORE.INTRA.DIHEDRAL>
-1.12521

>  <SCORE.INTRA.DIHEDRAL.0>
4.18538

>  <SCORE.INTRA.POLAR>
0

>  <SCORE.INTRA.POLAR.0>
0

>  <SCORE.INTRA.REPUL>
0

>  <SCORE.INTRA.REPUL.0>
0

>  <SCORE.INTRA.SOLV>
0.0202466

>  <SCORE.INTRA.SOLV.lig_0>
-5.16926

>  <SCORE.INTRA.VDW>
0.640049

>  <SCORE.INTRA.VDW.0>
1.11912

>  <SCORE.INTRA.norm>
0.00336791

>  <SCORE.RESTR>
0

>  <SCORE.RESTR.CAVITY>
0

>  <SCORE.RESTR.norm>
0

>  <SCORE.SYSTEM>
0

>  <SCORE.SYSTEM.CONST>
0

>  <SCORE.SYSTEM.DIHEDRAL>
0

>  <SCORE.SYSTEM.SOLV>
0

>  <SCORE.SYSTEM.norm>
0

>  <SCORE.heavy>
26

>  <SCORE.norm>
-2.41843

>  <RMSD>
0.680

$$$$
1f1t Malachite green aptamer (Xray 2.8A)
 OpenBabel11021811393D
libRbt.so/2013.1/901 2013/11/27
 26 29  0  0  0  0  0  0  0  0999 V2000
  111.1612  -74.5874  -81.9239 C   0  0  0  0  0  0  0  0  0  0  0  0
  111.6906  -75.8622  -82.3854 C   0  0  0  0  0  0  0  0  0  0  0  0
  111.4377  -76.1029  -83.7372 C   0  0  0  0  0  0  0  0  0  0  0  0
  112.0008  -77.4170  -84.1563 O   0  0  0  0  0  0  0  0  0  0  0  0
  111.7743  -77.6237  -85.3948 C   0  0  0  0  0  0  0  0  0  0  0  0
  112.3509  -78.9321  -85.7032 C   0  0  0  0  0  0  0  0  0  0  0  0
  112.1958  -79.3323  -87.0778 C   0  0  0  0  0  0  0  0  0  0  0  0
  111.5516  -78.5188  -88.0426 C   0  0  0  0  0  0  0  0  0  0  0  0
  110.9917  -77.2331  -87.6697 C   0  0  0  0  0  0  0  0  0  0  0  0
  111.1227  -76.8182  -86.2946 C   0  0  0  0  0  0  0  0  0  0  0  0
  110.4992  -75.4766  -85.9889 C   0  0  0  0  0  0  0  0  0  0  0  0
  110.7622  -75.2703  -84.6227 C   0  0  0  0  0  0  0  0  0  0  0  0
  110.2308  -73.9948  -84.1373 C   0  0  0  0  0  0  0  0  0  0  0  0
  110.4786  -73.7220  -82.7565 C   0  0  0  0  0  0  0  0  0  0  0  0
  109.8460  -74.7143  -86.9387 C   0  0  0  0  0  0  0  0  0  0  0  0
  108.7939  -75.1637  -87.7703 C   0  0  0  0  0  0  0  0  0  0  0  0
  108.1116  -74.4034  -88.7218 C   0  0  0  0  0  0  0  0  0  0  0  0
  108.4722  -73.0076  -88.9204 C   0  0  0  0  0  0  0  0  0  0  0  0
  109.5346  -72.5924  -88.0820 C   0  0  0  0  0  0  0  0  0  0  0  0
  110.2484  -73.3197  -87.1195 C   0  0  0  0  0  0  0  0  0  0  0  0
  111.3367  -74.2018  -80.6021 N   0  3  0  0  0  0  0  0  0  0  0  0
  112.0532  -75.0303  -79.6390 C   0  0  0  0  0  0  0  0  0  0  0  0
  110.8513  -72.9483  -79.9840 C   0  0  0  0  0  0  0  0  0  0  0  0
  112.7340  -80.6031  -87.3438 N   0  0  0  0  0  0  0  0  0  0  0  0
  113.3132  -81.6316  -86.4510 C   0  0  0  0  0  0  0  0  0  0  0  0
  112.7337  -81.0657  -88.7766 C   0  0  0  0  0  0  0  0  0  0  0  0
  1  2  1  0  0  0  0
  1 14  1  0  0  0  0
  1 21  2  0  0  0  0
  2  3  2  0  0  0  0
  3  4  1  0  0  0  0
  3 12  1  0  0  0  0
  4  5  1  0  0  0  0
  5  6  1  0  0  0  0
  5 10  2  0  0  0  0
  6  7  2  0  0  0  0
  7  8  1  0  0  0  0
  7 24  1  0  0  0  0
  8  9  2  0  0  0  0
  9 10  1  0  0  0  0
 10 11  1  0  0  0  0
 11 12  2  0  0  0  0
 11 15  1  0  0  0  0
 12 13  1  0  0  0  0
 13 14  2  0  0  0  0
 15 16  2  0  0  0  0
 15 20  1  0  0  0  0
 16 17  1  0  0  0  0
 17 18  2  0  0  0  0
 18 19  1  0  0  0  0
 19 20  2  0  0  0  0
 21 22  1  0  0  0  0
 21 23  1  0  0  0  0
 24 25  1  0  0  0  0
 24 26  1  0  0  0  0
M  CHG  1  21   1
M  END
>  <CHROM.1>
6.16902364,52.95611758,111.05186435,-76.18935643,-85.33889705,-1.85096216
1.05267089,-2.08106971

>  <Name>
1f1t Malachite green aptamer (Xray 2.8A)

>  <RI>
0

>  <Rbt.Current_Directory>
/home/itssahil/PROJECTS/Mol_Feturizer/New_Systems/rnas/1f1t

>  <Rbt.Executable>
rbdock ($Id: //depot/dev/client3/rdock/2013.1/src/exe/rbdock.cxx#4 $)

>  <Rbt.Library>
libRbt.so (2013.1, Build901 2013/11/27)

>  <Rbt.Parameter_File>
/export/apps/rDock/src/rDock_2013.1_src/data/scripts/dock_solv.prm

>  <Rbt.Receptor>
prm/pocket_docking_6.prm

>  <SCORE>
-62.8648

>  <SCORE.INTER>
-62.9357

>  <SCORE.INTER.CONST>
1

>  <SCORE.INTER.POLAR>
0

>  <SCORE.INTER.ROT>
2

>  <SCORE.INTER.SOLV>
11.1444

>  <SCORE.INTER.VDW>
-50.6053

>  <SCORE.INTER.norm>
-2.4206

>  <SCORE.INTRA>
0.0709285

>  <SCORE.INTRA.DIHEDRAL>
-1.01234

>  <SCORE.INTRA.DIHEDRAL.0>
4.18538

>  <SCORE.INTRA.POLAR>
0

>  <SCORE.INTRA.POLAR.0>
0

>  <SCORE.INTRA.REPUL>
0

>  <SCORE.INTRA.REPUL.0>
0

>  <SCORE.INTRA.SOLV>
0.0186094

>  <SCORE.INTRA.SOLV.lig_0>
-5.16926

>  <SCORE.INTRA.VDW>
0.567795

>  <SCORE.INTRA.VDW.0>
1.11912

>  <SCORE.INTRA.norm>
0.00272802

>  <SCORE.RESTR>
0

>  <SCORE.RESTR.CAVITY>
0

>  <SCORE.RESTR.norm>
0

>  <SCORE.SYSTEM>
0

>  <SCORE.SYSTEM.CONST>
0

>  <SCORE.SYSTEM.DIHEDRAL>
0

>  <SCORE.SYSTEM.SOLV>
0

>  <SCORE.SYSTEM.norm>
0

>  <SCORE.heavy>
26

>  <SCORE.norm>
-2.41788

>  <RMSD>
0.681

$$$$
1f1t Malachite green aptamer (Xray 2.8A)
 OpenBabel11021811393D
libRbt.so/2013.1/901 2013/11/27
 26 29  0  0  0  0  0  0  0  0999 V2000
  111.2668  -74.6731  -81.9119 C   0  0  0  0  0  0  0  0  0  0  0  0
  111.7868  -75.9351  -82.4174 C   0  0  0  0  0  0  0  0  0  0  0  0
  111.5187  -76.1340  -83.7730 C   0  0  0  0  0  0  0  0  0  0  0  0
  112.0726  -77.4367  -84.2375 O   0  0  0  0  0  0  0  0  0  0  0  0
  111.8322  -77.6052  -85.4792 C   0  0  0  0  0  0  0  0  0  0  0  0
  112.4009  -78.9056  -85.8332 C   0  0  0  0  0  0  0  0  0  0  0  0
  112.2297  -79.2636  -87.2174 C   0  0  0  0  0  0  0  0  0  0  0  0
  111.5781  -78.4193  -88.1502 C   0  0  0  0  0  0  0  0  0  0  0  0
  111.0268  -77.1436  -87.7328 C   0  0  0  0  0  0  0  0  0  0  0  0
  111.1739  -76.7708  -86.3472 C   0  0  0  0  0  0  0  0  0  0  0  0
  110.5584  -75.4371  -85.9946 C   0  0  0  0  0  0  0  0  0  0  0  0
  110.8367  -75.2730  -84.6257 C   0  0  0  0  0  0  0  0  0  0  0  0
  110.3150  -74.0110  -84.0963 C   0  0  0  0  0  0  0  0  0  0  0  0
  110.5784  -73.7808  -82.7107 C   0  0  0  0  0  0  0  0  0  0  0  0
  109.8977  -74.6443  -86.9139 C   0  0  0  0  0  0  0  0  0  0  0  0
  110.2363  -73.3107  -87.2412 C   0  0  0  0  0  0  0  0  0  0  0  0
  109.5916  -72.5018  -88.1787 C   0  0  0  0  0  0  0  0  0  0  0  0
  108.4570  -73.0275  -88.9231 C   0  0  0  0  0  0  0  0  0  0  0  0
  108.1370  -74.3591  -88.5645 C   0  0  0  0  0  0  0  0  0  0  0  0
  108.7518  -75.2039  -87.6301 C   0  0  0  0  0  0  0  0  0  0  0  0
  111.4578  -74.3282  -80.5812 N   0  3  0  0  0  0  0  0  0  0  0  0
  112.1816  -75.1876  -79.6511 C   0  0  0  0  0  0  0  0  0  0  0  0
  110.9834  -73.0924  -79.9203 C   0  0  0  0  0  0  0  0  0  0  0  0
  112.7606  -80.5274  -87.5274 N   0  0  0  0  0  0  0  0  0  0  0  0
  112.9414  -81.2276  -88.8187 C   0  0  0  0  0  0  0  0  0  0  0  0
  113.2702  -81.3609  -86.3818 C   0  0  0  0  0  0  0  0  0  0  0  0
  1  2  1  0  0  0  0
  1 14  1  0  0  0  0
  1 21  2  0  0  0  0
  2  3  2  0  0  0  0
  3  4  1  0  0  0  0
  3 12  1  0  0  0  0
  4  5  1  0  0  0  0
  5  6  1  0  0  0  0
  5 10  2  0  0  0  0
  6  7  2  0  0  0  0
  7  8  1  0  0  0  0
  7 24  1  0  0  0  0
  8  9  2  0  0  0  0
  9 10  1  0  0  0  0
 10 11  1  0  0  0  0
 11 12  2  0  0  0  0
 11 15  1  0  0  0  0
 12 13  1  0  0  0  0
 13 14  2  0  0  0  0
 15 16  2  0  0  0  0
 15 20  1  0  0  0  0
 16 17  1  0  0  0  0
 17 18  2  0  0  0  0
 18 19  1  0  0  0  0
 19 20  2  0  0  0  0
 21 22  1  0  0  0  0
 21 23  1  0  0  0  0
 24 25  1  0  0  0  0
 24 26  1  0  0  0  0
M  CHG  1  21   1
M  END
>  <CHROM.1>
-172.49111914,-122.25667568,111.11319213,-76.19068433,-85.36223871,-1.82227488
1.04576958,-2.07174017

>  <Name>
1f1t Malachite green aptamer (Xray 2.8A)

>  <RI>
0

>  <Rbt.Current_Directory>
/home/itssahil/PROJECTS/Mol_Feturizer/New_Systems/rnas/1f1t

>  <Rbt.Executable>
rbdock ($Id: //depot/dev/client3/rdock/2013.1/src/exe/rbdock.cxx#4 $)

>  <Rbt.Library>
libRbt.so (2013.1, Build901 2013/11/27)

>  <Rbt.Parameter_File>
/export/apps/rDock/src/rDock_2013.1_src/data/scripts/dock_solv.prm

>  <Rbt.Receptor>
prm/pocket_docking_7.prm

>  <SCORE>
-59.9387

>  <SCORE.INTER>
-63.3297

>  <SCORE.INTER.CONST>
1

>  <SCORE.INTER.POLAR>
0

>  <SCORE.INTER.ROT>
2

>  <SCORE.INTER.SOLV>
11.1028

>  <SCORE.INTER.VDW>
-50.8541

>  <SCORE.INTER.norm>
-2.43576

>  <SCORE.INTRA>
3.39105

>  <SCORE.INTRA.DIHEDRAL>
-0.566664

>  <SCORE.INTRA.DIHEDRAL.0>
4.18538

>  <SCORE.INTRA.POLAR>
0

>  <SCORE.INTRA.POLAR.0>
0

>  <SCORE.INTRA.REPUL>
0

>  <SCORE.INTRA.REPUL.0>
0

>  <SCORE.INTRA.SOLV>
0.0112318

>  <SCORE.INTRA.SOLV.lig_0>
-5.16926

>  <SCORE.INTRA.VDW>
3.66876

>  <SCORE.INTRA.VDW.0>
1.11912

>  <SCORE.INTRA.norm>
0.130425

>  <SCORE.RESTR>
0

>  <SCORE.RESTR.CAVITY>
0

>  <SCORE.RESTR.norm>
0

>  <SCORE.SYSTEM>
0

>  <SCORE.SYSTEM.CONST>
0

>  <SCORE.SYSTEM.DIHEDRAL>
0

>  <SCORE.SYSTEM.SOLV>
0

>  <SCORE.SYSTEM.norm>
0

>  <SCORE.heavy>
26

>  <SCORE.norm>
-2.30533

>  <RMSD>
0.681

$$$$
1f1t Malachite green aptamer (Xray 2.8A)
 OpenBabel11021811393D
libRbt.so/2013.1/901 2013/11/27
 26 29  0  0  0  0  0  0  0  0999 V2000
  111.2319  -74.6995  -81.9150 C   0  0  0  0  0  0  0  0  0  0  0  0
  111.7559  -75.9589  -82.4225 C   0  0  0  0  0  0  0  0  0  0  0  0
  111.4955  -76.1528  -83.7804 C   0  0  0  0  0  0  0  0  0  0  0  0
  112.0533  -77.4531  -84.2469 O   0  0  0  0  0  0  0  0  0  0  0  0
  111.8200  -77.6169  -85.4906 C   0  0  0  0  0  0  0  0  0  0  0  0
  112.3920  -78.9153  -85.8465 C   0  0  0  0  0  0  0  0  0  0  0  0
  112.2288  -79.2680  -87.2331 C   0  0  0  0  0  0  0  0  0  0  0  0
  111.5816  -78.4207  -88.1662 C   0  0  0  0  0  0  0  0  0  0  0  0
  111.0266  -77.1472  -87.7467 C   0  0  0  0  0  0  0  0  0  0  0  0
  111.1657  -76.7797  -86.3589 C   0  0  0  0  0  0  0  0  0  0  0  0
  110.5469  -75.4480  -86.0045 C   0  0  0  0  0  0  0  0  0  0  0  0
  110.8175  -75.2891  -84.6334 C   0  0  0  0  0  0  0  0  0  0  0  0
  110.2916  -74.0297  -84.1020 C   0  0  0  0  0  0  0  0  0  0  0  0
  110.5470  -73.8047  -82.7140 C   0  0  0  0  0  0  0  0  0  0  0  0
  109.8906  -74.6523  -86.9243 C   0  0  0  0  0  0  0  0  0  0  0  0
  110.2261  -73.3152  -87.2404 C   0  0  0  0  0  0  0  0  0  0  0  0
  109.5858  -72.5032  -88.1782 C   0  0  0  0  0  0  0  0  0  0  0  0
  108.4597  -73.0289  -88.9353 C   0  0  0  0  0  0  0  0  0  0  0  0
  108.1425  -74.3641  -88.5878 C   0  0  0  0  0  0  0  0  0  0  0  0
  108.7530  -75.2122  -87.6535 C   0  0  0  0  0  0  0  0  0  0  0  0
  111.4152  -74.3596  -80.5818 N   0  3  0  0  0  0  0  0  0  0  0  0
  112.1347  -75.2220  -79.6512 C   0  0  0  0  0  0  0  0  0  0  0  0
  110.9358  -73.1269  -79.9187 C   0  0  0  0  0  0  0  0  0  0  0  0
  112.7627  -80.5301  -87.5451 N   0  0  0  0  0  0  0  0  0  0  0  0
  112.9326  -81.2334  -88.8362 C   0  0  0  0  0  0  0  0  0  0  0  0
  113.2894  -81.3574  -86.4027 C   0  0  0  0  0  0  0  0  0  0  0  0
  1  2  1  0  0  0  0
  1 14  1  0  0  0  0
  1 21  2  0  0  0  0
  2  3  2  0  0  0  0
  3  4  1  0  0  0  0
  3 12  1  0  0  0  0
  4  5  1  0  0  0  0
  5  6  1  0  0  0  0
  5 10  2  0  0  0  0
  6  7  2  0  0  0  0
  7  8  1  0  0  0  0
  7 24  1  0  0  0  0
  8  9  2  0  0  0  0
  9 10  1  0  0  0  0
 10 11  1  0  0  0  0
 11 12  2  0  0  0  0
 11 15  1  0  0  0  0
 12 13  1  0  0  0  0
 13 14  2  0  0  0  0
 15 16  2  0  0  0  0
 15 20  1  0  0  0  0
 16 17  1  0  0  0  0
 17 18  2  0  0  0  0
 18 19  1  0  0  0  0
 19 20  2  0  0  0  0
 21 22  1  0  0  0  0
 21 23  1  0  0  0  0
 24 25  1  0  0  0  0
 24 26  1  0  0  0  0
M  CHG  1  21   1
M  END
>  <CHROM.1>
-173.55821862,-122.53640356,111.09915969,-76.20346924,-85.37209537,-1.83256538
1.04723568,-2.05890487

>  <Name>
1f1t Malachite green aptamer (Xray 2.8A)

>  <RI>
0

>  <Rbt.Current_Directory>
/home/itssahil/PROJECTS/Mol_Feturizer/New_Systems/rnas/1f1t

>  <Rbt.Executable>
rbdock ($Id: //depot/dev/client3/rdock/2013.1/src/exe/rbdock.cxx#4 $)

>  <Rbt.Library>
libRbt.so (2013.1, Build901 2013/11/27)

>  <Rbt.Parameter_File>
/export/apps/rDock/src/rDock_2013.1_src/data/scripts/dock_solv.prm

>  <Rbt.Receptor>
prm/pocket_docking_2.prm

>  <SCORE>
-59.9133

>  <SCORE.INTER>
-63.3239

>  <SCORE.INTER.CONST>
1

>  <SCORE.INTER.POLAR>
0

>  <SCORE.INTER.ROT>
2

>  <SCORE.INTER.SOLV>
11.0897

>  <SCORE.INTER.VDW>
-50.8458

>  <SCORE.INTER.norm>
-2.43553

>  <SCORE.INTRA>
3.41056

>  <SCORE.INTRA.DIHEDRAL>
-0.644299

>  <SCORE.INTRA.DIHEDRAL.0>
4.18538

>  <SCORE.INTRA.POLAR>
0

>  <SCORE.INTRA.POLAR.0>
0

>  <SCORE.INTRA.REPUL>
0

>  <SCORE.INTRA.REPUL.0>
0

>  <SCORE.INTRA.SOLV>
0.0116354

>  <SCORE.INTRA.SOLV.lig_0>
-5.16926

>  <SCORE.INTRA.VDW>
3.72689

>  <SCORE.INTRA.VDW.0>
1.11912

>  <SCORE.INTRA.norm>
0.131175

>  <SCORE.RESTR>
0

>  <SCORE.RESTR.CAVITY>
0

>  <SCORE.RESTR.norm>
0

>  <SCORE.SYSTEM>
0

>  <SCORE.SYSTEM.CONST>
0

>  <SCORE.SYSTEM.DIHEDRAL>
0

>  <SCORE.SYSTEM.SOLV>
0

>  <SCORE.SYSTEM.norm>
0

>  <SCORE.heavy>
26

>  <SCORE.norm>
-2.30436

>  <RMSD>
0.682

$$$$
1f1t Malachite green aptamer (Xray 2.8A)
 OpenBabel11021811393D
libRbt.so/2013.1/901 2013/11/27
 26 29  0  0  0  0  0  0  0  0999 V2000
  111.1638  -74.6028  -81.9194 C   0  0  0  0  0  0  0  0  0  0  0  0
  111.6937  -75.8754  -82.3864 C   0  0  0  0  0  0  0  0  0  0  0  0
  111.4415  -76.1101  -83.7394 C   0  0  0  0  0  0  0  0  0  0  0  0
  112.0050  -77.4222  -84.1640 O   0  0  0  0  0  0  0  0  0  0  0  0
  111.7792  -77.6234  -85.4036 C   0  0  0  0  0  0  0  0  0  0  0  0
  112.3562  -78.9303  -85.7176 C   0  0  0  0  0  0  0  0  0  0  0  0
  112.2019  -79.3244  -87.0940 C   0  0  0  0  0  0  0  0  0  0  0  0
  111.5581  -78.5067  -88.0554 C   0  0  0  0  0  0  0  0  0  0  0  0
  110.9977  -77.2227  -87.6771 C   0  0  0  0  0  0  0  0  0  0  0  0
  111.1280  -76.8139  -86.3001 C   0  0  0  0  0  0  0  0  0  0  0  0
  110.5041  -75.4738  -85.9887 C   0  0  0  0  0  0  0  0  0  0  0  0
  110.7664  -75.2737  -84.6215 C   0  0  0  0  0  0  0  0  0  0  0  0
  110.2345  -74.0004  -84.1306 C   0  0  0  0  0  0  0  0  0  0  0  0
  110.4815  -73.7338  -82.7484 C   0  0  0  0  0  0  0  0  0  0  0  0
  109.8512  -74.7074  -86.9354 C   0  0  0  0  0  0  0  0  0  0  0  0
  108.8092  -75.1572  -87.7794 C   0  0  0  0  0  0  0  0  0  0  0  0
  108.1274  -74.3930  -88.7281 C   0  0  0  0  0  0  0  0  0  0  0  0
  108.4772  -72.9921  -88.9095 C   0  0  0  0  0  0  0  0  0  0  0  0
  109.5298  -72.5765  -88.0590 C   0  0  0  0  0  0  0  0  0  0  0  0
  110.2428  -73.3076  -87.0988 C   0  0  0  0  0  0  0  0  0  0  0  0
  111.3386  -74.2231  -80.5959 N   0  3  0  0  0  0  0  0  0  0  0  0
  112.0547  -75.0558  -79.6360 C   0  0  0  0  0  0  0  0  0  0  0  0
  110.8526  -72.9725  -79.9724 C   0  0  0  0  0  0  0  0  0  0  0  0
  112.7404  -80.5938  -87.3654 N   0  0  0  0  0  0  0  0  0  0  0  0
  113.3357  -81.6188  -86.4792 C   0  0  0  0  0  0  0  0  0  0  0  0
  112.7211  -81.0590  -88.7973 C   0  0  0  0  0  0  0  0  0  0  0  0
  1  2  1  0  0  0  0
  1 14  1  0  0  0  0
  1 21  2  0  0  0  0
  2  3  2  0  0  0  0
  3  4  1  0  0  0  0
  3 12  1  0  0  0  0
  4  5  1  0  0  0  0
  5  6  1  0  0  0  0
  5 10  2  0  0  0  0
  6  7  2  0  0  0  0
  7  8  1  0  0  0  0
  7 24  1  0  0  0  0
  8  9  2  0  0  0  0
  9 10  1  0  0  0  0
 10 11  1  0  0  0  0
 11 12  2  0  0  0  0
 11 15  1  0  0  0  0
 12 13  1  0  0  0  0
 13 14  2  0  0  0  0
 15 16  2  0  0  0  0
 15 20  1  0  0  0  0
 16 17  1  0  0  0  0
 17 18  2  0  0  0  0
 18 19  1  0  0  0  0
 19 20  2  0  0  0  0
 21 22  1  0  0  0  0
 21 23  1  0  0  0  0
 24 25  1  0  0  0  0
 24 26  1  0  0  0  0
M  CHG  1  21   1
M  END
>  <CHROM.1>
5.22912065,52.24330855,111.05625546,-76.18949278,-85.34151618,-1.85149039
1.05256645,-2.07630543

>  <Name>
1f1t Malachite green aptamer (Xray 2.8A)

>  <RI>
0

>  <Rbt.Current_Directory>
/home/itssahil/PROJECTS/Mol_Feturizer/New_Systems/rnas/1f1t

>  <Rbt.Executable>
rbdock ($Id: //depot/dev/client3/rdock/2013.1/src/exe/rbdock.cxx#4 $)

>  <Rbt.Library>
libRbt.so (2013.1, Build901 2013/11/27)

>  <Rbt.Parameter_File>
/export/apps/rDock/src/rDock_2013.1_src/data/scripts/dock_solv.prm

>  <Rbt.Receptor>
prm/pocket_docking_4.prm

>  <SCORE>
-62.8718

>  <SCORE.INTER>
-62.9329

>  <SCORE.INTER.CONST>
1

>  <SCORE.INTER.POLAR>
0

>  <SCORE.INTER.ROT>
2

>  <SCORE.INTER.SOLV>
11.1518

>  <SCORE.INTER.VDW>
-50.6059

>  <SCORE.INTER.norm>
-2.4205

>  <SCORE.INTRA>
0.0610941

>  <SCORE.INTRA.DIHEDRAL>
-1.11062

>  <SCORE.INTRA.DIHEDRAL.0>
4.18538

>  <SCORE.INTRA.POLAR>
0

>  <SCORE.INTRA.POLAR.0>
0

>  <SCORE.INTRA.REPUL>
0

>  <SCORE.INTRA.REPUL.0>
0

>  <SCORE.INTRA.SOLV>
0.0194123

>  <SCORE.INTRA.SOLV.lig_0>
-5.16926

>  <SCORE.INTRA.VDW>
0.606696

>  <SCORE.INTRA.VDW.0>
1.11912

>  <SCORE.INTRA.norm>
0.00234977

>  <SCORE.RESTR>
0

>  <SCORE.RESTR.CAVITY>
0

>  <SCORE.RESTR.norm>
0

>  <SCORE.SYSTEM>
0

>  <SCORE.SYSTEM.CONST>
0

>  <SCORE.SYSTEM.DIHEDRAL>
0

>  <SCORE.SYSTEM.SOLV>
0

>  <SCORE.SYSTEM.norm>
0

>  <SCORE.heavy>
26

>  <SCORE.norm>
-2.41815

>  <RMSD>
0.682

$$$$
1f1t Malachite green aptamer (Xray 2.8A)
 OpenBabel11021811393D
libRbt.so/2013.1/901 2013/11/27
 26 29  0  0  0  0  0  0  0  0999 V2000
  111.1684  -74.5848  -81.9156 C   0  0  0  0  0  0  0  0  0  0  0  0
  111.6956  -75.8604  -82.3774 C   0  0  0  0  0  0  0  0  0  0  0  0
  111.4433  -76.0999  -83.7296 C   0  0  0  0  0  0  0  0  0  0  0  0
  112.0040  -77.4149  -84.1489 O   0  0  0  0  0  0  0  0  0  0  0  0
  111.7782  -77.6205  -85.3877 C   0  0  0  0  0  0  0  0  0  0  0  0
  112.3524  -78.9299  -85.6964 C   0  0  0  0  0  0  0  0  0  0  0  0
  112.1976  -79.3290  -87.0713 C   0  0  0  0  0  0  0  0  0  0  0  0
  111.5558  -78.5137  -88.0362 C   0  0  0  0  0  0  0  0  0  0  0  0
  110.9983  -77.2270  -87.6631 C   0  0  0  0  0  0  0  0  0  0  0  0
  111.1290  -76.8131  -86.2876 C   0  0  0  0  0  0  0  0  0  0  0  0
  110.5080  -75.4704  -85.9817 C   0  0  0  0  0  0  0  0  0  0  0  0
  110.7703  -75.2654  -84.6152 C   0  0  0  0  0  0  0  0  0  0  0  0
  110.2411  -73.9891  -84.1295 C   0  0  0  0  0  0  0  0  0  0  0  0
  110.4883  -73.7176  -82.7483 C   0  0  0  0  0  0  0  0  0  0  0  0
  109.8571  -74.7062  -86.9316 C   0  0  0  0  0  0  0  0  0  0  0  0
  108.8234  -75.1607  -87.7833 C   0  0  0  0  0  0  0  0  0  0  0  0
  108.1435  -74.3989  -88.7353 C   0  0  0  0  0  0  0  0  0  0  0  0
  108.4865  -72.9958  -88.9123 C   0  0  0  0  0  0  0  0  0  0  0  0
  109.5310  -72.5755  -88.0541 C   0  0  0  0  0  0  0  0  0  0  0  0
  110.2417  -73.3040  -87.0903 C   0  0  0  0  0  0  0  0  0  0  0  0
  111.3437  -74.2004  -80.5936 N   0  3  0  0  0  0  0  0  0  0  0  0
  112.0577  -75.0308  -79.6302 C   0  0  0  0  0  0  0  0  0  0  0  0
  110.8603  -72.9462  -79.9751 C   0  0  0  0  0  0  0  0  0  0  0  0
  112.7333  -80.6007  -87.3376 N   0  0  0  0  0  0  0  0  0  0  0  0
  113.3224  -81.6252  -86.4467 C   0  0  0  0  0  0  0  0  0  0  0  0
  112.7180  -81.0694  -88.7684 C   0  0  0  0  0  0  0  0  0  0  0  0
  1  2  1  0  0  0  0
  1 14  1  0  0  0  0
  1 21  2  0  0  0  0
  2  3  2  0  0  0  0
  3  4  1  0  0  0  0
  3 12  1  0  0  0  0
  4  5  1  0  0  0  0
  5  6  1  0  0  0  0
  5 10  2  0  0  0  0
  6  7  2  0  0  0  0
  7  8  1  0  0  0  0
  7 24  1  0  0  0  0
  8  9  2  0  0  0  0
  9 10  1  0  0  0  0
 10 11  1  0  0  0  0
 11 12  2  0  0  0  0
 11 15  1  0  0  0  0
 12 13  1  0  0  0  0
 13 14  2  0  0  0  0
 15 16  2  0  0  0  0
 15 20  1  0  0  0  0
 16 17  1  0  0  0  0
 17 18  2  0  0  0  0
 18 19  1  0  0  0  0
 19 20  2  0  0  0  0
 21 22  1  0  0  0  0
 21 23  1  0  0  0  0
 24 25  1  0  0  0  0
 24 26  1  0  0  0  0
M  CHG  1  21   1
M  END
>  <CHROM.1>
5.44609114,51.58041522,111.05830605,-76.18471740,-85.33147763,-1.84991871
1.05463998,-2.08168435

>  <Name>
1f1t Malachite green aptamer (Xray 2.8A)

>  <RI>
0

>  <Rbt.Current_Directory>
/home/itssahil/PROJECTS/Mol_Feturizer/New_Systems/rnas/1f1t

>  <Rbt.Executable>
rbdock ($Id: //depot/dev/client3/rdock/2013.1/src/exe/rbdock.cxx#4 $)

>  <Rbt.Library>
libRbt.so (2013.1, Build901 2013/11/27)

>  <Rbt.Parameter_File>
/export/apps/rDock/src/rDock_2013.1_src/data/scripts/dock_solv.prm

>  <Rbt.Receptor>
prm/pocket_docking_8.prm

>  <SCORE>
-62.8835

>  <SCORE.INTER>
-62.962

>  <SCORE.INTER.CONST>
1

>  <SCORE.INTER.POLAR>
0

>  <SCORE.INTER.ROT>
2

>  <SCORE.INTER.SOLV>
11.1521

>  <SCORE.INTER.VDW>
-50.6254

>  <SCORE.INTER.norm>
-2.42162

>  <SCORE.INTRA>
0.0785021

>  <SCORE.INTRA.DIHEDRAL>
-1.15595

>  <SCORE.INTRA.DIHEDRAL.0>
4.18538

>  <SCORE.INTRA.POLAR>
0

>  <SCORE.INTRA.POLAR.0>
0

>  <SCORE.INTRA.REPUL>
0

>  <SCORE.INTRA.REPUL.0>
0

>  <SCORE.INTRA.SOLV>
0.0201531

>  <SCORE.INTRA.SOLV.lig_0>
-5.16926

>  <SCORE.INTRA.VDW>
0.6464

>  <SCORE.INTRA.VDW.0>
1.11912

>  <SCORE.INTRA.norm>
0.00301931

>  <SCORE.RESTR>
0

>  <SCORE.RESTR.CAVITY>
0

>  <SCORE.RESTR.norm>
0

>  <SCORE.SYSTEM>
0

>  <SCORE.SYSTEM.CONST>
0

>  <SCORE.SYSTEM.DIHEDRAL>
0

>  <SCORE.SYSTEM.SOLV>
0

>  <SCORE.SYSTEM.norm>
0

>  <SCORE.heavy>
26

>  <SCORE.norm>
-2.4186

>  <RMSD>
0.682

$$$$
1f1t Malachite green aptamer (Xray 2.8A)
 OpenBabel11021811393D
libRbt.so/2013.1/901 2013/11/27
 26 29  0  0  0  0  0  0  0  0999 V2000
  111.2353  -74.6047  -81.8941 C   0  0  0  0  0  0  0  0  0  0  0  0
  111.7476  -75.8782  -82.3781 C   0  0  0  0  0  0  0  0  0  0  0  0
  111.4851  -76.0950  -83.7321 C   0  0  0  0  0  0  0  0  0  0  0  0
  112.0308  -77.4088  -84.1744 O   0  0  0  0  0  0  0  0  0  0  0  0
  111.7957  -77.5937  -85.4147 C   0  0  0  0  0  0  0  0  0  0  0  0
  112.3556  -78.9037  -85.7464 C   0  0  0  0  0  0  0  0  0  0  0  0
  112.1889  -79.2807  -87.1261 C   0  0  0  0  0  0  0  0  0  0  0  0
  111.5492  -78.4450  -88.0748 C   0  0  0  0  0  0  0  0  0  0  0  0
  111.0061  -77.1588  -87.6792 C   0  0  0  0  0  0  0  0  0  0  0  0
  111.1489  -76.7669  -86.2985 C   0  0  0  0  0  0  0  0  0  0  0  0
  110.5425  -75.4231  -85.9689 C   0  0  0  0  0  0  0  0  0  0  0  0
  110.8148  -75.2411  -84.6011 C   0  0  0  0  0  0  0  0  0  0  0  0
  110.3006  -73.9673  -84.0932 C   0  0  0  0  0  0  0  0  0  0  0  0
  110.5585  -73.7188  -82.7097 C   0  0  0  0  0  0  0  0  0  0  0  0
  109.8933  -74.6387  -86.9034 C   0  0  0  0  0  0  0  0  0  0  0  0
  110.2216  -73.3004  -87.2221 C   0  0  0  0  0  0  0  0  0  0  0  0
  109.5885  -72.4997  -88.1745 C   0  0  0  0  0  0  0  0  0  0  0  0
  108.4790  -73.0400  -88.9457 C   0  0  0  0  0  0  0  0  0  0  0  0
  108.1685  -74.3760  -88.5952 C   0  0  0  0  0  0  0  0  0  0  0  0
  108.7722  -75.2131  -87.6468 C   0  0  0  0  0  0  0  0  0  0  0  0
  111.4220  -74.2417  -80.5676 N   0  3  0  0  0  0  0  0  0  0  0  0
  112.1337  -75.0932  -79.6211 C   0  0  0  0  0  0  0  0  0  0  0  0
  110.9541  -72.9925  -79.9276 C   0  0  0  0  0  0  0  0  0  0  0  0
  112.7110  -80.5533  -87.4146 N   0  0  0  0  0  0  0  0  0  0  0  0
  113.3010  -81.5940  -86.5433 C   0  0  0  0  0  0  0  0  0  0  0  0
  112.6761  -81.0033  -88.8509 C   0  0  0  0  0  0  0  0  0  0  0  0
  1  2  1  0  0  0  0
  1 14  1  0  0  0  0
  1 21  2  0  0  0  0
  2  3  2  0  0  0  0
  3  4  1  0  0  0  0
  3 12  1  0  0  0  0
  4  5  1  0  0  0  0
  5  6  1  0  0  0  0
  5 10  2  0  0  0  0
  6  7  2  0  0  0  0
  7  8  1  0  0  0  0
  7 24  1  0  0  0  0
  8  9  2  0  0  0  0
  9 10  1  0  0  0  0
 10 11  1  0  0  0  0
 11 12  2  0  0  0  0
 11 15  1  0  0  0  0
 12 13  1  0  0  0  0
 13 14  2  0  0  0  0
 15 16  2  0  0  0  0
 15 20  1  0  0  0  0
 16 17  1  0  0  0  0
 17 18  2  0  0  0  0
 18 19  1  0  0  0  0
 19 20  2  0  0  0  0
 21 22  1  0  0  0  0
 21 23  1  0  0  0  0
 24 25  1  0  0  0  0
 24 26  1  0  0  0  0
M  CHG  1  21   1
M  END
>  <CHROM.1>
5.13125083,-124.09585005,111.08252827,-76.16958795,-85.34224954,-1.81080219
1.05522923,-2.08596507

>  <Name>
1f1t Malachite green aptamer (Xray 2.8A)

>  <RI>
0

>  <Rbt.Current_Directory>
/home/itssahil/PROJECTS/Mol_Feturizer/New_Systems/rnas/1f1t

>  <Rbt.Executable>
rbdock ($Id: //depot/dev/client3/rdock/2013.1/src/exe/rbdock.cxx#4 $)

>  <Rbt.Library>
libRbt.so (2013.1, Build901 2013/11/27)

>  <Rbt.Parameter_File>
/export/apps/rDock/src/rDock_2013.1_src/data/scripts/dock_solv.prm

>  <Rbt.Receptor>
prm/pocket_docking_8.prm

>  <SCORE>
-63.2836

>  <SCORE.INTER>
-63.3973

>  <SCORE.INTER.CONST>
1

>  <SCORE.INTER.POLAR>
0

>  <SCORE.INTER.ROT>
2

>  <SCORE.INTER.SOLV>
11.1793

>  <SCORE.INTER.VDW>
-50.9246

>  <SCORE.INTER.norm>
-2.43836

>  <SCORE.INTRA>
0.113676

>  <SCORE.INTRA.DIHEDRAL>
-0.822113

>  <SCORE.INTRA.DIHEDRAL.0>
4.18538

>  <SCORE.INTRA.POLAR>
0

>  <SCORE.INTRA.POLAR.0>
0

>  <SCORE.INTRA.REPUL>
0

>  <SCORE.INTRA.REPUL.0>
0

>  <SCORE.INTRA.SOLV>
0.0152628

>  <SCORE.INTRA.SOLV.lig_0>
-5.16926

>  <SCORE.INTRA.VDW>
0.517101

>  <SCORE.INTRA.VDW.0>
1.11912

>  <SCORE.INTRA.norm>
0.00437214

>  <SCORE.RESTR>
0

>  <SCORE.RESTR.CAVITY>
0

>  <SCORE.RESTR.norm>
0

>  <SCORE.SYSTEM>
0

>  <SCORE.SYSTEM.CONST>
0

>  <SCORE.SYSTEM.DIHEDRAL>
0

>  <SCORE.SYSTEM.SOLV>
0

>  <SCORE.SYSTEM.norm>
0

>  <SCORE.heavy>
26

>  <SCORE.norm>
-2.43398

>  <RMSD>
0.682

$$$$
1f1t Malachite green aptamer (Xray 2.8A)
 OpenBabel11021811393D
libRbt.so/2013.1/901 2013/11/27
 26 29  0  0  0  0  0  0  0  0999 V2000
  111.2261  -74.6039  -81.8743 C   0  0  0  0  0  0  0  0  0  0  0  0
  111.7336  -75.8796  -82.3575 C   0  0  0  0  0  0  0  0  0  0  0  0
  111.4779  -76.0923  -83.7135 C   0  0  0  0  0  0  0  0  0  0  0  0
  112.0182  -77.4086  -84.1549 O   0  0  0  0  0  0  0  0  0  0  0  0
  111.7895  -77.5897  -85.3970 C   0  0  0  0  0  0  0  0  0  0  0  0
  112.3434  -78.9025  -85.7278 C   0  0  0  0  0  0  0  0  0  0  0  0
  112.1827  -79.2760  -87.1092 C   0  0  0  0  0  0  0  0  0  0  0  0
  111.5539  -78.4346  -88.0601 C   0  0  0  0  0  0  0  0  0  0  0  0
  111.0162  -77.1459  -87.6654 C   0  0  0  0  0  0  0  0  0  0  0  0
  111.1531  -76.7574  -86.2831 C   0  0  0  0  0  0  0  0  0  0  0  0
  110.5529  -75.4105  -85.9547 C   0  0  0  0  0  0  0  0  0  0  0  0
  110.8181  -75.2327  -84.5849 C   0  0  0  0  0  0  0  0  0  0  0  0
  110.3087  -73.9567  -84.0777 C   0  0  0  0  0  0  0  0  0  0  0  0
  110.5597  -73.7124  -82.6922 C   0  0  0  0  0  0  0  0  0  0  0  0
  109.9141  -74.6204  -86.8915 C   0  0  0  0  0  0  0  0  0  0  0  0
  110.2554  -73.2851  -87.2090 C   0  0  0  0  0  0  0  0  0  0  0  0
  109.6330  -72.4788  -88.1637 C   0  0  0  0  0  0  0  0  0  0  0  0
  108.5218  -73.0094  -88.9391 C   0  0  0  0  0  0  0  0  0  0  0  0
  108.1982  -74.3426  -88.5899 C   0  0  0  0  0  0  0  0  0  0  0  0
  108.7909  -75.1850  -87.6392 C   0  0  0  0  0  0  0  0  0  0  0  0
  111.4070  -74.2446  -80.5459 N   0  3  0  0  0  0  0  0  0  0  0  0
  112.1079  -75.1021  -79.5967 C   0  0  0  0  0  0  0  0  0  0  0  0
  110.9430  -72.9937  -79.9064 C   0  0  0  0  0  0  0  0  0  0  0  0
  112.6987  -80.5512  -87.3969 N   0  0  0  0  0  0  0  0  0  0  0  0
  113.2878  -81.5924  -86.5257 C   0  0  0  0  0  0  0  0  0  0  0  0
  112.6569  -81.0041  -88.8322 C   0  0  0  0  0  0  0  0  0  0  0  0
  1  2  1  0  0  0  0
  1 14  1  0  0  0  0
  1 21  2  0  0  0  0
  2  3  2  0  0  0  0
  3  4  1  0  0  0  0
  3 12  1  0  0  0  0
  4  5  1  0  0  0  0
  5  6  1  0  0  0  0
  5 10  2  0  0  0  0
  6  7  2  0  0  0  0
  7  8  1  0  0  0  0
  7 24  1  0  0  0  0
  8  9  2  0  0  0  0
  9 10  1  0  0  0  0
 10 11  1  0  0  0  0
 11 12  2  0  0  0  0
 11 15  1  0  0  0  0
 12 13  1  0  0  0  0
 13 14  2  0  0  0  0
 15 16  2  0  0  0  0
 15 20  1  0  0  0  0
 16 17  1  0  0  0  0
 17 18  2  0  0  0  0
 18 19  1  0  0  0  0
 19 20  2  0  0  0  0
 21 22  1  0  0  0  0
 21 23  1  0  0  0  0
 24 25  1  0  0  0  0
 24 26  1  0  0  0  0
M  CHG  1  21   1
M  END
>  <CHROM.1>
4.52008252,-123.87171816,111.08448805,-76.16150710,-85.32611281,-1.81510880
1.06336676,-2.08037837

>  <Name>
1f1t Malachite green aptamer (Xray 2.8A)

>  <RI>
0

>  <Rbt.Current_Directory>
/home/itssahil/PROJECTS/Mol_Feturizer/New_Systems/rnas/1f1t

>  <Rbt.Executable>
rbdock ($Id: //depot/dev/client3/rdock/2013.1/src/exe/rbdock.cxx#4 $)

>  <Rbt.Library>
libRbt.so (2013.1, Build901 2013/11/27)

>  <Rbt.Parameter_File>
/export/apps/rDock/src/rDock_2013.1_src/data/scripts/dock_solv.prm

>  <Rbt.Receptor>
prm/pocket_docking_8.prm

>  <SCORE>
-63.2451

>  <SCORE.INTER>
-63.3491

>  <SCORE.INTER.CONST>
1

>  <SCORE.INTER.POLAR>
0

>  <SCORE.INTER.ROT>
2

>  <SCORE.INTER.SOLV>
11.1866

>  <SCORE.INTER.VDW>
-50.895

>  <SCORE.INTER.norm>
-2.4365

>  <SCORE.INTRA>
0.104025

>  <SCORE.INTRA.DIHEDRAL>
-0.826848

>  <SCORE.INTRA.DIHEDRAL.0>
4.18538

>  <SCORE.INTRA.POLAR>
0

>  <SCORE.INTRA.POLAR.0>
0

>  <SCORE.INTRA.REPUL>
0

>  <SCORE.INTRA.REPUL.0>
0

>  <SCORE.INTRA.SOLV>
0.0150019

>  <SCORE.INTRA.SOLV.lig_0>
-5.16926

>  <SCORE.INTRA.VDW>
0.509948

>  <SCORE.INTRA.VDW.0>
1.11912

>  <SCORE.INTRA.norm>
0.00400097

>  <SCORE.RESTR>
0

>  <SCORE.RESTR.CAVITY>
0

>  <SCORE.RESTR.norm>
0

>  <SCORE.SYSTEM>
0

>  <SCORE.SYSTEM.CONST>
0

>  <SCORE.SYSTEM.DIHEDRAL>
0

>  <SCORE.SYSTEM.SOLV>
0

>  <SCORE.SYSTEM.norm>
0

>  <SCORE.heavy>
26

>  <SCORE.norm>
-2.4325

>  <RMSD>
0.682

$$$$
1f1t Malachite green aptamer (Xray 2.8A)
 OpenBabel11021811393D
libRbt.so/2013.1/901 2013/11/27
 26 29  0  0  0  0  0  0  0  0999 V2000
  111.1647  -74.6113  -81.9264 C   0  0  0  0  0  0  0  0  0  0  0  0
  111.6939  -75.8833  -82.3958 C   0  0  0  0  0  0  0  0  0  0  0  0
  111.4384  -76.1169  -83.7484 C   0  0  0  0  0  0  0  0  0  0  0  0
  112.0013  -77.4285  -84.1756 O   0  0  0  0  0  0  0  0  0  0  0  0
  111.7723  -77.6287  -85.4147 C   0  0  0  0  0  0  0  0  0  0  0  0
  112.3491  -78.9351  -85.7313 C   0  0  0  0  0  0  0  0  0  0  0  0
  112.1913  -79.3281  -87.1077 C   0  0  0  0  0  0  0  0  0  0  0  0
  111.5447  -78.5098  -88.0668 C   0  0  0  0  0  0  0  0  0  0  0  0
  110.9849  -77.2264  -87.6859 C   0  0  0  0  0  0  0  0  0  0  0  0
  111.1185  -76.8188  -86.3088 C   0  0  0  0  0  0  0  0  0  0  0  0
  110.4949  -75.4792  -85.9948 C   0  0  0  0  0  0  0  0  0  0  0  0
  110.7606  -75.2801  -84.6280 C   0  0  0  0  0  0  0  0  0  0  0  0
  110.2295  -74.0075  -84.1347 C   0  0  0  0  0  0  0  0  0  0  0  0
  110.4799  -73.7419  -82.7529 C   0  0  0  0  0  0  0  0  0  0  0  0
  109.8392  -74.7121  -86.9391 C   0  0  0  0  0  0  0  0  0  0  0  0
  108.7962  -75.1621  -87.7817 C   0  0  0  0  0  0  0  0  0  0  0  0
  108.1116  -74.3973  -88.7280 C   0  0  0  0  0  0  0  0  0  0  0  0
  108.4594  -72.9958  -88.9082 C   0  0  0  0  0  0  0  0  0  0  0  0
  109.5130  -72.5801  -88.0590 C   0  0  0  0  0  0  0  0  0  0  0  0
  110.2288  -73.3117  -87.1013 C   0  0  0  0  0  0  0  0  0  0  0  0
  111.3428  -74.2327  -80.6030 N   0  3  0  0  0  0  0  0  0  0  0  0
  112.0617  -75.0659  -79.6457 C   0  0  0  0  0  0  0  0  0  0  0  0
  110.8579  -72.9828  -79.9772 C   0  0  0  0  0  0  0  0  0  0  0  0
  112.7297  -80.5971  -87.3816 N   0  0  0  0  0  0  0  0  0  0  0  0
  113.3026  -81.6339  -86.4944 C   0  0  0  0  0  0  0  0  0  0  0  0
  112.7371  -81.0472  -88.8183 C   0  0  0  0  0  0  0  0  0  0  0  0
  1  2  1  0  0  0  0
  1 14  1  0  0  0  0
  1 21  2  0  0  0  0
  2  3  2  0  0  0  0
  3  4  1  0  0  0  0
  3 12  1  0  0  0  0
  4  5  1  0  0  0  0
  5  6  1  0  0  0  0
  5 10  2  0  0  0  0
  6  7  2  0  0  0  0
  7  8  1  0  0  0  0
  7 24  1  0  0  0  0
  8  9  2  0  0  0  0
  9 10  1  0  0  0  0
 10 11  1  0  0  0  0
 11 12  2  0  0  0  0
 11 15  1  0  0  0  0
 12 13  1  0  0  0  0
 13 14  2  0  0  0  0
 15 16  2  0  0  0  0
 15 20  1  0  0  0  0
 16 17  1  0  0  0  0
 17 18  2  0  0  0  0
 18 19  1  0  0  0  0
 19 20  2  0  0  0  0
 21 22  1  0  0  0  0
 21 23  1  0  0  0  0
 24 25  1  0  0  0  0
 24 26  1  0  0  0  0
M  CHG  1  21   1
M  END
>  <CHROM.1>
6.66613828,52.17554589,111.04920018,-76.19503676,-85.34961922,-1.84811234
1.05120982,-2.07829441

>  <Name>
1f1t Malachite green aptamer (Xray 2.8A)

>  <RI>
0

>  <Rbt.Current_Directory>
/home/itssahil/PROJECTS/Mol_Feturizer/New_Systems/rnas/1f1t

>  <Rbt.Executable>
rbdock ($Id: //depot/dev/client3/rdock/2013.1/src/exe/rbdock.cxx#4 $)

>  <Rbt.Library>
libRbt.so (2013.1, Build901 2013/11/27)

>  <Rbt.Parameter_File>
/export/apps/rDock/src/rDock_2013.1_src/data/scripts/dock_solv.prm

>  <Rbt.Receptor>
prm/pocket_docking_3.prm

>  <SCORE>
-62.823

>  <SCORE.INTER>
-62.8974

>  <SCORE.INTER.CONST>
1

>  <SCORE.INTER.POLAR>
0

>  <SCORE.INTER.ROT>
2

>  <SCORE.INTER.SOLV>
11.1233

>  <SCORE.INTER.VDW>
-50.5727

>  <SCORE.INTER.norm>
-2.41913

>  <SCORE.INTRA>
0.0743791

>  <SCORE.INTRA.DIHEDRAL>
-1.05153

>  <SCORE.INTRA.DIHEDRAL.0>
4.18538

>  <SCORE.INTRA.POLAR>
0

>  <SCORE.INTRA.POLAR.0>
0

>  <SCORE.INTRA.REPUL>
0

>  <SCORE.INTRA.REPUL.0>
0

>  <SCORE.INTRA.SOLV>
0.0194823

>  <SCORE.INTRA.SOLV.lig_0>
-5.16926

>  <SCORE.INTRA.VDW>
0.590402

>  <SCORE.INTRA.VDW.0>
1.11912

>  <SCORE.INTRA.norm>
0.00286074

>  <SCORE.RESTR>
0

>  <SCORE.RESTR.CAVITY>
0

>  <SCORE.RESTR.norm>
0

>  <SCORE.SYSTEM>
0

>  <SCORE.SYSTEM.CONST>
0

>  <SCORE.SYSTEM.DIHEDRAL>
0

>  <SCORE.SYSTEM.SOLV>
0

>  <SCORE.SYSTEM.norm>
0

>  <SCORE.heavy>
26

>  <SCORE.norm>
-2.41627

>  <RMSD>
0.683

$$$$
1f1t Malachite green aptamer (Xray 2.8A)
 OpenBabel11021811393D
libRbt.so/2013.1/901 2013/11/27
 26 29  0  0  0  0  0  0  0  0999 V2000
  111.2486  -74.5874  -81.8914 C   0  0  0  0  0  0  0  0  0  0  0  0
  111.7521  -75.8652  -82.3732 C   0  0  0  0  0  0  0  0  0  0  0  0
  111.4841  -76.0845  -83.7257 C   0  0  0  0  0  0  0  0  0  0  0  0
  112.0209  -77.4028  -84.1658 O   0  0  0  0  0  0  0  0  0  0  0  0
  111.7807  -77.5899  -85.4048 C   0  0  0  0  0  0  0  0  0  0  0  0
  112.3321  -78.9041  -85.7344 C   0  0  0  0  0  0  0  0  0  0  0  0
  112.1589  -79.2842  -87.1125 C   0  0  0  0  0  0  0  0  0  0  0  0
  111.5210  -78.4476  -88.0616 C   0  0  0  0  0  0  0  0  0  0  0  0
  110.9865  -77.1572  -87.6681 C   0  0  0  0  0  0  0  0  0  0  0  0
  111.1359  -76.7620  -86.2890 C   0  0  0  0  0  0  0  0  0  0  0  0
  110.5382  -75.4139  -85.9615 C   0  0  0  0  0  0  0  0  0  0  0  0
  110.8159  -75.2294  -84.5951 C   0  0  0  0  0  0  0  0  0  0  0  0
  110.3106  -73.9511  -84.0894 C   0  0  0  0  0  0  0  0  0  0  0  0
  110.5743  -73.7001  -82.7074 C   0  0  0  0  0  0  0  0  0  0  0  0
  109.8905  -74.6285  -86.8962 C   0  0  0  0  0  0  0  0  0  0  0  0
  110.2434  -73.3029  -87.2407 C   0  0  0  0  0  0  0  0  0  0  0  0
  109.6120  -72.5019  -88.1939 C   0  0  0  0  0  0  0  0  0  0  0  0
  108.4770  -73.0278  -88.9375 C   0  0  0  0  0  0  0  0  0  0  0  0
  108.1425  -74.3510  -88.5616 C   0  0  0  0  0  0  0  0  0  0  0  0
  108.7437  -75.1878  -87.6113 C   0  0  0  0  0  0  0  0  0  0  0  0
  111.4416  -74.2217  -80.5665 N   0  3  0  0  0  0  0  0  0  0  0  0
  112.1515  -75.0744  -79.6197 C   0  0  0  0  0  0  0  0  0  0  0  0
  110.9829  -72.9679  -79.9287 C   0  0  0  0  0  0  0  0  0  0  0  0
  112.6728  -80.5606  -87.3988 N   0  0  0  0  0  0  0  0  0  0  0  0
  113.3291  -81.5712  -86.5396 C   0  0  0  0  0  0  0  0  0  0  0  0
  112.5471  -81.0522  -88.8164 C   0  0  0  0  0  0  0  0  0  0  0  0
  1  2  1  0  0  0  0
  1 14  1  0  0  0  0
  1 21  2  0  0  0  0
  2  3  2  0  0  0  0
  3  4  1  0  0  0  0
  3 12  1  0  0  0  0
  4  5  1  0  0  0  0
  5  6  1  0  0  0  0
  5 10  2  0  0  0  0
  6  7  2  0  0  0  0
  7  8  1  0  0  0  0
  7 24  1  0  0  0  0
  8  9  2  0  0  0  0
  9 10  1  0  0  0  0
 10 11  1  0  0  0  0
 11 12  2  0  0  0  0
 11 15  1  0  0  0  0
 12 13  1  0  0  0  0
 13 14  2  0  0  0  0
 15 16  2  0  0  0  0
 15 20  1  0  0  0  0
 16 17  1  0  0  0  0
 17 18  2  0  0  0  0
 18 19  1  0  0  0  0
 19 20  2  0  0  0  0
 21 22  1  0  0  0  0
 21 23  1  0  0  0  0
 24 25  1  0  0  0  0
 24 26  1  0  0  0  0
M  CHG  1  21   1
M  END
>  <CHROM.1>
1.13435227,-122.64340290,111.07514000,-76.16183569,-85.33400006,-1.79763282
1.05764764,-2.10068688

>  <Name>
1f1t Malachite green aptamer (Xray 2.8A)

>  <RI>
0

>  <Rbt.Current_Directory>
/home/itssahil/PROJECTS/Mol_Feturizer/New_Systems/rnas/1f1t

>  <Rbt.Executable>
rbdock ($Id: //depot/dev/client3/rdock/2013.1/src/exe/rbdock.cxx#4 $)

>  <Rbt.Library>
libRbt.so (2013.1, Build901 2013/11/27)

>  <Rbt.Parameter_File>
/export/apps/rDock/src/rDock_2013.1_src/data/scripts/dock_solv.prm

>  <Rbt.Receptor>
prm/pocket_docking_6.prm

>  <SCORE>
-63.0977

>  <SCORE.INTER>
-63.1615

>  <SCORE.INTER.CONST>
1

>  <SCORE.INTER.POLAR>
0

>  <SCORE.INTER.ROT>
2

>  <SCORE.INTER.SOLV>
11.2286

>  <SCORE.INTER.VDW>
-50.7838

>  <SCORE.INTER.norm>
-2.42929

>  <SCORE.INTRA>
0.0637165

>  <SCORE.INTRA.DIHEDRAL>
-0.802759

>  <SCORE.INTRA.DIHEDRAL.0>
4.18538

>  <SCORE.INTRA.POLAR>
0

>  <SCORE.INTRA.POLAR.0>
0

>  <SCORE.INTRA.REPUL>
0

>  <SCORE.INTRA.REPUL.0>
0

>  <SCORE.INTRA.SOLV>
0.0135721

>  <SCORE.INTRA.SOLV.lig_0>
-5.16926

>  <SCORE.INTRA.VDW>
0.45831

>  <SCORE.INTRA.VDW.0>
1.11912

>  <SCORE.INTRA.norm>
0.00245064

>  <SCORE.RESTR>
0

>  <SCORE.RESTR.CAVITY>
0

>  <SCORE.RESTR.norm>
0

>  <SCORE.SYSTEM>
0

>  <SCORE.SYSTEM.CONST>
0

>  <SCORE.SYSTEM.DIHEDRAL>
0

>  <SCORE.SYSTEM.SOLV>
0

>  <SCORE.SYSTEM.norm>
0

>  <SCORE.heavy>
26

>  <SCORE.norm>
-2.42684

>  <RMSD>
0.683

$$$$
1f1t Malachite green aptamer (Xray 2.8A)
 OpenBabel11021811393D
libRbt.so/2013.1/901 2013/11/27
 26 29  0  0  0  0  0  0  0  0999 V2000
  111.1797  -74.5901  -81.9261 C   0  0  0  0  0  0  0  0  0  0  0  0
  111.7069  -75.8650  -82.3901 C   0  0  0  0  0  0  0  0  0  0  0  0
  111.4511  -76.1040  -83.7417 C   0  0  0  0  0  0  0  0  0  0  0  0
  112.0119  -77.4183  -84.1632 O   0  0  0  0  0  0  0  0  0  0  0  0
  111.7828  -77.6234  -85.4015 C   0  0  0  0  0  0  0  0  0  0  0  0
  112.3575  -78.9321  -85.7125 C   0  0  0  0  0  0  0  0  0  0  0  0
  112.1991  -79.3307  -87.0871 C   0  0  0  0  0  0  0  0  0  0  0  0
  111.5538  -78.5156  -88.0497 C   0  0  0  0  0  0  0  0  0  0  0  0
  110.9959  -77.2296  -87.6744 C   0  0  0  0  0  0  0  0  0  0  0  0
  111.1302  -76.8163  -86.2991 C   0  0  0  0  0  0  0  0  0  0  0  0
  110.5086  -75.4744  -85.9908 C   0  0  0  0  0  0  0  0  0  0  0  0
  110.7746  -75.2699  -84.6249 C   0  0  0  0  0  0  0  0  0  0  0  0
  110.2455  -73.9943  -84.1370 C   0  0  0  0  0  0  0  0  0  0  0  0
  110.4963  -73.7232  -82.7565 C   0  0  0  0  0  0  0  0  0  0  0  0
  109.8542  -74.7105  -86.9384 C   0  0  0  0  0  0  0  0  0  0  0  0
  108.8082  -75.1614  -87.7768 C   0  0  0  0  0  0  0  0  0  0  0  0
  108.1248  -74.3997  -88.7263 C   0  0  0  0  0  0  0  0  0  0  0  0
  108.4773  -73.0004  -88.9150 C   0  0  0  0  0  0  0  0  0  0  0  0
  109.5338  -72.5837  -88.0700 C   0  0  0  0  0  0  0  0  0  0  0  0
  110.2485  -73.3123  -87.1092 C   0  0  0  0  0  0  0  0  0  0  0  0
  111.3583  -74.2062  -80.6044 N   0  3  0  0  0  0  0  0  0  0  0  0
  112.0760  -75.0363  -79.6435 C   0  0  0  0  0  0  0  0  0  0  0  0
  110.8754  -72.9528  -79.9840 C   0  0  0  0  0  0  0  0  0  0  0  0
  112.7355  -80.6017  -87.3555 N   0  0  0  0  0  0  0  0  0  0  0  0
  113.3166  -81.6312  -86.4652 C   0  0  0  0  0  0  0  0  0  0  0  0
  112.7305  -81.0634  -88.7886 C   0  0  0  0  0  0  0  0  0  0  0  0
  1  2  1  0  0  0  0
  1 14  1  0  0  0  0
  1 21  2  0  0  0  0
  2  3  2  0  0  0  0
  3  4  1  0  0  0  0
  3 12  1  0  0  0  0
  4  5  1  0  0  0  0
  5  6  1  0  0  0  0
  5 10  2  0  0  0  0
  6  7  2  0  0  0  0
  7  8  1  0  0  0  0
  7 24  1  0  0  0  0
  8  9  2  0  0  0  0
  9 10  1  0  0  0  0
 10 11  1  0  0  0  0
 11 12  2  0  0  0  0
 11 15  1  0  0  0  0
 12 13  1  0  0  0  0
 13 14  2  0  0  0  0
 15 16  2  0  0  0  0
 15 20  1  0  0  0  0
 16 17  1  0  0  0  0
 17 18  2  0  0  0  0
 18 19  1  0  0  0  0
 19 20  2  0  0  0  0
 21 22  1  0  0  0  0
 21 23  1  0  0  0  0
 24 25  1  0  0  0  0
 24 26  1  0  0  0  0
M  CHG  1  21   1
M  END
>  <CHROM.1>
6.10419865,52.34487624,111.06176971,-76.18843776,-85.34255381,-1.84633096
1.05249226,-2.08414859

>  <Name>
1f1t Malachite green aptamer (Xray 2.8A)

>  <RI>
0

>  <Rbt.Current_Directory>
/home/itssahil/PROJECTS/Mol_Feturizer/New_Systems/rnas/1f1t

>  <Rbt.Executable>
rbdock ($Id: //depot/dev/client3/rdock/2013.1/src/exe/rbdock.cxx#4 $)

>  <Rbt.Library>
libRbt.so (2013.1, Build901 2013/11/27)

>  <Rbt.Parameter_File>
/export/apps/rDock/src/rDock_2013.1_src/data/scripts/dock_solv.prm

>  <Rbt.Receptor>
prm/pocket_docking_8.prm

>  <SCORE>
-62.9002

>  <SCORE.INTER>
-62.9658

>  <SCORE.INTER.CONST>
1

>  <SCORE.INTER.POLAR>
0

>  <SCORE.INTER.ROT>
2

>  <SCORE.INTER.SOLV>
11.1543

>  <SCORE.INTER.VDW>
-50.6287

>  <SCORE.INTER.norm>
-2.42176

>  <SCORE.INTRA>
0.0656021

>  <SCORE.INTRA.DIHEDRAL>
-1.06489

>  <SCORE.INTRA.DIHEDRAL.0>
4.18538

>  <SCORE.INTRA.POLAR>
0

>  <SCORE.INTRA.POLAR.0>
0

>  <SCORE.INTRA.REPUL>
0

>  <SCORE.INTRA.REPUL.0>
0

>  <SCORE.INTRA.SOLV>
0.0192968

>  <SCORE.INTRA.SOLV.lig_0>
-5.16926

>  <SCORE.INTRA.VDW>
0.588401

>  <SCORE.INTRA.VDW.0>
1.11912

>  <SCORE.INTRA.norm>
0.00252316

>  <SCORE.RESTR>
0

>  <SCORE.RESTR.CAVITY>
0

>  <SCORE.RESTR.norm>
0

>  <SCORE.SYSTEM>
0

>  <SCORE.SYSTEM.CONST>
0

>  <SCORE.SYSTEM.DIHEDRAL>
0

>  <SCORE.SYSTEM.SOLV>
0

>  <SCORE.SYSTEM.norm>
0

>  <SCORE.heavy>
26

>  <SCORE.norm>
-2.41924

>  <RMSD>
0.683

$$$$
1f1t Malachite green aptamer (Xray 2.8A)
 OpenBabel11021811393D
libRbt.so/2013.1/901 2013/11/27
 26 29  0  0  0  0  0  0  0  0999 V2000
  111.1862  -74.5869  -81.9297 C   0  0  0  0  0  0  0  0  0  0  0  0
  111.7251  -75.8559  -82.3961 C   0  0  0  0  0  0  0  0  0  0  0  0
  111.4705  -76.0951  -83.7479 C   0  0  0  0  0  0  0  0  0  0  0  0
  112.0434  -77.4034  -84.1720 O   0  0  0  0  0  0  0  0  0  0  0  0
  111.8153  -77.6086  -85.4104 C   0  0  0  0  0  0  0  0  0  0  0  0
  112.4020  -78.9114  -85.7240 C   0  0  0  0  0  0  0  0  0  0  0  0
  112.2465  -79.3092  -87.0992 C   0  0  0  0  0  0  0  0  0  0  0  0
  111.5929  -78.4985  -88.0600 C   0  0  0  0  0  0  0  0  0  0  0  0
  111.0232  -77.2185  -87.6822 C   0  0  0  0  0  0  0  0  0  0  0  0
  111.1545  -76.8062  -86.3063 C   0  0  0  0  0  0  0  0  0  0  0  0
  110.5206  -75.4707  -85.9953 C   0  0  0  0  0  0  0  0  0  0  0  0
  110.7856  -75.2659  -84.6293 C   0  0  0  0  0  0  0  0  0  0  0  0
  110.2449  -73.9962  -84.1390 C   0  0  0  0  0  0  0  0  0  0  0  0
  110.4941  -73.7250  -82.7581 C   0  0  0  0  0  0  0  0  0  0  0  0
  109.8584  -74.7114  -86.9413 C   0  0  0  0  0  0  0  0  0  0  0  0
  108.8162  -75.1709  -87.7798 C   0  0  0  0  0  0  0  0  0  0  0  0
  108.1249  -74.4140  -88.7275 C   0  0  0  0  0  0  0  0  0  0  0  0
  108.4640  -73.0111  -88.9141 C   0  0  0  0  0  0  0  0  0  0  0  0
  109.5171  -72.5858  -88.0690 C   0  0  0  0  0  0  0  0  0  0  0  0
  110.2393  -73.3093  -87.1099 C   0  0  0  0  0  0  0  0  0  0  0  0
  111.3622  -74.2034  -80.6074 N   0  3  0  0  0  0  0  0  0  0  0  0
  112.0882  -75.0283  -79.6484 C   0  0  0  0  0  0  0  0  0  0  0  0
  110.8679  -72.9556  -79.9846 C   0  0  0  0  0  0  0  0  0  0  0  0
  112.7946  -80.5746  -87.3701 N   0  0  0  0  0  0  0  0  0  0  0  0
  112.9988  -81.3056  -88.6406 C   0  0  0  0  0  0  0  0  0  0  0  0
  113.2990  -81.3729  -86.1973 C   0  0  0  0  0  0  0  0  0  0  0  0
  1  2  1  0  0  0  0
  1 14  1  0  0  0  0
  1 21  2  0  0  0  0
  2  3  2  0  0  0  0
  3  4  1  0  0  0  0
  3 12  1  0  0  0  0
  4  5  1  0  0  0  0
  5  6  1  0  0  0  0
  5 10  2  0  0  0  0
  6  7  2  0  0  0  0
  7  8  1  0  0  0  0
  7 24  1  0  0  0  0
  8  9  2  0  0  0  0
  9 10  1  0  0  0  0
 10 11  1  0  0  0  0
 11 12  2  0  0  0  0
 11 15  1  0  0  0  0
 12 13  1  0  0  0  0
 13 14  2  0  0  0  0
 15 16  2  0  0  0  0
 15 20  1  0  0  0  0
 16 17  1  0  0  0  0
 17 18  2  0  0  0  0
 18 19  1  0  0  0  0
 19 20  2  0  0  0  0
 21 22  1  0  0  0  0
 21 23  1  0  0  0  0
 24 25  1  0  0  0  0
 24 26  1  0  0  0  0
M  CHG  1  21   1
M  END
>  <CHROM.1>
-172.22938540,52.33632217,111.08608910,-76.18251782,-85.32904946,-1.86736717
1.04437275,-2.07556530

>  <Name>
1f1t Malachite green aptamer (Xray 2.8A)

>  <RI>
0

>  <Rbt.Current_Directory>
/home/itssahil/PROJECTS/Mol_Feturizer/New_Systems/rnas/1f1t

>  <Rbt.Executable>
rbdock ($Id: //depot/dev/client3/rdock/2013.1/src/exe/rbdock.cxx#4 $)

>  <Rbt.Library>
libRbt.so (2013.1, Build901 2013/11/27)

>  <Rbt.Parameter_File>
/export/apps/rDock/src/rDock_2013.1_src/data/scripts/dock_solv.prm

>  <Rbt.Receptor>
prm/pocket_docking_5.prm

>  <SCORE>
-59.2952

>  <SCORE.INTER>
-62.6676

>  <SCORE.INTER.CONST>
1

>  <SCORE.INTER.POLAR>
0

>  <SCORE.INTER.ROT>
2

>  <SCORE.INTER.SOLV>
11.1811

>  <SCORE.INTER.VDW>
-50.4388

>  <SCORE.INTER.norm>
-2.41029

>  <SCORE.INTRA>
3.37241

>  <SCORE.INTRA.DIHEDRAL>
-0.97813

>  <SCORE.INTRA.DIHEDRAL.0>
4.18538

>  <SCORE.INTRA.POLAR>
0

>  <SCORE.INTRA.POLAR.0>
0

>  <SCORE.INTRA.REPUL>
0

>  <SCORE.INTRA.REPUL.0>
0

>  <SCORE.INTRA.SOLV>
0.0173646

>  <SCORE.INTRA.SOLV.lig_0>
-5.16926

>  <SCORE.INTRA.VDW>
3.85279

>  <SCORE.INTRA.VDW.0>
1.11912

>  <SCORE.INTRA.norm>
0.129708

>  <SCORE.RESTR>
0

>  <SCORE.RESTR.CAVITY>
0

>  <SCORE.RESTR.norm>
0

>  <SCORE.SYSTEM>
0

>  <SCORE.SYSTEM.CONST>
0

>  <SCORE.SYSTEM.DIHEDRAL>
0

>  <SCORE.SYSTEM.SOLV>
0

>  <SCORE.SYSTEM.norm>
0

>  <SCORE.heavy>
26

>  <SCORE.norm>
-2.28058

>  <RMSD>
0.684

$$$$
1f1t Malachite green aptamer (Xray 2.8A)
 OpenBabel11021811393D
libRbt.so/2013.1/901 2013/11/27
 26 29  0  0  0  0  0  0  0  0999 V2000
  111.2355  -74.6839  -81.9140 C   0  0  0  0  0  0  0  0  0  0  0  0
  111.7593  -75.9445  -82.4190 C   0  0  0  0  0  0  0  0  0  0  0  0
  111.4984  -76.1413  -83.7764 C   0  0  0  0  0  0  0  0  0  0  0  0
  112.0560  -77.4426  -84.2403 O   0  0  0  0  0  0  0  0  0  0  0  0
  111.8222  -77.6091  -85.4835 C   0  0  0  0  0  0  0  0  0  0  0  0
  112.3940  -78.9083  -85.8368 C   0  0  0  0  0  0  0  0  0  0  0  0
  112.2304  -79.2640  -87.2226 C   0  0  0  0  0  0  0  0  0  0  0  0
  111.5829  -78.4187  -88.1573 C   0  0  0  0  0  0  0  0  0  0  0  0
  111.0281  -77.1442  -87.7404 C   0  0  0  0  0  0  0  0  0  0  0  0
  111.1677  -76.7738  -86.3535 C   0  0  0  0  0  0  0  0  0  0  0  0
  110.5492  -75.4412  -86.0017 C   0  0  0  0  0  0  0  0  0  0  0  0
  110.8201  -75.2793  -84.6311 C   0  0  0  0  0  0  0  0  0  0  0  0
  110.2945  -74.0188  -84.1022 C   0  0  0  0  0  0  0  0  0  0  0  0
  110.5505  -73.7908  -82.7148 C   0  0  0  0  0  0  0  0  0  0  0  0
  109.8926  -74.6475  -86.9230 C   0  0  0  0  0  0  0  0  0  0  0  0
  110.2286  -73.3113  -87.2427 C   0  0  0  0  0  0  0  0  0  0  0  0
  109.5880  -72.5013  -88.1821 C   0  0  0  0  0  0  0  0  0  0  0  0
  108.4611  -73.0284  -88.9371 C   0  0  0  0  0  0  0  0  0  0  0  0
  108.1434  -74.3625  -88.5860 C   0  0  0  0  0  0  0  0  0  0  0  0
  108.7542  -75.2086  -87.6501 C   0  0  0  0  0  0  0  0  0  0  0  0
  111.4192  -74.3412  -80.5817 N   0  3  0  0  0  0  0  0  0  0  0  0
  112.1390  -75.2016  -79.6494 C   0  0  0  0  0  0  0  0  0  0  0  0
  110.9402  -73.1070  -79.9211 C   0  0  0  0  0  0  0  0  0  0  0  0
  112.7640  -80.5268  -87.5320 N   0  0  0  0  0  0  0  0  0  0  0  0
  112.9465  -81.2270  -88.8231 C   0  0  0  0  0  0  0  0  0  0  0  0
  113.2752  -81.3589  -86.3860 C   0  0  0  0  0  0  0  0  0  0  0  0
  1  2  1  0  0  0  0
  1 14  1  0  0  0  0
  1 21  2  0  0  0  0
  2  3  2  0  0  0  0
  3  4  1  0  0  0  0
  3 12  1  0  0  0  0
  4  5  1  0  0  0  0
  5  6  1  0  0  0  0
  5 10  2  0  0  0  0
  6  7  2  0  0  0  0
  7  8  1  0  0  0  0
  7 24  1  0  0  0  0
  8  9  2  0  0  0  0
  9 10  1  0  0  0  0
 10 11  1  0  0  0  0
 11 12  2  0  0  0  0
 11 15  1  0  0  0  0
 12 13  1  0  0  0  0
 13 14  2  0  0  0  0
 15 16  2  0  0  0  0
 15 20  1  0  0  0  0
 16 17  1  0  0  0  0
 17 18  2  0  0  0  0
 18 19  1  0  0  0  0
 19 20  2  0  0  0  0
 21 22  1  0  0  0  0
 21 23  1  0  0  0  0
 24 25  1  0  0  0  0
 24 26  1  0  0  0  0
M  CHG  1  21   1
M  END
>  <CHROM.1>
-172.81130485,-122.49825015,111.10140165,-76.19543909,-85.36783050,-1.83217098
1.04737940,-2.06140179

>  <Name>
1f1t Malachite green aptamer (Xray 2.8A)

>  <RI>
0

>  <Rbt.Current_Directory>
/home/itssahil/PROJECTS/Mol_Feturizer/New_Systems/rnas/1f1t

>  <Rbt.Executable>
rbdock ($Id: //depot/dev/client3/rdock/2013.1/src/exe/rbdock.cxx#4 $)

>  <Rbt.Library>
libRbt.so (2013.1, Build901 2013/11/27)

>  <Rbt.Parameter_File>
/export/apps/rDock/src/rDock_2013.1_src/data/scripts/dock_solv.prm

>  <Rbt.Receptor>
prm/pocket_docking_7.prm

>  <SCORE>
-59.9227

>  <SCORE.INTER>
-63.3229

>  <SCORE.INTER.CONST>
1

>  <SCORE.INTER.POLAR>
0

>  <SCORE.INTER.ROT>
2

>  <SCORE.INTER.SOLV>
11.0998

>  <SCORE.INTER.VDW>
-50.8485

>  <SCORE.INTER.norm>
-2.43549

>  <SCORE.INTRA>
3.40021

>  <SCORE.INTRA.DIHEDRAL>
-0.602872

>  <SCORE.INTRA.DIHEDRAL.0>
4.18538

>  <SCORE.INTRA.POLAR>
0

>  <SCORE.INTRA.POLAR.0>
0

>  <SCORE.INTRA.REPUL>
0

>  <SCORE.INTRA.REPUL.0>
0

>  <SCORE.INTRA.SOLV>
0.0115397

>  <SCORE.INTRA.SOLV.lig_0>
-5.16926

>  <SCORE.INTRA.VDW>
3.69587

>  <SCORE.INTRA.VDW.0>
1.11912

>  <SCORE.INTRA.norm>
0.130777

>  <SCORE.RESTR>
0

>  <SCORE.RESTR.CAVITY>
0

>  <SCORE.RESTR.norm>
0

>  <SCORE.SYSTEM>
0

>  <SCORE.SYSTEM.CONST>
0

>  <SCORE.SYSTEM.DIHEDRAL>
0

>  <SCORE.SYSTEM.SOLV>
0

>  <SCORE.SYSTEM.norm>
0

>  <SCORE.heavy>
26

>  <SCORE.norm>
-2.30472

>  <RMSD>
0.684

$$$$
1f1t Malachite green aptamer (Xray 2.8A)
 OpenBabel11021811393D
libRbt.so/2013.1/901 2013/11/27
 26 29  0  0  0  0  0  0  0  0999 V2000
  111.1575  -74.5846  -81.9218 C   0  0  0  0  0  0  0  0  0  0  0  0
  111.6880  -75.8584  -82.3848 C   0  0  0  0  0  0  0  0  0  0  0  0
  111.4352  -76.0979  -83.7368 C   0  0  0  0  0  0  0  0  0  0  0  0
  111.9995  -77.4111  -84.1573 O   0  0  0  0  0  0  0  0  0  0  0  0
  111.7731  -77.6166  -85.3960 C   0  0  0  0  0  0  0  0  0  0  0  0
  112.3510  -78.9242  -85.7060 C   0  0  0  0  0  0  0  0  0  0  0  0
  112.1960  -79.3231  -87.0809 C   0  0  0  0  0  0  0  0  0  0  0  0
  111.5510  -78.5091  -88.0448 C   0  0  0  0  0  0  0  0  0  0  0  0
  110.9899  -77.2243  -87.6705 C   0  0  0  0  0  0  0  0  0  0  0  0
  111.1206  -76.8108  -86.2949 C   0  0  0  0  0  0  0  0  0  0  0  0
  110.4959  -75.4701  -85.9878 C   0  0  0  0  0  0  0  0  0  0  0  0
  110.7589  -75.2651  -84.6214 C   0  0  0  0  0  0  0  0  0  0  0  0
  110.2263  -73.9906  -84.1345 C   0  0  0  0  0  0  0  0  0  0  0  0
  110.4739  -73.7190  -82.7534 C   0  0  0  0  0  0  0  0  0  0  0  0
  109.8418  -74.7074  -86.9366 C   0  0  0  0  0  0  0  0  0  0  0  0
  108.7988  -75.1606  -87.7776 C   0  0  0  0  0  0  0  0  0  0  0  0
  108.1157  -74.4001  -88.7283 C   0  0  0  0  0  0  0  0  0  0  0  0
  108.4653  -73.0000  -88.9158 C   0  0  0  0  0  0  0  0  0  0  0  0
  109.5188  -72.5810  -88.0682 C   0  0  0  0  0  0  0  0  0  0  0  0
  110.2331  -73.3082  -87.1060 C   0  0  0  0  0  0  0  0  0  0  0  0
  111.3328  -74.2003  -80.5997 N   0  3  0  0  0  0  0  0  0  0  0  0
  112.0502  -75.0291  -79.6375 C   0  0  0  0  0  0  0  0  0  0  0  0
  110.8462  -72.9480  -79.9802 C   0  0  0  0  0  0  0  0  0  0  0  0
  112.7354  -80.5930  -87.3484 N   0  0  0  0  0  0  0  0  0  0  0  0
  113.3225  -81.6188  -86.4577 C   0  0  0  0  0  0  0  0  0  0  0  0
  112.7272  -81.0578  -88.7805 C   0  0  0  0  0  0  0  0  0  0  0  0
  1  2  1  0  0  0  0
  1 14  1  0  0  0  0
  1 21  2  0  0  0  0
  2  3  2  0  0  0  0
  3  4  1  0  0  0  0
  3 12  1  0  0  0  0
  4  5  1  0  0  0  0
  5  6  1  0  0  0  0
  5 10  2  0  0  0  0
  6  7  2  0  0  0  0
  7  8  1  0  0  0  0
  7 24  1  0  0  0  0
  8  9  2  0  0  0  0
  9 10  1  0  0  0  0
 10 11  1  0  0  0  0
 11 12  2  0  0  0  0
 11 15  1  0  0  0  0
 12 13  1  0  0  0  0
 13 14  2  0  0  0  0
 15 16  2  0  0  0  0
 15 20  1  0  0  0  0
 16 17  1  0  0  0  0
 17 18  2  0  0  0  0
 18 19  1  0  0  0  0
 19 20  2  0  0  0  0
 21 22  1  0  0  0  0
 21 23  1  0  0  0  0
 24 25  1  0  0  0  0
 24 26  1  0  0  0  0
M  CHG  1  21   1
M  END
>  <CHROM.1>
5.78124463,52.30592032,111.04912246,-76.18306555,-85.33846871,-1.85145176
1.05166359,-2.07970108

>  <Name>
1f1t Malachite green aptamer (Xray 2.8A)

>  <RI>
0

>  <Rbt.Current_Directory>
/home/itssahil/PROJECTS/Mol_Feturizer/New_Systems/rnas/1f1t

>  <Rbt.Executable>
rbdock ($Id: //depot/dev/client3/rdock/2013.1/src/exe/rbdock.cxx#4 $)

>  <Rbt.Library>
libRbt.so (2013.1, Build901 2013/11/27)

>  <Rbt.Parameter_File>
/export/apps/rDock/src/rDock_2013.1_src/data/scripts/dock_solv.prm

>  <Rbt.Receptor>
prm/pocket_docking_8.prm

>  <SCORE>
-62.8631

>  <SCORE.INTER>
-62.9269

>  <SCORE.INTER.CONST>
1

>  <SCORE.INTER.POLAR>
0

>  <SCORE.INTER.ROT>
2

>  <SCORE.INTER.SOLV>
11.1544

>  <SCORE.INTER.VDW>
-50.6028

>  <SCORE.INTER.norm>
-2.42027

>  <SCORE.INTRA>
0.0638419

>  <SCORE.INTRA.DIHEDRAL>
-1.08257

>  <SCORE.INTRA.DIHEDRAL.0>
4.18538

>  <SCORE.INTRA.POLAR>
0

>  <SCORE.INTRA.POLAR.0>
0

>  <SCORE.INTRA.REPUL>
0

>  <SCORE.INTRA.REPUL.0>
0

>  <SCORE.INTRA.SOLV>
0.0193427

>  <SCORE.INTRA.SOLV.lig_0>
-5.16926

>  <SCORE.INTRA.VDW>
0.595455

>  <SCORE.INTRA.VDW.0>
1.11912

>  <SCORE.INTRA.norm>
0.00245546

>  <SCORE.RESTR>
0

>  <SCORE.RESTR.CAVITY>
0

>  <SCORE.RESTR.norm>
0

>  <SCORE.SYSTEM>
0

>  <SCORE.SYSTEM.CONST>
0

>  <SCORE.SYSTEM.DIHEDRAL>
0

>  <SCORE.SYSTEM.SOLV>
0

>  <SCORE.SYSTEM.norm>
0

>  <SCORE.heavy>
26

>  <SCORE.norm>
-2.41781

>  <RMSD>
0.684

$$$$
1f1t Malachite green aptamer (Xray 2.8A)
 OpenBabel11021811393D
libRbt.so/2013.1/901 2013/11/27
 26 29  0  0  0  0  0  0  0  0999 V2000
  111.1876  -74.5898  -81.9294 C   0  0  0  0  0  0  0  0  0  0  0  0
  111.7243  -75.8592  -82.3975 C   0  0  0  0  0  0  0  0  0  0  0  0
  111.4683  -76.0967  -83.7493 C   0  0  0  0  0  0  0  0  0  0  0  0
  112.0391  -77.4053  -84.1752 O   0  0  0  0  0  0  0  0  0  0  0  0
  111.8096  -77.6090  -85.4136 C   0  0  0  0  0  0  0  0  0  0  0  0
  112.3943  -78.9122  -85.7290 C   0  0  0  0  0  0  0  0  0  0  0  0
  112.2371  -79.3084  -87.1044 C   0  0  0  0  0  0  0  0  0  0  0  0
  111.5838  -78.4960  -88.0639 C   0  0  0  0  0  0  0  0  0  0  0  0
  111.0162  -77.2155  -87.6843 C   0  0  0  0  0  0  0  0  0  0  0  0
  111.1492  -76.8048  -86.3081 C   0  0  0  0  0  0  0  0  0  0  0  0
  110.5174  -75.4687  -85.9953 C   0  0  0  0  0  0  0  0  0  0  0  0
  110.7839  -75.2656  -84.6293 C   0  0  0  0  0  0  0  0  0  0  0  0
  110.2453  -73.9957  -84.1373 C   0  0  0  0  0  0  0  0  0  0  0  0
  110.4960  -73.7262  -82.7564 C   0  0  0  0  0  0  0  0  0  0  0  0
  109.8555  -74.7075  -86.9400 C   0  0  0  0  0  0  0  0  0  0  0  0
  108.8073  -75.1628  -87.7733 C   0  0  0  0  0  0  0  0  0  0  0  0
  108.1163  -74.4039  -88.7196 C   0  0  0  0  0  0  0  0  0  0  0  0
  108.4624  -73.0033  -88.9102 C   0  0  0  0  0  0  0  0  0  0  0  0
  109.5213  -72.5823  -88.0703 C   0  0  0  0  0  0  0  0  0  0  0  0
  110.2434  -73.3079  -87.1128 C   0  0  0  0  0  0  0  0  0  0  0  0
  111.3652  -74.2079  -80.6069 N   0  3  0  0  0  0  0  0  0  0  0  0
  112.0909  -75.0348  -79.6493 C   0  0  0  0  0  0  0  0  0  0  0  0
  110.8731  -72.9601  -79.9824 C   0  0  0  0  0  0  0  0  0  0  0  0
  112.7832  -80.5744  -87.3771 N   0  0  0  0  0  0  0  0  0  0  0  0
  113.3504  -81.6123  -86.4875 C   0  0  0  0  0  0  0  0  0  0  0  0
  112.8081  -81.0193  -88.8153 C   0  0  0  0  0  0  0  0  0  0  0  0
  1  2  1  0  0  0  0
  1 14  1  0  0  0  0
  1 21  2  0  0  0  0
  2  3  2  0  0  0  0
  3  4  1  0  0  0  0
  3 12  1  0  0  0  0
  4  5  1  0  0  0  0
  5  6  1  0  0  0  0
  5 10  2  0  0  0  0
  6  7  2  0  0  0  0
  7  8  1  0  0  0  0
  7 24  1  0  0  0  0
  8  9  2  0  0  0  0
  9 10  1  0  0  0  0
 10 11  1  0  0  0  0
 11 12  2  0  0  0  0
 11 15  1  0  0  0  0
 12 13  1  0  0  0  0
 13 14  2  0  0  0  0
 15 16  2  0  0  0  0
 15 20  1  0  0  0  0
 16 17  1  0  0  0  0
 17 18  2  0  0  0  0
 18 19  1  0  0  0  0
 19 20  2  0  0  0  0
 21 22  1  0  0  0  0
 21 23  1  0  0  0  0
 24 25  1  0  0  0  0
 24 26  1  0  0  0  0
M  CHG  1  21   1
M  END
>  <CHROM.1>
7.45369394,52.68310352,111.07753272,-76.17988390,-85.34992719,-1.85226972
1.04502083,-2.07621476

>  <Name>
1f1t Malachite green aptamer (Xray 2.8A)

>  <RI>
0

>  <Rbt.Current_Directory>
/home/itssahil/PROJECTS/Mol_Feturizer/New_Systems/rnas/1f1t

>  <Rbt.Executable>
rbdock ($Id: //depot/dev/client3/rdock/2013.1/src/exe/rbdock.cxx#4 $)

>  <Rbt.Library>
libRbt.so (2013.1, Build901 2013/11/27)

>  <Rbt.Parameter_File>
/export/apps/rDock/src/rDock_2013.1_src/data/scripts/dock_solv.prm

>  <Rbt.Receptor>
prm/pocket_docking_3.prm

>  <SCORE>
-62.8349

>  <SCORE.INTER>
-62.9237

>  <SCORE.INTER.CONST>
1

>  <SCORE.INTER.POLAR>
0

>  <SCORE.INTER.ROT>
2

>  <SCORE.INTER.SOLV>
11.1621

>  <SCORE.INTER.VDW>
-50.6031

>  <SCORE.INTER.norm>
-2.42014

>  <SCORE.INTRA>
0.0887386

>  <SCORE.INTRA.DIHEDRAL>
-0.968236

>  <SCORE.INTRA.DIHEDRAL.0>
4.18538

>  <SCORE.INTRA.POLAR>
0

>  <SCORE.INTRA.POLAR.0>
0

>  <SCORE.INTRA.REPUL>
0

>  <SCORE.INTRA.REPUL.0>
0

>  <SCORE.INTRA.SOLV>
0.0189064

>  <SCORE.INTRA.SOLV.lig_0>
-5.16926

>  <SCORE.INTRA.VDW>
0.563403

>  <SCORE.INTRA.VDW.0>
1.11912

>  <SCORE.INTRA.norm>
0.00341302

>  <SCORE.RESTR>
0

>  <SCORE.RESTR.CAVITY>
0

>  <SCORE.RESTR.norm>
0

>  <SCORE.SYSTEM>
0

>  <SCORE.SYSTEM.CONST>
0

>  <SCORE.SYSTEM.DIHEDRAL>
0

>  <SCORE.SYSTEM.SOLV>
0

>  <SCORE.SYSTEM.norm>
0

>  <SCORE.heavy>
26

>  <SCORE.norm>
-2.41673

>  <RMSD>
0.685

$$$$
1f1t Malachite green aptamer (Xray 2.8A)
 OpenBabel11021811393D
libRbt.so/2013.1/901 2013/11/27
 26 29  0  0  0  0  0  0  0  0999 V2000
  111.2432  -74.6880  -81.9156 C   0  0  0  0  0  0  0  0  0  0  0  0
  111.7648  -75.9488  -82.4223 C   0  0  0  0  0  0  0  0  0  0  0  0
  111.5012  -76.1445  -83.7794 C   0  0  0  0  0  0  0  0  0  0  0  0
  112.0567  -77.4461  -84.2451 O   0  0  0  0  0  0  0  0  0  0  0  0
  111.8204  -77.6116  -85.4880 C   0  0  0  0  0  0  0  0  0  0  0  0
  112.3904  -78.9111  -85.8432 C   0  0  0  0  0  0  0  0  0  0  0  0
  112.2238  -79.2658  -87.2288 C   0  0  0  0  0  0  0  0  0  0  0  0
  111.5752  -78.4193  -88.1617 C   0  0  0  0  0  0  0  0  0  0  0  0
  111.0224  -77.1446  -87.7431 C   0  0  0  0  0  0  0  0  0  0  0  0
  111.1650  -76.7752  -86.3562 C   0  0  0  0  0  0  0  0  0  0  0  0
  110.5483  -75.4423  -86.0024 C   0  0  0  0  0  0  0  0  0  0  0  0
  110.8220  -75.2815  -84.6322 C   0  0  0  0  0  0  0  0  0  0  0  0
  110.2985  -74.0208  -84.1015 C   0  0  0  0  0  0  0  0  0  0  0  0
  110.5573  -73.7939  -82.7145 C   0  0  0  0  0  0  0  0  0  0  0  0
  109.8906  -74.6474  -86.9220 C   0  0  0  0  0  0  0  0  0  0  0  0
  110.2120  -73.3035  -87.2238 C   0  0  0  0  0  0  0  0  0  0  0  0
  109.5703  -72.4919  -88.1611 C   0  0  0  0  0  0  0  0  0  0  0  0
  108.4584  -73.0257  -88.9334 C   0  0  0  0  0  0  0  0  0  0  0  0
  108.1551  -74.3676  -88.6000 C   0  0  0  0  0  0  0  0  0  0  0  0
  108.7674  -75.2157  -87.6668 C   0  0  0  0  0  0  0  0  0  0  0  0
  111.4297  -74.3463  -80.5834 N   0  3  0  0  0  0  0  0  0  0  0  0
  112.1505  -75.2079  -79.6530 C   0  0  0  0  0  0  0  0  0  0  0  0
  110.9530  -73.1121  -79.9212 C   0  0  0  0  0  0  0  0  0  0  0  0
  112.7557  -80.5289  -87.5401 N   0  0  0  0  0  0  0  0  0  0  0  0
  112.9117  -81.2390  -88.8291 C   0  0  0  0  0  0  0  0  0  0  0  0
  113.2966  -81.3493  -86.3993 C   0  0  0  0  0  0  0  0  0  0  0  0
  1  2  1  0  0  0  0
  1 14  1  0  0  0  0
  1 21  2  0  0  0  0
  2  3  2  0  0  0  0
  3  4  1  0  0  0  0
  3 12  1  0  0  0  0
  4  5  1  0  0  0  0
  5  6  1  0  0  0  0
  5 10  2  0  0  0  0
  6  7  2  0  0  0  0
  7  8  1  0  0  0  0
  7 24  1  0  0  0  0
  8  9  2  0  0  0  0
  9 10  1  0  0  0  0
 10 11  1  0  0  0  0
 11 12  2  0  0  0  0
 11 15  1  0  0  0  0
 12 13  1  0  0  0  0
 13 14  2  0  0  0  0
 15 16  2  0  0  0  0
 15 20  1  0  0  0  0
 16 17  1  0  0  0  0
 17 18  2  0  0  0  0
 18 19  1  0  0  0  0
 19 20  2  0  0  0  0
 21 22  1  0  0  0  0
 21 23  1  0  0  0  0
 24 25  1  0  0  0  0
 24 26  1  0  0  0  0
M  CHG  1  21   1
M  END
>  <CHROM.1>
-174.14836597,-123.72271565,111.10146744,-76.19726680,-85.37023348,-1.82728462
1.04700368,-2.06509363

>  <Name>
1f1t Malachite green aptamer (Xray 2.8A)

>  <RI>
0

>  <Rbt.Current_Directory>
/home/itssahil/PROJECTS/Mol_Feturizer/New_Systems/rnas/1f1t

>  <Rbt.Executable>
rbdock ($Id: //depot/dev/client3/rdock/2013.1/src/exe/rbdock.cxx#4 $)

>  <Rbt.Library>
libRbt.so (2013.1, Build901 2013/11/27)

>  <Rbt.Parameter_File>
/export/apps/rDock/src/rDock_2013.1_src/data/scripts/dock_solv.prm

>  <Rbt.Receptor>
prm/pocket_docking_4.prm

>  <SCORE>
-59.8931

>  <SCORE.INTER>
-63.3362

>  <SCORE.INTER.CONST>
1

>  <SCORE.INTER.POLAR>
0

>  <SCORE.INTER.ROT>
2

>  <SCORE.INTER.SOLV>
11.1068

>  <SCORE.INTER.VDW>
-50.8598

>  <SCORE.INTER.norm>
-2.43601

>  <SCORE.INTRA>
3.44316

>  <SCORE.INTRA.DIHEDRAL>
-0.763157

>  <SCORE.INTRA.DIHEDRAL.0>
4.18538

>  <SCORE.INTRA.POLAR>
0

>  <SCORE.INTRA.POLAR.0>
0

>  <SCORE.INTRA.REPUL>
0

>  <SCORE.INTRA.REPUL.0>
0

>  <SCORE.INTRA.SOLV>
0.0130605

>  <SCORE.INTRA.SOLV.lig_0>
-5.16926

>  <SCORE.INTRA.VDW>
3.81821

>  <SCORE.INTRA.VDW.0>
1.11912

>  <SCORE.INTRA.norm>
0.132429

>  <SCORE.RESTR>
0

>  <SCORE.RESTR.CAVITY>
0

>  <SCORE.RESTR.norm>
0

>  <SCORE.SYSTEM>
0

>  <SCORE.SYSTEM.CONST>
0

>  <SCORE.SYSTEM.DIHEDRAL>
0

>  <SCORE.SYSTEM.SOLV>
0

>  <SCORE.SYSTEM.norm>
0

>  <SCORE.heavy>
26

>  <SCORE.norm>
-2.30358

>  <RMSD>
0.685

$$$$
1f1t Malachite green aptamer (Xray 2.8A)
 OpenBabel11021811393D
libRbt.so/2013.1/901 2013/11/27
 26 29  0  0  0  0  0  0  0  0999 V2000
  111.1654  -74.5873  -81.9277 C   0  0  0  0  0  0  0  0  0  0  0  0
  111.6961  -75.8607  -82.3916 C   0  0  0  0  0  0  0  0  0  0  0  0
  111.4413  -76.1002  -83.7433 C   0  0  0  0  0  0  0  0  0  0  0  0
  112.0058  -77.4129  -84.1648 O   0  0  0  0  0  0  0  0  0  0  0  0
  111.7776  -77.6185  -85.4032 C   0  0  0  0  0  0  0  0  0  0  0  0
  112.3558  -78.9257  -85.7142 C   0  0  0  0  0  0  0  0  0  0  0  0
  112.1990  -79.3245  -87.0889 C   0  0  0  0  0  0  0  0  0  0  0  0
  111.5519  -78.5109  -88.0517 C   0  0  0  0  0  0  0  0  0  0  0  0
  110.9905  -77.2265  -87.6764 C   0  0  0  0  0  0  0  0  0  0  0  0
  111.1232  -76.8130  -86.3009 C   0  0  0  0  0  0  0  0  0  0  0  0
  110.4980  -75.4728  -85.9927 C   0  0  0  0  0  0  0  0  0  0  0  0
  110.7630  -75.2677  -84.6267 C   0  0  0  0  0  0  0  0  0  0  0  0
  110.2304  -73.9936  -84.1388 C   0  0  0  0  0  0  0  0  0  0  0  0
  110.4800  -73.7221  -82.7581 C   0  0  0  0  0  0  0  0  0  0  0  0
  109.8419  -74.7104  -86.9405 C   0  0  0  0  0  0  0  0  0  0  0  0
  108.7935  -75.1624  -87.7753 C   0  0  0  0  0  0  0  0  0  0  0  0
  108.1084  -74.4022  -88.7248 C   0  0  0  0  0  0  0  0  0  0  0  0
  108.4616  -73.0036  -88.9175 C   0  0  0  0  0  0  0  0  0  0  0  0
  109.5205  -72.5859  -88.0760 C   0  0  0  0  0  0  0  0  0  0  0  0
  110.2370  -73.3130  -87.1153 C   0  0  0  0  0  0  0  0  0  0  0  0
  111.3425  -74.2030  -80.6058 N   0  3  0  0  0  0  0  0  0  0  0  0
  112.0620  -75.0315  -79.6448 C   0  0  0  0  0  0  0  0  0  0  0  0
  110.8561  -72.9511  -79.9854 C   0  0  0  0  0  0  0  0  0  0  0  0
  112.7388  -80.5940  -87.3574 N   0  0  0  0  0  0  0  0  0  0  0  0
  113.3390  -81.6145  -86.4693 C   0  0  0  0  0  0  0  0  0  0  0  0
  112.7153  -81.0648  -88.7874 C   0  0  0  0  0  0  0  0  0  0  0  0
  1  2  1  0  0  0  0
  1 14  1  0  0  0  0
  1 21  2  0  0  0  0
  2  3  2  0  0  0  0
  3  4  1  0  0  0  0
  3 12  1  0  0  0  0
  4  5  1  0  0  0  0
  5  6  1  0  0  0  0
  5 10  2  0  0  0  0
  6  7  2  0  0  0  0
  7  8  1  0  0  0  0
  7 24  1  0  0  0  0
  8  9  2  0  0  0  0
  9 10  1  0  0  0  0
 10 11  1  0  0  0  0
 11 12  2  0  0  0  0
 11 15  1  0  0  0  0
 12 13  1  0  0  0  0
 13 14  2  0  0  0  0
 15 16  2  0  0  0  0
 15 20  1  0  0  0  0
 16 17  1  0  0  0  0
 17 18  2  0  0  0  0
 18 19  1  0  0  0  0
 19 20  2  0  0  0  0
 21 22  1  0  0  0  0
 21 23  1  0  0  0  0
 24 25  1  0  0  0  0
 24 26  1  0  0  0  0
M  CHG  1  21   1
M  END
>  <CHROM.1>
5.14585118,52.63083310,111.05269613,-76.18549705,-85.34435149,-1.84902501
1.05023053,-2.08169757

>  <Name>
1f1t Malachite green aptamer (Xray 2.8A)

>  <RI>
0

>  <Rbt.Current_Directory>
/home/itssahil/PROJECTS/Mol_Feturizer/New_Systems/rnas/1f1t

>  <Rbt.Executable>
rbdock ($Id: //depot/dev/client3/rdock/2013.1/src/exe/rbdock.cxx#4 $)

>  <Rbt.Library>
libRbt.so (2013.1, Build901 2013/11/27)

>  <Rbt.Parameter_File>
/export/apps/rDock/src/rDock_2013.1_src/data/scripts/dock_solv.prm

>  <Rbt.Receptor>
prm/pocket_docking_5.prm

>  <SCORE>
-62.8547

>  <SCORE.INTER>
-62.9245

>  <SCORE.INTER.CONST>
1

>  <SCORE.INTER.POLAR>
0

>  <SCORE.INTER.ROT>
2

>  <SCORE.INTER.SOLV>
11.168

>  <SCORE.INTER.VDW>
-50.6057

>  <SCORE.INTER.norm>
-2.42017

>  <SCORE.INTRA>
0.0698561

>  <SCORE.INTRA.DIHEDRAL>
-1.0824

>  <SCORE.INTRA.DIHEDRAL.0>
4.18538

>  <SCORE.INTRA.POLAR>
0

>  <SCORE.INTRA.POLAR.0>
0

>  <SCORE.INTRA.REPUL>
0

>  <SCORE.INTRA.REPUL.0>
0

>  <SCORE.INTRA.SOLV>
0.0189774

>  <SCORE.INTRA.SOLV.lig_0>
-5.16926

>  <SCORE.INTRA.VDW>
0.601569

>  <SCORE.INTRA.VDW.0>
1.11912

>  <SCORE.INTRA.norm>
0.00268677

>  <SCORE.RESTR>
0

>  <SCORE.RESTR.CAVITY>
0

>  <SCORE.RESTR.norm>
0

>  <SCORE.SYSTEM>
0

>  <SCORE.SYSTEM.CONST>
0

>  <SCORE.SYSTEM.DIHEDRAL>
0

>  <SCORE.SYSTEM.SOLV>
0

>  <SCORE.SYSTEM.norm>
0

>  <SCORE.heavy>
26

>  <SCORE.norm>
-2.41749

>  <RMSD>
0.685

$$$$
1f1t Malachite green aptamer (Xray 2.8A)
 OpenBabel11021811393D
libRbt.so/2013.1/901 2013/11/27
 26 29  0  0  0  0  0  0  0  0999 V2000
  111.1898  -74.6002  -81.9491 C   0  0  0  0  0  0  0  0  0  0  0  0
  111.7210  -75.8737  -82.4121 C   0  0  0  0  0  0  0  0  0  0  0  0
  111.4636  -76.1158  -83.7628 C   0  0  0  0  0  0  0  0  0  0  0  0
  112.0288  -77.4285  -84.1834 O   0  0  0  0  0  0  0  0  0  0  0  0
  111.7981  -77.6365  -85.4209 C   0  0  0  0  0  0  0  0  0  0  0  0
  112.3773  -78.9434  -85.7310 C   0  0  0  0  0  0  0  0  0  0  0  0
  112.2180  -79.3447  -87.1047 C   0  0  0  0  0  0  0  0  0  0  0  0
  111.5676  -78.5336  -88.0673 C   0  0  0  0  0  0  0  0  0  0  0  0
  111.0055  -77.2492  -87.6929 C   0  0  0  0  0  0  0  0  0  0  0  0
  111.1407  -76.8333  -86.3185 C   0  0  0  0  0  0  0  0  0  0  0  0
  110.5145  -75.4934  -86.0111 C   0  0  0  0  0  0  0  0  0  0  0  0
  110.7822  -75.2857  -84.6461 C   0  0  0  0  0  0  0  0  0  0  0  0
  110.2490  -74.0114  -84.1592 C   0  0  0  0  0  0  0  0  0  0  0  0
  110.5014  -73.7372  -82.7795 C   0  0  0  0  0  0  0  0  0  0  0  0
  109.8553  -74.7334  -86.9587 C   0  0  0  0  0  0  0  0  0  0  0  0
  108.8130  -75.1912  -87.7980 C   0  0  0  0  0  0  0  0  0  0  0  0
  108.1249  -74.4336  -88.7475 C   0  0  0  0  0  0  0  0  0  0  0  0
  108.4677  -73.0318  -88.9351 C   0  0  0  0  0  0  0  0  0  0  0  0
  109.5208  -72.6082  -88.0891 C   0  0  0  0  0  0  0  0  0  0  0  0
  110.2399  -73.3324  -87.1284 C   0  0  0  0  0  0  0  0  0  0  0  0
  111.3693  -74.2135  -80.6283 N   0  3  0  0  0  0  0  0  0  0  0  0
  112.0920  -75.0394  -79.6675 C   0  0  0  0  0  0  0  0  0  0  0  0
  110.8826  -72.9611  -80.0089 C   0  0  0  0  0  0  0  0  0  0  0  0
  112.7588  -80.6140  -87.3722 N   0  0  0  0  0  0  0  0  0  0  0  0
  113.3399  -81.6425  -86.4806 C   0  0  0  0  0  0  0  0  0  0  0  0
  112.7597  -81.0748  -88.8056 C   0  0  0  0  0  0  0  0  0  0  0  0
  1  2  1  0  0  0  0
  1 14  1  0  0  0  0
  1 21  2  0  0  0  0
  2  3  2  0  0  0  0
  3  4  1  0  0  0  0
  3 12  1  0  0  0  0
  4  5  1  0  0  0  0
  5  6  1  0  0  0  0
  5 10  2  0  0  0  0
  6  7  2  0  0  0  0
  7  8  1  0  0  0  0
  7 24  1  0  0  0  0
  8  9  2  0  0  0  0
  9 10  1  0  0  0  0
 10 11  1  0  0  0  0
 11 12  2  0  0  0  0
 11 15  1  0  0  0  0
 12 13  1  0  0  0  0
 13 14  2  0  0  0  0
 15 16  2  0  0  0  0
 15 20  1  0  0  0  0
 16 17  1  0  0  0  0
 17 18  2  0  0  0  0
 18 19  1  0  0  0  0
 19 20  2  0  0  0  0
 21 22  1  0  0  0  0
 21 23  1  0  0  0  0
 24 25  1  0  0  0  0
 24 26  1  0  0  0  0
M  CHG  1  21   1
M  END
>  <CHROM.1>
6.42877589,52.08541272,111.07162665,-76.20417067,-85.36281769,-1.84706062
1.04822041,-2.08506823

>  <Name>
1f1t Malachite green aptamer (Xray 2.8A)

>  <RI>
0

>  <Rbt.Current_Directory>
/home/itssahil/PROJECTS/Mol_Feturizer/New_Systems/rnas/1f1t

>  <Rbt.Executable>
rbdock ($Id: //depot/dev/client3/rdock/2013.1/src/exe/rbdock.cxx#4 $)

>  <Rbt.Library>
libRbt.so (2013.1, Build901 2013/11/27)

>  <Rbt.Parameter_File>
/export/apps/rDock/src/rDock_2013.1_src/data/scripts/dock_solv.prm

>  <Rbt.Receptor>
prm/pocket_docking_6.prm

>  <SCORE>
-62.8519

>  <SCORE.INTER>
-62.9262

>  <SCORE.INTER.CONST>
1

>  <SCORE.INTER.POLAR>
0

>  <SCORE.INTER.ROT>
2

>  <SCORE.INTER.SOLV>
11.1481

>  <SCORE.INTER.VDW>
-50.6002

>  <SCORE.INTER.norm>
-2.42024

>  <SCORE.INTRA>
0.0743215

>  <SCORE.INTRA.DIHEDRAL>
-1.07062

>  <SCORE.INTRA.DIHEDRAL.0>
4.18538

>  <SCORE.INTRA.POLAR>
0

>  <SCORE.INTRA.POLAR.0>
0

>  <SCORE.INTRA.REPUL>
0

>  <SCORE.INTRA.REPUL.0>
0

>  <SCORE.INTRA.SOLV>
0.019585

>  <SCORE.INTRA.SOLV.lig_0>
-5.16926

>  <SCORE.INTRA.VDW>
0.599841

>  <SCORE.INTRA.VDW.0>
1.11912

>  <SCORE.INTRA.norm>
0.00285852

>  <SCORE.RESTR>
0

>  <SCORE.RESTR.CAVITY>
0

>  <SCORE.RESTR.norm>
0

>  <SCORE.SYSTEM>
0

>  <SCORE.SYSTEM.CONST>
0

>  <SCORE.SYSTEM.DIHEDRAL>
0

>  <SCORE.SYSTEM.SOLV>
0

>  <SCORE.SYSTEM.norm>
0

>  <SCORE.heavy>
26

>  <SCORE.norm>
-2.41738

>  <RMSD>
0.685

$$$$
1f1t Malachite green aptamer (Xray 2.8A)
 OpenBabel11021811393D
libRbt.so/2013.1/901 2013/11/27
 26 29  0  0  0  0  0  0  0  0999 V2000
  111.1870  -74.5989  -81.9446 C   0  0  0  0  0  0  0  0  0  0  0  0
  111.7262  -75.8676  -82.4117 C   0  0  0  0  0  0  0  0  0  0  0  0
  111.4702  -76.1069  -83.7632 C   0  0  0  0  0  0  0  0  0  0  0  0
  112.0436  -77.4148  -84.1879 O   0  0  0  0  0  0  0  0  0  0  0  0
  111.8141  -77.6202  -85.4261 C   0  0  0  0  0  0  0  0  0  0  0  0
  112.4015  -78.9225  -85.7403 C   0  0  0  0  0  0  0  0  0  0  0  0
  112.2446  -79.3204  -87.1153 C   0  0  0  0  0  0  0  0  0  0  0  0
  111.5893  -78.5102  -88.0754 C   0  0  0  0  0  0  0  0  0  0  0  0
  111.0192  -77.2306  -87.6969 C   0  0  0  0  0  0  0  0  0  0  0  0
  111.1518  -76.8182  -86.3212 C   0  0  0  0  0  0  0  0  0  0  0  0
  110.5173  -75.4832  -86.0095 C   0  0  0  0  0  0  0  0  0  0  0  0
  110.7838  -75.2782  -84.6438 C   0  0  0  0  0  0  0  0  0  0  0  0
  110.2427  -74.0089  -84.1528 C   0  0  0  0  0  0  0  0  0  0  0  0
  110.4933  -73.7375  -82.7722 C   0  0  0  0  0  0  0  0  0  0  0  0
  109.8534  -74.7243  -86.9546 C   0  0  0  0  0  0  0  0  0  0  0  0
  108.8145  -75.1860  -87.7960 C   0  0  0  0  0  0  0  0  0  0  0  0
  108.1217  -74.4297  -88.7430 C   0  0  0  0  0  0  0  0  0  0  0  0
  108.4553  -73.0250  -88.9256 C   0  0  0  0  0  0  0  0  0  0  0  0
  109.5051  -72.5974  -88.0777 C   0  0  0  0  0  0  0  0  0  0  0  0
  110.2288  -73.3202  -87.1192 C   0  0  0  0  0  0  0  0  0  0  0  0
  111.3642  -74.2153  -80.6225 N   0  3  0  0  0  0  0  0  0  0  0  0
  112.0920  -75.0397  -79.6644 C   0  0  0  0  0  0  0  0  0  0  0  0
  110.8698  -72.9679  -79.9992 C   0  0  0  0  0  0  0  0  0  0  0  0
  112.7933  -80.5855  -87.3869 N   0  0  0  0  0  0  0  0  0  0  0  0
  112.9923  -81.3182  -88.6572 C   0  0  0  0  0  0  0  0  0  0  0  0
  113.3046  -81.3810  -86.2153 C   0  0  0  0  0  0  0  0  0  0  0  0
  1  2  1  0  0  0  0
  1 14  1  0  0  0  0
  1 21  2  0  0  0  0
  2  3  2  0  0  0  0
  3  4  1  0  0  0  0
  3 12  1  0  0  0  0
  4  5  1  0  0  0  0
  5  6  1  0  0  0  0
  5 10  2  0  0  0  0
  6  7  2  0  0  0  0
  7  8  1  0  0  0  0
  7 24  1  0  0  0  0
  8  9  2  0  0  0  0
  9 10  1  0  0  0  0
 10 11  1  0  0  0  0
 11 12  2  0  0  0  0
 11 15  1  0  0  0  0
 12 13  1  0  0  0  0
 13 14  2  0  0  0  0
 15 16  2  0  0  0  0
 15 20  1  0  0  0  0
 16 17  1  0  0  0  0
 17 18  2  0  0  0  0
 18 19  1  0  0  0  0
 19 20  2  0  0  0  0
 21 22  1  0  0  0  0
 21 23  1  0  0  0  0
 24 25  1  0  0  0  0
 24 26  1  0  0  0  0
M  CHG  1  21   1
M  END
>  <CHROM.1>
-172.46946753,52.04535753,111.08405133,-76.19455112,-85.34384192,-1.86593309
1.04311087,-2.07683943

>  <Name>
1f1t Malachite green aptamer (Xray 2.8A)

>  <RI>
0

>  <Rbt.Current_Directory>
/home/itssahil/PROJECTS/Mol_Feturizer/New_Systems/rnas/1f1t

>  <Rbt.Executable>
rbdock ($Id: //depot/dev/client3/rdock/2013.1/src/exe/rbdock.cxx#4 $)

>  <Rbt.Library>
libRbt.so (2013.1, Build901 2013/11/27)

>  <Rbt.Parameter_File>
/export/apps/rDock/src/rDock_2013.1_src/data/scripts/dock_solv.prm

>  <Rbt.Receptor>
prm/pocket_docking_2.prm

>  <SCORE>
-59.2953

>  <SCORE.INTER>
-62.6779

>  <SCORE.INTER.CONST>
1

>  <SCORE.INTER.POLAR>
0

>  <SCORE.INTER.ROT>
2

>  <SCORE.INTER.SOLV>
11.1726

>  <SCORE.INTER.VDW>
-50.4428

>  <SCORE.INTER.norm>
-2.41069

>  <SCORE.INTRA>
3.38263

>  <SCORE.INTRA.DIHEDRAL>
-1.01571

>  <SCORE.INTRA.DIHEDRAL.0>
4.18538

>  <SCORE.INTRA.POLAR>
0

>  <SCORE.INTRA.POLAR.0>
0

>  <SCORE.INTRA.REPUL>
0

>  <SCORE.INTRA.REPUL.0>
0

>  <SCORE.INTRA.SOLV>
0.01771

>  <SCORE.INTRA.SOLV.lig_0>
-5.16926

>  <SCORE.INTRA.VDW>
3.88162

>  <SCORE.INTRA.VDW.0>
1.11912

>  <SCORE.INTRA.norm>
0.130101

>  <SCORE.RESTR>
0

>  <SCORE.RESTR.CAVITY>
0

>  <SCORE.RESTR.norm>
0

>  <SCORE.SYSTEM>
0

>  <SCORE.SYSTEM.CONST>
0

>  <SCORE.SYSTEM.DIHEDRAL>
0

>  <SCORE.SYSTEM.SOLV>
0

>  <SCORE.SYSTEM.norm>
0

>  <SCORE.heavy>
26

>  <SCORE.norm>
-2.28059

>  <RMSD>
0.686

$$$$
1f1t Malachite green aptamer (Xray 2.8A)
 OpenBabel11021811393D
libRbt.so/2013.1/901 2013/11/27
 26 29  0  0  0  0  0  0  0  0999 V2000
  111.2551  -74.5975  -81.8881 C   0  0  0  0  0  0  0  0  0  0  0  0
  111.7610  -75.8738  -82.3712 C   0  0  0  0  0  0  0  0  0  0  0  0
  111.4995  -76.0892  -83.7257 C   0  0  0  0  0  0  0  0  0  0  0  0
  112.0386  -77.4061  -84.1671 O   0  0  0  0  0  0  0  0  0  0  0  0
  111.8044  -77.5896  -85.4078 C   0  0  0  0  0  0  0  0  0  0  0  0
  112.3576  -78.9027  -85.7386 C   0  0  0  0  0  0  0  0  0  0  0  0
  112.1910  -79.2788  -87.1186 C   0  0  0  0  0  0  0  0  0  0  0  0
  111.5575  -78.4396  -88.0683 C   0  0  0  0  0  0  0  0  0  0  0  0
  111.0210  -77.1504  -87.6735 C   0  0  0  0  0  0  0  0  0  0  0  0
  111.1637  -76.7592  -86.2926 C   0  0  0  0  0  0  0  0  0  0  0  0
  110.5643  -75.4121  -85.9640 C   0  0  0  0  0  0  0  0  0  0  0  0
  110.8354  -75.2316  -84.5958 C   0  0  0  0  0  0  0  0  0  0  0  0
  110.3276  -73.9549  -84.0887 C   0  0  0  0  0  0  0  0  0  0  0  0
  110.5846  -73.7078  -82.7048 C   0  0  0  0  0  0  0  0  0  0  0  0
  109.9210  -74.6240  -86.8995 C   0  0  0  0  0  0  0  0  0  0  0  0
  110.2543  -73.2861  -87.2144 C   0  0  0  0  0  0  0  0  0  0  0  0
  109.6273  -72.4817  -88.1677 C   0  0  0  0  0  0  0  0  0  0  0  0
  108.5194  -73.0175  -88.9444 C   0  0  0  0  0  0  0  0  0  0  0  0
  108.2038  -74.3532  -88.5977 C   0  0  0  0  0  0  0  0  0  0  0  0
  108.8013  -75.1939  -87.6485 C   0  0  0  0  0  0  0  0  0  0  0  0
  111.4417  -74.2356  -80.5613 N   0  3  0  0  0  0  0  0  0  0  0  0
  112.1471  -75.0910  -79.6136 C   0  0  0  0  0  0  0  0  0  0  0  0
  110.9798  -72.9837  -79.9221 C   0  0  0  0  0  0  0  0  0  0  0  0
  112.7064  -80.5543  -87.4062 N   0  0  0  0  0  0  0  0  0  0  0  0
  113.3262  -81.5820  -86.5401 C   0  0  0  0  0  0  0  0  0  0  0  0
  112.6268  -81.0240  -88.8345 C   0  0  0  0  0  0  0  0  0  0  0  0
  1  2  1  0  0  0  0
  1 14  1  0  0  0  0
  1 21  2  0  0  0  0
  2  3  2  0  0  0  0
  3  4  1  0  0  0  0
  3 12  1  0  0  0  0
  4  5  1  0  0  0  0
  5  6  1  0  0  0  0
  5 10  2  0  0  0  0
  6  7  2  0  0  0  0
  7  8  1  0  0  0  0
  7 24  1  0  0  0  0
  8  9  2  0  0  0  0
  9 10  1  0  0  0  0
 10 11  1  0  0  0  0
 11 12  2  0  0  0  0
 11 15  1  0  0  0  0
 12 13  1  0  0  0  0
 13 14  2  0  0  0  0
 15 16  2  0  0  0  0
 15 20  1  0  0  0  0
 16 17  1  0  0  0  0
 17 18  2  0  0  0  0
 18 19  1  0  0  0  0
 19 20  2  0  0  0  0
 21 22  1  0  0  0  0
 21 23  1  0  0  0  0
 24 25  1  0  0  0  0
 24 26  1  0  0  0  0
M  CHG  1  21   1
M  END
>  <CHROM.1>
3.01491395,-124.33393209,111.09886613,-76.16170355,-85.33641903,-1.80687683
1.06052740,-2.08957939

>  <Name>
1f1t Malachite green aptamer (Xray 2.8A)

>  <RI>
0

>  <Rbt.Current_Directory>
/home/itssahil/PROJECTS/Mol_Feturizer/New_Systems/rnas/1f1t

>  <Rbt.Executable>
rbdock ($Id: //depot/dev/client3/rdock/2013.1/src/exe/rbdock.cxx#4 $)

>  <Rbt.Library>
libRbt.so (2013.1, Build901 2013/11/27)

>  <Rbt.Parameter_File>
/export/apps/rDock/src/rDock_2013.1_src/data/scripts/dock_solv.prm

>  <Rbt.Receptor>
prm/pocket_docking_4.prm

>  <SCORE>
-63.2349

>  <SCORE.INTER>
-63.3431

>  <SCORE.INTER.CONST>
1

>  <SCORE.INTER.POLAR>
0

>  <SCORE.INTER.ROT>
2

>  <SCORE.INTER.SOLV>
11.2297

>  <SCORE.INTER.VDW>
-50.9053

>  <SCORE.INTER.norm>
-2.43627

>  <SCORE.INTRA>
0.108169

>  <SCORE.INTRA.DIHEDRAL>
-0.905403

>  <SCORE.INTRA.DIHEDRAL.0>
4.18538

>  <SCORE.INTRA.POLAR>
0

>  <SCORE.INTRA.POLAR.0>
0

>  <SCORE.INTRA.REPUL>
0

>  <SCORE.INTRA.REPUL.0>
0

>  <SCORE.INTRA.SOLV>
0.0155381

>  <SCORE.INTRA.SOLV.lig_0>
-5.16926

>  <SCORE.INTRA.VDW>
0.553102

>  <SCORE.INTRA.VDW.0>
1.11912

>  <SCORE.INTRA.norm>
0.00416035

>  <SCORE.RESTR>
0

>  <SCORE.RESTR.CAVITY>
0

>  <SCORE.RESTR.norm>
0

>  <SCORE.SYSTEM>
0

>  <SCORE.SYSTEM.CONST>
0

>  <SCORE.SYSTEM.DIHEDRAL>
0

>  <SCORE.SYSTEM.SOLV>
0

>  <SCORE.SYSTEM.norm>
0

>  <SCORE.heavy>
26

>  <SCORE.norm>
-2.43211

>  <RMSD>
0.687

$$$$
1f1t Malachite green aptamer (Xray 2.8A)
 OpenBabel11021811393D
libRbt.so/2013.1/901 2013/11/27
 26 29  0  0  0  0  0  0  0  0999 V2000
  111.1819  -74.6034  -81.9341 C   0  0  0  0  0  0  0  0  0  0  0  0
  111.7101  -75.8761  -82.4025 C   0  0  0  0  0  0  0  0  0  0  0  0
  111.4529  -76.1114  -83.7545 C   0  0  0  0  0  0  0  0  0  0  0  0
  112.0149  -77.4237  -84.1807 O   0  0  0  0  0  0  0  0  0  0  0  0
  111.7844  -77.6253  -85.4193 C   0  0  0  0  0  0  0  0  0  0  0  0
  112.3604  -78.9324  -85.7350 C   0  0  0  0  0  0  0  0  0  0  0  0
  112.2009  -79.3270  -87.1106 C   0  0  0  0  0  0  0  0  0  0  0  0
  111.5534  -78.5097  -88.0700 C   0  0  0  0  0  0  0  0  0  0  0  0
  110.9944  -77.2256  -87.6901 C   0  0  0  0  0  0  0  0  0  0  0  0
  111.1298  -76.8163  -86.3137 C   0  0  0  0  0  0  0  0  0  0  0  0
  110.5070  -75.4761  -86.0006 C   0  0  0  0  0  0  0  0  0  0  0  0
  110.7743  -75.2754  -84.6344 C   0  0  0  0  0  0  0  0  0  0  0  0
  110.2442  -74.0020  -84.1421 C   0  0  0  0  0  0  0  0  0  0  0  0
  110.4963  -73.7348  -82.7609 C   0  0  0  0  0  0  0  0  0  0  0  0
  109.8505  -74.7101  -86.9451 C   0  0  0  0  0  0  0  0  0  0  0  0
  108.8087  -75.1617  -87.7885 C   0  0  0  0  0  0  0  0  0  0  0  0
  108.1232  -74.3980  -88.7349 C   0  0  0  0  0  0  0  0  0  0  0  0
  108.4686  -72.9958  -88.9146 C   0  0  0  0  0  0  0  0  0  0  0  0
  109.5210  -72.5784  -88.0648 C   0  0  0  0  0  0  0  0  0  0  0  0
  110.2376  -73.3089  -87.1068 C   0  0  0  0  0  0  0  0  0  0  0  0
  111.3616  -74.2232  -80.6114 N   0  3  0  0  0  0  0  0  0  0  0  0
  112.0814  -75.0553  -79.6539 C   0  0  0  0  0  0  0  0  0  0  0  0
  110.8778  -72.9723  -79.9866 C   0  0  0  0  0  0  0  0  0  0  0  0
  112.7385  -80.5965  -87.3836 N   0  0  0  0  0  0  0  0  0  0  0  0
  113.3143  -81.6314  -86.4961 C   0  0  0  0  0  0  0  0  0  0  0  0
  112.7416  -81.0497  -88.8194 C   0  0  0  0  0  0  0  0  0  0  0  0
  1  2  1  0  0  0  0
  1 14  1  0  0  0  0
  1 21  2  0  0  0  0
  2  3  2  0  0  0  0
  3  4  1  0  0  0  0
  3 12  1  0  0  0  0
  4  5  1  0  0  0  0
  5  6  1  0  0  0  0
  5 10  2  0  0  0  0
  6  7  2  0  0  0  0
  7  8  1  0  0  0  0
  7 24  1  0  0  0  0
  8  9  2  0  0  0  0
  9 10  1  0  0  0  0
 10 11  1  0  0  0  0
 11 12  2  0  0  0  0
 11 15  1  0  0  0  0
 12 13  1  0  0  0  0
 13 14  2  0  0  0  0
 15 16  2  0  0  0  0
 15 20  1  0  0  0  0
 16 17  1  0  0  0  0
 17 18  2  0  0  0  0
 18 19  1  0  0  0  0
 19 20  2  0  0  0  0
 21 22  1  0  0  0  0
 21 23  1  0  0  0  0
 24 25  1  0  0  0  0
 24 26  1  0  0  0  0
M  CHG  1  21   1
M  END
>  <CHROM.1>
6.54458652,51.99600807,111.06177053,-76.19137878,-85.35517796,-1.84566599
1.05088536,-2.08171262

>  <Name>
1f1t Malachite green aptamer (Xray 2.8A)

>  <RI>
0

>  <Rbt.Current_Directory>
/home/itssahil/PROJECTS/Mol_Feturizer/New_Systems/rnas/1f1t

>  <Rbt.Executable>
rbdock ($Id: //depot/dev/client3/rdock/2013.1/src/exe/rbdock.cxx#4 $)

>  <Rbt.Library>
libRbt.so (2013.1, Build901 2013/11/27)

>  <Rbt.Parameter_File>
/export/apps/rDock/src/rDock_2013.1_src/data/scripts/dock_solv.prm

>  <Rbt.Receptor>
prm/pocket_docking_4.prm

>  <SCORE>
-62.8452

>  <SCORE.INTER>
-62.9226

>  <SCORE.INTER.CONST>
1

>  <SCORE.INTER.POLAR>
0

>  <SCORE.INTER.ROT>
2

>  <SCORE.INTER.SOLV>
11.1506

>  <SCORE.INTER.VDW>
-50.5986

>  <SCORE.INTER.norm>
-2.4201

>  <SCORE.INTRA>
0.07745

>  <SCORE.INTRA.DIHEDRAL>
-1.07223

>  <SCORE.INTRA.DIHEDRAL.0>
4.18538

>  <SCORE.INTRA.POLAR>
0

>  <SCORE.INTRA.POLAR.0>
0

>  <SCORE.INTRA.REPUL>
0

>  <SCORE.INTRA.REPUL.0>
0

>  <SCORE.INTRA.SOLV>
0.0196841

>  <SCORE.INTRA.SOLV.lig_0>
-5.16926

>  <SCORE.INTRA.VDW>
0.603722

>  <SCORE.INTRA.VDW.0>
1.11912

>  <SCORE.INTRA.norm>
0.00297884

>  <SCORE.RESTR>
0

>  <SCORE.RESTR.CAVITY>
0

>  <SCORE.RESTR.norm>
0

>  <SCORE.SYSTEM>
0

>  <SCORE.SYSTEM.CONST>
0

>  <SCORE.SYSTEM.DIHEDRAL>
0

>  <SCORE.SYSTEM.SOLV>
0

>  <SCORE.SYSTEM.norm>
0

>  <SCORE.heavy>
26

>  <SCORE.norm>
-2.41712

>  <RMSD>
0.688

$$$$
1f1t Malachite green aptamer (Xray 2.8A)
 OpenBabel11021811393D
libRbt.so/2013.1/901 2013/11/27
 26 29  0  0  0  0  0  0  0  0999 V2000
  111.2592  -74.6591  -81.9106 C   0  0  0  0  0  0  0  0  0  0  0  0
  111.7801  -75.9221  -82.4124 C   0  0  0  0  0  0  0  0  0  0  0  0
  111.5139  -76.1242  -83.7680 C   0  0  0  0  0  0  0  0  0  0  0  0
  112.0687  -77.4278  -84.2288 O   0  0  0  0  0  0  0  0  0  0  0  0
  111.8300  -77.5992  -85.4704 C   0  0  0  0  0  0  0  0  0  0  0  0
  112.3995  -78.9002  -85.8206 C   0  0  0  0  0  0  0  0  0  0  0  0
  112.2303  -79.2614  -87.2043 C   0  0  0  0  0  0  0  0  0  0  0  0
  111.5799  -78.4193  -88.1399 C   0  0  0  0  0  0  0  0  0  0  0  0
  111.0277  -77.1428  -87.7261 C   0  0  0  0  0  0  0  0  0  0  0  0
  111.1728  -76.7668  -86.3412 C   0  0  0  0  0  0  0  0  0  0  0  0
  110.5566  -75.4324  -85.9925 C   0  0  0  0  0  0  0  0  0  0  0  0
  110.8330  -75.2652  -84.6236 C   0  0  0  0  0  0  0  0  0  0  0  0
  110.3103  -74.0021  -84.0978 C   0  0  0  0  0  0  0  0  0  0  0  0
  110.5717  -73.7687  -82.7123 C   0  0  0  0  0  0  0  0  0  0  0  0
  109.8971  -74.6419  -86.9145 C   0  0  0  0  0  0  0  0  0  0  0  0
  110.2392  -73.3107  -87.2482 C   0  0  0  0  0  0  0  0  0  0  0  0
  109.5957  -72.5042  -88.1886 C   0  0  0  0  0  0  0  0  0  0  0  0
  108.4586  -73.0299  -88.9292 C   0  0  0  0  0  0  0  0  0  0  0  0
  108.1351  -74.3588  -88.5642 C   0  0  0  0  0  0  0  0  0  0  0  0
  108.7486  -75.2013  -87.6267 C   0  0  0  0  0  0  0  0  0  0  0  0
  111.4482  -74.3111  -80.5803 N   0  3  0  0  0  0  0  0  0  0  0  0
  112.1709  -75.1683  -79.6474 C   0  0  0  0  0  0  0  0  0  0  0  0
  110.9726  -73.0739  -79.9230 C   0  0  0  0  0  0  0  0  0  0  0  0
  112.7618  -80.5259  -87.5107 N   0  0  0  0  0  0  0  0  0  0  0  0
  113.3173  -81.5934  -86.6492 C   0  0  0  0  0  0  0  0  0  0  0  0
  112.7811  -80.9327  -88.9602 C   0  0  0  0  0  0  0  0  0  0  0  0
  1  2  1  0  0  0  0
  1 14  1  0  0  0  0
  1 21  2  0  0  0  0
  2  3  2  0  0  0  0
  3  4  1  0  0  0  0
  3 12  1  0  0  0  0
  4  5  1  0  0  0  0
  5  6  1  0  0  0  0
  5 10  2  0  0  0  0
  6  7  2  0  0  0  0
  7  8  1  0  0  0  0
  7 24  1  0  0  0  0
  8  9  2  0  0  0  0
  9 10  1  0  0  0  0
 10 11  1  0  0  0  0
 11 12  2  0  0  0  0
 11 15  1  0  0  0  0
 12 13  1  0  0  0  0
 13 14  2  0  0  0  0
 15 16  2  0  0  0  0
 15 20  1  0  0  0  0
 16 17  1  0  0  0  0
 17 18  2  0  0  0  0
 18 19  1  0  0  0  0
 19 20  2  0  0  0  0
 21 22  1  0  0  0  0
 21 23  1  0  0  0  0
 24 25  1  0  0  0  0
 24 26  1  0  0  0  0
M  CHG  1  21   1
M  END
>  <CHROM.1>
7.79731538,-121.98760390,111.10551719,-76.18188570,-85.37719035,-1.81372870
1.04619358,-2.07068100

>  <Name>
1f1t Malachite green aptamer (Xray 2.8A)

>  <RI>
0

>  <Rbt.Current_Directory>
/home/itssahil/PROJECTS/Mol_Feturizer/New_Systems/rnas/1f1t

>  <Rbt.Executable>
rbdock ($Id: //depot/dev/client3/rdock/2013.1/src/exe/rbdock.cxx#4 $)

>  <Rbt.Library>
libRbt.so (2013.1, Build901 2013/11/27)

>  <Rbt.Parameter_File>
/export/apps/rDock/src/rDock_2013.1_src/data/scripts/dock_solv.prm

>  <Rbt.Receptor>
prm/pocket_docking_5.prm

>  <SCORE>
-63.2305

>  <SCORE.INTER>
-63.3224

>  <SCORE.INTER.CONST>
1

>  <SCORE.INTER.POLAR>
0

>  <SCORE.INTER.ROT>
2

>  <SCORE.INTER.SOLV>
11.1512

>  <SCORE.INTER.VDW>
-50.8653

>  <SCORE.INTER.norm>
-2.43548

>  <SCORE.INTRA>
0.0918671

>  <SCORE.INTRA.DIHEDRAL>
-0.529549

>  <SCORE.INTRA.DIHEDRAL.0>
4.18538

>  <SCORE.INTRA.POLAR>
0

>  <SCORE.INTRA.POLAR.0>
0

>  <SCORE.INTRA.REPUL>
0

>  <SCORE.INTRA.REPUL.0>
0

>  <SCORE.INTRA.SOLV>
0.0127861

>  <SCORE.INTRA.SOLV.lig_0>
-5.16926

>  <SCORE.INTRA.VDW>
0.350248

>  <SCORE.INTRA.VDW.0>
1.11912

>  <SCORE.INTRA.norm>
0.00353335

>  <SCORE.RESTR>
0

>  <SCORE.RESTR.CAVITY>
0

>  <SCORE.RESTR.norm>
0

>  <SCORE.SYSTEM>
0

>  <SCORE.SYSTEM.CONST>
0

>  <SCORE.SYSTEM.DIHEDRAL>
0

>  <SCORE.SYSTEM.SOLV>
0

>  <SCORE.SYSTEM.norm>
0

>  <SCORE.heavy>
26

>  <SCORE.norm>
-2.43194

>  <RMSD>
0.688

$$$$
1f1t Malachite green aptamer (Xray 2.8A)
 OpenBabel11021811393D
libRbt.so/2013.1/901 2013/11/27
 26 29  0  0  0  0  0  0  0  0999 V2000
  111.1814  -74.5934  -81.9503 C   0  0  0  0  0  0  0  0  0  0  0  0
  111.7110  -75.8684  -82.4109 C   0  0  0  0  0  0  0  0  0  0  0  0
  111.4551  -76.1117  -83.7618 C   0  0  0  0  0  0  0  0  0  0  0  0
  112.0185  -77.4260  -84.1799 O   0  0  0  0  0  0  0  0  0  0  0  0
  111.7893  -77.6350  -85.4175 C   0  0  0  0  0  0  0  0  0  0  0  0
  112.3665  -78.9433  -85.7251 C   0  0  0  0  0  0  0  0  0  0  0  0
  112.2085  -79.3460  -87.0986 C   0  0  0  0  0  0  0  0  0  0  0  0
  111.5612  -78.5348  -88.0632 C   0  0  0  0  0  0  0  0  0  0  0  0
  111.0009  -77.2490  -87.6912 C   0  0  0  0  0  0  0  0  0  0  0  0
  111.1348  -76.8316  -86.3171 C   0  0  0  0  0  0  0  0  0  0  0  0
  110.5106  -75.4902  -86.0123 C   0  0  0  0  0  0  0  0  0  0  0  0
  110.7767  -75.2813  -84.6470 C   0  0  0  0  0  0  0  0  0  0  0  0
  110.2452  -74.0055  -84.1625 C   0  0  0  0  0  0  0  0  0  0  0  0
  110.4959  -73.7301  -82.7827 C   0  0  0  0  0  0  0  0  0  0  0  0
  109.8543  -74.7301  -86.9618 C   0  0  0  0  0  0  0  0  0  0  0  0
  108.8132  -75.1872  -87.8029 C   0  0  0  0  0  0  0  0  0  0  0  0
  108.1279  -74.4295  -88.7543 C   0  0  0  0  0  0  0  0  0  0  0  0
  108.4729  -73.0283  -88.9422 C   0  0  0  0  0  0  0  0  0  0  0  0
  109.5247  -72.6054  -88.0944 C   0  0  0  0  0  0  0  0  0  0  0  0
  110.2410  -73.3297  -87.1317 C   0  0  0  0  0  0  0  0  0  0  0  0
  111.3597  -74.2054  -80.6297 N   0  3  0  0  0  0  0  0  0  0  0  0
  112.0794  -75.0315  -79.6668 C   0  0  0  0  0  0  0  0  0  0  0  0
  110.8744  -72.9514  -80.0125 C   0  0  0  0  0  0  0  0  0  0  0  0
  112.7473  -80.6167  -87.3638 N   0  0  0  0  0  0  0  0  0  0  0  0
  113.3333  -81.6414  -86.4712 C   0  0  0  0  0  0  0  0  0  0  0  0
  112.7397  -81.0837  -88.7952 C   0  0  0  0  0  0  0  0  0  0  0  0
  1  2  1  0  0  0  0
  1 14  1  0  0  0  0
  1 21  2  0  0  0  0
  2  3  2  0  0  0  0
  3  4  1  0  0  0  0
  3 12  1  0  0  0  0
  4  5  1  0  0  0  0
  5  6  1  0  0  0  0
  5 10  2  0  0  0  0
  6  7  2  0  0  0  0
  7  8  1  0  0  0  0
  7 24  1  0  0  0  0
  8  9  2  0  0  0  0
  9 10  1  0  0  0  0
 10 11  1  0  0  0  0
 11 12  2  0  0  0  0
 11 15  1  0  0  0  0
 12 13  1  0  0  0  0
 13 14  2  0  0  0  0
 15 16  2  0  0  0  0
 15 20  1  0  0  0  0
 16 17  1  0  0  0  0
 17 18  2  0  0  0  0
 18 19  1  0  0  0  0
 19 20  2  0  0  0  0
 21 22  1  0  0  0  0
 21 23  1  0  0  0  0
 24 25  1  0  0  0  0
 24 26  1  0  0  0  0
M  CHG  1  21   1
M  END
>  <CHROM.1>
5.96235268,52.02951413,111.06537499,-76.20127964,-85.36223307,-1.84760046
1.05051923,-2.08584091

>  <Name>
1f1t Malachite green aptamer (Xray 2.8A)

>  <RI>
0

>  <Rbt.Current_Directory>
/home/itssahil/PROJECTS/Mol_Feturizer/New_Systems/rnas/1f1t

>  <Rbt.Executable>
rbdock ($Id: //depot/dev/client3/rdock/2013.1/src/exe/rbdock.cxx#4 $)

>  <Rbt.Library>
libRbt.so (2013.1, Build901 2013/11/27)

>  <Rbt.Parameter_File>
/export/apps/rDock/src/rDock_2013.1_src/data/scripts/dock_solv.prm

>  <Rbt.Receptor>
prm/pocket_docking_2.prm

>  <SCORE>
-62.8352

>  <SCORE.INTER>
-62.9068

>  <SCORE.INTER.CONST>
1

>  <SCORE.INTER.POLAR>
0

>  <SCORE.INTER.ROT>
2

>  <SCORE.INTER.SOLV>
11.161

>  <SCORE.INTER.VDW>
-50.5916

>  <SCORE.INTER.norm>
-2.41949

>  <SCORE.INTRA>
0.0716546

>  <SCORE.INTRA.DIHEDRAL>
-1.09703

>  <SCORE.INTRA.DIHEDRAL.0>
4.18538

>  <SCORE.INTRA.POLAR>
0

>  <SCORE.INTRA.POLAR.0>
0

>  <SCORE.INTRA.REPUL>
0

>  <SCORE.INTRA.REPUL.0>
0

>  <SCORE.INTRA.SOLV>
0.0196509

>  <SCORE.INTRA.SOLV.lig_0>
-5.16926

>  <SCORE.INTRA.VDW>
0.610345

>  <SCORE.INTRA.VDW.0>
1.11912

>  <SCORE.INTRA.norm>
0.00275595

>  <SCORE.RESTR>
0

>  <SCORE.RESTR.CAVITY>
0

>  <SCORE.RESTR.norm>
0

>  <SCORE.SYSTEM>
0

>  <SCORE.SYSTEM.CONST>
0

>  <SCORE.SYSTEM.DIHEDRAL>
0

>  <SCORE.SYSTEM.SOLV>
0

>  <SCORE.SYSTEM.norm>
0

>  <SCORE.heavy>
26

>  <SCORE.norm>
-2.41674

>  <RMSD>
0.689

$$$$
1f1t Malachite green aptamer (Xray 2.8A)
 OpenBabel11021811393D
libRbt.so/2013.1/901 2013/11/27
 26 29  0  0  0  0  0  0  0  0999 V2000
  111.1791  -74.6321  -81.9388 C   0  0  0  0  0  0  0  0  0  0  0  0
  111.7166  -75.8976  -82.4162 C   0  0  0  0  0  0  0  0  0  0  0  0
  111.4621  -76.1247  -83.7701 C   0  0  0  0  0  0  0  0  0  0  0  0
  112.0337  -77.4298  -84.2055 O   0  0  0  0  0  0  0  0  0  0  0  0
  111.8056  -77.6240  -85.4457 C   0  0  0  0  0  0  0  0  0  0  0  0
  112.3910  -78.9245  -85.7705 C   0  0  0  0  0  0  0  0  0  0  0  0
  112.2354  -79.3101  -87.1492 C   0  0  0  0  0  0  0  0  0  0  0  0
  111.5829  -78.4904  -88.1030 C   0  0  0  0  0  0  0  0  0  0  0  0
  111.0146  -77.2131  -87.7141 C   0  0  0  0  0  0  0  0  0  0  0  0
  111.1460  -76.8130  -86.3347 C   0  0  0  0  0  0  0  0  0  0  0  0
  110.5135  -75.4796  -86.0122 C   0  0  0  0  0  0  0  0  0  0  0  0
  110.7784  -75.2870  -84.6443 C   0  0  0  0  0  0  0  0  0  0  0  0
  110.2389  -74.0211  -84.1430 C   0  0  0  0  0  0  0  0  0  0  0  0
  110.4881  -73.7623  -82.7598 C   0  0  0  0  0  0  0  0  0  0  0  0
  109.8523  -74.7112  -86.9516 C   0  0  0  0  0  0  0  0  0  0  0  0
  108.7945  -75.1559  -87.7784 C   0  0  0  0  0  0  0  0  0  0  0  0
  108.1043  -74.3896  -88.7193 C   0  0  0  0  0  0  0  0  0  0  0  0
  108.4620  -72.9920  -88.9107 C   0  0  0  0  0  0  0  0  0  0  0  0
  109.5302  -72.5817  -88.0774 C   0  0  0  0  0  0  0  0  0  0  0  0
  110.2520  -73.3150  -87.1255 C   0  0  0  0  0  0  0  0  0  0  0  0
  111.3550  -74.2604  -80.6132 N   0  3  0  0  0  0  0  0  0  0  0  0
  112.0800  -75.0946  -79.6613 C   0  0  0  0  0  0  0  0  0  0  0  0
  110.8620  -73.0177  -79.9796 C   0  0  0  0  0  0  0  0  0  0  0  0
  112.7822  -80.5737  -87.4311 N   0  0  0  0  0  0  0  0  0  0  0  0
  113.3638  -81.6115  -86.5506 C   0  0  0  0  0  0  0  0  0  0  0  0
  112.7905  -81.0158  -88.8703 C   0  0  0  0  0  0  0  0  0  0  0  0
  1  2  1  0  0  0  0
  1 14  1  0  0  0  0
  1 21  2  0  0  0  0
  2  3  2  0  0  0  0
  3  4  1  0  0  0  0
  3 12  1  0  0  0  0
  4  5  1  0  0  0  0
  5  6  1  0  0  0  0
  5 10  2  0  0  0  0
  6  7  2  0  0  0  0
  7  8  1  0  0  0  0
  7 24  1  0  0  0  0
  8  9  2  0  0  0  0
  9 10  1  0  0  0  0
 10 11  1  0  0  0  0
 11 12  2  0  0  0  0
 11 15  1  0  0  0  0
 12 13  1  0  0  0  0
 13 14  2  0  0  0  0
 15 16  2  0  0  0  0
 15 20  1  0  0  0  0
 16 17  1  0  0  0  0
 17 18  2  0  0  0  0
 18 19  1  0  0  0  0
 19 20  2  0  0  0  0
 21 22  1  0  0  0  0
 21 23  1  0  0  0  0
 24 25  1  0  0  0  0
 24 26  1  0  0  0  0
M  CHG  1  21   1
M  END
>  <CHROM.1>
6.58830634,53.47958197,111.07305768,-76.19563523,-85.37175513,-1.85400250
1.04520015,-2.06687352

>  <Name>
1f1t Malachite green aptamer (Xray 2.8A)

>  <RI>
0

>  <Rbt.Current_Directory>
/home/itssahil/PROJECTS/Mol_Feturizer/New_Systems/rnas/1f1t

>  <Rbt.Executable>
rbdock ($Id: //depot/dev/client3/rdock/2013.1/src/exe/rbdock.cxx#4 $)

>  <Rbt.Library>
libRbt.so (2013.1, Build901 2013/11/27)

>  <Rbt.Parameter_File>
/export/apps/rDock/src/rDock_2013.1_src/data/scripts/dock_solv.prm

>  <Rbt.Receptor>
prm/pocket_docking_4.prm

>  <SCORE>
-62.6953

>  <SCORE.INTER>
-62.7596

>  <SCORE.INTER.CONST>
1

>  <SCORE.INTER.POLAR>
0

>  <SCORE.INTER.ROT>
2

>  <SCORE.INTER.SOLV>
11.1574

>  <SCORE.INTER.VDW>
-50.4922

>  <SCORE.INTER.norm>
-2.41383

>  <SCORE.INTRA>
0.0642863

>  <SCORE.INTRA.DIHEDRAL>
-0.94991

>  <SCORE.INTRA.DIHEDRAL.0>
4.18538

>  <SCORE.INTRA.POLAR>
0

>  <SCORE.INTRA.POLAR.0>
0

>  <SCORE.INTRA.REPUL>
0

>  <SCORE.INTRA.REPUL.0>
0

>  <SCORE.INTRA.SOLV>
0.0180155

>  <SCORE.INTRA.SOLV.lig_0>
-5.16926

>  <SCORE.INTRA.VDW>
0.530234

>  <SCORE.INTRA.VDW.0>
1.11912

>  <SCORE.INTRA.norm>
0.00247255

>  <SCORE.RESTR>
0

>  <SCORE.RESTR.CAVITY>
0

>  <SCORE.RESTR.norm>
0

>  <SCORE.SYSTEM>
0

>  <SCORE.SYSTEM.CONST>
0

>  <SCORE.SYSTEM.DIHEDRAL>
0

>  <SCORE.SYSTEM.SOLV>
0

>  <SCORE.SYSTEM.norm>
0

>  <SCORE.heavy>
26

>  <SCORE.norm>
-2.41136

>  <RMSD>
0.689

$$$$
1f1t Malachite green aptamer (Xray 2.8A)
 OpenBabel11021811393D
libRbt.so/2013.1/901 2013/11/27
 26 29  0  0  0  0  0  0  0  0999 V2000
  111.1726  -74.5849  -81.9494 C   0  0  0  0  0  0  0  0  0  0  0  0
  111.7054  -75.8594  -82.4078 C   0  0  0  0  0  0  0  0  0  0  0  0
  111.4527  -76.1042  -83.7590 C   0  0  0  0  0  0  0  0  0  0  0  0
  112.0192  -77.4179  -84.1749 O   0  0  0  0  0  0  0  0  0  0  0  0
  111.7929  -77.6283  -85.4128 C   0  0  0  0  0  0  0  0  0  0  0  0
  112.3730  -78.9360  -85.7181 C   0  0  0  0  0  0  0  0  0  0  0  0
  112.2185  -79.3401  -87.0916 C   0  0  0  0  0  0  0  0  0  0  0  0
  111.5718  -78.5308  -88.0582 C   0  0  0  0  0  0  0  0  0  0  0  0
  111.0085  -77.2456  -87.6884 C   0  0  0  0  0  0  0  0  0  0  0  0
  111.1388  -76.8269  -86.3144 C   0  0  0  0  0  0  0  0  0  0  0  0
  110.5118  -75.4862  -86.0119 C   0  0  0  0  0  0  0  0  0  0  0  0
  110.7747  -75.2758  -84.6464 C   0  0  0  0  0  0  0  0  0  0  0  0
  110.2400  -74.0005  -84.1640 C   0  0  0  0  0  0  0  0  0  0  0  0
  110.4874  -73.7236  -82.7839 C   0  0  0  0  0  0  0  0  0  0  0  0
  109.8561  -74.7281  -86.9634 C   0  0  0  0  0  0  0  0  0  0  0  0
  108.8007  -75.1806  -87.7891 C   0  0  0  0  0  0  0  0  0  0  0  0
  108.1160  -74.4244  -88.7421 C   0  0  0  0  0  0  0  0  0  0  0  0
  108.4776  -73.0301  -88.9492 C   0  0  0  0  0  0  0  0  0  0  0  0
  109.5433  -72.6119  -88.1166 C   0  0  0  0  0  0  0  0  0  0  0  0
  110.2596  -73.3350  -87.1529 C   0  0  0  0  0  0  0  0  0  0  0  0
  111.3475  -74.1956  -80.6287 N   0  3  0  0  0  0  0  0  0  0  0  0
  112.0666  -75.0196  -79.6636 C   0  0  0  0  0  0  0  0  0  0  0  0
  110.8589  -72.9418  -80.0136 C   0  0  0  0  0  0  0  0  0  0  0  0
  112.7601  -80.6100  -87.3546 N   0  0  0  0  0  0  0  0  0  0  0  0
  113.3503  -81.6311  -86.4605 C   0  0  0  0  0  0  0  0  0  0  0  0
  112.7510  -81.0806  -88.7848 C   0  0  0  0  0  0  0  0  0  0  0  0
  1  2  1  0  0  0  0
  1 14  1  0  0  0  0
  1 21  2  0  0  0  0
  2  3  2  0  0  0  0
  3  4  1  0  0  0  0
  3 12  1  0  0  0  0
  4  5  1  0  0  0  0
  5  6  1  0  0  0  0
  5 10  2  0  0  0  0
  6  7  2  0  0  0  0
  7  8  1  0  0  0  0
  7 24  1  0  0  0  0
  8  9  2  0  0  0  0
  9 10  1  0  0  0  0
 10 11  1  0  0  0  0
 11 12  2  0  0  0  0
 11 15  1  0  0  0  0
 12 13  1  0  0  0  0
 13 14  2  0  0  0  0
 15 16  2  0  0  0  0
 15 20  1  0  0  0  0
 16 17  1  0  0  0  0
 17 18  2  0  0  0  0
 18 19  1  0  0  0  0
 19 20  2  0  0  0  0
 21 22  1  0  0  0  0
 21 23  1  0  0  0  0
 24 25  1  0  0  0  0
 24 26  1  0  0  0  0
M  CHG  1  21   1
M  END
>  <CHROM.1>
5.71446236,53.27944033,111.06654389,-76.19586174,-85.36031223,-1.85284769
1.05007074,-2.08194320

>  <Name>
1f1t Malachite green aptamer (Xray 2.8A)

>  <RI>
0

>  <Rbt.Current_Directory>
/home/itssahil/PROJECTS/Mol_Feturizer/New_Systems/rnas/1f1t

>  <Rbt.Executable>
rbdock ($Id: //depot/dev/client3/rdock/2013.1/src/exe/rbdock.cxx#4 $)

>  <Rbt.Library>
libRbt.so (2013.1, Build901 2013/11/27)

>  <Rbt.Parameter_File>
/export/apps/rDock/src/rDock_2013.1_src/data/scripts/dock_solv.prm

>  <Rbt.Receptor>
prm/pocket_docking_6.prm

>  <SCORE>
-62.7968

>  <SCORE.INTER>
-62.8576

>  <SCORE.INTER.CONST>
1

>  <SCORE.INTER.POLAR>
0

>  <SCORE.INTER.ROT>
2

>  <SCORE.INTER.SOLV>
11.1799

>  <SCORE.INTER.VDW>
-50.565

>  <SCORE.INTER.norm>
-2.4176

>  <SCORE.INTRA>
0.0607406

>  <SCORE.INTRA.DIHEDRAL>
-1.00667

>  <SCORE.INTRA.DIHEDRAL.0>
4.18538

>  <SCORE.INTRA.POLAR>
0

>  <SCORE.INTRA.POLAR.0>
0

>  <SCORE.INTRA.REPUL>
0

>  <SCORE.INTRA.REPUL.0>
0

>  <SCORE.INTRA.SOLV>
0.0182477

>  <SCORE.INTRA.SOLV.lig_0>
-5.16926

>  <SCORE.INTRA.VDW>
0.55495

>  <SCORE.INTRA.VDW.0>
1.11912

>  <SCORE.INTRA.norm>
0.00233618

>  <SCORE.RESTR>
0

>  <SCORE.RESTR.CAVITY>
0

>  <SCORE.RESTR.norm>
0

>  <SCORE.SYSTEM>
0

>  <SCORE.SYSTEM.CONST>
0

>  <SCORE.SYSTEM.DIHEDRAL>
0

>  <SCORE.SYSTEM.SOLV>
0

>  <SCORE.SYSTEM.norm>
0

>  <SCORE.heavy>
26

>  <SCORE.norm>
-2.41526

>  <RMSD>
0.689

$$$$
1f1t Malachite green aptamer (Xray 2.8A)
 OpenBabel11021811393D
libRbt.so/2013.1/901 2013/11/27
 26 29  0  0  0  0  0  0  0  0999 V2000
  111.2395  -74.6036  -81.8983 C   0  0  0  0  0  0  0  0  0  0  0  0
  111.7492  -75.8778  -82.3832 C   0  0  0  0  0  0  0  0  0  0  0  0
  111.4867  -76.0927  -83.7376 C   0  0  0  0  0  0  0  0  0  0  0  0
  112.0297  -77.4074  -84.1808 O   0  0  0  0  0  0  0  0  0  0  0  0
  111.7946  -77.5906  -85.4214 C   0  0  0  0  0  0  0  0  0  0  0  0
  112.3518  -78.9015  -85.7540 C   0  0  0  0  0  0  0  0  0  0  0  0
  112.1848  -79.2769  -87.1342 C   0  0  0  0  0  0  0  0  0  0  0  0
  111.5473  -78.4390  -88.0823 C   0  0  0  0  0  0  0  0  0  0  0  0
  111.0068  -77.1520  -87.6857 C   0  0  0  0  0  0  0  0  0  0  0  0
  111.1500  -76.7616  -86.3046 C   0  0  0  0  0  0  0  0  0  0  0  0
  110.5464  -75.4168  -85.9741 C   0  0  0  0  0  0  0  0  0  0  0  0
  110.8186  -75.2366  -84.6060 C   0  0  0  0  0  0  0  0  0  0  0  0
  110.3070  -73.9621  -84.0971 C   0  0  0  0  0  0  0  0  0  0  0  0
  110.5649  -73.7155  -82.7133 C   0  0  0  0  0  0  0  0  0  0  0  0
  109.8992  -74.6301  -86.9080 C   0  0  0  0  0  0  0  0  0  0  0  0
  110.2369  -73.2956  -87.2327 C   0  0  0  0  0  0  0  0  0  0  0  0
  109.6060  -72.4928  -88.1847 C   0  0  0  0  0  0  0  0  0  0  0  0
  108.4885  -73.0266  -88.9490 C   0  0  0  0  0  0  0  0  0  0  0  0
  108.1688  -74.3588  -88.5927 C   0  0  0  0  0  0  0  0  0  0  0  0
  108.7700  -75.1978  -87.6443 C   0  0  0  0  0  0  0  0  0  0  0  0
  111.4265  -74.2423  -80.5713 N   0  3  0  0  0  0  0  0  0  0  0  0
  112.1361  -75.0961  -79.6253 C   0  0  0  0  0  0  0  0  0  0  0  0
  110.9612  -72.9926  -79.9304 C   0  0  0  0  0  0  0  0  0  0  0  0
  112.7042  -80.5504  -87.4236 N   0  0  0  0  0  0  0  0  0  0  0  0
  113.3122  -81.5841  -86.5563 C   0  0  0  0  0  0  0  0  0  0  0  0
  112.6441  -81.0101  -88.8561 C   0  0  0  0  0  0  0  0  0  0  0  0
  1  2  1  0  0  0  0
  1 14  1  0  0  0  0
  1 21  2  0  0  0  0
  2  3  2  0  0  0  0
  3  4  1  0  0  0  0
  3 12  1  0  0  0  0
  4  5  1  0  0  0  0
  5  6  1  0  0  0  0
  5 10  2  0  0  0  0
  6  7  2  0  0  0  0
  7  8  1  0  0  0  0
  7 24  1  0  0  0  0
  8  9  2  0  0  0  0
  9 10  1  0  0  0  0
 10 11  1  0  0  0  0
 11 12  2  0  0  0  0
 11 15  1  0  0  0  0
 12 13  1  0  0  0  0
 13 14  2  0  0  0  0
 15 16  2  0  0  0  0
 15 20  1  0  0  0  0
 16 17  1  0  0  0  0
 17 18  2  0  0  0  0
 18 19  1  0  0  0  0
 19 20  2  0  0  0  0
 21 22  1  0  0  0  0
 21 23  1  0  0  0  0
 24 25  1  0  0  0  0
 24 26  1  0  0  0  0
M  CHG  1  21   1
M  END
>  <CHROM.1>
3.95451729,-123.59045183,111.08432034,-76.16511498,-85.34776259,-1.80870119
1.05701829,-2.08695601

>  <Name>
1f1t Malachite green aptamer (Xray 2.8A)

>  <RI>
0

>  <Rbt.Current_Directory>
/home/itssahil/PROJECTS/Mol_Feturizer/New_Systems/rnas/1f1t

>  <Rbt.Executable>
rbdock ($Id: //depot/dev/client3/rdock/2013.1/src/exe/rbdock.cxx#4 $)

>  <Rbt.Library>
libRbt.so (2013.1, Build901 2013/11/27)

>  <Rbt.Parameter_File>
/export/apps/rDock/src/rDock_2013.1_src/data/scripts/dock_solv.prm

>  <Rbt.Receptor>
prm/pocket_docking_7.prm

>  <SCORE>
-63.2727

>  <SCORE.INTER>
-63.3667

>  <SCORE.INTER.CONST>
1

>  <SCORE.INTER.POLAR>
0

>  <SCORE.INTER.ROT>
2

>  <SCORE.INTER.SOLV>
11.2125

>  <SCORE.INTER.VDW>
-50.9153

>  <SCORE.INTER.norm>
-2.43718

>  <SCORE.INTRA>
0.0939825

>  <SCORE.INTRA.DIHEDRAL>
-0.82298

>  <SCORE.INTRA.DIHEDRAL.0>
4.18538

>  <SCORE.INTRA.POLAR>
0

>  <SCORE.INTRA.POLAR.0>
0

>  <SCORE.INTRA.REPUL>
0

>  <SCORE.INTRA.REPUL.0>
0

>  <SCORE.INTRA.SOLV>
0.0146745

>  <SCORE.INTRA.SOLV.lig_0>
-5.16926

>  <SCORE.INTRA.VDW>
0.498135

>  <SCORE.INTRA.VDW.0>
1.11912

>  <SCORE.INTRA.norm>
0.00361471

>  <SCORE.RESTR>
0

>  <SCORE.RESTR.CAVITY>
0

>  <SCORE.RESTR.norm>
0

>  <SCORE.SYSTEM>
0

>  <SCORE.SYSTEM.CONST>
0

>  <SCORE.SYSTEM.DIHEDRAL>
0

>  <SCORE.SYSTEM.SOLV>
0

>  <SCORE.SYSTEM.norm>
0

>  <SCORE.heavy>
26

>  <SCORE.norm>
-2.43357

>  <RMSD>
0.689

$$$$
1f1t Malachite green aptamer (Xray 2.8A)
 OpenBabel11021811393D
libRbt.so/2013.1/901 2013/11/27
 26 29  0  0  0  0  0  0  0  0999 V2000
  111.1162  -74.5842  -81.9408 C   0  0  0  0  0  0  0  0  0  0  0  0
  111.6562  -75.8567  -82.3965 C   0  0  0  0  0  0  0  0  0  0  0  0
  111.4130  -76.1017  -83.7493 C   0  0  0  0  0  0  0  0  0  0  0  0
  111.9866  -77.4132  -84.1622 O   0  0  0  0  0  0  0  0  0  0  0  0
  111.7689  -77.6238  -85.4016 C   0  0  0  0  0  0  0  0  0  0  0  0
  112.3555  -78.9293  -85.7038 C   0  0  0  0  0  0  0  0  0  0  0  0
  112.2111  -79.3333  -87.0784 C   0  0  0  0  0  0  0  0  0  0  0  0
  111.5678  -78.5258  -88.0488 C   0  0  0  0  0  0  0  0  0  0  0  0
  110.9977  -77.2427  -87.6820 C   0  0  0  0  0  0  0  0  0  0  0  0
  111.1178  -76.8242  -86.3070 C   0  0  0  0  0  0  0  0  0  0  0  0
  110.4843  -75.4859  -86.0079 C   0  0  0  0  0  0  0  0  0  0  0  0
  110.7377  -75.2752  -84.6406 C   0  0  0  0  0  0  0  0  0  0  0  0
  110.1956  -74.0020  -84.1610 C   0  0  0  0  0  0  0  0  0  0  0  0
  110.4333  -73.7248  -82.7793 C   0  0  0  0  0  0  0  0  0  0  0  0
  109.8320  -74.7296  -86.9632 C   0  0  0  0  0  0  0  0  0  0  0  0
  108.7888  -75.1876  -87.8012 C   0  0  0  0  0  0  0  0  0  0  0  0
  108.1076  -74.4335  -88.7584 C   0  0  0  0  0  0  0  0  0  0  0  0
  108.4597  -73.0355  -88.9567 C   0  0  0  0  0  0  0  0  0  0  0  0
  109.5134  -72.6116  -88.1117 C   0  0  0  0  0  0  0  0  0  0  0  0
  110.2258  -73.3325  -87.1434 C   0  0  0  0  0  0  0  0  0  0  0  0
  111.2813  -74.1949  -80.6189 N   0  3  0  0  0  0  0  0  0  0  0  0
  111.9971  -75.0169  -79.6497 C   0  0  0  0  0  0  0  0  0  0  0  0
  110.7844  -72.9431  -80.0063 C   0  0  0  0  0  0  0  0  0  0  0  0
  112.7587  -80.6012  -87.3386 N   0  0  0  0  0  0  0  0  0  0  0  0
  113.3301  -81.6283  -86.4391 C   0  0  0  0  0  0  0  0  0  0  0  0
  112.7806  -81.0619  -88.7718 C   0  0  0  0  0  0  0  0  0  0  0  0
  1  2  1  0  0  0  0
  1 14  1  0  0  0  0
  1 21  2  0  0  0  0
  2  3  2  0  0  0  0
  3  4  1  0  0  0  0
  3 12  1  0  0  0  0
  4  5  1  0  0  0  0
  5  6  1  0  0  0  0
  5 10  2  0  0  0  0
  6  7  2  0  0  0  0
  7  8  1  0  0  0  0
  7 24  1  0  0  0  0
  8  9  2  0  0  0  0
  9 10  1  0  0  0  0
 10 11  1  0  0  0  0
 11 12  2  0  0  0  0
 11 15  1  0  0  0  0
 12 13  1  0  0  0  0
 13 14  2  0  0  0  0
 15 16  2  0  0  0  0
 15 20  1  0  0  0  0
 16 17  1  0  0  0  0
 17 18  2  0  0  0  0
 18 19  1  0  0  0  0
 19 20  2  0  0  0  0
 21 22  1  0  0  0  0
 21 23  1  0  0  0  0
 24 25  1  0  0  0  0
 24 26  1  0  0  0  0
M  CHG  1  21   1
M  END
>  <CHROM.1>
6.67456888,52.88032631,111.03741080,-76.19384081,-85.35309070,-1.86788496
1.05025579,-2.06843585

>  <Name>
1f1t Malachite green aptamer (Xray 2.8A)

>  <RI>
0

>  <Rbt.Current_Directory>
/home/itssahil/PROJECTS/Mol_Feturizer/New_Systems/rnas/1f1t

>  <Rbt.Executable>
rbdock ($Id: //depot/dev/client3/rdock/2013.1/src/exe/rbdock.cxx#4 $)

>  <Rbt.Library>
libRbt.so (2013.1, Build901 2013/11/27)

>  <Rbt.Parameter_File>
/export/apps/rDock/src/rDock_2013.1_src/data/scripts/dock_solv.prm

>  <Rbt.Receptor>
prm/pocket_docking_2.prm

>  <SCORE>
-62.749

>  <SCORE.INTER>
-62.826

>  <SCORE.INTER.CONST>
1

>  <SCORE.INTER.POLAR>
0

>  <SCORE.INTER.ROT>
2

>  <SCORE.INTER.SOLV>
11.1385

>  <SCORE.INTER.VDW>
-50.5302

>  <SCORE.INTER.norm>
-2.41638

>  <SCORE.INTRA>
0.0769657

>  <SCORE.INTRA.DIHEDRAL>
-0.993913

>  <SCORE.INTRA.DIHEDRAL.0>
4.18538

>  <SCORE.INTRA.POLAR>
0

>  <SCORE.INTRA.POLAR.0>
0

>  <SCORE.INTRA.REPUL>
0

>  <SCORE.INTRA.REPUL.0>
0

>  <SCORE.INTRA.SOLV>
0.018691

>  <SCORE.INTRA.SOLV.lig_0>
-5.16926

>  <SCORE.INTRA.VDW>
0.564577

>  <SCORE.INTRA.VDW.0>
1.11912

>  <SCORE.INTRA.norm>
0.00296022

>  <SCORE.RESTR>
0

>  <SCORE.RESTR.CAVITY>
0

>  <SCORE.RESTR.norm>
0

>  <SCORE.SYSTEM>
0

>  <SCORE.SYSTEM.CONST>
0

>  <SCORE.SYSTEM.DIHEDRAL>
0

>  <SCORE.SYSTEM.SOLV>
0

>  <SCORE.SYSTEM.norm>
0

>  <SCORE.heavy>
26

>  <SCORE.norm>
-2.41342

>  <RMSD>
0.691

$$$$
1f1t Malachite green aptamer (Xray 2.8A)
 OpenBabel11021811393D
libRbt.so/2013.1/901 2013/11/27
 26 29  0  0  0  0  0  0  0  0999 V2000
  111.1871  -74.5898  -81.9373 C   0  0  0  0  0  0  0  0  0  0  0  0
  111.7235  -75.8603  -82.4028 C   0  0  0  0  0  0  0  0  0  0  0  0
  111.4716  -76.0983  -83.7553 C   0  0  0  0  0  0  0  0  0  0  0  0
  112.0419  -77.4081  -84.1783 O   0  0  0  0  0  0  0  0  0  0  0  0
  111.8163  -77.6123  -85.4174 C   0  0  0  0  0  0  0  0  0  0  0  0
  112.4002  -78.9166  -85.7299 C   0  0  0  0  0  0  0  0  0  0  0  0
  112.2470  -79.3136  -87.1056 C   0  0  0  0  0  0  0  0  0  0  0  0
  111.5980  -78.5008  -88.0678 C   0  0  0  0  0  0  0  0  0  0  0  0
  111.0310  -77.2193  -87.6910 C   0  0  0  0  0  0  0  0  0  0  0  0
  111.1600  -76.8078  -86.3146 C   0  0  0  0  0  0  0  0  0  0  0  0
  110.5291  -75.4706  -86.0048 C   0  0  0  0  0  0  0  0  0  0  0  0
  110.7913  -75.2670  -84.6381 C   0  0  0  0  0  0  0  0  0  0  0  0
  110.2529  -73.9959  -84.1487 C   0  0  0  0  0  0  0  0  0  0  0  0
  110.4994  -73.7258  -82.7672 C   0  0  0  0  0  0  0  0  0  0  0  0
  109.8713  -74.7091  -86.9522 C   0  0  0  0  0  0  0  0  0  0  0  0
  108.8199  -75.1613  -87.7832 C   0  0  0  0  0  0  0  0  0  0  0  0
  108.1331  -74.4019  -88.7322 C   0  0  0  0  0  0  0  0  0  0  0  0
  108.4877  -73.0043  -88.9286 C   0  0  0  0  0  0  0  0  0  0  0  0
  109.5496  -72.5864  -88.0909 C   0  0  0  0  0  0  0  0  0  0  0  0
  110.2678  -73.3126  -87.1309 C   0  0  0  0  0  0  0  0  0  0  0  0
  111.3608  -74.2073  -80.6145 N   0  3  0  0  0  0  0  0  0  0  0  0
  112.0822  -75.0345  -79.6539 C   0  0  0  0  0  0  0  0  0  0  0  0
  110.8685  -72.9583  -79.9925 C   0  0  0  0  0  0  0  0  0  0  0  0
  112.7922  -80.5805  -87.3755 N   0  0  0  0  0  0  0  0  0  0  0  0
  113.3472  -81.6221  -86.4826 C   0  0  0  0  0  0  0  0  0  0  0  0
  112.8304  -81.0221  -88.8144 C   0  0  0  0  0  0  0  0  0  0  0  0
  1  2  1  0  0  0  0
  1 14  1  0  0  0  0
  1 21  2  0  0  0  0
  2  3  2  0  0  0  0
  3  4  1  0  0  0  0
  3 12  1  0  0  0  0
  4  5  1  0  0  0  0
  5  6  1  0  0  0  0
  5 10  2  0  0  0  0
  6  7  2  0  0  0  0
  7  8  1  0  0  0  0
  7 24  1  0  0  0  0
  8  9  2  0  0  0  0
  9 10  1  0  0  0  0
 10 11  1  0  0  0  0
 11 12  2  0  0  0  0
 11 15  1  0  0  0  0
 12 13  1  0  0  0  0
 13 14  2  0  0  0  0
 15 16  2  0  0  0  0
 15 20  1  0  0  0  0
 16 17  1  0  0  0  0
 17 18  2  0  0  0  0
 18 19  1  0  0  0  0
 19 20  2  0  0  0  0
 21 22  1  0  0  0  0
 21 23  1  0  0  0  0
 24 25  1  0  0  0  0
 24 26  1  0  0  0  0
M  CHG  1  21   1
M  END
>  <CHROM.1>
7.89287076,53.08021833,111.08615890,-76.18209129,-85.35714142,-1.85695211
1.04796195,-2.07276948

>  <Name>
1f1t Malachite green aptamer (Xray 2.8A)

>  <RI>
0

>  <Rbt.Current_Directory>
/home/itssahil/PROJECTS/Mol_Feturizer/New_Systems/rnas/1f1t

>  <Rbt.Executable>
rbdock ($Id: //depot/dev/client3/rdock/2013.1/src/exe/rbdock.cxx#4 $)

>  <Rbt.Library>
libRbt.so (2013.1, Build901 2013/11/27)

>  <Rbt.Parameter_File>
/export/apps/rDock/src/rDock_2013.1_src/data/scripts/dock_solv.prm

>  <Rbt.Receptor>
prm/pocket_docking_3.prm

>  <SCORE>
-62.774

>  <SCORE.INTER>
-62.8591

>  <SCORE.INTER.CONST>
1

>  <SCORE.INTER.POLAR>
0

>  <SCORE.INTER.ROT>
2

>  <SCORE.INTER.SOLV>
11.1752

>  <SCORE.INTER.VDW>
-50.5645

>  <SCORE.INTER.norm>
-2.41766

>  <SCORE.INTRA>
0.0851453

>  <SCORE.INTRA.DIHEDRAL>
-0.910622

>  <SCORE.INTRA.DIHEDRAL.0>
4.18538

>  <SCORE.INTRA.POLAR>
0

>  <SCORE.INTRA.POLAR.0>
0

>  <SCORE.INTRA.REPUL>
0

>  <SCORE.INTRA.REPUL.0>
0

>  <SCORE.INTRA.SOLV>
0.0184553

>  <SCORE.INTRA.SOLV.lig_0>
-5.16926

>  <SCORE.INTRA.VDW>
0.531229

>  <SCORE.INTRA.VDW.0>
1.11912

>  <SCORE.INTRA.norm>
0.00327482

>  <SCORE.RESTR>
0

>  <SCORE.RESTR.CAVITY>
0

>  <SCORE.RESTR.norm>
0

>  <SCORE.SYSTEM>
0

>  <SCORE.SYSTEM.CONST>
0

>  <SCORE.SYSTEM.DIHEDRAL>
0

>  <SCORE.SYSTEM.SOLV>
0

>  <SCORE.SYSTEM.norm>
0

>  <SCORE.heavy>
26

>  <SCORE.norm>
-2.41438

>  <RMSD>
0.691

$$$$
1f1t Malachite green aptamer (Xray 2.8A)
 OpenBabel11021811393D
libRbt.so/2013.1/901 2013/11/27
 26 29  0  0  0  0  0  0  0  0999 V2000
  111.1757  -74.5800  -81.9394 C   0  0  0  0  0  0  0  0  0  0  0  0
  111.7011  -75.8563  -82.4013 C   0  0  0  0  0  0  0  0  0  0  0  0
  111.4425  -76.0984  -83.7518 C   0  0  0  0  0  0  0  0  0  0  0  0
  112.0017  -77.4141  -84.1713 O   0  0  0  0  0  0  0  0  0  0  0  0
  111.7700  -77.6220  -85.4086 C   0  0  0  0  0  0  0  0  0  0  0  0
  112.3432  -78.9318  -85.7176 C   0  0  0  0  0  0  0  0  0  0  0  0
  112.1820  -79.3336  -87.0910 C   0  0  0  0  0  0  0  0  0  0  0  0
  111.5354  -78.5203  -88.0543 C   0  0  0  0  0  0  0  0  0  0  0  0
  110.9791  -77.2331  -87.6810 C   0  0  0  0  0  0  0  0  0  0  0  0
  111.1163  -76.8166  -86.3069 C   0  0  0  0  0  0  0  0  0  0  0  0
  110.4962  -75.4735  -86.0007 C   0  0  0  0  0  0  0  0  0  0  0  0
  110.7650  -75.2659  -84.6358 C   0  0  0  0  0  0  0  0  0  0  0  0
  110.2376  -73.9888  -84.1499 C   0  0  0  0  0  0  0  0  0  0  0  0
  110.4912  -73.7146  -82.7705 C   0  0  0  0  0  0  0  0  0  0  0  0
  109.8405  -74.7113  -86.9489 C   0  0  0  0  0  0  0  0  0  0  0  0
  108.7855  -75.1606  -87.7769 C   0  0  0  0  0  0  0  0  0  0  0  0
  108.1008  -74.4004  -88.7267 C   0  0  0  0  0  0  0  0  0  0  0  0
  108.4618  -73.0050  -88.9274 C   0  0  0  0  0  0  0  0  0  0  0  0
  109.5271  -72.5900  -88.0926 C   0  0  0  0  0  0  0  0  0  0  0  0
  110.2434  -73.3172  -87.1319 C   0  0  0  0  0  0  0  0  0  0  0  0
  111.3571  -74.1930  -80.6189 N   0  3  0  0  0  0  0  0  0  0  0  0
  112.0759  -75.0214  -79.6574 C   0  0  0  0  0  0  0  0  0  0  0  0
  110.8761  -72.9379  -80.0006 C   0  0  0  0  0  0  0  0  0  0  0  0
  112.7170  -80.6056  -87.3575 N   0  0  0  0  0  0  0  0  0  0  0  0
  113.3068  -81.6299  -86.4668 C   0  0  0  0  0  0  0  0  0  0  0  0
  112.6995  -81.0749  -88.7880 C   0  0  0  0  0  0  0  0  0  0  0  0
  1  2  1  0  0  0  0
  1 14  1  0  0  0  0
  1 21  2  0  0  0  0
  2  3  2  0  0  0  0
  3  4  1  0  0  0  0
  3 12  1  0  0  0  0
  4  5  1  0  0  0  0
  5  6  1  0  0  0  0
  5 10  2  0  0  0  0
  6  7  2  0  0  0  0
  7  8  1  0  0  0  0
  7 24  1  0  0  0  0
  8  9  2  0  0  0  0
  9 10  1  0  0  0  0
 10 11  1  0  0  0  0
 11 12  2  0  0  0  0
 11 15  1  0  0  0  0
 12 13  1  0  0  0  0
 13 14  2  0  0  0  0
 15 16  2  0  0  0  0
 15 20  1  0  0  0  0
 16 17  1  0  0  0  0
 17 18  2  0  0  0  0
 18 19  1  0  0  0  0
 19 20  2  0  0  0  0
 21 22  1  0  0  0  0
 21 23  1  0  0  0  0
 24 25  1  0  0  0  0
 24 26  1  0  0  0  0
M  CHG  1  21   1
M  END
>  <CHROM.1>
5.66085634,52.87427692,111.05012668,-76.18639027,-85.35182636,-1.84210182
1.05211200,-2.09014738

>  <Name>
1f1t Malachite green aptamer (Xray 2.8A)

>  <RI>
0

>  <Rbt.Current_Directory>
/home/itssahil/PROJECTS/Mol_Feturizer/New_Systems/rnas/1f1t

>  <Rbt.Executable>
rbdock ($Id: //depot/dev/client3/rdock/2013.1/src/exe/rbdock.cxx#4 $)

>  <Rbt.Library>
libRbt.so (2013.1, Build901 2013/11/27)

>  <Rbt.Parameter_File>
/export/apps/rDock/src/rDock_2013.1_src/data/scripts/dock_solv.prm

>  <Rbt.Receptor>
prm/pocket_docking_5.prm

>  <SCORE>
-62.8659

>  <SCORE.INTER>
-62.9344

>  <SCORE.INTER.CONST>
1

>  <SCORE.INTER.POLAR>
0

>  <SCORE.INTER.ROT>
2

>  <SCORE.INTER.SOLV>
11.1747

>  <SCORE.INTER.VDW>
-50.6145

>  <SCORE.INTER.norm>
-2.42055

>  <SCORE.INTRA>
0.0684965

>  <SCORE.INTRA.DIHEDRAL>
-1.04168

>  <SCORE.INTRA.DIHEDRAL.0>
4.18538

>  <SCORE.INTRA.POLAR>
0

>  <SCORE.INTRA.POLAR.0>
0

>  <SCORE.INTRA.REPUL>
0

>  <SCORE.INTRA.REPUL.0>
0

>  <SCORE.INTRA.SOLV>
0.0187044

>  <SCORE.INTRA.SOLV.lig_0>
-5.16926

>  <SCORE.INTRA.VDW>
0.579984

>  <SCORE.INTRA.VDW.0>
1.11912

>  <SCORE.INTRA.norm>
0.00263448

>  <SCORE.RESTR>
0

>  <SCORE.RESTR.CAVITY>
0

>  <SCORE.RESTR.norm>
0

>  <SCORE.SYSTEM>
0

>  <SCORE.SYSTEM.CONST>
0

>  <SCORE.SYSTEM.DIHEDRAL>
0

>  <SCORE.SYSTEM.SOLV>
0

>  <SCORE.SYSTEM.norm>
0

>  <SCORE.heavy>
26

>  <SCORE.norm>
-2.41792

>  <RMSD>
0.691

$$$$
1f1t Malachite green aptamer (Xray 2.8A)
 OpenBabel11021811393D
libRbt.so/2013.1/901 2013/11/27
 26 29  0  0  0  0  0  0  0  0999 V2000
  111.1850  -74.5808  -81.9353 C   0  0  0  0  0  0  0  0  0  0  0  0
  111.7200  -75.8519  -82.4005 C   0  0  0  0  0  0  0  0  0  0  0  0
  111.4648  -76.0916  -83.7521 C   0  0  0  0  0  0  0  0  0  0  0  0
  112.0338  -77.4020  -84.1749 O   0  0  0  0  0  0  0  0  0  0  0  0
  111.8050  -77.6077  -85.4132 C   0  0  0  0  0  0  0  0  0  0  0  0
  112.3879  -78.9125  -85.7255 C   0  0  0  0  0  0  0  0  0  0  0  0
  112.2312  -79.3111  -87.1003 C   0  0  0  0  0  0  0  0  0  0  0  0
  111.5800  -78.4994  -88.0619 C   0  0  0  0  0  0  0  0  0  0  0  0
  111.0142  -77.2174  -87.6853 C   0  0  0  0  0  0  0  0  0  0  0  0
  111.1467  -76.8042  -86.3098 C   0  0  0  0  0  0  0  0  0  0  0  0
  110.5168  -75.4665  -86.0001 C   0  0  0  0  0  0  0  0  0  0  0  0
  110.7824  -75.2612  -84.6343 C   0  0  0  0  0  0  0  0  0  0  0  0
  110.2454  -73.9894  -84.1452 C   0  0  0  0  0  0  0  0  0  0  0  0
  110.4954  -73.7177  -82.7645 C   0  0  0  0  0  0  0  0  0  0  0  0
  109.8569  -74.7061  -86.9468 C   0  0  0  0  0  0  0  0  0  0  0  0
  108.8082  -75.1611  -87.7797 C   0  0  0  0  0  0  0  0  0  0  0  0
  108.1193  -74.4029  -88.7281 C   0  0  0  0  0  0  0  0  0  0  0  0
  108.4682  -73.0034  -88.9216 C   0  0  0  0  0  0  0  0  0  0  0  0
  109.5275  -72.5826  -88.0820 C   0  0  0  0  0  0  0  0  0  0  0  0
  110.2477  -73.3076  -87.1225 C   0  0  0  0  0  0  0  0  0  0  0  0
  111.3620  -74.1966  -80.6134 N   0  3  0  0  0  0  0  0  0  0  0  0
  112.0856  -75.0229  -79.6536 C   0  0  0  0  0  0  0  0  0  0  0  0
  110.8714  -72.9469  -79.9918 C   0  0  0  0  0  0  0  0  0  0  0  0
  112.7755  -80.5785  -87.3700 N   0  0  0  0  0  0  0  0  0  0  0  0
  113.3398  -81.6158  -86.4779 C   0  0  0  0  0  0  0  0  0  0  0  0
  112.8014  -81.0259  -88.8074 C   0  0  0  0  0  0  0  0  0  0  0  0
  1  2  1  0  0  0  0
  1 14  1  0  0  0  0
  1 21  2  0  0  0  0
  2  3  2  0  0  0  0
  3  4  1  0  0  0  0
  3 12  1  0  0  0  0
  4  5  1  0  0  0  0
  5  6  1  0  0  0  0
  5 10  2  0  0  0  0
  6  7  2  0  0  0  0
  7  8  1  0  0  0  0
  7 24  1  0  0  0  0
  8  9  2  0  0  0  0
  9 10  1  0  0  0  0
 10 11  1  0  0  0  0
 11 12  2  0  0  0  0
 11 15  1  0  0  0  0
 12 13  1  0  0  0  0
 13 14  2  0  0  0  0
 15 16  2  0  0  0  0
 15 20  1  0  0  0  0
 16 17  1  0  0  0  0
 17 18  2  0  0  0  0
 18 19  1  0  0  0  0
 19 20  2  0  0  0  0
 21 22  1  0  0  0  0
 21 23  1  0  0  0  0
 24 25  1  0  0  0  0
 24 26  1  0  0  0  0
M  CHG  1  21   1
M  END
>  <CHROM.1>
7.47756507,52.71283641,111.07520276,-76.17731383,-85.35286258,-1.85220243
1.04684829,-2.07820219

>  <Name>
1f1t Malachite green aptamer (Xray 2.8A)

>  <RI>
0

>  <Rbt.Current_Directory>
/home/itssahil/PROJECTS/Mol_Feturizer/New_Systems/rnas/1f1t

>  <Rbt.Executable>
rbdock ($Id: //depot/dev/client3/rdock/2013.1/src/exe/rbdock.cxx#4 $)

>  <Rbt.Library>
libRbt.so (2013.1, Build901 2013/11/27)

>  <Rbt.Parameter_File>
/export/apps/rDock/src/rDock_2013.1_src/data/scripts/dock_solv.prm

>  <Rbt.Receptor>
prm/pocket_docking_6.prm

>  <SCORE>
-62.7958

>  <SCORE.INTER>
-62.8842

>  <SCORE.INTER.CONST>
1

>  <SCORE.INTER.POLAR>
0

>  <SCORE.INTER.ROT>
2

>  <SCORE.INTER.SOLV>
11.177

>  <SCORE.INTER.VDW>
-50.5818

>  <SCORE.INTER.norm>
-2.41862

>  <SCORE.INTRA>
0.0883485

>  <SCORE.INTRA.DIHEDRAL>
-0.964479

>  <SCORE.INTRA.DIHEDRAL.0>
4.18538

>  <SCORE.INTRA.POLAR>
0

>  <SCORE.INTRA.POLAR.0>
0

>  <SCORE.INTRA.REPUL>
0

>  <SCORE.INTRA.REPUL.0>
0

>  <SCORE.INTRA.SOLV>
0.0188727

>  <SCORE.INTRA.SOLV.lig_0>
-5.16926

>  <SCORE.INTRA.VDW>
0.561152

>  <SCORE.INTRA.VDW.0>
1.11912

>  <SCORE.INTRA.norm>
0.00339802

>  <SCORE.RESTR>
0

>  <SCORE.RESTR.CAVITY>
0

>  <SCORE.RESTR.norm>
0

>  <SCORE.SYSTEM>
0

>  <SCORE.SYSTEM.CONST>
0

>  <SCORE.SYSTEM.DIHEDRAL>
0

>  <SCORE.SYSTEM.SOLV>
0

>  <SCORE.SYSTEM.norm>
0

>  <SCORE.heavy>
26

>  <SCORE.norm>
-2.41522

>  <RMSD>
0.691

$$$$
1f1t Malachite green aptamer (Xray 2.8A)
 OpenBabel11021811393D
libRbt.so/2013.1/901 2013/11/27
 26 29  0  0  0  0  0  0  0  0999 V2000
  111.1336  -74.5846  -81.9374 C   0  0  0  0  0  0  0  0  0  0  0  0
  111.6656  -75.8601  -82.3936 C   0  0  0  0  0  0  0  0  0  0  0  0
  111.4185  -76.1042  -83.7459 C   0  0  0  0  0  0  0  0  0  0  0  0
  111.9840  -77.4190  -84.1595 O   0  0  0  0  0  0  0  0  0  0  0  0
  111.7628  -77.6288  -85.3984 C   0  0  0  0  0  0  0  0  0  0  0  0
  112.3415  -78.9376  -85.7014 C   0  0  0  0  0  0  0  0  0  0  0  0
  112.1923  -79.3412  -87.0756 C   0  0  0  0  0  0  0  0  0  0  0  0
  111.5515  -78.5305  -88.0449 C   0  0  0  0  0  0  0  0  0  0  0  0
  110.9893  -77.2441  -87.6775 C   0  0  0  0  0  0  0  0  0  0  0  0
  111.1144  -76.8259  -86.3028 C   0  0  0  0  0  0  0  0  0  0  0  0
  110.4888  -75.4840  -86.0029 C   0  0  0  0  0  0  0  0  0  0  0  0
  110.7461  -75.2743  -84.6362 C   0  0  0  0  0  0  0  0  0  0  0  0
  110.2119  -73.9979  -84.1560 C   0  0  0  0  0  0  0  0  0  0  0  0
  110.4538  -73.7217  -82.7748 C   0  0  0  0  0  0  0  0  0  0  0  0
  109.8390  -74.7243  -86.9572 C   0  0  0  0  0  0  0  0  0  0  0  0
  108.8116  -75.1850  -87.8132 C   0  0  0  0  0  0  0  0  0  0  0  0
  108.1328  -74.4279  -88.7697 C   0  0  0  0  0  0  0  0  0  0  0  0
  108.4701  -73.0235  -88.9473 C   0  0  0  0  0  0  0  0  0  0  0  0
  109.5084  -72.5970  -88.0847 C   0  0  0  0  0  0  0  0  0  0  0  0
  110.2178  -73.3205  -87.1162 C   0  0  0  0  0  0  0  0  0  0  0  0
  111.3034  -74.1958  -80.6159 N   0  3  0  0  0  0  0  0  0  0  0  0
  112.0165  -75.0214  -79.6477 C   0  0  0  0  0  0  0  0  0  0  0  0
  110.8146  -72.9411  -80.0027 C   0  0  0  0  0  0  0  0  0  0  0  0
  112.7323  -80.6123  -87.3363 N   0  0  0  0  0  0  0  0  0  0  0  0
  113.3201  -81.6330  -86.4403 C   0  0  0  0  0  0  0  0  0  0  0  0
  112.7242  -81.0847  -88.7659 C   0  0  0  0  0  0  0  0  0  0  0  0
  1  2  1  0  0  0  0
  1 14  1  0  0  0  0
  1 21  2  0  0  0  0
  2  3  2  0  0  0  0
  3  4  1  0  0  0  0
  3 12  1  0  0  0  0
  4  5  1  0  0  0  0
  5  6  1  0  0  0  0
  5 10  2  0  0  0  0
  6  7  2  0  0  0  0
  7  8  1  0  0  0  0
  7 24  1  0  0  0  0
  8  9  2  0  0  0  0
  9 10  1  0  0  0  0
 10 11  1  0  0  0  0
 11 12  2  0  0  0  0
 11 15  1  0  0  0  0
 12 13  1  0  0  0  0
 13 14  2  0  0  0  0
 15 16  2  0  0  0  0
 15 20  1  0  0  0  0
 16 17  1  0  0  0  0
 17 18  2  0  0  0  0
 18 19  1  0  0  0  0
 19 20  2  0  0  0  0
 21 22  1  0  0  0  0
 21 23  1  0  0  0  0
 24 25  1  0  0  0  0
 24 26  1  0  0  0  0
M  CHG  1  21   1
M  END
>  <CHROM.1>
5.50476905,51.41161614,111.03888936,-76.19485841,-85.34876014,-1.85837367
1.05389302,-2.07731354

>  <Name>
1f1t Malachite green aptamer (Xray 2.8A)

>  <RI>
0

>  <Rbt.Current_Directory>
/home/itssahil/PROJECTS/Mol_Feturizer/New_Systems/rnas/1f1t

>  <Rbt.Executable>
rbdock ($Id: //depot/dev/client3/rdock/2013.1/src/exe/rbdock.cxx#4 $)

>  <Rbt.Library>
libRbt.so (2013.1, Build901 2013/11/27)

>  <Rbt.Parameter_File>
/export/apps/rDock/src/rDock_2013.1_src/data/scripts/dock_solv.prm

>  <Rbt.Receptor>
prm/pocket_docking_6.prm

>  <SCORE>
-62.7925

>  <SCORE.INTER>
-62.8757

>  <SCORE.INTER.CONST>
1

>  <SCORE.INTER.POLAR>
0

>  <SCORE.INTER.ROT>
2

>  <SCORE.INTER.SOLV>
11.1462

>  <SCORE.INTER.VDW>
-50.5659

>  <SCORE.INTER.norm>
-2.4183

>  <SCORE.INTRA>
0.083217

>  <SCORE.INTRA.DIHEDRAL>
-1.16734

>  <SCORE.INTRA.DIHEDRAL.0>
4.18538

>  <SCORE.INTRA.POLAR>
0

>  <SCORE.INTRA.POLAR.0>
0

>  <SCORE.INTRA.REPUL>
0

>  <SCORE.INTRA.REPUL.0>
0

>  <SCORE.INTRA.SOLV>
0.0203411

>  <SCORE.INTRA.SOLV.lig_0>
-5.16926

>  <SCORE.INTRA.VDW>
0.656716

>  <SCORE.INTRA.VDW.0>
1.11912

>  <SCORE.INTRA.norm>
0.00320065

>  <SCORE.RESTR>
0

>  <SCORE.RESTR.CAVITY>
0

>  <SCORE.RESTR.norm>
0

>  <SCORE.SYSTEM>
0

>  <SCORE.SYSTEM.CONST>
0

>  <SCORE.SYSTEM.DIHEDRAL>
0

>  <SCORE.SYSTEM.SOLV>
0

>  <SCORE.SYSTEM.norm>
0

>  <SCORE.heavy>
26

>  <SCORE.norm>
-2.4151

>  <RMSD>
0.691

$$$$
1f1t Malachite green aptamer (Xray 2.8A)
 OpenBabel11021811393D
libRbt.so/2013.1/901 2013/11/27
 26 29  0  0  0  0  0  0  0  0999 V2000
  111.1790  -74.5886  -81.9493 C   0  0  0  0  0  0  0  0  0  0  0  0
  111.7092  -75.8636  -82.4095 C   0  0  0  0  0  0  0  0  0  0  0  0
  111.4541  -76.1070  -83.7605 C   0  0  0  0  0  0  0  0  0  0  0  0
  112.0181  -77.4212  -84.1782 O   0  0  0  0  0  0  0  0  0  0  0  0
  111.7895  -77.6304  -85.4159 C   0  0  0  0  0  0  0  0  0  0  0  0
  112.3673  -78.9386  -85.7231 C   0  0  0  0  0  0  0  0  0  0  0  0
  112.2101  -79.3415  -87.0966 C   0  0  0  0  0  0  0  0  0  0  0  0
  111.5630  -78.5306  -88.0616 C   0  0  0  0  0  0  0  0  0  0  0  0
  111.0021  -77.2449  -87.6900 C   0  0  0  0  0  0  0  0  0  0  0  0
  111.1352  -76.8274  -86.3159 C   0  0  0  0  0  0  0  0  0  0  0  0
  110.5105  -75.4860  -86.0115 C   0  0  0  0  0  0  0  0  0  0  0  0
  110.7758  -75.2770  -84.6462 C   0  0  0  0  0  0  0  0  0  0  0  0
  110.2436  -74.0013  -84.1620 C   0  0  0  0  0  0  0  0  0  0  0  0
  110.4936  -73.7257  -82.7821 C   0  0  0  0  0  0  0  0  0  0  0  0
  109.8544  -74.7263  -86.9614 C   0  0  0  0  0  0  0  0  0  0  0  0
  108.8153  -75.1845  -87.8045 C   0  0  0  0  0  0  0  0  0  0  0  0
  108.1302  -74.4271  -88.7563 C   0  0  0  0  0  0  0  0  0  0  0  0
  108.4732  -73.0252  -88.9426 C   0  0  0  0  0  0  0  0  0  0  0  0
  109.5230  -72.6012  -88.0929 C   0  0  0  0  0  0  0  0  0  0  0  0
  110.2390  -73.3252  -87.1296 C   0  0  0  0  0  0  0  0  0  0  0  0
  111.3565  -74.2005  -80.6286 N   0  3  0  0  0  0  0  0  0  0  0  0
  112.0759  -75.0262  -79.6653 C   0  0  0  0  0  0  0  0  0  0  0  0
  110.8705  -72.9465  -80.0118 C   0  0  0  0  0  0  0  0  0  0  0  0
  112.7495  -80.6120  -87.3614 N   0  0  0  0  0  0  0  0  0  0  0  0
  113.3283  -81.6396  -86.4674 C   0  0  0  0  0  0  0  0  0  0  0  0
  112.7513  -81.0752  -88.7940 C   0  0  0  0  0  0  0  0  0  0  0  0
  1  2  1  0  0  0  0
  1 14  1  0  0  0  0
  1 21  2  0  0  0  0
  2  3  2  0  0  0  0
  3  4  1  0  0  0  0
  3 12  1  0  0  0  0
  4  5  1  0  0  0  0
  5  6  1  0  0  0  0
  5 10  2  0  0  0  0
  6  7  2  0  0  0  0
  7  8  1  0  0  0  0
  7 24  1  0  0  0  0
  8  9  2  0  0  0  0
  9 10  1  0  0  0  0
 10 11  1  0  0  0  0
 11 12  2  0  0  0  0
 11 15  1  0  0  0  0
 12 13  1  0  0  0  0
 13 14  2  0  0  0  0
 15 16  2  0  0  0  0
 15 20  1  0  0  0  0
 16 17  1  0  0  0  0
 17 18  2  0  0  0  0
 18 19  1  0  0  0  0
 19 20  2  0  0  0  0
 21 22  1  0  0  0  0
 21 23  1  0  0  0  0
 24 25  1  0  0  0  0
 24 26  1  0  0  0  0
M  CHG  1  21   1
M  END
>  <CHROM.1>
6.36757463,51.92024649,111.06516109,-76.19688585,-85.36113004,-1.84899640
1.05053853,-2.08471954

>  <Name>
1f1t Malachite green aptamer (Xray 2.8A)

>  <RI>
0

>  <Rbt.Current_Directory>
/home/itssahil/PROJECTS/Mol_Feturizer/New_Systems/rnas/1f1t

>  <Rbt.Executable>
rbdock ($Id: //depot/dev/client3/rdock/2013.1/src/exe/rbdock.cxx#4 $)

>  <Rbt.Library>
libRbt.so (2013.1, Build901 2013/11/27)

>  <Rbt.Parameter_File>
/export/apps/rDock/src/rDock_2013.1_src/data/scripts/dock_solv.prm

>  <Rbt.Receptor>
prm/pocket_docking_7.prm

>  <SCORE>
-62.8251

>  <SCORE.INTER>
-62.9028

>  <SCORE.INTER.CONST>
1

>  <SCORE.INTER.POLAR>
0

>  <SCORE.INTER.ROT>
2

>  <SCORE.INTER.SOLV>
11.1637

>  <SCORE.INTER.VDW>
-50.5898

>  <SCORE.INTER.norm>
-2.41934

>  <SCORE.INTRA>
0.0776725

>  <SCORE.INTRA.DIHEDRAL>
-1.08705

>  <SCORE.INTRA.DIHEDRAL.0>
4.18538

>  <SCORE.INTRA.POLAR>
0

>  <SCORE.INTRA.POLAR.0>
0

>  <SCORE.INTRA.REPUL>
0

>  <SCORE.INTRA.REPUL.0>
0

>  <SCORE.INTRA.SOLV>
0.0197701

>  <SCORE.INTRA.SOLV.lig_0>
-5.16926

>  <SCORE.INTRA.VDW>
0.611313

>  <SCORE.INTRA.VDW.0>
1.11912

>  <SCORE.INTRA.norm>
0.00298741

>  <SCORE.RESTR>
0

>  <SCORE.RESTR.CAVITY>
0

>  <SCORE.RESTR.norm>
0

>  <SCORE.SYSTEM>
0

>  <SCORE.SYSTEM.CONST>
0

>  <SCORE.SYSTEM.DIHEDRAL>
0

>  <SCORE.SYSTEM.SOLV>
0

>  <SCORE.SYSTEM.norm>
0

>  <SCORE.heavy>
26

>  <SCORE.norm>
-2.41635

>  <RMSD>
0.691

$$$$
1f1t Malachite green aptamer (Xray 2.8A)
 OpenBabel11021811393D
libRbt.so/2013.1/901 2013/11/27
 26 29  0  0  0  0  0  0  0  0999 V2000
  111.1714  -74.6319  -81.9494 C   0  0  0  0  0  0  0  0  0  0  0  0
  111.7089  -75.8977  -82.4261 C   0  0  0  0  0  0  0  0  0  0  0  0
  111.4536  -76.1259  -83.7796 C   0  0  0  0  0  0  0  0  0  0  0  0
  112.0252  -77.4313  -84.2143 O   0  0  0  0  0  0  0  0  0  0  0  0
  111.7964  -77.6265  -85.4543 C   0  0  0  0  0  0  0  0  0  0  0  0
  112.3819  -78.9272  -85.7784 C   0  0  0  0  0  0  0  0  0  0  0  0
  112.2255  -79.3139  -87.1567 C   0  0  0  0  0  0  0  0  0  0  0  0
  111.5721  -78.4951  -88.1107 C   0  0  0  0  0  0  0  0  0  0  0  0
  111.0037  -77.2176  -87.7225 C   0  0  0  0  0  0  0  0  0  0  0  0
  111.1359  -76.8164  -86.3434 C   0  0  0  0  0  0  0  0  0  0  0  0
  110.5033  -75.4829  -86.0216 C   0  0  0  0  0  0  0  0  0  0  0  0
  110.7691  -75.2892  -84.6541 C   0  0  0  0  0  0  0  0  0  0  0  0
  110.2296  -74.0230  -84.1535 C   0  0  0  0  0  0  0  0  0  0  0  0
  110.4796  -73.7630  -82.7706 C   0  0  0  0  0  0  0  0  0  0  0  0
  109.8413  -74.7155  -86.9612 C   0  0  0  0  0  0  0  0  0  0  0  0
  108.7840  -75.1615  -87.7880 C   0  0  0  0  0  0  0  0  0  0  0  0
  108.0930  -74.3962  -88.7291 C   0  0  0  0  0  0  0  0  0  0  0  0
  108.4492  -72.9982  -88.9208 C   0  0  0  0  0  0  0  0  0  0  0  0
  109.5169  -72.5865  -88.0875 C   0  0  0  0  0  0  0  0  0  0  0  0
  110.2394  -73.3189  -87.1354 C   0  0  0  0  0  0  0  0  0  0  0  0
  111.3482  -74.2591  -80.6242 N   0  3  0  0  0  0  0  0  0  0  0  0
  112.0739  -75.0923  -79.6721 C   0  0  0  0  0  0  0  0  0  0  0  0
  110.8552  -73.0160  -79.9913 C   0  0  0  0  0  0  0  0  0  0  0  0
  112.7724  -80.5776  -87.4379 N   0  0  0  0  0  0  0  0  0  0  0  0
  112.9779  -81.2976  -88.7145 C   0  0  0  0  0  0  0  0  0  0  0  0
  113.2736  -81.3869  -86.2713 C   0  0  0  0  0  0  0  0  0  0  0  0
  1  2  1  0  0  0  0
  1 14  1  0  0  0  0
  1 21  2  0  0  0  0
  2  3  2  0  0  0  0
  3  4  1  0  0  0  0
  3 12  1  0  0  0  0
  4  5  1  0  0  0  0
  5  6  1  0  0  0  0
  5 10  2  0  0  0  0
  6  7  2  0  0  0  0
  7  8  1  0  0  0  0
  7 24  1  0  0  0  0
  8  9  2  0  0  0  0
  9 10  1  0  0  0  0
 10 11  1  0  0  0  0
 11 12  2  0  0  0  0
 11 15  1  0  0  0  0
 12 13  1  0  0  0  0
 13 14  2  0  0  0  0
 15 16  2  0  0  0  0
 15 20  1  0  0  0  0
 16 17  1  0  0  0  0
 17 18  2  0  0  0  0
 18 19  1  0  0  0  0
 19 20  2  0  0  0  0
 21 22  1  0  0  0  0
 21 23  1  0  0  0  0
 24 25  1  0  0  0  0
 24 26  1  0  0  0  0
M  CHG  1  21   1
M  END
>  <CHROM.1>
-172.09239116,53.40676100,111.06860330,-76.20044360,-85.36137510,-1.86595760
1.04503516,-2.06866755

>  <Name>
1f1t Malachite green aptamer (Xray 2.8A)

>  <RI>
0

>  <Rbt.Current_Directory>
/home/itssahil/PROJECTS/Mol_Feturizer/New_Systems/rnas/1f1t

>  <Rbt.Executable>
rbdock ($Id: //depot/dev/client3/rdock/2013.1/src/exe/rbdock.cxx#4 $)

>  <Rbt.Library>
libRbt.so (2013.1, Build901 2013/11/27)

>  <Rbt.Parameter_File>
/export/apps/rDock/src/rDock_2013.1_src/data/scripts/dock_solv.prm

>  <Rbt.Receptor>
prm/pocket_docking_4.prm

>  <SCORE>
-59.3199

>  <SCORE.INTER>
-62.6859

>  <SCORE.INTER.CONST>
1

>  <SCORE.INTER.POLAR>
0

>  <SCORE.INTER.ROT>
2

>  <SCORE.INTER.SOLV>
11.1439

>  <SCORE.INTER.VDW>
-50.4385

>  <SCORE.INTER.norm>
-2.41099

>  <SCORE.INTRA>
3.36596

>  <SCORE.INTRA.DIHEDRAL>
-0.883421

>  <SCORE.INTRA.DIHEDRAL.0>
4.18538

>  <SCORE.INTRA.POLAR>
0

>  <SCORE.INTRA.POLAR.0>
0

>  <SCORE.INTRA.REPUL>
0

>  <SCORE.INTRA.REPUL.0>
0

>  <SCORE.INTRA.SOLV>
0.0161448

>  <SCORE.INTRA.SOLV.lig_0>
-5.16926

>  <SCORE.INTRA.VDW>
3.7996

>  <SCORE.INTRA.VDW.0>
1.11912

>  <SCORE.INTRA.norm>
0.12946

>  <SCORE.RESTR>
0

>  <SCORE.RESTR.CAVITY>
0

>  <SCORE.RESTR.norm>
0

>  <SCORE.SYSTEM>
0

>  <SCORE.SYSTEM.CONST>
0

>  <SCORE.SYSTEM.DIHEDRAL>
0

>  <SCORE.SYSTEM.SOLV>
0

>  <SCORE.SYSTEM.norm>
0

>  <SCORE.heavy>
26

>  <SCORE.norm>
-2.28153

>  <RMSD>
0.692

$$$$
1f1t Malachite green aptamer (Xray 2.8A)
 OpenBabel11021811393D
libRbt.so/2013.1/901 2013/11/27
 26 29  0  0  0  0  0  0  0  0999 V2000
  111.1917  -74.5962  -81.9501 C   0  0  0  0  0  0  0  0  0  0  0  0
  111.7194  -75.8699  -82.4165 C   0  0  0  0  0  0  0  0  0  0  0  0
  111.4582  -76.1092  -83.7670 C   0  0  0  0  0  0  0  0  0  0  0  0
  112.0199  -77.4223  -84.1912 O   0  0  0  0  0  0  0  0  0  0  0  0
  111.7857  -77.6276  -85.4285 C   0  0  0  0  0  0  0  0  0  0  0  0
  112.3617  -78.9351  -85.7423 C   0  0  0  0  0  0  0  0  0  0  0  0
  112.1983  -79.3338  -87.1163 C   0  0  0  0  0  0  0  0  0  0  0  0
  111.5472  -78.5197  -88.0760 C   0  0  0  0  0  0  0  0  0  0  0  0
  110.9884  -77.2350  -87.6980 C   0  0  0  0  0  0  0  0  0  0  0  0
  111.1277  -76.8217  -86.3232 C   0  0  0  0  0  0  0  0  0  0  0  0
  110.5049  -75.4811  -86.0119 C   0  0  0  0  0  0  0  0  0  0  0  0
  110.7763  -75.2762  -84.6472 C   0  0  0  0  0  0  0  0  0  0  0  0
  110.2468  -74.0019  -84.1568 C   0  0  0  0  0  0  0  0  0  0  0  0
  110.5030  -73.7305  -82.7772 C   0  0  0  0  0  0  0  0  0  0  0  0
  109.8449  -74.7182  -86.9566 C   0  0  0  0  0  0  0  0  0  0  0  0
  108.7972  -75.1715  -87.7917 C   0  0  0  0  0  0  0  0  0  0  0  0
  108.1082  -74.4109  -88.7381 C   0  0  0  0  0  0  0  0  0  0  0  0
  108.4560  -73.0105  -88.9269 C   0  0  0  0  0  0  0  0  0  0  0  0
  109.5143  -72.5914  -88.0852 C   0  0  0  0  0  0  0  0  0  0  0  0
  110.2345  -73.3188  -87.1276 C   0  0  0  0  0  0  0  0  0  0  0  0
  111.3752  -74.2122  -80.6290 N   0  3  0  0  0  0  0  0  0  0  0  0
  112.0986  -75.0411  -79.6714 C   0  0  0  0  0  0  0  0  0  0  0  0
  110.8924  -72.9599  -80.0062 C   0  0  0  0  0  0  0  0  0  0  0  0
  112.7360  -80.6037  -87.3873 N   0  0  0  0  0  0  0  0  0  0  0  0
  113.3462  -81.6216  -86.5032 C   0  0  0  0  0  0  0  0  0  0  0  0
  112.6976  -81.0780  -88.8158 C   0  0  0  0  0  0  0  0  0  0  0  0
  1  2  1  0  0  0  0
  1 14  1  0  0  0  0
  1 21  2  0  0  0  0
  2  3  2  0  0  0  0
  3  4  1  0  0  0  0
  3 12  1  0  0  0  0
  4  5  1  0  0  0  0
  5  6  1  0  0  0  0
  5 10  2  0  0  0  0
  6  7  2  0  0  0  0
  7  8  1  0  0  0  0
  7 24  1  0  0  0  0
  8  9  2  0  0  0  0
  9 10  1  0  0  0  0
 10 11  1  0  0  0  0
 11 12  2  0  0  0  0
 11 15  1  0  0  0  0
 12 13  1  0  0  0  0
 13 14  2  0  0  0  0
 15 16  2  0  0  0  0
 15 20  1  0  0  0  0
 16 17  1  0  0  0  0
 17 18  2  0  0  0  0
 18 19  1  0  0  0  0
 19 20  2  0  0  0  0
 21 22  1  0  0  0  0
 21 23  1  0  0  0  0
 24 25  1  0  0  0  0
 24 26  1  0  0  0  0
M  CHG  1  21   1
M  END
>  <CHROM.1>
4.76840557,52.26761437,111.06196895,-76.19418543,-85.36618536,-1.84005292
1.04840498,-2.08950956

>  <Name>
1f1t Malachite green aptamer (Xray 2.8A)

>  <RI>
0

>  <Rbt.Current_Directory>
/home/itssahil/PROJECTS/Mol_Feturizer/New_Systems/rnas/1f1t

>  <Rbt.Executable>
rbdock ($Id: //depot/dev/client3/rdock/2013.1/src/exe/rbdock.cxx#4 $)

>  <Rbt.Library>
libRbt.so (2013.1, Build901 2013/11/27)

>  <Rbt.Parameter_File>
/export/apps/rDock/src/rDock_2013.1_src/data/scripts/dock_solv.prm

>  <Rbt.Receptor>
prm/pocket_docking_4.prm

>  <SCORE>
-62.8907

>  <SCORE.INTER>
-62.9481

>  <SCORE.INTER.CONST>
1

>  <SCORE.INTER.POLAR>
0

>  <SCORE.INTER.ROT>
2

>  <SCORE.INTER.SOLV>
11.1854

>  <SCORE.INTER.VDW>
-50.6272

>  <SCORE.INTER.norm>
-2.42108

>  <SCORE.INTRA>
0.0573973

>  <SCORE.INTRA.DIHEDRAL>
-1.126

>  <SCORE.INTRA.DIHEDRAL.0>
4.18538

>  <SCORE.INTRA.POLAR>
0

>  <SCORE.INTRA.POLAR.0>
0

>  <SCORE.INTRA.REPUL>
0

>  <SCORE.INTRA.REPUL.0>
0

>  <SCORE.INTRA.SOLV>
0.0193845

>  <SCORE.INTRA.SOLV.lig_0>
-5.16926

>  <SCORE.INTRA.VDW>
0.610707

>  <SCORE.INTRA.VDW.0>
1.11912

>  <SCORE.INTRA.norm>
0.00220759

>  <SCORE.RESTR>
0

>  <SCORE.RESTR.CAVITY>
0

>  <SCORE.RESTR.norm>
0

>  <SCORE.SYSTEM>
0

>  <SCORE.SYSTEM.CONST>
0

>  <SCORE.SYSTEM.DIHEDRAL>
0

>  <SCORE.SYSTEM.SOLV>
0

>  <SCORE.SYSTEM.norm>
0

>  <SCORE.heavy>
26

>  <SCORE.norm>
-2.41887

>  <RMSD>
0.692

$$$$
1f1t Malachite green aptamer (Xray 2.8A)
 OpenBabel11021811393D
libRbt.so/2013.1/901 2013/11/27
 26 29  0  0  0  0  0  0  0  0999 V2000
  111.1896  -74.5934  -81.9505 C   0  0  0  0  0  0  0  0  0  0  0  0
  111.7170  -75.8676  -82.4160 C   0  0  0  0  0  0  0  0  0  0  0  0
  111.4559  -76.1077  -83.7664 C   0  0  0  0  0  0  0  0  0  0  0  0
  112.0174  -77.4212  -84.1896 O   0  0  0  0  0  0  0  0  0  0  0  0
  111.7833  -77.6273  -85.4268 C   0  0  0  0  0  0  0  0  0  0  0  0
  112.3591  -78.9351  -85.7396 C   0  0  0  0  0  0  0  0  0  0  0  0
  112.1957  -79.3347  -87.1134 C   0  0  0  0  0  0  0  0  0  0  0  0
  111.5449  -78.5211  -88.0737 C   0  0  0  0  0  0  0  0  0  0  0  0
  110.9863  -77.2360  -87.6966 C   0  0  0  0  0  0  0  0  0  0  0  0
  111.1256  -76.8218  -86.3221 C   0  0  0  0  0  0  0  0  0  0  0  0
  110.5030  -75.4809  -86.0118 C   0  0  0  0  0  0  0  0  0  0  0  0
  110.7743  -75.2752  -84.6472 C   0  0  0  0  0  0  0  0  0  0  0  0
  110.2450  -74.0003  -84.1577 C   0  0  0  0  0  0  0  0  0  0  0  0
  110.5011  -73.7281  -82.7783 C   0  0  0  0  0  0  0  0  0  0  0  0
  109.8432  -74.7185  -86.9571 C   0  0  0  0  0  0  0  0  0  0  0  0
  108.7962  -75.1724  -87.7926 C   0  0  0  0  0  0  0  0  0  0  0  0
  108.1075  -74.4124  -88.7396 C   0  0  0  0  0  0  0  0  0  0  0  0
  108.4548  -73.0119  -88.9286 C   0  0  0  0  0  0  0  0  0  0  0  0
  109.5124  -72.5921  -88.0864 C   0  0  0  0  0  0  0  0  0  0  0  0
  110.2324  -73.3190  -87.1282 C   0  0  0  0  0  0  0  0  0  0  0  0
  111.3730  -74.2085  -80.6296 N   0  3  0  0  0  0  0  0  0  0  0  0
  112.0962  -75.0369  -79.6714 C   0  0  0  0  0  0  0  0  0  0  0  0
  110.8904  -72.9557  -80.0078 C   0  0  0  0  0  0  0  0  0  0  0  0
  112.7332  -80.6049  -87.3835 N   0  0  0  0  0  0  0  0  0  0  0  0
  113.3377  -81.6248  -86.4977 C   0  0  0  0  0  0  0  0  0  0  0  0
  112.7014  -81.0771  -88.8128 C   0  0  0  0  0  0  0  0  0  0  0  0
  1  2  1  0  0  0  0
  1 14  1  0  0  0  0
  1 21  2  0  0  0  0
  2  3  2  0  0  0  0
  3  4  1  0  0  0  0
  3 12  1  0  0  0  0
  4  5  1  0  0  0  0
  5  6  1  0  0  0  0
  5 10  2  0  0  0  0
  6  7  2  0  0  0  0
  7  8  1  0  0  0  0
  7 24  1  0  0  0  0
  8  9  2  0  0  0  0
  9 10  1  0  0  0  0
 10 11  1  0  0  0  0
 11 12  2  0  0  0  0
 11 15  1  0  0  0  0
 12 13  1  0  0  0  0
 13 14  2  0  0  0  0
 15 16  2  0  0  0  0
 15 20  1  0  0  0  0
 16 17  1  0  0  0  0
 17 18  2  0  0  0  0
 18 19  1  0  0  0  0
 19 20  2  0  0  0  0
 21 22  1  0  0  0  0
 21 23  1  0  0  0  0
 24 25  1  0  0  0  0
 24 26  1  0  0  0  0
M  CHG  1  21   1
M  END
>  <CHROM.1>
5.07950797,52.21642567,111.05989376,-76.19364240,-85.36552842,-1.84018318
1.04868692,-2.09005437

>  <Name>
1f1t Malachite green aptamer (Xray 2.8A)

>  <RI>
0

>  <Rbt.Current_Directory>
/home/itssahil/PROJECTS/Mol_Feturizer/New_Systems/rnas/1f1t

>  <Rbt.Executable>
rbdock ($Id: //depot/dev/client3/rdock/2013.1/src/exe/rbdock.cxx#4 $)

>  <Rbt.Library>
libRbt.so (2013.1, Build901 2013/11/27)

>  <Rbt.Parameter_File>
/export/apps/rDock/src/rDock_2013.1_src/data/scripts/dock_solv.prm

>  <Rbt.Receptor>
prm/pocket_docking_2.prm

>  <SCORE>
-62.8955

>  <SCORE.INTER>
-62.9561

>  <SCORE.INTER.CONST>
1

>  <SCORE.INTER.POLAR>
0

>  <SCORE.INTER.ROT>
2

>  <SCORE.INTER.SOLV>
11.1818

>  <SCORE.INTER.VDW>
-50.6314

>  <SCORE.INTER.norm>
-2.42139

>  <SCORE.INTRA>
0.060652

>  <SCORE.INTRA.DIHEDRAL>
-1.11862

>  <SCORE.INTRA.DIHEDRAL.0>
4.18538

>  <SCORE.INTRA.POLAR>
0

>  <SCORE.INTRA.POLAR.0>
0

>  <SCORE.INTRA.REPUL>
0

>  <SCORE.INTRA.REPUL.0>
0

>  <SCORE.INTRA.SOLV>
0.0194422

>  <SCORE.INTRA.SOLV.lig_0>
-5.16926

>  <SCORE.INTRA.VDW>
0.610242

>  <SCORE.INTRA.VDW.0>
1.11912

>  <SCORE.INTRA.norm>
0.00233277

>  <SCORE.RESTR>
0

>  <SCORE.RESTR.CAVITY>
0

>  <SCORE.RESTR.norm>
0

>  <SCORE.SYSTEM>
0

>  <SCORE.SYSTEM.CONST>
0

>  <SCORE.SYSTEM.DIHEDRAL>
0

>  <SCORE.SYSTEM.SOLV>
0

>  <SCORE.SYSTEM.norm>
0

>  <SCORE.heavy>
26

>  <SCORE.norm>
-2.41906

>  <RMSD>
0.693

$$$$
1f1t Malachite green aptamer (Xray 2.8A)
 OpenBabel11021811393D
libRbt.so/2013.1/901 2013/11/27
 26 29  0  0  0  0  0  0  0  0999 V2000
  111.1914  -74.5890  -81.9371 C   0  0  0  0  0  0  0  0  0  0  0  0
  111.7249  -75.8603  -82.4034 C   0  0  0  0  0  0  0  0  0  0  0  0
  111.4709  -76.0977  -83.7557 C   0  0  0  0  0  0  0  0  0  0  0  0
  112.0383  -77.4084  -84.1797 O   0  0  0  0  0  0  0  0  0  0  0  0
  111.8107  -77.6120  -85.4185 C   0  0  0  0  0  0  0  0  0  0  0  0
  112.3918  -78.9173  -85.7319 C   0  0  0  0  0  0  0  0  0  0  0  0
  112.2361  -79.3137  -87.1075 C   0  0  0  0  0  0  0  0  0  0  0  0
  111.5875  -78.4996  -88.0688 C   0  0  0  0  0  0  0  0  0  0  0  0
  111.0234  -77.2171  -87.6910 C   0  0  0  0  0  0  0  0  0  0  0  0
  111.1549  -76.8061  -86.3148 C   0  0  0  0  0  0  0  0  0  0  0  0
  110.5268  -75.4678  -86.0040 C   0  0  0  0  0  0  0  0  0  0  0  0
  110.7911  -75.2649  -84.6375 C   0  0  0  0  0  0  0  0  0  0  0  0
  110.2556  -73.9929  -84.1473 C   0  0  0  0  0  0  0  0  0  0  0  0
  110.5044  -73.7236  -82.7660 C   0  0  0  0  0  0  0  0  0  0  0  0
  109.8694  -74.7049  -86.9504 C   0  0  0  0  0  0  0  0  0  0  0  0
  108.8271  -75.1595  -87.7915 C   0  0  0  0  0  0  0  0  0  0  0  0
  108.1406  -74.3989  -88.7398 C   0  0  0  0  0  0  0  0  0  0  0  0
  108.4854  -72.9972  -88.9241 C   0  0  0  0  0  0  0  0  0  0  0  0
  109.5384  -72.5768  -88.0764 C   0  0  0  0  0  0  0  0  0  0  0  0
  110.2559  -73.3041  -87.1167 C   0  0  0  0  0  0  0  0  0  0  0  0
  111.3675  -74.2070  -80.6144 N   0  3  0  0  0  0  0  0  0  0  0  0
  112.0885  -75.0358  -79.6549 C   0  0  0  0  0  0  0  0  0  0  0  0
  110.8782  -72.9573  -79.9916 C   0  0  0  0  0  0  0  0  0  0  0  0
  112.7787  -80.5816  -87.3784 N   0  0  0  0  0  0  0  0  0  0  0  0
  113.3508  -81.6163  -86.4882 C   0  0  0  0  0  0  0  0  0  0  0  0
  112.7927  -81.0329  -88.8147 C   0  0  0  0  0  0  0  0  0  0  0  0
  1  2  1  0  0  0  0
  1 14  1  0  0  0  0
  1 21  2  0  0  0  0
  2  3  2  0  0  0  0
  3  4  1  0  0  0  0
  3 12  1  0  0  0  0
  4  5  1  0  0  0  0
  5  6  1  0  0  0  0
  5 10  2  0  0  0  0
  6  7  2  0  0  0  0
  7  8  1  0  0  0  0
  7 24  1  0  0  0  0
  8  9  2  0  0  0  0
  9 10  1  0  0  0  0
 10 11  1  0  0  0  0
 11 12  2  0  0  0  0
 11 15  1  0  0  0  0
 12 13  1  0  0  0  0
 13 14  2  0  0  0  0
 15 16  2  0  0  0  0
 15 20  1  0  0  0  0
 16 17  1  0  0  0  0
 17 18  2  0  0  0  0
 18 19  1  0  0  0  0
 19 20  2  0  0  0  0
 21 22  1  0  0  0  0
 21 23  1  0  0  0  0
 24 25  1  0  0  0  0
 24 26  1  0  0  0  0
M  CHG  1  21   1
M  END
>  <CHROM.1>
6.86693459,52.26306836,111.08306933,-76.18049494,-85.35698878,-1.85238461
1.04878858,-2.07673130

>  <Name>
1f1t Malachite green aptamer (Xray 2.8A)

>  <RI>
0

>  <Rbt.Current_Directory>
/home/itssahil/PROJECTS/Mol_Feturizer/New_Systems/rnas/1f1t

>  <Rbt.Executable>
rbdock ($Id: //depot/dev/client3/rdock/2013.1/src/exe/rbdock.cxx#4 $)

>  <Rbt.Library>
libRbt.so (2013.1, Build901 2013/11/27)

>  <Rbt.Parameter_File>
/export/apps/rDock/src/rDock_2013.1_src/data/scripts/dock_solv.prm

>  <Rbt.Receptor>
prm/pocket_docking_6.prm

>  <SCORE>
-62.7948

>  <SCORE.INTER>
-62.8691

>  <SCORE.INTER.CONST>
1

>  <SCORE.INTER.POLAR>
0

>  <SCORE.INTER.ROT>
2

>  <SCORE.INTER.SOLV>
11.188

>  <SCORE.INTER.VDW>
-50.5754

>  <SCORE.INTER.norm>
-2.41804

>  <SCORE.INTRA>
0.0742567

>  <SCORE.INTRA.DIHEDRAL>
-1.03413

>  <SCORE.INTRA.DIHEDRAL.0>
4.18538

>  <SCORE.INTRA.POLAR>
0

>  <SCORE.INTRA.POLAR.0>
0

>  <SCORE.INTRA.REPUL>
0

>  <SCORE.INTRA.REPUL.0>
0

>  <SCORE.INTRA.SOLV>
0.0193827

>  <SCORE.INTRA.SOLV.lig_0>
-5.16926

>  <SCORE.INTRA.VDW>
0.581629

>  <SCORE.INTRA.VDW.0>
1.11912

>  <SCORE.INTRA.norm>
0.00285603

>  <SCORE.RESTR>
0

>  <SCORE.RESTR.CAVITY>
0

>  <SCORE.RESTR.norm>
0

>  <SCORE.SYSTEM>
0

>  <SCORE.SYSTEM.CONST>
0

>  <SCORE.SYSTEM.DIHEDRAL>
0

>  <SCORE.SYSTEM.SOLV>
0

>  <SCORE.SYSTEM.norm>
0

>  <SCORE.heavy>
26

>  <SCORE.norm>
-2.41518

>  <RMSD>
0.693

$$$$
1f1t Malachite green aptamer (Xray 2.8A)
 OpenBabel11021811393D
libRbt.so/2013.1/901 2013/11/27
 26 29  0  0  0  0  0  0  0  0999 V2000
  111.1727  -74.5652  -81.9478 C   0  0  0  0  0  0  0  0  0  0  0  0
  111.7121  -75.8368  -82.4067 C   0  0  0  0  0  0  0  0  0  0  0  0
  111.4578  -76.0841  -83.7571 C   0  0  0  0  0  0  0  0  0  0  0  0
  112.0313  -77.3946  -84.1734 O   0  0  0  0  0  0  0  0  0  0  0  0
  111.8034  -77.6072  -85.4106 C   0  0  0  0  0  0  0  0  0  0  0  0
  112.3907  -78.9115  -85.7164 C   0  0  0  0  0  0  0  0  0  0  0  0
  112.2355  -79.3175  -87.0892 C   0  0  0  0  0  0  0  0  0  0  0  0
  111.5816  -78.5129  -88.0549 C   0  0  0  0  0  0  0  0  0  0  0  0
  111.0113  -77.2309  -87.6847 C   0  0  0  0  0  0  0  0  0  0  0  0
  111.1423  -76.8104  -86.3112 C   0  0  0  0  0  0  0  0  0  0  0  0
  110.5078  -75.4734  -86.0082 C   0  0  0  0  0  0  0  0  0  0  0  0
  110.7726  -75.2604  -84.6434 C   0  0  0  0  0  0  0  0  0  0  0  0
  110.2313  -73.9881  -84.1606 C   0  0  0  0  0  0  0  0  0  0  0  0
  110.4803  -73.7086  -82.7814 C   0  0  0  0  0  0  0  0  0  0  0  0
  109.8453  -74.7199  -86.9587 C   0  0  0  0  0  0  0  0  0  0  0  0
  108.8008  -75.1837  -87.7919 C   0  0  0  0  0  0  0  0  0  0  0  0
  108.1093  -74.4327  -88.7441 C   0  0  0  0  0  0  0  0  0  0  0  0
  108.4507  -73.0319  -88.9418 C   0  0  0  0  0  0  0  0  0  0  0  0
  109.5060  -72.6023  -88.1017 C   0  0  0  0  0  0  0  0  0  0  0  0
  110.2286  -73.3199  -87.1385 C   0  0  0  0  0  0  0  0  0  0  0  0
  111.3483  -74.1739  -80.6278 N   0  3  0  0  0  0  0  0  0  0  0  0
  112.0747  -74.9928  -79.6639 C   0  0  0  0  0  0  0  0  0  0  0  0
  110.8535  -72.9227  -80.0124 C   0  0  0  0  0  0  0  0  0  0  0  0
  112.7842  -80.5843  -87.3526 N   0  0  0  0  0  0  0  0  0  0  0  0
  113.3716  -81.6062  -86.4577 C   0  0  0  0  0  0  0  0  0  0  0  0
  112.7879  -81.0498  -88.7845 C   0  0  0  0  0  0  0  0  0  0  0  0
  1  2  1  0  0  0  0
  1 14  1  0  0  0  0
  1 21  2  0  0  0  0
  2  3  2  0  0  0  0
  3  4  1  0  0  0  0
  3 12  1  0  0  0  0
  4  5  1  0  0  0  0
  5  6  1  0  0  0  0
  5 10  2  0  0  0  0
  6  7  2  0  0  0  0
  7  8  1  0  0  0  0
  7 24  1  0  0  0  0
  8  9  2  0  0  0  0
  9 10  1  0  0  0  0
 10 11  1  0  0  0  0
 11 12  2  0  0  0  0
 11 15  1  0  0  0  0
 12 13  1  0  0  0  0
 13 14  2  0  0  0  0
 15 16  2  0  0  0  0
 15 20  1  0  0  0  0
 16 17  1  0  0  0  0
 17 18  2  0  0  0  0
 18 19  1  0  0  0  0
 19 20  2  0  0  0  0
 21 22  1  0  0  0  0
 21 23  1  0  0  0  0
 24 25  1  0  0  0  0
 24 26  1  0  0  0  0
M  CHG  1  21   1
M  END
>  <CHROM.1>
6.35183610,52.52865327,111.06842051,-76.17913131,-85.35735737,-1.85500002
1.04366549,-2.08085136

>  <Name>
1f1t Malachite green aptamer (Xray 2.8A)

>  <RI>
0

>  <Rbt.Current_Directory>
/home/itssahil/PROJECTS/Mol_Feturizer/New_Systems/rnas/1f1t

>  <Rbt.Executable>
rbdock ($Id: //depot/dev/client3/rdock/2013.1/src/exe/rbdock.cxx#4 $)

>  <Rbt.Library>
libRbt.so (2013.1, Build901 2013/11/27)

>  <Rbt.Parameter_File>
/export/apps/rDock/src/rDock_2013.1_src/data/scripts/dock_solv.prm

>  <Rbt.Receptor>
prm/pocket_docking_2.prm

>  <SCORE>
-62.8231

>  <SCORE.INTER>
-62.9047

>  <SCORE.INTER.CONST>
1

>  <SCORE.INTER.POLAR>
0

>  <SCORE.INTER.ROT>
2

>  <SCORE.INTER.SOLV>
11.1943

>  <SCORE.INTER.VDW>
-50.6012

>  <SCORE.INTER.norm>
-2.41941

>  <SCORE.INTRA>
0.0815948

>  <SCORE.INTRA.DIHEDRAL>
-1.03831

>  <SCORE.INTRA.DIHEDRAL.0>
4.18538

>  <SCORE.INTRA.POLAR>
0

>  <SCORE.INTRA.POLAR.0>
0

>  <SCORE.INTRA.REPUL>
0

>  <SCORE.INTRA.REPUL.0>
0

>  <SCORE.INTRA.SOLV>
0.0190888

>  <SCORE.INTRA.SOLV.lig_0>
-5.16926

>  <SCORE.INTRA.VDW>
0.591203

>  <SCORE.INTRA.VDW.0>
1.11912

>  <SCORE.INTRA.norm>
0.00313826

>  <SCORE.RESTR>
0

>  <SCORE.RESTR.CAVITY>
0

>  <SCORE.RESTR.norm>
0

>  <SCORE.SYSTEM>
0

>  <SCORE.SYSTEM.CONST>
0

>  <SCORE.SYSTEM.DIHEDRAL>
0

>  <SCORE.SYSTEM.SOLV>
0

>  <SCORE.SYSTEM.norm>
0

>  <SCORE.heavy>
26

>  <SCORE.norm>
-2.41627

>  <RMSD>
0.694

$$$$
1f1t Malachite green aptamer (Xray 2.8A)
 OpenBabel11021811393D
libRbt.so/2013.1/901 2013/11/27
 26 29  0  0  0  0  0  0  0  0999 V2000
  111.2318  -74.6844  -81.9142 C   0  0  0  0  0  0  0  0  0  0  0  0
  111.7548  -75.9454  -82.4191 C   0  0  0  0  0  0  0  0  0  0  0  0
  111.4945  -76.1416  -83.7767 C   0  0  0  0  0  0  0  0  0  0  0  0
  112.0512  -77.4434  -84.2406 O   0  0  0  0  0  0  0  0  0  0  0  0
  111.8179  -77.6094  -85.4840 C   0  0  0  0  0  0  0  0  0  0  0  0
  112.3888  -78.9090  -85.8372 C   0  0  0  0  0  0  0  0  0  0  0  0
  112.2256  -79.2643  -87.2231 C   0  0  0  0  0  0  0  0  0  0  0  0
  111.5793  -78.4182  -88.1580 C   0  0  0  0  0  0  0  0  0  0  0  0
  111.0254  -77.1434  -87.7412 C   0  0  0  0  0  0  0  0  0  0  0  0
  111.1645  -76.7733  -86.3541 C   0  0  0  0  0  0  0  0  0  0  0  0
  110.5469  -75.4404  -86.0023 C   0  0  0  0  0  0  0  0  0  0  0  0
  110.8173  -75.2790  -84.6315 C   0  0  0  0  0  0  0  0  0  0  0  0
  110.2924  -74.0181  -84.1026 C   0  0  0  0  0  0  0  0  0  0  0  0
  110.5478  -73.7907  -82.7150 C   0  0  0  0  0  0  0  0  0  0  0  0
  109.8914  -74.6459  -86.9238 C   0  0  0  0  0  0  0  0  0  0  0  0
  110.2105  -73.3007  -87.2221 C   0  0  0  0  0  0  0  0  0  0  0  0
  109.5710  -72.4895  -88.1612 C   0  0  0  0  0  0  0  0  0  0  0  0
  108.4643  -73.0251  -88.9396 C   0  0  0  0  0  0  0  0  0  0  0  0
  108.1630  -74.3684  -88.6095 C   0  0  0  0  0  0  0  0  0  0  0  0
  108.7733  -75.2161  -87.6748 C   0  0  0  0  0  0  0  0  0  0  0  0
  111.4151  -74.3422  -80.5816 N   0  3  0  0  0  0  0  0  0  0  0  0
  112.1337  -75.2034  -79.6492 C   0  0  0  0  0  0  0  0  0  0  0  0
  110.9367  -73.1077  -79.9211 C   0  0  0  0  0  0  0  0  0  0  0  0
  112.7584  -80.5274  -87.5326 N   0  0  0  0  0  0  0  0  0  0  0  0
  113.3097  -81.5989  -86.6733 C   0  0  0  0  0  0  0  0  0  0  0  0
  112.7845  -80.9279  -88.9838 C   0  0  0  0  0  0  0  0  0  0  0  0
  1  2  1  0  0  0  0
  1 14  1  0  0  0  0
  1 21  2  0  0  0  0
  2  3  2  0  0  0  0
  3  4  1  0  0  0  0
  3 12  1  0  0  0  0
  4  5  1  0  0  0  0
  5  6  1  0  0  0  0
  5 10  2  0  0  0  0
  6  7  2  0  0  0  0
  7  8  1  0  0  0  0
  7 24  1  0  0  0  0
  8  9  2  0  0  0  0
  9 10  1  0  0  0  0
 10 11  1  0  0  0  0
 11 12  2  0  0  0  0
 11 15  1  0  0  0  0
 12 13  1  0  0  0  0
 13 14  2  0  0  0  0
 15 16  2  0  0  0  0
 15 20  1  0  0  0  0
 16 17  1  0  0  0  0
 17 18  2  0  0  0  0
 18 19  1  0  0  0  0
 19 20  2  0  0  0  0
 21 22  1  0  0  0  0
 21 23  1  0  0  0  0
 24 25  1  0  0  0  0
 24 26  1  0  0  0  0
M  CHG  1  21   1
M  END
>  <CHROM.1>
7.82253231,-123.95198360,111.09335967,-76.19250348,-85.38806532,-1.82093359
1.04855879,-2.06028596

>  <Name>
1f1t Malachite green aptamer (Xray 2.8A)

>  <RI>
0

>  <Rbt.Current_Directory>
/home/itssahil/PROJECTS/Mol_Feturizer/New_Systems/rnas/1f1t

>  <Rbt.Executable>
rbdock ($Id: //depot/dev/client3/rdock/2013.1/src/exe/rbdock.cxx#4 $)

>  <Rbt.Library>
libRbt.so (2013.1, Build901 2013/11/27)

>  <Rbt.Parameter_File>
/export/apps/rDock/src/rDock_2013.1_src/data/scripts/dock_solv.prm

>  <Rbt.Receptor>
prm/pocket_docking_3.prm

>  <SCORE>
-63.2015

>  <SCORE.INTER>
-63.3356

>  <SCORE.INTER.CONST>
1

>  <SCORE.INTER.POLAR>
0

>  <SCORE.INTER.ROT>
2

>  <SCORE.INTER.SOLV>
11.1345

>  <SCORE.INTER.VDW>
-50.8685

>  <SCORE.INTER.norm>
-2.43598

>  <SCORE.INTRA>
0.134057

>  <SCORE.INTRA.DIHEDRAL>
-0.679072

>  <SCORE.INTRA.DIHEDRAL.0>
4.18538

>  <SCORE.INTRA.POLAR>
0

>  <SCORE.INTRA.POLAR.0>
0

>  <SCORE.INTRA.REPUL>
0

>  <SCORE.INTRA.REPUL.0>
0

>  <SCORE.INTRA.SOLV>
0.0150803

>  <SCORE.INTRA.SOLV.lig_0>
-5.16926

>  <SCORE.INTRA.VDW>
0.466053

>  <SCORE.INTRA.VDW.0>
1.11912

>  <SCORE.INTRA.norm>
0.00515605

>  <SCORE.RESTR>
0

>  <SCORE.RESTR.CAVITY>
0

>  <SCORE.RESTR.norm>
0

>  <SCORE.SYSTEM>
0

>  <SCORE.SYSTEM.CONST>
0

>  <SCORE.SYSTEM.DIHEDRAL>
0

>  <SCORE.SYSTEM.SOLV>
0

>  <SCORE.SYSTEM.norm>
0

>  <SCORE.heavy>
26

>  <SCORE.norm>
-2.43083

>  <RMSD>
0.694

$$$$
1f1t Malachite green aptamer (Xray 2.8A)
 OpenBabel11021811393D
libRbt.so/2013.1/901 2013/11/27
 26 29  0  0  0  0  0  0  0  0999 V2000
  111.1458  -74.5803  -81.9311 C   0  0  0  0  0  0  0  0  0  0  0  0
  111.6837  -75.8507  -82.3948 C   0  0  0  0  0  0  0  0  0  0  0  0
  111.4348  -76.0896  -83.7477 C   0  0  0  0  0  0  0  0  0  0  0  0
  112.0065  -77.3993  -84.1689 O   0  0  0  0  0  0  0  0  0  0  0  0
  111.7836  -77.6043  -85.4083 C   0  0  0  0  0  0  0  0  0  0  0  0
  112.3687  -78.9085  -85.7189 C   0  0  0  0  0  0  0  0  0  0  0  0
  112.2185  -79.3062  -87.0947 C   0  0  0  0  0  0  0  0  0  0  0  0
  111.5711  -78.4943  -88.0587 C   0  0  0  0  0  0  0  0  0  0  0  0
  111.0028  -77.2128  -87.6837 C   0  0  0  0  0  0  0  0  0  0  0  0
  111.1288  -76.8006  -86.3073 C   0  0  0  0  0  0  0  0  0  0  0  0
  110.4966  -75.4635  -85.9995 C   0  0  0  0  0  0  0  0  0  0  0  0
  110.7559  -75.2590  -84.6324 C   0  0  0  0  0  0  0  0  0  0  0  0
  110.2159  -73.9879  -84.1448 C   0  0  0  0  0  0  0  0  0  0  0  0
  110.4595  -73.7170  -82.7628 C   0  0  0  0  0  0  0  0  0  0  0  0
  109.8405  -74.7028  -86.9486 C   0  0  0  0  0  0  0  0  0  0  0  0
  108.7913  -75.1560  -87.7818 C   0  0  0  0  0  0  0  0  0  0  0  0
  108.1061  -74.3974  -88.7326 C   0  0  0  0  0  0  0  0  0  0  0  0
  108.4602  -72.9996  -88.9287 C   0  0  0  0  0  0  0  0  0  0  0  0
  109.5199  -72.5807  -88.0888 C   0  0  0  0  0  0  0  0  0  0  0  0
  110.2364  -73.3061  -87.1269 C   0  0  0  0  0  0  0  0  0  0  0  0
  111.3166  -74.1970  -80.6081 N   0  3  0  0  0  0  0  0  0  0  0  0
  112.0364  -75.0234  -79.6456 C   0  0  0  0  0  0  0  0  0  0  0  0
  110.8224  -72.9479  -79.9878 C   0  0  0  0  0  0  0  0  0  0  0  0
  112.7648  -80.5730  -87.3628 N   0  0  0  0  0  0  0  0  0  0  0  0
  113.3335  -81.6071  -86.4697 C   0  0  0  0  0  0  0  0  0  0  0  0
  112.7881  -81.0237  -88.7993 C   0  0  0  0  0  0  0  0  0  0  0  0
  1  2  1  0  0  0  0
  1 14  1  0  0  0  0
  1 21  2  0  0  0  0
  2  3  2  0  0  0  0
  3  4  1  0  0  0  0
  3 12  1  0  0  0  0
  4  5  1  0  0  0  0
  5  6  1  0  0  0  0
  5 10  2  0  0  0  0
  6  7  2  0  0  0  0
  7  8  1  0  0  0  0
  7 24  1  0  0  0  0
  8  9  2  0  0  0  0
  9 10  1  0  0  0  0
 10 11  1  0  0  0  0
 11 12  2  0  0  0  0
 11 15  1  0  0  0  0
 12 13  1  0  0  0  0
 13 14  2  0  0  0  0
 15 16  2  0  0  0  0
 15 20  1  0  0  0  0
 16 17  1  0  0  0  0
 17 18  2  0  0  0  0
 18 19  1  0  0  0  0
 19 20  2  0  0  0  0
 21 22  1  0  0  0  0
 21 23  1  0  0  0  0
 24 25  1  0  0  0  0
 24 26  1  0  0  0  0
M  CHG  1  21   1
M  END
>  <CHROM.1>
7.03564144,53.05984117,111.05252273,-76.17444572,-85.35027452,-1.86054128
1.04841771,-2.07023370

>  <Name>
1f1t Malachite green aptamer (Xray 2.8A)

>  <RI>
0

>  <Rbt.Current_Directory>
/home/itssahil/PROJECTS/Mol_Feturizer/New_Systems/rnas/1f1t

>  <Rbt.Executable>
rbdock ($Id: //depot/dev/client3/rdock/2013.1/src/exe/rbdock.cxx#4 $)

>  <Rbt.Library>
libRbt.so (2013.1, Build901 2013/11/27)

>  <Rbt.Parameter_File>
/export/apps/rDock/src/rDock_2013.1_src/data/scripts/dock_solv.prm

>  <Rbt.Receptor>
prm/pocket_docking_6.prm

>  <SCORE>
-62.8433

>  <SCORE.INTER>
-62.92

>  <SCORE.INTER.CONST>
1

>  <SCORE.INTER.POLAR>
0

>  <SCORE.INTER.ROT>
2

>  <SCORE.INTER.SOLV>
11.1721

>  <SCORE.INTER.VDW>
-50.6041

>  <SCORE.INTER.norm>
-2.42

>  <SCORE.INTRA>
0.0766973

>  <SCORE.INTRA.DIHEDRAL>
-0.960677

>  <SCORE.INTRA.DIHEDRAL.0>
4.18538

>  <SCORE.INTRA.POLAR>
0

>  <SCORE.INTRA.POLAR.0>
0

>  <SCORE.INTRA.REPUL>
0

>  <SCORE.INTRA.REPUL.0>
0

>  <SCORE.INTRA.SOLV>
0.0184859

>  <SCORE.INTRA.SOLV.lig_0>
-5.16926

>  <SCORE.INTRA.VDW>
0.547793

>  <SCORE.INTRA.VDW.0>
1.11912

>  <SCORE.INTRA.norm>
0.0029499

>  <SCORE.RESTR>
0

>  <SCORE.RESTR.CAVITY>
0

>  <SCORE.RESTR.norm>
0

>  <SCORE.SYSTEM>
0

>  <SCORE.SYSTEM.CONST>
0

>  <SCORE.SYSTEM.DIHEDRAL>
0

>  <SCORE.SYSTEM.SOLV>
0

>  <SCORE.SYSTEM.norm>
0

>  <SCORE.heavy>
26

>  <SCORE.norm>
-2.41705

>  <RMSD>
0.694

$$$$
1f1t Malachite green aptamer (Xray 2.8A)
 OpenBabel11021811393D
libRbt.so/2013.1/901 2013/11/27
 26 29  0  0  0  0  0  0  0  0999 V2000
  111.1752  -74.5893  -81.9477 C   0  0  0  0  0  0  0  0  0  0  0  0
  111.7086  -75.8615  -82.4116 C   0  0  0  0  0  0  0  0  0  0  0  0
  111.4536  -76.1020  -83.7631 C   0  0  0  0  0  0  0  0  0  0  0  0
  112.0210  -77.4134  -84.1847 O   0  0  0  0  0  0  0  0  0  0  0  0
  111.7925  -77.6198  -85.4229 C   0  0  0  0  0  0  0  0  0  0  0  0
  112.3737  -78.9257  -85.7339 C   0  0  0  0  0  0  0  0  0  0  0  0
  112.2170  -79.3252  -87.1085 C   0  0  0  0  0  0  0  0  0  0  0  0
  111.5674  -78.5133  -88.0710 C   0  0  0  0  0  0  0  0  0  0  0  0
  111.0032  -77.2302  -87.6956 C   0  0  0  0  0  0  0  0  0  0  0  0
  111.1356  -76.8161  -86.3204 C   0  0  0  0  0  0  0  0  0  0  0  0
  110.5075  -75.4773  -86.0120 C   0  0  0  0  0  0  0  0  0  0  0  0
  110.7728  -75.2713  -84.6462 C   0  0  0  0  0  0  0  0  0  0  0  0
  110.2374  -73.9984  -84.1584 C   0  0  0  0  0  0  0  0  0  0  0  0
  110.4872  -73.7259  -82.7778 C   0  0  0  0  0  0  0  0  0  0  0  0
  109.8490  -74.7167  -86.9596 C   0  0  0  0  0  0  0  0  0  0  0  0
  108.8062  -75.1735  -87.7989 C   0  0  0  0  0  0  0  0  0  0  0  0
  108.1188  -74.4153  -88.7483 C   0  0  0  0  0  0  0  0  0  0  0  0
  108.4629  -73.0138  -88.9359 C   0  0  0  0  0  0  0  0  0  0  0  0
  109.5163  -72.5912  -88.0899 C   0  0  0  0  0  0  0  0  0  0  0  0
  110.2349  -73.3161  -87.1292 C   0  0  0  0  0  0  0  0  0  0  0  0
  111.3522  -74.2043  -80.6260 N   0  3  0  0  0  0  0  0  0  0  0  0
  112.0742  -75.0308  -79.6652 C   0  0  0  0  0  0  0  0  0  0  0  0
  110.8631  -72.9534  -80.0055 C   0  0  0  0  0  0  0  0  0  0  0  0
  112.7597  -80.5935  -87.3770 N   0  0  0  0  0  0  0  0  0  0  0  0
  113.3555  -81.6157  -86.4879 C   0  0  0  0  0  0  0  0  0  0  0  0
  112.7454  -81.0605  -88.8083 C   0  0  0  0  0  0  0  0  0  0  0  0
  1  2  1  0  0  0  0
  1 14  1  0  0  0  0
  1 21  2  0  0  0  0
  2  3  2  0  0  0  0
  3  4  1  0  0  0  0
  3 12  1  0  0  0  0
  4  5  1  0  0  0  0
  5  6  1  0  0  0  0
  5 10  2  0  0  0  0
  6  7  2  0  0  0  0
  7  8  1  0  0  0  0
  7 24  1  0  0  0  0
  8  9  2  0  0  0  0
  9 10  1  0  0  0  0
 10 11  1  0  0  0  0
 11 12  2  0  0  0  0
 11 15  1  0  0  0  0
 12 13  1  0  0  0  0
 13 14  2  0  0  0  0
 15 16  2  0  0  0  0
 15 20  1  0  0  0  0
 16 17  1  0  0  0  0
 17 18  2  0  0  0  0
 18 19  1  0  0  0  0
 19 20  2  0  0  0  0
 21 22  1  0  0  0  0
 21 23  1  0  0  0  0
 24 25  1  0  0  0  0
 24 26  1  0  0  0  0
M  CHG  1  21   1
M  END
>  <CHROM.1>
5.57175520,52.25537639,111.06425852,-76.18851468,-85.36386689,-1.85052342
1.04788757,-2.08064692

>  <Name>
1f1t Malachite green aptamer (Xray 2.8A)

>  <RI>
0

>  <Rbt.Current_Directory>
/home/itssahil/PROJECTS/Mol_Feturizer/New_Systems/rnas/1f1t

>  <Rbt.Executable>
rbdock ($Id: //depot/dev/client3/rdock/2013.1/src/exe/rbdock.cxx#4 $)

>  <Rbt.Library>
libRbt.so (2013.1, Build901 2013/11/27)

>  <Rbt.Parameter_File>
/export/apps/rDock/src/rDock_2013.1_src/data/scripts/dock_solv.prm

>  <Rbt.Receptor>
prm/pocket_docking_7.prm

>  <SCORE>
-62.8472

>  <SCORE.INTER>
-62.9105

>  <SCORE.INTER.CONST>
1

>  <SCORE.INTER.POLAR>
0

>  <SCORE.INTER.ROT>
2

>  <SCORE.INTER.SOLV>
11.1878

>  <SCORE.INTER.VDW>
-50.603

>  <SCORE.INTER.norm>
-2.41964

>  <SCORE.INTRA>
0.0633535

>  <SCORE.INTRA.DIHEDRAL>
-1.09566

>  <SCORE.INTRA.DIHEDRAL.0>
4.18538

>  <SCORE.INTRA.POLAR>
0

>  <SCORE.INTRA.POLAR.0>
0

>  <SCORE.INTRA.REPUL>
0

>  <SCORE.INTRA.REPUL.0>
0

>  <SCORE.INTRA.SOLV>
0.0193993

>  <SCORE.INTRA.SOLV.lig_0>
-5.16926

>  <SCORE.INTRA.VDW>
0.601486

>  <SCORE.INTRA.VDW.0>
1.11912

>  <SCORE.INTRA.norm>
0.00243667

>  <SCORE.RESTR>
0

>  <SCORE.RESTR.CAVITY>
0

>  <SCORE.RESTR.norm>
0

>  <SCORE.SYSTEM>
0

>  <SCORE.SYSTEM.CONST>
0

>  <SCORE.SYSTEM.DIHEDRAL>
0

>  <SCORE.SYSTEM.SOLV>
0

>  <SCORE.SYSTEM.norm>
0

>  <SCORE.heavy>
26

>  <SCORE.norm>
-2.4172

>  <RMSD>
0.694

$$$$
1f1t Malachite green aptamer (Xray 2.8A)
 OpenBabel11021811393D
libRbt.so/2013.1/901 2013/11/27
 26 29  0  0  0  0  0  0  0  0999 V2000
  111.1787  -74.5849  -81.9516 C   0  0  0  0  0  0  0  0  0  0  0  0
  111.7066  -75.8604  -82.4127 C   0  0  0  0  0  0  0  0  0  0  0  0
  111.4486  -76.1037  -83.7631 C   0  0  0  0  0  0  0  0  0  0  0  0
  112.0104  -77.4185  -84.1818 O   0  0  0  0  0  0  0  0  0  0  0  0
  111.7792  -77.6276  -85.4190 C   0  0  0  0  0  0  0  0  0  0  0  0
  112.3551  -78.9365  -85.7272 C   0  0  0  0  0  0  0  0  0  0  0  0
  112.1948  -79.3393  -87.1004 C   0  0  0  0  0  0  0  0  0  0  0  0
  111.5467  -78.5278  -88.0642 C   0  0  0  0  0  0  0  0  0  0  0  0
  110.9879  -77.2415  -87.6917 C   0  0  0  0  0  0  0  0  0  0  0  0
  111.1240  -76.8240  -86.3179 C   0  0  0  0  0  0  0  0  0  0  0  0
  110.5014  -75.4820  -86.0124 C   0  0  0  0  0  0  0  0  0  0  0  0
  110.7695  -75.2730  -84.6476 C   0  0  0  0  0  0  0  0  0  0  0  0
  110.2397  -73.9968  -84.1625 C   0  0  0  0  0  0  0  0  0  0  0  0
  110.4926  -73.7213  -82.7832 C   0  0  0  0  0  0  0  0  0  0  0  0
  109.8443  -74.7216  -86.9611 C   0  0  0  0  0  0  0  0  0  0  0  0
  108.8043  -75.1792  -87.8034 C   0  0  0  0  0  0  0  0  0  0  0  0
  108.1182  -74.4212  -88.7540 C   0  0  0  0  0  0  0  0  0  0  0  0
  108.4610  -73.0192  -88.9398 C   0  0  0  0  0  0  0  0  0  0  0  0
  109.5118  -72.5958  -88.0909 C   0  0  0  0  0  0  0  0  0  0  0  0
  110.2288  -73.3204  -87.1289 C   0  0  0  0  0  0  0  0  0  0  0  0
  111.3591  -74.1968  -80.6313 N   0  3  0  0  0  0  0  0  0  0  0  0
  112.0795  -75.0232  -79.6693 C   0  0  0  0  0  0  0  0  0  0  0  0
  110.8757  -72.9422  -80.0137 C   0  0  0  0  0  0  0  0  0  0  0  0
  112.7323  -80.6105  -87.3661 N   0  0  0  0  0  0  0  0  0  0  0  0
  113.3109  -81.6390  -86.4730 C   0  0  0  0  0  0  0  0  0  0  0  0
  112.7317  -81.0734  -88.7988 C   0  0  0  0  0  0  0  0  0  0  0  0
  1  2  1  0  0  0  0
  1 14  1  0  0  0  0
  1 21  2  0  0  0  0
  2  3  2  0  0  0  0
  3  4  1  0  0  0  0
  3 12  1  0  0  0  0
  4  5  1  0  0  0  0
  5  6  1  0  0  0  0
  5 10  2  0  0  0  0
  6  7  2  0  0  0  0
  7  8  1  0  0  0  0
  7 24  1  0  0  0  0
  8  9  2  0  0  0  0
  9 10  1  0  0  0  0
 10 11  1  0  0  0  0
 11 12  2  0  0  0  0
 11 15  1  0  0  0  0
 12 13  1  0  0  0  0
 13 14  2  0  0  0  0
 15 16  2  0  0  0  0
 15 20  1  0  0  0  0
 16 17  1  0  0  0  0
 17 18  2  0  0  0  0
 18 19  1  0  0  0  0
 19 20  2  0  0  0  0
 21 22  1  0  0  0  0
 21 23  1  0  0  0  0
 24 25  1  0  0  0  0
 24 26  1  0  0  0  0
M  CHG  1  21   1
M  END
>  <CHROM.1>
6.41291453,51.83338169,111.05653929,-76.19333677,-85.36302343,-1.84457348
1.05053746,-2.08867268

>  <Name>
1f1t Malachite green aptamer (Xray 2.8A)

>  <RI>
0

>  <Rbt.Current_Directory>
/home/itssahil/PROJECTS/Mol_Feturizer/New_Systems/rnas/1f1t

>  <Rbt.Executable>
rbdock ($Id: //depot/dev/client3/rdock/2013.1/src/exe/rbdock.cxx#4 $)

>  <Rbt.Library>
libRbt.so (2013.1, Build901 2013/11/27)

>  <Rbt.Parameter_File>
/export/apps/rDock/src/rDock_2013.1_src/data/scripts/dock_solv.prm

>  <Rbt.Receptor>
prm/pocket_docking_2.prm

>  <SCORE>
-62.8743

>  <SCORE.INTER>
-62.9545

>  <SCORE.INTER.CONST>
1

>  <SCORE.INTER.POLAR>
0

>  <SCORE.INTER.ROT>
2

>  <SCORE.INTER.SOLV>
11.1659

>  <SCORE.INTER.VDW>
-50.6249

>  <SCORE.INTER.norm>
-2.42133

>  <SCORE.INTRA>
0.080155

>  <SCORE.INTRA.DIHEDRAL>
-1.09195

>  <SCORE.INTRA.DIHEDRAL.0>
4.18538

>  <SCORE.INTRA.POLAR>
0

>  <SCORE.INTRA.POLAR.0>
0

>  <SCORE.INTRA.REPUL>
0

>  <SCORE.INTRA.REPUL.0>
0

>  <SCORE.INTRA.SOLV>
0.0198668

>  <SCORE.INTRA.SOLV.lig_0>
-5.16926

>  <SCORE.INTRA.VDW>
0.616195

>  <SCORE.INTRA.VDW.0>
1.11912

>  <SCORE.INTRA.norm>
0.00308288

>  <SCORE.RESTR>
0

>  <SCORE.RESTR.CAVITY>
0

>  <SCORE.RESTR.norm>
0

>  <SCORE.SYSTEM>
0

>  <SCORE.SYSTEM.CONST>
0

>  <SCORE.SYSTEM.DIHEDRAL>
0

>  <SCORE.SYSTEM.SOLV>
0

>  <SCORE.SYSTEM.norm>
0

>  <SCORE.heavy>
26

>  <SCORE.norm>
-2.41824

>  <RMSD>
0.695

$$$$
1f1t Malachite green aptamer (Xray 2.8A)
 OpenBabel11021811393D
libRbt.so/2013.1/901 2013/11/27
 26 29  0  0  0  0  0  0  0  0999 V2000
  111.1716  -74.5858  -81.9492 C   0  0  0  0  0  0  0  0  0  0  0  0
  111.7056  -75.8583  -82.4117 C   0  0  0  0  0  0  0  0  0  0  0  0
  111.4513  -76.1001  -83.7631 C   0  0  0  0  0  0  0  0  0  0  0  0
  112.0192  -77.4118  -84.1832 O   0  0  0  0  0  0  0  0  0  0  0  0
  111.7914  -77.6194  -85.4213 C   0  0  0  0  0  0  0  0  0  0  0  0
  112.3731  -78.9253  -85.7309 C   0  0  0  0  0  0  0  0  0  0  0  0
  112.2172  -79.3261  -87.1052 C   0  0  0  0  0  0  0  0  0  0  0  0
  111.5678  -78.5153  -88.0687 C   0  0  0  0  0  0  0  0  0  0  0  0
  111.0031  -77.2320  -87.6948 C   0  0  0  0  0  0  0  0  0  0  0  0
  111.1348  -76.8166  -86.3199 C   0  0  0  0  0  0  0  0  0  0  0  0
  110.5061  -75.4777  -86.0131 C   0  0  0  0  0  0  0  0  0  0  0  0
  110.7707  -75.2704  -84.6473 C   0  0  0  0  0  0  0  0  0  0  0  0
  110.2347  -73.9972  -84.1609 C   0  0  0  0  0  0  0  0  0  0  0  0
  110.4837  -73.7234  -82.7805 C   0  0  0  0  0  0  0  0  0  0  0  0
  109.8479  -74.7181  -86.9616 C   0  0  0  0  0  0  0  0  0  0  0  0
  108.8001  -75.1736  -87.7953 C   0  0  0  0  0  0  0  0  0  0  0  0
  108.1128  -74.4163  -88.7456 C   0  0  0  0  0  0  0  0  0  0  0  0
  108.4629  -73.0173  -88.9405 C   0  0  0  0  0  0  0  0  0  0  0  0
  109.5213  -72.5960  -88.1001 C   0  0  0  0  0  0  0  0  0  0  0  0
  110.2398  -73.3201  -87.1387 C   0  0  0  0  0  0  0  0  0  0  0  0
  111.3478  -74.1996  -80.6277 N   0  3  0  0  0  0  0  0  0  0  0  0
  112.0696  -75.0250  -79.6659 C   0  0  0  0  0  0  0  0  0  0  0  0
  110.8581  -72.9482  -80.0087 C   0  0  0  0  0  0  0  0  0  0  0  0
  112.7603  -80.5945  -87.3722 N   0  0  0  0  0  0  0  0  0  0  0  0
  113.3544  -81.6165  -86.4818 C   0  0  0  0  0  0  0  0  0  0  0  0
  112.7487  -81.0620  -88.8034 C   0  0  0  0  0  0  0  0  0  0  0  0
  1  2  1  0  0  0  0
  1 14  1  0  0  0  0
  1 21  2  0  0  0  0
  2  3  2  0  0  0  0
  3  4  1  0  0  0  0
  3 12  1  0  0  0  0
  4  5  1  0  0  0  0
  5  6  1  0  0  0  0
  5 10  2  0  0  0  0
  6  7  2  0  0  0  0
  7  8  1  0  0  0  0
  7 24  1  0  0  0  0
  8  9  2  0  0  0  0
  9 10  1  0  0  0  0
 10 11  1  0  0  0  0
 11 12  2  0  0  0  0
 11 15  1  0  0  0  0
 12 13  1  0  0  0  0
 13 14  2  0  0  0  0
 15 16  2  0  0  0  0
 15 20  1  0  0  0  0
 16 17  1  0  0  0  0
 17 18  2  0  0  0  0
 18 19  1  0  0  0  0
 19 20  2  0  0  0  0
 21 22  1  0  0  0  0
 21 23  1  0  0  0  0
 24 25  1  0  0  0  0
 24 26  1  0  0  0  0
M  CHG  1  21   1
M  END
>  <CHROM.1>
5.65870274,52.67164902,111.06282114,-76.18815171,-85.36402058,-1.85171628
1.04794908,-2.08044726

>  <Name>
1f1t Malachite green aptamer (Xray 2.8A)

>  <RI>
0

>  <Rbt.Current_Directory>
/home/itssahil/PROJECTS/Mol_Feturizer/New_Systems/rnas/1f1t

>  <Rbt.Executable>
rbdock ($Id: //depot/dev/client3/rdock/2013.1/src/exe/rbdock.cxx#4 $)

>  <Rbt.Library>
libRbt.so (2013.1, Build901 2013/11/27)

>  <Rbt.Parameter_File>
/export/apps/rDock/src/rDock_2013.1_src/data/scripts/dock_solv.prm

>  <Rbt.Receptor>
prm/pocket_docking_3.prm

>  <SCORE>
-62.8342

>  <SCORE.INTER>
-62.907

>  <SCORE.INTER.CONST>
1

>  <SCORE.INTER.POLAR>
0

>  <SCORE.INTER.ROT>
2

>  <SCORE.INTER.SOLV>
11.1902

>  <SCORE.INTER.VDW>
-50.6014

>  <SCORE.INTER.norm>
-2.4195

>  <SCORE.INTRA>
0.0727691

>  <SCORE.INTRA.DIHEDRAL>
-1.05818

>  <SCORE.INTRA.DIHEDRAL.0>
4.18538

>  <SCORE.INTRA.POLAR>
0

>  <SCORE.INTRA.POLAR.0>
0

>  <SCORE.INTRA.REPUL>
0

>  <SCORE.INTRA.REPUL.0>
0

>  <SCORE.INTRA.SOLV>
0.0189323

>  <SCORE.INTRA.SOLV.lig_0>
-5.16926

>  <SCORE.INTRA.VDW>
0.592392

>  <SCORE.INTRA.VDW.0>
1.11912

>  <SCORE.INTRA.norm>
0.00279881

>  <SCORE.RESTR>
0

>  <SCORE.RESTR.CAVITY>
0

>  <SCORE.RESTR.norm>
0

>  <SCORE.SYSTEM>
0

>  <SCORE.SYSTEM.CONST>
0

>  <SCORE.SYSTEM.DIHEDRAL>
0

>  <SCORE.SYSTEM.SOLV>
0

>  <SCORE.SYSTEM.norm>
0

>  <SCORE.heavy>
26

>  <SCORE.norm>
-2.4167

>  <RMSD>
0.695

$$$$
1f1t Malachite green aptamer (Xray 2.8A)
 OpenBabel11021811393D
libRbt.so/2013.1/901 2013/11/27
 26 29  0  0  0  0  0  0  0  0999 V2000
  111.1609  -74.5631  -81.9411 C   0  0  0  0  0  0  0  0  0  0  0  0
  111.6884  -75.8413  -82.3954 C   0  0  0  0  0  0  0  0  0  0  0  0
  111.4352  -76.0892  -83.7459 C   0  0  0  0  0  0  0  0  0  0  0  0
  111.9962  -77.4066  -84.1575 O   0  0  0  0  0  0  0  0  0  0  0  0
  111.7694  -77.6199  -85.3948 C   0  0  0  0  0  0  0  0  0  0  0  0
  112.3441  -78.9309  -85.6958 C   0  0  0  0  0  0  0  0  0  0  0  0
  112.1883  -79.3387  -87.0681 C   0  0  0  0  0  0  0  0  0  0  0  0
  111.5454  -78.5296  -88.0375 C   0  0  0  0  0  0  0  0  0  0  0  0
  110.9875  -77.2409  -87.6719 C   0  0  0  0  0  0  0  0  0  0  0  0
  111.1191  -76.8185  -86.2991 C   0  0  0  0  0  0  0  0  0  0  0  0
  110.4977  -75.4742  -86.0011 C   0  0  0  0  0  0  0  0  0  0  0  0
  110.7610  -75.2607  -84.6361 C   0  0  0  0  0  0  0  0  0  0  0  0
  110.2315  -73.9816  -84.1579 C   0  0  0  0  0  0  0  0  0  0  0  0
  110.4797  -73.7014  -82.7786 C   0  0  0  0  0  0  0  0  0  0  0  0
  109.8456  -74.7163  -86.9552 C   0  0  0  0  0  0  0  0  0  0  0  0
  108.8078  -75.1751  -87.7995 C   0  0  0  0  0  0  0  0  0  0  0  0
  108.1267  -74.4195  -88.7556 C   0  0  0  0  0  0  0  0  0  0  0  0
  108.4730  -73.0188  -88.9456 C   0  0  0  0  0  0  0  0  0  0  0  0
  109.5215  -72.5942  -88.0945 C   0  0  0  0  0  0  0  0  0  0  0  0
  110.2336  -73.3165  -87.1270 C   0  0  0  0  0  0  0  0  0  0  0  0
  111.3370  -74.1704  -80.6216 N   0  3  0  0  0  0  0  0  0  0  0  0
  112.0523  -74.9944  -79.6537 C   0  0  0  0  0  0  0  0  0  0  0  0
  110.8535  -72.9126  -80.0106 C   0  0  0  0  0  0  0  0  0  0  0  0
  112.7246  -80.6117  -87.3269 N   0  0  0  0  0  0  0  0  0  0  0  0
  113.3159  -81.6299  -86.4303 C   0  0  0  0  0  0  0  0  0  0  0  0
  112.7070  -81.0899  -88.7545 C   0  0  0  0  0  0  0  0  0  0  0  0
  1  2  1  0  0  0  0
  1 14  1  0  0  0  0
  1 21  2  0  0  0  0
  2  3  2  0  0  0  0
  3  4  1  0  0  0  0
  3 12  1  0  0  0  0
  4  5  1  0  0  0  0
  5  6  1  0  0  0  0
  5 10  2  0  0  0  0
  6  7  2  0  0  0  0
  7  8  1  0  0  0  0
  7 24  1  0  0  0  0
  8  9  2  0  0  0  0
  9 10  1  0  0  0  0
 10 11  1  0  0  0  0
 11 12  2  0  0  0  0
 11 15  1  0  0  0  0
 12 13  1  0  0  0  0
 13 14  2  0  0  0  0
 15 16  2  0  0  0  0
 15 20  1  0  0  0  0
 16 17  1  0  0  0  0
 17 18  2  0  0  0  0
 18 19  1  0  0  0  0
 19 20  2  0  0  0  0
 21 22  1  0  0  0  0
 21 23  1  0  0  0  0
 24 25  1  0  0  0  0
 24 26  1  0  0  0  0
M  CHG  1  21   1
M  END
>  <CHROM.1>
5.38444921,51.85114797,111.04891638,-76.18420966,-85.34689657,-1.84898398
1.05380972,-2.08866546

>  <Name>
1f1t Malachite green aptamer (Xray 2.8A)

>  <RI>
0

>  <Rbt.Current_Directory>
/home/itssahil/PROJECTS/Mol_Feturizer/New_Systems/rnas/1f1t

>  <Rbt.Executable>
rbdock ($Id: //depot/dev/client3/rdock/2013.1/src/exe/rbdock.cxx#4 $)

>  <Rbt.Library>
libRbt.so (2013.1, Build901 2013/11/27)

>  <Rbt.Parameter_File>
/export/apps/rDock/src/rDock_2013.1_src/data/scripts/dock_solv.prm

>  <Rbt.Receptor>
prm/pocket_docking_8.prm

>  <SCORE>
-62.8542

>  <SCORE.INTER>
-62.9256

>  <SCORE.INTER.CONST>
1

>  <SCORE.INTER.POLAR>
0

>  <SCORE.INTER.ROT>
2

>  <SCORE.INTER.SOLV>
11.1812

>  <SCORE.INTER.VDW>
-50.6108

>  <SCORE.INTER.norm>
-2.42022

>  <SCORE.INTRA>
0.0713985

>  <SCORE.INTRA.DIHEDRAL>
-1.13635

>  <SCORE.INTRA.DIHEDRAL.0>
4.18538

>  <SCORE.INTRA.POLAR>
0

>  <SCORE.INTRA.POLAR.0>
0

>  <SCORE.INTRA.REPUL>
0

>  <SCORE.INTRA.REPUL.0>
0

>  <SCORE.INTRA.SOLV>
0.0198511

>  <SCORE.INTRA.SOLV.lig_0>
-5.16926

>  <SCORE.INTRA.VDW>
0.629648

>  <SCORE.INTRA.VDW.0>
1.11912

>  <SCORE.INTRA.norm>
0.0027461

>  <SCORE.RESTR>
0

>  <SCORE.RESTR.CAVITY>
0

>  <SCORE.RESTR.norm>
0

>  <SCORE.SYSTEM>
0

>  <SCORE.SYSTEM.CONST>
0

>  <SCORE.SYSTEM.DIHEDRAL>
0

>  <SCORE.SYSTEM.SOLV>
0

>  <SCORE.SYSTEM.norm>
0

>  <SCORE.heavy>
26

>  <SCORE.norm>
-2.41747

>  <RMSD>
0.695

$$$$
1f1t Malachite green aptamer (Xray 2.8A)
 OpenBabel11021811393D
libRbt.so/2013.1/901 2013/11/27
 26 29  0  0  0  0  0  0  0  0999 V2000
  111.1745  -74.5864  -81.9387 C   0  0  0  0  0  0  0  0  0  0  0  0
  111.7067  -75.8575  -82.4073 C   0  0  0  0  0  0  0  0  0  0  0  0
  111.4491  -76.0939  -83.7590 C   0  0  0  0  0  0  0  0  0  0  0  0
  112.0153  -77.4043  -84.1855 O   0  0  0  0  0  0  0  0  0  0  0  0
  111.7844  -77.6071  -85.4238 C   0  0  0  0  0  0  0  0  0  0  0  0
  112.3646  -78.9121  -85.7397 C   0  0  0  0  0  0  0  0  0  0  0  0
  112.2052  -79.3076  -87.1151 C   0  0  0  0  0  0  0  0  0  0  0  0
  111.5540  -78.4928  -88.0741 C   0  0  0  0  0  0  0  0  0  0  0  0
  110.9909  -77.2106  -87.6940 C   0  0  0  0  0  0  0  0  0  0  0  0
  111.1261  -76.8005  -86.3178 C   0  0  0  0  0  0  0  0  0  0  0  0
  110.4989  -75.4624  -86.0044 C   0  0  0  0  0  0  0  0  0  0  0  0
  110.7669  -75.2605  -84.6385 C   0  0  0  0  0  0  0  0  0  0  0  0
  110.2328  -73.9888  -84.1459 C   0  0  0  0  0  0  0  0  0  0  0  0
  110.4852  -73.7204  -82.7651 C   0  0  0  0  0  0  0  0  0  0  0  0
  109.8389  -74.6989  -86.9485 C   0  0  0  0  0  0  0  0  0  0  0  0
  108.7877  -75.1501  -87.7802 C   0  0  0  0  0  0  0  0  0  0  0  0
  108.0987  -74.3888  -88.7260 C   0  0  0  0  0  0  0  0  0  0  0  0
  108.4504  -72.9897  -88.9177 C   0  0  0  0  0  0  0  0  0  0  0  0
  109.5121  -72.5727  -88.0793 C   0  0  0  0  0  0  0  0  0  0  0  0
  110.2325  -73.3009  -87.1225 C   0  0  0  0  0  0  0  0  0  0  0  0
  111.3541  -74.2053  -80.6162 N   0  3  0  0  0  0  0  0  0  0  0  0
  112.0776  -75.0348  -79.6592 C   0  0  0  0  0  0  0  0  0  0  0  0
  110.8665  -72.9560  -79.9913 C   0  0  0  0  0  0  0  0  0  0  0  0
  112.7470  -80.5753  -87.3883 N   0  0  0  0  0  0  0  0  0  0  0  0
  112.9277  -81.3140  -88.6579 C   0  0  0  0  0  0  0  0  0  0  0  0
  113.2713  -81.3672  -86.2200 C   0  0  0  0  0  0  0  0  0  0  0  0
  1  2  1  0  0  0  0
  1 14  1  0  0  0  0
  1 21  2  0  0  0  0
  2  3  2  0  0  0  0
  3  4  1  0  0  0  0
  3 12  1  0  0  0  0
  4  5  1  0  0  0  0
  5  6  1  0  0  0  0
  5 10  2  0  0  0  0
  6  7  2  0  0  0  0
  7  8  1  0  0  0  0
  7 24  1  0  0  0  0
  8  9  2  0  0  0  0
  9 10  1  0  0  0  0
 10 11  1  0  0  0  0
 11 12  2  0  0  0  0
 11 15  1  0  0  0  0
 12 13  1  0  0  0  0
 13 14  2  0  0  0  0
 15 16  2  0  0  0  0
 15 20  1  0  0  0  0
 16 17  1  0  0  0  0
 17 18  2  0  0  0  0
 18 19  1  0  0  0  0
 19 20  2  0  0  0  0
 21 22  1  0  0  0  0
 21 23  1  0  0  0  0
 24 25  1  0  0  0  0
 24 26  1  0  0  0  0
M  CHG  1  21   1
M  END
>  <CHROM.1>
-173.27336584,52.75620676,111.06225316,-76.17755255,-85.33981803,-1.86001416
1.04748657,-2.08071406

>  <Name>
1f1t Malachite green aptamer (Xray 2.8A)

>  <RI>
0

>  <Rbt.Current_Directory>
/home/itssahil/PROJECTS/Mol_Feturizer/New_Systems/rnas/1f1t

>  <Rbt.Executable>
rbdock ($Id: //depot/dev/client3/rdock/2013.1/src/exe/rbdock.cxx#4 $)

>  <Rbt.Library>
libRbt.so (2013.1, Build901 2013/11/27)

>  <Rbt.Parameter_File>
/export/apps/rDock/src/rDock_2013.1_src/data/scripts/dock_solv.prm

>  <Rbt.Receptor>
prm/pocket_docking_3.prm

>  <SCORE>
-59.3006

>  <SCORE.INTER>
-62.6963

>  <SCORE.INTER.CONST>
1

>  <SCORE.INTER.POLAR>
0

>  <SCORE.INTER.ROT>
2

>  <SCORE.INTER.SOLV>
11.193

>  <SCORE.INTER.VDW>
-50.4619

>  <SCORE.INTER.norm>
-2.4114

>  <SCORE.INTRA>
3.39566

>  <SCORE.INTRA.DIHEDRAL>
-1.00132

>  <SCORE.INTRA.DIHEDRAL.0>
4.18538

>  <SCORE.INTRA.POLAR>
0

>  <SCORE.INTRA.POLAR.0>
0

>  <SCORE.INTRA.REPUL>
0

>  <SCORE.INTRA.REPUL.0>
0

>  <SCORE.INTRA.SOLV>
0.0169679

>  <SCORE.INTRA.SOLV.lig_0>
-5.16926

>  <SCORE.INTRA.VDW>
3.88783

>  <SCORE.INTRA.VDW.0>
1.11912

>  <SCORE.INTRA.norm>
0.130602

>  <SCORE.RESTR>
0

>  <SCORE.RESTR.CAVITY>
0

>  <SCORE.RESTR.norm>
0

>  <SCORE.SYSTEM>
0

>  <SCORE.SYSTEM.CONST>
0

>  <SCORE.SYSTEM.DIHEDRAL>
0

>  <SCORE.SYSTEM.SOLV>
0

>  <SCORE.SYSTEM.norm>
0

>  <SCORE.heavy>
26

>  <SCORE.norm>
-2.28079

>  <RMSD>
0.696

$$$$
1f1t Malachite green aptamer (Xray 2.8A)
 OpenBabel11021811393D
libRbt.so/2013.1/901 2013/11/27
 26 29  0  0  0  0  0  0  0  0999 V2000
  111.2030  -74.5914  -81.9510 C   0  0  0  0  0  0  0  0  0  0  0  0
  111.7290  -75.8653  -82.4187 C   0  0  0  0  0  0  0  0  0  0  0  0
  111.4673  -76.1031  -83.7694 C   0  0  0  0  0  0  0  0  0  0  0  0
  112.0272  -77.4165  -84.1948 O   0  0  0  0  0  0  0  0  0  0  0  0
  111.7926  -77.6205  -85.4323 C   0  0  0  0  0  0  0  0  0  0  0  0
  112.3669  -78.9284  -85.7473 C   0  0  0  0  0  0  0  0  0  0  0  0
  112.2027  -79.3256  -87.1216 C   0  0  0  0  0  0  0  0  0  0  0  0
  111.5525  -78.5099  -88.0804 C   0  0  0  0  0  0  0  0  0  0  0  0
  110.9953  -77.2248  -87.7012 C   0  0  0  0  0  0  0  0  0  0  0  0
  111.1354  -76.8129  -86.3261 C   0  0  0  0  0  0  0  0  0  0  0  0
  110.5142  -75.4718  -86.0135 C   0  0  0  0  0  0  0  0  0  0  0  0
  110.7862  -75.2685  -84.6486 C   0  0  0  0  0  0  0  0  0  0  0  0
  110.2583  -73.9939  -84.1570 C   0  0  0  0  0  0  0  0  0  0  0  0
  110.5151  -73.7241  -82.7773 C   0  0  0  0  0  0  0  0  0  0  0  0
  109.8550  -74.7073  -86.9574 C   0  0  0  0  0  0  0  0  0  0  0  0
  108.7946  -75.1535  -87.7802 C   0  0  0  0  0  0  0  0  0  0  0  0
  108.1063  -74.3910  -88.7255 C   0  0  0  0  0  0  0  0  0  0  0  0
  108.4690  -72.9961  -88.9266 C   0  0  0  0  0  0  0  0  0  0  0  0
  109.5397  -72.5842  -88.0972 C   0  0  0  0  0  0  0  0  0  0  0  0
  110.2597  -73.3138  -87.1411 C   0  0  0  0  0  0  0  0  0  0  0  0
  111.3872  -74.2087  -80.6296 N   0  3  0  0  0  0  0  0  0  0  0  0
  112.1098  -75.0393  -79.6729 C   0  0  0  0  0  0  0  0  0  0  0  0
  110.9061  -72.9564  -80.0057 C   0  0  0  0  0  0  0  0  0  0  0  0
  112.7389  -80.5959  -87.3938 N   0  0  0  0  0  0  0  0  0  0  0  0
  112.8722  -81.3563  -88.6565 C   0  0  0  0  0  0  0  0  0  0  0  0
  113.3127  -81.3650  -86.2336 C   0  0  0  0  0  0  0  0  0  0  0  0
  1  2  1  0  0  0  0
  1 14  1  0  0  0  0
  1 21  2  0  0  0  0
  2  3  2  0  0  0  0
  3  4  1  0  0  0  0
  3 12  1  0  0  0  0
  4  5  1  0  0  0  0
  5  6  1  0  0  0  0
  5 10  2  0  0  0  0
  6  7  2  0  0  0  0
  7  8  1  0  0  0  0
  7 24  1  0  0  0  0
  8  9  2  0  0  0  0
  9 10  1  0  0  0  0
 10 11  1  0  0  0  0
 11 12  2  0  0  0  0
 11 15  1  0  0  0  0
 12 13  1  0  0  0  0
 13 14  2  0  0  0  0
 15 16  2  0  0  0  0
 15 20  1  0  0  0  0
 16 17  1  0  0  0  0
 17 18  2  0  0  0  0
 18 19  1  0  0  0  0
 19 20  2  0  0  0  0
 21 22  1  0  0  0  0
 21 23  1  0  0  0  0
 24 25  1  0  0  0  0
 24 26  1  0  0  0  0
M  CHG  1  21   1
M  END
>  <CHROM.1>
-175.64732361,53.16483839,111.07675252,-76.18780813,-85.34919906,-1.85121778
1.04902010,-2.09007965

>  <Name>
1f1t Malachite green aptamer (Xray 2.8A)

>  <RI>
0

>  <Rbt.Current_Directory>
/home/itssahil/PROJECTS/Mol_Feturizer/New_Systems/rnas/1f1t

>  <Rbt.Executable>
rbdock ($Id: //depot/dev/client3/rdock/2013.1/src/exe/rbdock.cxx#4 $)

>  <Rbt.Library>
libRbt.so (2013.1, Build901 2013/11/27)

>  <Rbt.Parameter_File>
/export/apps/rDock/src/rDock_2013.1_src/data/scripts/dock_solv.prm

>  <Rbt.Receptor>
prm/pocket_docking_4.prm

>  <SCORE>
-59.2282

>  <SCORE.INTER>
-62.6386

>  <SCORE.INTER.CONST>
1

>  <SCORE.INTER.POLAR>
0

>  <SCORE.INTER.ROT>
2

>  <SCORE.INTER.SOLV>
11.228

>  <SCORE.INTER.VDW>
-50.435

>  <SCORE.INTER.norm>
-2.40918

>  <SCORE.INTRA>
3.41032

>  <SCORE.INTRA.DIHEDRAL>
-1.06759

>  <SCORE.INTRA.DIHEDRAL.0>
4.18538

>  <SCORE.INTRA.POLAR>
0

>  <SCORE.INTRA.POLAR.0>
0

>  <SCORE.INTRA.REPUL>
0

>  <SCORE.INTRA.REPUL.0>
0

>  <SCORE.INTRA.SOLV>
0.0166324

>  <SCORE.INTRA.SOLV.lig_0>
-5.16926

>  <SCORE.INTRA.VDW>
3.9358

>  <SCORE.INTRA.VDW.0>
1.11912

>  <SCORE.INTRA.norm>
0.131166

>  <SCORE.RESTR>
0

>  <SCORE.RESTR.CAVITY>
0

>  <SCORE.RESTR.norm>
0

>  <SCORE.SYSTEM>
0

>  <SCORE.SYSTEM.CONST>
0

>  <SCORE.SYSTEM.DIHEDRAL>
0

>  <SCORE.SYSTEM.SOLV>
0

>  <SCORE.SYSTEM.norm>
0

>  <SCORE.heavy>
26

>  <SCORE.norm>
-2.27801

>  <RMSD>
0.696

$$$$
1f1t Malachite green aptamer (Xray 2.8A)
 OpenBabel11021811393D
libRbt.so/2013.1/901 2013/11/27
 26 29  0  0  0  0  0  0  0  0999 V2000
  111.1181  -74.5764  -81.9345 C   0  0  0  0  0  0  0  0  0  0  0  0
  111.6526  -75.8504  -82.3922 C   0  0  0  0  0  0  0  0  0  0  0  0
  111.4079  -76.0924  -83.7454 C   0  0  0  0  0  0  0  0  0  0  0  0
  111.9758  -77.4057  -84.1604 O   0  0  0  0  0  0  0  0  0  0  0  0
  111.7568  -77.6135  -85.4001 C   0  0  0  0  0  0  0  0  0  0  0  0
  112.3377  -78.9210  -85.7045 C   0  0  0  0  0  0  0  0  0  0  0  0
  112.1911  -79.3223  -87.0797 C   0  0  0  0  0  0  0  0  0  0  0  0
  111.5508  -78.5106  -88.0486 C   0  0  0  0  0  0  0  0  0  0  0  0
  110.9863  -77.2257  -87.6796 C   0  0  0  0  0  0  0  0  0  0  0  0
  111.1087  -76.8098  -86.3040 C   0  0  0  0  0  0  0  0  0  0  0  0
  110.4809  -75.4692  -86.0027 C   0  0  0  0  0  0  0  0  0  0  0  0
  110.7358  -75.2617  -84.6351 C   0  0  0  0  0  0  0  0  0  0  0  0
  110.1991  -73.9869  -84.1534 C   0  0  0  0  0  0  0  0  0  0  0  0
  110.4385  -73.7129  -82.7714 C   0  0  0  0  0  0  0  0  0  0  0  0
  109.8315  -74.7087  -86.9566 C   0  0  0  0  0  0  0  0  0  0  0  0
  108.7687  -75.1534  -87.7770 C   0  0  0  0  0  0  0  0  0  0  0  0
  108.0903  -74.3946  -88.7324 C   0  0  0  0  0  0  0  0  0  0  0  0
  108.4674  -73.0057  -88.9480 C   0  0  0  0  0  0  0  0  0  0  0  0
  109.5402  -72.5953  -88.1205 C   0  0  0  0  0  0  0  0  0  0  0  0
  110.2506  -73.3214  -87.1547 C   0  0  0  0  0  0  0  0  0  0  0  0
  111.2854  -74.1898  -80.6120 N   0  3  0  0  0  0  0  0  0  0  0  0
  111.9981  -75.0163  -79.6443 C   0  0  0  0  0  0  0  0  0  0  0  0
  110.7940  -72.9369  -79.9973 C   0  0  0  0  0  0  0  0  0  0  0  0
  112.7333  -80.5921  -87.3419 N   0  0  0  0  0  0  0  0  0  0  0  0
  113.3419  -81.6041  -86.4499 C   0  0  0  0  0  0  0  0  0  0  0  0
  112.7028  -81.0735  -88.7682 C   0  0  0  0  0  0  0  0  0  0  0  0
  1  2  1  0  0  0  0
  1 14  1  0  0  0  0
  1 21  2  0  0  0  0
  2  3  2  0  0  0  0
  3  4  1  0  0  0  0
  3 12  1  0  0  0  0
  4  5  1  0  0  0  0
  5  6  1  0  0  0  0
  5 10  2  0  0  0  0
  6  7  2  0  0  0  0
  7  8  1  0  0  0  0
  7 24  1  0  0  0  0
  8  9  2  0  0  0  0
  9 10  1  0  0  0  0
 10 11  1  0  0  0  0
 11 12  2  0  0  0  0
 11 15  1  0  0  0  0
 12 13  1  0  0  0  0
 13 14  2  0  0  0  0
 15 16  2  0  0  0  0
 15 20  1  0  0  0  0
 16 17  1  0  0  0  0
 17 18  2  0  0  0  0
 18 19  1  0  0  0  0
 19 20  2  0  0  0  0
 21 22  1  0  0  0  0
 21 23  1  0  0  0  0
 24 25  1  0  0  0  0
 24 26  1  0  0  0  0
M  CHG  1  21   1
M  END
>  <CHROM.1>
4.30357052,54.17942652,111.03112851,-76.18067983,-85.34918296,-1.86196284
1.05344419,-2.07203300

>  <Name>
1f1t Malachite green aptamer (Xray 2.8A)

>  <RI>
0

>  <Rbt.Current_Directory>
/home/itssahil/PROJECTS/Mol_Feturizer/New_Systems/rnas/1f1t

>  <Rbt.Executable>
rbdock ($Id: //depot/dev/client3/rdock/2013.1/src/exe/rbdock.cxx#4 $)

>  <Rbt.Library>
libRbt.so (2013.1, Build901 2013/11/27)

>  <Rbt.Parameter_File>
/export/apps/rDock/src/rDock_2013.1_src/data/scripts/dock_solv.prm

>  <Rbt.Receptor>
prm/pocket_docking_7.prm

>  <SCORE>
-62.8025

>  <SCORE.INTER>
-62.8373

>  <SCORE.INTER.CONST>
1

>  <SCORE.INTER.POLAR>
0

>  <SCORE.INTER.ROT>
2

>  <SCORE.INTER.SOLV>
11.1938

>  <SCORE.INTER.VDW>
-50.5562

>  <SCORE.INTER.norm>
-2.41682

>  <SCORE.INTRA>
0.0347924

>  <SCORE.INTRA.DIHEDRAL>
-0.98777

>  <SCORE.INTRA.DIHEDRAL.0>
4.18538

>  <SCORE.INTRA.POLAR>
0

>  <SCORE.INTRA.POLAR.0>
0

>  <SCORE.INTRA.REPUL>
0

>  <SCORE.INTRA.REPUL.0>
0

>  <SCORE.INTRA.SOLV>
0.0172263

>  <SCORE.INTRA.SOLV.lig_0>
-5.16926

>  <SCORE.INTRA.VDW>
0.520064

>  <SCORE.INTRA.VDW.0>
1.11912

>  <SCORE.INTRA.norm>
0.00133817

>  <SCORE.RESTR>
0

>  <SCORE.RESTR.CAVITY>
0

>  <SCORE.RESTR.norm>
0

>  <SCORE.SYSTEM>
0

>  <SCORE.SYSTEM.CONST>
0

>  <SCORE.SYSTEM.DIHEDRAL>
0

>  <SCORE.SYSTEM.SOLV>
0

>  <SCORE.SYSTEM.norm>
0

>  <SCORE.heavy>
26

>  <SCORE.norm>
-2.41548

>  <RMSD>
0.696

$$$$
1f1t Malachite green aptamer (Xray 2.8A)
 OpenBabel11021811393D
libRbt.so/2013.1/901 2013/11/27
 26 29  0  0  0  0  0  0  0  0999 V2000
  111.1817  -74.6187  -81.9458 C   0  0  0  0  0  0  0  0  0  0  0  0
  111.7149  -75.8865  -82.4222 C   0  0  0  0  0  0  0  0  0  0  0  0
  111.4563  -76.1155  -83.7750 C   0  0  0  0  0  0  0  0  0  0  0  0
  112.0235  -77.4228  -84.2094 O   0  0  0  0  0  0  0  0  0  0  0  0
  111.7918  -77.6188  -85.4486 C   0  0  0  0  0  0  0  0  0  0  0  0
  112.3732  -78.9214  -85.7725 C   0  0  0  0  0  0  0  0  0  0  0  0
  112.2130  -79.3092  -87.1500 C   0  0  0  0  0  0  0  0  0  0  0  0
  111.5600  -78.4896  -88.1037 C   0  0  0  0  0  0  0  0  0  0  0  0
  110.9958  -77.2102  -87.7158 C   0  0  0  0  0  0  0  0  0  0  0  0
  111.1318  -76.8079  -86.3374 C   0  0  0  0  0  0  0  0  0  0  0  0
  110.5034  -75.4723  -86.0158 C   0  0  0  0  0  0  0  0  0  0  0  0
  110.7724  -75.2778  -84.6490 C   0  0  0  0  0  0  0  0  0  0  0  0
  110.2373  -74.0096  -84.1487 C   0  0  0  0  0  0  0  0  0  0  0  0
  110.4907  -73.7488  -82.7666 C   0  0  0  0  0  0  0  0  0  0  0  0
  109.8417  -74.7041  -86.9549 C   0  0  0  0  0  0  0  0  0  0  0  0
  108.7915  -75.1522  -87.7895 C   0  0  0  0  0  0  0  0  0  0  0  0
  108.1007  -74.3863  -88.7303 C   0  0  0  0  0  0  0  0  0  0  0  0
  108.4494  -72.9853  -88.9130 C   0  0  0  0  0  0  0  0  0  0  0  0
  109.5102  -72.5714  -88.0720 C   0  0  0  0  0  0  0  0  0  0  0  0
  110.2322  -73.3042  -87.1199 C   0  0  0  0  0  0  0  0  0  0  0  0
  111.3621  -74.2450  -80.6213 N   0  3  0  0  0  0  0  0  0  0  0  0
  112.0874  -75.0791  -79.6697 C   0  0  0  0  0  0  0  0  0  0  0  0
  110.8737  -72.9998  -79.9888 C   0  0  0  0  0  0  0  0  0  0  0  0
  112.7559  -80.5747  -87.4309 N   0  0  0  0  0  0  0  0  0  0  0  0
  112.9548  -81.2975  -88.7069 C   0  0  0  0  0  0  0  0  0  0  0  0
  113.2598  -81.3829  -86.2648 C   0  0  0  0  0  0  0  0  0  0  0  0
  1  2  1  0  0  0  0
  1 14  1  0  0  0  0
  1 21  2  0  0  0  0
  2  3  2  0  0  0  0
  3  4  1  0  0  0  0
  3 12  1  0  0  0  0
  4  5  1  0  0  0  0
  5  6  1  0  0  0  0
  5 10  2  0  0  0  0
  6  7  2  0  0  0  0
  7  8  1  0  0  0  0
  7 24  1  0  0  0  0
  8  9  2  0  0  0  0
  9 10  1  0  0  0  0
 10 11  1  0  0  0  0
 11 12  2  0  0  0  0
 11 15  1  0  0  0  0
 12 13  1  0  0  0  0
 13 14  2  0  0  0  0
 15 16  2  0  0  0  0
 15 20  1  0  0  0  0
 16 17  1  0  0  0  0
 17 18  2  0  0  0  0
 18 19  1  0  0  0  0
 19 20  2  0  0  0  0
 21 22  1  0  0  0  0
 21 23  1  0  0  0  0
 24 25  1  0  0  0  0
 24 26  1  0  0  0  0
M  CHG  1  21   1
M  END
>  <CHROM.1>
-172.21629172,52.66744224,111.06796535,-76.19063013,-85.35579303,-1.85985103
1.04639884,-2.07514791

>  <Name>
1f1t Malachite green aptamer (Xray 2.8A)

>  <RI>
0

>  <Rbt.Current_Directory>
/home/itssahil/PROJECTS/Mol_Feturizer/New_Systems/rnas/1f1t

>  <Rbt.Executable>
rbdock ($Id: //depot/dev/client3/rdock/2013.1/src/exe/rbdock.cxx#4 $)

>  <Rbt.Library>
libRbt.so (2013.1, Build901 2013/11/27)

>  <Rbt.Parameter_File>
/export/apps/rDock/src/rDock_2013.1_src/data/scripts/dock_solv.prm

>  <Rbt.Receptor>
prm/pocket_docking_7.prm

>  <SCORE>
-59.3047

>  <SCORE.INTER>
-62.6875

>  <SCORE.INTER.CONST>
1

>  <SCORE.INTER.POLAR>
0

>  <SCORE.INTER.ROT>
2

>  <SCORE.INTER.SOLV>
11.1542

>  <SCORE.INTER.VDW>
-50.4431

>  <SCORE.INTER.norm>
-2.41106

>  <SCORE.INTRA>
3.38287

>  <SCORE.INTRA.DIHEDRAL>
-0.950484

>  <SCORE.INTRA.DIHEDRAL.0>
4.18538

>  <SCORE.INTRA.POLAR>
0

>  <SCORE.INTRA.POLAR.0>
0

>  <SCORE.INTRA.REPUL>
0

>  <SCORE.INTRA.REPUL.0>
0

>  <SCORE.INTRA.SOLV>
0.0169907

>  <SCORE.INTRA.SOLV.lig_0>
-5.16926

>  <SCORE.INTRA.VDW>
3.84962

>  <SCORE.INTRA.VDW.0>
1.11912

>  <SCORE.INTRA.norm>
0.13011

>  <SCORE.RESTR>
0

>  <SCORE.RESTR.CAVITY>
0

>  <SCORE.RESTR.norm>
0

>  <SCORE.SYSTEM>
0

>  <SCORE.SYSTEM.CONST>
0

>  <SCORE.SYSTEM.DIHEDRAL>
0

>  <SCORE.SYSTEM.SOLV>
0

>  <SCORE.SYSTEM.norm>
0

>  <SCORE.heavy>
26

>  <SCORE.norm>
-2.28095

>  <RMSD>
0.696

$$$$
1f1t Malachite green aptamer (Xray 2.8A)
 OpenBabel11021811393D
libRbt.so/2013.1/901 2013/11/27
 26 29  0  0  0  0  0  0  0  0999 V2000
  111.1746  -74.5700  -81.9513 C   0  0  0  0  0  0  0  0  0  0  0  0
  111.7159  -75.8399  -82.4125 C   0  0  0  0  0  0  0  0  0  0  0  0
  111.4614  -76.0853  -83.7632 C   0  0  0  0  0  0  0  0  0  0  0  0
  112.0369  -77.3942  -84.1819 O   0  0  0  0  0  0  0  0  0  0  0  0
  111.8088  -77.6052  -85.4194 C   0  0  0  0  0  0  0  0  0  0  0  0
  112.3982  -78.9080  -85.7276 C   0  0  0  0  0  0  0  0  0  0  0  0
  112.2431  -79.3119  -87.1010 C   0  0  0  0  0  0  0  0  0  0  0  0
  111.5875  -78.5067  -88.0651 C   0  0  0  0  0  0  0  0  0  0  0  0
  111.0154  -77.2262  -87.6925 C   0  0  0  0  0  0  0  0  0  0  0  0
  111.1462  -76.8079  -86.3184 C   0  0  0  0  0  0  0  0  0  0  0  0
  110.5097  -75.4724  -86.0130 C   0  0  0  0  0  0  0  0  0  0  0  0
  110.7747  -75.2613  -84.6479 C   0  0  0  0  0  0  0  0  0  0  0  0
  110.2315  -73.9906  -84.1628 C   0  0  0  0  0  0  0  0  0  0  0  0
  110.4805  -73.7131  -82.7831 C   0  0  0  0  0  0  0  0  0  0  0  0
  109.8457  -74.7184  -86.9619 C   0  0  0  0  0  0  0  0  0  0  0  0
  108.8062  -75.1843  -87.8002 C   0  0  0  0  0  0  0  0  0  0  0  0
  108.1132  -74.4328  -88.7510 C   0  0  0  0  0  0  0  0  0  0  0  0
  108.4472  -73.0293  -88.9414 C   0  0  0  0  0  0  0  0  0  0  0  0
  109.4977  -72.5975  -88.0964 C   0  0  0  0  0  0  0  0  0  0  0  0
  110.2215  -73.3154  -87.1343 C   0  0  0  0  0  0  0  0  0  0  0  0
  111.3501  -74.1806  -80.6307 N   0  3  0  0  0  0  0  0  0  0  0  0
  112.0781  -75.0000  -79.6684 C   0  0  0  0  0  0  0  0  0  0  0  0
  110.8534  -72.9312  -80.0130 C   0  0  0  0  0  0  0  0  0  0  0  0
  112.7937  -80.5774  -87.3667 N   0  0  0  0  0  0  0  0  0  0  0  0
  112.9948  -81.3153  -88.6338 C   0  0  0  0  0  0  0  0  0  0  0  0
  113.3050  -81.3673  -86.1913 C   0  0  0  0  0  0  0  0  0  0  0  0
  1  2  1  0  0  0  0
  1 14  1  0  0  0  0
  1 21  2  0  0  0  0
  2  3  2  0  0  0  0
  3  4  1  0  0  0  0
  3 12  1  0  0  0  0
  4  5  1  0  0  0  0
  5  6  1  0  0  0  0
  5 10  2  0  0  0  0
  6  7  2  0  0  0  0
  7  8  1  0  0  0  0
  7 24  1  0  0  0  0
  8  9  2  0  0  0  0
  9 10  1  0  0  0  0
 10 11  1  0  0  0  0
 11 12  2  0  0  0  0
 11 15  1  0  0  0  0
 12 13  1  0  0  0  0
 13 14  2  0  0  0  0
 15 16  2  0  0  0  0
 15 20  1  0  0  0  0
 16 17  1  0  0  0  0
 17 18  2  0  0  0  0
 18 19  1  0  0  0  0
 19 20  2  0  0  0  0
 21 22  1  0  0  0  0
 21 23  1  0  0  0  0
 24 25  1  0  0  0  0
 24 26  1  0  0  0  0
M  CHG  1  21   1
M  END
>  <CHROM.1>
-172.46999884,52.19112934,111.07680811,-76.18016765,-85.34381972,-1.86876634
1.04239546,-2.07860338

>  <Name>
1f1t Malachite green aptamer (Xray 2.8A)

>  <RI>
0

>  <Rbt.Current_Directory>
/home/itssahil/PROJECTS/Mol_Feturizer/New_Systems/rnas/1f1t

>  <Rbt.Executable>
rbdock ($Id: //depot/dev/client3/rdock/2013.1/src/exe/rbdock.cxx#4 $)

>  <Rbt.Library>
libRbt.so (2013.1, Build901 2013/11/27)

>  <Rbt.Parameter_File>
/export/apps/rDock/src/rDock_2013.1_src/data/scripts/dock_solv.prm

>  <Rbt.Receptor>
prm/pocket_docking_2.prm

>  <SCORE>
-59.3198

>  <SCORE.INTER>
-62.699

>  <SCORE.INTER.CONST>
1

>  <SCORE.INTER.POLAR>
0

>  <SCORE.INTER.ROT>
2

>  <SCORE.INTER.SOLV>
11.2111

>  <SCORE.INTER.VDW>
-50.4697

>  <SCORE.INTER.norm>
-2.4115

>  <SCORE.INTRA>
3.37926

>  <SCORE.INTRA.DIHEDRAL>
-1.00387

>  <SCORE.INTRA.DIHEDRAL.0>
4.18538

>  <SCORE.INTRA.POLAR>
0

>  <SCORE.INTRA.POLAR.0>
0

>  <SCORE.INTRA.REPUL>
0

>  <SCORE.INTRA.REPUL.0>
0

>  <SCORE.INTRA.SOLV>
0.0175465

>  <SCORE.INTRA.SOLV.lig_0>
-5.16926

>  <SCORE.INTRA.VDW>
3.87242

>  <SCORE.INTRA.VDW.0>
1.11912

>  <SCORE.INTRA.norm>
0.129971

>  <SCORE.RESTR>
0

>  <SCORE.RESTR.CAVITY>
0

>  <SCORE.RESTR.norm>
0

>  <SCORE.SYSTEM>
0

>  <SCORE.SYSTEM.CONST>
0

>  <SCORE.SYSTEM.DIHEDRAL>
0

>  <SCORE.SYSTEM.SOLV>
0

>  <SCORE.SYSTEM.norm>
0

>  <SCORE.heavy>
26

>  <SCORE.norm>
-2.28153

>  <RMSD>
0.697

$$$$
1f1t Malachite green aptamer (Xray 2.8A)
 OpenBabel11021811393D
libRbt.so/2013.1/901 2013/11/27
 26 29  0  0  0  0  0  0  0  0999 V2000
  111.1664  -74.5835  -81.9497 C   0  0  0  0  0  0  0  0  0  0  0  0
  111.7056  -75.8537  -82.4128 C   0  0  0  0  0  0  0  0  0  0  0  0
  111.4537  -76.0951  -83.7647 C   0  0  0  0  0  0  0  0  0  0  0  0
  112.0268  -77.4043  -84.1853 O   0  0  0  0  0  0  0  0  0  0  0  0
  111.8012  -77.6116  -85.4239 C   0  0  0  0  0  0  0  0  0  0  0  0
  112.3879  -78.9152  -85.7340 C   0  0  0  0  0  0  0  0  0  0  0  0
  112.2350  -79.3153  -87.1088 C   0  0  0  0  0  0  0  0  0  0  0  0
  111.5838  -78.5060  -88.0724 C   0  0  0  0  0  0  0  0  0  0  0  0
  111.0140  -77.2250  -87.6979 C   0  0  0  0  0  0  0  0  0  0  0  0
  111.1426  -76.8104  -86.3225 C   0  0  0  0  0  0  0  0  0  0  0  0
  110.5087  -75.4741  -86.0151 C   0  0  0  0  0  0  0  0  0  0  0  0
  110.7710  -75.2671  -84.6489 C   0  0  0  0  0  0  0  0  0  0  0  0
  110.2299  -73.9963  -84.1619 C   0  0  0  0  0  0  0  0  0  0  0  0
  110.4764  -73.7228  -82.7810 C   0  0  0  0  0  0  0  0  0  0  0  0
  109.8488  -74.7161  -86.9637 C   0  0  0  0  0  0  0  0  0  0  0  0
  108.7998  -75.1730  -87.7951 C   0  0  0  0  0  0  0  0  0  0  0  0
  108.1109  -74.4172  -88.7454 C   0  0  0  0  0  0  0  0  0  0  0  0
  108.4603  -73.0184  -88.9429 C   0  0  0  0  0  0  0  0  0  0  0  0
  109.5199  -72.5957  -88.1048 C   0  0  0  0  0  0  0  0  0  0  0  0
  110.2401  -73.3182  -87.1435 C   0  0  0  0  0  0  0  0  0  0  0  0
  111.3398  -74.1979  -80.6277 N   0  3  0  0  0  0  0  0  0  0  0  0
  112.0635  -75.0215  -79.6658 C   0  0  0  0  0  0  0  0  0  0  0  0
  110.8448  -72.9488  -80.0081 C   0  0  0  0  0  0  0  0  0  0  0  0
  112.7831  -80.5815  -87.3764 N   0  0  0  0  0  0  0  0  0  0  0  0
  113.3433  -81.6188  -86.4818 C   0  0  0  0  0  0  0  0  0  0  0  0
  112.8188  -81.0273  -88.8141 C   0  0  0  0  0  0  0  0  0  0  0  0
  1  2  1  0  0  0  0
  1 14  1  0  0  0  0
  1 21  2  0  0  0  0
  2  3  2  0  0  0  0
  3  4  1  0  0  0  0
  3 12  1  0  0  0  0
  4  5  1  0  0  0  0
  5  6  1  0  0  0  0
  5 10  2  0  0  0  0
  6  7  2  0  0  0  0
  7  8  1  0  0  0  0
  7 24  1  0  0  0  0
  8  9  2  0  0  0  0
  9 10  1  0  0  0  0
 10 11  1  0  0  0  0
 11 12  2  0  0  0  0
 11 15  1  0  0  0  0
 12 13  1  0  0  0  0
 13 14  2  0  0  0  0
 15 16  2  0  0  0  0
 15 20  1  0  0  0  0
 16 17  1  0  0  0  0
 17 18  2  0  0  0  0
 18 19  1  0  0  0  0
 19 20  2  0  0  0  0
 21 22  1  0  0  0  0
 21 23  1  0  0  0  0
 24 25  1  0  0  0  0
 24 26  1  0  0  0  0
M  CHG  1  21   1
M  END
>  <CHROM.1>
7.75264485,52.95442316,111.06768633,-76.18296423,-85.36620561,-1.85834765
1.04569600,-2.07362165

>  <Name>
1f1t Malachite green aptamer (Xray 2.8A)

>  <RI>
0

>  <Rbt.Current_Directory>
/home/itssahil/PROJECTS/Mol_Feturizer/New_Systems/rnas/1f1t

>  <Rbt.Executable>
rbdock ($Id: //depot/dev/client3/rdock/2013.1/src/exe/rbdock.cxx#4 $)

>  <Rbt.Library>
libRbt.so (2013.1, Build901 2013/11/27)

>  <Rbt.Parameter_File>
/export/apps/rDock/src/rDock_2013.1_src/data/scripts/dock_solv.prm

>  <Rbt.Receptor>
prm/pocket_docking_3.prm

>  <SCORE>
-62.802

>  <SCORE.INTER>
-62.8882

>  <SCORE.INTER.CONST>
1

>  <SCORE.INTER.POLAR>
0

>  <SCORE.INTER.ROT>
2

>  <SCORE.INTER.SOLV>
11.1758

>  <SCORE.INTER.VDW>
-50.5841

>  <SCORE.INTER.norm>
-2.41878

>  <SCORE.INTRA>
0.0861856

>  <SCORE.INTRA.DIHEDRAL>
-0.929082

>  <SCORE.INTRA.DIHEDRAL.0>
4.18538

>  <SCORE.INTRA.POLAR>
0

>  <SCORE.INTRA.POLAR.0>
0

>  <SCORE.INTRA.REPUL>
0

>  <SCORE.INTRA.REPUL.0>
0

>  <SCORE.INTRA.SOLV>
0.0185983

>  <SCORE.INTRA.SOLV.lig_0>
-5.16926

>  <SCORE.INTRA.VDW>
0.541427

>  <SCORE.INTRA.VDW.0>
1.11912

>  <SCORE.INTRA.norm>
0.00331483

>  <SCORE.RESTR>
0

>  <SCORE.RESTR.CAVITY>
0

>  <SCORE.RESTR.norm>
0

>  <SCORE.SYSTEM>
0

>  <SCORE.SYSTEM.CONST>
0

>  <SCORE.SYSTEM.DIHEDRAL>
0

>  <SCORE.SYSTEM.SOLV>
0

>  <SCORE.SYSTEM.norm>
0

>  <SCORE.heavy>
26

>  <SCORE.norm>
-2.41546

>  <RMSD>
0.697

$$$$
1f1t Malachite green aptamer (Xray 2.8A)
 OpenBabel11021811393D
libRbt.so/2013.1/901 2013/11/27
 26 29  0  0  0  0  0  0  0  0999 V2000
  111.1691  -74.6321  -81.9535 C   0  0  0  0  0  0  0  0  0  0  0  0
  111.6983  -75.9027  -82.4269 C   0  0  0  0  0  0  0  0  0  0  0  0
  111.4423  -76.1322  -83.7801 C   0  0  0  0  0  0  0  0  0  0  0  0
  112.0053  -77.4424  -84.2115 O   0  0  0  0  0  0  0  0  0  0  0  0
  111.7760  -77.6389  -85.4511 C   0  0  0  0  0  0  0  0  0  0  0  0
  112.3528  -78.9443  -85.7719 C   0  0  0  0  0  0  0  0  0  0  0  0
  112.1947  -79.3331  -87.1493 C   0  0  0  0  0  0  0  0  0  0  0  0
  111.5475  -78.5121  -88.1057 C   0  0  0  0  0  0  0  0  0  0  0  0
  110.9876  -77.2299  -87.7208 C   0  0  0  0  0  0  0  0  0  0  0  0
  111.1216  -76.8264  -86.3426 C   0  0  0  0  0  0  0  0  0  0  0  0
  110.4979  -75.4879  -86.0242 C   0  0  0  0  0  0  0  0  0  0  0  0
  110.7641  -75.2928  -84.6570 C   0  0  0  0  0  0  0  0  0  0  0  0
  110.2329  -74.0218  -84.1596 C   0  0  0  0  0  0  0  0  0  0  0  0
  110.4838  -73.7604  -82.7772 C   0  0  0  0  0  0  0  0  0  0  0  0
  109.8418  -74.7181  -86.9660 C   0  0  0  0  0  0  0  0  0  0  0  0
  108.7782  -75.1571  -87.7885 C   0  0  0  0  0  0  0  0  0  0  0  0
  108.0931  -74.3891  -88.7317 C   0  0  0  0  0  0  0  0  0  0  0  0
  108.4631  -72.9959  -88.9307 C   0  0  0  0  0  0  0  0  0  0  0  0
  109.5369  -72.5912  -88.1016 C   0  0  0  0  0  0  0  0  0  0  0  0
  110.2539  -73.3265  -87.1477 C   0  0  0  0  0  0  0  0  0  0  0  0
  111.3475  -74.2575  -80.6290 N   0  3  0  0  0  0  0  0  0  0  0  0
  112.0669  -75.0935  -79.6745 C   0  0  0  0  0  0  0  0  0  0  0  0
  110.8626  -73.0096  -79.9993 C   0  0  0  0  0  0  0  0  0  0  0  0
  112.7331  -80.6012  -87.4273 N   0  0  0  0  0  0  0  0  0  0  0  0
  113.3025  -81.6424  -86.5430 C   0  0  0  0  0  0  0  0  0  0  0  0
  112.7449  -81.0449  -88.8660 C   0  0  0  0  0  0  0  0  0  0  0  0
  1  2  1  0  0  0  0
  1 14  1  0  0  0  0
  1 21  2  0  0  0  0
  2  3  2  0  0  0  0
  3  4  1  0  0  0  0
  3 12  1  0  0  0  0
  4  5  1  0  0  0  0
  5  6  1  0  0  0  0
  5 10  2  0  0  0  0
  6  7  2  0  0  0  0
  7  8  1  0  0  0  0
  7 24  1  0  0  0  0
  8  9  2  0  0  0  0
  9 10  1  0  0  0  0
 10 11  1  0  0  0  0
 11 12  2  0  0  0  0
 11 15  1  0  0  0  0
 12 13  1  0  0  0  0
 13 14  2  0  0  0  0
 15 16  2  0  0  0  0
 15 20  1  0  0  0  0
 16 17  1  0  0  0  0
 17 18  2  0  0  0  0
 18 19  1  0  0  0  0
 19 20  2  0  0  0  0
 21 22  1  0  0  0  0
 21 23  1  0  0  0  0
 24 25  1  0  0  0  0
 24 26  1  0  0  0  0
M  CHG  1  21   1
M  END
>  <CHROM.1>
6.89302739,53.69858743,111.05286492,-76.20556286,-85.38161886,-1.84788791
1.05103326,-2.07521824

>  <Name>
1f1t Malachite green aptamer (Xray 2.8A)

>  <RI>
0

>  <Rbt.Current_Directory>
/home/itssahil/PROJECTS/Mol_Feturizer/New_Systems/rnas/1f1t

>  <Rbt.Executable>
rbdock ($Id: //depot/dev/client3/rdock/2013.1/src/exe/rbdock.cxx#4 $)

>  <Rbt.Library>
libRbt.so (2013.1, Build901 2013/11/27)

>  <Rbt.Parameter_File>
/export/apps/rDock/src/rDock_2013.1_src/data/scripts/dock_solv.prm

>  <Rbt.Receptor>
prm/pocket_docking_3.prm

>  <SCORE>
-62.813

>  <SCORE.INTER>
-62.876

>  <SCORE.INTER.CONST>
1

>  <SCORE.INTER.POLAR>
0

>  <SCORE.INTER.ROT>
2

>  <SCORE.INTER.SOLV>
11.1434

>  <SCORE.INTER.VDW>
-50.5651

>  <SCORE.INTER.norm>
-2.41831

>  <SCORE.INTRA>
0.0630588

>  <SCORE.INTRA.DIHEDRAL>
-0.916779

>  <SCORE.INTRA.DIHEDRAL.0>
4.18538

>  <SCORE.INTRA.POLAR>
0

>  <SCORE.INTRA.POLAR.0>
0

>  <SCORE.INTRA.REPUL>
0

>  <SCORE.INTRA.REPUL.0>
0

>  <SCORE.INTRA.SOLV>
0.0177652

>  <SCORE.INTRA.SOLV.lig_0>
-5.16926

>  <SCORE.INTRA.VDW>
0.512566

>  <SCORE.INTRA.VDW.0>
1.11912

>  <SCORE.INTRA.norm>
0.00242534

>  <SCORE.RESTR>
0

>  <SCORE.RESTR.CAVITY>
0

>  <SCORE.RESTR.norm>
0

>  <SCORE.SYSTEM>
0

>  <SCORE.SYSTEM.CONST>
0

>  <SCORE.SYSTEM.DIHEDRAL>
0

>  <SCORE.SYSTEM.SOLV>
0

>  <SCORE.SYSTEM.norm>
0

>  <SCORE.heavy>
26

>  <SCORE.norm>
-2.41588

>  <RMSD>
0.697

$$$$
1f1t Malachite green aptamer (Xray 2.8A)
 OpenBabel11021811393D
libRbt.so/2013.1/901 2013/11/27
 26 29  0  0  0  0  0  0  0  0999 V2000
  111.1835  -74.5882  -81.9498 C   0  0  0  0  0  0  0  0  0  0  0  0
  111.7117  -75.8621  -82.4152 C   0  0  0  0  0  0  0  0  0  0  0  0
  111.4524  -76.1017  -83.7660 C   0  0  0  0  0  0  0  0  0  0  0  0
  112.0145  -77.4150  -84.1891 O   0  0  0  0  0  0  0  0  0  0  0  0
  111.7822  -77.6206  -85.4267 C   0  0  0  0  0  0  0  0  0  0  0  0
  112.3584  -78.9283  -85.7393 C   0  0  0  0  0  0  0  0  0  0  0  0
  112.1970  -79.3272  -87.1134 C   0  0  0  0  0  0  0  0  0  0  0  0
  111.5474  -78.5133  -88.0742 C   0  0  0  0  0  0  0  0  0  0  0  0
  110.9882  -77.2284  -87.6974 C   0  0  0  0  0  0  0  0  0  0  0  0
  111.1256  -76.8148  -86.3225 C   0  0  0  0  0  0  0  0  0  0  0  0
  110.5025  -75.4740  -86.0125 C   0  0  0  0  0  0  0  0  0  0  0  0
  110.7719  -75.2689  -84.6474 C   0  0  0  0  0  0  0  0  0  0  0  0
  110.2418  -73.9943  -84.1581 C   0  0  0  0  0  0  0  0  0  0  0  0
  110.4961  -73.7226  -82.7783 C   0  0  0  0  0  0  0  0  0  0  0  0
  109.8440  -74.7113  -86.9584 C   0  0  0  0  0  0  0  0  0  0  0  0
  108.7840  -75.1590  -87.7809 C   0  0  0  0  0  0  0  0  0  0  0  0
  108.0965  -74.3982  -88.7282 C   0  0  0  0  0  0  0  0  0  0  0  0
  108.4596  -73.0038  -88.9319 C   0  0  0  0  0  0  0  0  0  0  0  0
  109.5298  -72.5904  -88.1026 C   0  0  0  0  0  0  0  0  0  0  0  0
  110.2491  -73.3182  -87.1446 C   0  0  0  0  0  0  0  0  0  0  0  0
  111.3651  -74.2039  -80.6286 N   0  3  0  0  0  0  0  0  0  0  0  0
  112.0870  -75.0326  -79.6697 C   0  0  0  0  0  0  0  0  0  0  0  0
  110.8816  -72.9514  -80.0069 C   0  0  0  0  0  0  0  0  0  0  0  0
  112.7349  -80.5973  -87.3833 N   0  0  0  0  0  0  0  0  0  0  0  0
  113.3246  -81.6238  -86.4951 C   0  0  0  0  0  0  0  0  0  0  0  0
  112.7216  -81.0614  -88.8156 C   0  0  0  0  0  0  0  0  0  0  0  0
  1  2  1  0  0  0  0
  1 14  1  0  0  0  0
  1 21  2  0  0  0  0
  2  3  2  0  0  0  0
  3  4  1  0  0  0  0
  3 12  1  0  0  0  0
  4  5  1  0  0  0  0
  5  6  1  0  0  0  0
  5 10  2  0  0  0  0
  6  7  2  0  0  0  0
  7  8  1  0  0  0  0
  7 24  1  0  0  0  0
  8  9  2  0  0  0  0
  9 10  1  0  0  0  0
 10 11  1  0  0  0  0
 11 12  2  0  0  0  0
 11 15  1  0  0  0  0
 12 13  1  0  0  0  0
 13 14  2  0  0  0  0
 15 16  2  0  0  0  0
 15 20  1  0  0  0  0
 16 17  1  0  0  0  0
 17 18  2  0  0  0  0
 18 19  1  0  0  0  0
 19 20  2  0  0  0  0
 21 22  1  0  0  0  0
 21 23  1  0  0  0  0
 24 25  1  0  0  0  0
 24 26  1  0  0  0  0
M  CHG  1  21   1
M  END
>  <CHROM.1>
5.86544453,53.27206251,111.05885247,-76.18696251,-85.36591025,-1.84311959
1.04951454,-2.08686213

>  <Name>
1f1t Malachite green aptamer (Xray 2.8A)

>  <RI>
0

>  <Rbt.Current_Directory>
/home/itssahil/PROJECTS/Mol_Feturizer/New_Systems/rnas/1f1t

>  <Rbt.Executable>
rbdock ($Id: //depot/dev/client3/rdock/2013.1/src/exe/rbdock.cxx#4 $)

>  <Rbt.Library>
libRbt.so (2013.1, Build901 2013/11/27)

>  <Rbt.Parameter_File>
/export/apps/rDock/src/rDock_2013.1_src/data/scripts/dock_solv.prm

>  <Rbt.Receptor>
prm/pocket_docking_4.prm

>  <SCORE>
-62.9098

>  <SCORE.INTER>
-62.9719

>  <SCORE.INTER.CONST>
1

>  <SCORE.INTER.POLAR>
0

>  <SCORE.INTER.ROT>
2

>  <SCORE.INTER.SOLV>
11.191

>  <SCORE.INTER.VDW>
-50.6449

>  <SCORE.INTER.norm>
-2.42199

>  <SCORE.INTRA>
0.0620838

>  <SCORE.INTRA.DIHEDRAL>
-1.00065

>  <SCORE.INTRA.DIHEDRAL.0>
4.18538

>  <SCORE.INTRA.POLAR>
0

>  <SCORE.INTRA.POLAR.0>
0

>  <SCORE.INTRA.REPUL>
0

>  <SCORE.INTRA.REPUL.0>
0

>  <SCORE.INTRA.SOLV>
0.0182552

>  <SCORE.INTRA.SOLV.lig_0>
-5.16926

>  <SCORE.INTRA.VDW>
0.553283

>  <SCORE.INTRA.VDW.0>
1.11912

>  <SCORE.INTRA.norm>
0.00238784

>  <SCORE.RESTR>
0

>  <SCORE.RESTR.CAVITY>
0

>  <SCORE.RESTR.norm>
0

>  <SCORE.SYSTEM>
0

>  <SCORE.SYSTEM.CONST>
0

>  <SCORE.SYSTEM.DIHEDRAL>
0

>  <SCORE.SYSTEM.SOLV>
0

>  <SCORE.SYSTEM.norm>
0

>  <SCORE.heavy>
26

>  <SCORE.norm>
-2.41961

>  <RMSD>
0.697

$$$$
1f1t Malachite green aptamer (Xray 2.8A)
 OpenBabel11021811393D
libRbt.so/2013.1/901 2013/11/27
 26 29  0  0  0  0  0  0  0  0999 V2000
  111.2495  -74.6038  -81.8970 C   0  0  0  0  0  0  0  0  0  0  0  0
  111.7534  -75.8811  -82.3797 C   0  0  0  0  0  0  0  0  0  0  0  0
  111.4955  -76.0944  -83.7351 C   0  0  0  0  0  0  0  0  0  0  0  0
  112.0322  -77.4125  -84.1760 O   0  0  0  0  0  0  0  0  0  0  0  0
  111.8015  -77.5942  -85.4176 C   0  0  0  0  0  0  0  0  0  0  0  0
  112.3519  -78.9086  -85.7478 C   0  0  0  0  0  0  0  0  0  0  0  0
  112.1887  -79.2830  -87.1287 C   0  0  0  0  0  0  0  0  0  0  0  0
  111.5606  -78.4410  -88.0797 C   0  0  0  0  0  0  0  0  0  0  0  0
  111.0265  -77.1507  -87.6854 C   0  0  0  0  0  0  0  0  0  0  0  0
  111.1659  -76.7612  -86.3037 C   0  0  0  0  0  0  0  0  0  0  0  0
  110.5693  -75.4126  -85.9758 C   0  0  0  0  0  0  0  0  0  0  0  0
  110.8366  -75.2342  -84.6065 C   0  0  0  0  0  0  0  0  0  0  0  0
  110.3308  -73.9565  -84.0999 C   0  0  0  0  0  0  0  0  0  0  0  0
  110.5841  -73.7114  -82.7149 C   0  0  0  0  0  0  0  0  0  0  0  0
  109.9312  -74.6219  -86.9126 C   0  0  0  0  0  0  0  0  0  0  0  0
  110.2573  -73.2786  -87.2119 C   0  0  0  0  0  0  0  0  0  0  0  0
  109.6356  -72.4713  -88.1662 C   0  0  0  0  0  0  0  0  0  0  0  0
  108.5420  -73.0095  -88.9612 C   0  0  0  0  0  0  0  0  0  0  0  0
  108.2331  -74.3507  -88.6298 C   0  0  0  0  0  0  0  0  0  0  0  0
  108.8257  -75.1945  -87.6803 C   0  0  0  0  0  0  0  0  0  0  0  0
  111.4329  -74.2436  -80.5692 N   0  3  0  0  0  0  0  0  0  0  0  0
  112.1329  -75.1019  -79.6201 C   0  0  0  0  0  0  0  0  0  0  0  0
  110.9726  -72.9910  -79.9303 C   0  0  0  0  0  0  0  0  0  0  0  0
  112.7014  -80.5596  -87.4159 N   0  0  0  0  0  0  0  0  0  0  0  0
  113.3226  -81.5867  -86.5501 C   0  0  0  0  0  0  0  0  0  0  0  0
  112.6164  -81.0316  -88.8431 C   0  0  0  0  0  0  0  0  0  0  0  0
  1  2  1  0  0  0  0
  1 14  1  0  0  0  0
  1 21  2  0  0  0  0
  2  3  2  0  0  0  0
  3  4  1  0  0  0  0
  3 12  1  0  0  0  0
  4  5  1  0  0  0  0
  5  6  1  0  0  0  0
  5 10  2  0  0  0  0
  6  7  2  0  0  0  0
  7  8  1  0  0  0  0
  7 24  1  0  0  0  0
  8  9  2  0  0  0  0
  9 10  1  0  0  0  0
 10 11  1  0  0  0  0
 11 12  2  0  0  0  0
 11 15  1  0  0  0  0
 12 13  1  0  0  0  0
 13 14  2  0  0  0  0
 15 16  2  0  0  0  0
 15 20  1  0  0  0  0
 16 17  1  0  0  0  0
 17 18  2  0  0  0  0
 18 19  1  0  0  0  0
 19 20  2  0  0  0  0
 21 22  1  0  0  0  0
 21 23  1  0  0  0  0
 24 25  1  0  0  0  0
 24 26  1  0  0  0  0
M  CHG  1  21   1
M  END
>  <CHROM.1>
2.60737164,-125.27084351,111.09984091,-76.16440920,-85.34725125,-1.80929473
1.06461068,-2.08662854

>  <Name>
1f1t Malachite green aptamer (Xray 2.8A)

>  <RI>
0

>  <Rbt.Current_Directory>
/home/itssahil/PROJECTS/Mol_Feturizer/New_Systems/rnas/1f1t

>  <Rbt.Executable>
rbdock ($Id: //depot/dev/client3/rdock/2013.1/src/exe/rbdock.cxx#4 $)

>  <Rbt.Library>
libRbt.so (2013.1, Build901 2013/11/27)

>  <Rbt.Parameter_File>
/export/apps/rDock/src/rDock_2013.1_src/data/scripts/dock_solv.prm

>  <Rbt.Receptor>
prm/pocket_docking_5.prm

>  <SCORE>
-63.2691

>  <SCORE.INTER>
-63.4023

>  <SCORE.INTER.CONST>
1

>  <SCORE.INTER.POLAR>
0

>  <SCORE.INTER.ROT>
2

>  <SCORE.INTER.SOLV>
11.2501

>  <SCORE.INTER.VDW>
-50.9516

>  <SCORE.INTER.norm>
-2.43855

>  <SCORE.INTRA>
0.133251

>  <SCORE.INTRA.DIHEDRAL>
-0.987755

>  <SCORE.INTRA.DIHEDRAL.0>
4.18538

>  <SCORE.INTRA.POLAR>
0

>  <SCORE.INTRA.POLAR.0>
0

>  <SCORE.INTRA.REPUL>
0

>  <SCORE.INTRA.REPUL.0>
0

>  <SCORE.INTRA.SOLV>
0.0166208

>  <SCORE.INTRA.SOLV.lig_0>
-5.16926

>  <SCORE.INTRA.VDW>
0.618818

>  <SCORE.INTRA.VDW.0>
1.11912

>  <SCORE.INTRA.norm>
0.00512502

>  <SCORE.RESTR>
0

>  <SCORE.RESTR.CAVITY>
0

>  <SCORE.RESTR.norm>
0

>  <SCORE.SYSTEM>
0

>  <SCORE.SYSTEM.CONST>
0

>  <SCORE.SYSTEM.DIHEDRAL>
0

>  <SCORE.SYSTEM.SOLV>
0

>  <SCORE.SYSTEM.norm>
0

>  <SCORE.heavy>
26

>  <SCORE.norm>
-2.43343

>  <RMSD>
0.697

$$$$
1f1t Malachite green aptamer (Xray 2.8A)
 OpenBabel11021811393D
libRbt.so/2013.1/901 2013/11/27
 26 29  0  0  0  0  0  0  0  0999 V2000
  111.1528  -74.5703  -81.9312 C   0  0  0  0  0  0  0  0  0  0  0  0
  111.6907  -75.8415  -82.3929 C   0  0  0  0  0  0  0  0  0  0  0  0
  111.4438  -76.0815  -83.7459 C   0  0  0  0  0  0  0  0  0  0  0  0
  112.0153  -77.3919  -84.1650 O   0  0  0  0  0  0  0  0  0  0  0  0
  111.7942  -77.5979  -85.4046 C   0  0  0  0  0  0  0  0  0  0  0  0
  112.3790  -78.9028  -85.7130 C   0  0  0  0  0  0  0  0  0  0  0  0
  112.2308  -79.3017  -87.0887 C   0  0  0  0  0  0  0  0  0  0  0  0
  111.5855  -78.4902  -88.0544 C   0  0  0  0  0  0  0  0  0  0  0  0
  111.0174  -77.2081  -87.6816 C   0  0  0  0  0  0  0  0  0  0  0  0
  111.1414  -76.7946  -86.3054 C   0  0  0  0  0  0  0  0  0  0  0  0
  110.5096  -75.4569  -85.9999 C   0  0  0  0  0  0  0  0  0  0  0  0
  110.7668  -75.2513  -84.6325 C   0  0  0  0  0  0  0  0  0  0  0  0
  110.2268  -73.9794  -84.1470 C   0  0  0  0  0  0  0  0  0  0  0  0
  110.4683  -73.7073  -82.7649 C   0  0  0  0  0  0  0  0  0  0  0  0
  109.8555  -74.6966  -86.9508 C   0  0  0  0  0  0  0  0  0  0  0  0
  108.7973  -75.1456  -87.7749 C   0  0  0  0  0  0  0  0  0  0  0  0
  108.1142  -74.3872  -88.7273 C   0  0  0  0  0  0  0  0  0  0  0  0
  108.4805  -72.9943  -88.9353 C   0  0  0  0  0  0  0  0  0  0  0  0
  109.5489  -72.5797  -88.1043 C   0  0  0  0  0  0  0  0  0  0  0  0
  110.2638  -73.3051  -87.1412 C   0  0  0  0  0  0  0  0  0  0  0  0
  111.3217  -74.1858  -80.6083 N   0  3  0  0  0  0  0  0  0  0  0  0
  112.0394  -75.0118  -79.6439 C   0  0  0  0  0  0  0  0  0  0  0  0
  110.8273  -72.9359  -79.9900 C   0  0  0  0  0  0  0  0  0  0  0  0
  112.7768  -80.5691  -87.3548 N   0  0  0  0  0  0  0  0  0  0  0  0
  113.3417  -81.6035  -86.4596 C   0  0  0  0  0  0  0  0  0  0  0  0
  112.8041  -81.0202  -88.7910 C   0  0  0  0  0  0  0  0  0  0  0  0
  1  2  1  0  0  0  0
  1 14  1  0  0  0  0
  1 21  2  0  0  0  0
  2  3  2  0  0  0  0
  3  4  1  0  0  0  0
  3 12  1  0  0  0  0
  4  5  1  0  0  0  0
  5  6  1  0  0  0  0
  5 10  2  0  0  0  0
  6  7  2  0  0  0  0
  7  8  1  0  0  0  0
  7 24  1  0  0  0  0
  8  9  2  0  0  0  0
  9 10  1  0  0  0  0
 10 11  1  0  0  0  0
 11 12  2  0  0  0  0
 11 15  1  0  0  0  0
 12 13  1  0  0  0  0
 13 14  2  0  0  0  0
 15 16  2  0  0  0  0
 15 20  1  0  0  0  0
 16 17  1  0  0  0  0
 17 18  2  0  0  0  0
 18 19  1  0  0  0  0
 19 20  2  0  0  0  0
 21 22  1  0  0  0  0
 21 23  1  0  0  0  0
 24 25  1  0  0  0  0
 24 26  1  0  0  0  0
M  CHG  1  21   1
M  END
>  <CHROM.1>
7.13064092,53.80695289,111.06415120,-76.16753369,-85.34915537,-1.86289309
1.04980518,-2.06900266

>  <Name>
1f1t Malachite green aptamer (Xray 2.8A)

>  <RI>
0

>  <Rbt.Current_Directory>
/home/itssahil/PROJECTS/Mol_Feturizer/New_Systems/rnas/1f1t

>  <Rbt.Executable>
rbdock ($Id: //depot/dev/client3/rdock/2013.1/src/exe/rbdock.cxx#4 $)

>  <Rbt.Library>
libRbt.so (2013.1, Build901 2013/11/27)

>  <Rbt.Parameter_File>
/export/apps/rDock/src/rDock_2013.1_src/data/scripts/dock_solv.prm

>  <Rbt.Receptor>
prm/pocket_docking_5.prm

>  <SCORE>
-62.7899

>  <SCORE.INTER>
-62.8533

>  <SCORE.INTER.CONST>
1

>  <SCORE.INTER.POLAR>
0

>  <SCORE.INTER.ROT>
2

>  <SCORE.INTER.SOLV>
11.1988

>  <SCORE.INTER.VDW>
-50.5685

>  <SCORE.INTER.norm>
-2.41744

>  <SCORE.INTRA>
0.0634064

>  <SCORE.INTRA.DIHEDRAL>
-0.895483

>  <SCORE.INTRA.DIHEDRAL.0>
4.18538

>  <SCORE.INTRA.POLAR>
0

>  <SCORE.INTRA.POLAR.0>
0

>  <SCORE.INTRA.REPUL>
0

>  <SCORE.INTRA.REPUL.0>
0

>  <SCORE.INTRA.SOLV>
0.0176404

>  <SCORE.INTRA.SOLV.lig_0>
-5.16926

>  <SCORE.INTRA.VDW>
0.502328

>  <SCORE.INTRA.VDW.0>
1.11912

>  <SCORE.INTRA.norm>
0.00243871

>  <SCORE.RESTR>
0

>  <SCORE.RESTR.CAVITY>
0

>  <SCORE.RESTR.norm>
0

>  <SCORE.SYSTEM>
0

>  <SCORE.SYSTEM.CONST>
0

>  <SCORE.SYSTEM.DIHEDRAL>
0

>  <SCORE.SYSTEM.SOLV>
0

>  <SCORE.SYSTEM.norm>
0

>  <SCORE.heavy>
26

>  <SCORE.norm>
-2.415

>  <RMSD>
0.697

$$$$
1f1t Malachite green aptamer (Xray 2.8A)
 OpenBabel11021811393D
libRbt.so/2013.1/901 2013/11/27
 26 29  0  0  0  0  0  0  0  0999 V2000
  111.1719  -74.5882  -81.9482 C   0  0  0  0  0  0  0  0  0  0  0  0
  111.7084  -75.8587  -82.4134 C   0  0  0  0  0  0  0  0  0  0  0  0
  111.4542  -76.0983  -83.7652 C   0  0  0  0  0  0  0  0  0  0  0  0
  112.0247  -77.4080  -84.1881 O   0  0  0  0  0  0  0  0  0  0  0  0
  111.7969  -77.6136  -85.4265 C   0  0  0  0  0  0  0  0  0  0  0  0
  112.3812  -78.9178  -85.7388 C   0  0  0  0  0  0  0  0  0  0  0  0
  112.2257  -79.3162  -87.1139 C   0  0  0  0  0  0  0  0  0  0  0  0
  111.5744  -78.5049  -88.0756 C   0  0  0  0  0  0  0  0  0  0  0  0
  111.0071  -77.2234  -87.6990 C   0  0  0  0  0  0  0  0  0  0  0  0
  111.1384  -76.8105  -86.3233 C   0  0  0  0  0  0  0  0  0  0  0  0
  110.5071  -75.4735  -86.0137 C   0  0  0  0  0  0  0  0  0  0  0  0
  110.7716  -75.2683  -84.6476 C   0  0  0  0  0  0  0  0  0  0  0  0
  110.2332  -73.9971  -84.1585 C   0  0  0  0  0  0  0  0  0  0  0  0
  110.4821  -73.7255  -82.7777 C   0  0  0  0  0  0  0  0  0  0  0  0
  109.8470  -74.7134  -86.9606 C   0  0  0  0  0  0  0  0  0  0  0  0
  108.8051  -75.1716  -87.8002 C   0  0  0  0  0  0  0  0  0  0  0  0
  108.1161  -74.4139  -88.7489 C   0  0  0  0  0  0  0  0  0  0  0  0
  108.4574  -73.0116  -88.9354 C   0  0  0  0  0  0  0  0  0  0  0  0
  109.5100  -72.5876  -88.0891 C   0  0  0  0  0  0  0  0  0  0  0  0
  110.2300  -73.3119  -87.1290 C   0  0  0  0  0  0  0  0  0  0  0  0
  111.3478  -74.2042  -80.6261 N   0  3  0  0  0  0  0  0  0  0  0  0
  112.0715  -75.0300  -79.6661 C   0  0  0  0  0  0  0  0  0  0  0  0
  110.8556  -72.9551  -80.0045 C   0  0  0  0  0  0  0  0  0  0  0  0
  112.7714  -80.5830  -87.3836 N   0  0  0  0  0  0  0  0  0  0  0  0
  113.3343  -81.6208  -86.4912 C   0  0  0  0  0  0  0  0  0  0  0  0
  112.8008  -81.0290  -88.8213 C   0  0  0  0  0  0  0  0  0  0  0  0
  1  2  1  0  0  0  0
  1 14  1  0  0  0  0
  1 21  2  0  0  0  0
  2  3  2  0  0  0  0
  3  4  1  0  0  0  0
  3 12  1  0  0  0  0
  4  5  1  0  0  0  0
  5  6  1  0  0  0  0
  5 10  2  0  0  0  0
  6  7  2  0  0  0  0
  7  8  1  0  0  0  0
  7 24  1  0  0  0  0
  8  9  2  0  0  0  0
  9 10  1  0  0  0  0
 10 11  1  0  0  0  0
 11 12  2  0  0  0  0
 11 15  1  0  0  0  0
 12 13  1  0  0  0  0
 13 14  2  0  0  0  0
 15 16  2  0  0  0  0
 15 20  1  0  0  0  0
 16 17  1  0  0  0  0
 17 18  2  0  0  0  0
 18 19  1  0  0  0  0
 19 20  2  0  0  0  0
 21 22  1  0  0  0  0
 21 23  1  0  0  0  0
 24 25  1  0  0  0  0
 24 26  1  0  0  0  0
M  CHG  1  21   1
M  END
>  <CHROM.1>
7.58343529,52.28037362,111.06567157,-76.18390296,-85.36623962,-1.85421788
1.04631939,-2.07625333

>  <Name>
1f1t Malachite green aptamer (Xray 2.8A)

>  <RI>
0

>  <Rbt.Current_Directory>
/home/itssahil/PROJECTS/Mol_Feturizer/New_Systems/rnas/1f1t

>  <Rbt.Executable>
rbdock ($Id: //depot/dev/client3/rdock/2013.1/src/exe/rbdock.cxx#4 $)

>  <Rbt.Library>
libRbt.so (2013.1, Build901 2013/11/27)

>  <Rbt.Parameter_File>
/export/apps/rDock/src/rDock_2013.1_src/data/scripts/dock_solv.prm

>  <Rbt.Receptor>
prm/pocket_docking_7.prm

>  <SCORE>
-62.8404

>  <SCORE.INTER>
-62.9214

>  <SCORE.INTER.CONST>
1

>  <SCORE.INTER.POLAR>
0

>  <SCORE.INTER.ROT>
2

>  <SCORE.INTER.SOLV>
11.1706

>  <SCORE.INTER.VDW>
-50.6045

>  <SCORE.INTER.norm>
-2.42005

>  <SCORE.INTRA>
0.0810234

>  <SCORE.INTRA.DIHEDRAL>
-0.99355

>  <SCORE.INTRA.DIHEDRAL.0>
4.18538

>  <SCORE.INTRA.POLAR>
0

>  <SCORE.INTRA.POLAR.0>
0

>  <SCORE.INTRA.REPUL>
0

>  <SCORE.INTRA.REPUL.0>
0

>  <SCORE.INTRA.SOLV>
0.0193572

>  <SCORE.INTRA.SOLV.lig_0>
-5.16926

>  <SCORE.INTRA.VDW>
0.56812

>  <SCORE.INTRA.VDW.0>
1.11912

>  <SCORE.INTRA.norm>
0.00311628

>  <SCORE.RESTR>
0

>  <SCORE.RESTR.CAVITY>
0

>  <SCORE.RESTR.norm>
0

>  <SCORE.SYSTEM>
0

>  <SCORE.SYSTEM.CONST>
0

>  <SCORE.SYSTEM.DIHEDRAL>
0

>  <SCORE.SYSTEM.SOLV>
0

>  <SCORE.SYSTEM.norm>
0

>  <SCORE.heavy>
26

>  <SCORE.norm>
-2.41694

>  <RMSD>
0.697

$$$$
1f1t Malachite green aptamer (Xray 2.8A)
 OpenBabel11021811393D
libRbt.so/2013.1/901 2013/11/27
 26 29  0  0  0  0  0  0  0  0999 V2000
  111.1670  -74.5649  -81.9418 C   0  0  0  0  0  0  0  0  0  0  0  0
  111.7048  -75.8377  -82.3992 C   0  0  0  0  0  0  0  0  0  0  0  0
  111.4568  -76.0827  -83.7512 C   0  0  0  0  0  0  0  0  0  0  0  0
  112.0284  -77.3945  -84.1659 O   0  0  0  0  0  0  0  0  0  0  0  0
  111.8063  -77.6052  -85.4045 C   0  0  0  0  0  0  0  0  0  0  0  0
  112.3912  -78.9110  -85.7086 C   0  0  0  0  0  0  0  0  0  0  0  0
  112.2419  -79.3150  -87.0827 C   0  0  0  0  0  0  0  0  0  0  0  0
  111.5956  -78.5073  -88.0509 C   0  0  0  0  0  0  0  0  0  0  0  0
  111.0275  -77.2239  -87.6823 C   0  0  0  0  0  0  0  0  0  0  0  0
  111.1525  -76.8053  -86.3077 C   0  0  0  0  0  0  0  0  0  0  0  0
  110.5207  -75.4666  -86.0067 C   0  0  0  0  0  0  0  0  0  0  0  0
  110.7789  -75.2559  -84.6402 C   0  0  0  0  0  0  0  0  0  0  0  0
  110.2390  -73.9824  -84.1589 C   0  0  0  0  0  0  0  0  0  0  0  0
  110.4816  -73.7052  -82.7781 C   0  0  0  0  0  0  0  0  0  0  0  0
  109.8656  -74.7100  -86.9598 C   0  0  0  0  0  0  0  0  0  0  0  0
  108.8294  -75.1719  -87.8045 C   0  0  0  0  0  0  0  0  0  0  0  0
  108.1454  -74.4178  -88.7596 C   0  0  0  0  0  0  0  0  0  0  0  0
  108.4862  -73.0156  -88.9480 C   0  0  0  0  0  0  0  0  0  0  0  0
  109.5331  -72.5879  -88.0965 C   0  0  0  0  0  0  0  0  0  0  0  0
  110.2480  -73.3086  -87.1299 C   0  0  0  0  0  0  0  0  0  0  0  0
  111.3368  -74.1755  -80.6205 N   0  3  0  0  0  0  0  0  0  0  0  0
  112.0555  -74.9978  -79.6536 C   0  0  0  0  0  0  0  0  0  0  0  0
  110.8426  -72.9234  -80.0064 C   0  0  0  0  0  0  0  0  0  0  0  0
  112.7880  -80.5832  -87.3446 N   0  0  0  0  0  0  0  0  0  0  0  0
  113.3498  -81.6160  -86.4456 C   0  0  0  0  0  0  0  0  0  0  0  0
  112.8193  -81.0374  -88.7798 C   0  0  0  0  0  0  0  0  0  0  0  0
  1  2  1  0  0  0  0
  1 14  1  0  0  0  0
  1 21  2  0  0  0  0
  2  3  2  0  0  0  0
  3  4  1  0  0  0  0
  3 12  1  0  0  0  0
  4  5  1  0  0  0  0
  5  6  1  0  0  0  0
  5 10  2  0  0  0  0
  6  7  2  0  0  0  0
  7  8  1  0  0  0  0
  7 24  1  0  0  0  0
  8  9  2  0  0  0  0
  9 10  1  0  0  0  0
 10 11  1  0  0  0  0
 11 12  2  0  0  0  0
 11 15  1  0  0  0  0
 12 13  1  0  0  0  0
 13 14  2  0  0  0  0
 15 16  2  0  0  0  0
 15 20  1  0  0  0  0
 16 17  1  0  0  0  0
 17 18  2  0  0  0  0
 18 19  1  0  0  0  0
 19 20  2  0  0  0  0
 21 22  1  0  0  0  0
 21 23  1  0  0  0  0
 24 25  1  0  0  0  0
 24 26  1  0  0  0  0
M  CHG  1  21   1
M  END
>  <CHROM.1>
7.36651065,52.12824875,111.07568587,-76.17473218,-85.35359108,-1.86170330
1.04912649,-2.07396706

>  <Name>
1f1t Malachite green aptamer (Xray 2.8A)

>  <RI>
0

>  <Rbt.Current_Directory>
/home/itssahil/PROJECTS/Mol_Feturizer/New_Systems/rnas/1f1t

>  <Rbt.Executable>
rbdock ($Id: //depot/dev/client3/rdock/2013.1/src/exe/rbdock.cxx#4 $)

>  <Rbt.Library>
libRbt.so (2013.1, Build901 2013/11/27)

>  <Rbt.Parameter_File>
/export/apps/rDock/src/rDock_2013.1_src/data/scripts/dock_solv.prm

>  <Rbt.Receptor>
prm/pocket_docking_8.prm

>  <SCORE>
-62.7771

>  <SCORE.INTER>
-62.8593

>  <SCORE.INTER.CONST>
1

>  <SCORE.INTER.POLAR>
0

>  <SCORE.INTER.ROT>
2

>  <SCORE.INTER.SOLV>
11.1952

>  <SCORE.INTER.VDW>
-50.5713

>  <SCORE.INTER.norm>
-2.41767

>  <SCORE.INTRA>
0.0822559

>  <SCORE.INTRA.DIHEDRAL>
-1.0182

>  <SCORE.INTRA.DIHEDRAL.0>
4.18538

>  <SCORE.INTRA.POLAR>
0

>  <SCORE.INTRA.POLAR.0>
0

>  <SCORE.INTRA.REPUL>
0

>  <SCORE.INTRA.REPUL.0>
0

>  <SCORE.INTRA.SOLV>
0.0195295

>  <SCORE.INTRA.SOLV.lig_0>
-5.16926

>  <SCORE.INTRA.VDW>
0.58159

>  <SCORE.INTRA.VDW.0>
1.11912

>  <SCORE.INTRA.norm>
0.00316369

>  <SCORE.RESTR>
0

>  <SCORE.RESTR.CAVITY>
0

>  <SCORE.RESTR.norm>
0

>  <SCORE.SYSTEM>
0

>  <SCORE.SYSTEM.CONST>
0

>  <SCORE.SYSTEM.DIHEDRAL>
0

>  <SCORE.SYSTEM.SOLV>
0

>  <SCORE.SYSTEM.norm>
0

>  <SCORE.heavy>
26

>  <SCORE.norm>
-2.4145

>  <RMSD>
0.698

$$$$
1f1t Malachite green aptamer (Xray 2.8A)
 OpenBabel11021811393D
libRbt.so/2013.1/901 2013/11/27
 26 29  0  0  0  0  0  0  0  0999 V2000
  111.1924  -74.5899  -81.9468 C   0  0  0  0  0  0  0  0  0  0  0  0
  111.7224  -75.8616  -82.4164 C   0  0  0  0  0  0  0  0  0  0  0  0
  111.4611  -76.0983  -83.7673 C   0  0  0  0  0  0  0  0  0  0  0  0
  112.0251  -77.4094  -84.1947 O   0  0  0  0  0  0  0  0  0  0  0  0
  111.7908  -77.6124  -85.4323 C   0  0  0  0  0  0  0  0  0  0  0  0
  112.3692  -78.9181  -85.7492 C   0  0  0  0  0  0  0  0  0  0  0  0
  112.2059  -79.3140  -87.1241 C   0  0  0  0  0  0  0  0  0  0  0  0
  111.5528  -78.4991  -88.0816 C   0  0  0  0  0  0  0  0  0  0  0  0
  110.9917  -77.2163  -87.7005 C   0  0  0  0  0  0  0  0  0  0  0  0
  111.1308  -76.8057  -86.3249 C   0  0  0  0  0  0  0  0  0  0  0  0
  110.5055  -75.4670  -86.0104 C   0  0  0  0  0  0  0  0  0  0  0  0
  110.7772  -75.2647  -84.6453 C   0  0  0  0  0  0  0  0  0  0  0  0
  110.2453  -73.9925  -84.1518 C   0  0  0  0  0  0  0  0  0  0  0  0
  110.5016  -73.7237  -82.7718 C   0  0  0  0  0  0  0  0  0  0  0  0
  109.8436  -74.7034  -86.9531 C   0  0  0  0  0  0  0  0  0  0  0  0
  108.7968  -75.1570  -87.7891 C   0  0  0  0  0  0  0  0  0  0  0  0
  108.1059  -74.3957  -88.7335 C   0  0  0  0  0  0  0  0  0  0  0  0
  108.4505  -72.9940  -88.9189 C   0  0  0  0  0  0  0  0  0  0  0  0
  109.5080  -72.5746  -88.0764 C   0  0  0  0  0  0  0  0  0  0  0  0
  110.2300  -73.3027  -87.1207 C   0  0  0  0  0  0  0  0  0  0  0  0
  111.3758  -74.2084  -80.6250 N   0  3  0  0  0  0  0  0  0  0  0  0
  112.1012  -75.0381  -79.6696 C   0  0  0  0  0  0  0  0  0  0  0  0
  110.8908  -72.9585  -79.9993 C   0  0  0  0  0  0  0  0  0  0  0  0
  112.7460  -80.5822  -87.3981 N   0  0  0  0  0  0  0  0  0  0  0  0
  113.3392  -81.6098  -86.5136 C   0  0  0  0  0  0  0  0  0  0  0  0
  112.7313  -81.0426  -88.8316 C   0  0  0  0  0  0  0  0  0  0  0  0
  1  2  1  0  0  0  0
  1 14  1  0  0  0  0
  1 21  2  0  0  0  0
  2  3  2  0  0  0  0
  3  4  1  0  0  0  0
  3 12  1  0  0  0  0
  4  5  1  0  0  0  0
  5  6  1  0  0  0  0
  5 10  2  0  0  0  0
  6  7  2  0  0  0  0
  7  8  1  0  0  0  0
  7 24  1  0  0  0  0
  8  9  2  0  0  0  0
  9 10  1  0  0  0  0
 10 11  1  0  0  0  0
 11 12  2  0  0  0  0
 11 15  1  0  0  0  0
 12 13  1  0  0  0  0
 13 14  2  0  0  0  0
 15 16  2  0  0  0  0
 15 20  1  0  0  0  0
 16 17  1  0  0  0  0
 17 18  2  0  0  0  0
 18 19  1  0  0  0  0
 19 20  2  0  0  0  0
 21 22  1  0  0  0  0
 21 23  1  0  0  0  0
 24 25  1  0  0  0  0
 24 26  1  0  0  0  0
M  CHG  1  21   1
M  END
>  <CHROM.1>
5.88399933,52.23915856,111.06444902,-76.18044468,-85.36649627,-1.84179832
1.04669497,-2.08568824

>  <Name>
1f1t Malachite green aptamer (Xray 2.8A)

>  <RI>
0

>  <Rbt.Current_Directory>
/home/itssahil/PROJECTS/Mol_Feturizer/New_Systems/rnas/1f1t

>  <Rbt.Executable>
rbdock ($Id: //depot/dev/client3/rdock/2013.1/src/exe/rbdock.cxx#4 $)

>  <Rbt.Library>
libRbt.so (2013.1, Build901 2013/11/27)

>  <Rbt.Parameter_File>
/export/apps/rDock/src/rDock_2013.1_src/data/scripts/dock_solv.prm

>  <Rbt.Receptor>
prm/pocket_docking_2.prm

>  <SCORE>
-62.928

>  <SCORE.INTER>
-62.9942

>  <SCORE.INTER.CONST>
1

>  <SCORE.INTER.POLAR>
0

>  <SCORE.INTER.ROT>
2

>  <SCORE.INTER.SOLV>
11.1964

>  <SCORE.INTER.VDW>
-50.6616

>  <SCORE.INTER.norm>
-2.42285

>  <SCORE.INTRA>
0.0661748

>  <SCORE.INTRA.DIHEDRAL>
-1.08347

>  <SCORE.INTRA.DIHEDRAL.0>
4.18538

>  <SCORE.INTRA.POLAR>
0

>  <SCORE.INTRA.POLAR.0>
0

>  <SCORE.INTRA.REPUL>
0

>  <SCORE.INTRA.REPUL.0>
0

>  <SCORE.INTRA.SOLV>
0.0194168

>  <SCORE.INTRA.SOLV.lig_0>
-5.16926

>  <SCORE.INTRA.VDW>
0.598201

>  <SCORE.INTRA.VDW.0>
1.11912

>  <SCORE.INTRA.norm>
0.00254519

>  <SCORE.RESTR>
0

>  <SCORE.RESTR.CAVITY>
0

>  <SCORE.RESTR.norm>
0

>  <SCORE.SYSTEM>
0

>  <SCORE.SYSTEM.CONST>
0

>  <SCORE.SYSTEM.DIHEDRAL>
0

>  <SCORE.SYSTEM.SOLV>
0

>  <SCORE.SYSTEM.norm>
0

>  <SCORE.heavy>
26

>  <SCORE.norm>
-2.42031

>  <RMSD>
0.699

$$$$
1f1t Malachite green aptamer (Xray 2.8A)
 OpenBabel11021811393D
libRbt.so/2013.1/901 2013/11/27
 26 29  0  0  0  0  0  0  0  0999 V2000
  111.1714  -74.5899  -81.9514 C   0  0  0  0  0  0  0  0  0  0  0  0
  111.7001  -75.8639  -82.4157 C   0  0  0  0  0  0  0  0  0  0  0  0
  111.4442  -76.1031  -83.7673 C   0  0  0  0  0  0  0  0  0  0  0  0
  112.0067  -77.4166  -84.1892 O   0  0  0  0  0  0  0  0  0  0  0  0
  111.7774  -77.6218  -85.4274 C   0  0  0  0  0  0  0  0  0  0  0  0
  112.3538  -78.9297  -85.7388 C   0  0  0  0  0  0  0  0  0  0  0  0
  112.1956  -79.3283  -87.1134 C   0  0  0  0  0  0  0  0  0  0  0  0
  111.5489  -78.5138  -88.0757 C   0  0  0  0  0  0  0  0  0  0  0  0
  110.9895  -77.2287  -87.7000 C   0  0  0  0  0  0  0  0  0  0  0  0
  111.1235  -76.8154  -86.3247 C   0  0  0  0  0  0  0  0  0  0  0  0
  110.5003  -75.4744  -86.0160 C   0  0  0  0  0  0  0  0  0  0  0  0
  110.7664  -75.2697  -84.6502 C   0  0  0  0  0  0  0  0  0  0  0  0
  110.2357  -73.9950  -84.1620 C   0  0  0  0  0  0  0  0  0  0  0  0
  110.4865  -73.7237  -82.7814 C   0  0  0  0  0  0  0  0  0  0  0  0
  109.8446  -74.7111  -86.9634 C   0  0  0  0  0  0  0  0  0  0  0  0
  108.7815  -75.1558  -87.7834 C   0  0  0  0  0  0  0  0  0  0  0  0
  108.0967  -74.3944  -88.7321 C   0  0  0  0  0  0  0  0  0  0  0  0
  108.4667  -73.0025  -88.9405 C   0  0  0  0  0  0  0  0  0  0  0  0
  109.5400  -72.5921  -88.1136 C   0  0  0  0  0  0  0  0  0  0  0  0
  110.2566  -73.3207  -87.1543 C   0  0  0  0  0  0  0  0  0  0  0  0
  111.3498  -74.2059  -80.6297 N   0  3  0  0  0  0  0  0  0  0  0  0
  112.0688  -75.0352  -79.6691 C   0  0  0  0  0  0  0  0  0  0  0  0
  110.8654  -72.9532  -80.0089 C   0  0  0  0  0  0  0  0  0  0  0  0
  112.7336  -80.5985  -87.3822 N   0  0  0  0  0  0  0  0  0  0  0  0
  113.3259  -81.6231  -86.4935 C   0  0  0  0  0  0  0  0  0  0  0  0
  112.7172  -81.0653  -88.8136 C   0  0  0  0  0  0  0  0  0  0  0  0
  1  2  1  0  0  0  0
  1 14  1  0  0  0  0
  1 21  2  0  0  0  0
  2  3  2  0  0  0  0
  3  4  1  0  0  0  0
  3 12  1  0  0  0  0
  4  5  1  0  0  0  0
  5  6  1  0  0  0  0
  5 10  2  0  0  0  0
  6  7  2  0  0  0  0
  7  8  1  0  0  0  0
  7 24  1  0  0  0  0
  8  9  2  0  0  0  0
  9 10  1  0  0  0  0
 10 11  1  0  0  0  0
 11 12  2  0  0  0  0
 11 15  1  0  0  0  0
 12 13  1  0  0  0  0
 13 14  2  0  0  0  0
 15 16  2  0  0  0  0
 15 20  1  0  0  0  0
 16 17  1  0  0  0  0
 17 18  2  0  0  0  0
 18 19  1  0  0  0  0
 19 20  2  0  0  0  0
 21 22  1  0  0  0  0
 21 23  1  0  0  0  0
 24 25  1  0  0  0  0
 24 26  1  0  0  0  0
M  CHG  1  21   1
M  END
>  <CHROM.1>
5.55603960,53.65571296,111.05466285,-76.18782006,-85.36818929,-1.84694456
1.05119569,-2.08329117

>  <Name>
1f1t Malachite green aptamer (Xray 2.8A)

>  <RI>
0

>  <Rbt.Current_Directory>
/home/itssahil/PROJECTS/Mol_Feturizer/New_Systems/rnas/1f1t

>  <Rbt.Executable>
rbdock ($Id: //depot/dev/client3/rdock/2013.1/src/exe/rbdock.cxx#4 $)

>  <Rbt.Library>
libRbt.so (2013.1, Build901 2013/11/27)

>  <Rbt.Parameter_File>
/export/apps/rDock/src/rDock_2013.1_src/data/scripts/dock_solv.prm

>  <Rbt.Receptor>
prm/pocket_docking_3.prm

>  <SCORE>
-62.8679

>  <SCORE.INTER>
-62.9203

>  <SCORE.INTER.CONST>
1

>  <SCORE.INTER.POLAR>
0

>  <SCORE.INTER.ROT>
2

>  <SCORE.INTER.SOLV>
11.1971

>  <SCORE.INTER.VDW>
-50.6126

>  <SCORE.INTER.norm>
-2.42001

>  <SCORE.INTRA>
0.0523966

>  <SCORE.INTRA.DIHEDRAL>
-0.98315

>  <SCORE.INTRA.DIHEDRAL.0>
4.18538

>  <SCORE.INTRA.POLAR>
0

>  <SCORE.INTRA.POLAR.0>
0

>  <SCORE.INTRA.REPUL>
0

>  <SCORE.INTRA.REPUL.0>
0

>  <SCORE.INTRA.SOLV>
0.0178219

>  <SCORE.INTRA.SOLV.lig_0>
-5.16926

>  <SCORE.INTRA.VDW>
0.535061

>  <SCORE.INTRA.VDW.0>
1.11912

>  <SCORE.INTRA.norm>
0.00201525

>  <SCORE.RESTR>
0

>  <SCORE.RESTR.CAVITY>
0

>  <SCORE.RESTR.norm>
0

>  <SCORE.SYSTEM>
0

>  <SCORE.SYSTEM.CONST>
0

>  <SCORE.SYSTEM.DIHEDRAL>
0

>  <SCORE.SYSTEM.SOLV>
0

>  <SCORE.SYSTEM.norm>
0

>  <SCORE.heavy>
26

>  <SCORE.norm>
-2.418

>  <RMSD>
0.699

$$$$
1f1t Malachite green aptamer (Xray 2.8A)
 OpenBabel11021811393D
libRbt.so/2013.1/901 2013/11/27
 26 29  0  0  0  0  0  0  0  0999 V2000
  111.1737  -74.5889  -81.9501 C   0  0  0  0  0  0  0  0  0  0  0  0
  111.7020  -75.8631  -82.4147 C   0  0  0  0  0  0  0  0  0  0  0  0
  111.4453  -76.1023  -83.7660 C   0  0  0  0  0  0  0  0  0  0  0  0
  112.0074  -77.4158  -84.1882 O   0  0  0  0  0  0  0  0  0  0  0  0
  111.7774  -77.6211  -85.4263 C   0  0  0  0  0  0  0  0  0  0  0  0
  112.3535  -78.9291  -85.7379 C   0  0  0  0  0  0  0  0  0  0  0  0
  112.1945  -79.3277  -87.1125 C   0  0  0  0  0  0  0  0  0  0  0  0
  111.5473  -78.5133  -88.0744 C   0  0  0  0  0  0  0  0  0  0  0  0
  110.9883  -77.2280  -87.6985 C   0  0  0  0  0  0  0  0  0  0  0  0
  111.1231  -76.8147  -86.3233 C   0  0  0  0  0  0  0  0  0  0  0  0
  110.5002  -75.4736  -86.0143 C   0  0  0  0  0  0  0  0  0  0  0  0
  110.7671  -75.2688  -84.6486 C   0  0  0  0  0  0  0  0  0  0  0  0
  110.2369  -73.9940  -84.1602 C   0  0  0  0  0  0  0  0  0  0  0  0
  110.4885  -73.7228  -82.7798 C   0  0  0  0  0  0  0  0  0  0  0  0
  109.8441  -74.7103  -86.9613 C   0  0  0  0  0  0  0  0  0  0  0  0
  108.7827  -75.1559  -87.7830 C   0  0  0  0  0  0  0  0  0  0  0  0
  108.0975  -74.3945  -88.7315 C   0  0  0  0  0  0  0  0  0  0  0  0
  108.4651  -73.0016  -88.9376 C   0  0  0  0  0  0  0  0  0  0  0  0
  109.5367  -72.5903  -88.1090 C   0  0  0  0  0  0  0  0  0  0  0  0
  110.2537  -73.3189  -87.1499 C   0  0  0  0  0  0  0  0  0  0  0  0
  111.3530  -74.2049  -80.6285 N   0  3  0  0  0  0  0  0  0  0  0  0
  112.0724  -75.0343  -79.6683 C   0  0  0  0  0  0  0  0  0  0  0  0
  110.8690  -72.9522  -80.0075 C   0  0  0  0  0  0  0  0  0  0  0  0
  112.7321  -80.5981  -87.3815 N   0  0  0  0  0  0  0  0  0  0  0  0
  113.3192  -81.6251  -86.4923 C   0  0  0  0  0  0  0  0  0  0  0  0
  112.7216  -81.0618  -88.8139 C   0  0  0  0  0  0  0  0  0  0  0  0
  1  2  1  0  0  0  0
  1 14  1  0  0  0  0
  1 21  2  0  0  0  0
  2  3  2  0  0  0  0
  3  4  1  0  0  0  0
  3 12  1  0  0  0  0
  4  5  1  0  0  0  0
  5  6  1  0  0  0  0
  5 10  2  0  0  0  0
  6  7  2  0  0  0  0
  7  8  1  0  0  0  0
  7 24  1  0  0  0  0
  8  9  2  0  0  0  0
  9 10  1  0  0  0  0
 10 11  1  0  0  0  0
 11 12  2  0  0  0  0
 11 15  1  0  0  0  0
 12 13  1  0  0  0  0
 13 14  2  0  0  0  0
 15 16  2  0  0  0  0
 15 20  1  0  0  0  0
 16 17  1  0  0  0  0
 17 18  2  0  0  0  0
 18 19  1  0  0  0  0
 19 20  2  0  0  0  0
 21 22  1  0  0  0  0
 21 23  1  0  0  0  0
 24 25  1  0  0  0  0
 24 26  1  0  0  0  0
M  CHG  1  21   1
M  END
>  <CHROM.1>
5.87519802,53.48725137,111.05492314,-76.18701071,-85.36673401,-1.84599380
1.05106649,-2.08416994

>  <Name>
1f1t Malachite green aptamer (Xray 2.8A)

>  <RI>
0

>  <Rbt.Current_Directory>
/home/itssahil/PROJECTS/Mol_Feturizer/New_Systems/rnas/1f1t

>  <Rbt.Executable>
rbdock ($Id: //depot/dev/client3/rdock/2013.1/src/exe/rbdock.cxx#4 $)

>  <Rbt.Library>
libRbt.so (2013.1, Build901 2013/11/27)

>  <Rbt.Parameter_File>
/export/apps/rDock/src/rDock_2013.1_src/data/scripts/dock_solv.prm

>  <Rbt.Receptor>
prm/pocket_docking_4.prm

>  <SCORE>
-62.8683

>  <SCORE.INTER>
-62.9264

>  <SCORE.INTER.CONST>
1

>  <SCORE.INTER.POLAR>
0

>  <SCORE.INTER.ROT>
2

>  <SCORE.INTER.SOLV>
11.1921

>  <SCORE.INTER.VDW>
-50.6149

>  <SCORE.INTER.norm>
-2.42024

>  <SCORE.INTRA>
0.0580306

>  <SCORE.INTRA.DIHEDRAL>
-0.9829

>  <SCORE.INTRA.DIHEDRAL.0>
4.18538

>  <SCORE.INTRA.POLAR>
0

>  <SCORE.INTRA.POLAR.0>
0

>  <SCORE.INTRA.REPUL>
0

>  <SCORE.INTRA.REPUL.0>
0

>  <SCORE.INTRA.SOLV>
0.0180119

>  <SCORE.INTRA.SOLV.lig_0>
-5.16926

>  <SCORE.INTRA.VDW>
0.540475

>  <SCORE.INTRA.VDW.0>
1.11912

>  <SCORE.INTRA.norm>
0.00223195

>  <SCORE.RESTR>
0

>  <SCORE.RESTR.CAVITY>
0

>  <SCORE.RESTR.norm>
0

>  <SCORE.SYSTEM>
0

>  <SCORE.SYSTEM.CONST>
0

>  <SCORE.SYSTEM.DIHEDRAL>
0

>  <SCORE.SYSTEM.SOLV>
0

>  <SCORE.SYSTEM.norm>
0

>  <SCORE.heavy>
26

>  <SCORE.norm>
-2.41801

>  <RMSD>
0.699

$$$$
1f1t Malachite green aptamer (Xray 2.8A)
 OpenBabel11021811393D
libRbt.so/2013.1/901 2013/11/27
 26 29  0  0  0  0  0  0  0  0999 V2000
  111.1796  -74.5655  -81.9404 C   0  0  0  0  0  0  0  0  0  0  0  0
  111.7156  -75.8373  -82.4027 C   0  0  0  0  0  0  0  0  0  0  0  0
  111.4625  -76.0792  -83.7543 C   0  0  0  0  0  0  0  0  0  0  0  0
  112.0324  -77.3902  -84.1741 O   0  0  0  0  0  0  0  0  0  0  0  0
  111.8056  -77.5979  -85.4124 C   0  0  0  0  0  0  0  0  0  0  0  0
  112.3892  -78.9031  -85.7217 C   0  0  0  0  0  0  0  0  0  0  0  0
  112.2347  -79.3040  -87.0961 C   0  0  0  0  0  0  0  0  0  0  0  0
  111.5849  -78.4939  -88.0600 C   0  0  0  0  0  0  0  0  0  0  0  0
  111.0183  -77.2114  -87.6864 C   0  0  0  0  0  0  0  0  0  0  0  0
  111.1486  -76.7959  -86.3113 C   0  0  0  0  0  0  0  0  0  0  0  0
  110.5180  -75.4579  -86.0048 C   0  0  0  0  0  0  0  0  0  0  0  0
  110.7814  -75.2503  -84.6389 C   0  0  0  0  0  0  0  0  0  0  0  0
  110.2435  -73.9779  -84.1526 C   0  0  0  0  0  0  0  0  0  0  0  0
  110.4912  -73.7039  -82.7721 C   0  0  0  0  0  0  0  0  0  0  0  0
  109.8594  -74.6990  -86.9537 C   0  0  0  0  0  0  0  0  0  0  0  0
  108.7997  -75.1502  -87.7746 C   0  0  0  0  0  0  0  0  0  0  0  0
  108.1121  -74.3933  -88.7249 C   0  0  0  0  0  0  0  0  0  0  0  0
  108.4750  -72.9997  -88.9342 C   0  0  0  0  0  0  0  0  0  0  0  0
  109.5450  -72.5828  -88.1065 C   0  0  0  0  0  0  0  0  0  0  0  0
  110.2643  -73.3067  -87.1455 C   0  0  0  0  0  0  0  0  0  0  0  0
  111.3545  -74.1792  -80.6188 N   0  3  0  0  0  0  0  0  0  0  0  0
  112.0767  -75.0038  -79.6565 C   0  0  0  0  0  0  0  0  0  0  0  0
  110.8628  -72.9285  -79.9999 C   0  0  0  0  0  0  0  0  0  0  0  0
  112.7797  -80.5717  -87.3629 N   0  0  0  0  0  0  0  0  0  0  0  0
  113.3605  -81.5994  -86.4703 C   0  0  0  0  0  0  0  0  0  0  0  0
  112.7864  -81.0313  -88.7967 C   0  0  0  0  0  0  0  0  0  0  0  0
  1  2  1  0  0  0  0
  1 14  1  0  0  0  0
  1 21  2  0  0  0  0
  2  3  2  0  0  0  0
  3  4  1  0  0  0  0
  3 12  1  0  0  0  0
  4  5  1  0  0  0  0
  5  6  1  0  0  0  0
  5 10  2  0  0  0  0
  6  7  2  0  0  0  0
  7  8  1  0  0  0  0
  7 24  1  0  0  0  0
  8  9  2  0  0  0  0
  9 10  1  0  0  0  0
 10 11  1  0  0  0  0
 11 12  2  0  0  0  0
 11 15  1  0  0  0  0
 12 13  1  0  0  0  0
 13 14  2  0  0  0  0
 15 16  2  0  0  0  0
 15 20  1  0  0  0  0
 16 17  1  0  0  0  0
 17 18  2  0  0  0  0
 18 19  1  0  0  0  0
 19 20  2  0  0  0  0
 21 22  1  0  0  0  0
 21 23  1  0  0  0  0
 24 25  1  0  0  0  0
 24 26  1  0  0  0  0
M  CHG  1  21   1
M  END
>  <CHROM.1>
6.45965852,53.65042355,111.07546044,-76.16761050,-85.35557116,-1.85462160
1.04736141,-2.07763024

>  <Name>
1f1t Malachite green aptamer (Xray 2.8A)

>  <RI>
0

>  <Rbt.Current_Directory>
/home/itssahil/PROJECTS/Mol_Feturizer/New_Systems/rnas/1f1t

>  <Rbt.Executable>
rbdock ($Id: //depot/dev/client3/rdock/2013.1/src/exe/rbdock.cxx#4 $)

>  <Rbt.Library>
libRbt.so (2013.1, Build901 2013/11/27)

>  <Rbt.Parameter_File>
/export/apps/rDock/src/rDock_2013.1_src/data/scripts/dock_solv.prm

>  <Rbt.Receptor>
prm/pocket_docking_4.prm

>  <SCORE>
-62.8077

>  <SCORE.INTER>
-62.8676

>  <SCORE.INTER.CONST>
1

>  <SCORE.INTER.POLAR>
0

>  <SCORE.INTER.ROT>
2

>  <SCORE.INTER.SOLV>
11.2239

>  <SCORE.INTER.VDW>
-50.5864

>  <SCORE.INTER.norm>
-2.41799

>  <SCORE.INTRA>
0.0599503

>  <SCORE.INTRA.DIHEDRAL>
-0.942534

>  <SCORE.INTRA.DIHEDRAL.0>
4.18538

>  <SCORE.INTRA.POLAR>
0

>  <SCORE.INTRA.POLAR.0>
0

>  <SCORE.INTRA.REPUL>
0

>  <SCORE.INTRA.REPUL.0>
0

>  <SCORE.INTRA.SOLV>
0.0178231

>  <SCORE.INTRA.SOLV.lig_0>
-5.16926

>  <SCORE.INTRA.VDW>
0.522305

>  <SCORE.INTRA.VDW.0>
1.11912

>  <SCORE.INTRA.norm>
0.00230578

>  <SCORE.RESTR>
0

>  <SCORE.RESTR.CAVITY>
0

>  <SCORE.RESTR.norm>
0

>  <SCORE.SYSTEM>
0

>  <SCORE.SYSTEM.CONST>
0

>  <SCORE.SYSTEM.DIHEDRAL>
0

>  <SCORE.SYSTEM.SOLV>
0

>  <SCORE.SYSTEM.norm>
0

>  <SCORE.heavy>
26

>  <SCORE.norm>
-2.41568

>  <RMSD>
0.699

$$$$
1f1t Malachite green aptamer (Xray 2.8A)
 OpenBabel11021811393D
libRbt.so/2013.1/901 2013/11/27
 26 29  0  0  0  0  0  0  0  0999 V2000
  111.1871  -74.5891  -81.9442 C   0  0  0  0  0  0  0  0  0  0  0  0
  111.7146  -75.8625  -82.4118 C   0  0  0  0  0  0  0  0  0  0  0  0
  111.4559  -76.0992  -83.7633 C   0  0  0  0  0  0  0  0  0  0  0  0
  112.0172  -77.4121  -84.1886 O   0  0  0  0  0  0  0  0  0  0  0  0
  111.7853  -77.6151  -85.4267 C   0  0  0  0  0  0  0  0  0  0  0  0
  112.3607  -78.9226  -85.7416 C   0  0  0  0  0  0  0  0  0  0  0  0
  112.1996  -79.3187  -87.1166 C   0  0  0  0  0  0  0  0  0  0  0  0
  111.5511  -78.5024  -88.0762 C   0  0  0  0  0  0  0  0  0  0  0  0
  110.9928  -77.2178  -87.6971 C   0  0  0  0  0  0  0  0  0  0  0  0
  111.1297  -76.8070  -86.3213 C   0  0  0  0  0  0  0  0  0  0  0  0
  110.5075  -75.4664  -86.0090 C   0  0  0  0  0  0  0  0  0  0  0  0
  110.7765  -75.2641  -84.6433 C   0  0  0  0  0  0  0  0  0  0  0  0
  110.2471  -73.9901  -84.1518 C   0  0  0  0  0  0  0  0  0  0  0  0
  110.5008  -73.7214  -82.7713 C   0  0  0  0  0  0  0  0  0  0  0  0
  109.8500  -74.7013  -86.9536 C   0  0  0  0  0  0  0  0  0  0  0  0
  108.8028  -75.1519  -87.7907 C   0  0  0  0  0  0  0  0  0  0  0  0
  108.1164  -74.3890  -88.7371 C   0  0  0  0  0  0  0  0  0  0  0  0
  108.4667  -72.9890  -88.9237 C   0  0  0  0  0  0  0  0  0  0  0  0
  109.5245  -72.5726  -88.0801 C   0  0  0  0  0  0  0  0  0  0  0  0
  110.2422  -73.3023  -87.1224 C   0  0  0  0  0  0  0  0  0  0  0  0
  111.3684  -74.2075  -80.6222 N   0  3  0  0  0  0  0  0  0  0  0  0
  112.0892  -75.0387  -79.6646 C   0  0  0  0  0  0  0  0  0  0  0  0
  110.8855  -72.9558  -79.9982 C   0  0  0  0  0  0  0  0  0  0  0  0
  112.7367  -80.5886  -87.3887 N   0  0  0  0  0  0  0  0  0  0  0  0
  113.3231  -81.6183  -86.5020 C   0  0  0  0  0  0  0  0  0  0  0  0
  112.7263  -81.0488  -88.8223 C   0  0  0  0  0  0  0  0  0  0  0  0
  1  2  1  0  0  0  0
  1 14  1  0  0  0  0
  1 21  2  0  0  0  0
  2  3  2  0  0  0  0
  3  4  1  0  0  0  0
  3 12  1  0  0  0  0
  4  5  1  0  0  0  0
  5  6  1  0  0  0  0
  5 10  2  0  0  0  0
  6  7  2  0  0  0  0
  7  8  1  0  0  0  0
  7 24  1  0  0  0  0
  8  9  2  0  0  0  0
  9 10  1  0  0  0  0
 10 11  1  0  0  0  0
 11 12  2  0  0  0  0
 11 15  1  0  0  0  0
 12 13  1  0  0  0  0
 13 14  2  0  0  0  0
 15 16  2  0  0  0  0
 15 20  1  0  0  0  0
 16 17  1  0  0  0  0
 17 18  2  0  0  0  0
 18 19  1  0  0  0  0
 19 20  2  0  0  0  0
 21 22  1  0  0  0  0
 21 23  1  0  0  0  0
 24 25  1  0  0  0  0
 24 26  1  0  0  0  0
M  CHG  1  21   1
M  END
>  <CHROM.1>
5.98567522,52.32680830,111.06289180,-76.18100414,-85.36340542,-1.84323674
1.05038952,-2.08493414

>  <Name>
1f1t Malachite green aptamer (Xray 2.8A)

>  <RI>
0

>  <Rbt.Current_Directory>
/home/itssahil/PROJECTS/Mol_Feturizer/New_Systems/rnas/1f1t

>  <Rbt.Executable>
rbdock ($Id: //depot/dev/client3/rdock/2013.1/src/exe/rbdock.cxx#4 $)

>  <Rbt.Library>
libRbt.so (2013.1, Build901 2013/11/27)

>  <Rbt.Parameter_File>
/export/apps/rDock/src/rDock_2013.1_src/data/scripts/dock_solv.prm

>  <Rbt.Receptor>
prm/pocket_docking_4.prm

>  <SCORE>
-62.8671

>  <SCORE.INTER>
-62.9321

>  <SCORE.INTER.CONST>
1

>  <SCORE.INTER.POLAR>
0

>  <SCORE.INTER.ROT>
2

>  <SCORE.INTER.SOLV>
11.1956

>  <SCORE.INTER.VDW>
-50.6199

>  <SCORE.INTER.norm>
-2.42047

>  <SCORE.INTRA>
0.0650229

>  <SCORE.INTRA.DIHEDRAL>
-1.07178

>  <SCORE.INTRA.DIHEDRAL.0>
4.18538

>  <SCORE.INTRA.POLAR>
0

>  <SCORE.INTRA.POLAR.0>
0

>  <SCORE.INTRA.REPUL>
0

>  <SCORE.INTRA.REPUL.0>
0

>  <SCORE.INTRA.SOLV>
0.0193179

>  <SCORE.INTRA.SOLV.lig_0>
-5.16926

>  <SCORE.INTRA.VDW>
0.591254

>  <SCORE.INTRA.VDW.0>
1.11912

>  <SCORE.INTRA.norm>
0.00250088

>  <SCORE.RESTR>
0

>  <SCORE.RESTR.CAVITY>
0

>  <SCORE.RESTR.norm>
0

>  <SCORE.SYSTEM>
0

>  <SCORE.SYSTEM.CONST>
0

>  <SCORE.SYSTEM.DIHEDRAL>
0

>  <SCORE.SYSTEM.SOLV>
0

>  <SCORE.SYSTEM.norm>
0

>  <SCORE.heavy>
26

>  <SCORE.norm>
-2.41796

>  <RMSD>
0.699

$$$$
1f1t Malachite green aptamer (Xray 2.8A)
 OpenBabel11021811393D
libRbt.so/2013.1/901 2013/11/27
 26 29  0  0  0  0  0  0  0  0999 V2000
  111.1840  -74.6121  -81.9532 C   0  0  0  0  0  0  0  0  0  0  0  0
  111.7159  -75.8814  -82.4268 C   0  0  0  0  0  0  0  0  0  0  0  0
  111.4572  -76.1129  -83.7792 C   0  0  0  0  0  0  0  0  0  0  0  0
  112.0231  -77.4217  -84.2108 O   0  0  0  0  0  0  0  0  0  0  0  0
  111.7913  -77.6200  -85.4497 C   0  0  0  0  0  0  0  0  0  0  0  0
  112.3714  -78.9239  -85.7709 C   0  0  0  0  0  0  0  0  0  0  0  0
  112.2110  -79.3143  -87.1476 C   0  0  0  0  0  0  0  0  0  0  0  0
  111.5589  -78.4961  -88.1031 C   0  0  0  0  0  0  0  0  0  0  0  0
  110.9960  -77.2153  -87.7178 C   0  0  0  0  0  0  0  0  0  0  0  0
  111.1323  -76.8102  -86.3402 C   0  0  0  0  0  0  0  0  0  0  0  0
  110.5053  -75.4733  -86.0215 C   0  0  0  0  0  0  0  0  0  0  0  0
  110.7742  -75.2763  -84.6551 C   0  0  0  0  0  0  0  0  0  0  0  0
  110.2404  -74.0065  -84.1575 C   0  0  0  0  0  0  0  0  0  0  0  0
  110.4940  -73.7431  -82.7759 C   0  0  0  0  0  0  0  0  0  0  0  0
  109.8444  -74.7064  -86.9623 C   0  0  0  0  0  0  0  0  0  0  0  0
  108.7834  -75.1508  -87.7852 C   0  0  0  0  0  0  0  0  0  0  0  0
  108.0936  -74.3858  -88.7274 C   0  0  0  0  0  0  0  0  0  0  0  0
  108.4552  -72.9901  -88.9248 C   0  0  0  0  0  0  0  0  0  0  0  0
  109.5265  -72.5800  -88.0953 C   0  0  0  0  0  0  0  0  0  0  0  0
  110.2481  -73.3121  -87.1422 C   0  0  0  0  0  0  0  0  0  0  0  0
  111.3646  -74.2358  -80.6295 N   0  3  0  0  0  0  0  0  0  0  0  0
  112.0889  -75.0687  -79.6761 C   0  0  0  0  0  0  0  0  0  0  0  0
  110.8774  -72.9888  -79.9996 C   0  0  0  0  0  0  0  0  0  0  0  0
  112.7526  -80.5810  -87.4258 N   0  0  0  0  0  0  0  0  0  0  0  0
  113.3140  -81.6257  -86.5406 C   0  0  0  0  0  0  0  0  0  0  0  0
  112.7783  -81.0185  -88.8663 C   0  0  0  0  0  0  0  0  0  0  0  0
  1  2  1  0  0  0  0
  1 14  1  0  0  0  0
  1 21  2  0  0  0  0
  2  3  2  0  0  0  0
  3  4  1  0  0  0  0
  3 12  1  0  0  0  0
  4  5  1  0  0  0  0
  5  6  1  0  0  0  0
  5 10  2  0  0  0  0
  6  7  2  0  0  0  0
  7  8  1  0  0  0  0
  7 24  1  0  0  0  0
  8  9  2  0  0  0  0
  9 10  1  0  0  0  0
 10 11  1  0  0  0  0
 11 12  2  0  0  0  0
 11 15  1  0  0  0  0
 12 13  1  0  0  0  0
 13 14  2  0  0  0  0
 15 16  2  0  0  0  0
 15 20  1  0  0  0  0
 16 17  1  0  0  0  0
 17 18  2  0  0  0  0
 18 19  1  0  0  0  0
 19 20  2  0  0  0  0
 21 22  1  0  0  0  0
 21 23  1  0  0  0  0
 24 25  1  0  0  0  0
 24 26  1  0  0  0  0
M  CHG  1  21   1
M  END
>  <CHROM.1>
7.65840203,53.44851119,111.06408886,-76.18873713,-85.37965605,-1.84686941
1.04725618,-2.07694601

>  <Name>
1f1t Malachite green aptamer (Xray 2.8A)

>  <RI>
0

>  <Rbt.Current_Directory>
/home/itssahil/PROJECTS/Mol_Feturizer/New_Systems/rnas/1f1t

>  <Rbt.Executable>
rbdock ($Id: //depot/dev/client3/rdock/2013.1/src/exe/rbdock.cxx#4 $)

>  <Rbt.Library>
libRbt.so (2013.1, Build901 2013/11/27)

>  <Rbt.Parameter_File>
/export/apps/rDock/src/rDock_2013.1_src/data/scripts/dock_solv.prm

>  <Rbt.Receptor>
prm/pocket_docking_2.prm

>  <SCORE>
-62.8509

>  <SCORE.INTER>
-62.9263

>  <SCORE.INTER.CONST>
1

>  <SCORE.INTER.POLAR>
0

>  <SCORE.INTER.ROT>
2

>  <SCORE.INTER.SOLV>
11.1691

>  <SCORE.INTER.VDW>
-50.6073

>  <SCORE.INTER.norm>
-2.42024

>  <SCORE.INTRA>
0.0754093

>  <SCORE.INTRA.DIHEDRAL>
-0.894734

>  <SCORE.INTRA.DIHEDRAL.0>
4.18538

>  <SCORE.INTRA.POLAR>
0

>  <SCORE.INTRA.POLAR.0>
0

>  <SCORE.INTRA.REPUL>
0

>  <SCORE.INTRA.REPUL.0>
0

>  <SCORE.INTRA.SOLV>
0.0180416

>  <SCORE.INTRA.SOLV.lig_0>
-5.16926

>  <SCORE.INTRA.VDW>
0.513756

>  <SCORE.INTRA.VDW.0>
1.11912

>  <SCORE.INTRA.norm>
0.00290036

>  <SCORE.RESTR>
0

>  <SCORE.RESTR.CAVITY>
0

>  <SCORE.RESTR.norm>
0

>  <SCORE.SYSTEM>
0

>  <SCORE.SYSTEM.CONST>
0

>  <SCORE.SYSTEM.DIHEDRAL>
0

>  <SCORE.SYSTEM.SOLV>
0

>  <SCORE.SYSTEM.norm>
0

>  <SCORE.heavy>
26

>  <SCORE.norm>
-2.41734

>  <RMSD>
0.701

$$$$
1f1t Malachite green aptamer (Xray 2.8A)
 OpenBabel11021811393D
libRbt.so/2013.1/901 2013/11/27
 26 29  0  0  0  0  0  0  0  0999 V2000
  111.1812  -74.5867  -81.9420 C   0  0  0  0  0  0  0  0  0  0  0  0
  111.7089  -75.8608  -82.4074 C   0  0  0  0  0  0  0  0  0  0  0  0
  111.4542  -76.0977  -83.7596 C   0  0  0  0  0  0  0  0  0  0  0  0
  112.0155  -77.4113  -84.1827 O   0  0  0  0  0  0  0  0  0  0  0  0
  111.7874  -77.6146  -85.4214 C   0  0  0  0  0  0  0  0  0  0  0  0
  112.3624  -78.9227  -85.7340 C   0  0  0  0  0  0  0  0  0  0  0  0
  112.2053  -79.3192  -87.1094 C   0  0  0  0  0  0  0  0  0  0  0  0
  111.5607  -78.5026  -88.0712 C   0  0  0  0  0  0  0  0  0  0  0  0
  111.0024  -77.2173  -87.6944 C   0  0  0  0  0  0  0  0  0  0  0  0
  111.1355  -76.8061  -86.3183 C   0  0  0  0  0  0  0  0  0  0  0  0
  110.5136  -75.4647  -86.0085 C   0  0  0  0  0  0  0  0  0  0  0  0
  110.7784  -75.2623  -84.6421 C   0  0  0  0  0  0  0  0  0  0  0  0
  110.2488  -73.9875  -84.1527 C   0  0  0  0  0  0  0  0  0  0  0  0
  110.4984  -73.7185  -82.7715 C   0  0  0  0  0  0  0  0  0  0  0  0
  109.8599  -74.6993  -86.9555 C   0  0  0  0  0  0  0  0  0  0  0  0
  108.8190  -75.1509  -87.8000 C   0  0  0  0  0  0  0  0  0  0  0  0
  108.1364  -74.3878  -88.7489 C   0  0  0  0  0  0  0  0  0  0  0  0
  108.4841  -72.9864  -88.9304 C   0  0  0  0  0  0  0  0  0  0  0  0
  109.5356  -72.5691  -88.0793 C   0  0  0  0  0  0  0  0  0  0  0  0
  110.2493  -73.2990  -87.1188 C   0  0  0  0  0  0  0  0  0  0  0  0
  111.3587  -74.2047  -80.6194 N   0  3  0  0  0  0  0  0  0  0  0  0
  112.0756  -75.0363  -79.6593 C   0  0  0  0  0  0  0  0  0  0  0  0
  110.8751  -72.9524  -79.9975 C   0  0  0  0  0  0  0  0  0  0  0  0
  112.7420  -80.5898  -87.3793 N   0  0  0  0  0  0  0  0  0  0  0  0
  113.3341  -81.6153  -86.4916 C   0  0  0  0  0  0  0  0  0  0  0  0
  112.7240  -81.0557  -88.8109 C   0  0  0  0  0  0  0  0  0  0  0  0
  1  2  1  0  0  0  0
  1 14  1  0  0  0  0
  1 21  2  0  0  0  0
  2  3  2  0  0  0  0
  3  4  1  0  0  0  0
  3 12  1  0  0  0  0
  4  5  1  0  0  0  0
  5  6  1  0  0  0  0
  5 10  2  0  0  0  0
  6  7  2  0  0  0  0
  7  8  1  0  0  0  0
  7 24  1  0  0  0  0
  8  9  2  0  0  0  0
  9 10  1  0  0  0  0
 10 11  1  0  0  0  0
 11 12  2  0  0  0  0
 11 15  1  0  0  0  0
 12 13  1  0  0  0  0
 13 14  2  0  0  0  0
 15 16  2  0  0  0  0
 15 20  1  0  0  0  0
 16 17  1  0  0  0  0
 17 18  2  0  0  0  0
 18 19  1  0  0  0  0
 19 20  2  0  0  0  0
 21 22  1  0  0  0  0
 21 23  1  0  0  0  0
 24 25  1  0  0  0  0
 24 26  1  0  0  0  0
M  CHG  1  21   1
M  END
>  <CHROM.1>
5.43482322,52.01892261,111.06606995,-76.17974709,-85.36085596,-1.84749316
1.05270231,-2.08169588

>  <Name>
1f1t Malachite green aptamer (Xray 2.8A)

>  <RI>
0

>  <Rbt.Current_Directory>
/home/itssahil/PROJECTS/Mol_Feturizer/New_Systems/rnas/1f1t

>  <Rbt.Executable>
rbdock ($Id: //depot/dev/client3/rdock/2013.1/src/exe/rbdock.cxx#4 $)

>  <Rbt.Library>
libRbt.so (2013.1, Build901 2013/11/27)

>  <Rbt.Parameter_File>
/export/apps/rDock/src/rDock_2013.1_src/data/scripts/dock_solv.prm

>  <Rbt.Receptor>
prm/pocket_docking_6.prm

>  <SCORE>
-62.8681

>  <SCORE.INTER>
-62.9359

>  <SCORE.INTER.CONST>
1

>  <SCORE.INTER.POLAR>
0

>  <SCORE.INTER.ROT>
2

>  <SCORE.INTER.SOLV>
11.2079

>  <SCORE.INTER.VDW>
-50.6266

>  <SCORE.INTER.norm>
-2.42061

>  <SCORE.INTRA>
0.0677809

>  <SCORE.INTRA.DIHEDRAL>
-1.12061

>  <SCORE.INTRA.DIHEDRAL.0>
4.18538

>  <SCORE.INTRA.POLAR>
0

>  <SCORE.INTRA.POLAR.0>
0

>  <SCORE.INTRA.REPUL>
0

>  <SCORE.INTRA.REPUL.0>
0

>  <SCORE.INTRA.SOLV>
0.0196637

>  <SCORE.INTRA.SOLV.lig_0>
-5.16926

>  <SCORE.INTRA.VDW>
0.618254

>  <SCORE.INTRA.VDW.0>
1.11912

>  <SCORE.INTRA.norm>
0.00260696

>  <SCORE.RESTR>
0

>  <SCORE.RESTR.CAVITY>
0

>  <SCORE.RESTR.norm>
0

>  <SCORE.SYSTEM>
0

>  <SCORE.SYSTEM.CONST>
0

>  <SCORE.SYSTEM.DIHEDRAL>
0

>  <SCORE.SYSTEM.SOLV>
0

>  <SCORE.SYSTEM.norm>
0

>  <SCORE.heavy>
26

>  <SCORE.norm>
-2.418

>  <RMSD>
0.701

$$$$
1f1t Malachite green aptamer (Xray 2.8A)
 OpenBabel11021811393D
libRbt.so/2013.1/901 2013/11/27
 26 29  0  0  0  0  0  0  0  0999 V2000
  111.1514  -74.5884  -81.9579 C   0  0  0  0  0  0  0  0  0  0  0  0
  111.6862  -75.8602  -82.4213 C   0  0  0  0  0  0  0  0  0  0  0  0
  111.4321  -76.1012  -83.7729 C   0  0  0  0  0  0  0  0  0  0  0  0
  112.0009  -77.4122  -84.1938 O   0  0  0  0  0  0  0  0  0  0  0  0
  111.7732  -77.6192  -85.4321 C   0  0  0  0  0  0  0  0  0  0  0  0
  112.3558  -78.9245  -85.7425 C   0  0  0  0  0  0  0  0  0  0  0  0
  112.2002  -79.3245  -87.1171 C   0  0  0  0  0  0  0  0  0  0  0  0
  111.5503  -78.5135  -88.0801 C   0  0  0  0  0  0  0  0  0  0  0  0
  110.9847  -77.2308  -87.7053 C   0  0  0  0  0  0  0  0  0  0  0  0
  111.1161  -76.8162  -86.3301 C   0  0  0  0  0  0  0  0  0  0  0  0
  110.4866  -75.4779  -86.0225 C   0  0  0  0  0  0  0  0  0  0  0  0
  110.7510  -75.2713  -84.6566 C   0  0  0  0  0  0  0  0  0  0  0  0
  110.2142  -73.9988  -84.1693 C   0  0  0  0  0  0  0  0  0  0  0  0
  110.4630  -73.7258  -82.7887 C   0  0  0  0  0  0  0  0  0  0  0  0
  109.8279  -74.7181  -86.9705 C   0  0  0  0  0  0  0  0  0  0  0  0
  108.7759  -75.1719  -87.7999 C   0  0  0  0  0  0  0  0  0  0  0  0
  108.0882  -74.4142  -88.7496 C   0  0  0  0  0  0  0  0  0  0  0  0
  108.4423  -73.0168  -88.9486 C   0  0  0  0  0  0  0  0  0  0  0  0
  109.5048  -72.5974  -88.1125 C   0  0  0  0  0  0  0  0  0  0  0  0
  110.2239  -73.3218  -87.1518 C   0  0  0  0  0  0  0  0  0  0  0  0
  111.3274  -74.2029  -80.6362 N   0  3  0  0  0  0  0  0  0  0  0  0
  112.0496  -75.0285  -79.6749 C   0  0  0  0  0  0  0  0  0  0  0  0
  110.8368  -72.9522  -80.0164 C   0  0  0  0  0  0  0  0  0  0  0  0
  112.7441  -80.5924  -87.3850 N   0  0  0  0  0  0  0  0  0  0  0  0
  113.3324  -81.6176  -86.4943 C   0  0  0  0  0  0  0  0  0  0  0  0
  112.7406  -81.0553  -88.8177 C   0  0  0  0  0  0  0  0  0  0  0  0
  1  2  1  0  0  0  0
  1 14  1  0  0  0  0
  1 21  2  0  0  0  0
  2  3  2  0  0  0  0
  3  4  1  0  0  0  0
  3 12  1  0  0  0  0
  4  5  1  0  0  0  0
  5  6  1  0  0  0  0
  5 10  2  0  0  0  0
  6  7  2  0  0  0  0
  7  8  1  0  0  0  0
  7 24  1  0  0  0  0
  8  9  2  0  0  0  0
  9 10  1  0  0  0  0
 10 11  1  0  0  0  0
 11 12  2  0  0  0  0
 11 15  1  0  0  0  0
 12 13  1  0  0  0  0
 13 14  2  0  0  0  0
 15 16  2  0  0  0  0
 15 20  1  0  0  0  0
 16 17  1  0  0  0  0
 17 18  2  0  0  0  0
 18 19  1  0  0  0  0
 19 20  2  0  0  0  0
 21 22  1  0  0  0  0
 21 23  1  0  0  0  0
 24 25  1  0  0  0  0
 24 26  1  0  0  0  0
M  CHG  1  21   1
M  END
>  <CHROM.1>
6.03033422,53.00705100,111.04385798,-76.18844015,-85.37390731,-1.85259735
1.04748920,-2.07894257

>  <Name>
1f1t Malachite green aptamer (Xray 2.8A)

>  <RI>
0

>  <Rbt.Current_Directory>
/home/itssahil/PROJECTS/Mol_Feturizer/New_Systems/rnas/1f1t

>  <Rbt.Executable>
rbdock ($Id: //depot/dev/client3/rdock/2013.1/src/exe/rbdock.cxx#4 $)

>  <Rbt.Library>
libRbt.so (2013.1, Build901 2013/11/27)

>  <Rbt.Parameter_File>
/export/apps/rDock/src/rDock_2013.1_src/data/scripts/dock_solv.prm

>  <Rbt.Receptor>
prm/pocket_docking_2.prm

>  <SCORE>
-62.8467

>  <SCORE.INTER>
-62.9154

>  <SCORE.INTER.CONST>
1

>  <SCORE.INTER.POLAR>
0

>  <SCORE.INTER.ROT>
2

>  <SCORE.INTER.SOLV>
11.1835

>  <SCORE.INTER.VDW>
-50.6048

>  <SCORE.INTER.norm>
-2.41982

>  <SCORE.INTRA>
0.0687228

>  <SCORE.INTRA.DIHEDRAL>
-1.01462

>  <SCORE.INTRA.DIHEDRAL.0>
4.18538

>  <SCORE.INTRA.POLAR>
0

>  <SCORE.INTRA.POLAR.0>
0

>  <SCORE.INTRA.REPUL>
0

>  <SCORE.INTRA.REPUL.0>
0

>  <SCORE.INTRA.SOLV>
0.018553

>  <SCORE.INTRA.SOLV.lig_0>
-5.16926

>  <SCORE.INTRA.VDW>
0.566758

>  <SCORE.INTRA.VDW.0>
1.11912

>  <SCORE.INTRA.norm>
0.00264319

>  <SCORE.RESTR>
0

>  <SCORE.RESTR.CAVITY>
0

>  <SCORE.RESTR.norm>
0

>  <SCORE.SYSTEM>
0

>  <SCORE.SYSTEM.CONST>
0

>  <SCORE.SYSTEM.DIHEDRAL>
0

>  <SCORE.SYSTEM.SOLV>
0

>  <SCORE.SYSTEM.norm>
0

>  <SCORE.heavy>
26

>  <SCORE.norm>
-2.41718

>  <RMSD>
0.702

$$$$
1f1t Malachite green aptamer (Xray 2.8A)
 OpenBabel11021811393D
libRbt.so/2013.1/901 2013/11/27
 26 29  0  0  0  0  0  0  0  0999 V2000
  111.1781  -74.5778  -81.9466 C   0  0  0  0  0  0  0  0  0  0  0  0
  111.7080  -75.8507  -82.4128 C   0  0  0  0  0  0  0  0  0  0  0  0
  111.4497  -76.0893  -83.7640 C   0  0  0  0  0  0  0  0  0  0  0  0
  112.0135  -77.4015  -84.1880 O   0  0  0  0  0  0  0  0  0  0  0  0
  111.7820  -77.6063  -85.4259 C   0  0  0  0  0  0  0  0  0  0  0  0
  112.3599  -78.9130  -85.7393 C   0  0  0  0  0  0  0  0  0  0  0  0
  112.1996  -79.3110  -87.1139 C   0  0  0  0  0  0  0  0  0  0  0  0
  111.5496  -78.4969  -88.0743 C   0  0  0  0  0  0  0  0  0  0  0  0
  110.9888  -77.2129  -87.6966 C   0  0  0  0  0  0  0  0  0  0  0  0
  111.1250  -76.8004  -86.3213 C   0  0  0  0  0  0  0  0  0  0  0  0
  110.5002  -75.4606  -86.0104 C   0  0  0  0  0  0  0  0  0  0  0  0
  110.7687  -75.2564  -84.6450 C   0  0  0  0  0  0  0  0  0  0  0  0
  110.2370  -73.9829  -84.1548 C   0  0  0  0  0  0  0  0  0  0  0  0
  110.4902  -73.7122  -82.7745 C   0  0  0  0  0  0  0  0  0  0  0  0
  109.8413  -74.6978  -86.9559 C   0  0  0  0  0  0  0  0  0  0  0  0
  108.7847  -75.1469  -87.7819 C   0  0  0  0  0  0  0  0  0  0  0  0
  108.0968  -74.3861  -88.7289 C   0  0  0  0  0  0  0  0  0  0  0  0
  108.4558  -72.9900  -88.9284 C   0  0  0  0  0  0  0  0  0  0  0  0
  109.5228  -72.5752  -88.0957 C   0  0  0  0  0  0  0  0  0  0  0  0
  110.2422  -73.3029  -87.1378 C   0  0  0  0  0  0  0  0  0  0  0  0
  111.3586  -74.1944  -80.6249 N   0  3  0  0  0  0  0  0  0  0  0  0
  112.0809  -75.0233  -79.6664 C   0  0  0  0  0  0  0  0  0  0  0  0
  110.8734  -72.9430  -80.0023 C   0  0  0  0  0  0  0  0  0  0  0  0
  112.7391  -80.5801  -87.3847 N   0  0  0  0  0  0  0  0  0  0  0  0
  113.3330  -81.6051  -86.4977 C   0  0  0  0  0  0  0  0  0  0  0  0
  112.7227  -81.0449  -88.8167 C   0  0  0  0  0  0  0  0  0  0  0  0
  1  2  1  0  0  0  0
  1 14  1  0  0  0  0
  1 21  2  0  0  0  0
  2  3  2  0  0  0  0
  3  4  1  0  0  0  0
  3 12  1  0  0  0  0
  4  5  1  0  0  0  0
  5  6  1  0  0  0  0
  5 10  2  0  0  0  0
  6  7  2  0  0  0  0
  7  8  1  0  0  0  0
  7 24  1  0  0  0  0
  8  9  2  0  0  0  0
  9 10  1  0  0  0  0
 10 11  1  0  0  0  0
 11 12  2  0  0  0  0
 11 15  1  0  0  0  0
 12 13  1  0  0  0  0
 13 14  2  0  0  0  0
 15 16  2  0  0  0  0
 15 20  1  0  0  0  0
 16 17  1  0  0  0  0
 17 18  2  0  0  0  0
 18 19  1  0  0  0  0
 19 20  2  0  0  0  0
 21 22  1  0  0  0  0
 21 23  1  0  0  0  0
 24 25  1  0  0  0  0
 24 26  1  0  0  0  0
M  CHG  1  21   1
M  END
>  <CHROM.1>
5.65992548,53.08912602,111.05697679,-76.17355378,-85.36412123,-1.84500085
1.04874817,-2.08436364

>  <Name>
1f1t Malachite green aptamer (Xray 2.8A)

>  <RI>
0

>  <Rbt.Current_Directory>
/home/itssahil/PROJECTS/Mol_Feturizer/New_Systems/rnas/1f1t

>  <Rbt.Executable>
rbdock ($Id: //depot/dev/client3/rdock/2013.1/src/exe/rbdock.cxx#4 $)

>  <Rbt.Library>
libRbt.so (2013.1, Build901 2013/11/27)

>  <Rbt.Parameter_File>
/export/apps/rDock/src/rDock_2013.1_src/data/scripts/dock_solv.prm

>  <Rbt.Receptor>
prm/pocket_docking_3.prm

>  <SCORE>
-62.9076

>  <SCORE.INTER>
-62.9717

>  <SCORE.INTER.CONST>
1

>  <SCORE.INTER.POLAR>
0

>  <SCORE.INTER.ROT>
2

>  <SCORE.INTER.SOLV>
11.2155

>  <SCORE.INTER.VDW>
-50.6529

>  <SCORE.INTER.norm>
-2.42199

>  <SCORE.INTRA>
0.0640885

>  <SCORE.INTRA.DIHEDRAL>
-1.02436

>  <SCORE.INTRA.DIHEDRAL.0>
4.18538

>  <SCORE.INTRA.POLAR>
0

>  <SCORE.INTRA.POLAR.0>
0

>  <SCORE.INTRA.REPUL>
0

>  <SCORE.INTRA.REPUL.0>
0

>  <SCORE.INTRA.SOLV>
0.0184623

>  <SCORE.INTRA.SOLV.lig_0>
-5.16926

>  <SCORE.INTRA.VDW>
0.567036

>  <SCORE.INTRA.VDW.0>
1.11912

>  <SCORE.INTRA.norm>
0.00246494

>  <SCORE.RESTR>
0

>  <SCORE.RESTR.CAVITY>
0

>  <SCORE.RESTR.norm>
0

>  <SCORE.SYSTEM>
0

>  <SCORE.SYSTEM.CONST>
0

>  <SCORE.SYSTEM.DIHEDRAL>
0

>  <SCORE.SYSTEM.SOLV>
0

>  <SCORE.SYSTEM.norm>
0

>  <SCORE.heavy>
26

>  <SCORE.norm>
-2.41952

>  <RMSD>
0.703

$$$$
1f1t Malachite green aptamer (Xray 2.8A)
 OpenBabel11021811393D
libRbt.so/2013.1/901 2013/11/27
 26 29  0  0  0  0  0  0  0  0999 V2000
  111.1540  -74.6139  -81.9568 C   0  0  0  0  0  0  0  0  0  0  0  0
  111.6880  -75.8836  -82.4268 C   0  0  0  0  0  0  0  0  0  0  0  0
  111.4358  -76.1162  -83.7802 C   0  0  0  0  0  0  0  0  0  0  0  0
  112.0036  -77.4255  -84.2081 O   0  0  0  0  0  0  0  0  0  0  0  0
  111.7777  -77.6247  -85.4479 C   0  0  0  0  0  0  0  0  0  0  0  0
  112.3591  -78.9289  -85.7652 C   0  0  0  0  0  0  0  0  0  0  0  0
  112.2052  -79.3205  -87.1423 C   0  0  0  0  0  0  0  0  0  0  0  0
  111.5579  -78.5029  -88.1016 C   0  0  0  0  0  0  0  0  0  0  0  0
  110.9934  -77.2217  -87.7201 C   0  0  0  0  0  0  0  0  0  0  0  0
  111.1231  -76.8156  -86.3422 C   0  0  0  0  0  0  0  0  0  0  0  0
  110.4948  -75.4783  -86.0276 C   0  0  0  0  0  0  0  0  0  0  0  0
  110.7572  -75.2802  -84.6601 C   0  0  0  0  0  0  0  0  0  0  0  0
  110.2212  -74.0099  -84.1661 C   0  0  0  0  0  0  0  0  0  0  0  0
  110.4681  -73.7455  -82.7835 C   0  0  0  0  0  0  0  0  0  0  0  0
  109.8386  -74.7120  -86.9722 C   0  0  0  0  0  0  0  0  0  0  0  0
  108.7726  -75.1530  -87.7904 C   0  0  0  0  0  0  0  0  0  0  0  0
  108.0874  -74.3884  -88.7364 C   0  0  0  0  0  0  0  0  0  0  0  0
  108.4601  -72.9970  -88.9433 C   0  0  0  0  0  0  0  0  0  0  0  0
  109.5362  -72.5904  -88.1183 C   0  0  0  0  0  0  0  0  0  0  0  0
  110.2534  -73.3223  -87.1618 C   0  0  0  0  0  0  0  0  0  0  0  0
  111.3283  -74.2365  -80.6325 N   0  3  0  0  0  0  0  0  0  0  0  0
  112.0479  -75.0688  -79.6749 C   0  0  0  0  0  0  0  0  0  0  0  0
  110.8383  -72.9889  -80.0060 C   0  0  0  0  0  0  0  0  0  0  0  0
  112.7480  -80.5875  -87.4169 N   0  0  0  0  0  0  0  0  0  0  0  0
  113.3396  -81.6159  -86.5322 C   0  0  0  0  0  0  0  0  0  0  0  0
  112.7388  -81.0453  -88.8512 C   0  0  0  0  0  0  0  0  0  0  0  0
  1  2  1  0  0  0  0
  1 14  1  0  0  0  0
  1 21  2  0  0  0  0
  2  3  2  0  0  0  0
  3  4  1  0  0  0  0
  3 12  1  0  0  0  0
  4  5  1  0  0  0  0
  5  6  1  0  0  0  0
  5 10  2  0  0  0  0
  6  7  2  0  0  0  0
  7  8  1  0  0  0  0
  7 24  1  0  0  0  0
  8  9  2  0  0  0  0
  9 10  1  0  0  0  0
 10 11  1  0  0  0  0
 11 12  2  0  0  0  0
 11 15  1  0  0  0  0
 12 13  1  0  0  0  0
 13 14  2  0  0  0  0
 15 16  2  0  0  0  0
 15 20  1  0  0  0  0
 16 17  1  0  0  0  0
 17 18  2  0  0  0  0
 18 19  1  0  0  0  0
 19 20  2  0  0  0  0
 21 22  1  0  0  0  0
 21 23  1  0  0  0  0
 24 25  1  0  0  0  0
 24 26  1  0  0  0  0
M  CHG  1  21   1
M  END
>  <CHROM.1>
5.67727636,54.12282259,111.05017019,-76.19342798,-85.38251001,-1.85413288
1.04942125,-2.07148848

>  <Name>
1f1t Malachite green aptamer (Xray 2.8A)

>  <RI>
0

>  <Rbt.Current_Directory>
/home/itssahil/PROJECTS/Mol_Feturizer/New_Systems/rnas/1f1t

>  <Rbt.Executable>
rbdock ($Id: //depot/dev/client3/rdock/2013.1/src/exe/rbdock.cxx#4 $)

>  <Rbt.Library>
libRbt.so (2013.1, Build901 2013/11/27)

>  <Rbt.Parameter_File>
/export/apps/rDock/src/rDock_2013.1_src/data/scripts/dock_solv.prm

>  <Rbt.Receptor>
prm/pocket_docking_4.prm

>  <SCORE>
-62.8336

>  <SCORE.INTER>
-62.8787

>  <SCORE.INTER.CONST>
1

>  <SCORE.INTER.POLAR>
0

>  <SCORE.INTER.ROT>
2

>  <SCORE.INTER.SOLV>
11.1877

>  <SCORE.INTER.VDW>
-50.5817

>  <SCORE.INTER.norm>
-2.41841

>  <SCORE.INTRA>
0.0451068

>  <SCORE.INTRA.DIHEDRAL>
-0.940606

>  <SCORE.INTRA.DIHEDRAL.0>
4.18538

>  <SCORE.INTRA.POLAR>
0

>  <SCORE.INTRA.POLAR.0>
0

>  <SCORE.INTRA.REPUL>
0

>  <SCORE.INTRA.REPUL.0>
0

>  <SCORE.INTRA.SOLV>
0.0172922

>  <SCORE.INTRA.SOLV.lig_0>
-5.16926

>  <SCORE.INTRA.VDW>
0.506764

>  <SCORE.INTRA.VDW.0>
1.11912

>  <SCORE.INTRA.norm>
0.00173488

>  <SCORE.RESTR>
0

>  <SCORE.RESTR.CAVITY>
0

>  <SCORE.RESTR.norm>
0

>  <SCORE.SYSTEM>
0

>  <SCORE.SYSTEM.CONST>
0

>  <SCORE.SYSTEM.DIHEDRAL>
0

>  <SCORE.SYSTEM.SOLV>
0

>  <SCORE.SYSTEM.norm>
0

>  <SCORE.heavy>
26

>  <SCORE.norm>
-2.41668

>  <RMSD>
0.703

$$$$
1f1t Malachite green aptamer (Xray 2.8A)
 OpenBabel11021811393D
libRbt.so/2013.1/901 2013/11/27
 26 29  0  0  0  0  0  0  0  0999 V2000
  111.1822  -74.5797  -81.9446 C   0  0  0  0  0  0  0  0  0  0  0  0
  111.7116  -75.8526  -82.4116 C   0  0  0  0  0  0  0  0  0  0  0  0
  111.4532  -76.0903  -83.7629 C   0  0  0  0  0  0  0  0  0  0  0  0
  112.0164  -77.4026  -84.1876 O   0  0  0  0  0  0  0  0  0  0  0  0
  111.7849  -77.6066  -85.4256 C   0  0  0  0  0  0  0  0  0  0  0  0
  112.3622  -78.9134  -85.7398 C   0  0  0  0  0  0  0  0  0  0  0  0
  112.2017  -79.3104  -87.1146 C   0  0  0  0  0  0  0  0  0  0  0  0
  111.5522  -78.4955  -88.0746 C   0  0  0  0  0  0  0  0  0  0  0  0
  110.9920  -77.2115  -87.6962 C   0  0  0  0  0  0  0  0  0  0  0  0
  111.1283  -76.7998  -86.3206 C   0  0  0  0  0  0  0  0  0  0  0  0
  110.5041  -75.4599  -86.0090 C   0  0  0  0  0  0  0  0  0  0  0  0
  110.7727  -75.2566  -84.6434 C   0  0  0  0  0  0  0  0  0  0  0  0
  110.2415  -73.9831  -84.1525 C   0  0  0  0  0  0  0  0  0  0  0  0
  110.4947  -73.7134  -82.7721 C   0  0  0  0  0  0  0  0  0  0  0  0
  109.8456  -74.6962  -86.9540 C   0  0  0  0  0  0  0  0  0  0  0  0
  108.7992  -75.1488  -87.7911 C   0  0  0  0  0  0  0  0  0  0  0  0
  108.1117  -74.3874  -88.7380 C   0  0  0  0  0  0  0  0  0  0  0  0
  108.4599  -72.9869  -88.9250 C   0  0  0  0  0  0  0  0  0  0  0  0
  109.5169  -72.5685  -88.0814 C   0  0  0  0  0  0  0  0  0  0  0  0
  110.2356  -73.2967  -87.1232 C   0  0  0  0  0  0  0  0  0  0  0  0
  111.3629  -74.1972  -80.6227 N   0  3  0  0  0  0  0  0  0  0  0  0
  112.0848  -75.0269  -79.6647 C   0  0  0  0  0  0  0  0  0  0  0  0
  110.8782  -72.9459  -79.9994 C   0  0  0  0  0  0  0  0  0  0  0  0
  112.7407  -80.5797  -87.3861 N   0  0  0  0  0  0  0  0  0  0  0  0
  113.3321  -81.6064  -86.4993 C   0  0  0  0  0  0  0  0  0  0  0  0
  112.7266  -81.0425  -88.8188 C   0  0  0  0  0  0  0  0  0  0  0  0
  1  2  1  0  0  0  0
  1 14  1  0  0  0  0
  1 21  2  0  0  0  0
  2  3  2  0  0  0  0
  3  4  1  0  0  0  0
  3 12  1  0  0  0  0
  4  5  1  0  0  0  0
  5  6  1  0  0  0  0
  5 10  2  0  0  0  0
  6  7  2  0  0  0  0
  7  8  1  0  0  0  0
  7 24  1  0  0  0  0
  8  9  2  0  0  0  0
  9 10  1  0  0  0  0
 10 11  1  0  0  0  0
 11 12  2  0  0  0  0
 11 15  1  0  0  0  0
 12 13  1  0  0  0  0
 13 14  2  0  0  0  0
 15 16  2  0  0  0  0
 15 20  1  0  0  0  0
 16 17  1  0  0  0  0
 17 18  2  0  0  0  0
 18 19  1  0  0  0  0
 19 20  2  0  0  0  0
 21 22  1  0  0  0  0
 21 23  1  0  0  0  0
 24 25  1  0  0  0  0
 24 26  1  0  0  0  0
M  CHG  1  21   1
M  END
>  <CHROM.1>
5.77753209,52.31443510,111.06043294,-76.17347993,-85.36300213,-1.84463856
1.04913561,-2.08422301

>  <Name>
1f1t Malachite green aptamer (Xray 2.8A)

>  <RI>
0

>  <Rbt.Current_Directory>
/home/itssahil/PROJECTS/Mol_Feturizer/New_Systems/rnas/1f1t

>  <Rbt.Executable>
rbdock ($Id: //depot/dev/client3/rdock/2013.1/src/exe/rbdock.cxx#4 $)

>  <Rbt.Library>
libRbt.so (2013.1, Build901 2013/11/27)

>  <Rbt.Parameter_File>
/export/apps/rDock/src/rDock_2013.1_src/data/scripts/dock_solv.prm

>  <Rbt.Receptor>
prm/pocket_docking_6.prm

>  <SCORE>
-62.8852

>  <SCORE.INTER>
-62.9488

>  <SCORE.INTER.CONST>
1

>  <SCORE.INTER.POLAR>
0

>  <SCORE.INTER.ROT>
2

>  <SCORE.INTER.SOLV>
11.2115

>  <SCORE.INTER.VDW>
-50.6364

>  <SCORE.INTER.norm>
-2.42111

>  <SCORE.INTRA>
0.0636209

>  <SCORE.INTRA.DIHEDRAL>
-1.08204

>  <SCORE.INTRA.DIHEDRAL.0>
4.18538

>  <SCORE.INTRA.POLAR>
0

>  <SCORE.INTRA.POLAR.0>
0

>  <SCORE.INTRA.REPUL>
0

>  <SCORE.INTRA.REPUL.0>
0

>  <SCORE.INTRA.SOLV>
0.0193332

>  <SCORE.INTRA.SOLV.lig_0>
-5.16926

>  <SCORE.INTRA.VDW>
0.594974

>  <SCORE.INTRA.VDW.0>
1.11912

>  <SCORE.INTRA.norm>
0.00244696

>  <SCORE.RESTR>
0

>  <SCORE.RESTR.CAVITY>
0

>  <SCORE.RESTR.norm>
0

>  <SCORE.SYSTEM>
0

>  <SCORE.SYSTEM.CONST>
0

>  <SCORE.SYSTEM.DIHEDRAL>
0

>  <SCORE.SYSTEM.SOLV>
0

>  <SCORE.SYSTEM.norm>
0

>  <SCORE.heavy>
26

>  <SCORE.norm>
-2.41866

>  <RMSD>
0.703

$$$$
1f1t Malachite green aptamer (Xray 2.8A)
 OpenBabel11021811393D
libRbt.so/2013.1/901 2013/11/27
 26 29  0  0  0  0  0  0  0  0999 V2000
  111.1867  -74.6310  -81.9612 C   0  0  0  0  0  0  0  0  0  0  0  0
  111.7195  -75.8984  -82.4388 C   0  0  0  0  0  0  0  0  0  0  0  0
  111.4602  -76.1264  -83.7916 C   0  0  0  0  0  0  0  0  0  0  0  0
  112.0271  -77.4335  -84.2272 O   0  0  0  0  0  0  0  0  0  0  0  0
  111.7947  -77.6285  -85.4665 C   0  0  0  0  0  0  0  0  0  0  0  0
  112.3758  -78.9310  -85.7916 C   0  0  0  0  0  0  0  0  0  0  0  0
  112.2148  -79.3178  -87.1693 C   0  0  0  0  0  0  0  0  0  0  0  0
  111.5614  -78.4975  -88.1221 C   0  0  0  0  0  0  0  0  0  0  0  0
  110.9975  -77.2184  -87.7329 C   0  0  0  0  0  0  0  0  0  0  0  0
  111.1342  -76.8170  -86.3543 C   0  0  0  0  0  0  0  0  0  0  0  0
  110.5061  -75.4816  -86.0315 C   0  0  0  0  0  0  0  0  0  0  0  0
  110.7758  -75.2881  -84.6647 C   0  0  0  0  0  0  0  0  0  0  0  0
  110.2411  -74.0202  -84.1632 C   0  0  0  0  0  0  0  0  0  0  0  0
  110.4953  -73.7604  -82.7810 C   0  0  0  0  0  0  0  0  0  0  0  0
  109.8439  -74.7127  -86.9697 C   0  0  0  0  0  0  0  0  0  0  0  0
  108.7809  -75.1551  -87.7912 C   0  0  0  0  0  0  0  0  0  0  0  0
  108.0897  -74.3881  -88.7307 C   0  0  0  0  0  0  0  0  0  0  0  0
  108.4518  -72.9924  -88.9266 C   0  0  0  0  0  0  0  0  0  0  0  0
  109.5251  -72.5843  -88.0986 C   0  0  0  0  0  0  0  0  0  0  0  0
  110.2481  -73.3184  -87.1482 C   0  0  0  0  0  0  0  0  0  0  0  0
  111.3678  -74.2582  -80.6366 N   0  3  0  0  0  0  0  0  0  0  0  0
  112.0936  -75.0930  -79.6860 C   0  0  0  0  0  0  0  0  0  0  0  0
  110.8799  -73.0134  -80.0029 C   0  0  0  0  0  0  0  0  0  0  0  0
  112.7576  -80.5831  -87.4514 N   0  0  0  0  0  0  0  0  0  0  0  0
  113.3085  -81.6352  -86.5683 C   0  0  0  0  0  0  0  0  0  0  0  0
  112.7974  -81.0100  -88.8947 C   0  0  0  0  0  0  0  0  0  0  0  0
  1  2  1  0  0  0  0
  1 14  1  0  0  0  0
  1 21  2  0  0  0  0
  2  3  2  0  0  0  0
  3  4  1  0  0  0  0
  3 12  1  0  0  0  0
  4  5  1  0  0  0  0
  5  6  1  0  0  0  0
  5 10  2  0  0  0  0
  6  7  2  0  0  0  0
  7  8  1  0  0  0  0
  7 24  1  0  0  0  0
  8  9  2  0  0  0  0
  9 10  1  0  0  0  0
 10 11  1  0  0  0  0
 11 12  2  0  0  0  0
 11 15  1  0  0  0  0
 12 13  1  0  0  0  0
 13 14  2  0  0  0  0
 15 16  2  0  0  0  0
 15 20  1  0  0  0  0
 16 17  1  0  0  0  0
 17 18  2  0  0  0  0
 18 19  1  0  0  0  0
 19 20  2  0  0  0  0
 21 22  1  0  0  0  0
 21 23  1  0  0  0  0
 24 25  1  0  0  0  0
 24 26  1  0  0  0  0
M  CHG  1  21   1
M  END
>  <CHROM.1>
8.34964093,53.58695556,111.06621234,-76.19817144,-85.39201040,-1.84704482
1.04619381,-2.07396884

>  <Name>
1f1t Malachite green aptamer (Xray 2.8A)

>  <RI>
0

>  <Rbt.Current_Directory>
/home/itssahil/PROJECTS/Mol_Feturizer/New_Systems/rnas/1f1t

>  <Rbt.Executable>
rbdock ($Id: //depot/dev/client3/rdock/2013.1/src/exe/rbdock.cxx#4 $)

>  <Rbt.Library>
libRbt.so (2013.1, Build901 2013/11/27)

>  <Rbt.Parameter_File>
/export/apps/rDock/src/rDock_2013.1_src/data/scripts/dock_solv.prm

>  <Rbt.Receptor>
prm/pocket_docking_7.prm

>  <SCORE>
-62.8127

>  <SCORE.INTER>
-62.8932

>  <SCORE.INTER.CONST>
1

>  <SCORE.INTER.POLAR>
0

>  <SCORE.INTER.ROT>
2

>  <SCORE.INTER.SOLV>
11.1513

>  <SCORE.INTER.VDW>
-50.5792

>  <SCORE.INTER.norm>
-2.41897

>  <SCORE.INTRA>
0.0804951

>  <SCORE.INTRA.DIHEDRAL>
-0.841762

>  <SCORE.INTRA.DIHEDRAL.0>
4.18538

>  <SCORE.INTRA.POLAR>
0

>  <SCORE.INTRA.POLAR.0>
0

>  <SCORE.INTRA.REPUL>
0

>  <SCORE.INTRA.REPUL.0>
0

>  <SCORE.INTRA.SOLV>
0.0178783

>  <SCORE.INTRA.SOLV.lig_0>
-5.16926

>  <SCORE.INTRA.VDW>
0.492437

>  <SCORE.INTRA.VDW.0>
1.11912

>  <SCORE.INTRA.norm>
0.00309596

>  <SCORE.RESTR>
0

>  <SCORE.RESTR.CAVITY>
0

>  <SCORE.RESTR.norm>
0

>  <SCORE.SYSTEM>
0

>  <SCORE.SYSTEM.CONST>
0

>  <SCORE.SYSTEM.DIHEDRAL>
0

>  <SCORE.SYSTEM.SOLV>
0

>  <SCORE.SYSTEM.norm>
0

>  <SCORE.heavy>
26

>  <SCORE.norm>
-2.41587

>  <RMSD>
0.703

$$$$
1f1t Malachite green aptamer (Xray 2.8A)
 OpenBabel11021811393D
libRbt.so/2013.1/901 2013/11/27
 26 29  0  0  0  0  0  0  0  0999 V2000
  111.1852  -74.5778  -81.9464 C   0  0  0  0  0  0  0  0  0  0  0  0
  111.7133  -75.8513  -82.4131 C   0  0  0  0  0  0  0  0  0  0  0  0
  111.4545  -76.0892  -83.7643 C   0  0  0  0  0  0  0  0  0  0  0  0
  112.0164  -77.4020  -84.1888 O   0  0  0  0  0  0  0  0  0  0  0  0
  111.7845  -77.6061  -85.4267 C   0  0  0  0  0  0  0  0  0  0  0  0
  112.3606  -78.9135  -85.7407 C   0  0  0  0  0  0  0  0  0  0  0  0
  112.1994  -79.3108  -87.1154 C   0  0  0  0  0  0  0  0  0  0  0  0
  111.5503  -78.4956  -88.0754 C   0  0  0  0  0  0  0  0  0  0  0  0
  110.9913  -77.2110  -87.6972 C   0  0  0  0  0  0  0  0  0  0  0  0
  111.1283  -76.7991  -86.3217 C   0  0  0  0  0  0  0  0  0  0  0  0
  110.5053  -75.4586  -86.0103 C   0  0  0  0  0  0  0  0  0  0  0  0
  110.7744  -75.2551  -84.6449 C   0  0  0  0  0  0  0  0  0  0  0  0
  110.2444  -73.9810  -84.1542 C   0  0  0  0  0  0  0  0  0  0  0  0
  110.4982  -73.7111  -82.7740 C   0  0  0  0  0  0  0  0  0  0  0  0
  109.8473  -74.6946  -86.9555 C   0  0  0  0  0  0  0  0  0  0  0  0
  108.7920  -75.1430  -87.7836 C   0  0  0  0  0  0  0  0  0  0  0  0
  108.1049  -74.3811  -88.7302 C   0  0  0  0  0  0  0  0  0  0  0  0
  108.4634  -72.9845  -88.9271 C   0  0  0  0  0  0  0  0  0  0  0  0
  109.5290  -72.5703  -88.0923 C   0  0  0  0  0  0  0  0  0  0  0  0
  110.2477  -73.2992  -87.1347 C   0  0  0  0  0  0  0  0  0  0  0  0
  111.3665  -74.1951  -80.6246 N   0  3  0  0  0  0  0  0  0  0  0  0
  112.0879  -75.0252  -79.6665 C   0  0  0  0  0  0  0  0  0  0  0  0
  110.8830  -72.9432  -80.0016 C   0  0  0  0  0  0  0  0  0  0  0  0
  112.7372  -80.5806  -87.3866 N   0  0  0  0  0  0  0  0  0  0  0  0
  113.3350  -81.6044  -86.5007 C   0  0  0  0  0  0  0  0  0  0  0  0
  112.7140  -81.0477  -88.8178 C   0  0  0  0  0  0  0  0  0  0  0  0
  1  2  1  0  0  0  0
  1 14  1  0  0  0  0
  1 21  2  0  0  0  0
  2  3  2  0  0  0  0
  3  4  1  0  0  0  0
  3 12  1  0  0  0  0
  4  5  1  0  0  0  0
  5  6  1  0  0  0  0
  5 10  2  0  0  0  0
  6  7  2  0  0  0  0
  7  8  1  0  0  0  0
  7 24  1  0  0  0  0
  8  9  2  0  0  0  0
  9 10  1  0  0  0  0
 10 11  1  0  0  0  0
 11 12  2  0  0  0  0
 11 15  1  0  0  0  0
 12 13  1  0  0  0  0
 13 14  2  0  0  0  0
 15 16  2  0  0  0  0
 15 20  1  0  0  0  0
 16 17  1  0  0  0  0
 17 18  2  0  0  0  0
 18 19  1  0  0  0  0
 19 20  2  0  0  0  0
 21 22  1  0  0  0  0
 21 23  1  0  0  0  0
 24 25  1  0  0  0  0
 24 26  1  0  0  0  0
M  CHG  1  21   1
M  END
>  <CHROM.1>
5.37747451,52.93350862,111.06124951,-76.17244401,-85.36436463,-1.84318984
1.04972608,-2.08568531

>  <Name>
1f1t Malachite green aptamer (Xray 2.8A)

>  <RI>
0

>  <Rbt.Current_Directory>
/home/itssahil/PROJECTS/Mol_Feturizer/New_Systems/rnas/1f1t

>  <Rbt.Executable>
rbdock ($Id: //depot/dev/client3/rdock/2013.1/src/exe/rbdock.cxx#4 $)

>  <Rbt.Library>
libRbt.so (2013.1, Build901 2013/11/27)

>  <Rbt.Parameter_File>
/export/apps/rDock/src/rDock_2013.1_src/data/scripts/dock_solv.prm

>  <Rbt.Receptor>
prm/pocket_docking_6.prm

>  <SCORE>
-62.8551

>  <SCORE.INTER>
-62.9202

>  <SCORE.INTER.CONST>
1

>  <SCORE.INTER.POLAR>
0

>  <SCORE.INTER.ROT>
2

>  <SCORE.INTER.SOLV>
11.225

>  <SCORE.INTER.VDW>
-50.6218

>  <SCORE.INTER.norm>
-2.42001

>  <SCORE.INTRA>
0.0651253

>  <SCORE.INTRA.DIHEDRAL>
-1.0487

>  <SCORE.INTRA.DIHEDRAL.0>
4.18538

>  <SCORE.INTRA.POLAR>
0

>  <SCORE.INTRA.POLAR.0>
0

>  <SCORE.INTRA.REPUL>
0

>  <SCORE.INTRA.REPUL.0>
0

>  <SCORE.INTRA.SOLV>
0.0186372

>  <SCORE.INTRA.SOLV.lig_0>
-5.16926

>  <SCORE.INTRA.VDW>
0.580158

>  <SCORE.INTRA.VDW.0>
1.11912

>  <SCORE.INTRA.norm>
0.00250482

>  <SCORE.RESTR>
0

>  <SCORE.RESTR.CAVITY>
0

>  <SCORE.RESTR.norm>
0

>  <SCORE.SYSTEM>
0

>  <SCORE.SYSTEM.CONST>
0

>  <SCORE.SYSTEM.DIHEDRAL>
0

>  <SCORE.SYSTEM.SOLV>
0

>  <SCORE.SYSTEM.norm>
0

>  <SCORE.heavy>
26

>  <SCORE.norm>
-2.4175

>  <RMSD>
0.704

$$$$
1f1t Malachite green aptamer (Xray 2.8A)
 OpenBabel11021811393D
libRbt.so/2013.1/901 2013/11/27
 26 29  0  0  0  0  0  0  0  0999 V2000
  111.1801  -74.5787  -81.9483 C   0  0  0  0  0  0  0  0  0  0  0  0
  111.7101  -75.8514  -82.4149 C   0  0  0  0  0  0  0  0  0  0  0  0
  111.4519  -76.0897  -83.7662 C   0  0  0  0  0  0  0  0  0  0  0  0
  112.0158  -77.4017  -84.1905 O   0  0  0  0  0  0  0  0  0  0  0  0
  111.7844  -77.6062  -85.4285 C   0  0  0  0  0  0  0  0  0  0  0  0
  112.3624  -78.9127  -85.7423 C   0  0  0  0  0  0  0  0  0  0  0  0
  112.2022  -79.3102  -87.1170 C   0  0  0  0  0  0  0  0  0  0  0  0
  111.5522  -78.4959  -88.0772 C   0  0  0  0  0  0  0  0  0  0  0  0
  110.9913  -77.2121  -87.6992 C   0  0  0  0  0  0  0  0  0  0  0  0
  111.1274  -76.8000  -86.3237 C   0  0  0  0  0  0  0  0  0  0  0  0
  110.5025  -75.4603  -86.0124 C   0  0  0  0  0  0  0  0  0  0  0  0
  110.7710  -75.2566  -84.6469 C   0  0  0  0  0  0  0  0  0  0  0  0
  110.2391  -73.9832  -84.1564 C   0  0  0  0  0  0  0  0  0  0  0  0
  110.4922  -73.7129  -82.7760 C   0  0  0  0  0  0  0  0  0  0  0  0
  109.8436  -74.6973  -86.9577 C   0  0  0  0  0  0  0  0  0  0  0  0
  108.7973  -75.1505  -87.7945 C   0  0  0  0  0  0  0  0  0  0  0  0
  108.1094  -74.3897  -88.7415 C   0  0  0  0  0  0  0  0  0  0  0  0
  108.4571  -72.9891  -88.9292 C   0  0  0  0  0  0  0  0  0  0  0  0
  109.5141  -72.5701  -88.0858 C   0  0  0  0  0  0  0  0  0  0  0  0
  110.2331  -73.2977  -87.1275 C   0  0  0  0  0  0  0  0  0  0  0  0
  111.3605  -74.1957  -80.6265 N   0  3  0  0  0  0  0  0  0  0  0  0
  112.0828  -75.0248  -79.6682 C   0  0  0  0  0  0  0  0  0  0  0  0
  110.8752  -72.9446  -80.0035 C   0  0  0  0  0  0  0  0  0  0  0  0
  112.7418  -80.5793  -87.3882 N   0  0  0  0  0  0  0  0  0  0  0  0
  113.3481  -81.5989  -86.5032 C   0  0  0  0  0  0  0  0  0  0  0  0
  112.7107  -81.0505  -88.8179 C   0  0  0  0  0  0  0  0  0  0  0  0
  1  2  1  0  0  0  0
  1 14  1  0  0  0  0
  1 21  2  0  0  0  0
  2  3  2  0  0  0  0
  3  4  1  0  0  0  0
  3 12  1  0  0  0  0
  4  5  1  0  0  0  0
  5  6  1  0  0  0  0
  5 10  2  0  0  0  0
  6  7  2  0  0  0  0
  7  8  1  0  0  0  0
  7 24  1  0  0  0  0
  8  9  2  0  0  0  0
  9 10  1  0  0  0  0
 10 11  1  0  0  0  0
 11 12  2  0  0  0  0
 11 15  1  0  0  0  0
 12 13  1  0  0  0  0
 13 14  2  0  0  0  0
 15 16  2  0  0  0  0
 15 20  1  0  0  0  0
 16 17  1  0  0  0  0
 17 18  2  0  0  0  0
 18 19  1  0  0  0  0
 19 20  2  0  0  0  0
 21 22  1  0  0  0  0
 21 23  1  0  0  0  0
 24 25  1  0  0  0  0
 24 26  1  0  0  0  0
M  CHG  1  21   1
M  END
>  <CHROM.1>
4.95315275,52.32977460,111.05907881,-76.17350748,-85.36623122,-1.84474505
1.04854483,-2.08445349

>  <Name>
1f1t Malachite green aptamer (Xray 2.8A)

>  <RI>
0

>  <Rbt.Current_Directory>
/home/itssahil/PROJECTS/Mol_Feturizer/New_Systems/rnas/1f1t

>  <Rbt.Executable>
rbdock ($Id: //depot/dev/client3/rdock/2013.1/src/exe/rbdock.cxx#4 $)

>  <Rbt.Library>
libRbt.so (2013.1, Build901 2013/11/27)

>  <Rbt.Parameter_File>
/export/apps/rDock/src/rDock_2013.1_src/data/scripts/dock_solv.prm

>  <Rbt.Receptor>
prm/pocket_docking_2.prm

>  <SCORE>
-62.8747

>  <SCORE.INTER>
-62.9319

>  <SCORE.INTER.CONST>
1

>  <SCORE.INTER.POLAR>
0

>  <SCORE.INTER.ROT>
2

>  <SCORE.INTER.SOLV>
11.2254

>  <SCORE.INTER.VDW>
-50.6297

>  <SCORE.INTER.norm>
-2.42046

>  <SCORE.INTRA>
0.0572216

>  <SCORE.INTRA.DIHEDRAL>
-1.11418

>  <SCORE.INTRA.DIHEDRAL.0>
4.18538

>  <SCORE.INTRA.POLAR>
0

>  <SCORE.INTRA.POLAR.0>
0

>  <SCORE.INTRA.REPUL>
0

>  <SCORE.INTRA.REPUL.0>
0

>  <SCORE.INTRA.SOLV>
0.019315

>  <SCORE.INTRA.SOLV.lig_0>
-5.16926

>  <SCORE.INTRA.VDW>
0.604655

>  <SCORE.INTRA.VDW.0>
1.11912

>  <SCORE.INTRA.norm>
0.00220083

>  <SCORE.RESTR>
0

>  <SCORE.RESTR.CAVITY>
0

>  <SCORE.RESTR.norm>
0

>  <SCORE.SYSTEM>
0

>  <SCORE.SYSTEM.CONST>
0

>  <SCORE.SYSTEM.DIHEDRAL>
0

>  <SCORE.SYSTEM.SOLV>
0

>  <SCORE.SYSTEM.norm>
0

>  <SCORE.heavy>
26

>  <SCORE.norm>
-2.41826

>  <RMSD>
0.705

$$$$
1f1t Malachite green aptamer (Xray 2.8A)
 OpenBabel11021811393D
libRbt.so/2013.1/901 2013/11/27
 26 29  0  0  0  0  0  0  0  0999 V2000
  111.1707  -74.6103  -81.9472 C   0  0  0  0  0  0  0  0  0  0  0  0
  111.7008  -75.8801  -82.4216 C   0  0  0  0  0  0  0  0  0  0  0  0
  111.4436  -76.1094  -83.7747 C   0  0  0  0  0  0  0  0  0  0  0  0
  112.0075  -77.4188  -84.2071 O   0  0  0  0  0  0  0  0  0  0  0  0
  111.7771  -77.6151  -85.4466 C   0  0  0  0  0  0  0  0  0  0  0  0
  112.3550  -78.9197  -85.7685 C   0  0  0  0  0  0  0  0  0  0  0  0
  112.1958  -79.3082  -87.1459 C   0  0  0  0  0  0  0  0  0  0  0  0
  111.5468  -78.4874  -88.1013 C   0  0  0  0  0  0  0  0  0  0  0  0
  110.9860  -77.2060  -87.7153 C   0  0  0  0  0  0  0  0  0  0  0  0
  111.1210  -76.8029  -86.3370 C   0  0  0  0  0  0  0  0  0  0  0  0
  110.4962  -75.4651  -86.0175 C   0  0  0  0  0  0  0  0  0  0  0  0
  110.7636  -75.2704  -84.6505 C   0  0  0  0  0  0  0  0  0  0  0  0
  110.2317  -74.0001  -84.1521 C   0  0  0  0  0  0  0  0  0  0  0  0
  110.4837  -73.7389  -82.7698 C   0  0  0  0  0  0  0  0  0  0  0  0
  109.8383  -74.6957  -86.9583 C   0  0  0  0  0  0  0  0  0  0  0  0
  108.7846  -75.1399  -87.7907 C   0  0  0  0  0  0  0  0  0  0  0  0
  108.0977  -74.3726  -88.7331 C   0  0  0  0  0  0  0  0  0  0  0  0
  108.4547  -72.9742  -88.9202 C   0  0  0  0  0  0  0  0  0  0  0  0
  109.5188  -72.5643  -88.0814 C   0  0  0  0  0  0  0  0  0  0  0  0
  110.2372  -73.2987  -87.1278 C   0  0  0  0  0  0  0  0  0  0  0  0
  111.3502  -74.2360  -80.6227 N   0  3  0  0  0  0  0  0  0  0  0  0
  112.0715  -75.0716  -79.6693 C   0  0  0  0  0  0  0  0  0  0  0  0
  110.8646  -72.9889  -79.9920 C   0  0  0  0  0  0  0  0  0  0  0  0
  112.7353  -80.5756  -87.4249 N   0  0  0  0  0  0  0  0  0  0  0  0
  113.3327  -81.6047  -86.5450 C   0  0  0  0  0  0  0  0  0  0  0  0
  112.7148  -81.0330  -88.8593 C   0  0  0  0  0  0  0  0  0  0  0  0
  1  2  1  0  0  0  0
  1 14  1  0  0  0  0
  1 21  2  0  0  0  0
  2  3  2  0  0  0  0
  3  4  1  0  0  0  0
  3 12  1  0  0  0  0
  4  5  1  0  0  0  0
  5  6  1  0  0  0  0
  5 10  2  0  0  0  0
  6  7  2  0  0  0  0
  7  8  1  0  0  0  0
  7 24  1  0  0  0  0
  8  9  2  0  0  0  0
  9 10  1  0  0  0  0
 10 11  1  0  0  0  0
 11 12  2  0  0  0  0
 11 15  1  0  0  0  0
 12 13  1  0  0  0  0
 13 14  2  0  0  0  0
 15 16  2  0  0  0  0
 15 20  1  0  0  0  0
 16 17  1  0  0  0  0
 17 18  2  0  0  0  0
 18 19  1  0  0  0  0
 19 20  2  0  0  0  0
 21 22  1  0  0  0  0
 21 23  1  0  0  0  0
 24 25  1  0  0  0  0
 24 26  1  0  0  0  0
M  CHG  1  21   1
M  END
>  <CHROM.1>
5.40779950,52.92073200,111.05224284,-76.18262490,-85.37563412,-1.84620102
1.04929406,-2.07651919

>  <Name>
1f1t Malachite green aptamer (Xray 2.8A)

>  <RI>
0

>  <Rbt.Current_Directory>
/home/itssahil/PROJECTS/Mol_Feturizer/New_Systems/rnas/1f1t

>  <Rbt.Executable>
rbdock ($Id: //depot/dev/client3/rdock/2013.1/src/exe/rbdock.cxx#4 $)

>  <Rbt.Library>
libRbt.so (2013.1, Build901 2013/11/27)

>  <Rbt.Parameter_File>
/export/apps/rDock/src/rDock_2013.1_src/data/scripts/dock_solv.prm

>  <Rbt.Receptor>
prm/pocket_docking_8.prm

>  <SCORE>
-62.827

>  <SCORE.INTER>
-62.8926

>  <SCORE.INTER.CONST>
1

>  <SCORE.INTER.POLAR>
0

>  <SCORE.INTER.ROT>
2

>  <SCORE.INTER.SOLV>
11.1963

>  <SCORE.INTER.VDW>
-50.5938

>  <SCORE.INTER.norm>
-2.41895

>  <SCORE.INTRA>
0.0656131

>  <SCORE.INTRA.DIHEDRAL>
-1.0485

>  <SCORE.INTRA.DIHEDRAL.0>
4.18538

>  <SCORE.INTRA.POLAR>
0

>  <SCORE.INTRA.POLAR.0>
0

>  <SCORE.INTRA.REPUL>
0

>  <SCORE.INTRA.REPUL.0>
0

>  <SCORE.INTRA.SOLV>
0.0186517

>  <SCORE.INTRA.SOLV.lig_0>
-5.16926

>  <SCORE.INTRA.VDW>
0.580538

>  <SCORE.INTRA.VDW.0>
1.11912

>  <SCORE.INTRA.norm>
0.00252358

>  <SCORE.RESTR>
0

>  <SCORE.RESTR.CAVITY>
0

>  <SCORE.RESTR.norm>
0

>  <SCORE.SYSTEM>
0

>  <SCORE.SYSTEM.CONST>
0

>  <SCORE.SYSTEM.DIHEDRAL>
0

>  <SCORE.SYSTEM.SOLV>
0

>  <SCORE.SYSTEM.norm>
0

>  <SCORE.heavy>
26

>  <SCORE.norm>
-2.41642

>  <RMSD>
0.705

$$$$
1f1t Malachite green aptamer (Xray 2.8A)
 OpenBabel11021811393D
libRbt.so/2013.1/901 2013/11/27
 26 29  0  0  0  0  0  0  0  0999 V2000
  111.1551  -74.5838  -81.9575 C   0  0  0  0  0  0  0  0  0  0  0  0
  111.6885  -75.8554  -82.4232 C   0  0  0  0  0  0  0  0  0  0  0  0
  111.4346  -76.0934  -83.7753 C   0  0  0  0  0  0  0  0  0  0  0  0
  112.0018  -77.4044  -84.1986 O   0  0  0  0  0  0  0  0  0  0  0  0
  111.7743  -77.6087  -85.4373 C   0  0  0  0  0  0  0  0  0  0  0  0
  112.3553  -78.9142  -85.7500 C   0  0  0  0  0  0  0  0  0  0  0  0
  112.1997  -79.3113  -87.1254 C   0  0  0  0  0  0  0  0  0  0  0  0
  111.5511  -78.4976  -88.0871 C   0  0  0  0  0  0  0  0  0  0  0  0
  110.9871  -77.2149  -87.7101 C   0  0  0  0  0  0  0  0  0  0  0  0
  111.1185  -76.8032  -86.3340 C   0  0  0  0  0  0  0  0  0  0  0  0
  110.4906  -75.4647  -86.0240 C   0  0  0  0  0  0  0  0  0  0  0  0
  110.7548  -75.2611  -84.6576 C   0  0  0  0  0  0  0  0  0  0  0  0
  110.2194  -73.9888  -84.1680 C   0  0  0  0  0  0  0  0  0  0  0  0
  110.4681  -73.7187  -82.7869 C   0  0  0  0  0  0  0  0  0  0  0  0
  109.8331  -74.7023  -86.9708 C   0  0  0  0  0  0  0  0  0  0  0  0
  108.7685  -75.1477  -87.7885 C   0  0  0  0  0  0  0  0  0  0  0  0
  108.0821  -74.3870  -88.7367 C   0  0  0  0  0  0  0  0  0  0  0  0
  108.4517  -72.9953  -88.9469 C   0  0  0  0  0  0  0  0  0  0  0  0
  109.5264  -72.5842  -88.1223 C   0  0  0  0  0  0  0  0  0  0  0  0
  110.2448  -73.3120  -87.1636 C   0  0  0  0  0  0  0  0  0  0  0  0
  111.3311  -74.2011  -80.6350 N   0  3  0  0  0  0  0  0  0  0  0  0
  112.0520  -75.0294  -79.6751 C   0  0  0  0  0  0  0  0  0  0  0  0
  110.8419  -72.9510  -80.0129 C   0  0  0  0  0  0  0  0  0  0  0  0
  112.7422  -80.5794  -87.3955 N   0  0  0  0  0  0  0  0  0  0  0  0
  113.3517  -81.5965  -86.5100 C   0  0  0  0  0  0  0  0  0  0  0  0
  112.7110  -81.0522  -88.8247 C   0  0  0  0  0  0  0  0  0  0  0  0
  1  2  1  0  0  0  0
  1 14  1  0  0  0  0
  1 21  2  0  0  0  0
  2  3  2  0  0  0  0
  3  4  1  0  0  0  0
  3 12  1  0  0  0  0
  4  5  1  0  0  0  0
  5  6  1  0  0  0  0
  5 10  2  0  0  0  0
  6  7  2  0  0  0  0
  7  8  1  0  0  0  0
  7 24  1  0  0  0  0
  8  9  2  0  0  0  0
  9 10  1  0  0  0  0
 10 11  1  0  0  0  0
 11 12  2  0  0  0  0
 11 15  1  0  0  0  0
 12 13  1  0  0  0  0
 13 14  2  0  0  0  0
 15 16  2  0  0  0  0
 15 20  1  0  0  0  0
 16 17  1  0  0  0  0
 17 18  2  0  0  0  0
 18 19  1  0  0  0  0
 19 20  2  0  0  0  0
 21 22  1  0  0  0  0
 21 23  1  0  0  0  0
 24 25  1  0  0  0  0
 24 26  1  0  0  0  0
M  CHG  1  21   1
M  END
>  <CHROM.1>
4.71803556,53.93354896,111.04664709,-76.17723693,-85.37665666,-1.85134592
1.04857058,-2.07805690

>  <Name>
1f1t Malachite green aptamer (Xray 2.8A)

>  <RI>
0

>  <Rbt.Current_Directory>
/home/itssahil/PROJECTS/Mol_Feturizer/New_Systems/rnas/1f1t

>  <Rbt.Executable>
rbdock ($Id: //depot/dev/client3/rdock/2013.1/src/exe/rbdock.cxx#4 $)

>  <Rbt.Library>
libRbt.so (2013.1, Build901 2013/11/27)

>  <Rbt.Parameter_File>
/export/apps/rDock/src/rDock_2013.1_src/data/scripts/dock_solv.prm

>  <Rbt.Receptor>
prm/pocket_docking_6.prm

>  <SCORE>
-62.8198

>  <SCORE.INTER>
-62.8613

>  <SCORE.INTER.CONST>
1

>  <SCORE.INTER.POLAR>
0

>  <SCORE.INTER.ROT>
2

>  <SCORE.INTER.SOLV>
11.2312

>  <SCORE.INTER.VDW>
-50.5846

>  <SCORE.INTER.norm>
-2.41774

>  <SCORE.INTRA>
0.0415396

>  <SCORE.INTRA.DIHEDRAL>
-0.993356

>  <SCORE.INTRA.DIHEDRAL.0>
4.18538

>  <SCORE.INTRA.POLAR>
0

>  <SCORE.INTRA.POLAR.0>
0

>  <SCORE.INTRA.REPUL>
0

>  <SCORE.INTRA.REPUL.0>
0

>  <SCORE.INTRA.SOLV>
0.0175058

>  <SCORE.INTRA.SOLV.lig_0>
-5.16926

>  <SCORE.INTRA.VDW>
0.529465

>  <SCORE.INTRA.VDW.0>
1.11912

>  <SCORE.INTRA.norm>
0.00159768

>  <SCORE.RESTR>
0

>  <SCORE.RESTR.CAVITY>
0

>  <SCORE.RESTR.norm>
0

>  <SCORE.SYSTEM>
0

>  <SCORE.SYSTEM.CONST>
0

>  <SCORE.SYSTEM.DIHEDRAL>
0

>  <SCORE.SYSTEM.SOLV>
0

>  <SCORE.SYSTEM.norm>
0

>  <SCORE.heavy>
26

>  <SCORE.norm>
-2.41615

>  <RMSD>
0.709

$$$$
1f1t Malachite green aptamer (Xray 2.8A)
 OpenBabel11021811393D
libRbt.so/2013.1/901 2013/11/27
 26 29  0  0  0  0  0  0  0  0999 V2000
  111.1921  -74.5991  -81.9238 C   0  0  0  0  0  0  0  0  0  0  0  0
  111.7081  -75.8731  -82.4024 C   0  0  0  0  0  0  0  0  0  0  0  0
  111.4562  -76.0913  -83.7583 C   0  0  0  0  0  0  0  0  0  0  0  0
  112.0052  -77.4057  -84.1949 O   0  0  0  0  0  0  0  0  0  0  0  0
  111.7798  -77.5917  -85.4368 C   0  0  0  0  0  0  0  0  0  0  0  0
  112.3422  -78.9022  -85.7627 C   0  0  0  0  0  0  0  0  0  0  0  0
  112.1862  -79.2806  -87.1433 C   0  0  0  0  0  0  0  0  0  0  0  0
  111.5542  -78.4458  -88.0979 C   0  0  0  0  0  0  0  0  0  0  0  0
  111.0081  -77.1591  -87.7079 C   0  0  0  0  0  0  0  0  0  0  0  0
  111.1401  -76.7658  -86.3265 C   0  0  0  0  0  0  0  0  0  0  0  0
  110.5313  -75.4216  -86.0031 C   0  0  0  0  0  0  0  0  0  0  0  0
  110.7928  -75.2382  -84.6334 C   0  0  0  0  0  0  0  0  0  0  0  0
  110.2749  -73.9638  -84.1308 C   0  0  0  0  0  0  0  0  0  0  0  0
  110.5219  -73.7139  -82.7456 C   0  0  0  0  0  0  0  0  0  0  0  0
  109.8895  -74.6381  -86.9434 C   0  0  0  0  0  0  0  0  0  0  0  0
  110.2061  -73.2930  -87.2452 C   0  0  0  0  0  0  0  0  0  0  0  0
  109.5807  -72.4928  -88.2030 C   0  0  0  0  0  0  0  0  0  0  0  0
  108.4932  -73.0413  -88.9995 C   0  0  0  0  0  0  0  0  0  0  0  0
  108.1938  -74.3840  -88.6656 C   0  0  0  0  0  0  0  0  0  0  0  0
  108.7904  -75.2209  -87.7125 C   0  0  0  0  0  0  0  0  0  0  0  0
  111.3684  -74.2348  -80.5962 N   0  3  0  0  0  0  0  0  0  0  0  0
  112.0726  -75.0854  -79.6433 C   0  0  0  0  0  0  0  0  0  0  0  0
  110.8957  -72.9848  -79.9612 C   0  0  0  0  0  0  0  0  0  0  0  0
  112.7104  -80.5535  -87.4264 N   0  0  0  0  0  0  0  0  0  0  0  0
  113.3087  -81.5866  -86.5517 C   0  0  0  0  0  0  0  0  0  0  0  0
  112.6684  -81.0133  -88.8595 C   0  0  0  0  0  0  0  0  0  0  0  0
  1  2  1  0  0  0  0
  1 14  1  0  0  0  0
  1 21  2  0  0  0  0
  2  3  2  0  0  0  0
  3  4  1  0  0  0  0
  3 12  1  0  0  0  0
  4  5  1  0  0  0  0
  5  6  1  0  0  0  0
  5 10  2  0  0  0  0
  6  7  2  0  0  0  0
  7  8  1  0  0  0  0
  7 24  1  0  0  0  0
  8  9  2  0  0  0  0
  9 10  1  0  0  0  0
 10 11  1  0  0  0  0
 11 12  2  0  0  0  0
 11 15  1  0  0  0  0
 12 13  1  0  0  0  0
 13 14  2  0  0  0  0
 15 16  2  0  0  0  0
 15 20  1  0  0  0  0
 16 17  1  0  0  0  0
 17 18  2  0  0  0  0
 18 19  1  0  0  0  0
 19 20  2  0  0  0  0
 21 22  1  0  0  0  0
 21 23  1  0  0  0  0
 24 25  1  0  0  0  0
 24 26  1  0  0  0  0
M  CHG  1  21   1
M  END
>  <CHROM.1>
4.25749728,-125.21526490,111.06632823,-76.16757836,-85.37151568,-1.82401513
1.05916553,-2.07559911

>  <Name>
1f1t Malachite green aptamer (Xray 2.8A)

>  <RI>
0

>  <Rbt.Current_Directory>
/home/itssahil/PROJECTS/Mol_Feturizer/New_Systems/rnas/1f1t

>  <Rbt.Executable>
rbdock ($Id: //depot/dev/client3/rdock/2013.1/src/exe/rbdock.cxx#4 $)

>  <Rbt.Library>
libRbt.so (2013.1, Build901 2013/11/27)

>  <Rbt.Parameter_File>
/export/apps/rDock/src/rDock_2013.1_src/data/scripts/dock_solv.prm

>  <Rbt.Receptor>
prm/pocket_docking_8.prm

>  <SCORE>
-63.3206

>  <SCORE.INTER>
-63.4598

>  <SCORE.INTER.CONST>
1

>  <SCORE.INTER.POLAR>
0

>  <SCORE.INTER.ROT>
2

>  <SCORE.INTER.SOLV>
11.2375

>  <SCORE.INTER.VDW>
-50.9857

>  <SCORE.INTER.norm>
-2.44076

>  <SCORE.INTRA>
0.139214

>  <SCORE.INTRA.DIHEDRAL>
-0.941106

>  <SCORE.INTRA.DIHEDRAL.0>
4.18538

>  <SCORE.INTRA.POLAR>
0

>  <SCORE.INTRA.POLAR.0>
0

>  <SCORE.INTRA.REPUL>
0

>  <SCORE.INTRA.REPUL.0>
0

>  <SCORE.INTRA.SOLV>
0.0165564

>  <SCORE.INTRA.SOLV.lig_0>
-5.16926

>  <SCORE.INTRA.VDW>
0.601489

>  <SCORE.INTRA.VDW.0>
1.11912

>  <SCORE.INTRA.norm>
0.00535438

>  <SCORE.RESTR>
0

>  <SCORE.RESTR.CAVITY>
0

>  <SCORE.RESTR.norm>
0

>  <SCORE.SYSTEM>
0

>  <SCORE.SYSTEM.CONST>
0

>  <SCORE.SYSTEM.DIHEDRAL>
0

>  <SCORE.SYSTEM.SOLV>
0

>  <SCORE.SYSTEM.norm>
0

>  <SCORE.heavy>
26

>  <SCORE.norm>
-2.43541

>  <RMSD>
0.709

$$$$
1f1t Malachite green aptamer (Xray 2.8A)
 OpenBabel11021811393D
libRbt.so/2013.1/901 2013/11/27
 26 29  0  0  0  0  0  0  0  0999 V2000
  111.1380  -74.5687  -81.9738 C   0  0  0  0  0  0  0  0  0  0  0  0
  111.6849  -75.8378  -82.4307 C   0  0  0  0  0  0  0  0  0  0  0  0
  111.4367  -76.0861  -83.7820 C   0  0  0  0  0  0  0  0  0  0  0  0
  112.0177  -77.3940  -84.1962 O   0  0  0  0  0  0  0  0  0  0  0  0
  111.7953  -77.6076  -85.4343 C   0  0  0  0  0  0  0  0  0  0  0  0
  112.3898  -78.9092  -85.7380 C   0  0  0  0  0  0  0  0  0  0  0  0
  112.2415  -79.3158  -87.1114 C   0  0  0  0  0  0  0  0  0  0  0  0
  111.5875  -78.5141  -88.0794 C   0  0  0  0  0  0  0  0  0  0  0  0
  111.0101  -77.2347  -87.7113 C   0  0  0  0  0  0  0  0  0  0  0  0
  111.1340  -76.8138  -86.3373 C   0  0  0  0  0  0  0  0  0  0  0  0
  110.4923  -75.4797  -86.0367 C   0  0  0  0  0  0  0  0  0  0  0  0
  110.7511  -75.2655  -84.6709 C   0  0  0  0  0  0  0  0  0  0  0  0
  110.2022  -73.9957  -84.1900 C   0  0  0  0  0  0  0  0  0  0  0  0
  110.4447  -73.7152  -82.8098 C   0  0  0  0  0  0  0  0  0  0  0  0
  109.8300  -74.7291  -86.9895 C   0  0  0  0  0  0  0  0  0  0  0  0
  108.7802  -75.1933  -87.8160 C   0  0  0  0  0  0  0  0  0  0  0  0
  108.0888  -74.4451  -88.7704 C   0  0  0  0  0  0  0  0  0  0  0  0
  108.4362  -73.0473  -88.9784 C   0  0  0  0  0  0  0  0  0  0  0  0
  109.4966  -72.6173  -88.1450 C   0  0  0  0  0  0  0  0  0  0  0  0
  110.2192  -73.3321  -87.1798 C   0  0  0  0  0  0  0  0  0  0  0  0
  111.3069  -74.1767  -80.6531 N   0  3  0  0  0  0  0  0  0  0  0  0
  112.0334  -74.9924  -79.6865 C   0  0  0  0  0  0  0  0  0  0  0  0
  110.8041  -72.9278  -80.0395 C   0  0  0  0  0  0  0  0  0  0  0  0
  112.7969  -80.5801  -87.3728 N   0  0  0  0  0  0  0  0  0  0  0  0
  112.9931  -81.3251  -88.6365 C   0  0  0  0  0  0  0  0  0  0  0  0
  113.3206  -81.3597  -86.1960 C   0  0  0  0  0  0  0  0  0  0  0  0
  1  2  1  0  0  0  0
  1 14  1  0  0  0  0
  1 21  2  0  0  0  0
  2  3  2  0  0  0  0
  3  4  1  0  0  0  0
  3 12  1  0  0  0  0
  4  5  1  0  0  0  0
  5  6  1  0  0  0  0
  5 10  2  0  0  0  0
  6  7  2  0  0  0  0
  7  8  1  0  0  0  0
  7 24  1  0  0  0  0
  8  9  2  0  0  0  0
  9 10  1  0  0  0  0
 10 11  1  0  0  0  0
 11 12  2  0  0  0  0
 11 15  1  0  0  0  0
 12 13  1  0  0  0  0
 13 14  2  0  0  0  0
 15 16  2  0  0  0  0
 15 20  1  0  0  0  0
 16 17  1  0  0  0  0
 17 18  2  0  0  0  0
 18 19  1  0  0  0  0
 19 20  2  0  0  0  0
 21 22  1  0  0  0  0
 21 23  1  0  0  0  0
 24 25  1  0  0  0  0
 24 26  1  0  0  0  0
M  CHG  1  21   1
M  END
>  <CHROM.1>
-173.17528723,53.30649826,111.05908493,-76.18462655,-85.36420842,-1.87852338
1.04162955,-2.07164264

>  <Name>
1f1t Malachite green aptamer (Xray 2.8A)

>  <RI>
0

>  <Rbt.Current_Directory>
/home/itssahil/PROJECTS/Mol_Feturizer/New_Systems/rnas/1f1t

>  <Rbt.Executable>
rbdock ($Id: //depot/dev/client3/rdock/2013.1/src/exe/rbdock.cxx#4 $)

>  <Rbt.Library>
libRbt.so (2013.1, Build901 2013/11/27)

>  <Rbt.Parameter_File>
/export/apps/rDock/src/rDock_2013.1_src/data/scripts/dock_solv.prm

>  <Rbt.Receptor>
prm/pocket_docking_8.prm

>  <SCORE>
-59.2312

>  <SCORE.INTER>
-62.6144

>  <SCORE.INTER.CONST>
1

>  <SCORE.INTER.POLAR>
0

>  <SCORE.INTER.ROT>
2

>  <SCORE.INTER.SOLV>
11.2302

>  <SCORE.INTER.VDW>
-50.4197

>  <SCORE.INTER.norm>
-2.40825

>  <SCORE.INTRA>
3.38322

>  <SCORE.INTRA.DIHEDRAL>
-0.951845

>  <SCORE.INTRA.DIHEDRAL.0>
4.18538

>  <SCORE.INTRA.POLAR>
0

>  <SCORE.INTRA.POLAR.0>
0

>  <SCORE.INTRA.REPUL>
0

>  <SCORE.INTRA.REPUL.0>
0

>  <SCORE.INTRA.SOLV>
0.016339

>  <SCORE.INTRA.SOLV.lig_0>
-5.16926

>  <SCORE.INTRA.VDW>
3.85097

>  <SCORE.INTRA.VDW.0>
1.11912

>  <SCORE.INTRA.norm>
0.130124

>  <SCORE.RESTR>
0

>  <SCORE.RESTR.CAVITY>
0

>  <SCORE.RESTR.norm>
0

>  <SCORE.SYSTEM>
0

>  <SCORE.SYSTEM.CONST>
0

>  <SCORE.SYSTEM.DIHEDRAL>
0

>  <SCORE.SYSTEM.SOLV>
0

>  <SCORE.SYSTEM.norm>
0

>  <SCORE.heavy>
26

>  <SCORE.norm>
-2.27812

>  <RMSD>
0.710

$$$$
1f1t Malachite green aptamer (Xray 2.8A)
 OpenBabel11021811393D
libRbt.so/2013.1/901 2013/11/27
 26 29  0  0  0  0  0  0  0  0999 V2000
  111.1954  -74.6545  -81.9237 C   0  0  0  0  0  0  0  0  0  0  0  0
  111.7150  -75.9197  -82.4215 C   0  0  0  0  0  0  0  0  0  0  0  0
  111.4624  -76.1186  -83.7802 C   0  0  0  0  0  0  0  0  0  0  0  0
  112.0153  -77.4246  -84.2367 O   0  0  0  0  0  0  0  0  0  0  0  0
  111.7892  -77.5930  -85.4810 C   0  0  0  0  0  0  0  0  0  0  0  0
  112.3555  -78.8966  -85.8268 C   0  0  0  0  0  0  0  0  0  0  0  0
  112.1994  -79.2552  -87.2127 C   0  0  0  0  0  0  0  0  0  0  0  0
  111.5636  -78.4085  -88.1542 C   0  0  0  0  0  0  0  0  0  0  0  0
  111.0137  -77.1295  -87.7447 C   0  0  0  0  0  0  0  0  0  0  0  0
  111.1458  -76.7562  -86.3578 C   0  0  0  0  0  0  0  0  0  0  0  0
  110.5329  -75.4189  -86.0140 C   0  0  0  0  0  0  0  0  0  0  0  0
  110.7953  -75.2549  -84.6419 C   0  0  0  0  0  0  0  0  0  0  0  0
  110.2737  -73.9898  -84.1201 C   0  0  0  0  0  0  0  0  0  0  0  0
  110.5213  -73.7596  -82.7316 C   0  0  0  0  0  0  0  0  0  0  0  0
  109.8876  -74.6237  -86.9420 C   0  0  0  0  0  0  0  0  0  0  0  0
  110.2045  -73.2757  -87.2297 C   0  0  0  0  0  0  0  0  0  0  0  0
  109.5754  -72.4636  -88.1750 C   0  0  0  0  0  0  0  0  0  0  0  0
  108.4833  -73.0014  -88.9725 C   0  0  0  0  0  0  0  0  0  0  0  0
  108.1837  -74.3475  -88.6527 C   0  0  0  0  0  0  0  0  0  0  0  0
  108.7839  -75.1962  -87.7124 C   0  0  0  0  0  0  0  0  0  0  0  0
  111.3719  -74.3093  -80.5910 N   0  3  0  0  0  0  0  0  0  0  0  0
  112.0799  -75.1715  -79.6514 C   0  0  0  0  0  0  0  0  0  0  0  0
  110.8957  -73.0704  -79.9371 C   0  0  0  0  0  0  0  0  0  0  0  0
  112.7275  -80.5220  -87.5150 N   0  0  0  0  0  0  0  0  0  0  0  0
  112.9111  -81.2285  -88.8025 C   0  0  0  0  0  0  0  0  0  0  0  0
  113.2302  -81.3520  -86.3637 C   0  0  0  0  0  0  0  0  0  0  0  0
  1  2  1  0  0  0  0
  1 14  1  0  0  0  0
  1 21  2  0  0  0  0
  2  3  2  0  0  0  0
  3  4  1  0  0  0  0
  3 12  1  0  0  0  0
  4  5  1  0  0  0  0
  5  6  1  0  0  0  0
  5 10  2  0  0  0  0
  6  7  2  0  0  0  0
  7  8  1  0  0  0  0
  7 24  1  0  0  0  0
  8  9  2  0  0  0  0
  9 10  1  0  0  0  0
 10 11  1  0  0  0  0
 11 12  2  0  0  0  0
 11 15  1  0  0  0  0
 12 13  1  0  0  0  0
 13 14  2  0  0  0  0
 15 16  2  0  0  0  0
 15 20  1  0  0  0  0
 16 17  1  0  0  0  0
 17 18  2  0  0  0  0
 18 19  1  0  0  0  0
 19 20  2  0  0  0  0
 21 22  1  0  0  0  0
 21 23  1  0  0  0  0
 24 25  1  0  0  0  0
 24 26  1  0  0  0  0
M  CHG  1  21   1
M  END
>  <CHROM.1>
-173.02229529,-124.82655877,111.07653458,-76.17471928,-85.37447809,-1.83834723
1.05625285,-2.05885103

>  <Name>
1f1t Malachite green aptamer (Xray 2.8A)

>  <RI>
0

>  <Rbt.Current_Directory>
/home/itssahil/PROJECTS/Mol_Feturizer/New_Systems/rnas/1f1t

>  <Rbt.Executable>
rbdock ($Id: //depot/dev/client3/rdock/2013.1/src/exe/rbdock.cxx#4 $)

>  <Rbt.Library>
libRbt.so (2013.1, Build901 2013/11/27)

>  <Rbt.Parameter_File>
/export/apps/rDock/src/rDock_2013.1_src/data/scripts/dock_solv.prm

>  <Rbt.Receptor>
prm/pocket_docking_2.prm

>  <SCORE>
-59.7494

>  <SCORE.INTER>
-63.2082

>  <SCORE.INTER.CONST>
1

>  <SCORE.INTER.POLAR>
0

>  <SCORE.INTER.ROT>
2

>  <SCORE.INTER.SOLV>
11.1555

>  <SCORE.INTER.VDW>
-50.7906

>  <SCORE.INTER.norm>
-2.43108

>  <SCORE.INTRA>
3.45878

>  <SCORE.INTRA.DIHEDRAL>
-0.794975

>  <SCORE.INTRA.DIHEDRAL.0>
4.18538

>  <SCORE.INTRA.POLAR>
0

>  <SCORE.INTRA.POLAR.0>
0

>  <SCORE.INTRA.REPUL>
0

>  <SCORE.INTRA.REPUL.0>
0

>  <SCORE.INTRA.SOLV>
0.0142734

>  <SCORE.INTRA.SOLV.lig_0>
-5.16926

>  <SCORE.INTRA.VDW>
3.84913

>  <SCORE.INTRA.VDW.0>
1.11912

>  <SCORE.INTRA.norm>
0.13303

>  <SCORE.RESTR>
0

>  <SCORE.RESTR.CAVITY>
0

>  <SCORE.RESTR.norm>
0

>  <SCORE.SYSTEM>
0

>  <SCORE.SYSTEM.CONST>
0

>  <SCORE.SYSTEM.DIHEDRAL>
0

>  <SCORE.SYSTEM.SOLV>
0

>  <SCORE.SYSTEM.norm>
0

>  <SCORE.heavy>
26

>  <SCORE.norm>
-2.29806

>  <RMSD>
0.712

$$$$
1f1t Malachite green aptamer (Xray 2.8A)
 OpenBabel11021811393D
libRbt.so/2013.1/901 2013/11/27
 26 29  0  0  0  0  0  0  0  0999 V2000
  111.1956  -74.5955  -81.9240 C   0  0  0  0  0  0  0  0  0  0  0  0
  111.7096  -75.8702  -82.4031 C   0  0  0  0  0  0  0  0  0  0  0  0
  111.4572  -76.0875  -83.7590 C   0  0  0  0  0  0  0  0  0  0  0  0
  112.0041  -77.4025  -84.1961 O   0  0  0  0  0  0  0  0  0  0  0  0
  111.7783  -77.5879  -85.4381 C   0  0  0  0  0  0  0  0  0  0  0  0
  112.3386  -78.8990  -85.7645 C   0  0  0  0  0  0  0  0  0  0  0  0
  112.1819  -79.2768  -87.1452 C   0  0  0  0  0  0  0  0  0  0  0  0
  111.5509  -78.4407  -88.0994 C   0  0  0  0  0  0  0  0  0  0  0  0
  111.0069  -77.1534  -87.7089 C   0  0  0  0  0  0  0  0  0  0  0  0
  111.1396  -76.7607  -86.3274 C   0  0  0  0  0  0  0  0  0  0  0  0
  110.5329  -75.4157  -86.0034 C   0  0  0  0  0  0  0  0  0  0  0  0
  110.7949  -75.2332  -84.6337 C   0  0  0  0  0  0  0  0  0  0  0  0
  110.2789  -73.9582  -84.1307 C   0  0  0  0  0  0  0  0  0  0  0  0
  110.5265  -73.7091  -82.7453 C   0  0  0  0  0  0  0  0  0  0  0  0
  109.8921  -74.6309  -86.9434 C   0  0  0  0  0  0  0  0  0  0  0  0
  110.2154  -73.2886  -87.2499 C   0  0  0  0  0  0  0  0  0  0  0  0
  109.5909  -72.4873  -88.2075 C   0  0  0  0  0  0  0  0  0  0  0  0
  108.4973  -73.0314  -88.9984 C   0  0  0  0  0  0  0  0  0  0  0  0
  108.1913  -74.3715  -88.6598 C   0  0  0  0  0  0  0  0  0  0  0  0
  108.7867  -75.2094  -87.7068 C   0  0  0  0  0  0  0  0  0  0  0  0
  111.3727  -74.2319  -80.5963 N   0  3  0  0  0  0  0  0  0  0  0  0
  112.0758  -75.0839  -79.6437 C   0  0  0  0  0  0  0  0  0  0  0  0
  110.9019  -72.9815  -79.9608 C   0  0  0  0  0  0  0  0  0  0  0  0
  112.7042  -80.5504  -87.4288 N   0  0  0  0  0  0  0  0  0  0  0  0
  113.3138  -81.5790  -86.5567 C   0  0  0  0  0  0  0  0  0  0  0  0
  112.6459  -81.0165  -88.8593 C   0  0  0  0  0  0  0  0  0  0  0  0
  1  2  1  0  0  0  0
  1 14  1  0  0  0  0
  1 21  2  0  0  0  0
  2  3  2  0  0  0  0
  3  4  1  0  0  0  0
  3 12  1  0  0  0  0
  4  5  1  0  0  0  0
  5  6  1  0  0  0  0
  5 10  2  0  0  0  0
  6  7  2  0  0  0  0
  7  8  1  0  0  0  0
  7 24  1  0  0  0  0
  8  9  2  0  0  0  0
  9 10  1  0  0  0  0
 10 11  1  0  0  0  0
 11 12  2  0  0  0  0
 11 15  1  0  0  0  0
 12 13  1  0  0  0  0
 13 14  2  0  0  0  0
 15 16  2  0  0  0  0
 15 20  1  0  0  0  0
 16 17  1  0  0  0  0
 17 18  2  0  0  0  0
 18 19  1  0  0  0  0
 19 20  2  0  0  0  0
 21 22  1  0  0  0  0
 21 23  1  0  0  0  0
 24 25  1  0  0  0  0
 24 26  1  0  0  0  0
M  CHG  1  21   1
M  END
>  <CHROM.1>
3.52992747,-124.84984701,111.06674101,-76.16274730,-85.37212047,-1.82191399
1.06019321,-2.07715072

>  <Name>
1f1t Malachite green aptamer (Xray 2.8A)

>  <RI>
0

>  <Rbt.Current_Directory>
/home/itssahil/PROJECTS/Mol_Feturizer/New_Systems/rnas/1f1t

>  <Rbt.Executable>
rbdock ($Id: //depot/dev/client3/rdock/2013.1/src/exe/rbdock.cxx#4 $)

>  <Rbt.Library>
libRbt.so (2013.1, Build901 2013/11/27)

>  <Rbt.Parameter_File>
/export/apps/rDock/src/rDock_2013.1_src/data/scripts/dock_solv.prm

>  <Rbt.Receptor>
prm/pocket_docking_3.prm

>  <SCORE>
-63.2974

>  <SCORE.INTER>
-63.422

>  <SCORE.INTER.CONST>
1

>  <SCORE.INTER.POLAR>
0

>  <SCORE.INTER.ROT>
2

>  <SCORE.INTER.SOLV>
11.2579

>  <SCORE.INTER.VDW>
-50.9673

>  <SCORE.INTER.norm>
-2.43931

>  <SCORE.INTRA>
0.124646

>  <SCORE.INTRA.DIHEDRAL>
-0.933432

>  <SCORE.INTRA.DIHEDRAL.0>
4.18538

>  <SCORE.INTRA.POLAR>
0

>  <SCORE.INTRA.POLAR.0>
0

>  <SCORE.INTRA.REPUL>
0

>  <SCORE.INTRA.REPUL.0>
0

>  <SCORE.INTRA.SOLV>
0.0161347

>  <SCORE.INTRA.SOLV.lig_0>
-5.16926

>  <SCORE.INTRA.VDW>
0.583295

>  <SCORE.INTRA.VDW.0>
1.11912

>  <SCORE.INTRA.norm>
0.00479407

>  <SCORE.RESTR>
0

>  <SCORE.RESTR.CAVITY>
0

>  <SCORE.RESTR.norm>
0

>  <SCORE.SYSTEM>
0

>  <SCORE.SYSTEM.CONST>
0

>  <SCORE.SYSTEM.DIHEDRAL>
0

>  <SCORE.SYSTEM.SOLV>
0

>  <SCORE.SYSTEM.norm>
0

>  <SCORE.heavy>
26

>  <SCORE.norm>
-2.43452

>  <RMSD>
0.712

$$$$
1f1t Malachite green aptamer (Xray 2.8A)
 OpenBabel11021811393D
libRbt.so/2013.1/901 2013/11/27
 26 29  0  0  0  0  0  0  0  0999 V2000
  111.1826  -74.5922  -81.9233 C   0  0  0  0  0  0  0  0  0  0  0  0
  111.6999  -75.8659  -82.4013 C   0  0  0  0  0  0  0  0  0  0  0  0
  111.4495  -76.0843  -83.7574 C   0  0  0  0  0  0  0  0  0  0  0  0
  111.9998  -77.3984  -84.1933 O   0  0  0  0  0  0  0  0  0  0  0  0
  111.7757  -77.5847  -85.4355 C   0  0  0  0  0  0  0  0  0  0  0  0
  112.3393  -78.8947  -85.7608 C   0  0  0  0  0  0  0  0  0  0  0  0
  112.1850  -79.2734  -87.1415 C   0  0  0  0  0  0  0  0  0  0  0  0
  111.5533  -78.4390  -88.0967 C   0  0  0  0  0  0  0  0  0  0  0  0
  111.0060  -77.1527  -87.7073 C   0  0  0  0  0  0  0  0  0  0  0  0
  111.1364  -76.7592  -86.3259 C   0  0  0  0  0  0  0  0  0  0  0  0
  110.5264  -75.4154  -86.0031 C   0  0  0  0  0  0  0  0  0  0  0  0
  110.7864  -75.2317  -84.6332 C   0  0  0  0  0  0  0  0  0  0  0  0
  110.2671  -73.9576  -84.1312 C   0  0  0  0  0  0  0  0  0  0  0  0
  110.5126  -73.7075  -82.7457 C   0  0  0  0  0  0  0  0  0  0  0  0
  109.8850  -74.6323  -86.9441 C   0  0  0  0  0  0  0  0  0  0  0  0
  110.2017  -73.2874  -87.2464 C   0  0  0  0  0  0  0  0  0  0  0  0
  109.5767  -72.4877  -88.2049 C   0  0  0  0  0  0  0  0  0  0  0  0
  108.4896  -73.0366  -89.0016 C   0  0  0  0  0  0  0  0  0  0  0  0
  108.1901  -74.3791  -88.6672 C   0  0  0  0  0  0  0  0  0  0  0  0
  108.7863  -75.2156  -87.7135 C   0  0  0  0  0  0  0  0  0  0  0  0
  111.3574  -74.2277  -80.5955 N   0  3  0  0  0  0  0  0  0  0  0  0
  112.0612  -75.0777  -79.6418 C   0  0  0  0  0  0  0  0  0  0  0  0
  110.8832  -72.9780  -79.9611 C   0  0  0  0  0  0  0  0  0  0  0  0
  112.7103  -80.5459  -87.4239 N   0  0  0  0  0  0  0  0  0  0  0  0
  113.3080  -81.5788  -86.5486 C   0  0  0  0  0  0  0  0  0  0  0  0
  112.6704  -81.0056  -88.8571 C   0  0  0  0  0  0  0  0  0  0  0  0
  1  2  1  0  0  0  0
  1 14  1  0  0  0  0
  1 21  2  0  0  0  0
  2  3  2  0  0  0  0
  3  4  1  0  0  0  0
  3 12  1  0  0  0  0
  4  5  1  0  0  0  0
  5  6  1  0  0  0  0
  5 10  2  0  0  0  0
  6  7  2  0  0  0  0
  7  8  1  0  0  0  0
  7 24  1  0  0  0  0
  8  9  2  0  0  0  0
  9 10  1  0  0  0  0
 10 11  1  0  0  0  0
 11 12  2  0  0  0  0
 11 15  1  0  0  0  0
 12 13  1  0  0  0  0
 13 14  2  0  0  0  0
 15 16  2  0  0  0  0
 15 20  1  0  0  0  0
 16 17  1  0  0  0  0
 17 18  2  0  0  0  0
 18 19  1  0  0  0  0
 19 20  2  0  0  0  0
 21 22  1  0  0  0  0
 21 23  1  0  0  0  0
 24 25  1  0  0  0  0
 24 26  1  0  0  0  0
M  CHG  1  21   1
M  END
>  <CHROM.1>
4.27865149,-125.16282799,111.06126503,-76.16096959,-85.37096948,-1.82644396
1.05906901,-2.07354170

>  <Name>
1f1t Malachite green aptamer (Xray 2.8A)

>  <RI>
0

>  <Rbt.Current_Directory>
/home/itssahil/PROJECTS/Mol_Feturizer/New_Systems/rnas/1f1t

>  <Rbt.Executable>
rbdock ($Id: //depot/dev/client3/rdock/2013.1/src/exe/rbdock.cxx#4 $)

>  <Rbt.Library>
libRbt.so (2013.1, Build901 2013/11/27)

>  <Rbt.Parameter_File>
/export/apps/rDock/src/rDock_2013.1_src/data/scripts/dock_solv.prm

>  <Rbt.Receptor>
prm/pocket_docking_3.prm

>  <SCORE>
-63.3109

>  <SCORE.INTER>
-63.4486

>  <SCORE.INTER.CONST>
1

>  <SCORE.INTER.POLAR>
0

>  <SCORE.INTER.ROT>
2

>  <SCORE.INTER.SOLV>
11.2476

>  <SCORE.INTER.VDW>
-50.9816

>  <SCORE.INTER.norm>
-2.44033

>  <SCORE.INTRA>
0.137762

>  <SCORE.INTRA.DIHEDRAL>
-0.936273

>  <SCORE.INTRA.DIHEDRAL.0>
4.18538

>  <SCORE.INTRA.POLAR>
0

>  <SCORE.INTRA.POLAR.0>
0

>  <SCORE.INTRA.REPUL>
0

>  <SCORE.INTRA.REPUL.0>
0

>  <SCORE.INTRA.SOLV>
0.016496

>  <SCORE.INTRA.SOLV.lig_0>
-5.16926

>  <SCORE.INTRA.VDW>
0.597651

>  <SCORE.INTRA.VDW.0>
1.11912

>  <SCORE.INTRA.norm>
0.00529855

>  <SCORE.RESTR>
0

>  <SCORE.RESTR.CAVITY>
0

>  <SCORE.RESTR.norm>
0

>  <SCORE.SYSTEM>
0

>  <SCORE.SYSTEM.CONST>
0

>  <SCORE.SYSTEM.DIHEDRAL>
0

>  <SCORE.SYSTEM.SOLV>
0

>  <SCORE.SYSTEM.norm>
0

>  <SCORE.heavy>
26

>  <SCORE.norm>
-2.43503

>  <RMSD>
0.713

$$$$
1f1t Malachite green aptamer (Xray 2.8A)
 OpenBabel11021811393D
libRbt.so/2013.1/901 2013/11/27
 26 29  0  0  0  0  0  0  0  0999 V2000
  111.1643  -74.5728  -81.9569 C   0  0  0  0  0  0  0  0  0  0  0  0
  111.7013  -75.8435  -82.4207 C   0  0  0  0  0  0  0  0  0  0  0  0
  111.4511  -76.0827  -83.7733 C   0  0  0  0  0  0  0  0  0  0  0  0
  112.0219  -77.3927  -84.1946 O   0  0  0  0  0  0  0  0  0  0  0  0
  111.7978  -77.5980  -85.4338 C   0  0  0  0  0  0  0  0  0  0  0  0
  112.3821  -78.9025  -85.7445 C   0  0  0  0  0  0  0  0  0  0  0  0
  112.2305  -79.3005  -87.1201 C   0  0  0  0  0  0  0  0  0  0  0  0
  111.5827  -78.4886  -88.0837 C   0  0  0  0  0  0  0  0  0  0  0  0
  111.0152  -77.2068  -87.7086 C   0  0  0  0  0  0  0  0  0  0  0  0
  111.1425  -76.7942  -86.3324 C   0  0  0  0  0  0  0  0  0  0  0  0
  110.5112  -75.4568  -86.0245 C   0  0  0  0  0  0  0  0  0  0  0  0
  110.7718  -75.2520  -84.6576 C   0  0  0  0  0  0  0  0  0  0  0  0
  110.2327  -73.9806  -84.1699 C   0  0  0  0  0  0  0  0  0  0  0  0
  110.4776  -73.7094  -82.7882 C   0  0  0  0  0  0  0  0  0  0  0  0
  109.8546  -74.6961  -86.9732 C   0  0  0  0  0  0  0  0  0  0  0  0
  108.7902  -75.1427  -87.7905 C   0  0  0  0  0  0  0  0  0  0  0  0
  108.1045  -74.3838  -88.7406 C   0  0  0  0  0  0  0  0  0  0  0  0
  108.4748  -72.9927  -88.9535 C   0  0  0  0  0  0  0  0  0  0  0  0
  109.5494  -72.5803  -88.1293 C   0  0  0  0  0  0  0  0  0  0  0  0
  110.2669  -73.3064  -87.1688 C   0  0  0  0  0  0  0  0  0  0  0  0
  111.3364  -74.1891  -80.6341 N   0  3  0  0  0  0  0  0  0  0  0  0
  112.0566  -75.0156  -79.6721 C   0  0  0  0  0  0  0  0  0  0  0  0
  110.8433  -72.9397  -80.0138 C   0  0  0  0  0  0  0  0  0  0  0  0
  112.7761  -80.5677  -87.3884 N   0  0  0  0  0  0  0  0  0  0  0  0
  113.3383  -81.6048  -86.4948 C   0  0  0  0  0  0  0  0  0  0  0  0
  112.8061  -81.0150  -88.8257 C   0  0  0  0  0  0  0  0  0  0  0  0
  1  2  1  0  0  0  0
  1 14  1  0  0  0  0
  1 21  2  0  0  0  0
  2  3  2  0  0  0  0
  3  4  1  0  0  0  0
  3 12  1  0  0  0  0
  4  5  1  0  0  0  0
  5  6  1  0  0  0  0
  5 10  2  0  0  0  0
  6  7  2  0  0  0  0
  7  8  1  0  0  0  0
  7 24  1  0  0  0  0
  8  9  2  0  0  0  0
  9 10  1  0  0  0  0
 10 11  1  0  0  0  0
 11 12  2  0  0  0  0
 11 15  1  0  0  0  0
 12 13  1  0  0  0  0
 13 14  2  0  0  0  0
 15 16  2  0  0  0  0
 15 20  1  0  0  0  0
 16 17  1  0  0  0  0
 17 18  2  0  0  0  0
 18 19  1  0  0  0  0
 19 20  2  0  0  0  0
 21 22  1  0  0  0  0
 21 23  1  0  0  0  0
 24 25  1  0  0  0  0
 24 26  1  0  0  0  0
M  CHG  1  21   1
M  END
>  <CHROM.1>
7.42244193,54.13436838,111.06761640,-76.16775545,-85.37565107,-1.85891705
1.04850366,-2.07171257

>  <Name>
1f1t Malachite green aptamer (Xray 2.8A)

>  <RI>
0

>  <Rbt.Current_Directory>
/home/itssahil/PROJECTS/Mol_Feturizer/New_Systems/rnas/1f1t

>  <Rbt.Executable>
rbdock ($Id: //depot/dev/client3/rdock/2013.1/src/exe/rbdock.cxx#4 $)

>  <Rbt.Library>
libRbt.so (2013.1, Build901 2013/11/27)

>  <Rbt.Parameter_File>
/export/apps/rDock/src/rDock_2013.1_src/data/scripts/dock_solv.prm

>  <Rbt.Receptor>
prm/pocket_docking_5.prm

>  <SCORE>
-62.7849

>  <SCORE.INTER>
-62.8456

>  <SCORE.INTER.CONST>
1

>  <SCORE.INTER.POLAR>
0

>  <SCORE.INTER.ROT>
2

>  <SCORE.INTER.SOLV>
11.2325

>  <SCORE.INTER.VDW>
-50.5746

>  <SCORE.INTER.norm>
-2.41714

>  <SCORE.INTRA>
0.0606615

>  <SCORE.INTRA.DIHEDRAL>
-0.853225

>  <SCORE.INTRA.DIHEDRAL.0>
4.18538

>  <SCORE.INTRA.POLAR>
0

>  <SCORE.INTRA.POLAR.0>
0

>  <SCORE.INTRA.REPUL>
0

>  <SCORE.INTRA.REPUL.0>
0

>  <SCORE.INTRA.SOLV>
0.0172662

>  <SCORE.INTRA.SOLV.lig_0>
-5.16926

>  <SCORE.INTRA.VDW>
0.478641

>  <SCORE.INTRA.VDW.0>
1.11912

>  <SCORE.INTRA.norm>
0.00233313

>  <SCORE.RESTR>
0

>  <SCORE.RESTR.CAVITY>
0

>  <SCORE.RESTR.norm>
0

>  <SCORE.SYSTEM>
0

>  <SCORE.SYSTEM.CONST>
0

>  <SCORE.SYSTEM.DIHEDRAL>
0

>  <SCORE.SYSTEM.SOLV>
0

>  <SCORE.SYSTEM.norm>
0

>  <SCORE.heavy>
26

>  <SCORE.norm>
-2.4148

>  <RMSD>
0.713

$$$$
1f1t Malachite green aptamer (Xray 2.8A)
 OpenBabel11021811393D
libRbt.so/2013.1/901 2013/11/27
 26 29  0  0  0  0  0  0  0  0999 V2000
  111.1692  -74.5626  -81.9602 C   0  0  0  0  0  0  0  0  0  0  0  0
  111.6985  -75.8376  -82.4214 C   0  0  0  0  0  0  0  0  0  0  0  0
  111.4433  -76.0798  -83.7726 C   0  0  0  0  0  0  0  0  0  0  0  0
  112.0063  -77.3940  -84.1913 O   0  0  0  0  0  0  0  0  0  0  0  0
  111.7777  -77.6021  -85.4292 C   0  0  0  0  0  0  0  0  0  0  0  0
  112.3546  -78.9105  -85.7374 C   0  0  0  0  0  0  0  0  0  0  0  0
  112.1972  -79.3122  -87.1112 C   0  0  0  0  0  0  0  0  0  0  0  0
  111.5508  -78.5000  -88.0756 C   0  0  0  0  0  0  0  0  0  0  0  0
  110.9908  -77.2142  -87.7031 C   0  0  0  0  0  0  0  0  0  0  0  0
  111.1241  -76.7979  -86.3286 C   0  0  0  0  0  0  0  0  0  0  0  0
  110.5004  -75.4563  -86.0232 C   0  0  0  0  0  0  0  0  0  0  0  0
  110.7657  -75.2485  -84.6577 C   0  0  0  0  0  0  0  0  0  0  0  0
  110.2345  -73.9728  -84.1726 C   0  0  0  0  0  0  0  0  0  0  0  0
  110.4845  -73.6985  -82.7925 C   0  0  0  0  0  0  0  0  0  0  0  0
  109.8450  -74.6953  -86.9726 C   0  0  0  0  0  0  0  0  0  0  0  0
  108.7878  -75.1445  -87.7978 C   0  0  0  0  0  0  0  0  0  0  0  0
  108.1033  -74.3854  -88.7487 C   0  0  0  0  0  0  0  0  0  0  0  0
  108.4671  -72.9914  -88.9537 C   0  0  0  0  0  0  0  0  0  0  0  0
  109.5346  -72.5765  -88.1216 C   0  0  0  0  0  0  0  0  0  0  0  0
  110.2507  -73.3026  -87.1600 C   0  0  0  0  0  0  0  0  0  0  0  0
  111.3469  -74.1757  -80.6392 N   0  3  0  0  0  0  0  0  0  0  0  0
  112.0656  -75.0027  -79.6765 C   0  0  0  0  0  0  0  0  0  0  0  0
  110.8618  -72.9218  -80.0215 C   0  0  0  0  0  0  0  0  0  0  0  0
  112.7356  -80.5829  -87.3769 N   0  0  0  0  0  0  0  0  0  0  0  0
  113.3438  -81.5980  -86.4881 C   0  0  0  0  0  0  0  0  0  0  0  0
  112.7007  -81.0617  -88.8040 C   0  0  0  0  0  0  0  0  0  0  0  0
  1  2  1  0  0  0  0
  1 14  1  0  0  0  0
  1 21  2  0  0  0  0
  2  3  2  0  0  0  0
  3  4  1  0  0  0  0
  3 12  1  0  0  0  0
  4  5  1  0  0  0  0
  5  6  1  0  0  0  0
  5 10  2  0  0  0  0
  6  7  2  0  0  0  0
  7  8  1  0  0  0  0
  7 24  1  0  0  0  0
  8  9  2  0  0  0  0
  9 10  1  0  0  0  0
 10 11  1  0  0  0  0
 11 12  2  0  0  0  0
 11 15  1  0  0  0  0
 12 13  1  0  0  0  0
 13 14  2  0  0  0  0
 15 16  2  0  0  0  0
 15 20  1  0  0  0  0
 16 17  1  0  0  0  0
 17 18  2  0  0  0  0
 18 19  1  0  0  0  0
 19 20  2  0  0  0  0
 21 22  1  0  0  0  0
 21 23  1  0  0  0  0
 24 25  1  0  0  0  0
 24 26  1  0  0  0  0
M  CHG  1  21   1
M  END
>  <CHROM.1>
4.63143413,53.24676887,111.05440099,-76.16821987,-85.37340931,-1.84755531
1.05102888,-2.08511057

>  <Name>
1f1t Malachite green aptamer (Xray 2.8A)

>  <RI>
0

>  <Rbt.Current_Directory>
/home/itssahil/PROJECTS/Mol_Feturizer/New_Systems/rnas/1f1t

>  <Rbt.Executable>
rbdock ($Id: //depot/dev/client3/rdock/2013.1/src/exe/rbdock.cxx#4 $)

>  <Rbt.Library>
libRbt.so (2013.1, Build901 2013/11/27)

>  <Rbt.Parameter_File>
/export/apps/rDock/src/rDock_2013.1_src/data/scripts/dock_solv.prm

>  <Rbt.Receptor>
prm/pocket_docking_3.prm

>  <SCORE>
-62.8594

>  <SCORE.INTER>
-62.9131

>  <SCORE.INTER.CONST>
1

>  <SCORE.INTER.POLAR>
0

>  <SCORE.INTER.ROT>
2

>  <SCORE.INTER.SOLV>
11.261

>  <SCORE.INTER.VDW>
-50.6291

>  <SCORE.INTER.norm>
-2.41974

>  <SCORE.INTRA>
0.0537195

>  <SCORE.INTRA.DIHEDRAL>
-1.05157

>  <SCORE.INTRA.DIHEDRAL.0>
4.18538

>  <SCORE.INTRA.POLAR>
0

>  <SCORE.INTRA.POLAR.0>
0

>  <SCORE.INTRA.REPUL>
0

>  <SCORE.INTRA.REPUL.0>
0

>  <SCORE.INTRA.SOLV>
0.0182831

>  <SCORE.INTRA.SOLV.lig_0>
-5.16926

>  <SCORE.INTRA.VDW>
0.570361

>  <SCORE.INTRA.VDW.0>
1.11912

>  <SCORE.INTRA.norm>
0.00206614

>  <SCORE.RESTR>
0

>  <SCORE.RESTR.CAVITY>
0

>  <SCORE.RESTR.norm>
0

>  <SCORE.SYSTEM>
0

>  <SCORE.SYSTEM.CONST>
0

>  <SCORE.SYSTEM.DIHEDRAL>
0

>  <SCORE.SYSTEM.SOLV>
0

>  <SCORE.SYSTEM.norm>
0

>  <SCORE.heavy>
26

>  <SCORE.norm>
-2.41767

>  <RMSD>
0.716

$$$$
1f1t Malachite green aptamer (Xray 2.8A)
 OpenBabel11021811393D
libRbt.so/2013.1/901 2013/11/27
 26 29  0  0  0  0  0  0  0  0999 V2000
  111.1831  -74.5886  -81.9259 C   0  0  0  0  0  0  0  0  0  0  0  0
  111.6989  -75.8628  -82.4044 C   0  0  0  0  0  0  0  0  0  0  0  0
  111.4478  -76.0806  -83.7604 C   0  0  0  0  0  0  0  0  0  0  0  0
  111.9967  -77.3951  -84.1968 O   0  0  0  0  0  0  0  0  0  0  0  0
  111.7720  -77.5810  -85.4389 C   0  0  0  0  0  0  0  0  0  0  0  0
  112.3341  -78.8915  -85.7647 C   0  0  0  0  0  0  0  0  0  0  0  0
  112.1790  -79.2697  -87.1454 C   0  0  0  0  0  0  0  0  0  0  0  0
  111.5478  -78.4346  -88.1003 C   0  0  0  0  0  0  0  0  0  0  0  0
  111.0019  -77.1478  -87.7104 C   0  0  0  0  0  0  0  0  0  0  0  0
  111.1331  -76.7547  -86.3289 C   0  0  0  0  0  0  0  0  0  0  0  0
  110.5246  -75.4104  -86.0057 C   0  0  0  0  0  0  0  0  0  0  0  0
  110.7853  -75.2272  -84.6358 C   0  0  0  0  0  0  0  0  0  0  0  0
  110.2674  -73.9527  -84.1334 C   0  0  0  0  0  0  0  0  0  0  0  0
  110.5136  -73.7031  -82.7480 C   0  0  0  0  0  0  0  0  0  0  0  0
  109.8837  -74.6265  -86.9463 C   0  0  0  0  0  0  0  0  0  0  0  0
  110.2067  -73.2843  -87.2540 C   0  0  0  0  0  0  0  0  0  0  0  0
  109.5821  -72.4839  -88.2122 C   0  0  0  0  0  0  0  0  0  0  0  0
  108.4885  -73.0290  -89.0027 C   0  0  0  0  0  0  0  0  0  0  0  0
  108.1828  -74.3688  -88.6630 C   0  0  0  0  0  0  0  0  0  0  0  0
  108.7783  -75.2058  -87.7093 C   0  0  0  0  0  0  0  0  0  0  0  0
  111.3586  -74.2246  -80.5981 N   0  3  0  0  0  0  0  0  0  0  0  0
  112.0619  -75.0755  -79.6448 C   0  0  0  0  0  0  0  0  0  0  0  0
  110.8859  -72.9745  -79.9633 C   0  0  0  0  0  0  0  0  0  0  0  0
  112.7030  -80.5428  -87.4283 N   0  0  0  0  0  0  0  0  0  0  0  0
  113.3125  -81.5708  -86.5554 C   0  0  0  0  0  0  0  0  0  0  0  0
  112.6471  -81.0089  -88.8589 C   0  0  0  0  0  0  0  0  0  0  0  0
  1  2  1  0  0  0  0
  1 14  1  0  0  0  0
  1 21  2  0  0  0  0
  2  3  2  0  0  0  0
  3  4  1  0  0  0  0
  3 12  1  0  0  0  0
  4  5  1  0  0  0  0
  5  6  1  0  0  0  0
  5 10  2  0  0  0  0
  6  7  2  0  0  0  0
  7  8  1  0  0  0  0
  7 24  1  0  0  0  0
  8  9  2  0  0  0  0
  9 10  1  0  0  0  0
 10 11  1  0  0  0  0
 11 12  2  0  0  0  0
 11 15  1  0  0  0  0
 12 13  1  0  0  0  0
 13 14  2  0  0  0  0
 15 16  2  0  0  0  0
 15 20  1  0  0  0  0
 16 17  1  0  0  0  0
 17 18  2  0  0  0  0
 18 19  1  0  0  0  0
 19 20  2  0  0  0  0
 21 22  1  0  0  0  0
 21 23  1  0  0  0  0
 24 25  1  0  0  0  0
 24 26  1  0  0  0  0
M  CHG  1  21   1
M  END
>  <CHROM.1>
3.56402893,-124.76811185,111.05878080,-76.15663830,-85.37381827,-1.82453227
1.05957264,-2.07505227

>  <Name>
1f1t Malachite green aptamer (Xray 2.8A)

>  <RI>
0

>  <Rbt.Current_Directory>
/home/itssahil/PROJECTS/Mol_Feturizer/New_Systems/rnas/1f1t

>  <Rbt.Executable>
rbdock ($Id: //depot/dev/client3/rdock/2013.1/src/exe/rbdock.cxx#4 $)

>  <Rbt.Library>
libRbt.so (2013.1, Build901 2013/11/27)

>  <Rbt.Parameter_File>
/export/apps/rDock/src/rDock_2013.1_src/data/scripts/dock_solv.prm

>  <Rbt.Receptor>
prm/pocket_docking_8.prm

>  <SCORE>
-63.29

>  <SCORE.INTER>
-63.4125

>  <SCORE.INTER.CONST>
1

>  <SCORE.INTER.POLAR>
0

>  <SCORE.INTER.ROT>
2

>  <SCORE.INTER.SOLV>
11.2674

>  <SCORE.INTER.VDW>
-50.9641

>  <SCORE.INTER.norm>
-2.43894

>  <SCORE.INTRA>
0.122486

>  <SCORE.INTRA.DIHEDRAL>
-0.926083

>  <SCORE.INTRA.DIHEDRAL.0>
4.18538

>  <SCORE.INTRA.POLAR>
0

>  <SCORE.INTRA.POLAR.0>
0

>  <SCORE.INTRA.REPUL>
0

>  <SCORE.INTRA.REPUL.0>
0

>  <SCORE.INTRA.SOLV>
0.0160403

>  <SCORE.INTRA.SOLV.lig_0>
-5.16926

>  <SCORE.INTRA.VDW>
0.577507

>  <SCORE.INTRA.VDW.0>
1.11912

>  <SCORE.INTRA.norm>
0.004711

>  <SCORE.RESTR>
0

>  <SCORE.RESTR.CAVITY>
0

>  <SCORE.RESTR.norm>
0

>  <SCORE.SYSTEM>
0

>  <SCORE.SYSTEM.CONST>
0

>  <SCORE.SYSTEM.DIHEDRAL>
0

>  <SCORE.SYSTEM.SOLV>
0

>  <SCORE.SYSTEM.norm>
0

>  <SCORE.heavy>
26

>  <SCORE.norm>
-2.43423

>  <RMSD>
0.717

$$$$
1f1t Malachite green aptamer (Xray 2.8A)
 OpenBabel11021811393D
libRbt.so/2013.1/901 2013/11/27
 26 29  0  0  0  0  0  0  0  0999 V2000
  111.1252  -74.6049  -81.9821 C   0  0  0  0  0  0  0  0  0  0  0  0
  111.6651  -75.8733  -82.4490 C   0  0  0  0  0  0  0  0  0  0  0  0
  111.4159  -76.1095  -83.8023 C   0  0  0  0  0  0  0  0  0  0  0  0
  111.9898  -77.4171  -84.2269 O   0  0  0  0  0  0  0  0  0  0  0  0
  111.7666  -77.6196  -85.4667 C   0  0  0  0  0  0  0  0  0  0  0  0
  112.3538  -78.9220  -85.7806 C   0  0  0  0  0  0  0  0  0  0  0  0
  112.2036  -79.3168  -87.1573 C   0  0  0  0  0  0  0  0  0  0  0  0
  111.5544  -78.5038  -88.1190 C   0  0  0  0  0  0  0  0  0  0  0  0
  110.9839  -77.2242  -87.7408 C   0  0  0  0  0  0  0  0  0  0  0  0
  111.1099  -76.8149  -86.3635 C   0  0  0  0  0  0  0  0  0  0  0  0
  110.4755  -75.4797  -86.0523 C   0  0  0  0  0  0  0  0  0  0  0  0
  110.7351  -75.2780  -84.6847 C   0  0  0  0  0  0  0  0  0  0  0  0
  110.1931  -74.0090  -84.1939 C   0  0  0  0  0  0  0  0  0  0  0  0
  110.4369  -73.7409  -82.8115 C   0  0  0  0  0  0  0  0  0  0  0  0
  109.8176  -74.7180  -86.9993 C   0  0  0  0  0  0  0  0  0  0  0  0
  108.7607  -75.1676  -87.8246 C   0  0  0  0  0  0  0  0  0  0  0  0
  108.0737  -74.4079  -88.7732 C   0  0  0  0  0  0  0  0  0  0  0  0
  108.4341  -73.0125  -88.9752 C   0  0  0  0  0  0  0  0  0  0  0  0
  109.5014  -72.5972  -88.1431 C   0  0  0  0  0  0  0  0  0  0  0  0
  110.2199  -73.3239  -87.1837 C   0  0  0  0  0  0  0  0  0  0  0  0
  111.2959  -74.2243  -80.6583 N   0  3  0  0  0  0  0  0  0  0  0  0
  112.0176  -75.0518  -79.6981 C   0  0  0  0  0  0  0  0  0  0  0  0
  110.7998  -72.9777  -80.0349 C   0  0  0  0  0  0  0  0  0  0  0  0
  112.7521  -80.5820  -87.4286 N   0  0  0  0  0  0  0  0  0  0  0  0
  113.3190  -81.6190  -86.5378 C   0  0  0  0  0  0  0  0  0  0  0  0
  112.7803  -81.0271  -88.8667 C   0  0  0  0  0  0  0  0  0  0  0  0
  1  2  1  0  0  0  0
  1 14  1  0  0  0  0
  1 21  2  0  0  0  0
  2  3  2  0  0  0  0
  3  4  1  0  0  0  0
  3 12  1  0  0  0  0
  4  5  1  0  0  0  0
  5  6  1  0  0  0  0
  5 10  2  0  0  0  0
  6  7  2  0  0  0  0
  7  8  1  0  0  0  0
  7 24  1  0  0  0  0
  8  9  2  0  0  0  0
  9 10  1  0  0  0  0
 10 11  1  0  0  0  0
 11 12  2  0  0  0  0
 11 15  1  0  0  0  0
 12 13  1  0  0  0  0
 13 14  2  0  0  0  0
 15 16  2  0  0  0  0
 15 20  1  0  0  0  0
 16 17  1  0  0  0  0
 17 18  2  0  0  0  0
 18 19  1  0  0  0  0
 19 20  2  0  0  0  0
 21 22  1  0  0  0  0
 21 23  1  0  0  0  0
 24 25  1  0  0  0  0
 24 26  1  0  0  0  0
M  CHG  1  21   1
M  END
>  <CHROM.1>
7.26472245,53.66243345,111.03313994,-76.19119039,-85.40502167,-1.86154390
1.04669692,-2.06691505

>  <Name>
1f1t Malachite green aptamer (Xray 2.8A)

>  <RI>
0

>  <Rbt.Current_Directory>
/home/itssahil/PROJECTS/Mol_Feturizer/New_Systems/rnas/1f1t

>  <Rbt.Executable>
rbdock ($Id: //depot/dev/client3/rdock/2013.1/src/exe/rbdock.cxx#4 $)

>  <Rbt.Library>
libRbt.so (2013.1, Build901 2013/11/27)

>  <Rbt.Parameter_File>
/export/apps/rDock/src/rDock_2013.1_src/data/scripts/dock_solv.prm

>  <Rbt.Receptor>
prm/pocket_docking_5.prm

>  <SCORE>
-62.7632

>  <SCORE.INTER>
-62.8306

>  <SCORE.INTER.CONST>
1

>  <SCORE.INTER.POLAR>
0

>  <SCORE.INTER.ROT>
2

>  <SCORE.INTER.SOLV>
11.1852

>  <SCORE.INTER.VDW>
-50.5488

>  <SCORE.INTER.norm>
-2.41656

>  <SCORE.INTRA>
0.0673539

>  <SCORE.INTRA.DIHEDRAL>
-0.899771

>  <SCORE.INTRA.DIHEDRAL.0>
4.18538

>  <SCORE.INTRA.POLAR>
0

>  <SCORE.INTRA.POLAR.0>
0

>  <SCORE.INTRA.REPUL>
0

>  <SCORE.INTRA.REPUL.0>
0

>  <SCORE.INTRA.SOLV>
0.017803

>  <SCORE.INTRA.SOLV.lig_0>
-5.16926

>  <SCORE.INTRA.VDW>
0.508338

>  <SCORE.INTRA.VDW.0>
1.11912

>  <SCORE.INTRA.norm>
0.00259053

>  <SCORE.RESTR>
0

>  <SCORE.RESTR.CAVITY>
0

>  <SCORE.RESTR.norm>
0

>  <SCORE.SYSTEM>
0

>  <SCORE.SYSTEM.CONST>
0

>  <SCORE.SYSTEM.DIHEDRAL>
0

>  <SCORE.SYSTEM.SOLV>
0

>  <SCORE.SYSTEM.norm>
0

>  <SCORE.heavy>
26

>  <SCORE.norm>
-2.41397

>  <RMSD>
0.723

$$$$
1f1t Malachite green aptamer (Xray 2.8A)
 OpenBabel11021811393D
libRbt.so/2013.1/901 2013/11/27
 26 29  0  0  0  0  0  0  0  0999 V2000
  111.1577  -74.6857  -82.0683 C   0  0  0  0  0  0  0  0  0  0  0  0
  111.7041  -75.9508  -82.5367 C   0  0  0  0  0  0  0  0  0  0  0  0
  111.4377  -76.1965  -83.8850 C   0  0  0  0  0  0  0  0  0  0  0  0
  112.0190  -77.5003  -84.3113 O   0  0  0  0  0  0  0  0  0  0  0  0
  111.7798  -77.7115  -85.5467 C   0  0  0  0  0  0  0  0  0  0  0  0
  112.3762  -79.0093  -85.8627 C   0  0  0  0  0  0  0  0  0  0  0  0
  112.2100  -79.4128  -87.2350 C   0  0  0  0  0  0  0  0  0  0  0  0
  111.5382  -78.6115  -88.1912 C   0  0  0  0  0  0  0  0  0  0  0  0
  110.9599  -77.3361  -87.8110 C   0  0  0  0  0  0  0  0  0  0  0  0
  111.1017  -76.9184  -86.4378 C   0  0  0  0  0  0  0  0  0  0  0  0
  110.4579  -75.5883  -86.1240 C   0  0  0  0  0  0  0  0  0  0  0  0
  110.7353  -75.3768  -84.7615 C   0  0  0  0  0  0  0  0  0  0  0  0
  110.1872  -74.1111  -84.2691 C   0  0  0  0  0  0  0  0  0  0  0  0
  110.4483  -73.8333  -82.8918 C   0  0  0  0  0  0  0  0  0  0  0  0
  109.7782  -74.8384  -87.0651 C   0  0  0  0  0  0  0  0  0  0  0  0
  108.7709  -75.3248  -87.9306 C   0  0  0  0  0  0  0  0  0  0  0  0
  108.0623  -74.5785  -88.8740 C   0  0  0  0  0  0  0  0  0  0  0  0
  108.3423  -73.1585  -89.0255 C   0  0  0  0  0  0  0  0  0  0  0  0
  109.3618  -72.7060  -88.1538 C   0  0  0  0  0  0  0  0  0  0  0  0
  110.0996  -73.4177  -87.1979 C   0  0  0  0  0  0  0  0  0  0  0  0
  111.3438  -74.2965  -80.7490 N   0  3  0  0  0  0  0  0  0  0  0  0
  112.0881  -75.1114  -79.7954 C   0  0  0  0  0  0  0  0  0  0  0  0
  110.8437  -73.0519  -80.1246 C   0  0  0  0  0  0  0  0  0  0  0  0
  112.7678  -80.6735  -87.5080 N   0  0  0  0  0  0  0  0  0  0  0  0
  113.3181  -81.7187  -86.6164 C   0  0  0  0  0  0  0  0  0  0  0  0
  112.8285  -81.1029  -88.9499 C   0  0  0  0  0  0  0  0  0  0  0  0
  1  2  1  0  0  0  0
  1 14  1  0  0  0  0
  1 21  2  0  0  0  0
  2  3  2  0  0  0  0
  3  4  1  0  0  0  0
  3 12  1  0  0  0  0
  4  5  1  0  0  0  0
  5  6  1  0  0  0  0
  5 10  2  0  0  0  0
  6  7  2  0  0  0  0
  7  8  1  0  0  0  0
  7 24  1  0  0  0  0
  8  9  2  0  0  0  0
  9 10  1  0  0  0  0
 10 11  1  0  0  0  0
 11 12  2  0  0  0  0
 11 15  1  0  0  0  0
 12 13  1  0  0  0  0
 13 14  2  0  0  0  0
 15 16  2  0  0  0  0
 15 20  1  0  0  0  0
 16 17  1  0  0  0  0
 17 18  2  0  0  0  0
 18 19  1  0  0  0  0
 19 20  2  0  0  0  0
 21 22  1  0  0  0  0
 21 23  1  0  0  0  0
 24 25  1  0  0  0  0
 24 26  1  0  0  0  0
M  CHG  1  21   1
M  END
>  <CHROM.1>
9.58555313,49.48436314,111.03211146,-76.29038153,-85.48109096,-1.84741753
1.03051460,-2.08468102

>  <Name>
1f1t Malachite green aptamer (Xray 2.8A)

>  <RI>
0

>  <Rbt.Current_Directory>
/home/itssahil/PROJECTS/Mol_Feturizer/New_Systems/rnas/1f1t

>  <Rbt.Executable>
rbdock ($Id: //depot/dev/client3/rdock/2013.1/src/exe/rbdock.cxx#4 $)

>  <Rbt.Library>
libRbt.so (2013.1, Build901 2013/11/27)

>  <Rbt.Parameter_File>
/export/apps/rDock/src/rDock_2013.1_src/data/scripts/dock_solv.prm

>  <Rbt.Receptor>
prm/pocket_docking_8.prm

>  <SCORE>
-62.6324

>  <SCORE.INTER>
-62.8146

>  <SCORE.INTER.CONST>
1

>  <SCORE.INTER.POLAR>
0

>  <SCORE.INTER.ROT>
2

>  <SCORE.INTER.SOLV>
11.0064

>  <SCORE.INTER.VDW>
-50.4785

>  <SCORE.INTER.norm>
-2.41594

>  <SCORE.INTRA>
0.182138

>  <SCORE.INTRA.DIHEDRAL>
-1.09344

>  <SCORE.INTRA.DIHEDRAL.0>
4.18538

>  <SCORE.INTRA.POLAR>
0

>  <SCORE.INTRA.POLAR.0>
0

>  <SCORE.INTRA.REPUL>
0

>  <SCORE.INTRA.REPUL.0>
0

>  <SCORE.INTRA.SOLV>
0.0224317

>  <SCORE.INTRA.SOLV.lig_0>
-5.16926

>  <SCORE.INTRA.VDW>
0.717643

>  <SCORE.INTRA.VDW.0>
1.11912

>  <SCORE.INTRA.norm>
0.00700529

>  <SCORE.RESTR>
0

>  <SCORE.RESTR.CAVITY>
0

>  <SCORE.RESTR.norm>
0

>  <SCORE.SYSTEM>
0

>  <SCORE.SYSTEM.CONST>
0

>  <SCORE.SYSTEM.DIHEDRAL>
0

>  <SCORE.SYSTEM.SOLV>
0

>  <SCORE.SYSTEM.norm>
0

>  <SCORE.heavy>
26

>  <SCORE.norm>
-2.40894

>  <RMSD>
0.729

$$$$
1f1t Malachite green aptamer (Xray 2.8A)
 OpenBabel11021811393D
libRbt.so/2013.1/901 2013/11/27
 26 29  0  0  0  0  0  0  0  0999 V2000
  111.1274  -74.5256  -81.9840 C   0  0  0  0  0  0  0  0  0  0  0  0
  111.6745  -75.7940  -82.4425 C   0  0  0  0  0  0  0  0  0  0  0  0
  111.4247  -76.0416  -83.7937 C   0  0  0  0  0  0  0  0  0  0  0  0
  112.0060  -77.3487  -84.2096 O   0  0  0  0  0  0  0  0  0  0  0  0
  111.7821  -77.5616  -85.4476 C   0  0  0  0  0  0  0  0  0  0  0  0
  112.3770  -78.8626  -85.7530 C   0  0  0  0  0  0  0  0  0  0  0  0
  112.2272  -79.2683  -87.1265 C   0  0  0  0  0  0  0  0  0  0  0  0
  111.5714  -78.4663  -88.0931 C   0  0  0  0  0  0  0  0  0  0  0  0
  110.9936  -77.1876  -87.7232 C   0  0  0  0  0  0  0  0  0  0  0  0
  111.1191  -76.7675  -86.3492 C   0  0  0  0  0  0  0  0  0  0  0  0
  110.4770  -75.4341  -86.0467 C   0  0  0  0  0  0  0  0  0  0  0  0
  110.7374  -75.2208  -84.6811 C   0  0  0  0  0  0  0  0  0  0  0  0
  110.1883  -73.9516  -84.1986 C   0  0  0  0  0  0  0  0  0  0  0  0
  110.4325  -73.6720  -82.8186 C   0  0  0  0  0  0  0  0  0  0  0  0
  109.8129  -74.6833  -86.9982 C   0  0  0  0  0  0  0  0  0  0  0  0
  108.7708  -75.1510  -87.8323 C   0  0  0  0  0  0  0  0  0  0  0  0
  108.0777  -74.4028  -88.7855 C   0  0  0  0  0  0  0  0  0  0  0  0
  108.4145  -73.0010  -88.9835 C   0  0  0  0  0  0  0  0  0  0  0  0
  109.4675  -72.5673  -88.1425 C   0  0  0  0  0  0  0  0  0  0  0  0
  110.1915  -73.2820  -87.1782 C   0  0  0  0  0  0  0  0  0  0  0  0
  111.2978  -74.1344  -80.6633 N   0  3  0  0  0  0  0  0  0  0  0  0
  112.0261  -74.9503  -79.6982 C   0  0  0  0  0  0  0  0  0  0  0  0
  110.7949  -72.8863  -80.0481 C   0  0  0  0  0  0  0  0  0  0  0  0
  112.7830  -80.5321  -87.3895 N   0  0  0  0  0  0  0  0  0  0  0  0
  113.3410  -81.5667  -86.4903 C   0  0  0  0  0  0  0  0  0  0  0  0
  112.8320  -80.9780  -88.8268 C   0  0  0  0  0  0  0  0  0  0  0  0
  1  2  1  0  0  0  0
  1 14  1  0  0  0  0
  1 21  2  0  0  0  0
  2  3  2  0  0  0  0
  3  4  1  0  0  0  0
  3 12  1  0  0  0  0
  4  5  1  0  0  0  0
  5  6  1  0  0  0  0
  5 10  2  0  0  0  0
  6  7  2  0  0  0  0
  7  8  1  0  0  0  0
  7 24  1  0  0  0  0
  8  9  2  0  0  0  0
  9 10  1  0  0  0  0
 10 11  1  0  0  0  0
 11 12  2  0  0  0  0
 11 15  1  0  0  0  0
 12 13  1  0  0  0  0
 13 14  2  0  0  0  0
 15 16  2  0  0  0  0
 15 20  1  0  0  0  0
 16 17  1  0  0  0  0
 17 18  2  0  0  0  0
 18 19  1  0  0  0  0
 19 20  2  0  0  0  0
 21 22  1  0  0  0  0
 21 23  1  0  0  0  0
 24 25  1  0  0  0  0
 24 26  1  0  0  0  0
M  CHG  1  21   1
M  END
>  <CHROM.1>
8.22139343,52.67458461,111.03998073,-76.13724139,-85.39508264,-1.86518860
1.04062773,-2.07114416

>  <Name>
1f1t Malachite green aptamer (Xray 2.8A)

>  <RI>
0

>  <Rbt.Current_Directory>
/home/itssahil/PROJECTS/Mol_Feturizer/New_Systems/rnas/1f1t

>  <Rbt.Executable>
rbdock ($Id: //depot/dev/client3/rdock/2013.1/src/exe/rbdock.cxx#4 $)

>  <Rbt.Library>
libRbt.so (2013.1, Build901 2013/11/27)

>  <Rbt.Parameter_File>
/export/apps/rDock/src/rDock_2013.1_src/data/scripts/dock_solv.prm

>  <Rbt.Receptor>
prm/pocket_docking_2.prm

>  <SCORE>
-62.6924

>  <SCORE.INTER>
-62.7897

>  <SCORE.INTER.CONST>
1

>  <SCORE.INTER.POLAR>
0

>  <SCORE.INTER.ROT>
2

>  <SCORE.INTER.SOLV>
11.2815

>  <SCORE.INTER.VDW>
-50.5536

>  <SCORE.INTER.norm>
-2.41499

>  <SCORE.INTRA>
0.0972697

>  <SCORE.INTRA.DIHEDRAL>
-0.923414

>  <SCORE.INTRA.DIHEDRAL.0>
4.18538

>  <SCORE.INTRA.POLAR>
0

>  <SCORE.INTRA.POLAR.0>
0

>  <SCORE.INTRA.REPUL>
0

>  <SCORE.INTRA.REPUL.0>
0

>  <SCORE.INTRA.SOLV>
0.0189087

>  <SCORE.INTRA.SOLV.lig_0>
-5.16926

>  <SCORE.INTRA.VDW>
0.549522

>  <SCORE.INTRA.VDW.0>
1.11912

>  <SCORE.INTRA.norm>
0.00374114

>  <SCORE.RESTR>
0

>  <SCORE.RESTR.CAVITY>
0

>  <SCORE.RESTR.norm>
0

>  <SCORE.SYSTEM>
0

>  <SCORE.SYSTEM.CONST>
0

>  <SCORE.SYSTEM.DIHEDRAL>
0

>  <SCORE.SYSTEM.SOLV>
0

>  <SCORE.SYSTEM.norm>
0

>  <SCORE.heavy>
26

>  <SCORE.norm>
-2.41125

>  <RMSD>
0.747

$$$$
1f1t Malachite green aptamer (Xray 2.8A)
 OpenBabel11021811393D
libRbt.so/2013.1/901 2013/11/27
 26 29  0  0  0  0  0  0  0  0999 V2000
  111.1543  -74.5339  -81.9633 C   0  0  0  0  0  0  0  0  0  0  0  0
  111.6834  -75.8053  -82.4344 C   0  0  0  0  0  0  0  0  0  0  0  0
  111.4326  -76.0347  -83.7886 C   0  0  0  0  0  0  0  0  0  0  0  0
  111.9953  -77.3459  -84.2174 O   0  0  0  0  0  0  0  0  0  0  0  0
  111.7707  -77.5422  -85.4580 C   0  0  0  0  0  0  0  0  0  0  0  0
  112.3468  -78.8485  -85.7762 C   0  0  0  0  0  0  0  0  0  0  0  0
  112.1936  -79.2373  -87.1542 C   0  0  0  0  0  0  0  0  0  0  0  0
  111.5516  -78.4154  -88.1134 C   0  0  0  0  0  0  0  0  0  0  0  0
  110.9921  -77.1323  -87.7309 C   0  0  0  0  0  0  0  0  0  0  0  0
  111.1212  -76.7288  -86.3522 C   0  0  0  0  0  0  0  0  0  0  0  0
  110.4983  -75.3892  -86.0366 C   0  0  0  0  0  0  0  0  0  0  0  0
  110.7593  -75.1944  -84.6683 C   0  0  0  0  0  0  0  0  0  0  0  0
  110.2281  -73.9225  -84.1733 C   0  0  0  0  0  0  0  0  0  0  0  0
  110.4738  -73.6612  -82.7899 C   0  0  0  0  0  0  0  0  0  0  0  0
  109.8473  -74.6186  -86.9812 C   0  0  0  0  0  0  0  0  0  0  0  0
  110.1524  -73.2737  -87.2953 C   0  0  0  0  0  0  0  0  0  0  0  0
  109.5174  -72.4864  -88.2575 C   0  0  0  0  0  0  0  0  0  0  0  0
  108.4314  -73.0499  -89.0455 C   0  0  0  0  0  0  0  0  0  0  0  0
  108.1436  -74.3920  -88.6994 C   0  0  0  0  0  0  0  0  0  0  0  0
  108.7500  -75.2163  -87.7415 C   0  0  0  0  0  0  0  0  0  0  0  0
  111.3280  -74.1594  -80.6382 N   0  3  0  0  0  0  0  0  0  0  0  0
  112.0422  -74.9963  -79.6806 C   0  0  0  0  0  0  0  0  0  0  0  0
  110.8425  -72.9106  -80.0106 C   0  0  0  0  0  0  0  0  0  0  0  0
  112.7311  -80.5063  -87.4298 N   0  0  0  0  0  0  0  0  0  0  0  0
  112.9102  -81.2428  -88.7009 C   0  0  0  0  0  0  0  0  0  0  0  0
  113.2518  -81.3026  -86.2629 C   0  0  0  0  0  0  0  0  0  0  0  0
  1  2  1  0  0  0  0
  1 14  1  0  0  0  0
  1 21  2  0  0  0  0
  2  3  2  0  0  0  0
  3  4  1  0  0  0  0
  3 12  1  0  0  0  0
  4  5  1  0  0  0  0
  5  6  1  0  0  0  0
  5 10  2  0  0  0  0
  6  7  2  0  0  0  0
  7  8  1  0  0  0  0
  7 24  1  0  0  0  0
  8  9  2  0  0  0  0
  9 10  1  0  0  0  0
 10 11  1  0  0  0  0
 11 12  2  0  0  0  0
 11 15  1  0  0  0  0
 12 13  1  0  0  0  0
 13 14  2  0  0  0  0
 15 16  2  0  0  0  0
 15 20  1  0  0  0  0
 16 17  1  0  0  0  0
 17 18  2  0  0  0  0
 18 19  1  0  0  0  0
 19 20  2  0  0  0  0
 21 22  1  0  0  0  0
 21 23  1  0  0  0  0
 24 25  1  0  0  0  0
 24 26  1  0  0  0  0
M  CHG  1  21   1
M  END
>  <CHROM.1>
-173.59304667,-124.96136758,111.04755144,-76.12725796,-85.38136042,-1.84547714
1.04958335,-2.07373262

>  <Name>
1f1t Malachite green aptamer (Xray 2.8A)

>  <RI>
0

>  <Rbt.Current_Directory>
/home/itssahil/PROJECTS/Mol_Feturizer/New_Systems/rnas/1f1t

>  <Rbt.Executable>
rbdock ($Id: //depot/dev/client3/rdock/2013.1/src/exe/rbdock.cxx#4 $)

>  <Rbt.Library>
libRbt.so (2013.1, Build901 2013/11/27)

>  <Rbt.Parameter_File>
/export/apps/rDock/src/rDock_2013.1_src/data/scripts/dock_solv.prm

>  <Rbt.Receptor>
prm/pocket_docking_6.prm

>  <SCORE>
-59.7107

>  <SCORE.INTER>
-63.1806

>  <SCORE.INTER.CONST>
1

>  <SCORE.INTER.POLAR>
0

>  <SCORE.INTER.ROT>
2

>  <SCORE.INTER.SOLV>
11.3017

>  <SCORE.INTER.VDW>
-50.821

>  <SCORE.INTER.norm>
-2.43002

>  <SCORE.INTRA>
3.46982

>  <SCORE.INTRA.DIHEDRAL>
-0.834516

>  <SCORE.INTRA.DIHEDRAL.0>
4.18538

>  <SCORE.INTRA.POLAR>
0

>  <SCORE.INTRA.POLAR.0>
0

>  <SCORE.INTRA.REPUL>
0

>  <SCORE.INTRA.REPUL.0>
0

>  <SCORE.INTRA.SOLV>
0.0144676

>  <SCORE.INTRA.SOLV.lig_0>
-5.16926

>  <SCORE.INTRA.VDW>
3.87985

>  <SCORE.INTRA.VDW.0>
1.11912

>  <SCORE.INTRA.norm>
0.133455

>  <SCORE.RESTR>
0

>  <SCORE.RESTR.CAVITY>
0

>  <SCORE.RESTR.norm>
0

>  <SCORE.SYSTEM>
0

>  <SCORE.SYSTEM.CONST>
0

>  <SCORE.SYSTEM.DIHEDRAL>
0

>  <SCORE.SYSTEM.SOLV>
0

>  <SCORE.SYSTEM.norm>
0

>  <SCORE.heavy>
26

>  <SCORE.norm>
-2.29657

>  <RMSD>
0.750

$$$$
1f1t Malachite green aptamer (Xray 2.8A)
 OpenBabel11021811393D
libRbt.so/2013.1/901 2013/11/27
 26 29  0  0  0  0  0  0  0  0999 V2000
  111.2008  -74.5589  -81.9734 C   0  0  0  0  0  0  0  0  0  0  0  0
  111.7231  -75.8298  -82.4536 C   0  0  0  0  0  0  0  0  0  0  0  0
  111.4617  -76.0529  -83.8068 C   0  0  0  0  0  0  0  0  0  0  0  0
  112.0178  -77.3638  -84.2452 O   0  0  0  0  0  0  0  0  0  0  0  0
  111.7836  -77.5544  -85.4848 C   0  0  0  0  0  0  0  0  0  0  0  0
  112.3539  -78.8609  -85.8126 C   0  0  0  0  0  0  0  0  0  0  0  0
  112.1896  -79.2436  -87.1911 C   0  0  0  0  0  0  0  0  0  0  0  0
  111.5429  -78.4161  -88.1421 C   0  0  0  0  0  0  0  0  0  0  0  0
  110.9896  -77.1331  -87.7503 C   0  0  0  0  0  0  0  0  0  0  0  0
  111.1298  -76.7356  -86.3709 C   0  0  0  0  0  0  0  0  0  0  0  0
  110.5128  -75.3957  -86.0453 C   0  0  0  0  0  0  0  0  0  0  0  0
  110.7842  -75.2072  -84.6782 C   0  0  0  0  0  0  0  0  0  0  0  0
  110.2601  -73.9360  -84.1741 C   0  0  0  0  0  0  0  0  0  0  0  0
  110.5165  -73.6810  -82.7914 C   0  0  0  0  0  0  0  0  0  0  0  0
  109.8569  -74.6195  -86.9819 C   0  0  0  0  0  0  0  0  0  0  0  0
  110.1582  -73.2718  -87.2873 C   0  0  0  0  0  0  0  0  0  0  0  0
  109.5183  -72.4788  -88.2415 C   0  0  0  0  0  0  0  0  0  0  0  0
  108.4307  -73.0386  -89.0298 C   0  0  0  0  0  0  0  0  0  0  0  0
  108.1468  -74.3838  -88.6925 C   0  0  0  0  0  0  0  0  0  0  0  0
  108.7581  -75.2139  -87.7427 C   0  0  0  0  0  0  0  0  0  0  0  0
  111.3851  -74.1903  -80.6481 N   0  3  0  0  0  0  0  0  0  0  0  0
  112.1041  -75.0330  -79.6992 C   0  0  0  0  0  0  0  0  0  0  0  0
  110.9075  -72.9428  -80.0119 C   0  0  0  0  0  0  0  0  0  0  0  0
  112.7218  -80.5128  -87.4757 N   0  0  0  0  0  0  0  0  0  0  0  0
  113.2714  -81.5680  -86.5955 C   0  0  0  0  0  0  0  0  0  0  0  0
  112.7492  -80.9410  -88.9190 C   0  0  0  0  0  0  0  0  0  0  0  0
  1  2  1  0  0  0  0
  1 14  1  0  0  0  0
  1 21  2  0  0  0  0
  2  3  2  0  0  0  0
  3  4  1  0  0  0  0
  3 12  1  0  0  0  0
  4  5  1  0  0  0  0
  5  6  1  0  0  0  0
  5 10  2  0  0  0  0
  6  7  2  0  0  0  0
  7  8  1  0  0  0  0
  7 24  1  0  0  0  0
  8  9  2  0  0  0  0
  9 10  1  0  0  0  0
 10 11  1  0  0  0  0
 11 12  2  0  0  0  0
 11 15  1  0  0  0  0
 12 13  1  0  0  0  0
 13 14  2  0  0  0  0
 15 16  2  0  0  0  0
 15 20  1  0  0  0  0
 16 17  1  0  0  0  0
 17 18  2  0  0  0  0
 18 19  1  0  0  0  0
 19 20  2  0  0  0  0
 21 22  1  0  0  0  0
 21 23  1  0  0  0  0
 24 25  1  0  0  0  0
 24 26  1  0  0  0  0
M  CHG  1  21   1
M  END
>  <CHROM.1>
7.93444994,-125.35126086,111.05973120,-76.13567144,-85.41674659,-1.81930115
1.04867902,-2.08162983

>  <Name>
1f1t Malachite green aptamer (Xray 2.8A)

>  <RI>
0

>  <Rbt.Current_Directory>
/home/itssahil/PROJECTS/Mol_Feturizer/New_Systems/rnas/1f1t

>  <Rbt.Executable>
rbdock ($Id: //depot/dev/client3/rdock/2013.1/src/exe/rbdock.cxx#4 $)

>  <Rbt.Library>
libRbt.so (2013.1, Build901 2013/11/27)

>  <Rbt.Parameter_File>
/export/apps/rDock/src/rDock_2013.1_src/data/scripts/dock_solv.prm

>  <Rbt.Receptor>
prm/pocket_docking_4.prm

>  <SCORE>
-63.1757

>  <SCORE.INTER>
-63.3498

>  <SCORE.INTER.CONST>
1

>  <SCORE.INTER.POLAR>
0

>  <SCORE.INTER.ROT>
2

>  <SCORE.INTER.SOLV>
11.3002

>  <SCORE.INTER.VDW>
-50.9333

>  <SCORE.INTER.norm>
-2.43653

>  <SCORE.INTRA>
0.174182

>  <SCORE.INTRA.DIHEDRAL>
-0.782528

>  <SCORE.INTRA.DIHEDRAL.0>
4.18538

>  <SCORE.INTRA.POLAR>
0

>  <SCORE.INTRA.POLAR.0>
0

>  <SCORE.INTRA.REPUL>
0

>  <SCORE.INTRA.REPUL.0>
0

>  <SCORE.INTRA.SOLV>
0.0166973

>  <SCORE.INTRA.SOLV.lig_0>
-5.16926

>  <SCORE.INTRA.VDW>
0.557097

>  <SCORE.INTRA.VDW.0>
1.11912

>  <SCORE.INTRA.norm>
0.00669932

>  <SCORE.RESTR>
0

>  <SCORE.RESTR.CAVITY>
0

>  <SCORE.RESTR.norm>
0

>  <SCORE.SYSTEM>
0

>  <SCORE.SYSTEM.CONST>
0

>  <SCORE.SYSTEM.DIHEDRAL>
0

>  <SCORE.SYSTEM.SOLV>
0

>  <SCORE.SYSTEM.norm>
0

>  <SCORE.heavy>
26

>  <SCORE.norm>
-2.42983

>  <RMSD>
0.754

$$$$
1f1t Malachite green aptamer (Xray 2.8A)
 OpenBabel11021811393D
libRbt.so/2013.1/901 2013/11/27
 26 29  0  0  0  0  0  0  0  0999 V2000
  111.8336  -75.8899  -81.3763 C   0  0  0  0  0  0  0  0  0  0  0  0
  112.4001  -77.0687  -82.0149 C   0  0  0  0  0  0  0  0  0  0  0  0
  111.9497  -77.2521  -83.3237 C   0  0  0  0  0  0  0  0  0  0  0  0
  112.5602  -78.4689  -83.9290 O   0  0  0  0  0  0  0  0  0  0  0  0
  112.1513  -78.6227  -85.1278 C   0  0  0  0  0  0  0  0  0  0  0  0
  112.7930  -79.8391  -85.6259 C   0  0  0  0  0  0  0  0  0  0  0  0
  112.4503  -80.1688  -86.9851 C   0  0  0  0  0  0  0  0  0  0  0  0
  111.5780  -79.3726  -87.7679 C   0  0  0  0  0  0  0  0  0  0  0  0
  110.9657  -78.1808  -87.2109 C   0  0  0  0  0  0  0  0  0  0  0  0
  111.2834  -77.8392  -85.8460 C   0  0  0  0  0  0  0  0  0  0  0  0
  110.5921  -76.5948  -85.3406 C   0  0  0  0  0  0  0  0  0  0  0  0
  111.0581  -76.4453  -84.0220 C   0  0  0  0  0  0  0  0  0  0  0  0
  110.4936  -75.2675  -83.3595 C   0  0  0  0  0  0  0  0  0  0  0  0
  110.9406  -75.0546  -82.0189 C   0  0  0  0  0  0  0  0  0  0  0  0
  109.7183  -75.8513  -86.1112 C   0  0  0  0  0  0  0  0  0  0  0  0
  108.6426  -75.0774  -85.6170 C   0  0  0  0  0  0  0  0  0  0  0  0
  107.7618  -74.3072  -86.3784 C   0  0  0  0  0  0  0  0  0  0  0  0
  107.9171  -74.2553  -87.8244 C   0  0  0  0  0  0  0  0  0  0  0  0
  108.9942  -75.0485  -88.2877 C   0  0  0  0  0  0  0  0  0  0  0  0
  109.8978  -75.8376  -87.5627 C   0  0  0  0  0  0  0  0  0  0  0  0
  112.1889  -75.5693  -80.0735 N   0  3  0  0  0  0  0  0  0  0  0  0
  113.1334  -76.3723  -79.3050 C   0  0  0  0  0  0  0  0  0  0  0  0
  111.6937  -74.4164  -79.2895 C   0  0  0  0  0  0  0  0  0  0  0  0
  113.0577  -81.3546  -87.4324 N   0  0  0  0  0  0  0  0  0  0  0  0
  113.5795  -82.5289  -86.6983 C   0  0  0  0  0  0  0  0  0  0  0  0
  113.2193  -81.5280  -88.9193 C   0  0  0  0  0  0  0  0  0  0  0  0
  1  2  1  0  0  0  0
  1 14  1  0  0  0  0
  1 21  2  0  0  0  0
  2  3  2  0  0  0  0
  3  4  1  0  0  0  0
  3 12  1  0  0  0  0
  4  5  1  0  0  0  0
  5  6  1  0  0  0  0
  5 10  2  0  0  0  0
  6  7  2  0  0  0  0
  7  8  1  0  0  0  0
  7 24  1  0  0  0  0
  8  9  2  0  0  0  0
  9 10  1  0  0  0  0
 10 11  1  0  0  0  0
 11 12  2  0  0  0  0
 11 15  1  0  0  0  0
 12 13  1  0  0  0  0
 13 14  2  0  0  0  0
 15 16  2  0  0  0  0
 15 20  1  0  0  0  0
 16 17  1  0  0  0  0
 17 18  2  0  0  0  0
 18 19  1  0  0  0  0
 19 20  2  0  0  0  0
 21 22  1  0  0  0  0
 21 23  1  0  0  0  0
 24 25  1  0  0  0  0
 24 26  1  0  0  0  0
M  CHG  1  21   1
M  END
>  <CHROM.1>
23.75849076,151.37827496,111.31854387,-77.28900651,-84.85829636,-1.71590817
0.87956047,-2.10031827

>  <Name>
1f1t Malachite green aptamer (Xray 2.8A)

>  <RI>
0

>  <Rbt.Current_Directory>
/home/itssahil/PROJECTS/Mol_Feturizer/New_Systems/rnas/1f1t

>  <Rbt.Executable>
rbdock ($Id: //depot/dev/client3/rdock/2013.1/src/exe/rbdock.cxx#4 $)

>  <Rbt.Library>
libRbt.so (2013.1, Build901 2013/11/27)

>  <Rbt.Parameter_File>
/export/apps/rDock/src/rDock_2013.1_src/data/scripts/dock_solv.prm

>  <Rbt.Receptor>
prm/pocket_docking_6.prm

>  <SCORE>
-46.1832

>  <SCORE.INTER>
-49.764

>  <SCORE.INTER.CONST>
1

>  <SCORE.INTER.POLAR>
0

>  <SCORE.INTER.ROT>
2

>  <SCORE.INTER.SOLV>
9.49703

>  <SCORE.INTER.VDW>
-41.275

>  <SCORE.INTER.norm>
-1.914

>  <SCORE.INTRA>
3.58084

>  <SCORE.INTRA.DIHEDRAL>
-1.00492

>  <SCORE.INTRA.DIHEDRAL.0>
4.18538

>  <SCORE.INTRA.POLAR>
0

>  <SCORE.INTRA.POLAR.0>
0

>  <SCORE.INTRA.REPUL>
0

>  <SCORE.INTRA.REPUL.0>
0

>  <SCORE.INTRA.SOLV>
0.0415838

>  <SCORE.INTRA.SOLV.lig_0>
-5.16926

>  <SCORE.INTRA.VDW>
4.06251

>  <SCORE.INTRA.VDW.0>
1.11912

>  <SCORE.INTRA.norm>
0.137725

>  <SCORE.RESTR>
0

>  <SCORE.RESTR.CAVITY>
0

>  <SCORE.RESTR.norm>
0

>  <SCORE.SYSTEM>
0

>  <SCORE.SYSTEM.CONST>
0

>  <SCORE.SYSTEM.DIHEDRAL>
0

>  <SCORE.SYSTEM.SOLV>
0

>  <SCORE.SYSTEM.norm>
0

>  <SCORE.heavy>
26

>  <SCORE.norm>
-1.77628

>  <RMSD>
1.045

$$$$
1f1t Malachite green aptamer (Xray 2.8A)
 OpenBabel11021811393D
libRbt.so/2013.1/901 2013/11/27
 26 29  0  0  0  0  0  0  0  0999 V2000
  111.7338  -75.0242  -80.5500 C   0  0  0  0  0  0  0  0  0  0  0  0
  111.0261  -74.3556  -81.6320 C   0  0  0  0  0  0  0  0  0  0  0  0
  111.0365  -75.0822  -82.8242 C   0  0  0  0  0  0  0  0  0  0  0  0
  110.2991  -74.3546  -83.8950 O   0  0  0  0  0  0  0  0  0  0  0  0
  110.3047  -75.0303  -84.9772 C   0  0  0  0  0  0  0  0  0  0  0  0
  109.5721  -74.2332  -85.9609 C   0  0  0  0  0  0  0  0  0  0  0  0
  109.4686  -74.8515  -87.2573 C   0  0  0  0  0  0  0  0  0  0  0  0
  110.0193  -76.1255  -87.5425 C   0  0  0  0  0  0  0  0  0  0  0  0
  110.7437  -76.8623  -86.5236 C   0  0  0  0  0  0  0  0  0  0  0  0
  110.8723  -76.2555  -85.2215 C   0  0  0  0  0  0  0  0  0  0  0  0
  111.6534  -77.0812  -84.2264 C   0  0  0  0  0  0  0  0  0  0  0  0
  111.6323  -76.3190  -83.0445 C   0  0  0  0  0  0  0  0  0  0  0  0
  112.3458  -76.9724  -81.9450 C   0  0  0  0  0  0  0  0  0  0  0  0
  112.3481  -76.2509  -80.7114 C   0  0  0  0  0  0  0  0  0  0  0  0
  112.2109  -78.3073  -84.5360 C   0  0  0  0  0  0  0  0  0  0  0  0
  112.3717  -78.8302  -85.8403 C   0  0  0  0  0  0  0  0  0  0  0  0
  112.9478  -80.0577  -86.1722 C   0  0  0  0  0  0  0  0  0  0  0  0
  113.4509  -80.9248  -85.1174 C   0  0  0  0  0  0  0  0  0  0  0  0
  113.2649  -80.3784  -83.8248 C   0  0  0  0  0  0  0  0  0  0  0  0
  112.6903  -79.1571  -83.4464 C   0  0  0  0  0  0  0  0  0  0  0  0
  111.8075  -74.4291  -79.2983 N   0  3  0  0  0  0  0  0  0  0  0  0
  111.1841  -73.1421  -79.0111 C   0  0  0  0  0  0  0  0  0  0  0  0
  112.4952  -74.9762  -78.1080 C   0  0  0  0  0  0  0  0  0  0  0  0
  108.7840  -74.0560  -88.1920 N   0  0  0  0  0  0  0  0  0  0  0  0
  107.5850  -74.3219  -89.0177 C   0  0  0  0  0  0  0  0  0  0  0  0
  109.3074  -72.6640  -88.4270 C   0  0  0  0  0  0  0  0  0  0  0  0
  1  2  1  0  0  0  0
  1 14  1  0  0  0  0
  1 21  2  0  0  0  0
  2  3  2  0  0  0  0
  3  4  1  0  0  0  0
  3 12  1  0  0  0  0
  4  5  1  0  0  0  0
  5  6  1  0  0  0  0
  5 10  2  0  0  0  0
  6  7  2  0  0  0  0
  7  8  1  0  0  0  0
  7 24  1  0  0  0  0
  8  9  2  0  0  0  0
  9 10  1  0  0  0  0
 10 11  1  0  0  0  0
 11 12  2  0  0  0  0
 11 15  1  0  0  0  0
 12 13  1  0  0  0  0
 13 14  2  0  0  0  0
 15 16  2  0  0  0  0
 15 20  1  0  0  0  0
 16 17  1  0  0  0  0
 17 18  2  0  0  0  0
 18 19  1  0  0  0  0
 19 20  2  0  0  0  0
 21 22  1  0  0  0  0
 21 23  1  0  0  0  0
 24 25  1  0  0  0  0
 24 26  1  0  0  0  0
M  CHG  1  21   1
M  END
>  <CHROM.1>
-123.33677273,13.47714640,111.16248305,-76.07680348,-84.11251773,0.89593117
-1.02360370,1.02786846

>  <Name>
1f1t Malachite green aptamer (Xray 2.8A)

>  <RI>
0

>  <Rbt.Current_Directory>
/home/itssahil/PROJECTS/Mol_Feturizer/New_Systems/rnas/1f1t

>  <Rbt.Executable>
rbdock ($Id: //depot/dev/client3/rdock/2013.1/src/exe/rbdock.cxx#4 $)

>  <Rbt.Library>
libRbt.so (2013.1, Build901 2013/11/27)

>  <Rbt.Parameter_File>
/export/apps/rDock/src/rDock_2013.1_src/data/scripts/dock_solv.prm

>  <Rbt.Receptor>
prm/pocket_docking_7.prm

>  <SCORE>
-50.3571

>  <SCORE.INTER>
-57.1718

>  <SCORE.INTER.CONST>
1

>  <SCORE.INTER.POLAR>
0

>  <SCORE.INTER.ROT>
2

>  <SCORE.INTER.SOLV>
10.2544

>  <SCORE.INTER.VDW>
-46.466

>  <SCORE.INTER.norm>
-2.19892

>  <SCORE.INTRA>
6.81474

>  <SCORE.INTRA.DIHEDRAL>
4.96748

>  <SCORE.INTRA.DIHEDRAL.0>
4.18538

>  <SCORE.INTRA.POLAR>
0

>  <SCORE.INTRA.POLAR.0>
0

>  <SCORE.INTRA.REPUL>
0

>  <SCORE.INTRA.REPUL.0>
0

>  <SCORE.INTRA.SOLV>
0.0464016

>  <SCORE.INTRA.SOLV.lig_0>
-5.16926

>  <SCORE.INTRA.VDW>
4.3078

>  <SCORE.INTRA.VDW.0>
1.11912

>  <SCORE.INTRA.norm>
0.262105

>  <SCORE.RESTR>
0

>  <SCORE.RESTR.CAVITY>
0

>  <SCORE.RESTR.norm>
0

>  <SCORE.SYSTEM>
0

>  <SCORE.SYSTEM.CONST>
0

>  <SCORE.SYSTEM.DIHEDRAL>
0

>  <SCORE.SYSTEM.SOLV>
0

>  <SCORE.SYSTEM.norm>
0

>  <SCORE.heavy>
26

>  <SCORE.norm>
-1.93681

>  <RMSD>
5.249

$$$$
1f1t Malachite green aptamer (Xray 2.8A)
 OpenBabel11021811393D
libRbt.so/2013.1/901 2013/11/27
 26 29  0  0  0  0  0  0  0  0999 V2000
  112.7834  -76.9916  -81.0481 C   0  0  0  0  0  0  0  0  0  0  0  0
  111.9776  -76.1058  -81.8754 C   0  0  0  0  0  0  0  0  0  0  0  0
  111.7991  -76.5826  -83.1754 C   0  0  0  0  0  0  0  0  0  0  0  0
  110.9683  -75.6404  -83.9764 O   0  0  0  0  0  0  0  0  0  0  0  0
  110.8017  -76.0891  -85.1592 C   0  0  0  0  0  0  0  0  0  0  0  0
  109.9903  -75.0961  -85.8629 C   0  0  0  0  0  0  0  0  0  0  0  0
  109.6911  -75.4436  -87.2279 C   0  0  0  0  0  0  0  0  0  0  0  0
  110.1364  -76.6490  -87.8248 C   0  0  0  0  0  0  0  0  0  0  0  0
  110.9472  -77.5897  -87.0742 C   0  0  0  0  0  0  0  0  0  0  0  0
  111.2715  -77.2553  -85.7092 C   0  0  0  0  0  0  0  0  0  0  0  0
  112.1309  -78.2797  -85.0065 C   0  0  0  0  0  0  0  0  0  0  0  0
  112.2993  -77.7656  -83.7082 C   0  0  0  0  0  0  0  0  0  0  0  0
  113.1138  -78.6402  -82.8617 C   0  0  0  0  0  0  0  0  0  0  0  0
  113.3098  -78.1767  -81.5240 C   0  0  0  0  0  0  0  0  0  0  0  0
  112.5822  -79.4336  -85.6187 C   0  0  0  0  0  0  0  0  0  0  0  0
  112.9608  -80.6223  -84.9523 C   0  0  0  0  0  0  0  0  0  0  0  0
  113.4018  -81.8018  -85.5550 C   0  0  0  0  0  0  0  0  0  0  0  0
  113.5002  -81.8754  -87.0051 C   0  0  0  0  0  0  0  0  0  0  0  0
  113.1254  -80.6674  -87.6408 C   0  0  0  0  0  0  0  0  0  0  0  0
  112.6823  -79.4627  -87.0777 C   0  0  0  0  0  0  0  0  0  0  0  0
  113.0461  -76.6573  -79.7269 N   0  3  0  0  0  0  0  0  0  0  0  0
  112.5298  -75.4377  -79.1158 C   0  0  0  0  0  0  0  0  0  0  0  0
  113.8521  -77.4450  -78.7682 C   0  0  0  0  0  0  0  0  0  0  0  0
  108.9334  -74.4630  -87.8908 N   0  0  0  0  0  0  0  0  0  0  0  0
  107.6847  -74.5529  -88.6799 C   0  0  0  0  0  0  0  0  0  0  0  0
  109.4202  -73.0408  -87.8047 C   0  0  0  0  0  0  0  0  0  0  0  0
  1  2  1  0  0  0  0
  1 14  1  0  0  0  0
  1 21  2  0  0  0  0
  2  3  2  0  0  0  0
  3  4  1  0  0  0  0
  3 12  1  0  0  0  0
  4  5  1  0  0  0  0
  5  6  1  0  0  0  0
  5 10  2  0  0  0  0
  6  7  2  0  0  0  0
  7  8  1  0  0  0  0
  7 24  1  0  0  0  0
  8  9  2  0  0  0  0
  9 10  1  0  0  0  0
 10 11  1  0  0  0  0
 11 12  2  0  0  0  0
 11 15  1  0  0  0  0
 12 13  1  0  0  0  0
 13 14  2  0  0  0  0
 15 16  2  0  0  0  0
 15 20  1  0  0  0  0
 16 17  1  0  0  0  0
 17 18  2  0  0  0  0
 18 19  1  0  0  0  0
 19 20  2  0  0  0  0
 21 22  1  0  0  0  0
 21 23  1  0  0  0  0
 24 25  1  0  0  0  0
 24 26  1  0  0  0  0
M  CHG  1  21   1
M  END
>  <CHROM.1>
-129.30650134,-156.26892734,111.69885578,-77.30052989,-84.65284047,0.66703511
-0.99005686,1.01448516

>  <Name>
1f1t Malachite green aptamer (Xray 2.8A)

>  <RI>
0

>  <Rbt.Current_Directory>
/home/itssahil/PROJECTS/Mol_Feturizer/New_Systems/rnas/1f1t

>  <Rbt.Executable>
rbdock ($Id: //depot/dev/client3/rdock/2013.1/src/exe/rbdock.cxx#4 $)

>  <Rbt.Library>
libRbt.so (2013.1, Build901 2013/11/27)

>  <Rbt.Parameter_File>
/export/apps/rDock/src/rDock_2013.1_src/data/scripts/dock_solv.prm

>  <Rbt.Receptor>
prm/pocket_docking_8.prm

>  <SCORE>
-44.6042

>  <SCORE.INTER>
-51.7146

>  <SCORE.INTER.CONST>
1

>  <SCORE.INTER.POLAR>
0

>  <SCORE.INTER.ROT>
2

>  <SCORE.INTER.SOLV>
9.00025

>  <SCORE.INTER.VDW>
-42.4098

>  <SCORE.INTER.norm>
-1.98902

>  <SCORE.INTRA>
7.11044

>  <SCORE.INTRA.DIHEDRAL>
4.20378

>  <SCORE.INTRA.DIHEDRAL.0>
4.18538

>  <SCORE.INTRA.POLAR>
0

>  <SCORE.INTRA.POLAR.0>
0

>  <SCORE.INTRA.REPUL>
0

>  <SCORE.INTRA.REPUL.0>
0

>  <SCORE.INTRA.SOLV>
0.0409217

>  <SCORE.INTRA.SOLV.lig_0>
-5.16926

>  <SCORE.INTRA.VDW>
4.98809

>  <SCORE.INTRA.VDW.0>
1.11912

>  <SCORE.INTRA.norm>
0.273478

>  <SCORE.RESTR>
0

>  <SCORE.RESTR.CAVITY>
0

>  <SCORE.RESTR.norm>
0

>  <SCORE.SYSTEM>
0

>  <SCORE.SYSTEM.CONST>
0

>  <SCORE.SYSTEM.DIHEDRAL>
0

>  <SCORE.SYSTEM.SOLV>
0

>  <SCORE.SYSTEM.norm>
0

>  <SCORE.heavy>
26

>  <SCORE.norm>
-1.71554

>  <RMSD>
5.376

$$$$
1f1t Malachite green aptamer (Xray 2.8A)
 OpenBabel11021811393D
libRbt.so/2013.1/901 2013/11/27
 26 29  0  0  0  0  0  0  0  0999 V2000
  112.8210  -77.0576  -81.0713 C   0  0  0  0  0  0  0  0  0  0  0  0
  112.0331  -76.1500  -81.8922 C   0  0  0  0  0  0  0  0  0  0  0  0
  111.8462  -76.6134  -83.1959 C   0  0  0  0  0  0  0  0  0  0  0  0
  111.0343  -75.6493  -83.9901 O   0  0  0  0  0  0  0  0  0  0  0  0
  110.8598  -76.0857  -85.1763 C   0  0  0  0  0  0  0  0  0  0  0  0
  110.0682  -75.0718  -85.8728 C   0  0  0  0  0  0  0  0  0  0  0  0
  109.7632  -75.4031  -87.2406 C   0  0  0  0  0  0  0  0  0  0  0  0
  110.1855  -76.6123  -87.8464 C   0  0  0  0  0  0  0  0  0  0  0  0
  110.9775  -77.5742  -87.1027 C   0  0  0  0  0  0  0  0  0  0  0  0
  111.3073  -77.2564  -85.7350 C   0  0  0  0  0  0  0  0  0  0  0  0
  112.1463  -78.3027  -85.0397 C   0  0  0  0  0  0  0  0  0  0  0  0
  112.3237  -77.8018  -83.7374 C   0  0  0  0  0  0  0  0  0  0  0  0
  113.1207  -78.6984  -82.8972 C   0  0  0  0  0  0  0  0  0  0  0  0
  113.3247  -78.2490  -81.5560 C   0  0  0  0  0  0  0  0  0  0  0  0
  112.5756  -79.4604  -85.6605 C   0  0  0  0  0  0  0  0  0  0  0  0
  112.6124  -79.6775  -87.0576 C   0  0  0  0  0  0  0  0  0  0  0  0
  113.0588  -80.8327  -87.7019 C   0  0  0  0  0  0  0  0  0  0  0  0
  113.5464  -81.9538  -86.9125 C   0  0  0  0  0  0  0  0  0  0  0  0
  113.4858  -81.7093  -85.5194 C   0  0  0  0  0  0  0  0  0  0  0  0
  113.0432  -80.5710  -84.8315 C   0  0  0  0  0  0  0  0  0  0  0  0
  113.0893  -76.7385  -79.7474 N   0  3  0  0  0  0  0  0  0  0  0  0
  112.5963  -75.5139  -79.1273 C   0  0  0  0  0  0  0  0  0  0  0  0
  113.8792  -77.5489  -78.7944 C   0  0  0  0  0  0  0  0  0  0  0  0
  109.0251  -74.4029  -87.8964 N   0  0  0  0  0  0  0  0  0  0  0  0
  109.2658  -72.9519  -88.0604 C   0  0  0  0  0  0  0  0  0  0  0  0
  107.7582  -74.8252  -88.5918 C   0  0  0  0  0  0  0  0  0  0  0  0
  1  2  1  0  0  0  0
  1 14  1  0  0  0  0
  1 21  2  0  0  0  0
  2  3  2  0  0  0  0
  3  4  1  0  0  0  0
  3 12  1  0  0  0  0
  4  5  1  0  0  0  0
  5  6  1  0  0  0  0
  5 10  2  0  0  0  0
  6  7  2  0  0  0  0
  7  8  1  0  0  0  0
  7 24  1  0  0  0  0
  8  9  2  0  0  0  0
  9 10  1  0  0  0  0
 10 11  1  0  0  0  0
 11 12  2  0  0  0  0
 11 15  1  0  0  0  0
 12 13  1  0  0  0  0
 13 14  2  0  0  0  0
 15 16  2  0  0  0  0
 15 20  1  0  0  0  0
 16 17  1  0  0  0  0
 17 18  2  0  0  0  0
 18 19  1  0  0  0  0
 19 20  2  0  0  0  0
 21 22  1  0  0  0  0
 21 23  1  0  0  0  0
 24 25  1  0  0  0  0
 24 26  1  0  0  0  0
M  CHG  1  21   1
M  END
>  <CHROM.1>
53.00736214,17.48947435,111.72968307,-77.33824539,-84.66823247,0.63835952
-0.99668689,1.00713113

>  <Name>
1f1t Malachite green aptamer (Xray 2.8A)

>  <RI>
0

>  <Rbt.Current_Directory>
/home/itssahil/PROJECTS/Mol_Feturizer/New_Systems/rnas/1f1t

>  <Rbt.Executable>
rbdock ($Id: //depot/dev/client3/rdock/2013.1/src/exe/rbdock.cxx#4 $)

>  <Rbt.Library>
libRbt.so (2013.1, Build901 2013/11/27)

>  <Rbt.Parameter_File>
/export/apps/rDock/src/rDock_2013.1_src/data/scripts/dock_solv.prm

>  <Rbt.Receptor>
prm/pocket_docking_7.prm

>  <SCORE>
-46.5306

>  <SCORE.INTER>
-51.9323

>  <SCORE.INTER.CONST>
1

>  <SCORE.INTER.POLAR>
0

>  <SCORE.INTER.ROT>
2

>  <SCORE.INTER.SOLV>
9.04097

>  <SCORE.INTER.VDW>
-42.5685

>  <SCORE.INTER.norm>
-1.9974

>  <SCORE.INTRA>
5.40169

>  <SCORE.INTRA.DIHEDRAL>
4.36713

>  <SCORE.INTRA.DIHEDRAL.0>
4.18538

>  <SCORE.INTRA.POLAR>
0

>  <SCORE.INTRA.POLAR.0>
0

>  <SCORE.INTRA.REPUL>
0

>  <SCORE.INTRA.REPUL.0>
0

>  <SCORE.INTRA.SOLV>
0.0474711

>  <SCORE.INTRA.SOLV.lig_0>
-5.16926

>  <SCORE.INTRA.VDW>
3.19439

>  <SCORE.INTRA.VDW.0>
1.11912

>  <SCORE.INTRA.norm>
0.207757

>  <SCORE.RESTR>
0

>  <SCORE.RESTR.CAVITY>
0

>  <SCORE.RESTR.norm>
0

>  <SCORE.SYSTEM>
0

>  <SCORE.SYSTEM.CONST>
0

>  <SCORE.SYSTEM.DIHEDRAL>
0

>  <SCORE.SYSTEM.SOLV>
0

>  <SCORE.SYSTEM.norm>
0

>  <SCORE.heavy>
26

>  <SCORE.norm>
-1.78964

>  <RMSD>
5.408

$$$$
1f1t Malachite green aptamer (Xray 2.8A)
 OpenBabel11021811393D
libRbt.so/2013.1/901 2013/11/27
 26 29  0  0  0  0  0  0  0  0999 V2000
  111.3730  -74.4519  -83.8910 C   0  0  0  0  0  0  0  0  0  0  0  0
  111.3951  -75.4897  -84.9112 C   0  0  0  0  0  0  0  0  0  0  0  0
  112.0100  -76.6672  -84.4813 C   0  0  0  0  0  0  0  0  0  0  0  0
  112.0040  -77.6934  -85.5613 O   0  0  0  0  0  0  0  0  0  0  0  0
  112.5582  -78.7690  -85.1563 C   0  0  0  0  0  0  0  0  0  0  0  0
  112.5129  -79.7015  -86.2823 C   0  0  0  0  0  0  0  0  0  0  0  0
  113.0936  -80.9890  -86.0015 C   0  0  0  0  0  0  0  0  0  0  0  0
  113.6462  -81.3192  -84.7393 C   0  0  0  0  0  0  0  0  0  0  0  0
  113.6687  -80.3444  -83.6646 C   0  0  0  0  0  0  0  0  0  0  0  0
  113.1054  -79.0430  -83.9281 C   0  0  0  0  0  0  0  0  0  0  0  0
  113.1839  -78.0852  -82.7625 C   0  0  0  0  0  0  0  0  0  0  0  0
  112.5674  -76.9110  -83.2310 C   0  0  0  0  0  0  0  0  0  0  0  0
  112.5415  -75.8515  -82.2202 C   0  0  0  0  0  0  0  0  0  0  0  0
  111.9146  -74.6356  -82.6336 C   0  0  0  0  0  0  0  0  0  0  0  0
  113.7577  -78.4177  -81.5500 C   0  0  0  0  0  0  0  0  0  0  0  0
  115.1317  -78.6757  -81.3353 C   0  0  0  0  0  0  0  0  0  0  0  0
  115.7306  -78.9954  -80.1155 C   0  0  0  0  0  0  0  0  0  0  0  0
  114.9137  -79.0845  -78.9145 C   0  0  0  0  0  0  0  0  0  0  0  0
  113.5434  -78.8324  -79.1650 C   0  0  0  0  0  0  0  0  0  0  0  0
  112.9003  -78.5131  -80.3689 C   0  0  0  0  0  0  0  0  0  0  0  0
  110.7901  -73.2226  -84.1655 N   0  3  0  0  0  0  0  0  0  0  0  0
  110.1760  -72.9235  -85.4543 C   0  0  0  0  0  0  0  0  0  0  0  0
  110.6989  -72.0710  -83.2411 C   0  0  0  0  0  0  0  0  0  0  0  0
  113.0622  -81.8581  -87.1055 N   0  0  0  0  0  0  0  0  0  0  0  0
  112.8658  -81.6048  -88.5504 C   0  0  0  0  0  0  0  0  0  0  0  0
  113.2783  -83.3235  -86.8356 C   0  0  0  0  0  0  0  0  0  0  0  0
  1  2  1  0  0  0  0
  1 14  1  0  0  0  0
  1 21  2  0  0  0  0
  2  3  2  0  0  0  0
  3  4  1  0  0  0  0
  3 12  1  0  0  0  0
  4  5  1  0  0  0  0
  5  6  1  0  0  0  0
  5 10  2  0  0  0  0
  6  7  2  0  0  0  0
  7  8  1  0  0  0  0
  7 24  1  0  0  0  0
  8  9  2  0  0  0  0
  9 10  1  0  0  0  0
 10 11  1  0  0  0  0
 11 12  2  0  0  0  0
 11 15  1  0  0  0  0
 12 13  1  0  0  0  0
 13 14  2  0  0  0  0
 15 16  2  0  0  0  0
 15 20  1  0  0  0  0
 16 17  1  0  0  0  0
 17 18  2  0  0  0  0
 18 19  1  0  0  0  0
 19 20  2  0  0  0  0
 21 22  1  0  0  0  0
 21 23  1  0  0  0  0
 24 25  1  0  0  0  0
 24 26  1  0  0  0  0
M  CHG  1  21   1
M  END
>  <CHROM.1>
17.52766983,67.15517180,112.75144625,-77.96452646,-83.78014174,2.13504354
-1.08714536,0.83115087

>  <Name>
1f1t Malachite green aptamer (Xray 2.8A)

>  <RI>
0

>  <Rbt.Current_Directory>
/home/itssahil/PROJECTS/Mol_Feturizer/New_Systems/rnas/1f1t

>  <Rbt.Executable>
rbdock ($Id: //depot/dev/client3/rdock/2013.1/src/exe/rbdock.cxx#4 $)

>  <Rbt.Library>
libRbt.so (2013.1, Build901 2013/11/27)

>  <Rbt.Parameter_File>
/export/apps/rDock/src/rDock_2013.1_src/data/scripts/dock_solv.prm

>  <Rbt.Receptor>
prm/pocket_docking_8.prm

>  <SCORE>
-36.3835

>  <SCORE.INTER>
-36.6815

>  <SCORE.INTER.CONST>
1

>  <SCORE.INTER.POLAR>
0

>  <SCORE.INTER.ROT>
2

>  <SCORE.INTER.SOLV>
12.0344

>  <SCORE.INTER.VDW>
-33.3991

>  <SCORE.INTER.norm>
-1.41083

>  <SCORE.INTRA>
0.170497

>  <SCORE.INTRA.DIHEDRAL>
1.01459

>  <SCORE.INTRA.DIHEDRAL.0>
4.18538

>  <SCORE.INTRA.POLAR>
0

>  <SCORE.INTRA.POLAR.0>
0

>  <SCORE.INTRA.REPUL>
0

>  <SCORE.INTRA.REPUL.0>
0

>  <SCORE.INTRA.SOLV>
0.00288182

>  <SCORE.INTRA.SOLV.lig_0>
-5.16926

>  <SCORE.INTRA.VDW>
-0.338237

>  <SCORE.INTRA.VDW.0>
1.11912

>  <SCORE.INTRA.norm>
0.00655757

>  <SCORE.RESTR>
0.12743

>  <SCORE.RESTR.CAVITY>
0.12743

>  <SCORE.RESTR.norm>
0.00490115

>  <SCORE.SYSTEM>
0

>  <SCORE.SYSTEM.CONST>
0

>  <SCORE.SYSTEM.DIHEDRAL>
0

>  <SCORE.SYSTEM.SOLV>
0

>  <SCORE.SYSTEM.norm>
0

>  <SCORE.heavy>
26

>  <SCORE.norm>
-1.39937

>  <RMSD>
5.646

$$$$
1f1t Malachite green aptamer (Xray 2.8A)
 OpenBabel11021811393D
libRbt.so/2013.1/901 2013/11/27
 26 29  0  0  0  0  0  0  0  0999 V2000
  111.2705  -74.0354  -82.0820 C   0  0  0  0  0  0  0  0  0  0  0  0
  111.4126  -74.7954  -83.3151 C   0  0  0  0  0  0  0  0  0  0  0  0
  111.8350  -76.1092  -83.1029 C   0  0  0  0  0  0  0  0  0  0  0  0
  111.9624  -76.8404  -84.3946 O   0  0  0  0  0  0  0  0  0  0  0  0
  112.3385  -78.0424  -84.1904 C   0  0  0  0  0  0  0  0  0  0  0  0
  112.4440  -78.6676  -85.5086 C   0  0  0  0  0  0  0  0  0  0  0  0
  112.8539  -80.0475  -85.4724 C   0  0  0  0  0  0  0  0  0  0  0  0
  113.1172  -80.7350  -84.2618 C   0  0  0  0  0  0  0  0  0  0  0  0
  113.0030  -80.0541  -82.9855 C   0  0  0  0  0  0  0  0  0  0  0  0
  112.6077  -78.6670  -82.9986 C   0  0  0  0  0  0  0  0  0  0  0  0
  112.5288  -78.0312  -81.6306 C   0  0  0  0  0  0  0  0  0  0  0  0
  112.1122  -76.7112  -81.8805 C   0  0  0  0  0  0  0  0  0  0  0  0
  111.9700  -75.9275  -80.6515 C   0  0  0  0  0  0  0  0  0  0  0  0
  111.5356  -74.5791  -80.8402 C   0  0  0  0  0  0  0  0  0  0  0  0
  112.8226  -78.7117  -80.4642 C   0  0  0  0  0  0  0  0  0  0  0  0
  114.0564  -78.6639  -79.7744 C   0  0  0  0  0  0  0  0  0  0  0  0
  114.3645  -79.3302  -78.5870 C   0  0  0  0  0  0  0  0  0  0  0  0
  113.3589  -80.1675  -77.9502 C   0  0  0  0  0  0  0  0  0  0  0  0
  112.1407  -80.2030  -78.6705 C   0  0  0  0  0  0  0  0  0  0  0  0
  111.7902  -79.5560  -79.8635 C   0  0  0  0  0  0  0  0  0  0  0  0
  110.8526  -72.7126  -82.1276 N   0  3  0  0  0  0  0  0  0  0  0  0
  110.5320  -72.0411  -83.3821 C   0  0  0  0  0  0  0  0  0  0  0  0
  110.6710  -71.8114  -80.9683 C   0  0  0  0  0  0  0  0  0  0  0  0
  112.9736  -80.6185  -86.7510 N   0  0  0  0  0  0  0  0  0  0  0  0
  112.6801  -80.0815  -88.0985 C   0  0  0  0  0  0  0  0  0  0  0  0
  113.5081  -82.0239  -86.8311 C   0  0  0  0  0  0  0  0  0  0  0  0
  1  2  1  0  0  0  0
  1 14  1  0  0  0  0
  1 21  2  0  0  0  0
  2  3  2  0  0  0  0
  3  4  1  0  0  0  0
  3 12  1  0  0  0  0
  4  5  1  0  0  0  0
  5  6  1  0  0  0  0
  5 10  2  0  0  0  0
  6  7  2  0  0  0  0
  7  8  1  0  0  0  0
  7 24  1  0  0  0  0
  8  9  2  0  0  0  0
  9 10  1  0  0  0  0
 10 11  1  0  0  0  0
 11 12  2  0  0  0  0
 11 15  1  0  0  0  0
 12 13  1  0  0  0  0
 13 14  2  0  0  0  0
 15 16  2  0  0  0  0
 15 20  1  0  0  0  0
 16 17  1  0  0  0  0
 17 18  2  0  0  0  0
 18 19  1  0  0  0  0
 19 20  2  0  0  0  0
 21 22  1  0  0  0  0
 21 23  1  0  0  0  0
 24 25  1  0  0  0  0
 24 26  1  0  0  0  0
M  CHG  1  21   1
M  END
>  <CHROM.1>
-4.09384962,97.86962491,112.32003270,-77.62255773,-82.64432033,2.43475804
-1.26921400,1.35331542

>  <Name>
1f1t Malachite green aptamer (Xray 2.8A)

>  <RI>
0

>  <Rbt.Current_Directory>
/home/itssahil/PROJECTS/Mol_Feturizer/New_Systems/rnas/1f1t

>  <Rbt.Executable>
rbdock ($Id: //depot/dev/client3/rdock/2013.1/src/exe/rbdock.cxx#4 $)

>  <Rbt.Library>
libRbt.so (2013.1, Build901 2013/11/27)

>  <Rbt.Parameter_File>
/export/apps/rDock/src/rDock_2013.1_src/data/scripts/dock_solv.prm

>  <Rbt.Receptor>
prm/pocket_docking_8.prm

>  <SCORE>
-28.1209

>  <SCORE.INTER>
-28.5273

>  <SCORE.INTER.CONST>
1

>  <SCORE.INTER.POLAR>
0

>  <SCORE.INTER.ROT>
2

>  <SCORE.INTER.SOLV>
11.5869

>  <SCORE.INTER.VDW>
-27.8138

>  <SCORE.INTER.norm>
-1.0972

>  <SCORE.INTRA>
0.0995728

>  <SCORE.INTRA.DIHEDRAL>
0.602993

>  <SCORE.INTRA.DIHEDRAL.0>
4.18538

>  <SCORE.INTRA.POLAR>
0

>  <SCORE.INTRA.POLAR.0>
0

>  <SCORE.INTRA.REPUL>
0

>  <SCORE.INTRA.REPUL.0>
0

>  <SCORE.INTRA.SOLV>
-0.00956401

>  <SCORE.INTRA.SOLV.lig_0>
-5.16926

>  <SCORE.INTRA.VDW>
-0.197141

>  <SCORE.INTRA.VDW.0>
1.11912

>  <SCORE.INTRA.norm>
0.00382972

>  <SCORE.RESTR>
0.306839

>  <SCORE.RESTR.CAVITY>
0.306839

>  <SCORE.RESTR.norm>
0.0118015

>  <SCORE.SYSTEM>
0

>  <SCORE.SYSTEM.CONST>
0

>  <SCORE.SYSTEM.DIHEDRAL>
0

>  <SCORE.SYSTEM.SOLV>
0

>  <SCORE.SYSTEM.norm>
0

>  <SCORE.heavy>
26

>  <SCORE.norm>
-1.08157

>  <RMSD>
5.687

$$$$
1f1t Malachite green aptamer (Xray 2.8A)
 OpenBabel11021811393D
libRbt.so/2013.1/901 2013/11/27
 26 29  0  0  0  0  0  0  0  0999 V2000
  112.2360  -79.4440  -86.8806 C   0  0  0  0  0  0  0  0  0  0  0  0
  112.3667  -78.9521  -85.5170 C   0  0  0  0  0  0  0  0  0  0  0  0
  111.7875  -77.6955  -85.3304 C   0  0  0  0  0  0  0  0  0  0  0  0
  111.9484  -77.2415  -83.9206 O   0  0  0  0  0  0  0  0  0  0  0  0
  111.4073  -76.0977  -83.7569 C   0  0  0  0  0  0  0  0  0  0  0  0
  111.6272  -75.7379  -82.3562 C   0  0  0  0  0  0  0  0  0  0  0  0
  111.0693  -74.4639  -81.9831 C   0  0  0  0  0  0  0  0  0  0  0  0
  110.3602  -73.6435  -82.8952 C   0  0  0  0  0  0  0  0  0  0  0  0
  110.1843  -74.0543  -84.2758 C   0  0  0  0  0  0  0  0  0  0  0  0
  110.7476  -75.3206  -84.6755 C   0  0  0  0  0  0  0  0  0  0  0  0
  110.5328  -75.6637  -86.1309 C   0  0  0  0  0  0  0  0  0  0  0  0
  111.1347  -76.9253  -86.2866 C   0  0  0  0  0  0  0  0  0  0  0  0
  111.0198  -77.4347  -87.6549 C   0  0  0  0  0  0  0  0  0  0  0  0
  111.6022  -78.7215  -87.8727 C   0  0  0  0  0  0  0  0  0  0  0  0
  109.8666  -74.8328  -87.0116 C   0  0  0  0  0  0  0  0  0  0  0  0
  108.7878  -75.2138  -87.8431 C   0  0  0  0  0  0  0  0  0  0  0  0
  108.0925  -74.3845  -88.7249 C   0  0  0  0  0  0  0  0  0  0  0  0
  108.4673  -72.9832  -88.8414 C   0  0  0  0  0  0  0  0  0  0  0  0
  109.5561  -72.6369  -88.0055 C   0  0  0  0  0  0  0  0  0  0  0  0
  110.2837  -73.4344  -87.1114 C   0  0  0  0  0  0  0  0  0  0  0  0
  112.7578  -80.6837  -87.2231 N   0  3  0  0  0  0  0  0  0  0  0  0
  113.4348  -81.5373  -86.2534 C   0  0  0  0  0  0  0  0  0  0  0  0
  112.7136  -81.3126  -88.5616 C   0  0  0  0  0  0  0  0  0  0  0  0
  111.3159  -74.1283  -80.6409 N   0  0  0  0  0  0  0  0  0  0  0  0
  110.9943  -72.9154  -79.8560 C   0  0  0  0  0  0  0  0  0  0  0  0
  112.0160  -75.1552  -79.7910 C   0  0  0  0  0  0  0  0  0  0  0  0
  1  2  1  0  0  0  0
  1 14  1  0  0  0  0
  1 21  2  0  0  0  0
  2  3  2  0  0  0  0
  3  4  1  0  0  0  0
  3 12  1  0  0  0  0
  4  5  1  0  0  0  0
  5  6  1  0  0  0  0
  5 10  2  0  0  0  0
  6  7  2  0  0  0  0
  7  8  1  0  0  0  0
  7 24  1  0  0  0  0
  8  9  2  0  0  0  0
  9 10  1  0  0  0  0
 10 11  1  0  0  0  0
 11 12  2  0  0  0  0
 11 15  1  0  0  0  0
 12 13  1  0  0  0  0
 13 14  2  0  0  0  0
 15 16  2  0  0  0  0
 15 20  1  0  0  0  0
 16 17  1  0  0  0  0
 17 18  2  0  0  0  0
 18 19  1  0  0  0  0
 19 20  2  0  0  0  0
 21 22  1  0  0  0  0
 21 23  1  0  0  0  0
 24 25  1  0  0  0  0
 24 26  1  0  0  0  0
M  CHG  1  21   1
M  END
>  <CHROM.1>
176.75648314,-127.90740730,111.05395472,-76.22722498,-85.30227765,-1.25820179
-1.05183967,1.04329006

>  <Name>
1f1t Malachite green aptamer (Xray 2.8A)

>  <RI>
0

>  <Rbt.Current_Directory>
/home/itssahil/PROJECTS/Mol_Feturizer/New_Systems/rnas/1f1t

>  <Rbt.Executable>
rbdock ($Id: //depot/dev/client3/rdock/2013.1/src/exe/rbdock.cxx#4 $)

>  <Rbt.Library>
libRbt.so (2013.1, Build901 2013/11/27)

>  <Rbt.Parameter_File>
/export/apps/rDock/src/rDock_2013.1_src/data/scripts/dock_solv.prm

>  <Rbt.Receptor>
prm/pocket_docking_2.prm

>  <SCORE>
-58.8872

>  <SCORE.INTER>
-62.4728

>  <SCORE.INTER.CONST>
1

>  <SCORE.INTER.POLAR>
0

>  <SCORE.INTER.ROT>
2

>  <SCORE.INTER.SOLV>
11.1122

>  <SCORE.INTER.VDW>
-50.2859

>  <SCORE.INTER.norm>
-2.4028

>  <SCORE.INTRA>
3.5856

>  <SCORE.INTRA.DIHEDRAL>
-1.17892

>  <SCORE.INTRA.DIHEDRAL.0>
4.18538

>  <SCORE.INTRA.POLAR>
0

>  <SCORE.INTRA.POLAR.0>
0

>  <SCORE.INTRA.REPUL>
0

>  <SCORE.INTRA.REPUL.0>
0

>  <SCORE.INTRA.SOLV>
0.0179123

>  <SCORE.INTRA.SOLV.lig_0>
-5.16926

>  <SCORE.INTRA.VDW>
4.1661

>  <SCORE.INTRA.VDW.0>
1.11912

>  <SCORE.INTRA.norm>
0.137908

>  <SCORE.RESTR>
0

>  <SCORE.RESTR.CAVITY>
0

>  <SCORE.RESTR.norm>
0

>  <SCORE.SYSTEM>
0

>  <SCORE.SYSTEM.CONST>
0

>  <SCORE.SYSTEM.DIHEDRAL>
0

>  <SCORE.SYSTEM.SOLV>
0

>  <SCORE.SYSTEM.norm>
0

>  <SCORE.heavy>
26

>  <SCORE.norm>
-2.26489

>  <RMSD>
6.116

$$$$
1f1t Malachite green aptamer (Xray 2.8A)
 OpenBabel11021811393D
libRbt.so/2013.1/901 2013/11/27
 26 29  0  0  0  0  0  0  0  0999 V2000
  112.2416  -79.4499  -86.8791 C   0  0  0  0  0  0  0  0  0  0  0  0
  112.3700  -78.9573  -85.5155 C   0  0  0  0  0  0  0  0  0  0  0  0
  111.7903  -77.7007  -85.3305 C   0  0  0  0  0  0  0  0  0  0  0  0
  111.9491  -77.2459  -83.9207 O   0  0  0  0  0  0  0  0  0  0  0  0
  111.4075  -76.1021  -83.7584 C   0  0  0  0  0  0  0  0  0  0  0  0
  111.6252  -75.7415  -82.3576 C   0  0  0  0  0  0  0  0  0  0  0  0
  111.0665  -74.4674  -81.9861 C   0  0  0  0  0  0  0  0  0  0  0  0
  110.3587  -73.6476  -82.8996 C   0  0  0  0  0  0  0  0  0  0  0  0
  110.1850  -74.0592  -84.2803 C   0  0  0  0  0  0  0  0  0  0  0  0
  110.7490  -75.3255  -84.6784 C   0  0  0  0  0  0  0  0  0  0  0  0
  110.5366  -75.6695  -86.1339 C   0  0  0  0  0  0  0  0  0  0  0  0
  111.1389  -76.9311  -86.2880 C   0  0  0  0  0  0  0  0  0  0  0  0
  111.0262  -77.4412  -87.6563 C   0  0  0  0  0  0  0  0  0  0  0  0
  111.6091  -78.7280  -87.8725 C   0  0  0  0  0  0  0  0  0  0  0  0
  109.8716  -74.8391  -87.0161 C   0  0  0  0  0  0  0  0  0  0  0  0
  108.7936  -75.2206  -87.8485 C   0  0  0  0  0  0  0  0  0  0  0  0
  108.0995  -74.3918  -88.7318 C   0  0  0  0  0  0  0  0  0  0  0  0
  108.4750  -72.9907  -88.8491 C   0  0  0  0  0  0  0  0  0  0  0  0
  109.5629  -72.6441  -88.0124 C   0  0  0  0  0  0  0  0  0  0  0  0
  110.2893  -73.4410  -87.1168 C   0  0  0  0  0  0  0  0  0  0  0  0
  112.7641  -80.6897  -87.2201 N   0  3  0  0  0  0  0  0  0  0  0  0
  113.4398  -81.5427  -86.2489 C   0  0  0  0  0  0  0  0  0  0  0  0
  112.7221  -81.3194  -88.5583 C   0  0  0  0  0  0  0  0  0  0  0  0
  111.3109  -74.1310  -80.6436 N   0  0  0  0  0  0  0  0  0  0  0  0
  110.9840  -72.9196  -79.8587 C   0  0  0  0  0  0  0  0  0  0  0  0
  112.0147  -75.1552  -79.7934 C   0  0  0  0  0  0  0  0  0  0  0  0
  1  2  1  0  0  0  0
  1 14  1  0  0  0  0
  1 21  2  0  0  0  0
  2  3  2  0  0  0  0
  3  4  1  0  0  0  0
  3 12  1  0  0  0  0
  4  5  1  0  0  0  0
  5  6  1  0  0  0  0
  5 10  2  0  0  0  0
  6  7  2  0  0  0  0
  7  8  1  0  0  0  0
  7 24  1  0  0  0  0
  8  9  2  0  0  0  0
  9 10  1  0  0  0  0
 10 11  1  0  0  0  0
 11 12  2  0  0  0  0
 11 15  1  0  0  0  0
 12 13  1  0  0  0  0
 13 14  2  0  0  0  0
 15 16  2  0  0  0  0
 15 20  1  0  0  0  0
 16 17  1  0  0  0  0
 17 18  2  0  0  0  0
 18 19  1  0  0  0  0
 19 20  2  0  0  0  0
 21 22  1  0  0  0  0
 21 23  1  0  0  0  0
 24 25  1  0  0  0  0
 24 26  1  0  0  0  0
M  CHG  1  21   1
M  END
>  <CHROM.1>
176.98792310,-127.86493002,111.05659636,-76.23247371,-85.30427585,-1.25534888
-1.05239801,1.04522814

>  <Name>
1f1t Malachite green aptamer (Xray 2.8A)

>  <RI>
0

>  <Rbt.Current_Directory>
/home/itssahil/PROJECTS/Mol_Feturizer/New_Systems/rnas/1f1t

>  <Rbt.Executable>
rbdock ($Id: //depot/dev/client3/rdock/2013.1/src/exe/rbdock.cxx#4 $)

>  <Rbt.Library>
libRbt.so (2013.1, Build901 2013/11/27)

>  <Rbt.Parameter_File>
/export/apps/rDock/src/rDock_2013.1_src/data/scripts/dock_solv.prm

>  <Rbt.Receptor>
prm/pocket_docking_3.prm

>  <SCORE>
-58.8915

>  <SCORE.INTER>
-62.4784

>  <SCORE.INTER.CONST>
1

>  <SCORE.INTER.POLAR>
0

>  <SCORE.INTER.ROT>
2

>  <SCORE.INTER.SOLV>
11.1123

>  <SCORE.INTER.VDW>
-50.2897

>  <SCORE.INTER.norm>
-2.40301

>  <SCORE.INTRA>
3.58684

>  <SCORE.INTRA.DIHEDRAL>
-1.18134

>  <SCORE.INTRA.DIHEDRAL.0>
4.18538

>  <SCORE.INTRA.POLAR>
0

>  <SCORE.INTRA.POLAR.0>
0

>  <SCORE.INTRA.REPUL>
0

>  <SCORE.INTRA.REPUL.0>
0

>  <SCORE.INTRA.SOLV>
0.0178753

>  <SCORE.INTRA.SOLV.lig_0>
-5.16926

>  <SCORE.INTRA.VDW>
4.16857

>  <SCORE.INTRA.VDW.0>
1.11912

>  <SCORE.INTRA.norm>
0.137955

>  <SCORE.RESTR>
0

>  <SCORE.RESTR.CAVITY>
0

>  <SCORE.RESTR.norm>
0

>  <SCORE.SYSTEM>
0

>  <SCORE.SYSTEM.CONST>
0

>  <SCORE.SYSTEM.DIHEDRAL>
0

>  <SCORE.SYSTEM.SOLV>
0

>  <SCORE.SYSTEM.norm>
0

>  <SCORE.heavy>
26

>  <SCORE.norm>
-2.26506

>  <RMSD>
6.116

$$$$
1f1t Malachite green aptamer (Xray 2.8A)
 OpenBabel11021811393D
libRbt.so/2013.1/901 2013/11/27
 26 29  0  0  0  0  0  0  0  0999 V2000
  112.2411  -79.4452  -86.8833 C   0  0  0  0  0  0  0  0  0  0  0  0
  112.3691  -78.9548  -85.5190 C   0  0  0  0  0  0  0  0  0  0  0  0
  111.7896  -77.6984  -85.3321 C   0  0  0  0  0  0  0  0  0  0  0  0
  111.9479  -77.2459  -83.9215 O   0  0  0  0  0  0  0  0  0  0  0  0
  111.4064  -76.1023  -83.7576 C   0  0  0  0  0  0  0  0  0  0  0  0
  111.6237  -75.7440  -82.3561 C   0  0  0  0  0  0  0  0  0  0  0  0
  111.0651  -74.4704  -81.9827 C   0  0  0  0  0  0  0  0  0  0  0  0
  110.3578  -73.6491  -82.8953 C   0  0  0  0  0  0  0  0  0  0  0  0
  110.1845  -74.0584  -84.2766 C   0  0  0  0  0  0  0  0  0  0  0  0
  110.7485  -75.3242  -84.6766 C   0  0  0  0  0  0  0  0  0  0  0  0
  110.5365  -75.6657  -86.1327 C   0  0  0  0  0  0  0  0  0  0  0  0
  111.1387  -76.9272  -86.2887 C   0  0  0  0  0  0  0  0  0  0  0  0
  111.0264  -77.4351  -87.6577 C   0  0  0  0  0  0  0  0  0  0  0  0
  111.6091  -78.7216  -87.8759 C   0  0  0  0  0  0  0  0  0  0  0  0
  109.8719  -74.8339  -87.0138 C   0  0  0  0  0  0  0  0  0  0  0  0
  108.7899  -75.2121  -87.8425 C   0  0  0  0  0  0  0  0  0  0  0  0
  108.0963  -74.3817  -88.7246 C   0  0  0  0  0  0  0  0  0  0  0  0
  108.4767  -72.9822  -88.8446 C   0  0  0  0  0  0  0  0  0  0  0  0
  109.5686  -72.6388  -88.0117 C   0  0  0  0  0  0  0  0  0  0  0  0
  110.2947  -73.4374  -87.1174 C   0  0  0  0  0  0  0  0  0  0  0  0
  112.7635  -80.6846  -87.2261 N   0  3  0  0  0  0  0  0  0  0  0  0
  113.4387  -81.5392  -86.2561 C   0  0  0  0  0  0  0  0  0  0  0  0
  112.7219  -81.3121  -88.5654 C   0  0  0  0  0  0  0  0  0  0  0  0
  111.3091  -74.1362  -80.6396 N   0  0  0  0  0  0  0  0  0  0  0  0
  110.9750  -72.9294  -79.8508 C   0  0  0  0  0  0  0  0  0  0  0  0
  112.0212  -75.1580  -79.7935 C   0  0  0  0  0  0  0  0  0  0  0  0
  1  2  1  0  0  0  0
  1 14  1  0  0  0  0
  1 21  2  0  0  0  0
  2  3  2  0  0  0  0
  3  4  1  0  0  0  0
  3 12  1  0  0  0  0
  4  5  1  0  0  0  0
  5  6  1  0  0  0  0
  5 10  2  0  0  0  0
  6  7  2  0  0  0  0
  7  8  1  0  0  0  0
  7 24  1  0  0  0  0
  8  9  2  0  0  0  0
  9 10  1  0  0  0  0
 10 11  1  0  0  0  0
 11 12  2  0  0  0  0
 11 15  1  0  0  0  0
 12 13  1  0  0  0  0
 13 14  2  0  0  0  0
 15 16  2  0  0  0  0
 15 20  1  0  0  0  0
 16 17  1  0  0  0  0
 17 18  2  0  0  0  0
 18 19  1  0  0  0  0
 19 20  2  0  0  0  0
 21 22  1  0  0  0  0
 21 23  1  0  0  0  0
 24 25  1  0  0  0  0
 24 26  1  0  0  0  0
M  CHG  1  21   1
M  END
>  <CHROM.1>
177.41320770,-127.53525118,111.05620851,-76.23011913,-85.30384971,-1.25486905
-1.05259985,1.04725701

>  <Name>
1f1t Malachite green aptamer (Xray 2.8A)

>  <RI>
0

>  <Rbt.Current_Directory>
/home/itssahil/PROJECTS/Mol_Feturizer/New_Systems/rnas/1f1t

>  <Rbt.Executable>
rbdock ($Id: //depot/dev/client3/rdock/2013.1/src/exe/rbdock.cxx#4 $)

>  <Rbt.Library>
libRbt.so (2013.1, Build901 2013/11/27)

>  <Rbt.Parameter_File>
/export/apps/rDock/src/rDock_2013.1_src/data/scripts/dock_solv.prm

>  <Rbt.Receptor>
prm/pocket_docking_5.prm

>  <SCORE>
-58.8825

>  <SCORE.INTER>
-62.4609

>  <SCORE.INTER.CONST>
1

>  <SCORE.INTER.POLAR>
0

>  <SCORE.INTER.ROT>
2

>  <SCORE.INTER.SOLV>
11.1124

>  <SCORE.INTER.VDW>
-50.2781

>  <SCORE.INTER.norm>
-2.40234

>  <SCORE.INTRA>
3.57841

>  <SCORE.INTRA.DIHEDRAL>
-1.16427

>  <SCORE.INTRA.DIHEDRAL.0>
4.18538

>  <SCORE.INTRA.POLAR>
0

>  <SCORE.INTRA.POLAR.0>
0

>  <SCORE.INTRA.REPUL>
0

>  <SCORE.INTRA.REPUL.0>
0

>  <SCORE.INTRA.SOLV>
0.0175198

>  <SCORE.INTRA.SOLV.lig_0>
-5.16926

>  <SCORE.INTRA.VDW>
4.15179

>  <SCORE.INTRA.VDW.0>
1.11912

>  <SCORE.INTRA.norm>
0.137631

>  <SCORE.RESTR>
0

>  <SCORE.RESTR.CAVITY>
0

>  <SCORE.RESTR.norm>
0

>  <SCORE.SYSTEM>
0

>  <SCORE.SYSTEM.CONST>
0

>  <SCORE.SYSTEM.DIHEDRAL>
0

>  <SCORE.SYSTEM.SOLV>
0

>  <SCORE.SYSTEM.norm>
0

>  <SCORE.heavy>
26

>  <SCORE.norm>
-2.26471

>  <RMSD>
6.116

$$$$
1f1t Malachite green aptamer (Xray 2.8A)
 OpenBabel11021811393D
libRbt.so/2013.1/901 2013/11/27
 26 29  0  0  0  0  0  0  0  0999 V2000
  112.2496  -79.4506  -86.8954 C   0  0  0  0  0  0  0  0  0  0  0  0
  112.3752  -78.9628  -85.5299 C   0  0  0  0  0  0  0  0  0  0  0  0
  111.7936  -77.7076  -85.3412 C   0  0  0  0  0  0  0  0  0  0  0  0
  111.9495  -77.2577  -83.9296 O   0  0  0  0  0  0  0  0  0  0  0  0
  111.4061  -76.1152  -83.7640 C   0  0  0  0  0  0  0  0  0  0  0  0
  111.6212  -75.7594  -82.3615 C   0  0  0  0  0  0  0  0  0  0  0  0
  111.0602  -74.4873  -81.9863 C   0  0  0  0  0  0  0  0  0  0  0  0
  110.3527  -73.6653  -82.8980 C   0  0  0  0  0  0  0  0  0  0  0  0
  110.1816  -74.0721  -84.2804 C   0  0  0  0  0  0  0  0  0  0  0  0
  110.7480  -75.3362  -84.6822 C   0  0  0  0  0  0  0  0  0  0  0  0
  110.5383  -75.6752  -86.1393 C   0  0  0  0  0  0  0  0  0  0  0  0
  111.1426  -76.9355  -86.2970 C   0  0  0  0  0  0  0  0  0  0  0  0
  111.0327  -77.4408  -87.6672 C   0  0  0  0  0  0  0  0  0  0  0  0
  111.6177  -78.7260  -87.8872 C   0  0  0  0  0  0  0  0  0  0  0  0
  109.8735  -74.8426  -87.0196 C   0  0  0  0  0  0  0  0  0  0  0  0
  108.7984  -75.2230  -87.8562 C   0  0  0  0  0  0  0  0  0  0  0  0
  108.1046  -74.3920  -88.7376 C   0  0  0  0  0  0  0  0  0  0  0  0
  108.4771  -72.9896  -88.8479 C   0  0  0  0  0  0  0  0  0  0  0  0
  109.5622  -72.6440  -88.0071 C   0  0  0  0  0  0  0  0  0  0  0  0
  110.2882  -73.4431  -87.1131 C   0  0  0  0  0  0  0  0  0  0  0  0
  112.7743  -80.6885  -87.2400 N   0  3  0  0  0  0  0  0  0  0  0  0
  113.4496  -81.5441  -86.2709 C   0  0  0  0  0  0  0  0  0  0  0  0
  112.7352  -81.3134  -88.5806 C   0  0  0  0  0  0  0  0  0  0  0  0
  111.3021  -74.1555  -80.6423 N   0  0  0  0  0  0  0  0  0  0  0  0
  110.9862  -72.9410  -79.8576 C   0  0  0  0  0  0  0  0  0  0  0  0
  111.9890  -75.1892  -79.7899 C   0  0  0  0  0  0  0  0  0  0  0  0
  1  2  1  0  0  0  0
  1 14  1  0  0  0  0
  1 21  2  0  0  0  0
  2  3  2  0  0  0  0
  3  4  1  0  0  0  0
  3 12  1  0  0  0  0
  4  5  1  0  0  0  0
  5  6  1  0  0  0  0
  5 10  2  0  0  0  0
  6  7  2  0  0  0  0
  7  8  1  0  0  0  0
  7 24  1  0  0  0  0
  8  9  2  0  0  0  0
  9 10  1  0  0  0  0
 10 11  1  0  0  0  0
 11 12  2  0  0  0  0
 11 15  1  0  0  0  0
 12 13  1  0  0  0  0
 13 14  2  0  0  0  0
 15 16  2  0  0  0  0
 15 20  1  0  0  0  0
 16 17  1  0  0  0  0
 17 18  2  0  0  0  0
 18 19  1  0  0  0  0
 19 20  2  0  0  0  0
 21 22  1  0  0  0  0
 21 23  1  0  0  0  0
 24 25  1  0  0  0  0
 24 26  1  0  0  0  0
M  CHG  1  21   1
M  END
>  <CHROM.1>
176.17048720,-127.94968474,111.05763712,-76.24055733,-85.31083208,-1.25125367
-1.05226770,1.05240399

>  <Name>
1f1t Malachite green aptamer (Xray 2.8A)

>  <RI>
0

>  <Rbt.Current_Directory>
/home/itssahil/PROJECTS/Mol_Feturizer/New_Systems/rnas/1f1t

>  <Rbt.Executable>
rbdock ($Id: //depot/dev/client3/rdock/2013.1/src/exe/rbdock.cxx#4 $)

>  <Rbt.Library>
libRbt.so (2013.1, Build901 2013/11/27)

>  <Rbt.Parameter_File>
/export/apps/rDock/src/rDock_2013.1_src/data/scripts/dock_solv.prm

>  <Rbt.Receptor>
prm/pocket_docking_7.prm

>  <SCORE>
-58.9394

>  <SCORE.INTER>
-62.5185

>  <SCORE.INTER.CONST>
1

>  <SCORE.INTER.POLAR>
0

>  <SCORE.INTER.ROT>
2

>  <SCORE.INTER.SOLV>
11.0939

>  <SCORE.INTER.VDW>
-50.3103

>  <SCORE.INTER.norm>
-2.40456

>  <SCORE.INTRA>
3.57909

>  <SCORE.INTRA.DIHEDRAL>
-1.1656

>  <SCORE.INTRA.DIHEDRAL.0>
4.18538

>  <SCORE.INTRA.POLAR>
0

>  <SCORE.INTRA.POLAR.0>
0

>  <SCORE.INTRA.REPUL>
0

>  <SCORE.INTRA.REPUL.0>
0

>  <SCORE.INTRA.SOLV>
0.0179293

>  <SCORE.INTRA.SOLV.lig_0>
-5.16926

>  <SCORE.INTRA.VDW>
4.15292

>  <SCORE.INTRA.VDW.0>
1.11912

>  <SCORE.INTRA.norm>
0.137657

>  <SCORE.RESTR>
0

>  <SCORE.RESTR.CAVITY>
0

>  <SCORE.RESTR.norm>
0

>  <SCORE.SYSTEM>
0

>  <SCORE.SYSTEM.CONST>
0

>  <SCORE.SYSTEM.DIHEDRAL>
0

>  <SCORE.SYSTEM.SOLV>
0

>  <SCORE.SYSTEM.norm>
0

>  <SCORE.heavy>
26

>  <SCORE.norm>
-2.2669

>  <RMSD>
6.116

$$$$
1f1t Malachite green aptamer (Xray 2.8A)
 OpenBabel11021811393D
libRbt.so/2013.1/901 2013/11/27
 26 29  0  0  0  0  0  0  0  0999 V2000
  112.2158  -79.4556  -86.9136 C   0  0  0  0  0  0  0  0  0  0  0  0
  112.3541  -78.9639  -85.5507 C   0  0  0  0  0  0  0  0  0  0  0  0
  111.7761  -77.7072  -85.3607 C   0  0  0  0  0  0  0  0  0  0  0  0
  111.9449  -77.2534  -83.9518 O   0  0  0  0  0  0  0  0  0  0  0  0
  111.4048  -76.1096  -83.7849 C   0  0  0  0  0  0  0  0  0  0  0  0
  111.6326  -75.7499  -82.3854 C   0  0  0  0  0  0  0  0  0  0  0  0
  111.0769  -74.4759  -82.0091 C   0  0  0  0  0  0  0  0  0  0  0  0
  110.3628  -73.6554  -82.9171 C   0  0  0  0  0  0  0  0  0  0  0  0
  110.1791  -74.0661  -84.2968 C   0  0  0  0  0  0  0  0  0  0  0  0
  110.7400  -75.3323  -84.6997 C   0  0  0  0  0  0  0  0  0  0  0  0
  110.5171  -75.6752  -86.1539 C   0  0  0  0  0  0  0  0  0  0  0  0
  111.1180  -76.9369  -86.3131 C   0  0  0  0  0  0  0  0  0  0  0  0
  110.9954  -77.4461  -87.6808 C   0  0  0  0  0  0  0  0  0  0  0  0
  111.5765  -78.7329  -87.9021 C   0  0  0  0  0  0  0  0  0  0  0  0
  109.8460  -74.8442  -87.0308 C   0  0  0  0  0  0  0  0  0  0  0  0
  108.7729  -75.2290  -87.8680 C   0  0  0  0  0  0  0  0  0  0  0  0
  108.0728  -74.3997  -88.7460 C   0  0  0  0  0  0  0  0  0  0  0  0
  108.4356  -72.9944  -88.8519 C   0  0  0  0  0  0  0  0  0  0  0  0
  109.5190  -72.6444  -88.0106 C   0  0  0  0  0  0  0  0  0  0  0  0
  110.2511  -73.4416  -87.1199 C   0  0  0  0  0  0  0  0  0  0  0  0
  112.7356  -80.6953  -87.2591 N   0  3  0  0  0  0  0  0  0  0  0  0
  113.4180  -81.5491  -86.2933 C   0  0  0  0  0  0  0  0  0  0  0  0
  112.6839  -81.3241  -88.5974 C   0  0  0  0  0  0  0  0  0  0  0  0
  111.3310  -74.1405  -80.6682 N   0  0  0  0  0  0  0  0  0  0  0  0
  111.0511  -72.9115  -79.8926 C   0  0  0  0  0  0  0  0  0  0  0  0
  111.9903  -75.1864  -79.8090 C   0  0  0  0  0  0  0  0  0  0  0  0
  1  2  1  0  0  0  0
  1 14  1  0  0  0  0
  1 21  2  0  0  0  0
  2  3  2  0  0  0  0
  3  4  1  0  0  0  0
  3 12  1  0  0  0  0
  4  5  1  0  0  0  0
  5  6  1  0  0  0  0
  5 10  2  0  0  0  0
  6  7  2  0  0  0  0
  7  8  1  0  0  0  0
  7 24  1  0  0  0  0
  8  9  2  0  0  0  0
  9 10  1  0  0  0  0
 10 11  1  0  0  0  0
 11 12  2  0  0  0  0
 11 15  1  0  0  0  0
 12 13  1  0  0  0  0
 13 14  2  0  0  0  0
 15 16  2  0  0  0  0
 15 20  1  0  0  0  0
 16 17  1  0  0  0  0
 17 18  2  0  0  0  0
 18 19  1  0  0  0  0
 19 20  2  0  0  0  0
 21 22  1  0  0  0  0
 21 23  1  0  0  0  0
 24 25  1  0  0  0  0
 24 26  1  0  0  0  0
M  CHG  1  21   1
M  END
>  <CHROM.1>
174.57489797,-128.70460891,111.04235218,-76.23902255,-85.32814058,-1.26799208
-1.04977045,1.03494995

>  <Name>
1f1t Malachite green aptamer (Xray 2.8A)

>  <RI>
0

>  <Rbt.Current_Directory>
/home/itssahil/PROJECTS/Mol_Feturizer/New_Systems/rnas/1f1t

>  <Rbt.Executable>
rbdock ($Id: //depot/dev/client3/rdock/2013.1/src/exe/rbdock.cxx#4 $)

>  <Rbt.Library>
libRbt.so (2013.1, Build901 2013/11/27)

>  <Rbt.Parameter_File>
/export/apps/rDock/src/rDock_2013.1_src/data/scripts/dock_solv.prm

>  <Rbt.Receptor>
prm/pocket_docking_5.prm

>  <SCORE>
-58.8521

>  <SCORE.INTER>
-62.4381

>  <SCORE.INTER.CONST>
1

>  <SCORE.INTER.POLAR>
0

>  <SCORE.INTER.ROT>
2

>  <SCORE.INTER.SOLV>
11.091

>  <SCORE.INTER.VDW>
-50.2557

>  <SCORE.INTER.norm>
-2.40146

>  <SCORE.INTRA>
3.58593

>  <SCORE.INTRA.DIHEDRAL>
-1.16826

>  <SCORE.INTRA.DIHEDRAL.0>
4.18538

>  <SCORE.INTRA.POLAR>
0

>  <SCORE.INTRA.POLAR.0>
0

>  <SCORE.INTRA.REPUL>
0

>  <SCORE.INTRA.REPUL.0>
0

>  <SCORE.INTRA.SOLV>
0.0186775

>  <SCORE.INTRA.SOLV.lig_0>
-5.16926

>  <SCORE.INTRA.VDW>
4.16072

>  <SCORE.INTRA.VDW.0>
1.11912

>  <SCORE.INTRA.norm>
0.13792

>  <SCORE.RESTR>
0

>  <SCORE.RESTR.CAVITY>
0

>  <SCORE.RESTR.norm>
0

>  <SCORE.SYSTEM>
0

>  <SCORE.SYSTEM.CONST>
0

>  <SCORE.SYSTEM.DIHEDRAL>
0

>  <SCORE.SYSTEM.SOLV>
0

>  <SCORE.SYSTEM.norm>
0

>  <SCORE.heavy>
26

>  <SCORE.norm>
-2.26354

>  <RMSD>
6.117

$$$$
1f1t Malachite green aptamer (Xray 2.8A)
 OpenBabel11021811393D
libRbt.so/2013.1/901 2013/11/27
 26 29  0  0  0  0  0  0  0  0999 V2000
  112.2155  -79.4097  -86.9373 C   0  0  0  0  0  0  0  0  0  0  0  0
  112.3531  -78.9465  -85.5644 C   0  0  0  0  0  0  0  0  0  0  0  0
  111.7919  -77.6856  -85.3532 C   0  0  0  0  0  0  0  0  0  0  0  0
  111.9593  -77.2615  -83.9348 O   0  0  0  0  0  0  0  0  0  0  0  0
  111.4346  -76.1135  -83.7486 C   0  0  0  0  0  0  0  0  0  0  0  0
  111.6596  -75.7843  -82.3412 C   0  0  0  0  0  0  0  0  0  0  0  0
  111.1199  -74.5099  -81.9433 C   0  0  0  0  0  0  0  0  0  0  0  0
  110.4228  -73.6619  -82.8390 C   0  0  0  0  0  0  0  0  0  0  0  0
  110.2410  -74.0431  -84.2273 C   0  0  0  0  0  0  0  0  0  0  0  0
  110.7861  -75.3092  -84.6517 C   0  0  0  0  0  0  0  0  0  0  0  0
  110.5666  -75.6207  -86.1135 C   0  0  0  0  0  0  0  0  0  0  0  0
  111.1503  -76.8876  -86.2939 C   0  0  0  0  0  0  0  0  0  0  0  0
  111.0282  -77.3684  -87.6719 C   0  0  0  0  0  0  0  0  0  0  0  0
  111.5921  -78.6589  -87.9150 C   0  0  0  0  0  0  0  0  0  0  0  0
  109.9124  -74.7633  -86.9777 C   0  0  0  0  0  0  0  0  0  0  0  0
  110.2202  -73.3959  -87.1668 C   0  0  0  0  0  0  0  0  0  0  0  0
  109.5820  -72.5203  -88.0472 C   0  0  0  0  0  0  0  0  0  0  0  0
  108.4892  -73.0045  -88.8773 C   0  0  0  0  0  0  0  0  0  0  0  0
  108.1989  -74.3723  -88.6561 C   0  0  0  0  0  0  0  0  0  0  0  0
  108.8083  -75.2842  -87.7834 C   0  0  0  0  0  0  0  0  0  0  0  0
  112.7194  -80.6498  -87.3040 N   0  3  0  0  0  0  0  0  0  0  0  0
  113.3841  -81.5318  -86.3513 C   0  0  0  0  0  0  0  0  0  0  0  0
  112.6663  -81.2518  -88.6545 C   0  0  0  0  0  0  0  0  0  0  0  0
  111.3712  -74.2042  -80.5947 N   0  0  0  0  0  0  0  0  0  0  0  0
  111.0703  -73.0010  -79.7873 C   0  0  0  0  0  0  0  0  0  0  0  0
  112.0526  -75.2591  -79.7641 C   0  0  0  0  0  0  0  0  0  0  0  0
  1  2  1  0  0  0  0
  1 14  1  0  0  0  0
  1 21  2  0  0  0  0
  2  3  2  0  0  0  0
  3  4  1  0  0  0  0
  3 12  1  0  0  0  0
  4  5  1  0  0  0  0
  5  6  1  0  0  0  0
  5 10  2  0  0  0  0
  6  7  2  0  0  0  0
  7  8  1  0  0  0  0
  7 24  1  0  0  0  0
  8  9  2  0  0  0  0
  9 10  1  0  0  0  0
 10 11  1  0  0  0  0
 11 12  2  0  0  0  0
 11 15  1  0  0  0  0
 12 13  1  0  0  0  0
 13 14  2  0  0  0  0
 15 16  2  0  0  0  0
 15 20  1  0  0  0  0
 16 17  1  0  0  0  0
 17 18  2  0  0  0  0
 18 19  1  0  0  0  0
 19 20  2  0  0  0  0
 21 22  1  0  0  0  0
 21 23  1  0  0  0  0
 24 25  1  0  0  0  0
 24 26  1  0  0  0  0
M  CHG  1  21   1
M  END
>  <CHROM.1>
176.56632456,52.16801564,111.07201025,-76.22429661,-85.30693384,-1.29348264
-1.06010325,1.04741303

>  <Name>
1f1t Malachite green aptamer (Xray 2.8A)

>  <RI>
0

>  <Rbt.Current_Directory>
/home/itssahil/PROJECTS/Mol_Feturizer/New_Systems/rnas/1f1t

>  <Rbt.Executable>
rbdock ($Id: //depot/dev/client3/rdock/2013.1/src/exe/rbdock.cxx#4 $)

>  <Rbt.Library>
libRbt.so (2013.1, Build901 2013/11/27)

>  <Rbt.Parameter_File>
/export/apps/rDock/src/rDock_2013.1_src/data/scripts/dock_solv.prm

>  <Rbt.Receptor>
prm/pocket_docking_5.prm

>  <SCORE>
-59.7216

>  <SCORE.INTER>
-63.1068

>  <SCORE.INTER.CONST>
1

>  <SCORE.INTER.POLAR>
0

>  <SCORE.INTER.ROT>
2

>  <SCORE.INTER.SOLV>
11.0709

>  <SCORE.INTER.VDW>
-50.6948

>  <SCORE.INTER.norm>
-2.42718

>  <SCORE.INTRA>
3.38521

>  <SCORE.INTRA.DIHEDRAL>
-1.16763

>  <SCORE.INTRA.DIHEDRAL.0>
4.18538

>  <SCORE.INTRA.POLAR>
0

>  <SCORE.INTRA.POLAR.0>
0

>  <SCORE.INTRA.REPUL>
0

>  <SCORE.INTRA.REPUL.0>
0

>  <SCORE.INTRA.SOLV>
0.0177088

>  <SCORE.INTRA.SOLV.lig_0>
-5.16926

>  <SCORE.INTRA.VDW>
3.96017

>  <SCORE.INTRA.VDW.0>
1.11912

>  <SCORE.INTRA.norm>
0.1302

>  <SCORE.RESTR>
0

>  <SCORE.RESTR.CAVITY>
0

>  <SCORE.RESTR.norm>
0

>  <SCORE.SYSTEM>
0

>  <SCORE.SYSTEM.CONST>
0

>  <SCORE.SYSTEM.DIHEDRAL>
0

>  <SCORE.SYSTEM.SOLV>
0

>  <SCORE.SYSTEM.norm>
0

>  <SCORE.heavy>
26

>  <SCORE.norm>
-2.29698

>  <RMSD>
6.117

$$$$
1f1t Malachite green aptamer (Xray 2.8A)
 OpenBabel11021811393D
libRbt.so/2013.1/901 2013/11/27
 26 29  0  0  0  0  0  0  0  0999 V2000
  112.2436  -79.4471  -86.8930 C   0  0  0  0  0  0  0  0  0  0  0  0
  112.3701  -78.9574  -85.5283 C   0  0  0  0  0  0  0  0  0  0  0  0
  111.7897  -77.7015  -85.3412 C   0  0  0  0  0  0  0  0  0  0  0  0
  111.9464  -77.2497  -83.9302 O   0  0  0  0  0  0  0  0  0  0  0  0
  111.4042  -76.1065  -83.7660 C   0  0  0  0  0  0  0  0  0  0  0  0
  111.6199  -75.7490  -82.3641 C   0  0  0  0  0  0  0  0  0  0  0  0
  111.0602  -74.4759  -81.9906 C   0  0  0  0  0  0  0  0  0  0  0  0
  110.3533  -73.6544  -82.9032 C   0  0  0  0  0  0  0  0  0  0  0  0
  110.1815  -74.0630  -84.2850 C   0  0  0  0  0  0  0  0  0  0  0  0
  110.7466  -75.3282  -84.6852 C   0  0  0  0  0  0  0  0  0  0  0  0
  110.5362  -75.6690  -86.1418 C   0  0  0  0  0  0  0  0  0  0  0  0
  111.1392  -76.9300  -86.2979 C   0  0  0  0  0  0  0  0  0  0  0  0
  111.0285  -77.4372  -87.6674 C   0  0  0  0  0  0  0  0  0  0  0  0
  111.6122  -78.7233  -87.8857 C   0  0  0  0  0  0  0  0  0  0  0  0
  109.8720  -74.8370  -87.0230 C   0  0  0  0  0  0  0  0  0  0  0  0
  108.7966  -75.2176  -87.8592 C   0  0  0  0  0  0  0  0  0  0  0  0
  108.1033  -74.3872  -88.7416 C   0  0  0  0  0  0  0  0  0  0  0  0
  108.4767  -72.9851  -88.8536 C   0  0  0  0  0  0  0  0  0  0  0  0
  109.5621  -72.6393  -88.0131 C   0  0  0  0  0  0  0  0  0  0  0  0
  110.2876  -73.4379  -87.1182 C   0  0  0  0  0  0  0  0  0  0  0  0
  112.7671  -80.6859  -87.2361 N   0  3  0  0  0  0  0  0  0  0  0  0
  113.4419  -81.5408  -86.2659 C   0  0  0  0  0  0  0  0  0  0  0  0
  112.7271  -81.3126  -88.5758 C   0  0  0  0  0  0  0  0  0  0  0  0
  111.3028  -74.1424  -80.6470 N   0  0  0  0  0  0  0  0  0  0  0  0
  111.0026  -72.9203  -79.8681 C   0  0  0  0  0  0  0  0  0  0  0  0
  111.9715  -75.1829  -79.7884 C   0  0  0  0  0  0  0  0  0  0  0  0
  1  2  1  0  0  0  0
  1 14  1  0  0  0  0
  1 21  2  0  0  0  0
  2  3  2  0  0  0  0
  3  4  1  0  0  0  0
  3 12  1  0  0  0  0
  4  5  1  0  0  0  0
  5  6  1  0  0  0  0
  5 10  2  0  0  0  0
  6  7  2  0  0  0  0
  7  8  1  0  0  0  0
  7 24  1  0  0  0  0
  8  9  2  0  0  0  0
  9 10  1  0  0  0  0
 10 11  1  0  0  0  0
 11 12  2  0  0  0  0
 11 15  1  0  0  0  0
 12 13  1  0  0  0  0
 13 14  2  0  0  0  0
 15 16  2  0  0  0  0
 15 20  1  0  0  0  0
 16 17  1  0  0  0  0
 17 18  2  0  0  0  0
 18 19  1  0  0  0  0
 19 20  2  0  0  0  0
 21 22  1  0  0  0  0
 21 23  1  0  0  0  0
 24 25  1  0  0  0  0
 24 26  1  0  0  0  0
M  CHG  1  21   1
M  END
>  <CHROM.1>
175.33239251,-127.97341330,111.05504222,-76.23372386,-85.31259041,-1.25260927
-1.05325805,1.04987530

>  <Name>
1f1t Malachite green aptamer (Xray 2.8A)

>  <RI>
0

>  <Rbt.Current_Directory>
/home/itssahil/PROJECTS/Mol_Feturizer/New_Systems/rnas/1f1t

>  <Rbt.Executable>
rbdock ($Id: //depot/dev/client3/rdock/2013.1/src/exe/rbdock.cxx#4 $)

>  <Rbt.Library>
libRbt.so (2013.1, Build901 2013/11/27)

>  <Rbt.Parameter_File>
/export/apps/rDock/src/rDock_2013.1_src/data/scripts/dock_solv.prm

>  <Rbt.Receptor>
prm/pocket_docking_6.prm

>  <SCORE>
-58.8829

>  <SCORE.INTER>
-62.4496

>  <SCORE.INTER.CONST>
1

>  <SCORE.INTER.POLAR>
0

>  <SCORE.INTER.ROT>
2

>  <SCORE.INTER.SOLV>
11.1103

>  <SCORE.INTER.VDW>
-50.2698

>  <SCORE.INTER.norm>
-2.40191

>  <SCORE.INTRA>
3.56674

>  <SCORE.INTRA.DIHEDRAL>
-1.13896

>  <SCORE.INTRA.DIHEDRAL.0>
4.18538

>  <SCORE.INTRA.POLAR>
0

>  <SCORE.INTRA.POLAR.0>
0

>  <SCORE.INTRA.REPUL>
0

>  <SCORE.INTRA.REPUL.0>
0

>  <SCORE.INTRA.SOLV>
0.0179049

>  <SCORE.INTRA.SOLV.lig_0>
-5.16926

>  <SCORE.INTRA.VDW>
4.12727

>  <SCORE.INTRA.VDW.0>
1.11912

>  <SCORE.INTRA.norm>
0.137182

>  <SCORE.RESTR>
0

>  <SCORE.RESTR.CAVITY>
0

>  <SCORE.RESTR.norm>
0

>  <SCORE.SYSTEM>
0

>  <SCORE.SYSTEM.CONST>
0

>  <SCORE.SYSTEM.DIHEDRAL>
0

>  <SCORE.SYSTEM.SOLV>
0

>  <SCORE.SYSTEM.norm>
0

>  <SCORE.heavy>
26

>  <SCORE.norm>
-2.26473

>  <RMSD>
6.117

$$$$
1f1t Malachite green aptamer (Xray 2.8A)
 OpenBabel11021811393D
libRbt.so/2013.1/901 2013/11/27
 26 29  0  0  0  0  0  0  0  0999 V2000
  112.2180  -79.4484  -86.9104 C   0  0  0  0  0  0  0  0  0  0  0  0
  112.3523  -78.9619  -85.5453 C   0  0  0  0  0  0  0  0  0  0  0  0
  111.7740  -77.7058  -85.3523 C   0  0  0  0  0  0  0  0  0  0  0  0
  111.9388  -77.2573  -83.9411 O   0  0  0  0  0  0  0  0  0  0  0  0
  111.3985  -76.1140  -83.7715 C   0  0  0  0  0  0  0  0  0  0  0  0
  111.6221  -75.7598  -82.3700 C   0  0  0  0  0  0  0  0  0  0  0  0
  111.0656  -74.4870  -81.9906 C   0  0  0  0  0  0  0  0  0  0  0  0
  110.3544  -73.6629  -82.8976 C   0  0  0  0  0  0  0  0  0  0  0  0
  110.1748  -74.0682  -84.2794 C   0  0  0  0  0  0  0  0  0  0  0  0
  110.7366  -75.3331  -84.6854 C   0  0  0  0  0  0  0  0  0  0  0  0
  110.5180  -75.6705  -86.1416 C   0  0  0  0  0  0  0  0  0  0  0  0
  111.1191  -76.9317  -86.3037 C   0  0  0  0  0  0  0  0  0  0  0  0
  111.0005  -77.4357  -87.6737 C   0  0  0  0  0  0  0  0  0  0  0  0
  111.5819  -78.7218  -87.8981 C   0  0  0  0  0  0  0  0  0  0  0  0
  109.8498  -74.8359  -87.0173 C   0  0  0  0  0  0  0  0  0  0  0  0
  108.7808  -75.2179  -87.8610 C   0  0  0  0  0  0  0  0  0  0  0  0
  108.0835  -74.3851  -88.7381 C   0  0  0  0  0  0  0  0  0  0  0  0
  108.4452  -72.9789  -88.8355 C   0  0  0  0  0  0  0  0  0  0  0  0
  109.5245  -72.6317  -87.9878 C   0  0  0  0  0  0  0  0  0  0  0  0
  110.2537  -73.4324  -87.0979 C   0  0  0  0  0  0  0  0  0  0  0  0
  112.7385  -80.6869  -87.2591 N   0  3  0  0  0  0  0  0  0  0  0  0
  113.4178  -81.5445  -86.2944 C   0  0  0  0  0  0  0  0  0  0  0  0
  112.6907  -81.3106  -88.5999 C   0  0  0  0  0  0  0  0  0  0  0  0
  111.3157  -74.1567  -80.6477 N   0  0  0  0  0  0  0  0  0  0  0  0
  111.0234  -72.9350  -79.8652 C   0  0  0  0  0  0  0  0  0  0  0  0
  111.9850  -75.2010  -79.7941 C   0  0  0  0  0  0  0  0  0  0  0  0
  1  2  1  0  0  0  0
  1 14  1  0  0  0  0
  1 21  2  0  0  0  0
  2  3  2  0  0  0  0
  3  4  1  0  0  0  0
  3 12  1  0  0  0  0
  4  5  1  0  0  0  0
  5  6  1  0  0  0  0
  5 10  2  0  0  0  0
  6  7  2  0  0  0  0
  7  8  1  0  0  0  0
  7 24  1  0  0  0  0
  8  9  2  0  0  0  0
  9 10  1  0  0  0  0
 10 11  1  0  0  0  0
 11 12  2  0  0  0  0
 11 15  1  0  0  0  0
 12 13  1  0  0  0  0
 13 14  2  0  0  0  0
 15 16  2  0  0  0  0
 15 20  1  0  0  0  0
 16 17  1  0  0  0  0
 17 18  2  0  0  0  0
 18 19  1  0  0  0  0
 19 20  2  0  0  0  0
 21 22  1  0  0  0  0
 21 23  1  0  0  0  0
 24 25  1  0  0  0  0
 24 26  1  0  0  0  0
M  CHG  1  21   1
M  END
>  <CHROM.1>
175.18247112,-128.83165802,111.04070861,-76.23749603,-85.31635563,-1.26308270
-1.05130512,1.04296371

>  <Name>
1f1t Malachite green aptamer (Xray 2.8A)

>  <RI>
0

>  <Rbt.Current_Directory>
/home/itssahil/PROJECTS/Mol_Feturizer/New_Systems/rnas/1f1t

>  <Rbt.Executable>
rbdock ($Id: //depot/dev/client3/rdock/2013.1/src/exe/rbdock.cxx#4 $)

>  <Rbt.Library>
libRbt.so (2013.1, Build901 2013/11/27)

>  <Rbt.Parameter_File>
/export/apps/rDock/src/rDock_2013.1_src/data/scripts/dock_solv.prm

>  <Rbt.Receptor>
prm/pocket_docking_7.prm

>  <SCORE>
-58.8891

>  <SCORE.INTER>
-62.492

>  <SCORE.INTER.CONST>
1

>  <SCORE.INTER.POLAR>
0

>  <SCORE.INTER.ROT>
2

>  <SCORE.INTER.SOLV>
11.0737

>  <SCORE.INTER.VDW>
-50.2859

>  <SCORE.INTER.norm>
-2.40354

>  <SCORE.INTRA>
3.60286

>  <SCORE.INTRA.DIHEDRAL>
-1.20347

>  <SCORE.INTRA.DIHEDRAL.0>
4.18538

>  <SCORE.INTRA.POLAR>
0

>  <SCORE.INTRA.POLAR.0>
0

>  <SCORE.INTRA.REPUL>
0

>  <SCORE.INTRA.REPUL.0>
0

>  <SCORE.INTRA.SOLV>
0.0188637

>  <SCORE.INTRA.SOLV.lig_0>
-5.16926

>  <SCORE.INTRA.VDW>
4.19516

>  <SCORE.INTRA.VDW.0>
1.11912

>  <SCORE.INTRA.norm>
0.138571

>  <SCORE.RESTR>
0

>  <SCORE.RESTR.CAVITY>
0

>  <SCORE.RESTR.norm>
0

>  <SCORE.SYSTEM>
0

>  <SCORE.SYSTEM.CONST>
0

>  <SCORE.SYSTEM.DIHEDRAL>
0

>  <SCORE.SYSTEM.SOLV>
0

>  <SCORE.SYSTEM.norm>
0

>  <SCORE.heavy>
26

>  <SCORE.norm>
-2.26497

>  <RMSD>
6.117

$$$$
1f1t Malachite green aptamer (Xray 2.8A)
 OpenBabel11021811393D
libRbt.so/2013.1/901 2013/11/27
 26 29  0  0  0  0  0  0  0  0999 V2000
  112.2505  -79.4430  -86.8939 C   0  0  0  0  0  0  0  0  0  0  0  0
  112.3734  -78.9571  -85.5275 C   0  0  0  0  0  0  0  0  0  0  0  0
  111.7937  -77.7011  -85.3388 C   0  0  0  0  0  0  0  0  0  0  0  0
  111.9467  -77.2532  -83.9261 O   0  0  0  0  0  0  0  0  0  0  0  0
  111.4050  -76.1099  -83.7606 C   0  0  0  0  0  0  0  0  0  0  0  0
  111.6170  -75.7562  -82.3572 C   0  0  0  0  0  0  0  0  0  0  0  0
  111.0575  -74.4835  -81.9819 C   0  0  0  0  0  0  0  0  0  0  0  0
  110.3540  -73.6590  -82.8945 C   0  0  0  0  0  0  0  0  0  0  0  0
  110.1859  -74.0638  -84.2778 C   0  0  0  0  0  0  0  0  0  0  0  0
  110.7509  -75.3285  -84.6796 C   0  0  0  0  0  0  0  0  0  0  0  0
  110.5445  -75.6653  -86.1377 C   0  0  0  0  0  0  0  0  0  0  0  0
  111.1467  -76.9265  -86.2954 C   0  0  0  0  0  0  0  0  0  0  0  0
  111.0395  -77.4299  -87.6665 C   0  0  0  0  0  0  0  0  0  0  0  0
  111.6226  -78.7160  -87.8865 C   0  0  0  0  0  0  0  0  0  0  0  0
  109.8837  -74.8303  -87.0187 C   0  0  0  0  0  0  0  0  0  0  0  0
  108.7938  -75.2011  -87.8404 C   0  0  0  0  0  0  0  0  0  0  0  0
  108.1039  -74.3673  -88.7223 C   0  0  0  0  0  0  0  0  0  0  0  0
  108.4974  -72.9721  -88.8496 C   0  0  0  0  0  0  0  0  0  0  0  0
  109.5968  -72.6362  -88.0235 C   0  0  0  0  0  0  0  0  0  0  0  0
  110.3195  -73.4385  -87.1298 C   0  0  0  0  0  0  0  0  0  0  0  0
  112.7737  -80.6815  -87.2386 N   0  3  0  0  0  0  0  0  0  0  0  0
  113.4448  -81.5396  -86.2687 C   0  0  0  0  0  0  0  0  0  0  0  0
  112.7370  -81.3047  -88.5800 C   0  0  0  0  0  0  0  0  0  0  0  0
  111.2965  -74.1538  -80.6367 N   0  0  0  0  0  0  0  0  0  0  0  0
  110.9870  -72.9370  -79.8533 C   0  0  0  0  0  0  0  0  0  0  0  0
  111.9715  -75.1931  -79.7817 C   0  0  0  0  0  0  0  0  0  0  0  0
  1  2  1  0  0  0  0
  1 14  1  0  0  0  0
  1 21  2  0  0  0  0
  2  3  2  0  0  0  0
  3  4  1  0  0  0  0
  3 12  1  0  0  0  0
  4  5  1  0  0  0  0
  5  6  1  0  0  0  0
  5 10  2  0  0  0  0
  6  7  2  0  0  0  0
  7  8  1  0  0  0  0
  7 24  1  0  0  0  0
  8  9  2  0  0  0  0
  9 10  1  0  0  0  0
 10 11  1  0  0  0  0
 11 12  2  0  0  0  0
 11 15  1  0  0  0  0
 12 13  1  0  0  0  0
 13 14  2  0  0  0  0
 15 16  2  0  0  0  0
 15 20  1  0  0  0  0
 16 17  1  0  0  0  0
 17 18  2  0  0  0  0
 18 19  1  0  0  0  0
 19 20  2  0  0  0  0
 21 22  1  0  0  0  0
 21 23  1  0  0  0  0
 24 25  1  0  0  0  0
 24 26  1  0  0  0  0
M  CHG  1  21   1
M  END
>  <CHROM.1>
175.80727274,-126.69106205,111.06061129,-76.23265532,-85.30866421,-1.24819868
-1.05549188,1.05638119

>  <Name>
1f1t Malachite green aptamer (Xray 2.8A)

>  <RI>
0

>  <Rbt.Current_Directory>
/home/itssahil/PROJECTS/Mol_Feturizer/New_Systems/rnas/1f1t

>  <Rbt.Executable>
rbdock ($Id: //depot/dev/client3/rdock/2013.1/src/exe/rbdock.cxx#4 $)

>  <Rbt.Library>
libRbt.so (2013.1, Build901 2013/11/27)

>  <Rbt.Parameter_File>
/export/apps/rDock/src/rDock_2013.1_src/data/scripts/dock_solv.prm

>  <Rbt.Receptor>
prm/pocket_docking_7.prm

>  <SCORE>
-58.8753

>  <SCORE.INTER>
-62.399

>  <SCORE.INTER.CONST>
1

>  <SCORE.INTER.POLAR>
0

>  <SCORE.INTER.ROT>
2

>  <SCORE.INTER.SOLV>
11.1139

>  <SCORE.INTER.VDW>
-50.2373

>  <SCORE.INTER.norm>
-2.39996

>  <SCORE.INTRA>
3.52367

>  <SCORE.INTRA.DIHEDRAL>
-1.0519

>  <SCORE.INTRA.DIHEDRAL.0>
4.18538

>  <SCORE.INTRA.POLAR>
0

>  <SCORE.INTRA.POLAR.0>
0

>  <SCORE.INTRA.REPUL>
0

>  <SCORE.INTRA.REPUL.0>
0

>  <SCORE.INTRA.SOLV>
0.0164747

>  <SCORE.INTRA.SOLV.lig_0>
-5.16926

>  <SCORE.INTRA.VDW>
4.04138

>  <SCORE.INTRA.VDW.0>
1.11912

>  <SCORE.INTRA.norm>
0.135526

>  <SCORE.RESTR>
0

>  <SCORE.RESTR.CAVITY>
0

>  <SCORE.RESTR.norm>
0

>  <SCORE.SYSTEM>
0

>  <SCORE.SYSTEM.CONST>
0

>  <SCORE.SYSTEM.DIHEDRAL>
0

>  <SCORE.SYSTEM.SOLV>
0

>  <SCORE.SYSTEM.norm>
0

>  <SCORE.heavy>
26

>  <SCORE.norm>
-2.26444

>  <RMSD>
6.117

$$$$
1f1t Malachite green aptamer (Xray 2.8A)
 OpenBabel11021811393D
libRbt.so/2013.1/901 2013/11/27
 26 29  0  0  0  0  0  0  0  0999 V2000
  112.2552  -79.4386  -86.9158 C   0  0  0  0  0  0  0  0  0  0  0  0
  112.3828  -78.9552  -85.5489 C   0  0  0  0  0  0  0  0  0  0  0  0
  111.7985  -77.7021  -85.3546 C   0  0  0  0  0  0  0  0  0  0  0  0
  111.9565  -77.2567  -83.9417 O   0  0  0  0  0  0  0  0  0  0  0  0
  111.4107  -76.1162  -83.7709 C   0  0  0  0  0  0  0  0  0  0  0  0
  111.6281  -75.7647  -82.3678 C   0  0  0  0  0  0  0  0  0  0  0  0
  111.0648  -74.4953  -81.9869 C   0  0  0  0  0  0  0  0  0  0  0  0
  110.3533  -73.6719  -82.8941 C   0  0  0  0  0  0  0  0  0  0  0  0
  110.1800  -74.0743  -84.2775 C   0  0  0  0  0  0  0  0  0  0  0  0
  110.7486  -75.3357  -84.6850 C   0  0  0  0  0  0  0  0  0  0  0  0
  110.5364  -75.6701  -86.1427 C   0  0  0  0  0  0  0  0  0  0  0  0
  111.1434  -76.9283  -86.3062 C   0  0  0  0  0  0  0  0  0  0  0  0
  111.0316  -77.4292  -87.6779 C   0  0  0  0  0  0  0  0  0  0  0  0
  111.6193  -78.7122  -87.9037 C   0  0  0  0  0  0  0  0  0  0  0  0
  109.8676  -74.8361  -87.0186 C   0  0  0  0  0  0  0  0  0  0  0  0
  108.7951  -75.2175  -87.8580 C   0  0  0  0  0  0  0  0  0  0  0  0
  108.0972  -74.3853  -88.7351 C   0  0  0  0  0  0  0  0  0  0  0  0
  108.4620  -72.9802  -88.8371 C   0  0  0  0  0  0  0  0  0  0  0  0
  109.5448  -72.6336  -87.9936 C   0  0  0  0  0  0  0  0  0  0  0  0
  110.2747  -73.4338  -87.1039 C   0  0  0  0  0  0  0  0  0  0  0  0
  112.7821  -80.6740  -87.2659 N   0  3  0  0  0  0  0  0  0  0  0  0
  113.4618  -81.5313  -86.3012 C   0  0  0  0  0  0  0  0  0  0  0  0
  112.7415  -81.2944  -88.6085 C   0  0  0  0  0  0  0  0  0  0  0  0
  111.3090  -74.1675  -80.6422 N   0  0  0  0  0  0  0  0  0  0  0  0
  111.0136  -72.9470  -79.8589 C   0  0  0  0  0  0  0  0  0  0  0  0
  111.9740  -75.2135  -79.7875 C   0  0  0  0  0  0  0  0  0  0  0  0
  1  2  1  0  0  0  0
  1 14  1  0  0  0  0
  1 21  2  0  0  0  0
  2  3  2  0  0  0  0
  3  4  1  0  0  0  0
  3 12  1  0  0  0  0
  4  5  1  0  0  0  0
  5  6  1  0  0  0  0
  5 10  2  0  0  0  0
  6  7  2  0  0  0  0
  7  8  1  0  0  0  0
  7 24  1  0  0  0  0
  8  9  2  0  0  0  0
  9 10  1  0  0  0  0
 10 11  1  0  0  0  0
 11 12  2  0  0  0  0
 11 15  1  0  0  0  0
 12 13  1  0  0  0  0
 13 14  2  0  0  0  0
 15 16  2  0  0  0  0
 15 20  1  0  0  0  0
 16 17  1  0  0  0  0
 17 18  2  0  0  0  0
 18 19  1  0  0  0  0
 19 20  2  0  0  0  0
 21 22  1  0  0  0  0
 21 23  1  0  0  0  0
 24 25  1  0  0  0  0
 24 26  1  0  0  0  0
M  CHG  1  21   1
M  END
>  <CHROM.1>
174.90313887,-128.22096859,111.05876607,-76.23709414,-85.31732165,-1.25276707
-1.04943043,1.05459452

>  <Name>
1f1t Malachite green aptamer (Xray 2.8A)

>  <RI>
0

>  <Rbt.Current_Directory>
/home/itssahil/PROJECTS/Mol_Feturizer/New_Systems/rnas/1f1t

>  <Rbt.Executable>
rbdock ($Id: //depot/dev/client3/rdock/2013.1/src/exe/rbdock.cxx#4 $)

>  <Rbt.Library>
libRbt.so (2013.1, Build901 2013/11/27)

>  <Rbt.Parameter_File>
/export/apps/rDock/src/rDock_2013.1_src/data/scripts/dock_solv.prm

>  <Rbt.Receptor>
prm/pocket_docking_7.prm

>  <SCORE>
-58.8458

>  <SCORE.INTER>
-62.4158

>  <SCORE.INTER.CONST>
1

>  <SCORE.INTER.POLAR>
0

>  <SCORE.INTER.ROT>
2

>  <SCORE.INTER.SOLV>
11.0888

>  <SCORE.INTER.VDW>
-50.2401

>  <SCORE.INTER.norm>
-2.40061

>  <SCORE.INTRA>
3.57001

>  <SCORE.INTRA.DIHEDRAL>
-1.14243

>  <SCORE.INTRA.DIHEDRAL.0>
4.18538

>  <SCORE.INTRA.POLAR>
0

>  <SCORE.INTRA.POLAR.0>
0

>  <SCORE.INTRA.REPUL>
0

>  <SCORE.INTRA.REPUL.0>
0

>  <SCORE.INTRA.SOLV>
0.0181557

>  <SCORE.INTRA.SOLV.lig_0>
-5.16926

>  <SCORE.INTRA.VDW>
4.13215

>  <SCORE.INTRA.VDW.0>
1.11912

>  <SCORE.INTRA.norm>
0.137308

>  <SCORE.RESTR>
0

>  <SCORE.RESTR.CAVITY>
0

>  <SCORE.RESTR.norm>
0

>  <SCORE.SYSTEM>
0

>  <SCORE.SYSTEM.CONST>
0

>  <SCORE.SYSTEM.DIHEDRAL>
0

>  <SCORE.SYSTEM.SOLV>
0

>  <SCORE.SYSTEM.norm>
0

>  <SCORE.heavy>
26

>  <SCORE.norm>
-2.2633

>  <RMSD>
6.117

$$$$
1f1t Malachite green aptamer (Xray 2.8A)
 OpenBabel11021811393D
libRbt.so/2013.1/901 2013/11/27
 26 29  0  0  0  0  0  0  0  0999 V2000
  112.2355  -79.4122  -86.9500 C   0  0  0  0  0  0  0  0  0  0  0  0
  112.3685  -78.9502  -85.5762 C   0  0  0  0  0  0  0  0  0  0  0  0
  111.8015  -77.6920  -85.3643 C   0  0  0  0  0  0  0  0  0  0  0  0
  111.9643  -77.2692  -83.9451 O   0  0  0  0  0  0  0  0  0  0  0  0
  111.4343  -76.1237  -83.7584 C   0  0  0  0  0  0  0  0  0  0  0  0
  111.6552  -75.7954  -82.3501 C   0  0  0  0  0  0  0  0  0  0  0  0
  111.1093  -74.5239  -81.9515 C   0  0  0  0  0  0  0  0  0  0  0  0
  110.4102  -73.6777  -82.8474 C   0  0  0  0  0  0  0  0  0  0  0  0
  110.2328  -74.0578  -84.2366 C   0  0  0  0  0  0  0  0  0  0  0  0
  110.7841  -75.3210  -84.6617 C   0  0  0  0  0  0  0  0  0  0  0  0
  110.5688  -75.6315  -86.1243 C   0  0  0  0  0  0  0  0  0  0  0  0
  111.1583  -76.8956  -86.3053 C   0  0  0  0  0  0  0  0  0  0  0  0
  111.0409  -77.3751  -87.6841 C   0  0  0  0  0  0  0  0  0  0  0  0
  111.6108  -78.6628  -87.9278 C   0  0  0  0  0  0  0  0  0  0  0  0
  109.9125  -74.7758  -86.9886 C   0  0  0  0  0  0  0  0  0  0  0  0
  110.2083  -73.4044  -87.1681 C   0  0  0  0  0  0  0  0  0  0  0  0
  109.5681  -72.5302  -88.0483 C   0  0  0  0  0  0  0  0  0  0  0  0
  108.4861  -73.0205  -88.8890 C   0  0  0  0  0  0  0  0  0  0  0  0
  108.2075  -74.3922  -88.6774 C   0  0  0  0  0  0  0  0  0  0  0  0
  108.8195  -75.3030  -87.8051 C   0  0  0  0  0  0  0  0  0  0  0  0
  112.7455  -80.6496  -87.3173 N   0  3  0  0  0  0  0  0  0  0  0  0
  113.4122  -81.5301  -86.3645 C   0  0  0  0  0  0  0  0  0  0  0  0
  112.6977  -81.2501  -88.6687 C   0  0  0  0  0  0  0  0  0  0  0  0
  111.3567  -74.2189  -80.6021 N   0  0  0  0  0  0  0  0  0  0  0  0
  111.0642  -73.0114  -79.7979 C   0  0  0  0  0  0  0  0  0  0  0  0
  112.0224  -75.2797  -79.7664 C   0  0  0  0  0  0  0  0  0  0  0  0
  1  2  1  0  0  0  0
  1 14  1  0  0  0  0
  1 21  2  0  0  0  0
  2  3  2  0  0  0  0
  3  4  1  0  0  0  0
  3 12  1  0  0  0  0
  4  5  1  0  0  0  0
  5  6  1  0  0  0  0
  5 10  2  0  0  0  0
  6  7  2  0  0  0  0
  7  8  1  0  0  0  0
  7 24  1  0  0  0  0
  8  9  2  0  0  0  0
  9 10  1  0  0  0  0
 10 11  1  0  0  0  0
 11 12  2  0  0  0  0
 11 15  1  0  0  0  0
 12 13  1  0  0  0  0
 13 14  2  0  0  0  0
 15 16  2  0  0  0  0
 15 20  1  0  0  0  0
 16 17  1  0  0  0  0
 17 18  2  0  0  0  0
 18 19  1  0  0  0  0
 19 20  2  0  0  0  0
 21 22  1  0  0  0  0
 21 23  1  0  0  0  0
 24 25  1  0  0  0  0
 24 26  1  0  0  0  0
M  CHG  1  21   1
M  END
>  <CHROM.1>
175.67734485,51.67112808,111.07515676,-76.23400140,-85.31755554,-1.28575876
-1.05767758,1.05554849

>  <Name>
1f1t Malachite green aptamer (Xray 2.8A)

>  <RI>
0

>  <Rbt.Current_Directory>
/home/itssahil/PROJECTS/Mol_Feturizer/New_Systems/rnas/1f1t

>  <Rbt.Executable>
rbdock ($Id: //depot/dev/client3/rdock/2013.1/src/exe/rbdock.cxx#4 $)

>  <Rbt.Library>
libRbt.so (2013.1, Build901 2013/11/27)

>  <Rbt.Parameter_File>
/export/apps/rDock/src/rDock_2013.1_src/data/scripts/dock_solv.prm

>  <Rbt.Receptor>
prm/pocket_docking_2.prm

>  <SCORE>
-59.7406

>  <SCORE.INTER>
-63.1243

>  <SCORE.INTER.CONST>
1

>  <SCORE.INTER.POLAR>
0

>  <SCORE.INTER.ROT>
2

>  <SCORE.INTER.SOLV>
11.0661

>  <SCORE.INTER.VDW>
-50.7049

>  <SCORE.INTER.norm>
-2.42786

>  <SCORE.INTRA>
3.3837

>  <SCORE.INTRA.DIHEDRAL>
-1.18039

>  <SCORE.INTRA.DIHEDRAL.0>
4.18538

>  <SCORE.INTRA.POLAR>
0

>  <SCORE.INTRA.POLAR.0>
0

>  <SCORE.INTRA.REPUL>
0

>  <SCORE.INTRA.REPUL.0>
0

>  <SCORE.INTRA.SOLV>
0.0182153

>  <SCORE.INTRA.SOLV.lig_0>
-5.16926

>  <SCORE.INTRA.VDW>
3.96478

>  <SCORE.INTRA.VDW.0>
1.11912

>  <SCORE.INTRA.norm>
0.130142

>  <SCORE.RESTR>
0

>  <SCORE.RESTR.CAVITY>
0

>  <SCORE.RESTR.norm>
0

>  <SCORE.SYSTEM>
0

>  <SCORE.SYSTEM.CONST>
0

>  <SCORE.SYSTEM.DIHEDRAL>
0

>  <SCORE.SYSTEM.SOLV>
0

>  <SCORE.SYSTEM.norm>
0

>  <SCORE.heavy>
26

>  <SCORE.norm>
-2.29772

>  <RMSD>
6.118

$$$$
1f1t Malachite green aptamer (Xray 2.8A)
 OpenBabel11021811393D
libRbt.so/2013.1/901 2013/11/27
 26 29  0  0  0  0  0  0  0  0999 V2000
  112.2158  -79.4021  -86.9403 C   0  0  0  0  0  0  0  0  0  0  0  0
  112.3489  -78.9405  -85.5664 C   0  0  0  0  0  0  0  0  0  0  0  0
  111.7869  -77.6800  -85.3554 C   0  0  0  0  0  0  0  0  0  0  0  0
  111.9497  -77.2577  -83.9360 O   0  0  0  0  0  0  0  0  0  0  0  0
  111.4242  -76.1100  -83.7500 C   0  0  0  0  0  0  0  0  0  0  0  0
  111.6446  -75.7826  -82.3415 C   0  0  0  0  0  0  0  0  0  0  0  0
  111.1036  -74.5088  -81.9437 C   0  0  0  0  0  0  0  0  0  0  0  0
  110.4092  -73.6597  -82.8406 C   0  0  0  0  0  0  0  0  0  0  0  0
  110.2319  -74.0391  -84.2299 C   0  0  0  0  0  0  0  0  0  0  0  0
  110.7785  -75.3046  -84.6542 C   0  0  0  0  0  0  0  0  0  0  0  0
  110.5637  -75.6144  -86.1171 C   0  0  0  0  0  0  0  0  0  0  0  0
  111.1482  -76.8809  -86.2972 C   0  0  0  0  0  0  0  0  0  0  0  0
  111.0306  -77.3601  -87.6762 C   0  0  0  0  0  0  0  0  0  0  0  0
  111.5954  -78.6502  -87.9191 C   0  0  0  0  0  0  0  0  0  0  0  0
  109.9122  -74.7560  -86.9823 C   0  0  0  0  0  0  0  0  0  0  0  0
  110.2226  -73.3891  -87.1712 C   0  0  0  0  0  0  0  0  0  0  0  0
  109.5872  -72.5126  -88.0526 C   0  0  0  0  0  0  0  0  0  0  0  0
  108.4947  -72.9950  -88.8841 C   0  0  0  0  0  0  0  0  0  0  0  0
  108.2016  -74.3622  -88.6631 C   0  0  0  0  0  0  0  0  0  0  0  0
  108.8083  -75.2751  -87.7894 C   0  0  0  0  0  0  0  0  0  0  0  0
  112.7211  -80.6417  -87.3070 N   0  3  0  0  0  0  0  0  0  0  0  0
  113.3829  -81.5248  -86.3533 C   0  0  0  0  0  0  0  0  0  0  0  0
  112.6724  -81.2420  -88.6584 C   0  0  0  0  0  0  0  0  0  0  0  0
  111.3505  -74.2046  -80.5940 N   0  0  0  0  0  0  0  0  0  0  0  0
  111.0496  -73.0012  -79.7868 C   0  0  0  0  0  0  0  0  0  0  0  0
  112.0259  -75.2619  -79.7615 C   0  0  0  0  0  0  0  0  0  0  0  0
  1  2  1  0  0  0  0
  1 14  1  0  0  0  0
  1 21  2  0  0  0  0
  2  3  2  0  0  0  0
  3  4  1  0  0  0  0
  3 12  1  0  0  0  0
  4  5  1  0  0  0  0
  5  6  1  0  0  0  0
  5 10  2  0  0  0  0
  6  7  2  0  0  0  0
  7  8  1  0  0  0  0
  7 24  1  0  0  0  0
  8  9  2  0  0  0  0
  9 10  1  0  0  0  0
 10 11  1  0  0  0  0
 11 12  2  0  0  0  0
 11 15  1  0  0  0  0
 12 13  1  0  0  0  0
 13 14  2  0  0  0  0
 15 16  2  0  0  0  0
 15 20  1  0  0  0  0
 16 17  1  0  0  0  0
 17 18  2  0  0  0  0
 18 19  1  0  0  0  0
 19 20  2  0  0  0  0
 21 22  1  0  0  0  0
 21 23  1  0  0  0  0
 24 25  1  0  0  0  0
 24 26  1  0  0  0  0
M  CHG  1  21   1
M  END
>  <CHROM.1>
176.40079533,52.33913205,111.06660609,-76.21889864,-85.30961312,-1.28760243
-1.06161918,1.05379133

>  <Name>
1f1t Malachite green aptamer (Xray 2.8A)

>  <RI>
0

>  <Rbt.Current_Directory>
/home/itssahil/PROJECTS/Mol_Feturizer/New_Systems/rnas/1f1t

>  <Rbt.Executable>
rbdock ($Id: //depot/dev/client3/rdock/2013.1/src/exe/rbdock.cxx#4 $)

>  <Rbt.Library>
libRbt.so (2013.1, Build901 2013/11/27)

>  <Rbt.Parameter_File>
/export/apps/rDock/src/rDock_2013.1_src/data/scripts/dock_solv.prm

>  <Rbt.Receptor>
prm/pocket_docking_3.prm

>  <SCORE>
-59.7513

>  <SCORE.INTER>
-63.1303

>  <SCORE.INTER.CONST>
1

>  <SCORE.INTER.POLAR>
0

>  <SCORE.INTER.ROT>
2

>  <SCORE.INTER.SOLV>
11.0832

>  <SCORE.INTER.VDW>
-50.7146

>  <SCORE.INTER.norm>
-2.42809

>  <SCORE.INTRA>
3.37899

>  <SCORE.INTRA.DIHEDRAL>
-1.149

>  <SCORE.INTRA.DIHEDRAL.0>
4.18538

>  <SCORE.INTRA.POLAR>
0

>  <SCORE.INTRA.POLAR.0>
0

>  <SCORE.INTRA.REPUL>
0

>  <SCORE.INTRA.REPUL.0>
0

>  <SCORE.INTRA.SOLV>
0.0175078

>  <SCORE.INTRA.SOLV.lig_0>
-5.16926

>  <SCORE.INTRA.VDW>
3.94473

>  <SCORE.INTRA.VDW.0>
1.11912

>  <SCORE.INTRA.norm>
0.129961

>  <SCORE.RESTR>
0

>  <SCORE.RESTR.CAVITY>
0

>  <SCORE.RESTR.norm>
0

>  <SCORE.SYSTEM>
0

>  <SCORE.SYSTEM.CONST>
0

>  <SCORE.SYSTEM.DIHEDRAL>
0

>  <SCORE.SYSTEM.SOLV>
0

>  <SCORE.SYSTEM.norm>
0

>  <SCORE.heavy>
26

>  <SCORE.norm>
-2.29813

>  <RMSD>
6.118

$$$$
1f1t Malachite green aptamer (Xray 2.8A)
 OpenBabel11021811393D
libRbt.so/2013.1/901 2013/11/27
 26 29  0  0  0  0  0  0  0  0999 V2000
  112.2427  -79.3948  -86.9081 C   0  0  0  0  0  0  0  0  0  0  0  0
  112.3671  -78.9268  -85.5356 C   0  0  0  0  0  0  0  0  0  0  0  0
  111.8005  -77.6668  -85.3333 C   0  0  0  0  0  0  0  0  0  0  0  0
  111.9543  -77.2378  -83.9149 O   0  0  0  0  0  0  0  0  0  0  0  0
  111.4247  -76.0907  -83.7369 C   0  0  0  0  0  0  0  0  0  0  0  0
  111.6365  -75.7564  -82.3287 C   0  0  0  0  0  0  0  0  0  0  0  0
  111.0898  -74.4823  -81.9396 C   0  0  0  0  0  0  0  0  0  0  0  0
  110.3980  -73.6392  -82.8440 C   0  0  0  0  0  0  0  0  0  0  0  0
  110.2294  -74.0253  -84.2326 C   0  0  0  0  0  0  0  0  0  0  0  0
  110.7818  -75.2912  -84.6482 C   0  0  0  0  0  0  0  0  0  0  0  0
  110.5758  -75.6080  -86.1108 C   0  0  0  0  0  0  0  0  0  0  0  0
  111.1648  -76.8737  -86.2821 C   0  0  0  0  0  0  0  0  0  0  0  0
  111.0560  -77.3593  -87.6596 C   0  0  0  0  0  0  0  0  0  0  0  0
  111.6257  -78.6490  -87.8936 C   0  0  0  0  0  0  0  0  0  0  0  0
  109.9267  -74.7553  -86.9834 C   0  0  0  0  0  0  0  0  0  0  0  0
  110.2441  -73.3922  -87.1877 C   0  0  0  0  0  0  0  0  0  0  0  0
  109.6111  -72.5216  -88.0767 C   0  0  0  0  0  0  0  0  0  0  0  0
  108.5138  -73.0069  -88.9001 C   0  0  0  0  0  0  0  0  0  0  0  0
  108.2138  -74.3700  -88.6638 C   0  0  0  0  0  0  0  0  0  0  0  0
  108.8178  -75.2769  -87.7820 C   0  0  0  0  0  0  0  0  0  0  0  0
  112.7534  -80.6346  -87.2665 N   0  3  0  0  0  0  0  0  0  0  0  0
  113.4124  -81.5116  -86.3052 C   0  0  0  0  0  0  0  0  0  0  0  0
  112.7138  -81.2411  -88.6154 C   0  0  0  0  0  0  0  0  0  0  0  0
  111.3285  -74.1715  -80.5899 N   0  0  0  0  0  0  0  0  0  0  0  0
  111.0077  -72.9709  -79.7863 C   0  0  0  0  0  0  0  0  0  0  0  0
  112.0171  -75.2168  -79.7531 C   0  0  0  0  0  0  0  0  0  0  0  0
  1  2  1  0  0  0  0
  1 14  1  0  0  0  0
  1 21  2  0  0  0  0
  2  3  2  0  0  0  0
  3  4  1  0  0  0  0
  3 12  1  0  0  0  0
  4  5  1  0  0  0  0
  5  6  1  0  0  0  0
  5 10  2  0  0  0  0
  6  7  2  0  0  0  0
  7  8  1  0  0  0  0
  7 24  1  0  0  0  0
  8  9  2  0  0  0  0
  9 10  1  0  0  0  0
 10 11  1  0  0  0  0
 11 12  2  0  0  0  0
 11 15  1  0  0  0  0
 12 13  1  0  0  0  0
 13 14  2  0  0  0  0
 15 16  2  0  0  0  0
 15 20  1  0  0  0  0
 16 17  1  0  0  0  0
 17 18  2  0  0  0  0
 18 19  1  0  0  0  0
 19 20  2  0  0  0  0
 21 22  1  0  0  0  0
 21 23  1  0  0  0  0
 24 25  1  0  0  0  0
 24 26  1  0  0  0  0
M  CHG  1  21   1
M  END
>  <CHROM.1>
177.11651162,53.09114408,111.07593804,-76.20751350,-85.29789091,-1.27495185
-1.06157522,1.06029759

>  <Name>
1f1t Malachite green aptamer (Xray 2.8A)

>  <RI>
0

>  <Rbt.Current_Directory>
/home/itssahil/PROJECTS/Mol_Feturizer/New_Systems/rnas/1f1t

>  <Rbt.Executable>
rbdock ($Id: //depot/dev/client3/rdock/2013.1/src/exe/rbdock.cxx#4 $)

>  <Rbt.Library>
libRbt.so (2013.1, Build901 2013/11/27)

>  <Rbt.Parameter_File>
/export/apps/rDock/src/rDock_2013.1_src/data/scripts/dock_solv.prm

>  <Rbt.Receptor>
prm/pocket_docking_5.prm

>  <SCORE>
-59.7023

>  <SCORE.INTER>
-63.0929

>  <SCORE.INTER.CONST>
1

>  <SCORE.INTER.POLAR>
0

>  <SCORE.INTER.ROT>
2

>  <SCORE.INTER.SOLV>
11.1275

>  <SCORE.INTER.VDW>
-50.7044

>  <SCORE.INTER.norm>
-2.42665

>  <SCORE.INTRA>
3.39051

>  <SCORE.INTRA.DIHEDRAL>
-1.10691

>  <SCORE.INTRA.DIHEDRAL.0>
4.18538

>  <SCORE.INTRA.POLAR>
0

>  <SCORE.INTRA.POLAR.0>
0

>  <SCORE.INTRA.REPUL>
0

>  <SCORE.INTRA.REPUL.0>
0

>  <SCORE.INTRA.SOLV>
0.0166949

>  <SCORE.INTRA.SOLV.lig_0>
-5.16926

>  <SCORE.INTRA.VDW>
3.93562

>  <SCORE.INTRA.VDW.0>
1.11912

>  <SCORE.INTRA.norm>
0.130404

>  <SCORE.RESTR>
0

>  <SCORE.RESTR.CAVITY>
0

>  <SCORE.RESTR.norm>
0

>  <SCORE.SYSTEM>
0

>  <SCORE.SYSTEM.CONST>
0

>  <SCORE.SYSTEM.DIHEDRAL>
0

>  <SCORE.SYSTEM.SOLV>
0

>  <SCORE.SYSTEM.norm>
0

>  <SCORE.heavy>
26

>  <SCORE.norm>
-2.29624

>  <RMSD>
6.118

$$$$
1f1t Malachite green aptamer (Xray 2.8A)
 OpenBabel11021811393D
libRbt.so/2013.1/901 2013/11/27
 26 29  0  0  0  0  0  0  0  0999 V2000
  112.2540  -79.4078  -86.9038 C   0  0  0  0  0  0  0  0  0  0  0  0
  112.3750  -78.9367  -85.5320 C   0  0  0  0  0  0  0  0  0  0  0  0
  111.8057  -77.6774  -85.3334 C   0  0  0  0  0  0  0  0  0  0  0  0
  111.9562  -77.2451  -83.9156 O   0  0  0  0  0  0  0  0  0  0  0  0
  111.4241  -76.0986  -83.7410 C   0  0  0  0  0  0  0  0  0  0  0  0
  111.6328  -75.7609  -82.3332 C   0  0  0  0  0  0  0  0  0  0  0  0
  111.0830  -74.4871  -81.9477 C   0  0  0  0  0  0  0  0  0  0  0  0
  110.3912  -73.6471  -82.8551 C   0  0  0  0  0  0  0  0  0  0  0  0
  110.2258  -74.0365  -84.2432 C   0  0  0  0  0  0  0  0  0  0  0  0
  110.7813  -75.3022  -84.6551 C   0  0  0  0  0  0  0  0  0  0  0  0
  110.5786  -75.6225  -86.1174 C   0  0  0  0  0  0  0  0  0  0  0  0
  111.1702  -76.8875  -86.2850 C   0  0  0  0  0  0  0  0  0  0  0  0
  111.0648  -77.3762  -87.6616 C   0  0  0  0  0  0  0  0  0  0  0  0
  111.6373  -78.6652  -87.8919 C   0  0  0  0  0  0  0  0  0  0  0  0
  109.9293  -74.7729  -86.9930 C   0  0  0  0  0  0  0  0  0  0  0  0
  110.2263  -73.4026  -87.1792 C   0  0  0  0  0  0  0  0  0  0  0  0
  109.5932  -72.5347  -88.0707 C   0  0  0  0  0  0  0  0  0  0  0  0
  108.5185  -73.0310  -88.9171 C   0  0  0  0  0  0  0  0  0  0  0  0
  108.2384  -74.4013  -88.6985 C   0  0  0  0  0  0  0  0  0  0  0  0
  108.8433  -75.3059  -87.8150 C   0  0  0  0  0  0  0  0  0  0  0  0
  112.7677  -80.6474  -87.2586 N   0  3  0  0  0  0  0  0  0  0  0  0
  113.4266  -81.5212  -86.2943 C   0  0  0  0  0  0  0  0  0  0  0  0
  112.7316  -81.2568  -88.6063 C   0  0  0  0  0  0  0  0  0  0  0  0
  111.3187  -74.1730  -80.5982 N   0  0  0  0  0  0  0  0  0  0  0  0
  111.0000  -72.9686  -79.7994 C   0  0  0  0  0  0  0  0  0  0  0  0
  112.0007  -75.2183  -79.7561 C   0  0  0  0  0  0  0  0  0  0  0  0
  1  2  1  0  0  0  0
  1 14  1  0  0  0  0
  1 21  2  0  0  0  0
  2  3  2  0  0  0  0
  3  4  1  0  0  0  0
  3 12  1  0  0  0  0
  4  5  1  0  0  0  0
  5  6  1  0  0  0  0
  5 10  2  0  0  0  0
  6  7  2  0  0  0  0
  7  8  1  0  0  0  0
  7 24  1  0  0  0  0
  8  9  2  0  0  0  0
  9 10  1  0  0  0  0
 10 11  1  0  0  0  0
 11 12  2  0  0  0  0
 11 15  1  0  0  0  0
 12 13  1  0  0  0  0
 13 14  2  0  0  0  0
 15 16  2  0  0  0  0
 15 20  1  0  0  0  0
 16 17  1  0  0  0  0
 17 18  2  0  0  0  0
 18 19  1  0  0  0  0
 19 20  2  0  0  0  0
 21 22  1  0  0  0  0
 21 23  1  0  0  0  0
 24 25  1  0  0  0  0
 24 26  1  0  0  0  0
M  CHG  1  21   1
M  END
>  <CHROM.1>
176.77390955,51.68731694,111.07850950,-76.21938056,-85.30249631,-1.27013976
-1.06106223,1.06250358

>  <Name>
1f1t Malachite green aptamer (Xray 2.8A)

>  <RI>
0

>  <Rbt.Current_Directory>
/home/itssahil/PROJECTS/Mol_Feturizer/New_Systems/rnas/1f1t

>  <Rbt.Executable>
rbdock ($Id: //depot/dev/client3/rdock/2013.1/src/exe/rbdock.cxx#4 $)

>  <Rbt.Library>
libRbt.so (2013.1, Build901 2013/11/27)

>  <Rbt.Parameter_File>
/export/apps/rDock/src/rDock_2013.1_src/data/scripts/dock_solv.prm

>  <Rbt.Receptor>
prm/pocket_docking_6.prm

>  <SCORE>
-59.7259

>  <SCORE.INTER>
-63.1254

>  <SCORE.INTER.CONST>
1

>  <SCORE.INTER.POLAR>
0

>  <SCORE.INTER.ROT>
2

>  <SCORE.INTER.SOLV>
11.1261

>  <SCORE.INTER.VDW>
-50.7256

>  <SCORE.INTER.norm>
-2.4279

>  <SCORE.INTRA>
3.3995

>  <SCORE.INTRA.DIHEDRAL>
-1.21244

>  <SCORE.INTRA.DIHEDRAL.0>
4.18538

>  <SCORE.INTRA.POLAR>
0

>  <SCORE.INTRA.POLAR.0>
0

>  <SCORE.INTRA.REPUL>
0

>  <SCORE.INTRA.REPUL.0>
0

>  <SCORE.INTRA.SOLV>
0.018258

>  <SCORE.INTRA.SOLV.lig_0>
-5.16926

>  <SCORE.INTRA.VDW>
3.99659

>  <SCORE.INTRA.VDW.0>
1.11912

>  <SCORE.INTRA.norm>
0.13075

>  <SCORE.RESTR>
0

>  <SCORE.RESTR.CAVITY>
0

>  <SCORE.RESTR.norm>
0

>  <SCORE.SYSTEM>
0

>  <SCORE.SYSTEM.CONST>
0

>  <SCORE.SYSTEM.DIHEDRAL>
0

>  <SCORE.SYSTEM.SOLV>
0

>  <SCORE.SYSTEM.norm>
0

>  <SCORE.heavy>
26

>  <SCORE.norm>
-2.29715

>  <RMSD>
6.118

$$$$
1f1t Malachite green aptamer (Xray 2.8A)
 OpenBabel11021811393D
libRbt.so/2013.1/901 2013/11/27
 26 29  0  0  0  0  0  0  0  0999 V2000
  112.2088  -79.3909  -86.9051 C   0  0  0  0  0  0  0  0  0  0  0  0
  112.3411  -78.9221  -85.5335 C   0  0  0  0  0  0  0  0  0  0  0  0
  111.7831  -77.6585  -85.3306 C   0  0  0  0  0  0  0  0  0  0  0  0
  111.9448  -77.2288  -83.9133 O   0  0  0  0  0  0  0  0  0  0  0  0
  111.4230  -76.0782  -83.7347 C   0  0  0  0  0  0  0  0  0  0  0  0
  111.6420  -75.7436  -82.3277 C   0  0  0  0  0  0  0  0  0  0  0  0
  111.1047  -74.4658  -81.9380 C   0  0  0  0  0  0  0  0  0  0  0  0
  110.4148  -73.6194  -82.8409 C   0  0  0  0  0  0  0  0  0  0  0  0
  110.2387  -74.0060  -84.2284 C   0  0  0  0  0  0  0  0  0  0  0  0
  110.7817  -75.2758  -84.6446 C   0  0  0  0  0  0  0  0  0  0  0  0
  110.5684  -75.5930  -86.1061 C   0  0  0  0  0  0  0  0  0  0  0  0
  111.1488  -76.8625  -86.2781 C   0  0  0  0  0  0  0  0  0  0  0  0
  111.0320  -77.3490  -87.6545 C   0  0  0  0  0  0  0  0  0  0  0  0
  111.5928  -78.6424  -87.8891 C   0  0  0  0  0  0  0  0  0  0  0  0
  109.9214  -74.7372  -86.9773 C   0  0  0  0  0  0  0  0  0  0  0  0
  110.2368  -73.3725  -87.1732 C   0  0  0  0  0  0  0  0  0  0  0  0
  109.6059  -72.4987  -88.0606 C   0  0  0  0  0  0  0  0  0  0  0  0
  108.5134  -72.9821  -88.8915 C   0  0  0  0  0  0  0  0  0  0  0  0
  108.2153  -74.3471  -88.6635 C   0  0  0  0  0  0  0  0  0  0  0  0
  108.8173  -75.2572  -87.7836 C   0  0  0  0  0  0  0  0  0  0  0  0
  112.7105  -80.6343  -87.2638 N   0  3  0  0  0  0  0  0  0  0  0  0
  113.3675  -81.5143  -86.3040 C   0  0  0  0  0  0  0  0  0  0  0  0
  112.6621  -81.2421  -88.6119 C   0  0  0  0  0  0  0  0  0  0  0  0
  111.3502  -74.1549  -80.5896 N   0  0  0  0  0  0  0  0  0  0  0  0
  111.0494  -72.9471  -79.7889 C   0  0  0  0  0  0  0  0  0  0  0  0
  112.0237  -75.2085  -79.7509 C   0  0  0  0  0  0  0  0  0  0  0  0
  1  2  1  0  0  0  0
  1 14  1  0  0  0  0
  1 21  2  0  0  0  0
  2  3  2  0  0  0  0
  3  4  1  0  0  0  0
  3 12  1  0  0  0  0
  4  5  1  0  0  0  0
  5  6  1  0  0  0  0
  5 10  2  0  0  0  0
  6  7  2  0  0  0  0
  7  8  1  0  0  0  0
  7 24  1  0  0  0  0
  8  9  2  0  0  0  0
  9 10  1  0  0  0  0
 10 11  1  0  0  0  0
 11 12  2  0  0  0  0
 11 15  1  0  0  0  0
 12 13  1  0  0  0  0
 13 14  2  0  0  0  0
 15 16  2  0  0  0  0
 15 20  1  0  0  0  0
 16 17  1  0  0  0  0
 17 18  2  0  0  0  0
 18 19  1  0  0  0  0
 19 20  2  0  0  0  0
 21 22  1  0  0  0  0
 21 23  1  0  0  0  0
 24 25  1  0  0  0  0
 24 26  1  0  0  0  0
M  CHG  1  21   1
M  END
>  <CHROM.1>
176.55701028,52.32899312,111.06778467,-76.19468458,-85.29433853,-1.28795028
-1.06544765,1.04785834

>  <Name>
1f1t Malachite green aptamer (Xray 2.8A)

>  <RI>
0

>  <Rbt.Current_Directory>
/home/itssahil/PROJECTS/Mol_Feturizer/New_Systems/rnas/1f1t

>  <Rbt.Executable>
rbdock ($Id: //depot/dev/client3/rdock/2013.1/src/exe/rbdock.cxx#4 $)

>  <Rbt.Library>
libRbt.so (2013.1, Build901 2013/11/27)

>  <Rbt.Parameter_File>
/export/apps/rDock/src/rDock_2013.1_src/data/scripts/dock_solv.prm

>  <Rbt.Receptor>
prm/pocket_docking_3.prm

>  <SCORE>
-59.6933

>  <SCORE.INTER>
-63.0747

>  <SCORE.INTER.CONST>
1

>  <SCORE.INTER.POLAR>
0

>  <SCORE.INTER.ROT>
2

>  <SCORE.INTER.SOLV>
11.1407

>  <SCORE.INTER.VDW>
-50.6967

>  <SCORE.INTER.norm>
-2.42595

>  <SCORE.INTRA>
3.38143

>  <SCORE.INTRA.DIHEDRAL>
-1.15427

>  <SCORE.INTRA.DIHEDRAL.0>
4.18538

>  <SCORE.INTRA.POLAR>
0

>  <SCORE.INTRA.POLAR.0>
0

>  <SCORE.INTRA.REPUL>
0

>  <SCORE.INTRA.REPUL.0>
0

>  <SCORE.INTRA.SOLV>
0.0175275

>  <SCORE.INTRA.SOLV.lig_0>
-5.16926

>  <SCORE.INTRA.VDW>
3.9498

>  <SCORE.INTRA.VDW.0>
1.11912

>  <SCORE.INTRA.norm>
0.130055

>  <SCORE.RESTR>
0

>  <SCORE.RESTR.CAVITY>
0

>  <SCORE.RESTR.norm>
0

>  <SCORE.SYSTEM>
0

>  <SCORE.SYSTEM.CONST>
0

>  <SCORE.SYSTEM.DIHEDRAL>
0

>  <SCORE.SYSTEM.SOLV>
0

>  <SCORE.SYSTEM.norm>
0

>  <SCORE.heavy>
26

>  <SCORE.norm>
-2.2959

>  <RMSD>
6.119

$$$$
1f1t Malachite green aptamer (Xray 2.8A)
 OpenBabel11021811393D
libRbt.so/2013.1/901 2013/11/27
 26 29  0  0  0  0  0  0  0  0999 V2000
  112.2064  -79.3870  -86.9338 C   0  0  0  0  0  0  0  0  0  0  0  0
  112.3456  -78.9260  -85.5603 C   0  0  0  0  0  0  0  0  0  0  0  0
  111.7895  -77.6631  -85.3477 C   0  0  0  0  0  0  0  0  0  0  0  0
  111.9583  -77.2415  -83.9287 O   0  0  0  0  0  0  0  0  0  0  0  0
  111.4382  -76.0916  -83.7413 C   0  0  0  0  0  0  0  0  0  0  0  0
  111.6642  -75.7650  -82.3335 C   0  0  0  0  0  0  0  0  0  0  0  0
  111.1296  -74.4889  -81.9341 C   0  0  0  0  0  0  0  0  0  0  0  0
  110.4360  -73.6370  -82.8289 C   0  0  0  0  0  0  0  0  0  0  0  0
  110.2530  -74.0158  -84.2177 C   0  0  0  0  0  0  0  0  0  0  0  0
  110.7931  -75.2836  -84.6435 C   0  0  0  0  0  0  0  0  0  0  0  0
  110.5726  -75.5925  -86.1057 C   0  0  0  0  0  0  0  0  0  0  0  0
  111.1513  -76.8614  -86.2876 C   0  0  0  0  0  0  0  0  0  0  0  0
  111.0275  -77.3401  -87.6662 C   0  0  0  0  0  0  0  0  0  0  0  0
  111.5862  -78.6326  -87.9107 C   0  0  0  0  0  0  0  0  0  0  0  0
  109.9220  -74.7314  -86.9690 C   0  0  0  0  0  0  0  0  0  0  0  0
  110.2372  -73.3657  -87.1586 C   0  0  0  0  0  0  0  0  0  0  0  0
  109.6028  -72.4866  -88.0380 C   0  0  0  0  0  0  0  0  0  0  0  0
  108.5061  -72.9646  -88.8666 C   0  0  0  0  0  0  0  0  0  0  0  0
  108.2083  -74.3307  -88.6450 C   0  0  0  0  0  0  0  0  0  0  0  0
  108.8139  -75.2461  -87.7731 C   0  0  0  0  0  0  0  0  0  0  0  0
  112.7054  -80.6287  -87.3019 N   0  3  0  0  0  0  0  0  0  0  0  0
  113.3664  -81.5146  -86.3502 C   0  0  0  0  0  0  0  0  0  0  0  0
  112.6501  -81.2289  -88.6531 C   0  0  0  0  0  0  0  0  0  0  0  0
  111.3819  -74.1858  -80.5851 N   0  0  0  0  0  0  0  0  0  0  0  0
  111.0670  -72.9908  -79.7709 C   0  0  0  0  0  0  0  0  0  0  0  0
  112.0815  -75.2347  -79.7621 C   0  0  0  0  0  0  0  0  0  0  0  0
  1  2  1  0  0  0  0
  1 14  1  0  0  0  0
  1 21  2  0  0  0  0
  2  3  2  0  0  0  0
  3  4  1  0  0  0  0
  3 12  1  0  0  0  0
  4  5  1  0  0  0  0
  5  6  1  0  0  0  0
  5 10  2  0  0  0  0
  6  7  2  0  0  0  0
  7  8  1  0  0  0  0
  7 24  1  0  0  0  0
  8  9  2  0  0  0  0
  9 10  1  0  0  0  0
 10 11  1  0  0  0  0
 11 12  2  0  0  0  0
 11 15  1  0  0  0  0
 12 13  1  0  0  0  0
 13 14  2  0  0  0  0
 15 16  2  0  0  0  0
 15 20  1  0  0  0  0
 16 17  1  0  0  0  0
 17 18  2  0  0  0  0
 18 19  1  0  0  0  0
 19 20  2  0  0  0  0
 21 22  1  0  0  0  0
 21 23  1  0  0  0  0
 24 25  1  0  0  0  0
 24 26  1  0  0  0  0
M  CHG  1  21   1
M  END
>  <CHROM.1>
177.65981762,52.31491624,111.07559117,-76.19897474,-85.29981818,-1.29731947
-1.06327126,1.04523033

>  <Name>
1f1t Malachite green aptamer (Xray 2.8A)

>  <RI>
0

>  <Rbt.Current_Directory>
/home/itssahil/PROJECTS/Mol_Feturizer/New_Systems/rnas/1f1t

>  <Rbt.Executable>
rbdock ($Id: //depot/dev/client3/rdock/2013.1/src/exe/rbdock.cxx#4 $)

>  <Rbt.Library>
libRbt.so (2013.1, Build901 2013/11/27)

>  <Rbt.Parameter_File>
/export/apps/rDock/src/rDock_2013.1_src/data/scripts/dock_solv.prm

>  <Rbt.Receptor>
prm/pocket_docking_5.prm

>  <SCORE>
-59.753

>  <SCORE.INTER>
-63.1486

>  <SCORE.INTER.CONST>
1

>  <SCORE.INTER.POLAR>
0

>  <SCORE.INTER.ROT>
2

>  <SCORE.INTER.SOLV>
11.1148

>  <SCORE.INTER.VDW>
-50.7373

>  <SCORE.INTER.norm>
-2.42879

>  <SCORE.INTRA>
3.39558

>  <SCORE.INTRA.DIHEDRAL>
-1.18145

>  <SCORE.INTRA.DIHEDRAL.0>
4.18538

>  <SCORE.INTRA.POLAR>
0

>  <SCORE.INTRA.POLAR.0>
0

>  <SCORE.INTRA.REPUL>
0

>  <SCORE.INTRA.REPUL.0>
0

>  <SCORE.INTRA.SOLV>
0.0175932

>  <SCORE.INTRA.SOLV.lig_0>
-5.16926

>  <SCORE.INTRA.VDW>
3.97751

>  <SCORE.INTRA.VDW.0>
1.11912

>  <SCORE.INTRA.norm>
0.130599

>  <SCORE.RESTR>
0

>  <SCORE.RESTR.CAVITY>
0

>  <SCORE.RESTR.norm>
0

>  <SCORE.SYSTEM>
0

>  <SCORE.SYSTEM.CONST>
0

>  <SCORE.SYSTEM.DIHEDRAL>
0

>  <SCORE.SYSTEM.SOLV>
0

>  <SCORE.SYSTEM.norm>
0

>  <SCORE.heavy>
26

>  <SCORE.norm>
-2.29819

>  <RMSD>
6.119

$$$$
1f1t Malachite green aptamer (Xray 2.8A)
 OpenBabel11021811393D
libRbt.so/2013.1/901 2013/11/27
 26 29  0  0  0  0  0  0  0  0999 V2000
  112.2458  -79.3896  -86.9068 C   0  0  0  0  0  0  0  0  0  0  0  0
  112.3646  -78.9212  -85.5339 C   0  0  0  0  0  0  0  0  0  0  0  0
  111.7951  -77.6623  -85.3337 C   0  0  0  0  0  0  0  0  0  0  0  0
  111.9433  -77.2327  -83.9149 O   0  0  0  0  0  0  0  0  0  0  0  0
  111.4111  -76.0866  -83.7389 C   0  0  0  0  0  0  0  0  0  0  0  0
  111.6175  -75.7517  -82.3301 C   0  0  0  0  0  0  0  0  0  0  0  0
  111.0672  -74.4785  -81.9430 C   0  0  0  0  0  0  0  0  0  0  0  0
  110.3770  -73.6367  -82.8499 C   0  0  0  0  0  0  0  0  0  0  0  0
  110.2139  -74.0233  -84.2390 C   0  0  0  0  0  0  0  0  0  0  0  0
  110.7699  -75.2883  -84.6525 C   0  0  0  0  0  0  0  0  0  0  0  0
  110.5696  -75.6057  -86.1158 C   0  0  0  0  0  0  0  0  0  0  0  0
  111.1613  -76.8704  -86.2849 C   0  0  0  0  0  0  0  0  0  0  0  0
  111.0582  -77.3564  -87.6626 C   0  0  0  0  0  0  0  0  0  0  0  0
  111.6309  -78.6450  -87.8945 C   0  0  0  0  0  0  0  0  0  0  0  0
  109.9219  -74.7542  -86.9907 C   0  0  0  0  0  0  0  0  0  0  0  0
  110.2383  -73.3909  -87.1948 C   0  0  0  0  0  0  0  0  0  0  0  0
  109.6068  -72.5215  -88.0861 C   0  0  0  0  0  0  0  0  0  0  0  0
  108.5125  -73.0086  -88.9125 C   0  0  0  0  0  0  0  0  0  0  0  0
  108.2135  -74.3720  -88.6764 C   0  0  0  0  0  0  0  0  0  0  0  0
  108.8161  -75.2776  -87.7923 C   0  0  0  0  0  0  0  0  0  0  0  0
  112.7599  -80.6286  -87.2632 N   0  3  0  0  0  0  0  0  0  0  0  0
  113.4171  -81.5043  -86.2996 C   0  0  0  0  0  0  0  0  0  0  0  0
  112.7260  -81.2353  -88.6122 C   0  0  0  0  0  0  0  0  0  0  0  0
  111.3007  -74.1671  -80.5925 N   0  0  0  0  0  0  0  0  0  0  0  0
  110.9783  -72.9654  -79.7911 C   0  0  0  0  0  0  0  0  0  0  0  0
  111.9842  -75.2129  -79.7521 C   0  0  0  0  0  0  0  0  0  0  0  0
  1  2  1  0  0  0  0
  1 14  1  0  0  0  0
  1 21  2  0  0  0  0
  2  3  2  0  0  0  0
  3  4  1  0  0  0  0
  3 12  1  0  0  0  0
  4  5  1  0  0  0  0
  5  6  1  0  0  0  0
  5 10  2  0  0  0  0
  6  7  2  0  0  0  0
  7  8  1  0  0  0  0
  7 24  1  0  0  0  0
  8  9  2  0  0  0  0
  9 10  1  0  0  0  0
 10 11  1  0  0  0  0
 11 12  2  0  0  0  0
 11 15  1  0  0  0  0
 12 13  1  0  0  0  0
 13 14  2  0  0  0  0
 15 16  2  0  0  0  0
 15 20  1  0  0  0  0
 16 17  1  0  0  0  0
 17 18  2  0  0  0  0
 18 19  1  0  0  0  0
 19 20  2  0  0  0  0
 21 22  1  0  0  0  0
 21 23  1  0  0  0  0
 24 25  1  0  0  0  0
 24 26  1  0  0  0  0
M  CHG  1  21   1
M  END
>  <CHROM.1>
176.92304301,53.13692717,111.06788931,-76.20421164,-85.30105155,-1.26699805
-1.06177415,1.06710589

>  <Name>
1f1t Malachite green aptamer (Xray 2.8A)

>  <RI>
0

>  <Rbt.Current_Directory>
/home/itssahil/PROJECTS/Mol_Feturizer/New_Systems/rnas/1f1t

>  <Rbt.Executable>
rbdock ($Id: //depot/dev/client3/rdock/2013.1/src/exe/rbdock.cxx#4 $)

>  <Rbt.Library>
libRbt.so (2013.1, Build901 2013/11/27)

>  <Rbt.Parameter_File>
/export/apps/rDock/src/rDock_2013.1_src/data/scripts/dock_solv.prm

>  <Rbt.Receptor>
prm/pocket_docking_6.prm

>  <SCORE>
-59.7716

>  <SCORE.INTER>
-63.1587

>  <SCORE.INTER.CONST>
1

>  <SCORE.INTER.POLAR>
0

>  <SCORE.INTER.ROT>
2

>  <SCORE.INTER.SOLV>
11.1372

>  <SCORE.INTER.VDW>
-50.7515

>  <SCORE.INTER.norm>
-2.42918

>  <SCORE.INTRA>
3.38712

>  <SCORE.INTRA.DIHEDRAL>
-1.09852

>  <SCORE.INTRA.DIHEDRAL.0>
4.18538

>  <SCORE.INTRA.POLAR>
0

>  <SCORE.INTRA.POLAR.0>
0

>  <SCORE.INTRA.REPUL>
0

>  <SCORE.INTRA.REPUL.0>
0

>  <SCORE.INTRA.SOLV>
0.0166342

>  <SCORE.INTRA.SOLV.lig_0>
-5.16926

>  <SCORE.INTRA.VDW>
3.92806

>  <SCORE.INTRA.VDW.0>
1.11912

>  <SCORE.INTRA.norm>
0.130274

>  <SCORE.RESTR>
0

>  <SCORE.RESTR.CAVITY>
0

>  <SCORE.RESTR.norm>
0

>  <SCORE.SYSTEM>
0

>  <SCORE.SYSTEM.CONST>
0

>  <SCORE.SYSTEM.DIHEDRAL>
0

>  <SCORE.SYSTEM.SOLV>
0

>  <SCORE.SYSTEM.norm>
0

>  <SCORE.heavy>
26

>  <SCORE.norm>
-2.29891

>  <RMSD>
6.119

$$$$
1f1t Malachite green aptamer (Xray 2.8A)
 OpenBabel11021811393D
libRbt.so/2013.1/901 2013/11/27
 26 29  0  0  0  0  0  0  0  0999 V2000
  112.2127  -79.3968  -86.9434 C   0  0  0  0  0  0  0  0  0  0  0  0
  112.3410  -78.9344  -85.5693 C   0  0  0  0  0  0  0  0  0  0  0  0
  111.7781  -77.6738  -85.3611 C   0  0  0  0  0  0  0  0  0  0  0  0
  111.9358  -77.2506  -83.9413 O   0  0  0  0  0  0  0  0  0  0  0  0
  111.4096  -76.1028  -83.7580 C   0  0  0  0  0  0  0  0  0  0  0  0
  111.6250  -75.7745  -82.3489 C   0  0  0  0  0  0  0  0  0  0  0  0
  111.0824  -74.5005  -81.9538 C   0  0  0  0  0  0  0  0  0  0  0  0
  110.3911  -73.6520  -82.8537 C   0  0  0  0  0  0  0  0  0  0  0  0
  110.2188  -74.0324  -84.2434 C   0  0  0  0  0  0  0  0  0  0  0  0
  110.7670  -75.2981  -84.6650 C   0  0  0  0  0  0  0  0  0  0  0  0
  110.5574  -75.6088  -86.1284 C   0  0  0  0  0  0  0  0  0  0  0  0
  111.1427  -76.8754  -86.3057 C   0  0  0  0  0  0  0  0  0  0  0  0
  111.0300  -77.3554  -87.6847 C   0  0  0  0  0  0  0  0  0  0  0  0
  111.5958  -78.6457  -87.9248 C   0  0  0  0  0  0  0  0  0  0  0  0
  109.9088  -74.7510  -86.9964 C   0  0  0  0  0  0  0  0  0  0  0  0
  110.2394  -73.3921  -87.2076 C   0  0  0  0  0  0  0  0  0  0  0  0
  109.6070  -72.5167  -88.0922 C   0  0  0  0  0  0  0  0  0  0  0  0
  108.4958  -72.9917  -88.9030 C   0  0  0  0  0  0  0  0  0  0  0  0
  108.1831  -74.3508  -88.6601 C   0  0  0  0  0  0  0  0  0  0  0  0
  108.7860  -75.2621  -87.7822 C   0  0  0  0  0  0  0  0  0  0  0  0
  112.7194  -80.6366  -87.3074 N   0  3  0  0  0  0  0  0  0  0  0  0
  113.3779  -81.5191  -86.3508 C   0  0  0  0  0  0  0  0  0  0  0  0
  112.6756  -81.2378  -88.6586 C   0  0  0  0  0  0  0  0  0  0  0  0
  111.3245  -74.1955  -80.6035 N   0  0  0  0  0  0  0  0  0  0  0  0
  110.9915  -73.0049  -79.7898 C   0  0  0  0  0  0  0  0  0  0  0  0
  112.0326  -75.2366  -79.7778 C   0  0  0  0  0  0  0  0  0  0  0  0
  1  2  1  0  0  0  0
  1 14  1  0  0  0  0
  1 21  2  0  0  0  0
  2  3  2  0  0  0  0
  3  4  1  0  0  0  0
  3 12  1  0  0  0  0
  4  5  1  0  0  0  0
  5  6  1  0  0  0  0
  5 10  2  0  0  0  0
  6  7  2  0  0  0  0
  7  8  1  0  0  0  0
  7 24  1  0  0  0  0
  8  9  2  0  0  0  0
  9 10  1  0  0  0  0
 10 11  1  0  0  0  0
 11 12  2  0  0  0  0
 11 15  1  0  0  0  0
 12 13  1  0  0  0  0
 13 14  2  0  0  0  0
 15 16  2  0  0  0  0
 15 20  1  0  0  0  0
 16 17  1  0  0  0  0
 17 18  2  0  0  0  0
 18 19  1  0  0  0  0
 19 20  2  0  0  0  0
 21 22  1  0  0  0  0
 21 23  1  0  0  0  0
 24 25  1  0  0  0  0
 24 26  1  0  0  0  0
M  CHG  1  21   1
M  END
>  <CHROM.1>
178.11721833,53.86986960,111.05754548,-76.21266648,-85.31867109,-1.28095823
-1.06248930,1.05880031

>  <Name>
1f1t Malachite green aptamer (Xray 2.8A)

>  <RI>
0

>  <Rbt.Current_Directory>
/home/itssahil/PROJECTS/Mol_Feturizer/New_Systems/rnas/1f1t

>  <Rbt.Executable>
rbdock ($Id: //depot/dev/client3/rdock/2013.1/src/exe/rbdock.cxx#4 $)

>  <Rbt.Library>
libRbt.so (2013.1, Build901 2013/11/27)

>  <Rbt.Parameter_File>
/export/apps/rDock/src/rDock_2013.1_src/data/scripts/dock_solv.prm

>  <Rbt.Receptor>
prm/pocket_docking_7.prm

>  <SCORE>
-59.7906

>  <SCORE.INTER>
-63.1776

>  <SCORE.INTER.CONST>
1

>  <SCORE.INTER.POLAR>
0

>  <SCORE.INTER.ROT>
2

>  <SCORE.INTER.SOLV>
11.1124

>  <SCORE.INTER.VDW>
-50.7559

>  <SCORE.INTER.norm>
-2.42991

>  <SCORE.INTRA>
3.38706

>  <SCORE.INTRA.DIHEDRAL>
-1.06397

>  <SCORE.INTRA.DIHEDRAL.0>
4.18538

>  <SCORE.INTRA.POLAR>
0

>  <SCORE.INTRA.POLAR.0>
0

>  <SCORE.INTRA.REPUL>
0

>  <SCORE.INTRA.REPUL.0>
0

>  <SCORE.INTRA.SOLV>
0.0158507

>  <SCORE.INTRA.SOLV.lig_0>
-5.16926

>  <SCORE.INTRA.VDW>
3.91112

>  <SCORE.INTRA.VDW.0>
1.11912

>  <SCORE.INTRA.norm>
0.130271

>  <SCORE.RESTR>
0

>  <SCORE.RESTR.CAVITY>
0

>  <SCORE.RESTR.norm>
0

>  <SCORE.SYSTEM>
0

>  <SCORE.SYSTEM.CONST>
0

>  <SCORE.SYSTEM.DIHEDRAL>
0

>  <SCORE.SYSTEM.SOLV>
0

>  <SCORE.SYSTEM.norm>
0

>  <SCORE.heavy>
26

>  <SCORE.norm>
-2.29964

>  <RMSD>
6.119

$$$$
1f1t Malachite green aptamer (Xray 2.8A)
 OpenBabel11021811393D
libRbt.so/2013.1/901 2013/11/27
 26 29  0  0  0  0  0  0  0  0999 V2000
  112.2142  -79.4011  -86.9457 C   0  0  0  0  0  0  0  0  0  0  0  0
  112.3449  -78.9394  -85.5716 C   0  0  0  0  0  0  0  0  0  0  0  0
  111.7813  -77.6795  -85.3614 C   0  0  0  0  0  0  0  0  0  0  0  0
  111.9416  -77.2570  -83.9418 O   0  0  0  0  0  0  0  0  0  0  0  0
  111.4147  -76.1098  -83.7566 C   0  0  0  0  0  0  0  0  0  0  0  0
  111.6328  -75.7821  -82.3478 C   0  0  0  0  0  0  0  0  0  0  0  0
  111.0898  -74.5088  -81.9508 C   0  0  0  0  0  0  0  0  0  0  0  0
  110.3958  -73.6605  -82.8487 C   0  0  0  0  0  0  0  0  0  0  0  0
  110.2209  -74.0402  -84.2383 C   0  0  0  0  0  0  0  0  0  0  0  0
  110.7695  -75.3051  -84.6617 C   0  0  0  0  0  0  0  0  0  0  0  0
  110.5571  -75.6151  -86.1249 C   0  0  0  0  0  0  0  0  0  0  0  0
  111.1431  -76.8811  -86.3042 C   0  0  0  0  0  0  0  0  0  0  0  0
  111.0279  -77.3604  -87.6833 C   0  0  0  0  0  0  0  0  0  0  0  0
  111.5945  -78.6499  -87.9253 C   0  0  0  0  0  0  0  0  0  0  0  0
  109.9058  -74.7574  -86.9910 C   0  0  0  0  0  0  0  0  0  0  0  0
  110.2272  -73.3950  -87.1934 C   0  0  0  0  0  0  0  0  0  0  0  0
  109.5921  -72.5195  -88.0760 C   0  0  0  0  0  0  0  0  0  0  0  0
  108.4879  -72.9982  -88.8940 C   0  0  0  0  0  0  0  0  0  0  0  0
  108.1842  -74.3609  -88.6598 C   0  0  0  0  0  0  0  0  0  0  0  0
  108.7901  -75.2725  -87.7843 C   0  0  0  0  0  0  0  0  0  0  0  0
  112.7213  -80.6402  -87.3116 N   0  3  0  0  0  0  0  0  0  0  0  0
  113.3826  -81.5226  -86.3569 C   0  0  0  0  0  0  0  0  0  0  0  0
  112.6751  -81.2406  -88.6630 C   0  0  0  0  0  0  0  0  0  0  0  0
  111.3345  -74.2044  -80.6007 N   0  0  0  0  0  0  0  0  0  0  0  0
  111.0313  -73.0013  -79.7940 C   0  0  0  0  0  0  0  0  0  0  0  0
  112.0097  -75.2610  -79.7672 C   0  0  0  0  0  0  0  0  0  0  0  0
  1  2  1  0  0  0  0
  1 14  1  0  0  0  0
  1 21  2  0  0  0  0
  2  3  2  0  0  0  0
  3  4  1  0  0  0  0
  3 12  1  0  0  0  0
  4  5  1  0  0  0  0
  5  6  1  0  0  0  0
  5 10  2  0  0  0  0
  6  7  2  0  0  0  0
  7  8  1  0  0  0  0
  7 24  1  0  0  0  0
  8  9  2  0  0  0  0
  9 10  1  0  0  0  0
 10 11  1  0  0  0  0
 11 12  2  0  0  0  0
 11 15  1  0  0  0  0
 12 13  1  0  0  0  0
 13 14  2  0  0  0  0
 15 16  2  0  0  0  0
 15 20  1  0  0  0  0
 16 17  1  0  0  0  0
 17 18  2  0  0  0  0
 18 19  1  0  0  0  0
 19 20  2  0  0  0  0
 21 22  1  0  0  0  0
 21 23  1  0  0  0  0
 24 25  1  0  0  0  0
 24 26  1  0  0  0  0
M  CHG  1  21   1
M  END
>  <CHROM.1>
176.39564251,53.28324786,111.05926732,-76.21911678,-85.31657958,-1.28383215
-1.06130954,1.05698150

>  <Name>
1f1t Malachite green aptamer (Xray 2.8A)

>  <RI>
0

>  <Rbt.Current_Directory>
/home/itssahil/PROJECTS/Mol_Feturizer/New_Systems/rnas/1f1t

>  <Rbt.Executable>
rbdock ($Id: //depot/dev/client3/rdock/2013.1/src/exe/rbdock.cxx#4 $)

>  <Rbt.Library>
libRbt.so (2013.1, Build901 2013/11/27)

>  <Rbt.Parameter_File>
/export/apps/rDock/src/rDock_2013.1_src/data/scripts/dock_solv.prm

>  <Rbt.Receptor>
prm/pocket_docking_7.prm

>  <SCORE>
-59.7864

>  <SCORE.INTER>
-63.1634

>  <SCORE.INTER.CONST>
1

>  <SCORE.INTER.POLAR>
0

>  <SCORE.INTER.ROT>
2

>  <SCORE.INTER.SOLV>
11.0875

>  <SCORE.INTER.VDW>
-50.7381

>  <SCORE.INTER.norm>
-2.42936

>  <SCORE.INTRA>
3.37701

>  <SCORE.INTRA.DIHEDRAL>
-1.07244

>  <SCORE.INTRA.DIHEDRAL.0>
4.18538

>  <SCORE.INTRA.POLAR>
0

>  <SCORE.INTRA.POLAR.0>
0

>  <SCORE.INTRA.REPUL>
0

>  <SCORE.INTRA.REPUL.0>
0

>  <SCORE.INTRA.SOLV>
0.0164419

>  <SCORE.INTRA.SOLV.lig_0>
-5.16926

>  <SCORE.INTRA.VDW>
3.90501

>  <SCORE.INTRA.VDW.0>
1.11912

>  <SCORE.INTRA.norm>
0.129885

>  <SCORE.RESTR>
0

>  <SCORE.RESTR.CAVITY>
0

>  <SCORE.RESTR.norm>
0

>  <SCORE.SYSTEM>
0

>  <SCORE.SYSTEM.CONST>
0

>  <SCORE.SYSTEM.DIHEDRAL>
0

>  <SCORE.SYSTEM.SOLV>
0

>  <SCORE.SYSTEM.norm>
0

>  <SCORE.heavy>
26

>  <SCORE.norm>
-2.29948

>  <RMSD>
6.119

$$$$
1f1t Malachite green aptamer (Xray 2.8A)
 OpenBabel11021811393D
libRbt.so/2013.1/901 2013/11/27
 26 29  0  0  0  0  0  0  0  0999 V2000
  112.2190  -79.4359  -86.9114 C   0  0  0  0  0  0  0  0  0  0  0  0
  112.3482  -78.9439  -85.5478 C   0  0  0  0  0  0  0  0  0  0  0  0
  111.7695  -77.6869  -85.3620 C   0  0  0  0  0  0  0  0  0  0  0  0
  111.9290  -77.2328  -83.9521 O   0  0  0  0  0  0  0  0  0  0  0  0
  111.3883  -76.0887  -83.7892 C   0  0  0  0  0  0  0  0  0  0  0  0
  111.6068  -75.7288  -82.3883 C   0  0  0  0  0  0  0  0  0  0  0  0
  111.0492  -74.4544  -82.0161 C   0  0  0  0  0  0  0  0  0  0  0  0
  110.3417  -73.6338  -82.9292 C   0  0  0  0  0  0  0  0  0  0  0  0
  110.1672  -74.0447  -84.3099 C   0  0  0  0  0  0  0  0  0  0  0  0
  110.7302  -75.3113  -84.7087 C   0  0  0  0  0  0  0  0  0  0  0  0
  110.5170  -75.6545  -86.1643 C   0  0  0  0  0  0  0  0  0  0  0  0
  111.1184  -76.9165  -86.3191 C   0  0  0  0  0  0  0  0  0  0  0  0
  111.0048  -77.4260  -87.6875 C   0  0  0  0  0  0  0  0  0  0  0  0
  111.5867  -78.7132  -87.9044 C   0  0  0  0  0  0  0  0  0  0  0  0
  109.8523  -74.8234  -87.0460 C   0  0  0  0  0  0  0  0  0  0  0  0
  108.7666  -75.2009  -87.8700 C   0  0  0  0  0  0  0  0  0  0  0  0
  108.0728  -74.3711  -88.7526 C   0  0  0  0  0  0  0  0  0  0  0  0
  108.4572  -72.9732  -88.8782 C   0  0  0  0  0  0  0  0  0  0  0  0
  109.5527  -72.6305  -88.0498 C   0  0  0  0  0  0  0  0  0  0  0  0
  110.2790  -73.4286  -87.1552 C   0  0  0  0  0  0  0  0  0  0  0  0
  112.7404  -80.6760  -87.2531 N   0  3  0  0  0  0  0  0  0  0  0  0
  113.4159  -81.5298  -86.2824 C   0  0  0  0  0  0  0  0  0  0  0  0
  112.6975  -81.3051  -88.5915 C   0  0  0  0  0  0  0  0  0  0  0  0
  111.2943  -74.1187  -80.6736 N   0  0  0  0  0  0  0  0  0  0  0  0
  110.9887  -72.8983  -79.8941 C   0  0  0  0  0  0  0  0  0  0  0  0
  111.9730  -75.1543  -79.8170 C   0  0  0  0  0  0  0  0  0  0  0  0
  1  2  1  0  0  0  0
  1 14  1  0  0  0  0
  1 21  2  0  0  0  0
  2  3  2  0  0  0  0
  3  4  1  0  0  0  0
  3 12  1  0  0  0  0
  4  5  1  0  0  0  0
  5  6  1  0  0  0  0
  5 10  2  0  0  0  0
  6  7  2  0  0  0  0
  7  8  1  0  0  0  0
  7 24  1  0  0  0  0
  8  9  2  0  0  0  0
  9 10  1  0  0  0  0
 10 11  1  0  0  0  0
 11 12  2  0  0  0  0
 11 15  1  0  0  0  0
 12 13  1  0  0  0  0
 13 14  2  0  0  0  0
 15 16  2  0  0  0  0
 15 20  1  0  0  0  0
 16 17  1  0  0  0  0
 17 18  2  0  0  0  0
 18 19  1  0  0  0  0
 19 20  2  0  0  0  0
 21 22  1  0  0  0  0
 21 23  1  0  0  0  0
 24 25  1  0  0  0  0
 24 26  1  0  0  0  0
M  CHG  1  21   1
M  END
>  <CHROM.1>
175.80394919,-127.30610594,111.03675230,-76.21829908,-85.33502257,-1.25649630
-1.05331843,1.04468532

>  <Name>
1f1t Malachite green aptamer (Xray 2.8A)

>  <RI>
0

>  <Rbt.Current_Directory>
/home/itssahil/PROJECTS/Mol_Feturizer/New_Systems/rnas/1f1t

>  <Rbt.Executable>
rbdock ($Id: //depot/dev/client3/rdock/2013.1/src/exe/rbdock.cxx#4 $)

>  <Rbt.Library>
libRbt.so (2013.1, Build901 2013/11/27)

>  <Rbt.Parameter_File>
/export/apps/rDock/src/rDock_2013.1_src/data/scripts/dock_solv.prm

>  <Rbt.Receptor>
prm/pocket_docking_7.prm

>  <SCORE>
-58.7963

>  <SCORE.INTER>
-62.3433

>  <SCORE.INTER.CONST>
1

>  <SCORE.INTER.POLAR>
0

>  <SCORE.INTER.ROT>
2

>  <SCORE.INTER.SOLV>
11.1528

>  <SCORE.INTER.VDW>
-50.2131

>  <SCORE.INTER.norm>
-2.39782

>  <SCORE.INTRA>
3.547

>  <SCORE.INTRA.DIHEDRAL>
-1.10148

>  <SCORE.INTRA.DIHEDRAL.0>
4.18538

>  <SCORE.INTRA.POLAR>
0

>  <SCORE.INTRA.POLAR.0>
0

>  <SCORE.INTRA.REPUL>
0

>  <SCORE.INTRA.REPUL.0>
0

>  <SCORE.INTRA.SOLV>
0.0171767

>  <SCORE.INTRA.SOLV.lig_0>
-5.16926

>  <SCORE.INTRA.VDW>
4.08915

>  <SCORE.INTRA.VDW.0>
1.11912

>  <SCORE.INTRA.norm>
0.136423

>  <SCORE.RESTR>
0

>  <SCORE.RESTR.CAVITY>
0

>  <SCORE.RESTR.norm>
0

>  <SCORE.SYSTEM>
0

>  <SCORE.SYSTEM.CONST>
0

>  <SCORE.SYSTEM.DIHEDRAL>
0

>  <SCORE.SYSTEM.SOLV>
0

>  <SCORE.SYSTEM.norm>
0

>  <SCORE.heavy>
26

>  <SCORE.norm>
-2.2614

>  <RMSD>
6.119

$$$$
1f1t Malachite green aptamer (Xray 2.8A)
 OpenBabel11021811393D
libRbt.so/2013.1/901 2013/11/27
 26 29  0  0  0  0  0  0  0  0999 V2000
  112.2145  -79.3942  -86.9458 C   0  0  0  0  0  0  0  0  0  0  0  0
  112.3423  -78.9327  -85.5713 C   0  0  0  0  0  0  0  0  0  0  0  0
  111.7775  -77.6731  -85.3620 C   0  0  0  0  0  0  0  0  0  0  0  0
  111.9349  -77.2508  -83.9419 O   0  0  0  0  0  0  0  0  0  0  0  0
  111.4070  -76.1039  -83.7576 C   0  0  0  0  0  0  0  0  0  0  0  0
  111.6222  -75.7764  -82.3483 C   0  0  0  0  0  0  0  0  0  0  0  0
  111.0777  -74.5035  -81.9520 C   0  0  0  0  0  0  0  0  0  0  0  0
  110.3849  -73.6554  -82.8511 C   0  0  0  0  0  0  0  0  0  0  0  0
  110.2129  -74.0349  -84.2411 C   0  0  0  0  0  0  0  0  0  0  0  0
  110.7630  -75.2995  -84.6637 C   0  0  0  0  0  0  0  0  0  0  0  0
  110.5535  -75.6093  -86.1274 C   0  0  0  0  0  0  0  0  0  0  0  0
  111.1407  -76.8749  -86.3058 C   0  0  0  0  0  0  0  0  0  0  0  0
  111.0284  -77.3540  -87.6852 C   0  0  0  0  0  0  0  0  0  0  0  0
  111.5962  -78.6431  -87.9264 C   0  0  0  0  0  0  0  0  0  0  0  0
  109.9034  -74.7519  -86.9946 C   0  0  0  0  0  0  0  0  0  0  0  0
  110.2291  -73.3911  -87.2014 C   0  0  0  0  0  0  0  0  0  0  0  0
  109.5951  -72.5159  -88.0852 C   0  0  0  0  0  0  0  0  0  0  0  0
  108.4876  -72.9931  -88.8996 C   0  0  0  0  0  0  0  0  0  0  0  0
  108.1797  -74.3541  -88.6609 C   0  0  0  0  0  0  0  0  0  0  0  0
  108.7843  -75.2653  -87.7841 C   0  0  0  0  0  0  0  0  0  0  0  0
  112.7230  -80.6329  -87.3109 N   0  3  0  0  0  0  0  0  0  0  0  0
  113.3831  -81.5151  -86.3552 C   0  0  0  0  0  0  0  0  0  0  0  0
  112.6798  -81.2331  -88.6626 C   0  0  0  0  0  0  0  0  0  0  0  0
  111.3197  -74.1992  -80.6015 N   0  0  0  0  0  0  0  0  0  0  0  0
  110.9773  -73.0136  -79.7846 C   0  0  0  0  0  0  0  0  0  0  0  0
  112.0389  -75.2356  -79.7795 C   0  0  0  0  0  0  0  0  0  0  0  0
  1  2  1  0  0  0  0
  1 14  1  0  0  0  0
  1 21  2  0  0  0  0
  2  3  2  0  0  0  0
  3  4  1  0  0  0  0
  3 12  1  0  0  0  0
  4  5  1  0  0  0  0
  5  6  1  0  0  0  0
  5 10  2  0  0  0  0
  6  7  2  0  0  0  0
  7  8  1  0  0  0  0
  7 24  1  0  0  0  0
  8  9  2  0  0  0  0
  9 10  1  0  0  0  0
 10 11  1  0  0  0  0
 11 12  2  0  0  0  0
 11 15  1  0  0  0  0
 12 13  1  0  0  0  0
 13 14  2  0  0  0  0
 15 16  2  0  0  0  0
 15 20  1  0  0  0  0
 16 17  1  0  0  0  0
 17 18  2  0  0  0  0
 18 19  1  0  0  0  0
 19 20  2  0  0  0  0
 21 22  1  0  0  0  0
 21 23  1  0  0  0  0
 24 25  1  0  0  0  0
 24 26  1  0  0  0  0
M  CHG  1  21   1
M  END
>  <CHROM.1>
178.57381156,53.64869130,111.05485862,-76.21304774,-85.31828460,-1.27989202
-1.06091090,1.06054043

>  <Name>
1f1t Malachite green aptamer (Xray 2.8A)

>  <RI>
0

>  <Rbt.Current_Directory>
/home/itssahil/PROJECTS/Mol_Feturizer/New_Systems/rnas/1f1t

>  <Rbt.Executable>
rbdock ($Id: //depot/dev/client3/rdock/2013.1/src/exe/rbdock.cxx#4 $)

>  <Rbt.Library>
libRbt.so (2013.1, Build901 2013/11/27)

>  <Rbt.Parameter_File>
/export/apps/rDock/src/rDock_2013.1_src/data/scripts/dock_solv.prm

>  <Rbt.Receptor>
prm/pocket_docking_7.prm

>  <SCORE>
-59.7905

>  <SCORE.INTER>
-63.1858

>  <SCORE.INTER.CONST>
1

>  <SCORE.INTER.POLAR>
0

>  <SCORE.INTER.ROT>
2

>  <SCORE.INTER.SOLV>
11.1055

>  <SCORE.INTER.VDW>
-50.759

>  <SCORE.INTER.norm>
-2.43022

>  <SCORE.INTRA>
3.39531

>  <SCORE.INTRA.DIHEDRAL>
-1.08809

>  <SCORE.INTRA.DIHEDRAL.0>
4.18538

>  <SCORE.INTRA.POLAR>
0

>  <SCORE.INTRA.POLAR.0>
0

>  <SCORE.INTRA.REPUL>
0

>  <SCORE.INTRA.REPUL.0>
0

>  <SCORE.INTRA.SOLV>
0.0161163

>  <SCORE.INTRA.SOLV.lig_0>
-5.16926

>  <SCORE.INTRA.VDW>
3.93129

>  <SCORE.INTRA.VDW.0>
1.11912

>  <SCORE.INTRA.norm>
0.130589

>  <SCORE.RESTR>
0

>  <SCORE.RESTR.CAVITY>
0

>  <SCORE.RESTR.norm>
0

>  <SCORE.SYSTEM>
0

>  <SCORE.SYSTEM.CONST>
0

>  <SCORE.SYSTEM.DIHEDRAL>
0

>  <SCORE.SYSTEM.SOLV>
0

>  <SCORE.SYSTEM.norm>
0

>  <SCORE.heavy>
26

>  <SCORE.norm>
-2.29963

>  <RMSD>
6.119

$$$$
1f1t Malachite green aptamer (Xray 2.8A)
 OpenBabel11021811393D
libRbt.so/2013.1/901 2013/11/27
 26 29  0  0  0  0  0  0  0  0999 V2000
  112.2421  -79.4157  -86.9648 C   0  0  0  0  0  0  0  0  0  0  0  0
  112.3694  -78.9534  -85.5906 C   0  0  0  0  0  0  0  0  0  0  0  0
  111.8030  -77.6945  -85.3817 C   0  0  0  0  0  0  0  0  0  0  0  0
  111.9599  -77.2713  -83.9619 O   0  0  0  0  0  0  0  0  0  0  0  0
  111.4304  -76.1251  -83.7779 C   0  0  0  0  0  0  0  0  0  0  0  0
  111.6454  -75.7967  -82.3688 C   0  0  0  0  0  0  0  0  0  0  0  0
  111.0992  -74.5244  -81.9730 C   0  0  0  0  0  0  0  0  0  0  0  0
  110.4051  -73.6776  -82.8724 C   0  0  0  0  0  0  0  0  0  0  0  0
  110.2335  -74.0580  -84.2622 C   0  0  0  0  0  0  0  0  0  0  0  0
  110.7852  -75.3220  -84.6844 C   0  0  0  0  0  0  0  0  0  0  0  0
  110.5760  -75.6327  -86.1478 C   0  0  0  0  0  0  0  0  0  0  0  0
  111.1649  -76.8976  -86.3258 C   0  0  0  0  0  0  0  0  0  0  0  0
  111.0531  -77.3774  -87.7050 C   0  0  0  0  0  0  0  0  0  0  0  0
  111.6226  -78.6659  -87.9457 C   0  0  0  0  0  0  0  0  0  0  0  0
  109.9247  -74.7765  -87.0153 C   0  0  0  0  0  0  0  0  0  0  0  0
  110.2195  -73.4043  -87.1901 C   0  0  0  0  0  0  0  0  0  0  0  0
  109.5842  -72.5296  -88.0734 C   0  0  0  0  0  0  0  0  0  0  0  0
  108.5093  -73.0202  -88.9229 C   0  0  0  0  0  0  0  0  0  0  0  0
  108.2314  -74.3927  -88.7159 C   0  0  0  0  0  0  0  0  0  0  0  0
  108.8385  -75.3041  -87.8408 C   0  0  0  0  0  0  0  0  0  0  0  0
  112.7522  -80.6538  -87.3295 N   0  3  0  0  0  0  0  0  0  0  0  0
  113.4136  -81.5347  -86.3734 C   0  0  0  0  0  0  0  0  0  0  0  0
  112.7097  -81.2546  -88.6809 C   0  0  0  0  0  0  0  0  0  0  0  0
  111.3409  -74.2192  -80.6226 N   0  0  0  0  0  0  0  0  0  0  0  0
  111.0437  -73.0122  -79.8194 C   0  0  0  0  0  0  0  0  0  0  0  0
  112.0047  -75.2793  -79.7844 C   0  0  0  0  0  0  0  0  0  0  0  0
  1  2  1  0  0  0  0
  1 14  1  0  0  0  0
  1 21  2  0  0  0  0
  2  3  2  0  0  0  0
  3  4  1  0  0  0  0
  3 12  1  0  0  0  0
  4  5  1  0  0  0  0
  5  6  1  0  0  0  0
  5 10  2  0  0  0  0
  6  7  2  0  0  0  0
  7  8  1  0  0  0  0
  7 24  1  0  0  0  0
  8  9  2  0  0  0  0
  9 10  1  0  0  0  0
 10 11  1  0  0  0  0
 11 12  2  0  0  0  0
 11 15  1  0  0  0  0
 12 13  1  0  0  0  0
 13 14  2  0  0  0  0
 15 16  2  0  0  0  0
 15 20  1  0  0  0  0
 16 17  1  0  0  0  0
 17 18  2  0  0  0  0
 18 19  1  0  0  0  0
 19 20  2  0  0  0  0
 21 22  1  0  0  0  0
 21 23  1  0  0  0  0
 24 25  1  0  0  0  0
 24 26  1  0  0  0  0
M  CHG  1  21   1
M  END
>  <CHROM.1>
175.82364738,51.40871842,111.07818237,-76.23555813,-85.33866659,-1.27901658
-1.06087675,1.06111111

>  <Name>
1f1t Malachite green aptamer (Xray 2.8A)

>  <RI>
0

>  <Rbt.Current_Directory>
/home/itssahil/PROJECTS/Mol_Feturizer/New_Systems/rnas/1f1t

>  <Rbt.Executable>
rbdock ($Id: //depot/dev/client3/rdock/2013.1/src/exe/rbdock.cxx#4 $)

>  <Rbt.Library>
libRbt.so (2013.1, Build901 2013/11/27)

>  <Rbt.Parameter_File>
/export/apps/rDock/src/rDock_2013.1_src/data/scripts/dock_solv.prm

>  <Rbt.Receptor>
prm/pocket_docking_7.prm

>  <SCORE>
-59.7374

>  <SCORE.INTER>
-63.13

>  <SCORE.INTER.CONST>
1

>  <SCORE.INTER.POLAR>
0

>  <SCORE.INTER.ROT>
2

>  <SCORE.INTER.SOLV>
11.1069

>  <SCORE.INTER.VDW>
-50.7223

>  <SCORE.INTER.norm>
-2.42808

>  <SCORE.INTRA>
3.39263

>  <SCORE.INTRA.DIHEDRAL>
-1.20685

>  <SCORE.INTRA.DIHEDRAL.0>
4.18538

>  <SCORE.INTRA.POLAR>
0

>  <SCORE.INTRA.POLAR.0>
0

>  <SCORE.INTRA.REPUL>
0

>  <SCORE.INTRA.REPUL.0>
0

>  <SCORE.INTRA.SOLV>
0.0185173

>  <SCORE.INTRA.SOLV.lig_0>
-5.16926

>  <SCORE.INTRA.VDW>
3.9868

>  <SCORE.INTRA.VDW.0>
1.11912

>  <SCORE.INTRA.norm>
0.130486

>  <SCORE.RESTR>
0

>  <SCORE.RESTR.CAVITY>
0

>  <SCORE.RESTR.norm>
0

>  <SCORE.SYSTEM>
0

>  <SCORE.SYSTEM.CONST>
0

>  <SCORE.SYSTEM.DIHEDRAL>
0

>  <SCORE.SYSTEM.SOLV>
0

>  <SCORE.SYSTEM.norm>
0

>  <SCORE.heavy>
26

>  <SCORE.norm>
-2.29759

>  <RMSD>
6.120

$$$$
1f1t Malachite green aptamer (Xray 2.8A)
 OpenBabel11021811393D
libRbt.so/2013.1/901 2013/11/27
 26 29  0  0  0  0  0  0  0  0999 V2000
  112.2162  -79.3787  -86.9409 C   0  0  0  0  0  0  0  0  0  0  0  0
  112.3493  -78.9191  -85.5663 C   0  0  0  0  0  0  0  0  0  0  0  0
  111.7923  -77.6564  -85.3549 C   0  0  0  0  0  0  0  0  0  0  0  0
  111.9549  -77.2362  -83.9348 O   0  0  0  0  0  0  0  0  0  0  0  0
  111.4340  -76.0865  -83.7485 C   0  0  0  0  0  0  0  0  0  0  0  0
  111.6538  -75.7613  -82.3394 C   0  0  0  0  0  0  0  0  0  0  0  0
  111.1175  -74.4856  -81.9411 C   0  0  0  0  0  0  0  0  0  0  0  0
  110.4279  -73.6328  -82.8381 C   0  0  0  0  0  0  0  0  0  0  0  0
  110.2511  -74.0101  -84.2280 C   0  0  0  0  0  0  0  0  0  0  0  0
  110.7929  -75.2775  -84.6528 C   0  0  0  0  0  0  0  0  0  0  0  0
  110.5789  -75.5849  -86.1162 C   0  0  0  0  0  0  0  0  0  0  0  0
  111.1583  -76.8538  -86.2968 C   0  0  0  0  0  0  0  0  0  0  0  0
  111.0406  -77.3311  -87.6764 C   0  0  0  0  0  0  0  0  0  0  0  0
  111.6003  -78.6233  -87.9197 C   0  0  0  0  0  0  0  0  0  0  0  0
  109.9321  -74.7230  -86.9815 C   0  0  0  0  0  0  0  0  0  0  0  0
  110.2549  -73.3597  -87.1759 C   0  0  0  0  0  0  0  0  0  0  0  0
  109.6243  -72.4799  -88.0574 C   0  0  0  0  0  0  0  0  0  0  0  0
  108.5240  -72.9544  -88.8831 C   0  0  0  0  0  0  0  0  0  0  0  0
  108.2188  -74.3181  -88.6568 C   0  0  0  0  0  0  0  0  0  0  0  0
  108.8202  -75.2340  -87.7826 C   0  0  0  0  0  0  0  0  0  0  0  0
  112.7168  -80.6201  -87.3080 N   0  3  0  0  0  0  0  0  0  0  0  0
  113.3735  -81.5069  -86.3542 C   0  0  0  0  0  0  0  0  0  0  0  0
  112.6674  -81.2189  -88.6601 C   0  0  0  0  0  0  0  0  0  0  0  0
  111.3639  -74.1838  -80.5907 N   0  0  0  0  0  0  0  0  0  0  0  0
  111.0498  -72.9876  -79.7779 C   0  0  0  0  0  0  0  0  0  0  0  0
  112.0544  -75.2359  -79.7641 C   0  0  0  0  0  0  0  0  0  0  0  0
  1  2  1  0  0  0  0
  1 14  1  0  0  0  0
  1 21  2  0  0  0  0
  2  3  2  0  0  0  0
  3  4  1  0  0  0  0
  3 12  1  0  0  0  0
  4  5  1  0  0  0  0
  5  6  1  0  0  0  0
  5 10  2  0  0  0  0
  6  7  2  0  0  0  0
  7  8  1  0  0  0  0
  7 24  1  0  0  0  0
  8  9  2  0  0  0  0
  9 10  1  0  0  0  0
 10 11  1  0  0  0  0
 11 12  2  0  0  0  0
 11 15  1  0  0  0  0
 12 13  1  0  0  0  0
 13 14  2  0  0  0  0
 15 16  2  0  0  0  0
 15 20  1  0  0  0  0
 16 17  1  0  0  0  0
 17 18  2  0  0  0  0
 18 19  1  0  0  0  0
 19 20  2  0  0  0  0
 21 22  1  0  0  0  0
 21 23  1  0  0  0  0
 24 25  1  0  0  0  0
 24 26  1  0  0  0  0
M  CHG  1  21   1
M  END
>  <CHROM.1>
177.40057556,52.83025379,111.07816741,-76.19230759,-85.30864913,-1.28934672
-1.06554098,1.05316632

>  <Name>
1f1t Malachite green aptamer (Xray 2.8A)

>  <RI>
0

>  <Rbt.Current_Directory>
/home/itssahil/PROJECTS/Mol_Feturizer/New_Systems/rnas/1f1t

>  <Rbt.Executable>
rbdock ($Id: //depot/dev/client3/rdock/2013.1/src/exe/rbdock.cxx#4 $)

>  <Rbt.Library>
libRbt.so (2013.1, Build901 2013/11/27)

>  <Rbt.Parameter_File>
/export/apps/rDock/src/rDock_2013.1_src/data/scripts/dock_solv.prm

>  <Rbt.Receptor>
prm/pocket_docking_8.prm

>  <SCORE>
-59.7073

>  <SCORE.INTER>
-63.1066

>  <SCORE.INTER.CONST>
1

>  <SCORE.INTER.POLAR>
0

>  <SCORE.INTER.ROT>
2

>  <SCORE.INTER.SOLV>
11.1508

>  <SCORE.INTER.VDW>
-50.7213

>  <SCORE.INTER.norm>
-2.42718

>  <SCORE.INTRA>
3.39933

>  <SCORE.INTRA.DIHEDRAL>
-1.13437

>  <SCORE.INTRA.DIHEDRAL.0>
4.18538

>  <SCORE.INTRA.POLAR>
0

>  <SCORE.INTRA.POLAR.0>
0

>  <SCORE.INTRA.REPUL>
0

>  <SCORE.INTRA.REPUL.0>
0

>  <SCORE.INTRA.SOLV>
0.0170021

>  <SCORE.INTRA.SOLV.lig_0>
-5.16926

>  <SCORE.INTRA.VDW>
3.95802

>  <SCORE.INTRA.VDW.0>
1.11912

>  <SCORE.INTRA.norm>
0.130743

>  <SCORE.RESTR>
0

>  <SCORE.RESTR.CAVITY>
0

>  <SCORE.RESTR.norm>
0

>  <SCORE.SYSTEM>
0

>  <SCORE.SYSTEM.CONST>
0

>  <SCORE.SYSTEM.DIHEDRAL>
0

>  <SCORE.SYSTEM.SOLV>
0

>  <SCORE.SYSTEM.norm>
0

>  <SCORE.heavy>
26

>  <SCORE.norm>
-2.29643

>  <RMSD>
6.120

$$$$
1f1t Malachite green aptamer (Xray 2.8A)
 OpenBabel11021811393D
libRbt.so/2013.1/901 2013/11/27
 26 29  0  0  0  0  0  0  0  0999 V2000
  112.2592  -79.4674  -86.8855 C   0  0  0  0  0  0  0  0  0  0  0  0
  112.3806  -78.9916  -85.5154 C   0  0  0  0  0  0  0  0  0  0  0  0
  111.7990  -77.7378  -85.3176 C   0  0  0  0  0  0  0  0  0  0  0  0
  111.9505  -77.3004  -83.9016 O   0  0  0  0  0  0  0  0  0  0  0  0
  111.4072  -76.1591  -83.7277 C   0  0  0  0  0  0  0  0  0  0  0  0
  111.6178  -75.8157  -82.3215 C   0  0  0  0  0  0  0  0  0  0  0  0
  111.0563  -74.5467  -81.9370 C   0  0  0  0  0  0  0  0  0  0  0  0
  110.3524  -73.7162  -82.8439 C   0  0  0  0  0  0  0  0  0  0  0  0
  110.1857  -74.1107  -84.2303 C   0  0  0  0  0  0  0  0  0  0  0  0
  110.7527  -75.3717  -84.6413 C   0  0  0  0  0  0  0  0  0  0  0  0
  110.5477  -75.6977  -86.1020 C   0  0  0  0  0  0  0  0  0  0  0  0
  111.1517  -76.9569  -86.2688 C   0  0  0  0  0  0  0  0  0  0  0  0
  111.0461  -77.4501  -87.6438 C   0  0  0  0  0  0  0  0  0  0  0  0
  111.6311  -78.7337  -87.8731 C   0  0  0  0  0  0  0  0  0  0  0  0
  109.8864  -74.8570  -86.9771 C   0  0  0  0  0  0  0  0  0  0  0  0
  108.8218  -75.2321  -87.8295 C   0  0  0  0  0  0  0  0  0  0  0  0
  108.1314  -74.3932  -88.7060 C   0  0  0  0  0  0  0  0  0  0  0  0
  108.4963  -72.9872  -88.7933 C   0  0  0  0  0  0  0  0  0  0  0  0
  109.5711  -72.6468  -87.9372 C   0  0  0  0  0  0  0  0  0  0  0  0
  110.2933  -73.4538  -87.0473 C   0  0  0  0  0  0  0  0  0  0  0  0
  112.7843  -80.7025  -87.2393 N   0  3  0  0  0  0  0  0  0  0  0  0
  113.4559  -81.5670  -86.2754 C   0  0  0  0  0  0  0  0  0  0  0  0
  112.7494  -81.3156  -88.5854 C   0  0  0  0  0  0  0  0  0  0  0  0
  111.2940  -74.2268  -80.5893 N   0  0  0  0  0  0  0  0  0  0  0  0
  111.9688  -74.9757  -79.5057 C   0  0  0  0  0  0  0  0  0  0  0  0
  110.8135  -72.8848  -80.1042 C   0  0  0  0  0  0  0  0  0  0  0  0
  1  2  1  0  0  0  0
  1 14  1  0  0  0  0
  1 21  2  0  0  0  0
  2  3  2  0  0  0  0
  3  4  1  0  0  0  0
  3 12  1  0  0  0  0
  4  5  1  0  0  0  0
  5  6  1  0  0  0  0
  5 10  2  0  0  0  0
  6  7  2  0  0  0  0
  7  8  1  0  0  0  0
  7 24  1  0  0  0  0
  8  9  2  0  0  0  0
  9 10  1  0  0  0  0
 10 11  1  0  0  0  0
 11 12  2  0  0  0  0
 11 15  1  0  0  0  0
 12 13  1  0  0  0  0
 13 14  2  0  0  0  0
 15 16  2  0  0  0  0
 15 20  1  0  0  0  0
 16 17  1  0  0  0  0
 17 18  2  0  0  0  0
 18 19  1  0  0  0  0
 19 20  2  0  0  0  0
 21 22  1  0  0  0  0
 21 23  1  0  0  0  0
 24 25  1  0  0  0  0
 24 26  1  0  0  0  0
M  CHG  1  21   1
M  END
>  <CHROM.1>
-2.37212599,-128.55490511,111.05631039,-76.25192577,-85.27986079,-1.23635601
-1.05328402,1.06300336

>  <Name>
1f1t Malachite green aptamer (Xray 2.8A)

>  <RI>
0

>  <Rbt.Current_Directory>
/home/itssahil/PROJECTS/Mol_Feturizer/New_Systems/rnas/1f1t

>  <Rbt.Executable>
rbdock ($Id: //depot/dev/client3/rdock/2013.1/src/exe/rbdock.cxx#4 $)

>  <Rbt.Library>
libRbt.so (2013.1, Build901 2013/11/27)

>  <Rbt.Parameter_File>
/export/apps/rDock/src/rDock_2013.1_src/data/scripts/dock_solv.prm

>  <Rbt.Receptor>
prm/pocket_docking_6.prm

>  <SCORE>
-62.0376

>  <SCORE.INTER>
-62.3127

>  <SCORE.INTER.CONST>
1

>  <SCORE.INTER.POLAR>
0

>  <SCORE.INTER.ROT>
2

>  <SCORE.INTER.SOLV>
11.0134

>  <SCORE.INTER.VDW>
-50.1462

>  <SCORE.INTER.norm>
-2.39664

>  <SCORE.INTRA>
0.275053

>  <SCORE.INTRA.DIHEDRAL>
-1.2518

>  <SCORE.INTRA.DIHEDRAL.0>
4.18538

>  <SCORE.INTRA.POLAR>
0

>  <SCORE.INTRA.POLAR.0>
0

>  <SCORE.INTRA.REPUL>
0

>  <SCORE.INTRA.REPUL.0>
0

>  <SCORE.INTRA.SOLV>
0.0203672

>  <SCORE.INTRA.SOLV.lig_0>
-5.16926

>  <SCORE.INTRA.VDW>
0.890768

>  <SCORE.INTRA.VDW.0>
1.11912

>  <SCORE.INTRA.norm>
0.010579

>  <SCORE.RESTR>
0

>  <SCORE.RESTR.CAVITY>
0

>  <SCORE.RESTR.norm>
0

>  <SCORE.SYSTEM>
0

>  <SCORE.SYSTEM.CONST>
0

>  <SCORE.SYSTEM.DIHEDRAL>
0

>  <SCORE.SYSTEM.SOLV>
0

>  <SCORE.SYSTEM.norm>
0

>  <SCORE.heavy>
26

>  <SCORE.norm>
-2.38606

>  <RMSD>
6.128

$$$$
1f1t Malachite green aptamer (Xray 2.8A)
 OpenBabel11021811393D
libRbt.so/2013.1/901 2013/11/27
 26 29  0  0  0  0  0  0  0  0999 V2000
  112.2431  -79.4564  -86.8935 C   0  0  0  0  0  0  0  0  0  0  0  0
  112.3672  -78.9805  -85.5237 C   0  0  0  0  0  0  0  0  0  0  0  0
  111.7882  -77.7256  -85.3254 C   0  0  0  0  0  0  0  0  0  0  0  0
  111.9425  -77.2881  -83.9097 O   0  0  0  0  0  0  0  0  0  0  0  0
  111.4015  -76.1457  -83.7354 C   0  0  0  0  0  0  0  0  0  0  0  0
  111.6147  -75.8024  -82.3296 C   0  0  0  0  0  0  0  0  0  0  0  0
  111.0560  -74.5322  -81.9446 C   0  0  0  0  0  0  0  0  0  0  0  0
  110.3523  -73.7007  -82.8507 C   0  0  0  0  0  0  0  0  0  0  0  0
  110.1830  -74.0953  -84.2368 C   0  0  0  0  0  0  0  0  0  0  0  0
  110.7471  -75.3574  -84.6483 C   0  0  0  0  0  0  0  0  0  0  0  0
  110.5395  -75.6834  -86.1086 C   0  0  0  0  0  0  0  0  0  0  0  0
  111.1410  -76.9438  -86.2759 C   0  0  0  0  0  0  0  0  0  0  0  0
  111.0326  -77.4372  -87.6506 C   0  0  0  0  0  0  0  0  0  0  0  0
  111.6149  -78.7219  -87.8804 C   0  0  0  0  0  0  0  0  0  0  0  0
  109.8784  -74.8418  -86.9830 C   0  0  0  0  0  0  0  0  0  0  0  0
  108.8089  -75.2142  -87.8304 C   0  0  0  0  0  0  0  0  0  0  0  0
  108.1188  -74.3741  -88.7062 C   0  0  0  0  0  0  0  0  0  0  0  0
  108.4895  -72.9699  -88.7979 C   0  0  0  0  0  0  0  0  0  0  0  0
  109.5690  -72.6323  -87.9467 C   0  0  0  0  0  0  0  0  0  0  0  0
  110.2912  -73.4406  -87.0578 C   0  0  0  0  0  0  0  0  0  0  0  0
  112.7655  -80.6926  -87.2477 N   0  3  0  0  0  0  0  0  0  0  0  0
  113.4369  -81.5580  -86.2845 C   0  0  0  0  0  0  0  0  0  0  0  0
  112.7275  -81.3059  -88.5935 C   0  0  0  0  0  0  0  0  0  0  0  0
  111.2961  -74.2124  -80.5973 N   0  0  0  0  0  0  0  0  0  0  0  0
  111.9477  -74.9731  -79.5078 C   0  0  0  0  0  0  0  0  0  0  0  0
  110.8474  -72.8568  -80.1201 C   0  0  0  0  0  0  0  0  0  0  0  0
  1  2  1  0  0  0  0
  1 14  1  0  0  0  0
  1 21  2  0  0  0  0
  2  3  2  0  0  0  0
  3  4  1  0  0  0  0
  3 12  1  0  0  0  0
  4  5  1  0  0  0  0
  5  6  1  0  0  0  0
  5 10  2  0  0  0  0
  6  7  2  0  0  0  0
  7  8  1  0  0  0  0
  7 24  1  0  0  0  0
  8  9  2  0  0  0  0
  9 10  1  0  0  0  0
 10 11  1  0  0  0  0
 11 12  2  0  0  0  0
 11 15  1  0  0  0  0
 12 13  1  0  0  0  0
 13 14  2  0  0  0  0
 15 16  2  0  0  0  0
 15 20  1  0  0  0  0
 16 17  1  0  0  0  0
 17 18  2  0  0  0  0
 18 19  1  0  0  0  0
 19 20  2  0  0  0  0
 21 22  1  0  0  0  0
 21 23  1  0  0  0  0
 24 25  1  0  0  0  0
 24 26  1  0  0  0  0
M  CHG  1  21   1
M  END
>  <CHROM.1>
-3.75485887,-128.32352223,111.04848539,-76.23829153,-85.28709962,-1.24091924
-1.05460735,1.05873021

>  <Name>
1f1t Malachite green aptamer (Xray 2.8A)

>  <RI>
0

>  <Rbt.Current_Directory>
/home/itssahil/PROJECTS/Mol_Feturizer/New_Systems/rnas/1f1t

>  <Rbt.Executable>
rbdock ($Id: //depot/dev/client3/rdock/2013.1/src/exe/rbdock.cxx#4 $)

>  <Rbt.Library>
libRbt.so (2013.1, Build901 2013/11/27)

>  <Rbt.Parameter_File>
/export/apps/rDock/src/rDock_2013.1_src/data/scripts/dock_solv.prm

>  <Rbt.Receptor>
prm/pocket_docking_2.prm

>  <SCORE>
-62.073

>  <SCORE.INTER>
-62.3436

>  <SCORE.INTER.CONST>
1

>  <SCORE.INTER.POLAR>
0

>  <SCORE.INTER.ROT>
2

>  <SCORE.INTER.SOLV>
11.0381

>  <SCORE.INTER.VDW>
-50.1751

>  <SCORE.INTER.norm>
-2.39783

>  <SCORE.INTRA>
0.270622

>  <SCORE.INTRA.DIHEDRAL>
-1.19839

>  <SCORE.INTRA.DIHEDRAL.0>
4.18538

>  <SCORE.INTRA.POLAR>
0

>  <SCORE.INTRA.POLAR.0>
0

>  <SCORE.INTRA.REPUL>
0

>  <SCORE.INTRA.REPUL.0>
0

>  <SCORE.INTRA.SOLV>
0.0200994

>  <SCORE.INTRA.SOLV.lig_0>
-5.16926

>  <SCORE.INTRA.VDW>
0.859769

>  <SCORE.INTRA.VDW.0>
1.11912

>  <SCORE.INTRA.norm>
0.0104086

>  <SCORE.RESTR>
0

>  <SCORE.RESTR.CAVITY>
0

>  <SCORE.RESTR.norm>
0

>  <SCORE.SYSTEM>
0

>  <SCORE.SYSTEM.CONST>
0

>  <SCORE.SYSTEM.DIHEDRAL>
0

>  <SCORE.SYSTEM.SOLV>
0

>  <SCORE.SYSTEM.norm>
0

>  <SCORE.heavy>
26

>  <SCORE.norm>
-2.38742

>  <RMSD>
6.129

$$$$
1f1t Malachite green aptamer (Xray 2.8A)
 OpenBabel11021811393D
libRbt.so/2013.1/901 2013/11/27
 26 29  0  0  0  0  0  0  0  0999 V2000
  112.2397  -79.4623  -86.8898 C   0  0  0  0  0  0  0  0  0  0  0  0
  112.3690  -78.9846  -85.5211 C   0  0  0  0  0  0  0  0  0  0  0  0
  111.7941  -77.7278  -85.3232 C   0  0  0  0  0  0  0  0  0  0  0  0
  111.9536  -77.2885  -83.9086 O   0  0  0  0  0  0  0  0  0  0  0  0
  111.4163  -76.1444  -83.7346 C   0  0  0  0  0  0  0  0  0  0  0  0
  111.6344  -75.7994  -82.3299 C   0  0  0  0  0  0  0  0  0  0  0  0
  111.0804  -74.5271  -81.9454 C   0  0  0  0  0  0  0  0  0  0  0  0
  110.3766  -73.6950  -82.8508 C   0  0  0  0  0  0  0  0  0  0  0  0
  110.2023  -74.0913  -84.2359 C   0  0  0  0  0  0  0  0  0  0  0  0
  110.7617  -75.3556  -84.6469 C   0  0  0  0  0  0  0  0  0  0  0  0
  110.5490  -75.6833  -86.1061 C   0  0  0  0  0  0  0  0  0  0  0  0
  111.1465  -76.9456  -86.2731 C   0  0  0  0  0  0  0  0  0  0  0  0
  111.0329  -77.4408  -87.6467 C   0  0  0  0  0  0  0  0  0  0  0  0
  111.6109  -78.7276  -87.8761 C   0  0  0  0  0  0  0  0  0  0  0  0
  109.8880  -74.8411  -86.9800 C   0  0  0  0  0  0  0  0  0  0  0  0
  108.8175  -75.2126  -87.8265 C   0  0  0  0  0  0  0  0  0  0  0  0
  108.1273  -74.3721  -88.7017 C   0  0  0  0  0  0  0  0  0  0  0  0
  108.4991  -72.9681  -88.7939 C   0  0  0  0  0  0  0  0  0  0  0  0
  109.5797  -72.6314  -87.9436 C   0  0  0  0  0  0  0  0  0  0  0  0
  110.3019  -73.4403  -87.0553 C   0  0  0  0  0  0  0  0  0  0  0  0
  112.7576  -80.7005  -87.2435 N   0  3  0  0  0  0  0  0  0  0  0  0
  113.4292  -81.5664  -86.2808 C   0  0  0  0  0  0  0  0  0  0  0  0
  112.7141  -81.3159  -88.5883 C   0  0  0  0  0  0  0  0  0  0  0  0
  111.3252  -74.2059  -80.5993 N   0  0  0  0  0  0  0  0  0  0  0  0
  111.9717  -74.9693  -79.5086 C   0  0  0  0  0  0  0  0  0  0  0  0
  110.8887  -72.8452  -80.1249 C   0  0  0  0  0  0  0  0  0  0  0  0
  1  2  1  0  0  0  0
  1 14  1  0  0  0  0
  1 21  2  0  0  0  0
  2  3  2  0  0  0  0
  3  4  1  0  0  0  0
  3 12  1  0  0  0  0
  4  5  1  0  0  0  0
  5  6  1  0  0  0  0
  5 10  2  0  0  0  0
  6  7  2  0  0  0  0
  7  8  1  0  0  0  0
  7 24  1  0  0  0  0
  8  9  2  0  0  0  0
  9 10  1  0  0  0  0
 10 11  1  0  0  0  0
 11 12  2  0  0  0  0
 11 15  1  0  0  0  0
 12 13  1  0  0  0  0
 13 14  2  0  0  0  0
 15 16  2  0  0  0  0
 15 20  1  0  0  0  0
 16 17  1  0  0  0  0
 17 18  2  0  0  0  0
 18 19  1  0  0  0  0
 19 20  2  0  0  0  0
 21 22  1  0  0  0  0
 21 23  1  0  0  0  0
 24 25  1  0  0  0  0
 24 26  1  0  0  0  0
M  CHG  1  21   1
M  END
>  <CHROM.1>
-4.09835703,-128.50495561,111.05878526,-76.23830053,-85.28515686,-1.24878240
-1.05581357,1.05031048

>  <Name>
1f1t Malachite green aptamer (Xray 2.8A)

>  <RI>
0

>  <Rbt.Current_Directory>
/home/itssahil/PROJECTS/Mol_Feturizer/New_Systems/rnas/1f1t

>  <Rbt.Executable>
rbdock ($Id: //depot/dev/client3/rdock/2013.1/src/exe/rbdock.cxx#4 $)

>  <Rbt.Library>
libRbt.so (2013.1, Build901 2013/11/27)

>  <Rbt.Parameter_File>
/export/apps/rDock/src/rDock_2013.1_src/data/scripts/dock_solv.prm

>  <Rbt.Receptor>
prm/pocket_docking_4.prm

>  <SCORE>
-62.059

>  <SCORE.INTER>
-62.3397

>  <SCORE.INTER.CONST>
1

>  <SCORE.INTER.POLAR>
0

>  <SCORE.INTER.ROT>
2

>  <SCORE.INTER.SOLV>
11.0469

>  <SCORE.INTER.VDW>
-50.1755

>  <SCORE.INTER.norm>
-2.39768

>  <SCORE.INTRA>
0.280725

>  <SCORE.INTRA.DIHEDRAL>
-1.20237

>  <SCORE.INTRA.DIHEDRAL.0>
4.18538

>  <SCORE.INTRA.POLAR>
0

>  <SCORE.INTRA.POLAR.0>
0

>  <SCORE.INTRA.REPUL>
0

>  <SCORE.INTRA.REPUL.0>
0

>  <SCORE.INTRA.SOLV>
0.0203012

>  <SCORE.INTRA.SOLV.lig_0>
-5.16926

>  <SCORE.INTRA.VDW>
0.871761

>  <SCORE.INTRA.VDW.0>
1.11912

>  <SCORE.INTRA.norm>
0.0107971

>  <SCORE.RESTR>
0

>  <SCORE.RESTR.CAVITY>
0

>  <SCORE.RESTR.norm>
0

>  <SCORE.SYSTEM>
0

>  <SCORE.SYSTEM.CONST>
0

>  <SCORE.SYSTEM.DIHEDRAL>
0

>  <SCORE.SYSTEM.SOLV>
0

>  <SCORE.SYSTEM.norm>
0

>  <SCORE.heavy>
26

>  <SCORE.norm>
-2.38688

>  <RMSD>
6.129

$$$$
1f1t Malachite green aptamer (Xray 2.8A)
 OpenBabel11021811393D
libRbt.so/2013.1/901 2013/11/27
 26 29  0  0  0  0  0  0  0  0999 V2000
  112.2396  -79.4569  -86.8466 C   0  0  0  0  0  0  0  0  0  0  0  0
  112.3638  -78.9603  -85.4842 C   0  0  0  0  0  0  0  0  0  0  0  0
  111.7858  -77.7021  -85.3052 C   0  0  0  0  0  0  0  0  0  0  0  0
  111.9400  -77.2432  -83.8962 O   0  0  0  0  0  0  0  0  0  0  0  0
  111.3999  -76.0980  -83.7394 C   0  0  0  0  0  0  0  0  0  0  0  0
  111.6131  -75.7335  -82.3389 C   0  0  0  0  0  0  0  0  0  0  0  0
  111.0553  -74.4572  -81.9734 C   0  0  0  0  0  0  0  0  0  0  0  0
  110.3524  -73.6390  -82.8922 C   0  0  0  0  0  0  0  0  0  0  0  0
  110.1831  -74.0545  -84.2722 C   0  0  0  0  0  0  0  0  0  0  0  0
  110.7463  -75.3231  -84.6643 C   0  0  0  0  0  0  0  0  0  0  0  0
  110.5387  -75.6711  -86.1195 C   0  0  0  0  0  0  0  0  0  0  0  0
  111.1393  -76.9343  -86.2675 C   0  0  0  0  0  0  0  0  0  0  0  0
  111.0308  -77.4484  -87.6346 C   0  0  0  0  0  0  0  0  0  0  0  0
  111.6122  -78.7370  -87.8447 C   0  0  0  0  0  0  0  0  0  0  0  0
  109.8785  -74.8423  -87.0068 C   0  0  0  0  0  0  0  0  0  0  0  0
  108.7965  -75.2219  -87.8348 C   0  0  0  0  0  0  0  0  0  0  0  0
  108.1072  -74.3945  -88.7231 C   0  0  0  0  0  0  0  0  0  0  0  0
  108.4927  -72.9970  -88.8511 C   0  0  0  0  0  0  0  0  0  0  0  0
  109.5844  -72.6523  -88.0184 C   0  0  0  0  0  0  0  0  0  0  0  0
  110.3062  -73.4481  -87.1181 C   0  0  0  0  0  0  0  0  0  0  0  0
  112.7611  -80.6987  -87.1819 N   0  3  0  0  0  0  0  0  0  0  0  0
  113.4316  -81.5499  -86.2055 C   0  0  0  0  0  0  0  0  0  0  0  0
  112.7229  -81.3324  -88.5183 C   0  0  0  0  0  0  0  0  0  0  0  0
  111.2954  -74.1171  -80.6311 N   0  0  0  0  0  0  0  0  0  0  0  0
  111.9415  -74.8637  -79.5286 C   0  0  0  0  0  0  0  0  0  0  0  0
  110.8533  -72.7516  -80.1762 C   0  0  0  0  0  0  0  0  0  0  0  0
  1  2  1  0  0  0  0
  1 14  1  0  0  0  0
  1 21  2  0  0  0  0
  2  3  2  0  0  0  0
  3  4  1  0  0  0  0
  3 12  1  0  0  0  0
  4  5  1  0  0  0  0
  5  6  1  0  0  0  0
  5 10  2  0  0  0  0
  6  7  2  0  0  0  0
  7  8  1  0  0  0  0
  7 24  1  0  0  0  0
  8  9  2  0  0  0  0
  9 10  1  0  0  0  0
 10 11  1  0  0  0  0
 11 12  2  0  0  0  0
 11 15  1  0  0  0  0
 12 13  1  0  0  0  0
 13 14  2  0  0  0  0
 15 16  2  0  0  0  0
 15 20  1  0  0  0  0
 16 17  1  0  0  0  0
 17 18  2  0  0  0  0
 18 19  1  0  0  0  0
 19 20  2  0  0  0  0
 21 22  1  0  0  0  0
 21 23  1  0  0  0  0
 24 25  1  0  0  0  0
 24 26  1  0  0  0  0
M  CHG  1  21   1
M  END
>  <CHROM.1>
-4.02921988,-127.37010641,111.04732716,-76.21379971,-85.28969932,-1.24121026
-1.05553061,1.04331060

>  <Name>
1f1t Malachite green aptamer (Xray 2.8A)

>  <RI>
0

>  <Rbt.Current_Directory>
/home/itssahil/PROJECTS/Mol_Feturizer/New_Systems/rnas/1f1t

>  <Rbt.Executable>
rbdock ($Id: //depot/dev/client3/rdock/2013.1/src/exe/rbdock.cxx#4 $)

>  <Rbt.Library>
libRbt.so (2013.1, Build901 2013/11/27)

>  <Rbt.Parameter_File>
/export/apps/rDock/src/rDock_2013.1_src/data/scripts/dock_solv.prm

>  <Rbt.Receptor>
prm/pocket_docking_7.prm

>  <SCORE>
-62.0674

>  <SCORE.INTER>
-62.2993

>  <SCORE.INTER.CONST>
1

>  <SCORE.INTER.POLAR>
0

>  <SCORE.INTER.ROT>
2

>  <SCORE.INTER.SOLV>
11.1307

>  <SCORE.INTER.VDW>
-50.1764

>  <SCORE.INTER.norm>
-2.39613

>  <SCORE.INTRA>
0.231895

>  <SCORE.INTRA.DIHEDRAL>
-1.11218

>  <SCORE.INTRA.DIHEDRAL.0>
4.18538

>  <SCORE.INTRA.POLAR>
0

>  <SCORE.INTRA.POLAR.0>
0

>  <SCORE.INTRA.REPUL>
0

>  <SCORE.INTRA.REPUL.0>
0

>  <SCORE.INTRA.SOLV>
0.0190204

>  <SCORE.INTRA.SOLV.lig_0>
-5.16926

>  <SCORE.INTRA.VDW>
0.778473

>  <SCORE.INTRA.VDW.0>
1.11912

>  <SCORE.INTRA.norm>
0.00891902

>  <SCORE.RESTR>
0

>  <SCORE.RESTR.CAVITY>
0

>  <SCORE.RESTR.norm>
0

>  <SCORE.SYSTEM>
0

>  <SCORE.SYSTEM.CONST>
0

>  <SCORE.SYSTEM.DIHEDRAL>
0

>  <SCORE.SYSTEM.SOLV>
0

>  <SCORE.SYSTEM.norm>
0

>  <SCORE.heavy>
26

>  <SCORE.norm>
-2.38721

>  <RMSD>
6.129

$$$$
1f1t Malachite green aptamer (Xray 2.8A)
 OpenBabel11021811393D
libRbt.so/2013.1/901 2013/11/27
 26 29  0  0  0  0  0  0  0  0999 V2000
  112.2524  -79.4527  -86.8986 C   0  0  0  0  0  0  0  0  0  0  0  0
  112.3749  -78.9674  -85.5319 C   0  0  0  0  0  0  0  0  0  0  0  0
  111.7938  -77.7120  -85.3426 C   0  0  0  0  0  0  0  0  0  0  0  0
  111.9464  -77.2647  -83.9297 O   0  0  0  0  0  0  0  0  0  0  0  0
  111.4036  -76.1221  -83.7635 C   0  0  0  0  0  0  0  0  0  0  0  0
  111.6152  -75.7689  -82.3599 C   0  0  0  0  0  0  0  0  0  0  0  0
  111.0544  -74.4971  -81.9839 C   0  0  0  0  0  0  0  0  0  0  0  0
  110.3501  -73.6727  -82.8961 C   0  0  0  0  0  0  0  0  0  0  0  0
  110.1824  -74.0769  -84.2796 C   0  0  0  0  0  0  0  0  0  0  0  0
  110.7487  -75.3409  -84.6821 C   0  0  0  0  0  0  0  0  0  0  0  0
  110.5426  -75.6771  -86.1404 C   0  0  0  0  0  0  0  0  0  0  0  0
  111.1461  -76.9376  -86.2987 C   0  0  0  0  0  0  0  0  0  0  0  0
  111.0395  -77.4404  -87.6701 C   0  0  0  0  0  0  0  0  0  0  0  0
  111.6239  -78.7258  -87.8909 C   0  0  0  0  0  0  0  0  0  0  0  0
  109.8810  -74.8423  -87.0209 C   0  0  0  0  0  0  0  0  0  0  0  0
  108.8064  -75.2196  -87.8596 C   0  0  0  0  0  0  0  0  0  0  0  0
  108.1157  -74.3864  -88.7414 C   0  0  0  0  0  0  0  0  0  0  0  0
  108.4913  -72.9847  -88.8499 C   0  0  0  0  0  0  0  0  0  0  0  0
  109.5758  -72.6421  -88.0070 C   0  0  0  0  0  0  0  0  0  0  0  0
  110.2987  -73.4436  -87.1126 C   0  0  0  0  0  0  0  0  0  0  0  0
  112.7769  -80.6904  -87.2440 N   0  3  0  0  0  0  0  0  0  0  0  0
  113.4489  -81.5484  -86.2746 C   0  0  0  0  0  0  0  0  0  0  0  0
  112.7408  -81.3129  -88.5858 C   0  0  0  0  0  0  0  0  0  0  0  0
  111.2930  -74.1678  -80.6386 N   0  0  0  0  0  0  0  0  0  0  0  0
  111.9384  -74.9230  -79.5416 C   0  0  0  0  0  0  0  0  0  0  0  0
  110.8498  -72.8063  -80.1730 C   0  0  0  0  0  0  0  0  0  0  0  0
  1  2  1  0  0  0  0
  1 14  1  0  0  0  0
  1 21  2  0  0  0  0
  2  3  2  0  0  0  0
  3  4  1  0  0  0  0
  3 12  1  0  0  0  0
  4  5  1  0  0  0  0
  5  6  1  0  0  0  0
  5 10  2  0  0  0  0
  6  7  2  0  0  0  0
  7  8  1  0  0  0  0
  7 24  1  0  0  0  0
  8  9  2  0  0  0  0
  9 10  1  0  0  0  0
 10 11  1  0  0  0  0
 11 12  2  0  0  0  0
 11 15  1  0  0  0  0
 12 13  1  0  0  0  0
 13 14  2  0  0  0  0
 15 16  2  0  0  0  0
 15 20  1  0  0  0  0
 16 17  1  0  0  0  0
 17 18  2  0  0  0  0
 18 19  1  0  0  0  0
 19 20  2  0  0  0  0
 21 22  1  0  0  0  0
 21 23  1  0  0  0  0
 24 25  1  0  0  0  0
 24 26  1  0  0  0  0
M  CHG  1  21   1
M  END
>  <CHROM.1>
-4.13462546,-127.84463171,111.05200215,-76.22558031,-85.31486278,-1.23815801
-1.05382797,1.05439913

>  <Name>
1f1t Malachite green aptamer (Xray 2.8A)

>  <RI>
0

>  <Rbt.Current_Directory>
/home/itssahil/PROJECTS/Mol_Feturizer/New_Systems/rnas/1f1t

>  <Rbt.Executable>
rbdock ($Id: //depot/dev/client3/rdock/2013.1/src/exe/rbdock.cxx#4 $)

>  <Rbt.Library>
libRbt.so (2013.1, Build901 2013/11/27)

>  <Rbt.Parameter_File>
/export/apps/rDock/src/rDock_2013.1_src/data/scripts/dock_solv.prm

>  <Rbt.Receptor>
prm/pocket_docking_3.prm

>  <SCORE>
-62.1323

>  <SCORE.INTER>
-62.3842

>  <SCORE.INTER.CONST>
1

>  <SCORE.INTER.POLAR>
0

>  <SCORE.INTER.ROT>
2

>  <SCORE.INTER.SOLV>
11.1176

>  <SCORE.INTER.VDW>
-50.2287

>  <SCORE.INTER.norm>
-2.39939

>  <SCORE.INTRA>
0.251959

>  <SCORE.INTRA.DIHEDRAL>
-1.14727

>  <SCORE.INTRA.DIHEDRAL.0>
4.18538

>  <SCORE.INTRA.POLAR>
0

>  <SCORE.INTRA.POLAR.0>
0

>  <SCORE.INTRA.REPUL>
0

>  <SCORE.INTRA.REPUL.0>
0

>  <SCORE.INTRA.SOLV>
0.0195568

>  <SCORE.INTRA.SOLV.lig_0>
-5.16926

>  <SCORE.INTRA.VDW>
0.815816

>  <SCORE.INTRA.VDW.0>
1.11912

>  <SCORE.INTRA.norm>
0.00969073

>  <SCORE.RESTR>
0

>  <SCORE.RESTR.CAVITY>
0

>  <SCORE.RESTR.norm>
0

>  <SCORE.SYSTEM>
0

>  <SCORE.SYSTEM.CONST>
0

>  <SCORE.SYSTEM.DIHEDRAL>
0

>  <SCORE.SYSTEM.SOLV>
0

>  <SCORE.SYSTEM.norm>
0

>  <SCORE.heavy>
26

>  <SCORE.norm>
-2.3897

>  <RMSD>
6.131

$$$$
1f1t Malachite green aptamer (Xray 2.8A)
 OpenBabel11021811393D
libRbt.so/2013.1/901 2013/11/27
 26 29  0  0  0  0  0  0  0  0999 V2000
  112.2507  -79.4540  -86.8976 C   0  0  0  0  0  0  0  0  0  0  0  0
  112.3753  -78.9653  -85.5322 C   0  0  0  0  0  0  0  0  0  0  0  0
  111.7932  -77.7102  -85.3447 C   0  0  0  0  0  0  0  0  0  0  0  0
  111.9481  -77.2594  -83.9332 O   0  0  0  0  0  0  0  0  0  0  0  0
  111.4044  -76.1170  -83.7686 C   0  0  0  0  0  0  0  0  0  0  0  0
  111.6184  -75.7603  -82.3662 C   0  0  0  0  0  0  0  0  0  0  0  0
  111.0569  -74.4882  -81.9921 C   0  0  0  0  0  0  0  0  0  0  0  0
  110.3499  -73.6668  -82.9048 C   0  0  0  0  0  0  0  0  0  0  0  0
  110.1799  -74.0744  -84.2871 C   0  0  0  0  0  0  0  0  0  0  0  0
  110.7468  -75.3387  -84.6877 C   0  0  0  0  0  0  0  0  0  0  0  0
  110.5382  -75.6785  -86.1448 C   0  0  0  0  0  0  0  0  0  0  0  0
  111.1428  -76.9387  -86.3014 C   0  0  0  0  0  0  0  0  0  0  0  0
  111.0340  -77.4449  -87.6714 C   0  0  0  0  0  0  0  0  0  0  0  0
  111.6193  -78.7301  -87.8902 C   0  0  0  0  0  0  0  0  0  0  0  0
  109.8739  -74.8465  -87.0260 C   0  0  0  0  0  0  0  0  0  0  0  0
  108.8028  -75.2288  -87.8668 C   0  0  0  0  0  0  0  0  0  0  0  0
  108.1094  -74.3985  -88.7493 C   0  0  0  0  0  0  0  0  0  0  0  0
  108.4780  -72.9948  -88.8562 C   0  0  0  0  0  0  0  0  0  0  0  0
  109.5593  -72.6473  -88.0111 C   0  0  0  0  0  0  0  0  0  0  0  0
  110.2847  -73.4456  -87.1160 C   0  0  0  0  0  0  0  0  0  0  0  0
  112.7758  -80.6920  -87.2411 N   0  3  0  0  0  0  0  0  0  0  0  0
  113.4507  -81.5469  -86.2710 C   0  0  0  0  0  0  0  0  0  0  0  0
  112.7378  -81.3176  -88.5813 C   0  0  0  0  0  0  0  0  0  0  0  0
  111.2978  -74.1555  -80.6481 N   0  0  0  0  0  0  0  0  0  0  0  0
  111.9440  -74.9085  -79.5499 C   0  0  0  0  0  0  0  0  0  0  0  0
  110.8568  -72.7922  -80.1856 C   0  0  0  0  0  0  0  0  0  0  0  0
  1  2  1  0  0  0  0
  1 14  1  0  0  0  0
  1 21  2  0  0  0  0
  2  3  2  0  0  0  0
  3  4  1  0  0  0  0
  3 12  1  0  0  0  0
  4  5  1  0  0  0  0
  5  6  1  0  0  0  0
  5 10  2  0  0  0  0
  6  7  2  0  0  0  0
  7  8  1  0  0  0  0
  7 24  1  0  0  0  0
  8  9  2  0  0  0  0
  9 10  1  0  0  0  0
 10 11  1  0  0  0  0
 11 12  2  0  0  0  0
 11 15  1  0  0  0  0
 12 13  1  0  0  0  0
 13 14  2  0  0  0  0
 15 16  2  0  0  0  0
 15 20  1  0  0  0  0
 16 17  1  0  0  0  0
 17 18  2  0  0  0  0
 18 19  1  0  0  0  0
 19 20  2  0  0  0  0
 21 22  1  0  0  0  0
 21 23  1  0  0  0  0
 24 25  1  0  0  0  0
 24 26  1  0  0  0  0
M  CHG  1  21   1
M  END
>  <CHROM.1>
-4.26765182,-128.20227716,111.04978864,-76.22450076,-85.31896001,-1.24063014
-1.05190100,1.04989219

>  <Name>
1f1t Malachite green aptamer (Xray 2.8A)

>  <RI>
0

>  <Rbt.Current_Directory>
/home/itssahil/PROJECTS/Mol_Feturizer/New_Systems/rnas/1f1t

>  <Rbt.Executable>
rbdock ($Id: //depot/dev/client3/rdock/2013.1/src/exe/rbdock.cxx#4 $)

>  <Rbt.Library>
libRbt.so (2013.1, Build901 2013/11/27)

>  <Rbt.Parameter_File>
/export/apps/rDock/src/rDock_2013.1_src/data/scripts/dock_solv.prm

>  <Rbt.Receptor>
prm/pocket_docking_4.prm

>  <SCORE>
-62.075

>  <SCORE.INTER>
-62.3432

>  <SCORE.INTER.CONST>
1

>  <SCORE.INTER.POLAR>
0

>  <SCORE.INTER.ROT>
2

>  <SCORE.INTER.SOLV>
11.1239

>  <SCORE.INTER.VDW>
-50.2034

>  <SCORE.INTER.norm>
-2.39781

>  <SCORE.INTRA>
0.268167

>  <SCORE.INTRA.DIHEDRAL>
-1.17194

>  <SCORE.INTRA.DIHEDRAL.0>
4.18538

>  <SCORE.INTRA.POLAR>
0

>  <SCORE.INTRA.POLAR.0>
0

>  <SCORE.INTRA.REPUL>
0

>  <SCORE.INTRA.REPUL.0>
0

>  <SCORE.INTRA.SOLV>
0.0199594

>  <SCORE.INTRA.SOLV.lig_0>
-5.16926

>  <SCORE.INTRA.VDW>
0.844159

>  <SCORE.INTRA.VDW.0>
1.11912

>  <SCORE.INTRA.norm>
0.0103141

>  <SCORE.RESTR>
0

>  <SCORE.RESTR.CAVITY>
0

>  <SCORE.RESTR.norm>
0

>  <SCORE.SYSTEM>
0

>  <SCORE.SYSTEM.CONST>
0

>  <SCORE.SYSTEM.DIHEDRAL>
0

>  <SCORE.SYSTEM.SOLV>
0

>  <SCORE.SYSTEM.norm>
0

>  <SCORE.heavy>
26

>  <SCORE.norm>
-2.3875

>  <RMSD>
6.131

$$$$
1f1t Malachite green aptamer (Xray 2.8A)
 OpenBabel11021811393D
libRbt.so/2013.1/901 2013/11/27
 26 29  0  0  0  0  0  0  0  0999 V2000
  112.2306  -79.4660  -86.9179 C   0  0  0  0  0  0  0  0  0  0  0  0
  112.3667  -78.9808  -85.5525 C   0  0  0  0  0  0  0  0  0  0  0  0
  111.7914  -77.7236  -85.3583 C   0  0  0  0  0  0  0  0  0  0  0  0
  111.9578  -77.2765  -83.9469 O   0  0  0  0  0  0  0  0  0  0  0  0
  111.4203  -76.1321  -83.7762 C   0  0  0  0  0  0  0  0  0  0  0  0
  111.6454  -75.7794  -82.3746 C   0  0  0  0  0  0  0  0  0  0  0  0
  111.0920  -74.5056  -81.9940 C   0  0  0  0  0  0  0  0  0  0  0  0
  110.3824  -73.6791  -82.9001 C   0  0  0  0  0  0  0  0  0  0  0  0
  110.2012  -74.0830  -84.2820 C   0  0  0  0  0  0  0  0  0  0  0  0
  110.7599  -75.3489  -84.6892 C   0  0  0  0  0  0  0  0  0  0  0  0
  110.5398  -75.6847  -86.1455 C   0  0  0  0  0  0  0  0  0  0  0  0
  111.1378  -76.9472  -86.3089 C   0  0  0  0  0  0  0  0  0  0  0  0
  111.0174  -77.4499  -87.6792 C   0  0  0  0  0  0  0  0  0  0  0  0
  111.5957  -78.7372  -87.9048 C   0  0  0  0  0  0  0  0  0  0  0  0
  109.8732  -74.8479  -87.0204 C   0  0  0  0  0  0  0  0  0  0  0  0
  108.7931  -75.2231  -87.8529 C   0  0  0  0  0  0  0  0  0  0  0  0
  108.0973  -74.3879  -88.7288 C   0  0  0  0  0  0  0  0  0  0  0  0
  108.4732  -72.9862  -88.8372 C   0  0  0  0  0  0  0  0  0  0  0  0
  109.5633  -72.6459  -88.0006 C   0  0  0  0  0  0  0  0  0  0  0  0
  110.2913  -73.4493  -87.1123 C   0  0  0  0  0  0  0  0  0  0  0  0
  112.7480  -80.7055  -87.2677 N   0  3  0  0  0  0  0  0  0  0  0  0
  113.4257  -81.5654  -86.3040 C   0  0  0  0  0  0  0  0  0  0  0  0
  112.6981  -81.3281  -88.6089 C   0  0  0  0  0  0  0  0  0  0  0  0
  111.3436  -74.1769  -80.6509 N   0  0  0  0  0  0  0  0  0  0  0  0
  112.0113  -74.9272  -79.5639 C   0  0  0  0  0  0  0  0  0  0  0  0
  110.8905  -72.8217  -80.1764 C   0  0  0  0  0  0  0  0  0  0  0  0
  1  2  1  0  0  0  0
  1 14  1  0  0  0  0
  1 21  2  0  0  0  0
  2  3  2  0  0  0  0
  3  4  1  0  0  0  0
  3 12  1  0  0  0  0
  4  5  1  0  0  0  0
  5  6  1  0  0  0  0
  5 10  2  0  0  0  0
  6  7  2  0  0  0  0
  7  8  1  0  0  0  0
  7 24  1  0  0  0  0
  8  9  2  0  0  0  0
  9 10  1  0  0  0  0
 10 11  1  0  0  0  0
 11 12  2  0  0  0  0
 11 15  1  0  0  0  0
 12 13  1  0  0  0  0
 13 14  2  0  0  0  0
 15 16  2  0  0  0  0
 15 20  1  0  0  0  0
 16 17  1  0  0  0  0
 17 18  2  0  0  0  0
 18 19  1  0  0  0  0
 19 20  2  0  0  0  0
 21 22  1  0  0  0  0
 21 23  1  0  0  0  0
 24 25  1  0  0  0  0
 24 26  1  0  0  0  0
M  CHG  1  21   1
M  END
>  <CHROM.1>
-3.24780562,-128.07671609,111.05449672,-76.23476125,-85.32433055,-1.25666069
-1.05194589,1.03813667

>  <Name>
1f1t Malachite green aptamer (Xray 2.8A)

>  <RI>
0

>  <Rbt.Current_Directory>
/home/itssahil/PROJECTS/Mol_Feturizer/New_Systems/rnas/1f1t

>  <Rbt.Executable>
rbdock ($Id: //depot/dev/client3/rdock/2013.1/src/exe/rbdock.cxx#4 $)

>  <Rbt.Library>
libRbt.so (2013.1, Build901 2013/11/27)

>  <Rbt.Parameter_File>
/export/apps/rDock/src/rDock_2013.1_src/data/scripts/dock_solv.prm

>  <Rbt.Receptor>
prm/pocket_docking_5.prm

>  <SCORE>
-62.0564

>  <SCORE.INTER>
-62.3136

>  <SCORE.INTER.CONST>
1

>  <SCORE.INTER.POLAR>
0

>  <SCORE.INTER.ROT>
2

>  <SCORE.INTER.SOLV>
11.0998

>  <SCORE.INTER.VDW>
-50.1757

>  <SCORE.INTER.norm>
-2.39668

>  <SCORE.INTRA>
0.257236

>  <SCORE.INTRA.DIHEDRAL>
-1.1926

>  <SCORE.INTRA.DIHEDRAL.0>
4.18538

>  <SCORE.INTRA.POLAR>
0

>  <SCORE.INTRA.POLAR.0>
0

>  <SCORE.INTRA.REPUL>
0

>  <SCORE.INTRA.REPUL.0>
0

>  <SCORE.INTRA.SOLV>
0.0198245

>  <SCORE.INTRA.SOLV.lig_0>
-5.16926

>  <SCORE.INTRA.VDW>
0.843625

>  <SCORE.INTRA.VDW.0>
1.11912

>  <SCORE.INTRA.norm>
0.00989368

>  <SCORE.RESTR>
0

>  <SCORE.RESTR.CAVITY>
0

>  <SCORE.RESTR.norm>
0

>  <SCORE.SYSTEM>
0

>  <SCORE.SYSTEM.CONST>
0

>  <SCORE.SYSTEM.DIHEDRAL>
0

>  <SCORE.SYSTEM.SOLV>
0

>  <SCORE.SYSTEM.norm>
0

>  <SCORE.heavy>
26

>  <SCORE.norm>
-2.38678

>  <RMSD>
6.131

$$$$
1f1t Malachite green aptamer (Xray 2.8A)
 OpenBabel11021811393D
libRbt.so/2013.1/901 2013/11/27
 26 29  0  0  0  0  0  0  0  0999 V2000
  112.2673  -79.4377  -86.9230 C   0  0  0  0  0  0  0  0  0  0  0  0
  112.3935  -78.9605  -85.5538 C   0  0  0  0  0  0  0  0  0  0  0  0
  111.8091  -77.7083  -85.3543 C   0  0  0  0  0  0  0  0  0  0  0  0
  111.9658  -77.2694  -83.9393 O   0  0  0  0  0  0  0  0  0  0  0  0
  111.4199  -76.1295  -83.7638 C   0  0  0  0  0  0  0  0  0  0  0  0
  111.6359  -75.7845  -82.3588 C   0  0  0  0  0  0  0  0  0  0  0  0
  111.0724  -74.5169  -81.9727 C   0  0  0  0  0  0  0  0  0  0  0  0
  110.3619  -73.6891  -82.8769 C   0  0  0  0  0  0  0  0  0  0  0  0
  110.1901  -74.0852  -84.2623 C   0  0  0  0  0  0  0  0  0  0  0  0
  110.7590  -75.3447  -84.6750 C   0  0  0  0  0  0  0  0  0  0  0  0
  110.5483  -75.6724  -86.1345 C   0  0  0  0  0  0  0  0  0  0  0  0
  111.1552  -76.9300  -86.3031 C   0  0  0  0  0  0  0  0  0  0  0  0
  111.0448  -77.4245  -87.6772 C   0  0  0  0  0  0  0  0  0  0  0  0
  111.6325  -78.7066  -87.9083 C   0  0  0  0  0  0  0  0  0  0  0  0
  109.8805  -74.8343  -87.0072 C   0  0  0  0  0  0  0  0  0  0  0  0
  108.8069  -75.2110  -87.8474 C   0  0  0  0  0  0  0  0  0  0  0  0
  108.1100  -74.3746  -88.7213 C   0  0  0  0  0  0  0  0  0  0  0  0
  108.4774  -72.9699  -88.8188 C   0  0  0  0  0  0  0  0  0  0  0  0
  109.5612  -72.6280  -87.9747 C   0  0  0  0  0  0  0  0  0  0  0  0
  110.2900  -73.4325  -87.0880 C   0  0  0  0  0  0  0  0  0  0  0  0
  112.7944  -80.6715  -87.2783 N   0  3  0  0  0  0  0  0  0  0  0  0
  113.4729  -81.5333  -86.3168 C   0  0  0  0  0  0  0  0  0  0  0  0
  112.7551  -81.2857  -88.6237 C   0  0  0  0  0  0  0  0  0  0  0  0
  111.3152  -74.1953  -80.6263 N   0  0  0  0  0  0  0  0  0  0  0  0
  111.9684  -74.9548  -79.5369 C   0  0  0  0  0  0  0  0  0  0  0  0
  110.8681  -72.8387  -80.1501 C   0  0  0  0  0  0  0  0  0  0  0  0
  1  2  1  0  0  0  0
  1 14  1  0  0  0  0
  1 21  2  0  0  0  0
  2  3  2  0  0  0  0
  3  4  1  0  0  0  0
  3 12  1  0  0  0  0
  4  5  1  0  0  0  0
  5  6  1  0  0  0  0
  5 10  2  0  0  0  0
  6  7  2  0  0  0  0
  7  8  1  0  0  0  0
  7 24  1  0  0  0  0
  8  9  2  0  0  0  0
  9 10  1  0  0  0  0
 10 11  1  0  0  0  0
 11 12  2  0  0  0  0
 11 15  1  0  0  0  0
 12 13  1  0  0  0  0
 13 14  2  0  0  0  0
 15 16  2  0  0  0  0
 15 20  1  0  0  0  0
 16 17  1  0  0  0  0
 17 18  2  0  0  0  0
 18 19  1  0  0  0  0
 19 20  2  0  0  0  0
 21 22  1  0  0  0  0
 21 23  1  0  0  0  0
 24 25  1  0  0  0  0
 24 26  1  0  0  0  0
M  CHG  1  21   1
M  END
>  <CHROM.1>
-4.07099250,-128.07308450,111.06257491,-76.22447219,-85.31438555,-1.24177385
-1.04905350,1.05752852

>  <Name>
1f1t Malachite green aptamer (Xray 2.8A)

>  <RI>
0

>  <Rbt.Current_Directory>
/home/itssahil/PROJECTS/Mol_Feturizer/New_Systems/rnas/1f1t

>  <Rbt.Executable>
rbdock ($Id: //depot/dev/client3/rdock/2013.1/src/exe/rbdock.cxx#4 $)

>  <Rbt.Library>
libRbt.so (2013.1, Build901 2013/11/27)

>  <Rbt.Parameter_File>
/export/apps/rDock/src/rDock_2013.1_src/data/scripts/dock_solv.prm

>  <Rbt.Receptor>
prm/pocket_docking_5.prm

>  <SCORE>
-62.0944

>  <SCORE.INTER>
-62.3558

>  <SCORE.INTER.CONST>
1

>  <SCORE.INTER.POLAR>
0

>  <SCORE.INTER.ROT>
2

>  <SCORE.INTER.SOLV>
11.1007

>  <SCORE.INTER.VDW>
-50.2041

>  <SCORE.INTER.norm>
-2.3983

>  <SCORE.INTRA>
0.261359

>  <SCORE.INTRA.DIHEDRAL>
-1.16798

>  <SCORE.INTRA.DIHEDRAL.0>
4.18538

>  <SCORE.INTRA.POLAR>
0

>  <SCORE.INTRA.POLAR.0>
0

>  <SCORE.INTRA.REPUL>
0

>  <SCORE.INTRA.REPUL.0>
0

>  <SCORE.INTRA.SOLV>
0.0198152

>  <SCORE.INTRA.SOLV.lig_0>
-5.16926

>  <SCORE.INTRA.VDW>
0.835444

>  <SCORE.INTRA.VDW.0>
1.11912

>  <SCORE.INTRA.norm>
0.0100523

>  <SCORE.RESTR>
0

>  <SCORE.RESTR.CAVITY>
0

>  <SCORE.RESTR.norm>
0

>  <SCORE.SYSTEM>
0

>  <SCORE.SYSTEM.CONST>
0

>  <SCORE.SYSTEM.DIHEDRAL>
0

>  <SCORE.SYSTEM.SOLV>
0

>  <SCORE.SYSTEM.norm>
0

>  <SCORE.heavy>
26

>  <SCORE.norm>
-2.38825

>  <RMSD>
6.131

$$$$
1f1t Malachite green aptamer (Xray 2.8A)
 OpenBabel11021811393D
libRbt.so/2013.1/901 2013/11/27
 26 29  0  0  0  0  0  0  0  0999 V2000
  112.2180  -79.4542  -86.8647 C   0  0  0  0  0  0  0  0  0  0  0  0
  112.3445  -78.9532  -85.5041 C   0  0  0  0  0  0  0  0  0  0  0  0
  111.7636  -77.6960  -85.3274 C   0  0  0  0  0  0  0  0  0  0  0  0
  111.9203  -77.2325  -83.9202 O   0  0  0  0  0  0  0  0  0  0  0  0
  111.3776  -76.0882  -83.7655 C   0  0  0  0  0  0  0  0  0  0  0  0
  111.5934  -75.7189  -82.3666 C   0  0  0  0  0  0  0  0  0  0  0  0
  111.0333  -74.4430  -82.0035 C   0  0  0  0  0  0  0  0  0  0  0  0
  110.3258  -73.6294  -82.9229 C   0  0  0  0  0  0  0  0  0  0  0  0
  110.1540  -74.0495  -84.3012 C   0  0  0  0  0  0  0  0  0  0  0  0
  110.7195  -75.3178  -84.6910 C   0  0  0  0  0  0  0  0  0  0  0  0
  110.5091  -75.6708  -86.1446 C   0  0  0  0  0  0  0  0  0  0  0  0
  111.1126  -76.9328  -86.2903 C   0  0  0  0  0  0  0  0  0  0  0  0
  111.0019  -77.4514  -87.6556 C   0  0  0  0  0  0  0  0  0  0  0  0
  111.5861  -78.7390  -87.8633 C   0  0  0  0  0  0  0  0  0  0  0  0
  109.8443  -74.8464  -87.0326 C   0  0  0  0  0  0  0  0  0  0  0  0
  108.7726  -75.2358  -87.8694 C   0  0  0  0  0  0  0  0  0  0  0  0
  108.0789  -74.4131  -88.7587 C   0  0  0  0  0  0  0  0  0  0  0  0
  108.4477  -73.0105  -88.8780 C   0  0  0  0  0  0  0  0  0  0  0  0
  109.5295  -72.6558  -88.0367 C   0  0  0  0  0  0  0  0  0  0  0  0
  110.2553  -73.4464  -87.1351 C   0  0  0  0  0  0  0  0  0  0  0  0
  112.7419  -80.6957  -87.1976 N   0  3  0  0  0  0  0  0  0  0  0  0
  113.4172  -81.5422  -86.2204 C   0  0  0  0  0  0  0  0  0  0  0  0
  112.7019  -81.3335  -88.5320 C   0  0  0  0  0  0  0  0  0  0  0  0
  111.2759  -74.0982  -80.6629 N   0  0  0  0  0  0  0  0  0  0  0  0
  111.9173  -74.8439  -79.5570 C   0  0  0  0  0  0  0  0  0  0  0  0
  110.8430  -72.7277  -80.2143 C   0  0  0  0  0  0  0  0  0  0  0  0
  1  2  1  0  0  0  0
  1 14  1  0  0  0  0
  1 21  2  0  0  0  0
  2  3  2  0  0  0  0
  3  4  1  0  0  0  0
  3 12  1  0  0  0  0
  4  5  1  0  0  0  0
  5  6  1  0  0  0  0
  5 10  2  0  0  0  0
  6  7  2  0  0  0  0
  7  8  1  0  0  0  0
  7 24  1  0  0  0  0
  8  9  2  0  0  0  0
  9 10  1  0  0  0  0
 10 11  1  0  0  0  0
 11 12  2  0  0  0  0
 11 15  1  0  0  0  0
 12 13  1  0  0  0  0
 13 14  2  0  0  0  0
 15 16  2  0  0  0  0
 15 20  1  0  0  0  0
 16 17  1  0  0  0  0
 17 18  2  0  0  0  0
 18 19  1  0  0  0  0
 19 20  2  0  0  0  0
 21 22  1  0  0  0  0
 21 23  1  0  0  0  0
 24 25  1  0  0  0  0
 24 26  1  0  0  0  0
M  CHG  1  21   1
M  END
>  <CHROM.1>
-4.58702140,-128.25101863,111.02122162,-76.20956725,-85.31439469,-1.24339152
-1.05205083,1.03835306

>  <Name>
1f1t Malachite green aptamer (Xray 2.8A)

>  <RI>
0

>  <Rbt.Current_Directory>
/home/itssahil/PROJECTS/Mol_Feturizer/New_Systems/rnas/1f1t

>  <Rbt.Executable>
rbdock ($Id: //depot/dev/client3/rdock/2013.1/src/exe/rbdock.cxx#4 $)

>  <Rbt.Library>
libRbt.so (2013.1, Build901 2013/11/27)

>  <Rbt.Parameter_File>
/export/apps/rDock/src/rDock_2013.1_src/data/scripts/dock_solv.prm

>  <Rbt.Receptor>
prm/pocket_docking_6.prm

>  <SCORE>
-62.0905

>  <SCORE.INTER>
-62.3628

>  <SCORE.INTER.CONST>
1

>  <SCORE.INTER.POLAR>
0

>  <SCORE.INTER.ROT>
2

>  <SCORE.INTER.SOLV>
11.1385

>  <SCORE.INTER.VDW>
-50.2214

>  <SCORE.INTER.norm>
-2.39857

>  <SCORE.INTRA>
0.272323

>  <SCORE.INTRA.DIHEDRAL>
-1.1646

>  <SCORE.INTRA.DIHEDRAL.0>
4.18538

>  <SCORE.INTRA.POLAR>
0

>  <SCORE.INTRA.POLAR.0>
0

>  <SCORE.INTRA.REPUL>
0

>  <SCORE.INTRA.REPUL.0>
0

>  <SCORE.INTRA.SOLV>
0.020012

>  <SCORE.INTRA.SOLV.lig_0>
-5.16926

>  <SCORE.INTRA.VDW>
0.844615

>  <SCORE.INTRA.VDW.0>
1.11912

>  <SCORE.INTRA.norm>
0.010474

>  <SCORE.RESTR>
0

>  <SCORE.RESTR.CAVITY>
0

>  <SCORE.RESTR.norm>
0

>  <SCORE.SYSTEM>
0

>  <SCORE.SYSTEM.CONST>
0

>  <SCORE.SYSTEM.DIHEDRAL>
0

>  <SCORE.SYSTEM.SOLV>
0

>  <SCORE.SYSTEM.norm>
0

>  <SCORE.heavy>
26

>  <SCORE.norm>
-2.3881

>  <RMSD>
6.131

$$$$
1f1t Malachite green aptamer (Xray 2.8A)
 OpenBabel11021811393D
libRbt.so/2013.1/901 2013/11/27
 26 29  0  0  0  0  0  0  0  0999 V2000
  112.2645  -79.4461  -86.9144 C   0  0  0  0  0  0  0  0  0  0  0  0
  112.3920  -78.9630  -85.5474 C   0  0  0  0  0  0  0  0  0  0  0  0
  111.8084  -77.7096  -85.3530 C   0  0  0  0  0  0  0  0  0  0  0  0
  111.9662  -77.2646  -83.9400 O   0  0  0  0  0  0  0  0  0  0  0  0
  111.4210  -76.1238  -83.7691 C   0  0  0  0  0  0  0  0  0  0  0  0
  111.6382  -75.7727  -82.3658 C   0  0  0  0  0  0  0  0  0  0  0  0
  111.0756  -74.5031  -81.9848 C   0  0  0  0  0  0  0  0  0  0  0  0
  110.3647  -73.6790  -82.8921 C   0  0  0  0  0  0  0  0  0  0  0  0
  110.1917  -74.0811  -84.2757 C   0  0  0  0  0  0  0  0  0  0  0  0
  110.7597  -75.3427  -84.6832 C   0  0  0  0  0  0  0  0  0  0  0  0
  110.5477  -75.6767  -86.1411 C   0  0  0  0  0  0  0  0  0  0  0  0
  111.1540  -76.9353  -86.3046 C   0  0  0  0  0  0  0  0  0  0  0  0
  111.0424  -77.4358  -87.6765 C   0  0  0  0  0  0  0  0  0  0  0  0
  111.6293  -78.7191  -87.9023 C   0  0  0  0  0  0  0  0  0  0  0  0
  109.8796  -74.8422  -87.0170 C   0  0  0  0  0  0  0  0  0  0  0  0
  108.7976  -75.2192  -87.8461 C   0  0  0  0  0  0  0  0  0  0  0  0
  108.1004  -74.3862  -88.7230 C   0  0  0  0  0  0  0  0  0  0  0  0
  108.4767  -72.9850  -88.8362 C   0  0  0  0  0  0  0  0  0  0  0  0
  109.5686  -72.6428  -88.0029 C   0  0  0  0  0  0  0  0  0  0  0  0
  110.2982  -73.4440  -87.1137 C   0  0  0  0  0  0  0  0  0  0  0  0
  112.7909  -80.6817  -87.2646 N   0  3  0  0  0  0  0  0  0  0  0  0
  113.4698  -81.5395  -86.2999 C   0  0  0  0  0  0  0  0  0  0  0  0
  112.7503  -81.3018  -88.6073 C   0  0  0  0  0  0  0  0  0  0  0  0
  111.3196  -74.1757  -80.6400 N   0  0  0  0  0  0  0  0  0  0  0  0
  111.9835  -74.9261  -79.5508 C   0  0  0  0  0  0  0  0  0  0  0  0
  110.8610  -72.8222  -80.1659 C   0  0  0  0  0  0  0  0  0  0  0  0
  1  2  1  0  0  0  0
  1 14  1  0  0  0  0
  1 21  2  0  0  0  0
  2  3  2  0  0  0  0
  3  4  1  0  0  0  0
  3 12  1  0  0  0  0
  4  5  1  0  0  0  0
  5  6  1  0  0  0  0
  5 10  2  0  0  0  0
  6  7  2  0  0  0  0
  7  8  1  0  0  0  0
  7 24  1  0  0  0  0
  8  9  2  0  0  0  0
  9 10  1  0  0  0  0
 10 11  1  0  0  0  0
 11 12  2  0  0  0  0
 11 15  1  0  0  0  0
 12 13  1  0  0  0  0
 13 14  2  0  0  0  0
 15 16  2  0  0  0  0
 15 20  1  0  0  0  0
 16 17  1  0  0  0  0
 17 18  2  0  0  0  0
 18 19  1  0  0  0  0
 19 20  2  0  0  0  0
 21 22  1  0  0  0  0
 21 23  1  0  0  0  0
 24 25  1  0  0  0  0
 24 26  1  0  0  0  0
M  CHG  1  21   1
M  END
>  <CHROM.1>
-3.47435125,-127.48726808,111.06242374,-76.22539334,-85.31900545,-1.24328844
-1.04889549,1.05185758

>  <Name>
1f1t Malachite green aptamer (Xray 2.8A)

>  <RI>
0

>  <Rbt.Current_Directory>
/home/itssahil/PROJECTS/Mol_Feturizer/New_Systems/rnas/1f1t

>  <Rbt.Executable>
rbdock ($Id: //depot/dev/client3/rdock/2013.1/src/exe/rbdock.cxx#4 $)

>  <Rbt.Library>
libRbt.so (2013.1, Build901 2013/11/27)

>  <Rbt.Parameter_File>
/export/apps/rDock/src/rDock_2013.1_src/data/scripts/dock_solv.prm

>  <Rbt.Receptor>
prm/pocket_docking_8.prm

>  <SCORE>
-62.0512

>  <SCORE.INTER>
-62.2849

>  <SCORE.INTER.CONST>
1

>  <SCORE.INTER.POLAR>
0

>  <SCORE.INTER.ROT>
2

>  <SCORE.INTER.SOLV>
11.1183

>  <SCORE.INTER.VDW>
-50.1627

>  <SCORE.INTER.norm>
-2.39557

>  <SCORE.INTRA>
0.233636

>  <SCORE.INTRA.DIHEDRAL>
-1.13847

>  <SCORE.INTRA.DIHEDRAL.0>
4.18538

>  <SCORE.INTRA.POLAR>
0

>  <SCORE.INTRA.POLAR.0>
0

>  <SCORE.INTRA.REPUL>
0

>  <SCORE.INTRA.REPUL.0>
0

>  <SCORE.INTRA.SOLV>
0.0191568

>  <SCORE.INTRA.SOLV.lig_0>
-5.16926

>  <SCORE.INTRA.VDW>
0.793293

>  <SCORE.INTRA.VDW.0>
1.11912

>  <SCORE.INTRA.norm>
0.008986

>  <SCORE.RESTR>
0

>  <SCORE.RESTR.CAVITY>
0

>  <SCORE.RESTR.norm>
0

>  <SCORE.SYSTEM>
0

>  <SCORE.SYSTEM.CONST>
0

>  <SCORE.SYSTEM.DIHEDRAL>
0

>  <SCORE.SYSTEM.SOLV>
0

>  <SCORE.SYSTEM.norm>
0

>  <SCORE.heavy>
26

>  <SCORE.norm>
-2.38659

>  <RMSD>
6.131

$$$$
1f1t Malachite green aptamer (Xray 2.8A)
 OpenBabel11021811393D
libRbt.so/2013.1/901 2013/11/27
 26 29  0  0  0  0  0  0  0  0999 V2000
  112.2228  -79.4655  -86.8929 C   0  0  0  0  0  0  0  0  0  0  0  0
  112.3469  -78.9653  -85.5317 C   0  0  0  0  0  0  0  0  0  0  0  0
  111.7621  -77.7100  -85.3543 C   0  0  0  0  0  0  0  0  0  0  0  0
  111.9164  -77.2473  -83.9466 O   0  0  0  0  0  0  0  0  0  0  0  0
  111.3702  -76.1047  -83.7912 C   0  0  0  0  0  0  0  0  0  0  0  0
  111.5839  -75.7361  -82.3919 C   0  0  0  0  0  0  0  0  0  0  0  0
  111.0197  -74.4621  -82.0281 C   0  0  0  0  0  0  0  0  0  0  0  0
  110.3105  -73.6499  -82.9472 C   0  0  0  0  0  0  0  0  0  0  0  0
  110.1409  -74.0693  -84.3260 C   0  0  0  0  0  0  0  0  0  0  0  0
  110.7105  -75.3355  -84.7165 C   0  0  0  0  0  0  0  0  0  0  0  0
  110.5021  -75.6878  -86.1706 C   0  0  0  0  0  0  0  0  0  0  0  0
  111.1095  -76.9479  -86.3170 C   0  0  0  0  0  0  0  0  0  0  0  0
  111.0013  -77.4656  -87.6828 C   0  0  0  0  0  0  0  0  0  0  0  0
  111.5895  -78.7513  -87.8913 C   0  0  0  0  0  0  0  0  0  0  0  0
  109.8355  -74.8647  -87.0583 C   0  0  0  0  0  0  0  0  0  0  0  0
  108.7736  -75.2594  -87.9050 C   0  0  0  0  0  0  0  0  0  0  0  0
  108.0780  -74.4382  -88.7942 C   0  0  0  0  0  0  0  0  0  0  0  0
  108.4339  -73.0314  -88.9026 C   0  0  0  0  0  0  0  0  0  0  0  0
  109.5063  -72.6712  -88.0516 C   0  0  0  0  0  0  0  0  0  0  0  0
  110.2335  -73.4601  -87.1496 C   0  0  0  0  0  0  0  0  0  0  0  0
  112.7507  -80.7051  -87.2265 N   0  3  0  0  0  0  0  0  0  0  0  0
  113.4278  -81.5504  -86.2496 C   0  0  0  0  0  0  0  0  0  0  0  0
  112.7136  -81.3419  -88.5614 C   0  0  0  0  0  0  0  0  0  0  0  0
  111.2604  -74.1179  -80.6869 N   0  0  0  0  0  0  0  0  0  0  0  0
  111.8873  -74.8694  -79.5767 C   0  0  0  0  0  0  0  0  0  0  0  0
  110.8425  -72.7412  -80.2429 C   0  0  0  0  0  0  0  0  0  0  0  0
  1  2  1  0  0  0  0
  1 14  1  0  0  0  0
  1 21  2  0  0  0  0
  2  3  2  0  0  0  0
  3  4  1  0  0  0  0
  3 12  1  0  0  0  0
  4  5  1  0  0  0  0
  5  6  1  0  0  0  0
  5 10  2  0  0  0  0
  6  7  2  0  0  0  0
  7  8  1  0  0  0  0
  7 24  1  0  0  0  0
  8  9  2  0  0  0  0
  9 10  1  0  0  0  0
 10 11  1  0  0  0  0
 11 12  2  0  0  0  0
 11 15  1  0  0  0  0
 12 13  1  0  0  0  0
 13 14  2  0  0  0  0
 15 16  2  0  0  0  0
 15 20  1  0  0  0  0
 16 17  1  0  0  0  0
 17 18  2  0  0  0  0
 18 19  1  0  0  0  0
 19 20  2  0  0  0  0
 21 22  1  0  0  0  0
 21 23  1  0  0  0  0
 24 25  1  0  0  0  0
 24 26  1  0  0  0  0
M  CHG  1  21   1
M  END
>  <CHROM.1>
-5.51242049,-128.85603742,111.01535121,-76.22579126,-85.34048719,-1.23947148
-1.05006470,1.04261338

>  <Name>
1f1t Malachite green aptamer (Xray 2.8A)

>  <RI>
0

>  <Rbt.Current_Directory>
/home/itssahil/PROJECTS/Mol_Feturizer/New_Systems/rnas/1f1t

>  <Rbt.Executable>
rbdock ($Id: //depot/dev/client3/rdock/2013.1/src/exe/rbdock.cxx#4 $)

>  <Rbt.Library>
libRbt.so (2013.1, Build901 2013/11/27)

>  <Rbt.Parameter_File>
/export/apps/rDock/src/rDock_2013.1_src/data/scripts/dock_solv.prm

>  <Rbt.Receptor>
prm/pocket_docking_2.prm

>  <SCORE>
-61.9912

>  <SCORE.INTER>
-62.2979

>  <SCORE.INTER.CONST>
1

>  <SCORE.INTER.POLAR>
0

>  <SCORE.INTER.ROT>
2

>  <SCORE.INTER.SOLV>
11.1241

>  <SCORE.INTER.VDW>
-50.1733

>  <SCORE.INTER.norm>
-2.39607

>  <SCORE.INTRA>
0.306695

>  <SCORE.INTRA.DIHEDRAL>
-1.17688

>  <SCORE.INTRA.DIHEDRAL.0>
4.18538

>  <SCORE.INTRA.POLAR>
0

>  <SCORE.INTRA.POLAR.0>
0

>  <SCORE.INTRA.REPUL>
0

>  <SCORE.INTRA.REPUL.0>
0

>  <SCORE.INTRA.SOLV>
0.020684

>  <SCORE.INTRA.SOLV.lig_0>
-5.16926

>  <SCORE.INTRA.VDW>
0.884794

>  <SCORE.INTRA.VDW.0>
1.11912

>  <SCORE.INTRA.norm>
0.0117959

>  <SCORE.RESTR>
0

>  <SCORE.RESTR.CAVITY>
0

>  <SCORE.RESTR.norm>
0

>  <SCORE.SYSTEM>
0

>  <SCORE.SYSTEM.CONST>
0

>  <SCORE.SYSTEM.DIHEDRAL>
0

>  <SCORE.SYSTEM.SOLV>
0

>  <SCORE.SYSTEM.norm>
0

>  <SCORE.heavy>
26

>  <SCORE.norm>
-2.38428

>  <RMSD>
6.132

$$$$
1f1t Malachite green aptamer (Xray 2.8A)
 OpenBabel11021811393D
libRbt.so/2013.1/901 2013/11/27
 26 29  0  0  0  0  0  0  0  0999 V2000
  112.2105  -79.4460  -86.8643 C   0  0  0  0  0  0  0  0  0  0  0  0
  112.3333  -78.9463  -85.5029 C   0  0  0  0  0  0  0  0  0  0  0  0
  111.7519  -77.6892  -85.3266 C   0  0  0  0  0  0  0  0  0  0  0  0
  111.9048  -77.2269  -83.9185 O   0  0  0  0  0  0  0  0  0  0  0  0
  111.3617  -76.0828  -83.7643 C   0  0  0  0  0  0  0  0  0  0  0  0
  111.5737  -75.7148  -82.3645 C   0  0  0  0  0  0  0  0  0  0  0  0
  111.0126  -74.4391  -82.0018 C   0  0  0  0  0  0  0  0  0  0  0  0
  110.3077  -73.6247  -82.9224 C   0  0  0  0  0  0  0  0  0  0  0  0
  110.1397  -74.0435  -84.3015 C   0  0  0  0  0  0  0  0  0  0  0  0
  110.7062  -75.3115  -84.6909 C   0  0  0  0  0  0  0  0  0  0  0  0
  110.4998  -75.6631  -86.1454 C   0  0  0  0  0  0  0  0  0  0  0  0
  111.1036  -76.9251  -86.2906 C   0  0  0  0  0  0  0  0  0  0  0  0
  110.9967  -77.4424  -87.6566 C   0  0  0  0  0  0  0  0  0  0  0  0
  111.5814  -78.7298  -87.8640 C   0  0  0  0  0  0  0  0  0  0  0  0
  109.8375  -74.8379  -87.0345 C   0  0  0  0  0  0  0  0  0  0  0  0
  108.7550  -75.2213  -87.8600 C   0  0  0  0  0  0  0  0  0  0  0  0
  108.0637  -74.3975  -88.7501 C   0  0  0  0  0  0  0  0  0  0  0  0
  108.4475  -73.0001  -88.8830 C   0  0  0  0  0  0  0  0  0  0  0  0
  109.5398  -72.6515  -88.0528 C   0  0  0  0  0  0  0  0  0  0  0  0
  110.2636  -73.4435  -87.1508 C   0  0  0  0  0  0  0  0  0  0  0  0
  112.7352  -80.6872  -87.1968 N   0  3  0  0  0  0  0  0  0  0  0  0
  113.4078  -81.5346  -86.2186 C   0  0  0  0  0  0  0  0  0  0  0  0
  112.6989  -81.3238  -88.5319 C   0  0  0  0  0  0  0  0  0  0  0  0
  111.2515  -74.0956  -80.6601 N   0  0  0  0  0  0  0  0  0  0  0  0
  111.8762  -74.8481  -79.5493 C   0  0  0  0  0  0  0  0  0  0  0  0
  110.8340  -72.7189  -80.2161 C   0  0  0  0  0  0  0  0  0  0  0  0
  1  2  1  0  0  0  0
  1 14  1  0  0  0  0
  1 21  2  0  0  0  0
  2  3  2  0  0  0  0
  3  4  1  0  0  0  0
  3 12  1  0  0  0  0
  4  5  1  0  0  0  0
  5  6  1  0  0  0  0
  5 10  2  0  0  0  0
  6  7  2  0  0  0  0
  7  8  1  0  0  0  0
  7 24  1  0  0  0  0
  8  9  2  0  0  0  0
  9 10  1  0  0  0  0
 10 11  1  0  0  0  0
 11 12  2  0  0  0  0
 11 15  1  0  0  0  0
 12 13  1  0  0  0  0
 13 14  2  0  0  0  0
 15 16  2  0  0  0  0
 15 20  1  0  0  0  0
 16 17  1  0  0  0  0
 17 18  2  0  0  0  0
 18 19  1  0  0  0  0
 19 20  2  0  0  0  0
 21 22  1  0  0  0  0
 21 23  1  0  0  0  0
 24 25  1  0  0  0  0
 24 26  1  0  0  0  0
M  CHG  1  21   1
M  END
>  <CHROM.1>
-5.37476748,-127.23898354,111.00988403,-76.20267870,-85.31443447,-1.23863622
-1.05380659,1.04343093

>  <Name>
1f1t Malachite green aptamer (Xray 2.8A)

>  <RI>
0

>  <Rbt.Current_Directory>
/home/itssahil/PROJECTS/Mol_Feturizer/New_Systems/rnas/1f1t

>  <Rbt.Executable>
rbdock ($Id: //depot/dev/client3/rdock/2013.1/src/exe/rbdock.cxx#4 $)

>  <Rbt.Library>
libRbt.so (2013.1, Build901 2013/11/27)

>  <Rbt.Parameter_File>
/export/apps/rDock/src/rDock_2013.1_src/data/scripts/dock_solv.prm

>  <Rbt.Receptor>
prm/pocket_docking_2.prm

>  <SCORE>
-62.0407

>  <SCORE.INTER>
-62.2764

>  <SCORE.INTER.CONST>
1

>  <SCORE.INTER.POLAR>
0

>  <SCORE.INTER.ROT>
2

>  <SCORE.INTER.SOLV>
11.1438

>  <SCORE.INTER.VDW>
-50.1655

>  <SCORE.INTER.norm>
-2.39524

>  <SCORE.INTRA>
0.235685

>  <SCORE.INTRA.DIHEDRAL>
-1.05099

>  <SCORE.INTRA.DIHEDRAL.0>
4.18538

>  <SCORE.INTRA.POLAR>
0

>  <SCORE.INTRA.POLAR.0>
0

>  <SCORE.INTRA.REPUL>
0

>  <SCORE.INTRA.REPUL.0>
0

>  <SCORE.INTRA.SOLV>
0.0188612

>  <SCORE.INTRA.SOLV.lig_0>
-5.16926

>  <SCORE.INTRA.VDW>
0.751748

>  <SCORE.INTRA.VDW.0>
1.11912

>  <SCORE.INTRA.norm>
0.00906482

>  <SCORE.RESTR>
0

>  <SCORE.RESTR.CAVITY>
0

>  <SCORE.RESTR.norm>
0

>  <SCORE.SYSTEM>
0

>  <SCORE.SYSTEM.CONST>
0

>  <SCORE.SYSTEM.DIHEDRAL>
0

>  <SCORE.SYSTEM.SOLV>
0

>  <SCORE.SYSTEM.norm>
0

>  <SCORE.heavy>
26

>  <SCORE.norm>
-2.38618

>  <RMSD>
6.132

$$$$
1f1t Malachite green aptamer (Xray 2.8A)
 OpenBabel11021811393D
libRbt.so/2013.1/901 2013/11/27
 26 29  0  0  0  0  0  0  0  0999 V2000
  112.2343  -79.4473  -86.9525 C   0  0  0  0  0  0  0  0  0  0  0  0
  112.3587  -78.9893  -85.5766 C   0  0  0  0  0  0  0  0  0  0  0  0
  111.7956  -77.7292  -85.3660 C   0  0  0  0  0  0  0  0  0  0  0  0
  111.9493  -77.3105  -83.9444 O   0  0  0  0  0  0  0  0  0  0  0  0
  111.4228  -76.1632  -83.7590 C   0  0  0  0  0  0  0  0  0  0  0  0
  111.6343  -75.8394  -82.3483 C   0  0  0  0  0  0  0  0  0  0  0  0
  111.0908  -74.5665  -81.9507 C   0  0  0  0  0  0  0  0  0  0  0  0
  110.4023  -73.7150  -82.8498 C   0  0  0  0  0  0  0  0  0  0  0  0
  110.2339  -74.0910  -84.2413 C   0  0  0  0  0  0  0  0  0  0  0  0
  110.7830  -75.3555  -84.6652 C   0  0  0  0  0  0  0  0  0  0  0  0
  110.5776  -75.6615  -86.1302 C   0  0  0  0  0  0  0  0  0  0  0  0
  111.1630  -76.9276  -86.3098 C   0  0  0  0  0  0  0  0  0  0  0  0
  111.0542  -77.4033  -87.6907 C   0  0  0  0  0  0  0  0  0  0  0  0
  111.6204  -78.6929  -87.9332 C   0  0  0  0  0  0  0  0  0  0  0  0
  109.9317  -74.8008  -86.9974 C   0  0  0  0  0  0  0  0  0  0  0  0
  110.2349  -73.4303  -87.1713 C   0  0  0  0  0  0  0  0  0  0  0  0
  109.6052  -72.5512  -88.0542 C   0  0  0  0  0  0  0  0  0  0  0  0
  108.5276  -73.0347  -88.9043 C   0  0  0  0  0  0  0  0  0  0  0  0
  108.2413  -74.4057  -88.6982 C   0  0  0  0  0  0  0  0  0  0  0  0
  108.8426  -75.3212  -87.8235 C   0  0  0  0  0  0  0  0  0  0  0  0
  112.7418  -80.6861  -87.3190 N   0  3  0  0  0  0  0  0  0  0  0  0
  113.3973  -81.5717  -86.3633 C   0  0  0  0  0  0  0  0  0  0  0  0
  112.7017  -81.2830  -88.6722 C   0  0  0  0  0  0  0  0  0  0  0  0
  111.3291  -74.2659  -80.5986 N   0  0  0  0  0  0  0  0  0  0  0  0
  111.9829  -75.0403  -79.5201 C   0  0  0  0  0  0  0  0  0  0  0  0
  110.8754  -72.9190  -80.1016 C   0  0  0  0  0  0  0  0  0  0  0  0
  1  2  1  0  0  0  0
  1 14  1  0  0  0  0
  1 21  2  0  0  0  0
  2  3  2  0  0  0  0
  3  4  1  0  0  0  0
  3 12  1  0  0  0  0
  4  5  1  0  0  0  0
  5  6  1  0  0  0  0
  5 10  2  0  0  0  0
  6  7  2  0  0  0  0
  7  8  1  0  0  0  0
  7 24  1  0  0  0  0
  8  9  2  0  0  0  0
  9 10  1  0  0  0  0
 10 11  1  0  0  0  0
 11 12  2  0  0  0  0
 11 15  1  0  0  0  0
 12 13  1  0  0  0  0
 13 14  2  0  0  0  0
 15 16  2  0  0  0  0
 15 20  1  0  0  0  0
 16 17  1  0  0  0  0
 17 18  2  0  0  0  0
 18 19  1  0  0  0  0
 19 20  2  0  0  0  0
 21 22  1  0  0  0  0
 21 23  1  0  0  0  0
 24 25  1  0  0  0  0
 24 26  1  0  0  0  0
M  CHG  1  21   1
M  END
>  <CHROM.1>
-2.74857866,51.67734208,111.06810337,-76.24926516,-85.32407450,-1.26599821
-1.06402812,1.06334614

>  <Name>
1f1t Malachite green aptamer (Xray 2.8A)

>  <RI>
0

>  <Rbt.Current_Directory>
/home/itssahil/PROJECTS/Mol_Feturizer/New_Systems/rnas/1f1t

>  <Rbt.Executable>
rbdock ($Id: //depot/dev/client3/rdock/2013.1/src/exe/rbdock.cxx#4 $)

>  <Rbt.Library>
libRbt.so (2013.1, Build901 2013/11/27)

>  <Rbt.Parameter_File>
/export/apps/rDock/src/rDock_2013.1_src/data/scripts/dock_solv.prm

>  <Rbt.Receptor>
prm/pocket_docking_2.prm

>  <SCORE>
-62.9837

>  <SCORE.INTER>
-63.0454

>  <SCORE.INTER.CONST>
1

>  <SCORE.INTER.POLAR>
0

>  <SCORE.INTER.ROT>
2

>  <SCORE.INTER.SOLV>
11.0568

>  <SCORE.INTER.VDW>
-50.6492

>  <SCORE.INTER.norm>
-2.42482

>  <SCORE.INTRA>
0.061772

>  <SCORE.INTRA.DIHEDRAL>
-1.22488

>  <SCORE.INTRA.DIHEDRAL.0>
4.18538

>  <SCORE.INTRA.POLAR>
0

>  <SCORE.INTRA.POLAR.0>
0

>  <SCORE.INTRA.REPUL>
0

>  <SCORE.INTRA.REPUL.0>
0

>  <SCORE.INTRA.SOLV>
0.0200517

>  <SCORE.INTRA.SOLV.lig_0>
-5.16926

>  <SCORE.INTRA.VDW>
0.664186

>  <SCORE.INTRA.VDW.0>
1.11912

>  <SCORE.INTRA.norm>
0.00237585

>  <SCORE.RESTR>
0

>  <SCORE.RESTR.CAVITY>
0

>  <SCORE.RESTR.norm>
0

>  <SCORE.SYSTEM>
0

>  <SCORE.SYSTEM.CONST>
0

>  <SCORE.SYSTEM.DIHEDRAL>
0

>  <SCORE.SYSTEM.SOLV>
0

>  <SCORE.SYSTEM.norm>
0

>  <SCORE.heavy>
26

>  <SCORE.norm>
-2.42245

>  <RMSD>
6.132

$$$$
1f1t Malachite green aptamer (Xray 2.8A)
 OpenBabel11021811393D
libRbt.so/2013.1/901 2013/11/27
 26 29  0  0  0  0  0  0  0  0999 V2000
  112.2160  -79.4556  -86.9168 C   0  0  0  0  0  0  0  0  0  0  0  0
  112.3468  -78.9705  -85.5508 C   0  0  0  0  0  0  0  0  0  0  0  0
  111.7709  -77.7131  -85.3589 C   0  0  0  0  0  0  0  0  0  0  0  0
  111.9318  -77.2661  -83.9468 O   0  0  0  0  0  0  0  0  0  0  0  0
  111.3937  -76.1216  -83.7783 C   0  0  0  0  0  0  0  0  0  0  0  0
  111.6134  -75.7690  -82.3757 C   0  0  0  0  0  0  0  0  0  0  0  0
  111.0587  -74.4951  -81.9973 C   0  0  0  0  0  0  0  0  0  0  0  0
  110.3528  -73.6686  -82.9062 C   0  0  0  0  0  0  0  0  0  0  0  0
  110.1770  -74.0724  -84.2888 C   0  0  0  0  0  0  0  0  0  0  0  0
  110.7371  -75.3384  -84.6938 C   0  0  0  0  0  0  0  0  0  0  0  0
  110.5227  -75.6741  -86.1510 C   0  0  0  0  0  0  0  0  0  0  0  0
  111.1212  -76.9367  -86.3120 C   0  0  0  0  0  0  0  0  0  0  0  0
  111.0062  -77.4394  -87.6828 C   0  0  0  0  0  0  0  0  0  0  0  0
  111.5852  -78.7267  -87.9061 C   0  0  0  0  0  0  0  0  0  0  0  0
  109.8596  -74.8372  -87.0285 C   0  0  0  0  0  0  0  0  0  0  0  0
  108.7856  -75.2133  -87.8683 C   0  0  0  0  0  0  0  0  0  0  0  0
  108.0934  -74.3780  -88.7470 C   0  0  0  0  0  0  0  0  0  0  0  0
  108.4668  -72.9753  -88.8506 C   0  0  0  0  0  0  0  0  0  0  0  0
  109.5509  -72.6341  -88.0067 C   0  0  0  0  0  0  0  0  0  0  0  0
  110.2752  -73.4376  -87.1153 C   0  0  0  0  0  0  0  0  0  0  0  0
  112.7347  -80.6952  -87.2645 N   0  3  0  0  0  0  0  0  0  0  0  0
  113.4084  -81.5552  -86.2982 C   0  0  0  0  0  0  0  0  0  0  0  0
  112.6900  -81.3178  -88.6060 C   0  0  0  0  0  0  0  0  0  0  0  0
  111.3049  -74.1665  -80.6532 N   0  0  0  0  0  0  0  0  0  0  0  0
  111.9425  -74.9283  -79.5561 C   0  0  0  0  0  0  0  0  0  0  0  0
  110.8815  -72.7980  -80.1894 C   0  0  0  0  0  0  0  0  0  0  0  0
  1  2  1  0  0  0  0
  1 14  1  0  0  0  0
  1 21  2  0  0  0  0
  2  3  2  0  0  0  0
  3  4  1  0  0  0  0
  3 12  1  0  0  0  0
  4  5  1  0  0  0  0
  5  6  1  0  0  0  0
  5 10  2  0  0  0  0
  6  7  2  0  0  0  0
  7  8  1  0  0  0  0
  7 24  1  0  0  0  0
  8  9  2  0  0  0  0
  9 10  1  0  0  0  0
 10 11  1  0  0  0  0
 11 12  2  0  0  0  0
 11 15  1  0  0  0  0
 12 13  1  0  0  0  0
 13 14  2  0  0  0  0
 15 16  2  0  0  0  0
 15 20  1  0  0  0  0
 16 17  1  0  0  0  0
 17 18  2  0  0  0  0
 18 19  1  0  0  0  0
 19 20  2  0  0  0  0
 21 22  1  0  0  0  0
 21 23  1  0  0  0  0
 24 25  1  0  0  0  0
 24 26  1  0  0  0  0
M  CHG  1  21   1
M  END
>  <CHROM.1>
-4.75429564,-128.28915312,111.03430007,-76.22416687,-85.32783096,-1.25032924
-1.05449651,1.04361352

>  <Name>
1f1t Malachite green aptamer (Xray 2.8A)

>  <RI>
0

>  <Rbt.Current_Directory>
/home/itssahil/PROJECTS/Mol_Feturizer/New_Systems/rnas/1f1t

>  <Rbt.Executable>
rbdock ($Id: //depot/dev/client3/rdock/2013.1/src/exe/rbdock.cxx#4 $)

>  <Rbt.Library>
libRbt.so (2013.1, Build901 2013/11/27)

>  <Rbt.Parameter_File>
/export/apps/rDock/src/rDock_2013.1_src/data/scripts/dock_solv.prm

>  <Rbt.Receptor>
prm/pocket_docking_2.prm

>  <SCORE>
-62.0905

>  <SCORE.INTER>
-62.3656

>  <SCORE.INTER.CONST>
1

>  <SCORE.INTER.POLAR>
0

>  <SCORE.INTER.ROT>
2

>  <SCORE.INTER.SOLV>
11.1097

>  <SCORE.INTER.VDW>
-50.2136

>  <SCORE.INTER.norm>
-2.39868

>  <SCORE.INTRA>
0.275123

>  <SCORE.INTRA.DIHEDRAL>
-1.16146

>  <SCORE.INTRA.DIHEDRAL.0>
4.18538

>  <SCORE.INTRA.POLAR>
0

>  <SCORE.INTRA.POLAR.0>
0

>  <SCORE.INTRA.REPUL>
0

>  <SCORE.INTRA.REPUL.0>
0

>  <SCORE.INTRA.SOLV>
0.0200536

>  <SCORE.INTRA.SOLV.lig_0>
-5.16926

>  <SCORE.INTRA.VDW>
0.845829

>  <SCORE.INTRA.VDW.0>
1.11912

>  <SCORE.INTRA.norm>
0.0105817

>  <SCORE.RESTR>
0

>  <SCORE.RESTR.CAVITY>
0

>  <SCORE.RESTR.norm>
0

>  <SCORE.SYSTEM>
0

>  <SCORE.SYSTEM.CONST>
0

>  <SCORE.SYSTEM.DIHEDRAL>
0

>  <SCORE.SYSTEM.SOLV>
0

>  <SCORE.SYSTEM.norm>
0

>  <SCORE.heavy>
26

>  <SCORE.norm>
-2.38809

>  <RMSD>
6.132

$$$$
1f1t Malachite green aptamer (Xray 2.8A)
 OpenBabel11021811393D
libRbt.so/2013.1/901 2013/11/27
 26 29  0  0  0  0  0  0  0  0999 V2000
  112.2540  -79.4420  -86.9086 C   0  0  0  0  0  0  0  0  0  0  0  0
  112.3749  -78.9570  -85.5417 C   0  0  0  0  0  0  0  0  0  0  0  0
  111.7908  -77.7032  -85.3519 C   0  0  0  0  0  0  0  0  0  0  0  0
  111.9419  -77.2563  -83.9387 O   0  0  0  0  0  0  0  0  0  0  0  0
  111.3963  -76.1150  -83.7721 C   0  0  0  0  0  0  0  0  0  0  0  0
  111.6067  -75.7621  -82.3682 C   0  0  0  0  0  0  0  0  0  0  0  0
  111.0426  -74.4918  -81.9918 C   0  0  0  0  0  0  0  0  0  0  0  0
  110.3366  -73.6687  -82.9037 C   0  0  0  0  0  0  0  0  0  0  0  0
  110.1702  -74.0726  -84.2875 C   0  0  0  0  0  0  0  0  0  0  0  0
  110.7397  -75.3349  -84.6905 C   0  0  0  0  0  0  0  0  0  0  0  0
  110.5349  -75.6709  -86.1490 C   0  0  0  0  0  0  0  0  0  0  0  0
  111.1415  -76.9299  -86.3078 C   0  0  0  0  0  0  0  0  0  0  0  0
  111.0364  -77.4322  -87.6795 C   0  0  0  0  0  0  0  0  0  0  0  0
  111.6240  -78.7161  -87.9007 C   0  0  0  0  0  0  0  0  0  0  0  0
  109.8714  -74.8373  -87.0293 C   0  0  0  0  0  0  0  0  0  0  0  0
  108.7896  -75.2136  -87.8591 C   0  0  0  0  0  0  0  0  0  0  0  0
  108.0971  -74.3814  -88.7404 C   0  0  0  0  0  0  0  0  0  0  0  0
  108.4786  -72.9820  -88.8582 C   0  0  0  0  0  0  0  0  0  0  0  0
  109.5702  -72.6405  -88.0241 C   0  0  0  0  0  0  0  0  0  0  0  0
  110.2952  -73.4410  -87.1306 C   0  0  0  0  0  0  0  0  0  0  0  0
  112.7816  -80.6782  -87.2546 N   0  3  0  0  0  0  0  0  0  0  0  0
  113.4554  -81.5350  -86.2854 C   0  0  0  0  0  0  0  0  0  0  0  0
  112.7474  -81.3001  -88.5966 C   0  0  0  0  0  0  0  0  0  0  0  0
  111.2801  -74.1626  -80.6462 N   0  0  0  0  0  0  0  0  0  0  0  0
  111.9230  -74.9186  -79.5483 C   0  0  0  0  0  0  0  0  0  0  0  0
  110.8383  -72.8003  -80.1814 C   0  0  0  0  0  0  0  0  0  0  0  0
  1  2  1  0  0  0  0
  1 14  1  0  0  0  0
  1 21  2  0  0  0  0
  2  3  2  0  0  0  0
  3  4  1  0  0  0  0
  3 12  1  0  0  0  0
  4  5  1  0  0  0  0
  5  6  1  0  0  0  0
  5 10  2  0  0  0  0
  6  7  2  0  0  0  0
  7  8  1  0  0  0  0
  7 24  1  0  0  0  0
  8  9  2  0  0  0  0
  9 10  1  0  0  0  0
 10 11  1  0  0  0  0
 11 12  2  0  0  0  0
 11 15  1  0  0  0  0
 12 13  1  0  0  0  0
 13 14  2  0  0  0  0
 15 16  2  0  0  0  0
 15 20  1  0  0  0  0
 16 17  1  0  0  0  0
 17 18  2  0  0  0  0
 18 19  1  0  0  0  0
 19 20  2  0  0  0  0
 21 22  1  0  0  0  0
 21 23  1  0  0  0  0
 24 25  1  0  0  0  0
 24 26  1  0  0  0  0
M  CHG  1  21   1
M  END
>  <CHROM.1>
-4.36822387,-127.19738256,111.04547312,-76.21856293,-85.32366560,-1.23518612
-1.05196222,1.05751527

>  <Name>
1f1t Malachite green aptamer (Xray 2.8A)

>  <RI>
0

>  <Rbt.Current_Directory>
/home/itssahil/PROJECTS/Mol_Feturizer/New_Systems/rnas/1f1t

>  <Rbt.Executable>
rbdock ($Id: //depot/dev/client3/rdock/2013.1/src/exe/rbdock.cxx#4 $)

>  <Rbt.Library>
libRbt.so (2013.1, Build901 2013/11/27)

>  <Rbt.Parameter_File>
/export/apps/rDock/src/rDock_2013.1_src/data/scripts/dock_solv.prm

>  <Rbt.Receptor>
prm/pocket_docking_2.prm

>  <SCORE>
-62.139

>  <SCORE.INTER>
-62.3661

>  <SCORE.INTER.CONST>
1

>  <SCORE.INTER.POLAR>
0

>  <SCORE.INTER.ROT>
2

>  <SCORE.INTER.SOLV>
11.1318

>  <SCORE.INTER.VDW>
-50.2213

>  <SCORE.INTER.norm>
-2.3987

>  <SCORE.INTRA>
0.22711

>  <SCORE.INTRA.DIHEDRAL>
-1.08676

>  <SCORE.INTRA.DIHEDRAL.0>
4.18538

>  <SCORE.INTRA.POLAR>
0

>  <SCORE.INTRA.POLAR.0>
0

>  <SCORE.INTRA.REPUL>
0

>  <SCORE.INTRA.REPUL.0>
0

>  <SCORE.INTRA.SOLV>
0.0188219

>  <SCORE.INTRA.SOLV.lig_0>
-5.16926

>  <SCORE.INTRA.VDW>
0.761077

>  <SCORE.INTRA.VDW.0>
1.11912

>  <SCORE.INTRA.norm>
0.00873499

>  <SCORE.RESTR>
0

>  <SCORE.RESTR.CAVITY>
0

>  <SCORE.RESTR.norm>
0

>  <SCORE.SYSTEM>
0

>  <SCORE.SYSTEM.CONST>
0

>  <SCORE.SYSTEM.DIHEDRAL>
0

>  <SCORE.SYSTEM.SOLV>
0

>  <SCORE.SYSTEM.norm>
0

>  <SCORE.heavy>
26

>  <SCORE.norm>
-2.38996

>  <RMSD>
6.132

$$$$
1f1t Malachite green aptamer (Xray 2.8A)
 OpenBabel11021811393D
libRbt.so/2013.1/901 2013/11/27
 26 29  0  0  0  0  0  0  0  0999 V2000
  112.2262  -79.4550  -86.9073 C   0  0  0  0  0  0  0  0  0  0  0  0
  112.3522  -78.9710  -85.5405 C   0  0  0  0  0  0  0  0  0  0  0  0
  111.7756  -77.7138  -85.3495 C   0  0  0  0  0  0  0  0  0  0  0  0
  111.9316  -77.2679  -83.9366 O   0  0  0  0  0  0  0  0  0  0  0  0
  111.3928  -76.1236  -83.7689 C   0  0  0  0  0  0  0  0  0  0  0  0
  111.6076  -75.7720  -82.3654 C   0  0  0  0  0  0  0  0  0  0  0  0
  111.0515  -74.4985  -81.9878 C   0  0  0  0  0  0  0  0  0  0  0  0
  110.3487  -73.6713  -82.8985 C   0  0  0  0  0  0  0  0  0  0  0  0
  110.1776  -74.0741  -84.2821 C   0  0  0  0  0  0  0  0  0  0  0  0
  110.7392  -75.3397  -84.6862 C   0  0  0  0  0  0  0  0  0  0  0  0
  110.5299  -75.6743  -86.1443 C   0  0  0  0  0  0  0  0  0  0  0  0
  111.1291  -76.9367  -86.3043 C   0  0  0  0  0  0  0  0  0  0  0  0
  111.0188  -77.4383  -87.6758 C   0  0  0  0  0  0  0  0  0  0  0  0
  111.5986  -78.7254  -87.8982 C   0  0  0  0  0  0  0  0  0  0  0  0
  109.8698  -74.8368  -87.0234 C   0  0  0  0  0  0  0  0  0  0  0  0
  108.7866  -75.2077  -87.8539 C   0  0  0  0  0  0  0  0  0  0  0  0
  108.0974  -74.3715  -88.7340 C   0  0  0  0  0  0  0  0  0  0  0  0
  108.4843  -72.9734  -88.8496 C   0  0  0  0  0  0  0  0  0  0  0  0
  109.5771  -72.6374  -88.0149 C   0  0  0  0  0  0  0  0  0  0  0  0
  110.2989  -73.4420  -87.1225 C   0  0  0  0  0  0  0  0  0  0  0  0
  112.7461  -80.6943  -87.2542 N   0  3  0  0  0  0  0  0  0  0  0  0
  113.4166  -81.5550  -86.2862 C   0  0  0  0  0  0  0  0  0  0  0  0
  112.7061  -81.3158  -88.5963 C   0  0  0  0  0  0  0  0  0  0  0  0
  111.2931  -74.1709  -80.6427 N   0  0  0  0  0  0  0  0  0  0  0  0
  111.9325  -74.9311  -79.5456 C   0  0  0  0  0  0  0  0  0  0  0  0
  110.8613  -72.8056  -80.1774 C   0  0  0  0  0  0  0  0  0  0  0  0
  1  2  1  0  0  0  0
  1 14  1  0  0  0  0
  1 21  2  0  0  0  0
  2  3  2  0  0  0  0
  3  4  1  0  0  0  0
  3 12  1  0  0  0  0
  4  5  1  0  0  0  0
  5  6  1  0  0  0  0
  5 10  2  0  0  0  0
  6  7  2  0  0  0  0
  7  8  1  0  0  0  0
  7 24  1  0  0  0  0
  8  9  2  0  0  0  0
  9 10  1  0  0  0  0
 10 11  1  0  0  0  0
 11 12  2  0  0  0  0
 11 15  1  0  0  0  0
 12 13  1  0  0  0  0
 13 14  2  0  0  0  0
 15 16  2  0  0  0  0
 15 20  1  0  0  0  0
 16 17  1  0  0  0  0
 17 18  2  0  0  0  0
 18 19  1  0  0  0  0
 19 20  2  0  0  0  0
 21 22  1  0  0  0  0
 21 23  1  0  0  0  0
 24 25  1  0  0  0  0
 24 26  1  0  0  0  0
M  CHG  1  21   1
M  END
>  <CHROM.1>
-4.43381566,-127.36821503,111.03878111,-76.22494753,-85.31990718,-1.24395754
-1.05611377,1.04998158

>  <Name>
1f1t Malachite green aptamer (Xray 2.8A)

>  <RI>
0

>  <Rbt.Current_Directory>
/home/itssahil/PROJECTS/Mol_Feturizer/New_Systems/rnas/1f1t

>  <Rbt.Executable>
rbdock ($Id: //depot/dev/client3/rdock/2013.1/src/exe/rbdock.cxx#4 $)

>  <Rbt.Library>
libRbt.so (2013.1, Build901 2013/11/27)

>  <Rbt.Parameter_File>
/export/apps/rDock/src/rDock_2013.1_src/data/scripts/dock_solv.prm

>  <Rbt.Receptor>
prm/pocket_docking_3.prm

>  <SCORE>
-62.075

>  <SCORE.INTER>
-62.3093

>  <SCORE.INTER.CONST>
1

>  <SCORE.INTER.POLAR>
0

>  <SCORE.INTER.ROT>
2

>  <SCORE.INTER.SOLV>
11.1092

>  <SCORE.INTER.VDW>
-50.1759

>  <SCORE.INTER.norm>
-2.39651

>  <SCORE.INTRA>
0.234248

>  <SCORE.INTRA.DIHEDRAL>
-1.09828

>  <SCORE.INTRA.DIHEDRAL.0>
4.18538

>  <SCORE.INTRA.POLAR>
0

>  <SCORE.INTRA.POLAR.0>
0

>  <SCORE.INTRA.REPUL>
0

>  <SCORE.INTRA.REPUL.0>
0

>  <SCORE.INTRA.SOLV>
0.0190153

>  <SCORE.INTRA.SOLV.lig_0>
-5.16926

>  <SCORE.INTRA.VDW>
0.773881

>  <SCORE.INTRA.VDW.0>
1.11912

>  <SCORE.INTRA.norm>
0.00900954

>  <SCORE.RESTR>
0

>  <SCORE.RESTR.CAVITY>
0

>  <SCORE.RESTR.norm>
0

>  <SCORE.SYSTEM>
0

>  <SCORE.SYSTEM.CONST>
0

>  <SCORE.SYSTEM.DIHEDRAL>
0

>  <SCORE.SYSTEM.SOLV>
0

>  <SCORE.SYSTEM.norm>
0

>  <SCORE.heavy>
26

>  <SCORE.norm>
-2.3875

>  <RMSD>
6.132

$$$$
1f1t Malachite green aptamer (Xray 2.8A)
 OpenBabel11021811393D
libRbt.so/2013.1/901 2013/11/27
 26 29  0  0  0  0  0  0  0  0999 V2000
  112.2358  -79.4432  -86.8991 C   0  0  0  0  0  0  0  0  0  0  0  0
  112.3609  -78.9563  -85.5332 C   0  0  0  0  0  0  0  0  0  0  0  0
  111.7792  -77.7013  -85.3439 C   0  0  0  0  0  0  0  0  0  0  0  0
  111.9345  -77.2524  -83.9318 O   0  0  0  0  0  0  0  0  0  0  0  0
  111.3910  -76.1100  -83.7656 C   0  0  0  0  0  0  0  0  0  0  0  0
  111.6055  -75.7552  -82.3629 C   0  0  0  0  0  0  0  0  0  0  0  0
  111.0444  -74.4834  -81.9870 C   0  0  0  0  0  0  0  0  0  0  0  0
  110.3373  -73.6607  -82.8984 C   0  0  0  0  0  0  0  0  0  0  0  0
  110.1669  -74.0665  -84.2812 C   0  0  0  0  0  0  0  0  0  0  0  0
  110.7334  -75.3304  -84.6836 C   0  0  0  0  0  0  0  0  0  0  0  0
  110.5243  -75.6683  -86.1411 C   0  0  0  0  0  0  0  0  0  0  0  0
  111.1286  -76.9285  -86.2994 C   0  0  0  0  0  0  0  0  0  0  0  0
  111.0193  -77.4328  -87.6700 C   0  0  0  0  0  0  0  0  0  0  0  0
  111.6044  -78.7179  -87.8907 C   0  0  0  0  0  0  0  0  0  0  0  0
  109.8600  -74.8351  -87.0210 C   0  0  0  0  0  0  0  0  0  0  0  0
  108.7842  -75.2143  -87.8572 C   0  0  0  0  0  0  0  0  0  0  0  0
  108.0907  -74.3827  -88.7383 C   0  0  0  0  0  0  0  0  0  0  0  0
  108.4645  -72.9806  -88.8488 C   0  0  0  0  0  0  0  0  0  0  0  0
  109.5504  -72.6361  -88.0084 C   0  0  0  0  0  0  0  0  0  0  0  0
  110.2760  -73.4360  -87.1148 C   0  0  0  0  0  0  0  0  0  0  0  0
  112.7606  -80.6809  -87.2444 N   0  3  0  0  0  0  0  0  0  0  0  0
  113.4355  -81.5372  -86.2755 C   0  0  0  0  0  0  0  0  0  0  0  0
  112.7221  -81.3048  -88.5854 C   0  0  0  0  0  0  0  0  0  0  0  0
  111.2857  -74.1525  -80.6426 N   0  0  0  0  0  0  0  0  0  0  0  0
  111.9162  -74.9138  -79.5411 C   0  0  0  0  0  0  0  0  0  0  0  0
  110.8642  -72.7819  -80.1836 C   0  0  0  0  0  0  0  0  0  0  0  0
  1  2  1  0  0  0  0
  1 14  1  0  0  0  0
  1 21  2  0  0  0  0
  2  3  2  0  0  0  0
  3  4  1  0  0  0  0
  3 12  1  0  0  0  0
  4  5  1  0  0  0  0
  5  6  1  0  0  0  0
  5 10  2  0  0  0  0
  6  7  2  0  0  0  0
  7  8  1  0  0  0  0
  7 24  1  0  0  0  0
  8  9  2  0  0  0  0
  9 10  1  0  0  0  0
 10 11  1  0  0  0  0
 11 12  2  0  0  0  0
 11 15  1  0  0  0  0
 12 13  1  0  0  0  0
 13 14  2  0  0  0  0
 15 16  2  0  0  0  0
 15 20  1  0  0  0  0
 16 17  1  0  0  0  0
 17 18  2  0  0  0  0
 18 19  1  0  0  0  0
 19 20  2  0  0  0  0
 21 22  1  0  0  0  0
 21 23  1  0  0  0  0
 24 25  1  0  0  0  0
 24 26  1  0  0  0  0
M  CHG  1  21   1
M  END
>  <CHROM.1>
-5.18191782,-127.86351461,111.03621872,-76.21544122,-85.31613281,-1.24146037
-1.05226617,1.05045007

>  <Name>
1f1t Malachite green aptamer (Xray 2.8A)

>  <RI>
0

>  <Rbt.Current_Directory>
/home/itssahil/PROJECTS/Mol_Feturizer/New_Systems/rnas/1f1t

>  <Rbt.Executable>
rbdock ($Id: //depot/dev/client3/rdock/2013.1/src/exe/rbdock.cxx#4 $)

>  <Rbt.Library>
libRbt.so (2013.1, Build901 2013/11/27)

>  <Rbt.Parameter_File>
/export/apps/rDock/src/rDock_2013.1_src/data/scripts/dock_solv.prm

>  <Rbt.Receptor>
prm/pocket_docking_4.prm

>  <SCORE>
-62.0969

>  <SCORE.INTER>
-62.3566

>  <SCORE.INTER.CONST>
1

>  <SCORE.INTER.POLAR>
0

>  <SCORE.INTER.ROT>
2

>  <SCORE.INTER.SOLV>
11.1192

>  <SCORE.INTER.VDW>
-50.2108

>  <SCORE.INTER.norm>
-2.39833

>  <SCORE.INTRA>
0.259673

>  <SCORE.INTRA.DIHEDRAL>
-1.1098

>  <SCORE.INTRA.DIHEDRAL.0>
4.18538

>  <SCORE.INTRA.POLAR>
0

>  <SCORE.INTRA.POLAR.0>
0

>  <SCORE.INTRA.REPUL>
0

>  <SCORE.INTRA.REPUL.0>
0

>  <SCORE.INTRA.SOLV>
0.0195701

>  <SCORE.INTRA.SOLV.lig_0>
-5.16926

>  <SCORE.INTRA.VDW>
0.804788

>  <SCORE.INTRA.VDW.0>
1.11912

>  <SCORE.INTRA.norm>
0.00998742

>  <SCORE.RESTR>
0

>  <SCORE.RESTR.CAVITY>
0

>  <SCORE.RESTR.norm>
0

>  <SCORE.SYSTEM>
0

>  <SCORE.SYSTEM.CONST>
0

>  <SCORE.SYSTEM.DIHEDRAL>
0

>  <SCORE.SYSTEM.SOLV>
0

>  <SCORE.SYSTEM.norm>
0

>  <SCORE.heavy>
26

>  <SCORE.norm>
-2.38834

>  <RMSD>
6.132

$$$$
1f1t Malachite green aptamer (Xray 2.8A)
 OpenBabel11021811393D
libRbt.so/2013.1/901 2013/11/27
 26 29  0  0  0  0  0  0  0  0999 V2000
  112.2407  -79.4388  -86.9109 C   0  0  0  0  0  0  0  0  0  0  0  0
  112.3641  -78.9549  -85.5438 C   0  0  0  0  0  0  0  0  0  0  0  0
  111.7816  -77.7006  -85.3523 C   0  0  0  0  0  0  0  0  0  0  0  0
  111.9352  -77.2547  -83.9391 O   0  0  0  0  0  0  0  0  0  0  0  0
  111.3911  -76.1130  -83.7709 C   0  0  0  0  0  0  0  0  0  0  0  0
  111.6039  -75.7612  -82.3672 C   0  0  0  0  0  0  0  0  0  0  0  0
  111.0418  -74.4905  -81.9890 C   0  0  0  0  0  0  0  0  0  0  0  0
  110.3353  -73.6661  -82.8994 C   0  0  0  0  0  0  0  0  0  0  0  0
  110.1665  -74.0689  -84.2832 C   0  0  0  0  0  0  0  0  0  0  0  0
  110.7340  -75.3316  -84.6879 C   0  0  0  0  0  0  0  0  0  0  0  0
  110.5266  -75.6664  -86.1463 C   0  0  0  0  0  0  0  0  0  0  0  0
  111.1317  -76.9259  -86.3068 C   0  0  0  0  0  0  0  0  0  0  0  0
  111.0241  -77.4273  -87.6786 C   0  0  0  0  0  0  0  0  0  0  0  0
  111.6100  -78.7116  -87.9015 C   0  0  0  0  0  0  0  0  0  0  0  0
  109.8628  -74.8315  -87.0251 C   0  0  0  0  0  0  0  0  0  0  0  0
  108.7828  -75.2075  -87.8573 C   0  0  0  0  0  0  0  0  0  0  0  0
  108.0898  -74.3741  -88.7371 C   0  0  0  0  0  0  0  0  0  0  0  0
  108.4689  -72.9736  -88.8505 C   0  0  0  0  0  0  0  0  0  0  0  0
  109.5588  -72.6325  -88.0140 C   0  0  0  0  0  0  0  0  0  0  0  0
  110.2841  -73.4342  -87.1218 C   0  0  0  0  0  0  0  0  0  0  0  0
  112.7664  -80.6754  -87.2584 N   0  3  0  0  0  0  0  0  0  0  0  0
  113.4408  -81.5336  -86.2907 C   0  0  0  0  0  0  0  0  0  0  0  0
  112.7296  -81.2964  -88.6008 C   0  0  0  0  0  0  0  0  0  0  0  0
  111.2816  -74.1625  -80.6436 N   0  0  0  0  0  0  0  0  0  0  0  0
  111.9199  -74.9222  -79.5456 C   0  0  0  0  0  0  0  0  0  0  0  0
  110.8486  -72.7973  -80.1792 C   0  0  0  0  0  0  0  0  0  0  0  0
  1  2  1  0  0  0  0
  1 14  1  0  0  0  0
  1 21  2  0  0  0  0
  2  3  2  0  0  0  0
  3  4  1  0  0  0  0
  3 12  1  0  0  0  0
  4  5  1  0  0  0  0
  5  6  1  0  0  0  0
  5 10  2  0  0  0  0
  6  7  2  0  0  0  0
  7  8  1  0  0  0  0
  7 24  1  0  0  0  0
  8  9  2  0  0  0  0
  9 10  1  0  0  0  0
 10 11  1  0  0  0  0
 11 12  2  0  0  0  0
 11 15  1  0  0  0  0
 12 13  1  0  0  0  0
 13 14  2  0  0  0  0
 15 16  2  0  0  0  0
 15 20  1  0  0  0  0
 16 17  1  0  0  0  0
 17 18  2  0  0  0  0
 18 19  1  0  0  0  0
 19 20  2  0  0  0  0
 21 22  1  0  0  0  0
 21 23  1  0  0  0  0
 24 25  1  0  0  0  0
 24 26  1  0  0  0  0
M  CHG  1  21   1
M  END
>  <CHROM.1>
-4.68615773,-127.45938700,111.03791256,-76.21514484,-85.32205015,-1.23896576
-1.05224127,1.05485783

>  <Name>
1f1t Malachite green aptamer (Xray 2.8A)

>  <RI>
0

>  <Rbt.Current_Directory>
/home/itssahil/PROJECTS/Mol_Feturizer/New_Systems/rnas/1f1t

>  <Rbt.Executable>
rbdock ($Id: //depot/dev/client3/rdock/2013.1/src/exe/rbdock.cxx#4 $)

>  <Rbt.Library>
libRbt.so (2013.1, Build901 2013/11/27)

>  <Rbt.Parameter_File>
/export/apps/rDock/src/rDock_2013.1_src/data/scripts/dock_solv.prm

>  <Rbt.Receptor>
prm/pocket_docking_4.prm

>  <SCORE>
-62.1025

>  <SCORE.INTER>
-62.3421

>  <SCORE.INTER.CONST>
1

>  <SCORE.INTER.POLAR>
0

>  <SCORE.INTER.ROT>
2

>  <SCORE.INTER.SOLV>
11.1244

>  <SCORE.INTER.VDW>
-50.2028

>  <SCORE.INTER.norm>
-2.39777

>  <SCORE.INTRA>
0.239529

>  <SCORE.INTRA.DIHEDRAL>
-1.09647

>  <SCORE.INTRA.DIHEDRAL.0>
4.18538

>  <SCORE.INTRA.POLAR>
0

>  <SCORE.INTRA.POLAR.0>
0

>  <SCORE.INTRA.REPUL>
0

>  <SCORE.INTRA.REPUL.0>
0

>  <SCORE.INTRA.SOLV>
0.0191168

>  <SCORE.INTRA.SOLV.lig_0>
-5.16926

>  <SCORE.INTRA.VDW>
0.778205

>  <SCORE.INTRA.VDW.0>
1.11912

>  <SCORE.INTRA.norm>
0.00921267

>  <SCORE.RESTR>
0

>  <SCORE.RESTR.CAVITY>
0

>  <SCORE.RESTR.norm>
0

>  <SCORE.SYSTEM>
0

>  <SCORE.SYSTEM.CONST>
0

>  <SCORE.SYSTEM.DIHEDRAL>
0

>  <SCORE.SYSTEM.SOLV>
0

>  <SCORE.SYSTEM.norm>
0

>  <SCORE.heavy>
26

>  <SCORE.norm>
-2.38856

>  <RMSD>
6.132

$$$$
1f1t Malachite green aptamer (Xray 2.8A)
 OpenBabel11021811393D
libRbt.so/2013.1/901 2013/11/27
 26 29  0  0  0  0  0  0  0  0999 V2000
  112.2487  -79.4422  -86.9050 C   0  0  0  0  0  0  0  0  0  0  0  0
  112.3733  -78.9579  -85.5381 C   0  0  0  0  0  0  0  0  0  0  0  0
  111.7907  -77.7036  -85.3465 C   0  0  0  0  0  0  0  0  0  0  0  0
  111.9454  -77.2573  -83.9335 O   0  0  0  0  0  0  0  0  0  0  0  0
  111.4012  -76.1156  -83.7653 C   0  0  0  0  0  0  0  0  0  0  0  0
  111.6152  -75.7634  -82.3618 C   0  0  0  0  0  0  0  0  0  0  0  0
  111.0532  -74.4927  -81.9835 C   0  0  0  0  0  0  0  0  0  0  0  0
  110.3458  -73.6687  -82.8935 C   0  0  0  0  0  0  0  0  0  0  0  0
  110.1758  -74.0719  -84.2771 C   0  0  0  0  0  0  0  0  0  0  0  0
  110.7433  -75.3347  -84.6819 C   0  0  0  0  0  0  0  0  0  0  0  0
  110.5347  -75.6699  -86.1400 C   0  0  0  0  0  0  0  0  0  0  0  0
  111.1398  -76.9294  -86.3007 C   0  0  0  0  0  0  0  0  0  0  0  0
  111.0311  -77.4311  -87.6723 C   0  0  0  0  0  0  0  0  0  0  0  0
  111.6170  -78.7154  -87.8953 C   0  0  0  0  0  0  0  0  0  0  0  0
  109.8699  -74.8354  -87.0184 C   0  0  0  0  0  0  0  0  0  0  0  0
  108.7983  -75.2152  -87.8597 C   0  0  0  0  0  0  0  0  0  0  0  0
  108.1044  -74.3824  -88.7394 C   0  0  0  0  0  0  0  0  0  0  0  0
  108.4731  -72.9784  -88.8426 C   0  0  0  0  0  0  0  0  0  0  0  0
  109.5549  -72.6334  -87.9972 C   0  0  0  0  0  0  0  0  0  0  0  0
  110.2808  -73.4343  -87.1048 C   0  0  0  0  0  0  0  0  0  0  0  0
  112.7744  -80.6789  -87.2526 N   0  3  0  0  0  0  0  0  0  0  0  0
  113.4497  -81.5366  -86.2853 C   0  0  0  0  0  0  0  0  0  0  0  0
  112.7366  -81.3002  -88.5948 C   0  0  0  0  0  0  0  0  0  0  0  0
  111.2941  -74.1643  -80.6384 N   0  0  0  0  0  0  0  0  0  0  0  0
  111.9340  -74.9233  -79.5409 C   0  0  0  0  0  0  0  0  0  0  0  0
  110.8606  -72.7993  -80.1738 C   0  0  0  0  0  0  0  0  0  0  0  0
  1  2  1  0  0  0  0
  1 14  1  0  0  0  0
  1 21  2  0  0  0  0
  2  3  2  0  0  0  0
  3  4  1  0  0  0  0
  3 12  1  0  0  0  0
  4  5  1  0  0  0  0
  5  6  1  0  0  0  0
  5 10  2  0  0  0  0
  6  7  2  0  0  0  0
  7  8  1  0  0  0  0
  7 24  1  0  0  0  0
  8  9  2  0  0  0  0
  9 10  1  0  0  0  0
 10 11  1  0  0  0  0
 11 12  2  0  0  0  0
 11 15  1  0  0  0  0
 12 13  1  0  0  0  0
 13 14  2  0  0  0  0
 15 16  2  0  0  0  0
 15 20  1  0  0  0  0
 16 17  1  0  0  0  0
 17 18  2  0  0  0  0
 18 19  1  0  0  0  0
 19 20  2  0  0  0  0
 21 22  1  0  0  0  0
 21 23  1  0  0  0  0
 24 25  1  0  0  0  0
 24 26  1  0  0  0  0
M  CHG  1  21   1
M  END
>  <CHROM.1>
-4.65617512,-128.15420052,111.04663122,-76.21832488,-85.31596655,-1.24042063
-1.05159403,1.05327800

>  <Name>
1f1t Malachite green aptamer (Xray 2.8A)

>  <RI>
0

>  <Rbt.Current_Directory>
/home/itssahil/PROJECTS/Mol_Feturizer/New_Systems/rnas/1f1t

>  <Rbt.Executable>
rbdock ($Id: //depot/dev/client3/rdock/2013.1/src/exe/rbdock.cxx#4 $)

>  <Rbt.Library>
libRbt.so (2013.1, Build901 2013/11/27)

>  <Rbt.Parameter_File>
/export/apps/rDock/src/rDock_2013.1_src/data/scripts/dock_solv.prm

>  <Rbt.Receptor>
prm/pocket_docking_4.prm

>  <SCORE>
-62.1217

>  <SCORE.INTER>
-62.3902

>  <SCORE.INTER.CONST>
1

>  <SCORE.INTER.POLAR>
0

>  <SCORE.INTER.ROT>
2

>  <SCORE.INTER.SOLV>
11.1186

>  <SCORE.INTER.VDW>
-50.233

>  <SCORE.INTER.norm>
-2.39962

>  <SCORE.INTRA>
0.268514

>  <SCORE.INTRA.DIHEDRAL>
-1.15413

>  <SCORE.INTRA.DIHEDRAL.0>
4.18538

>  <SCORE.INTRA.POLAR>
0

>  <SCORE.INTRA.POLAR.0>
0

>  <SCORE.INTRA.REPUL>
0

>  <SCORE.INTRA.REPUL.0>
0

>  <SCORE.INTRA.SOLV>
0.0199024

>  <SCORE.INTRA.SOLV.lig_0>
-5.16926

>  <SCORE.INTRA.VDW>
0.83563

>  <SCORE.INTRA.VDW.0>
1.11912

>  <SCORE.INTRA.norm>
0.0103275

>  <SCORE.RESTR>
0

>  <SCORE.RESTR.CAVITY>
0

>  <SCORE.RESTR.norm>
0

>  <SCORE.SYSTEM>
0

>  <SCORE.SYSTEM.CONST>
0

>  <SCORE.SYSTEM.DIHEDRAL>
0

>  <SCORE.SYSTEM.SOLV>
0

>  <SCORE.SYSTEM.norm>
0

>  <SCORE.heavy>
26

>  <SCORE.norm>
-2.3893

>  <RMSD>
6.132

$$$$
1f1t Malachite green aptamer (Xray 2.8A)
 OpenBabel11021811393D
libRbt.so/2013.1/901 2013/11/27
 26 29  0  0  0  0  0  0  0  0999 V2000
  112.2175  -79.4578  -86.9133 C   0  0  0  0  0  0  0  0  0  0  0  0
  112.3483  -78.9738  -85.5469 C   0  0  0  0  0  0  0  0  0  0  0  0
  111.7728  -77.7164  -85.3541 C   0  0  0  0  0  0  0  0  0  0  0  0
  111.9337  -77.2706  -83.9417 O   0  0  0  0  0  0  0  0  0  0  0  0
  111.3959  -76.1260  -83.7723 C   0  0  0  0  0  0  0  0  0  0  0  0
  111.6155  -75.7745  -82.3695 C   0  0  0  0  0  0  0  0  0  0  0  0
  111.0611  -74.5008  -81.9901 C   0  0  0  0  0  0  0  0  0  0  0  0
  110.3556  -73.6733  -82.8984 C   0  0  0  0  0  0  0  0  0  0  0  0
  110.1798  -74.0761  -84.2814 C   0  0  0  0  0  0  0  0  0  0  0  0
  110.7395  -75.3419  -84.6873 C   0  0  0  0  0  0  0  0  0  0  0  0
  110.5252  -75.6764  -86.1448 C   0  0  0  0  0  0  0  0  0  0  0  0
  111.1234  -76.9390  -86.3067 C   0  0  0  0  0  0  0  0  0  0  0  0
  111.0083  -77.4406  -87.6779 C   0  0  0  0  0  0  0  0  0  0  0  0
  111.5869  -78.7280  -87.9021 C   0  0  0  0  0  0  0  0  0  0  0  0
  109.8625  -74.8387  -87.0216 C   0  0  0  0  0  0  0  0  0  0  0  0
  108.7834  -75.2119  -87.8564 C   0  0  0  0  0  0  0  0  0  0  0  0
  108.0916  -74.3756  -88.7344 C   0  0  0  0  0  0  0  0  0  0  0  0
  108.4708  -72.9749  -88.8428 C   0  0  0  0  0  0  0  0  0  0  0  0
  109.5597  -72.6365  -88.0039 C   0  0  0  0  0  0  0  0  0  0  0  0
  110.2839  -73.4411  -87.1134 C   0  0  0  0  0  0  0  0  0  0  0  0
  112.7358  -80.6973  -87.2620 N   0  3  0  0  0  0  0  0  0  0  0  0
  113.4092  -81.5582  -86.2962 C   0  0  0  0  0  0  0  0  0  0  0  0
  112.6911  -81.3188  -88.6039 C   0  0  0  0  0  0  0  0  0  0  0  0
  111.3074  -74.1732  -80.6457 N   0  0  0  0  0  0  0  0  0  0  0  0
  111.9499  -74.9338  -79.5507 C   0  0  0  0  0  0  0  0  0  0  0  0
  110.8779  -72.8077  -80.1791 C   0  0  0  0  0  0  0  0  0  0  0  0
  1  2  1  0  0  0  0
  1 14  1  0  0  0  0
  1 21  2  0  0  0  0
  2  3  2  0  0  0  0
  3  4  1  0  0  0  0
  3 12  1  0  0  0  0
  4  5  1  0  0  0  0
  5  6  1  0  0  0  0
  5 10  2  0  0  0  0
  6  7  2  0  0  0  0
  7  8  1  0  0  0  0
  7 24  1  0  0  0  0
  8  9  2  0  0  0  0
  9 10  1  0  0  0  0
 10 11  1  0  0  0  0
 11 12  2  0  0  0  0
 11 15  1  0  0  0  0
 12 13  1  0  0  0  0
 13 14  2  0  0  0  0
 15 16  2  0  0  0  0
 15 20  1  0  0  0  0
 16 17  1  0  0  0  0
 17 18  2  0  0  0  0
 18 19  1  0  0  0  0
 19 20  2  0  0  0  0
 21 22  1  0  0  0  0
 21 23  1  0  0  0  0
 24 25  1  0  0  0  0
 24 26  1  0  0  0  0
M  CHG  1  21   1
M  END
>  <CHROM.1>
-4.44637691,-127.91302313,111.03655725,-76.22726638,-85.32198921,-1.25032084
-1.05472830,1.04441034

>  <Name>
1f1t Malachite green aptamer (Xray 2.8A)

>  <RI>
0

>  <Rbt.Current_Directory>
/home/itssahil/PROJECTS/Mol_Feturizer/New_Systems/rnas/1f1t

>  <Rbt.Executable>
rbdock ($Id: //depot/dev/client3/rdock/2013.1/src/exe/rbdock.cxx#4 $)

>  <Rbt.Library>
libRbt.so (2013.1, Build901 2013/11/27)

>  <Rbt.Parameter_File>
/export/apps/rDock/src/rDock_2013.1_src/data/scripts/dock_solv.prm

>  <Rbt.Receptor>
prm/pocket_docking_4.prm

>  <SCORE>
-62.0884

>  <SCORE.INTER>
-62.3452

>  <SCORE.INTER.CONST>
1

>  <SCORE.INTER.POLAR>
0

>  <SCORE.INTER.ROT>
2

>  <SCORE.INTER.SOLV>
11.0988

>  <SCORE.INTER.VDW>
-50.1964

>  <SCORE.INTER.norm>
-2.39789

>  <SCORE.INTRA>
0.256753

>  <SCORE.INTRA.DIHEDRAL>
-1.14211

>  <SCORE.INTRA.DIHEDRAL.0>
4.18538

>  <SCORE.INTRA.POLAR>
0

>  <SCORE.INTRA.POLAR.0>
0

>  <SCORE.INTRA.REPUL>
0

>  <SCORE.INTRA.REPUL.0>
0

>  <SCORE.INTRA.SOLV>
0.0196319

>  <SCORE.INTRA.SOLV.lig_0>
-5.16926

>  <SCORE.INTRA.VDW>
0.817993

>  <SCORE.INTRA.VDW.0>
1.11912

>  <SCORE.INTRA.norm>
0.00987513

>  <SCORE.RESTR>
0

>  <SCORE.RESTR.CAVITY>
0

>  <SCORE.RESTR.norm>
0

>  <SCORE.SYSTEM>
0

>  <SCORE.SYSTEM.CONST>
0

>  <SCORE.SYSTEM.DIHEDRAL>
0

>  <SCORE.SYSTEM.SOLV>
0

>  <SCORE.SYSTEM.norm>
0

>  <SCORE.heavy>
26

>  <SCORE.norm>
-2.38802

>  <RMSD>
6.132

$$$$
1f1t Malachite green aptamer (Xray 2.8A)
 OpenBabel11021811393D
libRbt.so/2013.1/901 2013/11/27
 26 29  0  0  0  0  0  0  0  0999 V2000
  112.2445  -79.4410  -86.9139 C   0  0  0  0  0  0  0  0  0  0  0  0
  112.3710  -78.9588  -85.5465 C   0  0  0  0  0  0  0  0  0  0  0  0
  111.7900  -77.7042  -85.3524 C   0  0  0  0  0  0  0  0  0  0  0  0
  111.9467  -77.2602  -83.9389 O   0  0  0  0  0  0  0  0  0  0  0  0
  111.4039  -76.1181  -83.7684 C   0  0  0  0  0  0  0  0  0  0  0  0
  111.6197  -75.7682  -82.3646 C   0  0  0  0  0  0  0  0  0  0  0  0
  111.0595  -74.4975  -81.9839 C   0  0  0  0  0  0  0  0  0  0  0  0
  110.3521  -73.6713  -82.8919 C   0  0  0  0  0  0  0  0  0  0  0  0
  110.1803  -74.0723  -84.2759 C   0  0  0  0  0  0  0  0  0  0  0  0
  110.7459  -75.3351  -84.6832 C   0  0  0  0  0  0  0  0  0  0  0  0
  110.5355  -75.6679  -86.1416 C   0  0  0  0  0  0  0  0  0  0  0  0
  111.1390  -76.9278  -86.3047 C   0  0  0  0  0  0  0  0  0  0  0  0
  111.0283  -77.4274  -87.6770 C   0  0  0  0  0  0  0  0  0  0  0  0
  111.6126  -78.7120  -87.9025 C   0  0  0  0  0  0  0  0  0  0  0  0
  109.8707  -74.8314  -87.0181 C   0  0  0  0  0  0  0  0  0  0  0  0
  108.7917  -75.2064  -87.8521 C   0  0  0  0  0  0  0  0  0  0  0  0
  108.0979  -74.3714  -88.7297 C   0  0  0  0  0  0  0  0  0  0  0  0
  108.4748  -72.9700  -88.8385 C   0  0  0  0  0  0  0  0  0  0  0  0
  109.5638  -72.6298  -88.0004 C   0  0  0  0  0  0  0  0  0  0  0  0
  110.2899  -73.4331  -87.1103 C   0  0  0  0  0  0  0  0  0  0  0  0
  112.7685  -80.6777  -87.2639 N   0  3  0  0  0  0  0  0  0  0  0  0
  113.4438  -81.5376  -86.2985 C   0  0  0  0  0  0  0  0  0  0  0  0
  112.7286  -81.2970  -88.6070 C   0  0  0  0  0  0  0  0  0  0  0  0
  111.3021  -74.1713  -80.6386 N   0  0  0  0  0  0  0  0  0  0  0  0
  111.9394  -74.9339  -79.5420 C   0  0  0  0  0  0  0  0  0  0  0  0
  110.8741  -72.8051  -80.1725 C   0  0  0  0  0  0  0  0  0  0  0  0
  1  2  1  0  0  0  0
  1 14  1  0  0  0  0
  1 21  2  0  0  0  0
  2  3  2  0  0  0  0
  3  4  1  0  0  0  0
  3 12  1  0  0  0  0
  4  5  1  0  0  0  0
  5  6  1  0  0  0  0
  5 10  2  0  0  0  0
  6  7  2  0  0  0  0
  7  8  1  0  0  0  0
  7 24  1  0  0  0  0
  8  9  2  0  0  0  0
  9 10  1  0  0  0  0
 10 11  1  0  0  0  0
 11 12  2  0  0  0  0
 11 15  1  0  0  0  0
 12 13  1  0  0  0  0
 13 14  2  0  0  0  0
 15 16  2  0  0  0  0
 15 20  1  0  0  0  0
 16 17  1  0  0  0  0
 17 18  2  0  0  0  0
 18 19  1  0  0  0  0
 19 20  2  0  0  0  0
 21 22  1  0  0  0  0
 21 23  1  0  0  0  0
 24 25  1  0  0  0  0
 24 26  1  0  0  0  0
M  CHG  1  21   1
M  END
>  <CHROM.1>
-4.82202743,-127.68715087,111.04773562,-76.21810088,-85.31894996,-1.24326904
-1.05214969,1.05231023

>  <Name>
1f1t Malachite green aptamer (Xray 2.8A)

>  <RI>
0

>  <Rbt.Current_Directory>
/home/itssahil/PROJECTS/Mol_Feturizer/New_Systems/rnas/1f1t

>  <Rbt.Executable>
rbdock ($Id: //depot/dev/client3/rdock/2013.1/src/exe/rbdock.cxx#4 $)

>  <Rbt.Library>
libRbt.so (2013.1, Build901 2013/11/27)

>  <Rbt.Parameter_File>
/export/apps/rDock/src/rDock_2013.1_src/data/scripts/dock_solv.prm

>  <Rbt.Receptor>
prm/pocket_docking_4.prm

>  <SCORE>
-62.1233

>  <SCORE.INTER>
-62.373

>  <SCORE.INTER.CONST>
1

>  <SCORE.INTER.POLAR>
0

>  <SCORE.INTER.ROT>
2

>  <SCORE.INTER.SOLV>
11.1187

>  <SCORE.INTER.VDW>
-50.2216

>  <SCORE.INTER.norm>
-2.39896

>  <SCORE.INTRA>
0.249743

>  <SCORE.INTRA.DIHEDRAL>
-1.10981

>  <SCORE.INTRA.DIHEDRAL.0>
4.18538

>  <SCORE.INTRA.POLAR>
0

>  <SCORE.INTRA.POLAR.0>
0

>  <SCORE.INTRA.REPUL>
0

>  <SCORE.INTRA.REPUL.0>
0

>  <SCORE.INTRA.SOLV>
0.0193737

>  <SCORE.INTRA.SOLV.lig_0>
-5.16926

>  <SCORE.INTRA.VDW>
0.79496

>  <SCORE.INTRA.VDW.0>
1.11912

>  <SCORE.INTRA.norm>
0.0096055

>  <SCORE.RESTR>
0

>  <SCORE.RESTR.CAVITY>
0

>  <SCORE.RESTR.norm>
0

>  <SCORE.SYSTEM>
0

>  <SCORE.SYSTEM.CONST>
0

>  <SCORE.SYSTEM.DIHEDRAL>
0

>  <SCORE.SYSTEM.SOLV>
0

>  <SCORE.SYSTEM.norm>
0

>  <SCORE.heavy>
26

>  <SCORE.norm>
-2.38936

>  <RMSD>
6.132

$$$$
1f1t Malachite green aptamer (Xray 2.8A)
 OpenBabel11021811393D
libRbt.so/2013.1/901 2013/11/27
 26 29  0  0  0  0  0  0  0  0999 V2000
  112.2502  -79.4457  -86.9018 C   0  0  0  0  0  0  0  0  0  0  0  0
  112.3738  -78.9603  -85.5353 C   0  0  0  0  0  0  0  0  0  0  0  0
  111.7913  -77.7058  -85.3450 C   0  0  0  0  0  0  0  0  0  0  0  0
  111.9452  -77.2584  -83.9323 O   0  0  0  0  0  0  0  0  0  0  0  0
  111.4010  -76.1165  -83.7653 C   0  0  0  0  0  0  0  0  0  0  0  0
  111.6141  -75.7632  -82.3619 C   0  0  0  0  0  0  0  0  0  0  0  0
  111.0520  -74.4922  -81.9851 C   0  0  0  0  0  0  0  0  0  0  0  0
  110.3453  -73.6687  -82.8962 C   0  0  0  0  0  0  0  0  0  0  0  0
  110.1763  -74.0730  -84.2796 C   0  0  0  0  0  0  0  0  0  0  0  0
  110.7438  -75.3362  -84.6830 C   0  0  0  0  0  0  0  0  0  0  0  0
  110.5362  -75.6725  -86.1410 C   0  0  0  0  0  0  0  0  0  0  0  0
  111.1412  -76.9322  -86.3002 C   0  0  0  0  0  0  0  0  0  0  0  0
  111.0334  -77.4350  -87.6715 C   0  0  0  0  0  0  0  0  0  0  0  0
  111.6193  -78.7196  -87.8932 C   0  0  0  0  0  0  0  0  0  0  0  0
  109.8722  -74.8386  -87.0205 C   0  0  0  0  0  0  0  0  0  0  0  0
  108.8011  -75.2189  -87.8623 C   0  0  0  0  0  0  0  0  0  0  0  0
  108.1080  -74.3866  -88.7431 C   0  0  0  0  0  0  0  0  0  0  0  0
  108.4770  -72.9828  -88.8471 C   0  0  0  0  0  0  0  0  0  0  0  0
  109.5582  -72.6373  -88.0012 C   0  0  0  0  0  0  0  0  0  0  0  0
  110.2833  -73.4376  -87.1077 C   0  0  0  0  0  0  0  0  0  0  0  0
  112.7759  -80.6827  -87.2481 N   0  3  0  0  0  0  0  0  0  0  0  0
  113.4504  -81.5398  -86.2796 C   0  0  0  0  0  0  0  0  0  0  0  0
  112.7389  -81.3051  -88.5898 C   0  0  0  0  0  0  0  0  0  0  0  0
  111.2920  -74.1627  -80.6401 N   0  0  0  0  0  0  0  0  0  0  0  0
  111.9277  -74.9225  -79.5405 C   0  0  0  0  0  0  0  0  0  0  0  0
  110.8625  -72.7956  -80.1780 C   0  0  0  0  0  0  0  0  0  0  0  0
  1  2  1  0  0  0  0
  1 14  1  0  0  0  0
  1 21  2  0  0  0  0
  2  3  2  0  0  0  0
  3  4  1  0  0  0  0
  3 12  1  0  0  0  0
  4  5  1  0  0  0  0
  5  6  1  0  0  0  0
  5 10  2  0  0  0  0
  6  7  2  0  0  0  0
  7  8  1  0  0  0  0
  7 24  1  0  0  0  0
  8  9  2  0  0  0  0
  9 10  1  0  0  0  0
 10 11  1  0  0  0  0
 11 12  2  0  0  0  0
 11 15  1  0  0  0  0
 12 13  1  0  0  0  0
 13 14  2  0  0  0  0
 15 16  2  0  0  0  0
 15 20  1  0  0  0  0
 16 17  1  0  0  0  0
 17 18  2  0  0  0  0
 18 19  1  0  0  0  0
 19 20  2  0  0  0  0
 21 22  1  0  0  0  0
 21 23  1  0  0  0  0
 24 25  1  0  0  0  0
 24 26  1  0  0  0  0
M  CHG  1  21   1
M  END
>  <CHROM.1>
-4.85263821,-128.15478391,111.04752897,-76.22036477,-85.31617441,-1.23941332
-1.05213796,1.05337119

>  <Name>
1f1t Malachite green aptamer (Xray 2.8A)

>  <RI>
0

>  <Rbt.Current_Directory>
/home/itssahil/PROJECTS/Mol_Feturizer/New_Systems/rnas/1f1t

>  <Rbt.Executable>
rbdock ($Id: //depot/dev/client3/rdock/2013.1/src/exe/rbdock.cxx#4 $)

>  <Rbt.Library>
libRbt.so (2013.1, Build901 2013/11/27)

>  <Rbt.Parameter_File>
/export/apps/rDock/src/rDock_2013.1_src/data/scripts/dock_solv.prm

>  <Rbt.Receptor>
prm/pocket_docking_4.prm

>  <SCORE>
-62.1228

>  <SCORE.INTER>
-62.3927

>  <SCORE.INTER.CONST>
1

>  <SCORE.INTER.POLAR>
0

>  <SCORE.INTER.ROT>
2

>  <SCORE.INTER.SOLV>
11.1192

>  <SCORE.INTER.VDW>
-50.2348

>  <SCORE.INTER.norm>
-2.39972

>  <SCORE.INTRA>
0.269864

>  <SCORE.INTRA.DIHEDRAL>
-1.14672

>  <SCORE.INTRA.DIHEDRAL.0>
4.18538

>  <SCORE.INTRA.POLAR>
0

>  <SCORE.INTRA.POLAR.0>
0

>  <SCORE.INTRA.REPUL>
0

>  <SCORE.INTRA.REPUL.0>
0

>  <SCORE.INTRA.SOLV>
0.0199015

>  <SCORE.INTRA.SOLV.lig_0>
-5.16926

>  <SCORE.INTRA.VDW>
0.833273

>  <SCORE.INTRA.VDW.0>
1.11912

>  <SCORE.INTRA.norm>
0.0103794

>  <SCORE.RESTR>
0

>  <SCORE.RESTR.CAVITY>
0

>  <SCORE.RESTR.norm>
0

>  <SCORE.SYSTEM>
0

>  <SCORE.SYSTEM.CONST>
0

>  <SCORE.SYSTEM.DIHEDRAL>
0

>  <SCORE.SYSTEM.SOLV>
0

>  <SCORE.SYSTEM.norm>
0

>  <SCORE.heavy>
26

>  <SCORE.norm>
-2.38934

>  <RMSD>
6.132

$$$$
1f1t Malachite green aptamer (Xray 2.8A)
 OpenBabel11021811393D
libRbt.so/2013.1/901 2013/11/27
 26 29  0  0  0  0  0  0  0  0999 V2000
  112.2374  -79.4693  -86.9373 C   0  0  0  0  0  0  0  0  0  0  0  0
  112.3622  -79.0019  -85.5646 C   0  0  0  0  0  0  0  0  0  0  0  0
  111.8024  -77.7388  -85.3633 C   0  0  0  0  0  0  0  0  0  0  0  0
  111.9564  -77.3105  -83.9447 O   0  0  0  0  0  0  0  0  0  0  0  0
  111.4330  -76.1605  -83.7677 C   0  0  0  0  0  0  0  0  0  0  0  0
  111.6444  -75.8272  -82.3591 C   0  0  0  0  0  0  0  0  0  0  0  0
  111.1043  -74.5501  -81.9709 C   0  0  0  0  0  0  0  0  0  0  0  0
  110.4187  -73.7031  -82.8765 C   0  0  0  0  0  0  0  0  0  0  0  0
  110.2501  -74.0884  -84.2653 C   0  0  0  0  0  0  0  0  0  0  0  0
  110.7960  -75.3574  -84.6800 C   0  0  0  0  0  0  0  0  0  0  0  0
  110.5906  -75.6731  -86.1429 C   0  0  0  0  0  0  0  0  0  0  0  0
  111.1727  -76.9422  -86.3132 C   0  0  0  0  0  0  0  0  0  0  0  0
  111.0634  -77.4272  -87.6908 C   0  0  0  0  0  0  0  0  0  0  0  0
  111.6262  -78.7201  -87.9238 C   0  0  0  0  0  0  0  0  0  0  0  0
  109.9477  -74.8168  -87.0166 C   0  0  0  0  0  0  0  0  0  0  0  0
  110.2327  -73.4407  -87.1761 C   0  0  0  0  0  0  0  0  0  0  0  0
  109.6059  -72.5656  -88.0651 C   0  0  0  0  0  0  0  0  0  0  0  0
  108.5519  -73.0601  -88.9383 C   0  0  0  0  0  0  0  0  0  0  0  0
  108.2833  -74.4367  -88.7462 C   0  0  0  0  0  0  0  0  0  0  0  0
  108.8824  -75.3486  -87.8663 C   0  0  0  0  0  0  0  0  0  0  0  0
  112.7417  -80.7120  -87.2948 N   0  3  0  0  0  0  0  0  0  0  0  0
  113.3942  -81.5926  -86.3324 C   0  0  0  0  0  0  0  0  0  0  0  0
  112.7008  -81.3183  -88.6438 C   0  0  0  0  0  0  0  0  0  0  0  0
  111.3426  -74.2406  -80.6209 N   0  0  0  0  0  0  0  0  0  0  0  0
  112.0002  -75.0061  -79.5384 C   0  0  0  0  0  0  0  0  0  0  0  0
  110.8839  -72.8926  -80.1313 C   0  0  0  0  0  0  0  0  0  0  0  0
  1  2  1  0  0  0  0
  1 14  1  0  0  0  0
  1 21  2  0  0  0  0
  2  3  2  0  0  0  0
  3  4  1  0  0  0  0
  3 12  1  0  0  0  0
  4  5  1  0  0  0  0
  5  6  1  0  0  0  0
  5 10  2  0  0  0  0
  6  7  2  0  0  0  0
  7  8  1  0  0  0  0
  7 24  1  0  0  0  0
  8  9  2  0  0  0  0
  9 10  1  0  0  0  0
 10 11  1  0  0  0  0
 11 12  2  0  0  0  0
 11 15  1  0  0  0  0
 12 13  1  0  0  0  0
 13 14  2  0  0  0  0
 15 16  2  0  0  0  0
 15 20  1  0  0  0  0
 16 17  1  0  0  0  0
 17 18  2  0  0  0  0
 18 19  1  0  0  0  0
 19 20  2  0  0  0  0
 21 22  1  0  0  0  0
 21 23  1  0  0  0  0
 24 25  1  0  0  0  0
 24 26  1  0  0  0  0
M  CHG  1  21   1
M  END
>  <CHROM.1>
-2.35107333,50.01219781,111.07920716,-76.25659656,-85.33250441,-1.26780657
-1.06679968,1.05485812

>  <Name>
1f1t Malachite green aptamer (Xray 2.8A)

>  <RI>
0

>  <Rbt.Current_Directory>
/home/itssahil/PROJECTS/Mol_Feturizer/New_Systems/rnas/1f1t

>  <Rbt.Executable>
rbdock ($Id: //depot/dev/client3/rdock/2013.1/src/exe/rbdock.cxx#4 $)

>  <Rbt.Library>
libRbt.so (2013.1, Build901 2013/11/27)

>  <Rbt.Parameter_File>
/export/apps/rDock/src/rDock_2013.1_src/data/scripts/dock_solv.prm

>  <Rbt.Receptor>
prm/pocket_docking_5.prm

>  <SCORE>
-62.9504

>  <SCORE.INTER>
-63.0568

>  <SCORE.INTER.CONST>
1

>  <SCORE.INTER.POLAR>
0

>  <SCORE.INTER.ROT>
2

>  <SCORE.INTER.SOLV>
11.0923

>  <SCORE.INTER.VDW>
-50.6686

>  <SCORE.INTER.norm>
-2.42526

>  <SCORE.INTRA>
0.106437

>  <SCORE.INTRA.DIHEDRAL>
-1.37011

>  <SCORE.INTRA.DIHEDRAL.0>
4.18538

>  <SCORE.INTRA.POLAR>
0

>  <SCORE.INTRA.POLAR.0>
0

>  <SCORE.INTRA.REPUL>
0

>  <SCORE.INTRA.REPUL.0>
0

>  <SCORE.INTRA.SOLV>
0.0218966

>  <SCORE.INTRA.SOLV.lig_0>
-5.16926

>  <SCORE.INTRA.VDW>
0.780546

>  <SCORE.INTRA.VDW.0>
1.11912

>  <SCORE.INTRA.norm>
0.00409375

>  <SCORE.RESTR>
0

>  <SCORE.RESTR.CAVITY>
0

>  <SCORE.RESTR.norm>
0

>  <SCORE.SYSTEM>
0

>  <SCORE.SYSTEM.CONST>
0

>  <SCORE.SYSTEM.DIHEDRAL>
0

>  <SCORE.SYSTEM.SOLV>
0

>  <SCORE.SYSTEM.norm>
0

>  <SCORE.heavy>
26

>  <SCORE.norm>
-2.42117

>  <RMSD>
6.132

$$$$
1f1t Malachite green aptamer (Xray 2.8A)
 OpenBabel11021811393D
libRbt.so/2013.1/901 2013/11/27
 26 29  0  0  0  0  0  0  0  0999 V2000
  112.2402  -79.4411  -86.8986 C   0  0  0  0  0  0  0  0  0  0  0  0
  112.3615  -78.9540  -85.5325 C   0  0  0  0  0  0  0  0  0  0  0  0
  111.7788  -77.6991  -85.3449 C   0  0  0  0  0  0  0  0  0  0  0  0
  111.9303  -77.2500  -83.9324 O   0  0  0  0  0  0  0  0  0  0  0  0
  111.3859  -76.1078  -83.7679 C   0  0  0  0  0  0  0  0  0  0  0  0
  111.5966  -75.7527  -82.3646 C   0  0  0  0  0  0  0  0  0  0  0  0
  111.0340  -74.4811  -81.9904 C   0  0  0  0  0  0  0  0  0  0  0  0
  110.3290  -73.6588  -82.9038 C   0  0  0  0  0  0  0  0  0  0  0  0
  110.1623  -74.0648  -84.2869 C   0  0  0  0  0  0  0  0  0  0  0  0
  110.7304  -75.3285  -84.6877 C   0  0  0  0  0  0  0  0  0  0  0  0
  110.5253  -75.6667  -86.1456 C   0  0  0  0  0  0  0  0  0  0  0  0
  111.1305  -76.9267  -86.3022 C   0  0  0  0  0  0  0  0  0  0  0  0
  111.0250  -77.4313  -87.6730 C   0  0  0  0  0  0  0  0  0  0  0  0
  111.6112  -78.7162  -87.8920 C   0  0  0  0  0  0  0  0  0  0  0  0
  109.8629  -74.8339  -87.0274 C   0  0  0  0  0  0  0  0  0  0  0  0
  108.7877  -75.2131  -87.8644 C   0  0  0  0  0  0  0  0  0  0  0  0
  108.0963  -74.3818  -88.7474 C   0  0  0  0  0  0  0  0  0  0  0  0
  108.4717  -72.9802  -88.8592 C   0  0  0  0  0  0  0  0  0  0  0  0
  109.5569  -72.6359  -88.0179 C   0  0  0  0  0  0  0  0  0  0  0  0
  110.2806  -73.4354  -87.1224 C   0  0  0  0  0  0  0  0  0  0  0  0
  112.7664  -80.6786  -87.2423 N   0  3  0  0  0  0  0  0  0  0  0  0
  113.4392  -81.5345  -86.2716 C   0  0  0  0  0  0  0  0  0  0  0  0
  112.7317  -81.3027  -88.5833 C   0  0  0  0  0  0  0  0  0  0  0  0
  111.2716  -74.1499  -80.6454 N   0  0  0  0  0  0  0  0  0  0  0  0
  111.9181  -74.9027  -79.5473 C   0  0  0  0  0  0  0  0  0  0  0  0
  110.8258  -72.7887  -80.1814 C   0  0  0  0  0  0  0  0  0  0  0  0
  1  2  1  0  0  0  0
  1 14  1  0  0  0  0
  1 21  2  0  0  0  0
  2  3  2  0  0  0  0
  3  4  1  0  0  0  0
  3 12  1  0  0  0  0
  4  5  1  0  0  0  0
  5  6  1  0  0  0  0
  5 10  2  0  0  0  0
  6  7  2  0  0  0  0
  7  8  1  0  0  0  0
  7 24  1  0  0  0  0
  8  9  2  0  0  0  0
  9 10  1  0  0  0  0
 10 11  1  0  0  0  0
 11 12  2  0  0  0  0
 11 15  1  0  0  0  0
 12 13  1  0  0  0  0
 13 14  2  0  0  0  0
 15 16  2  0  0  0  0
 15 20  1  0  0  0  0
 16 17  1  0  0  0  0
 17 18  2  0  0  0  0
 18 19  1  0  0  0  0
 19 20  2  0  0  0  0
 21 22  1  0  0  0  0
 21 23  1  0  0  0  0
 24 25  1  0  0  0  0
 24 26  1  0  0  0  0
M  CHG  1  21   1
M  END
>  <CHROM.1>
-4.10404068,-127.73110821,111.03508359,-76.21361766,-85.31923769,-1.23615515
-1.05290276,1.05494153

>  <Name>
1f1t Malachite green aptamer (Xray 2.8A)

>  <RI>
0

>  <Rbt.Current_Directory>
/home/itssahil/PROJECTS/Mol_Feturizer/New_Systems/rnas/1f1t

>  <Rbt.Executable>
rbdock ($Id: //depot/dev/client3/rdock/2013.1/src/exe/rbdock.cxx#4 $)

>  <Rbt.Library>
libRbt.so (2013.1, Build901 2013/11/27)

>  <Rbt.Parameter_File>
/export/apps/rDock/src/rDock_2013.1_src/data/scripts/dock_solv.prm

>  <Rbt.Receptor>
prm/pocket_docking_5.prm

>  <SCORE>
-62.0824

>  <SCORE.INTER>
-62.3295

>  <SCORE.INTER.CONST>
1

>  <SCORE.INTER.POLAR>
0

>  <SCORE.INTER.ROT>
2

>  <SCORE.INTER.SOLV>
11.131

>  <SCORE.INTER.VDW>
-50.1966

>  <SCORE.INTER.norm>
-2.39729

>  <SCORE.INTRA>
0.247024

>  <SCORE.INTRA.DIHEDRAL>
-1.13905

>  <SCORE.INTRA.DIHEDRAL.0>
4.18538

>  <SCORE.INTRA.POLAR>
0

>  <SCORE.INTRA.POLAR.0>
0

>  <SCORE.INTRA.REPUL>
0

>  <SCORE.INTRA.REPUL.0>
0

>  <SCORE.INTRA.SOLV>
0.0194287

>  <SCORE.INTRA.SOLV.lig_0>
-5.16926

>  <SCORE.INTRA.VDW>
0.806832

>  <SCORE.INTRA.VDW.0>
1.11912

>  <SCORE.INTRA.norm>
0.00950091

>  <SCORE.RESTR>
0

>  <SCORE.RESTR.CAVITY>
0

>  <SCORE.RESTR.norm>
0

>  <SCORE.SYSTEM>
0

>  <SCORE.SYSTEM.CONST>
0

>  <SCORE.SYSTEM.DIHEDRAL>
0

>  <SCORE.SYSTEM.SOLV>
0

>  <SCORE.SYSTEM.norm>
0

>  <SCORE.heavy>
26

>  <SCORE.norm>
-2.38779

>  <RMSD>
6.132

$$$$
1f1t Malachite green aptamer (Xray 2.8A)
 OpenBabel11021811393D
libRbt.so/2013.1/901 2013/11/27
 26 29  0  0  0  0  0  0  0  0999 V2000
  112.2554  -79.4409  -86.9087 C   0  0  0  0  0  0  0  0  0  0  0  0
  112.3779  -78.9584  -85.5411 C   0  0  0  0  0  0  0  0  0  0  0  0
  111.7956  -77.7040  -85.3488 C   0  0  0  0  0  0  0  0  0  0  0  0
  111.9482  -77.2596  -83.9350 O   0  0  0  0  0  0  0  0  0  0  0  0
  111.4042  -76.1179  -83.7662 C   0  0  0  0  0  0  0  0  0  0  0  0
  111.6161  -75.7675  -82.3619 C   0  0  0  0  0  0  0  0  0  0  0  0
  111.0540  -74.4970  -81.9830 C   0  0  0  0  0  0  0  0  0  0  0  0
  110.3484  -73.6716  -82.8931 C   0  0  0  0  0  0  0  0  0  0  0  0
  110.1806  -74.0730  -84.2775 C   0  0  0  0  0  0  0  0  0  0  0  0
  110.7481  -75.3355  -84.6829 C   0  0  0  0  0  0  0  0  0  0  0  0
  110.5417  -75.6688  -86.1418 C   0  0  0  0  0  0  0  0  0  0  0  0
  111.1466  -76.9283  -86.3031 C   0  0  0  0  0  0  0  0  0  0  0  0
  111.0399  -77.4283  -87.6755 C   0  0  0  0  0  0  0  0  0  0  0  0
  111.6256  -78.7126  -87.8992 C   0  0  0  0  0  0  0  0  0  0  0  0
  109.8788  -74.8329  -87.0203 C   0  0  0  0  0  0  0  0  0  0  0  0
  108.8042  -75.2096  -87.8592 C   0  0  0  0  0  0  0  0  0  0  0  0
  108.1122  -74.3753  -88.7389 C   0  0  0  0  0  0  0  0  0  0  0  0
  108.4863  -72.9730  -88.8447 C   0  0  0  0  0  0  0  0  0  0  0  0
  109.5708  -72.6310  -88.0016 C   0  0  0  0  0  0  0  0  0  0  0  0
  110.2950  -73.4336  -87.1093 C   0  0  0  0  0  0  0  0  0  0  0  0
  112.7811  -80.6773  -87.2570 N   0  3  0  0  0  0  0  0  0  0  0  0
  113.4544  -81.5366  -86.2896 C   0  0  0  0  0  0  0  0  0  0  0  0
  112.7452  -81.2970  -88.6000 C   0  0  0  0  0  0  0  0  0  0  0  0
  111.2928  -74.1704  -80.6371 N   0  0  0  0  0  0  0  0  0  0  0  0
  111.9365  -74.9285  -79.5411 C   0  0  0  0  0  0  0  0  0  0  0  0
  110.8520  -72.8087  -80.1695 C   0  0  0  0  0  0  0  0  0  0  0  0
  1  2  1  0  0  0  0
  1 14  1  0  0  0  0
  1 21  2  0  0  0  0
  2  3  2  0  0  0  0
  3  4  1  0  0  0  0
  3 12  1  0  0  0  0
  4  5  1  0  0  0  0
  5  6  1  0  0  0  0
  5 10  2  0  0  0  0
  6  7  2  0  0  0  0
  7  8  1  0  0  0  0
  7 24  1  0  0  0  0
  8  9  2  0  0  0  0
  9 10  1  0  0  0  0
 10 11  1  0  0  0  0
 11 12  2  0  0  0  0
 11 15  1  0  0  0  0
 12 13  1  0  0  0  0
 13 14  2  0  0  0  0
 15 16  2  0  0  0  0
 15 20  1  0  0  0  0
 16 17  1  0  0  0  0
 17 18  2  0  0  0  0
 18 19  1  0  0  0  0
 19 20  2  0  0  0  0
 21 22  1  0  0  0  0
 21 23  1  0  0  0  0
 24 25  1  0  0  0  0
 24 26  1  0  0  0  0
M  CHG  1  21   1
M  END
>  <CHROM.1>
-4.31208942,-127.83908783,111.05211167,-76.21848707,-85.31764679,-1.23784677
-1.05270548,1.05678372

>  <Name>
1f1t Malachite green aptamer (Xray 2.8A)

>  <RI>
0

>  <Rbt.Current_Directory>
/home/itssahil/PROJECTS/Mol_Feturizer/New_Systems/rnas/1f1t

>  <Rbt.Executable>
rbdock ($Id: //depot/dev/client3/rdock/2013.1/src/exe/rbdock.cxx#4 $)

>  <Rbt.Library>
libRbt.so (2013.1, Build901 2013/11/27)

>  <Rbt.Parameter_File>
/export/apps/rDock/src/rDock_2013.1_src/data/scripts/dock_solv.prm

>  <Rbt.Receptor>
prm/pocket_docking_6.prm

>  <SCORE>
-62.1402

>  <SCORE.INTER>
-62.393

>  <SCORE.INTER.CONST>
1

>  <SCORE.INTER.POLAR>
0

>  <SCORE.INTER.ROT>
2

>  <SCORE.INTER.SOLV>
11.1261

>  <SCORE.INTER.VDW>
-50.2374

>  <SCORE.INTER.norm>
-2.39973

>  <SCORE.INTRA>
0.252788

>  <SCORE.INTRA.DIHEDRAL>
-1.1408

>  <SCORE.INTRA.DIHEDRAL.0>
4.18538

>  <SCORE.INTRA.POLAR>
0

>  <SCORE.INTRA.POLAR.0>
0

>  <SCORE.INTRA.REPUL>
0

>  <SCORE.INTRA.REPUL.0>
0

>  <SCORE.INTRA.SOLV>
0.0195493

>  <SCORE.INTRA.SOLV.lig_0>
-5.16926

>  <SCORE.INTRA.VDW>
0.813415

>  <SCORE.INTRA.VDW.0>
1.11912

>  <SCORE.INTRA.norm>
0.00972263

>  <SCORE.RESTR>
0

>  <SCORE.RESTR.CAVITY>
0

>  <SCORE.RESTR.norm>
0

>  <SCORE.SYSTEM>
0

>  <SCORE.SYSTEM.CONST>
0

>  <SCORE.SYSTEM.DIHEDRAL>
0

>  <SCORE.SYSTEM.SOLV>
0

>  <SCORE.SYSTEM.norm>
0

>  <SCORE.heavy>
26

>  <SCORE.norm>
-2.39001

>  <RMSD>
6.132

$$$$
1f1t Malachite green aptamer (Xray 2.8A)
 OpenBabel11021811393D
libRbt.so/2013.1/901 2013/11/27
 26 29  0  0  0  0  0  0  0  0999 V2000
  112.2668  -79.4306  -86.9202 C   0  0  0  0  0  0  0  0  0  0  0  0
  112.3888  -78.9528  -85.5509 C   0  0  0  0  0  0  0  0  0  0  0  0
  111.8003  -77.7022  -85.3529 C   0  0  0  0  0  0  0  0  0  0  0  0
  111.9526  -77.2625  -83.9376 O   0  0  0  0  0  0  0  0  0  0  0  0
  111.4031  -76.1243  -83.7635 C   0  0  0  0  0  0  0  0  0  0  0  0
  111.6151  -75.7783  -82.3582 C   0  0  0  0  0  0  0  0  0  0  0  0
  111.0470  -74.5123  -81.9735 C   0  0  0  0  0  0  0  0  0  0  0  0
  110.3359  -73.6869  -82.8794 C   0  0  0  0  0  0  0  0  0  0  0  0
  110.1681  -74.0838  -84.2650 C   0  0  0  0  0  0  0  0  0  0  0  0
  110.7416  -75.3417  -84.6762 C   0  0  0  0  0  0  0  0  0  0  0  0
  110.5349  -75.6704  -86.1361 C   0  0  0  0  0  0  0  0  0  0  0  0
  111.1460  -76.9261  -86.3032 C   0  0  0  0  0  0  0  0  0  0  0  0
  111.0399  -77.4213  -87.6774 C   0  0  0  0  0  0  0  0  0  0  0  0
  111.6319  -78.7016  -87.9069 C   0  0  0  0  0  0  0  0  0  0  0  0
  109.8664  -74.8345  -87.0104 C   0  0  0  0  0  0  0  0  0  0  0  0
  108.7905  -75.2126  -87.8470 C   0  0  0  0  0  0  0  0  0  0  0  0
  108.0929  -74.3784  -88.7223 C   0  0  0  0  0  0  0  0  0  0  0  0
  108.4620  -72.9745  -88.8257 C   0  0  0  0  0  0  0  0  0  0  0  0
  109.5480  -72.6311  -87.9851 C   0  0  0  0  0  0  0  0  0  0  0  0
  110.2777  -73.4335  -87.0971 C   0  0  0  0  0  0  0  0  0  0  0  0
  112.7984  -80.6629  -87.2741 N   0  3  0  0  0  0  0  0  0  0  0  0
  113.4775  -81.5224  -86.3111 C   0  0  0  0  0  0  0  0  0  0  0  0
  112.7637  -81.2775  -88.6195 C   0  0  0  0  0  0  0  0  0  0  0  0
  111.2861  -74.1897  -80.6267 N   0  0  0  0  0  0  0  0  0  0  0  0
  111.9176  -74.9565  -79.5296 C   0  0  0  0  0  0  0  0  0  0  0  0
  110.8604  -72.8233  -80.1591 C   0  0  0  0  0  0  0  0  0  0  0  0
  1  2  1  0  0  0  0
  1 14  1  0  0  0  0
  1 21  2  0  0  0  0
  2  3  2  0  0  0  0
  3  4  1  0  0  0  0
  3 12  1  0  0  0  0
  4  5  1  0  0  0  0
  5  6  1  0  0  0  0
  5 10  2  0  0  0  0
  6  7  2  0  0  0  0
  7  8  1  0  0  0  0
  7 24  1  0  0  0  0
  8  9  2  0  0  0  0
  9 10  1  0  0  0  0
 10 11  1  0  0  0  0
 11 12  2  0  0  0  0
 11 15  1  0  0  0  0
 12 13  1  0  0  0  0
 13 14  2  0  0  0  0
 15 16  2  0  0  0  0
 15 20  1  0  0  0  0
 16 17  1  0  0  0  0
 17 18  2  0  0  0  0
 18 19  1  0  0  0  0
 19 20  2  0  0  0  0
 21 22  1  0  0  0  0
 21 23  1  0  0  0  0
 24 25  1  0  0  0  0
 24 26  1  0  0  0  0
M  CHG  1  21   1
M  END
>  <CHROM.1>
-5.33873646,-127.67681539,111.04943224,-76.22058834,-85.31490912,-1.23549458
-1.04785550,1.06273988

>  <Name>
1f1t Malachite green aptamer (Xray 2.8A)

>  <RI>
0

>  <Rbt.Current_Directory>
/home/itssahil/PROJECTS/Mol_Feturizer/New_Systems/rnas/1f1t

>  <Rbt.Executable>
rbdock ($Id: //depot/dev/client3/rdock/2013.1/src/exe/rbdock.cxx#4 $)

>  <Rbt.Library>
libRbt.so (2013.1, Build901 2013/11/27)

>  <Rbt.Parameter_File>
/export/apps/rDock/src/rDock_2013.1_src/data/scripts/dock_solv.prm

>  <Rbt.Receptor>
prm/pocket_docking_6.prm

>  <SCORE>
-62.0708

>  <SCORE.INTER>
-62.3238

>  <SCORE.INTER.CONST>
1

>  <SCORE.INTER.POLAR>
0

>  <SCORE.INTER.ROT>
2

>  <SCORE.INTER.SOLV>
11.0971

>  <SCORE.INTER.VDW>
-50.1816

>  <SCORE.INTER.norm>
-2.39707

>  <SCORE.INTRA>
0.253036

>  <SCORE.INTRA.DIHEDRAL>
-1.08805

>  <SCORE.INTRA.DIHEDRAL.0>
4.18538

>  <SCORE.INTRA.POLAR>
0

>  <SCORE.INTRA.POLAR.0>
0

>  <SCORE.INTRA.REPUL>
0

>  <SCORE.INTRA.REPUL.0>
0

>  <SCORE.INTRA.SOLV>
0.0193577

>  <SCORE.INTRA.SOLV.lig_0>
-5.16926

>  <SCORE.INTRA.VDW>
0.78738

>  <SCORE.INTRA.VDW.0>
1.11912

>  <SCORE.INTRA.norm>
0.00973215

>  <SCORE.RESTR>
0

>  <SCORE.RESTR.CAVITY>
0

>  <SCORE.RESTR.norm>
0

>  <SCORE.SYSTEM>
0

>  <SCORE.SYSTEM.CONST>
0

>  <SCORE.SYSTEM.DIHEDRAL>
0

>  <SCORE.SYSTEM.SOLV>
0

>  <SCORE.SYSTEM.norm>
0

>  <SCORE.heavy>
26

>  <SCORE.norm>
-2.38734

>  <RMSD>
6.132

$$$$
1f1t Malachite green aptamer (Xray 2.8A)
 OpenBabel11021811393D
libRbt.so/2013.1/901 2013/11/27
 26 29  0  0  0  0  0  0  0  0999 V2000
  112.2175  -79.4525  -86.8640 C   0  0  0  0  0  0  0  0  0  0  0  0
  112.3406  -78.9520  -85.5028 C   0  0  0  0  0  0  0  0  0  0  0  0
  111.7610  -77.6939  -85.3276 C   0  0  0  0  0  0  0  0  0  0  0  0
  111.9141  -77.2309  -83.9199 O   0  0  0  0  0  0  0  0  0  0  0  0
  111.3727  -76.0858  -83.7666 C   0  0  0  0  0  0  0  0  0  0  0  0
  111.5848  -75.7172  -82.3670 C   0  0  0  0  0  0  0  0  0  0  0  0
  111.0254  -74.4405  -82.0054 C   0  0  0  0  0  0  0  0  0  0  0  0
  110.3220  -73.6257  -82.9267 C   0  0  0  0  0  0  0  0  0  0  0  0
  110.1537  -74.0453  -84.3056 C   0  0  0  0  0  0  0  0  0  0  0  0
  110.7186  -75.3143  -84.6939 C   0  0  0  0  0  0  0  0  0  0  0  0
  110.5120  -75.6667  -86.1483 C   0  0  0  0  0  0  0  0  0  0  0  0
  111.1141  -76.9296  -86.2924 C   0  0  0  0  0  0  0  0  0  0  0  0
  111.0068  -77.4477  -87.6581 C   0  0  0  0  0  0  0  0  0  0  0  0
  111.5897  -78.7361  -87.8643 C   0  0  0  0  0  0  0  0  0  0  0  0
  109.8513  -74.8411  -87.0381 C   0  0  0  0  0  0  0  0  0  0  0  0
  108.7867  -75.2307  -87.8839 C   0  0  0  0  0  0  0  0  0  0  0  0
  108.0968  -74.4069  -88.7752 C   0  0  0  0  0  0  0  0  0  0  0  0
  108.4625  -73.0028  -88.8871 C   0  0  0  0  0  0  0  0  0  0  0  0
  109.5373  -72.6480  -88.0369 C   0  0  0  0  0  0  0  0  0  0  0  0
  110.2589  -73.4396  -87.1329 C   0  0  0  0  0  0  0  0  0  0  0  0
  112.7406  -80.6947  -87.1954 N   0  3  0  0  0  0  0  0  0  0  0  0
  113.4116  -81.5424  -86.2164 C   0  0  0  0  0  0  0  0  0  0  0  0
  112.7037  -81.3322  -88.5301 C   0  0  0  0  0  0  0  0  0  0  0  0
  111.2645  -74.0964  -80.6639 N   0  0  0  0  0  0  0  0  0  0  0  0
  111.8825  -74.8510  -79.5509 C   0  0  0  0  0  0  0  0  0  0  0  0
  110.8551  -72.7162  -80.2227 C   0  0  0  0  0  0  0  0  0  0  0  0
  1  2  1  0  0  0  0
  1 14  1  0  0  0  0
  1 21  2  0  0  0  0
  2  3  2  0  0  0  0
  3  4  1  0  0  0  0
  3 12  1  0  0  0  0
  4  5  1  0  0  0  0
  5  6  1  0  0  0  0
  5 10  2  0  0  0  0
  6  7  2  0  0  0  0
  7  8  1  0  0  0  0
  7 24  1  0  0  0  0
  8  9  2  0  0  0  0
  9 10  1  0  0  0  0
 10 11  1  0  0  0  0
 11 12  2  0  0  0  0
 11 15  1  0  0  0  0
 12 13  1  0  0  0  0
 13 14  2  0  0  0  0
 15 16  2  0  0  0  0
 15 20  1  0  0  0  0
 16 17  1  0  0  0  0
 17 18  2  0  0  0  0
 18 19  1  0  0  0  0
 19 20  2  0  0  0  0
 21 22  1  0  0  0  0
 21 23  1  0  0  0  0
 24 25  1  0  0  0  0
 24 26  1  0  0  0  0
M  CHG  1  21   1
M  END
>  <CHROM.1>
-5.67524850,-128.63971103,111.02096429,-76.20634709,-85.31660314,-1.23994413
-1.05518543,1.04152818

>  <Name>
1f1t Malachite green aptamer (Xray 2.8A)

>  <RI>
0

>  <Rbt.Current_Directory>
/home/itssahil/PROJECTS/Mol_Feturizer/New_Systems/rnas/1f1t

>  <Rbt.Executable>
rbdock ($Id: //depot/dev/client3/rdock/2013.1/src/exe/rbdock.cxx#4 $)

>  <Rbt.Library>
libRbt.so (2013.1, Build901 2013/11/27)

>  <Rbt.Parameter_File>
/export/apps/rDock/src/rDock_2013.1_src/data/scripts/dock_solv.prm

>  <Rbt.Receptor>
prm/pocket_docking_7.prm

>  <SCORE>
-62.0565

>  <SCORE.INTER>
-62.3543

>  <SCORE.INTER.CONST>
1

>  <SCORE.INTER.POLAR>
0

>  <SCORE.INTER.ROT>
2

>  <SCORE.INTER.SOLV>
11.1491

>  <SCORE.INTER.VDW>
-50.2192

>  <SCORE.INTER.norm>
-2.39824

>  <SCORE.INTRA>
0.297841

>  <SCORE.INTRA.DIHEDRAL>
-1.15191

>  <SCORE.INTRA.DIHEDRAL.0>
4.18538

>  <SCORE.INTRA.POLAR>
0

>  <SCORE.INTRA.POLAR.0>
0

>  <SCORE.INTRA.REPUL>
0

>  <SCORE.INTRA.REPUL.0>
0

>  <SCORE.INTRA.SOLV>
0.0204399

>  <SCORE.INTRA.SOLV.lig_0>
-5.16926

>  <SCORE.INTRA.VDW>
0.863578

>  <SCORE.INTRA.VDW.0>
1.11912

>  <SCORE.INTRA.norm>
0.0114554

>  <SCORE.RESTR>
0

>  <SCORE.RESTR.CAVITY>
0

>  <SCORE.RESTR.norm>
0

>  <SCORE.SYSTEM>
0

>  <SCORE.SYSTEM.CONST>
0

>  <SCORE.SYSTEM.DIHEDRAL>
0

>  <SCORE.SYSTEM.SOLV>
0

>  <SCORE.SYSTEM.norm>
0

>  <SCORE.heavy>
26

>  <SCORE.norm>
-2.38679

>  <RMSD>
6.132

$$$$
1f1t Malachite green aptamer (Xray 2.8A)
 OpenBabel11021811393D
libRbt.so/2013.1/901 2013/11/27
 26 29  0  0  0  0  0  0  0  0999 V2000
  112.2175  -79.4438  -86.9585 C   0  0  0  0  0  0  0  0  0  0  0  0
  112.3469  -78.9862  -85.5829 C   0  0  0  0  0  0  0  0  0  0  0  0
  111.7869  -77.7251  -85.3704 C   0  0  0  0  0  0  0  0  0  0  0  0
  111.9457  -77.3069  -83.9493 O   0  0  0  0  0  0  0  0  0  0  0  0
  111.4220  -76.1586  -83.7621 C   0  0  0  0  0  0  0  0  0  0  0  0
  111.6383  -75.8354  -82.3520 C   0  0  0  0  0  0  0  0  0  0  0  0
  111.0986  -74.5615  -81.9526 C   0  0  0  0  0  0  0  0  0  0  0  0
  110.4090  -73.7086  -82.8495 C   0  0  0  0  0  0  0  0  0  0  0  0
  110.2357  -74.0840  -84.2405 C   0  0  0  0  0  0  0  0  0  0  0  0
  110.7811  -75.3495  -84.6663 C   0  0  0  0  0  0  0  0  0  0  0  0
  110.5706  -75.6549  -86.1307 C   0  0  0  0  0  0  0  0  0  0  0  0
  111.1530  -76.9222  -86.3123 C   0  0  0  0  0  0  0  0  0  0  0  0
  111.0391  -77.3974  -87.6929 C   0  0  0  0  0  0  0  0  0  0  0  0
  111.6021  -78.6880  -87.9373 C   0  0  0  0  0  0  0  0  0  0  0  0
  109.9237  -74.7928  -86.9958 C   0  0  0  0  0  0  0  0  0  0  0  0
  110.2186  -73.4192  -87.1589 C   0  0  0  0  0  0  0  0  0  0  0  0
  109.5880  -72.5385  -88.0396 C   0  0  0  0  0  0  0  0  0  0  0  0
  108.5184  -73.0236  -88.8989 C   0  0  0  0  0  0  0  0  0  0  0  0
  108.2403  -74.3978  -88.7035 C   0  0  0  0  0  0  0  0  0  0  0  0
  108.8428  -75.3150  -87.8315 C   0  0  0  0  0  0  0  0  0  0  0  0
  112.7215  -80.6835  -87.3268 N   0  3  0  0  0  0  0  0  0  0  0  0
  113.3782  -81.5705  -86.3732 C   0  0  0  0  0  0  0  0  0  0  0  0
  112.6761  -81.2801  -88.6799 C   0  0  0  0  0  0  0  0  0  0  0  0
  111.3416  -74.2615  -80.6013 N   0  0  0  0  0  0  0  0  0  0  0  0
  112.0010  -75.0356  -79.5259 C   0  0  0  0  0  0  0  0  0  0  0  0
  110.8870  -72.9160  -80.1013 C   0  0  0  0  0  0  0  0  0  0  0  0
  1  2  1  0  0  0  0
  1 14  1  0  0  0  0
  1 21  2  0  0  0  0
  2  3  2  0  0  0  0
  3  4  1  0  0  0  0
  3 12  1  0  0  0  0
  4  5  1  0  0  0  0
  5  6  1  0  0  0  0
  5 10  2  0  0  0  0
  6  7  2  0  0  0  0
  7  8  1  0  0  0  0
  7 24  1  0  0  0  0
  8  9  2  0  0  0  0
  9 10  1  0  0  0  0
 10 11  1  0  0  0  0
 11 12  2  0  0  0  0
 11 15  1  0  0  0  0
 12 13  1  0  0  0  0
 13 14  2  0  0  0  0
 15 16  2  0  0  0  0
 15 20  1  0  0  0  0
 16 17  1  0  0  0  0
 17 18  2  0  0  0  0
 18 19  1  0  0  0  0
 19 20  2  0  0  0  0
 21 22  1  0  0  0  0
 21 23  1  0  0  0  0
 24 25  1  0  0  0  0
 24 26  1  0  0  0  0
M  CHG  1  21   1
M  END
>  <CHROM.1>
-2.51394682,50.88371894,111.06247250,-76.24374986,-85.32623205,-1.27345705
-1.06424786,1.05704616

>  <Name>
1f1t Malachite green aptamer (Xray 2.8A)

>  <RI>
0

>  <Rbt.Current_Directory>
/home/itssahil/PROJECTS/Mol_Feturizer/New_Systems/rnas/1f1t

>  <Rbt.Executable>
rbdock ($Id: //depot/dev/client3/rdock/2013.1/src/exe/rbdock.cxx#4 $)

>  <Rbt.Library>
libRbt.so (2013.1, Build901 2013/11/27)

>  <Rbt.Parameter_File>
/export/apps/rDock/src/rDock_2013.1_src/data/scripts/dock_solv.prm

>  <Rbt.Receptor>
prm/pocket_docking_7.prm

>  <SCORE>
-62.9797

>  <SCORE.INTER>
-63.0613

>  <SCORE.INTER.CONST>
1

>  <SCORE.INTER.POLAR>
0

>  <SCORE.INTER.ROT>
2

>  <SCORE.INTER.SOLV>
11.0576

>  <SCORE.INTER.VDW>
-50.66

>  <SCORE.INTER.norm>
-2.42543

>  <SCORE.INTRA>
0.0816002

>  <SCORE.INTRA.DIHEDRAL>
-1.295

>  <SCORE.INTRA.DIHEDRAL.0>
4.18538

>  <SCORE.INTRA.POLAR>
0

>  <SCORE.INTRA.POLAR.0>
0

>  <SCORE.INTRA.REPUL>
0

>  <SCORE.INTRA.REPUL.0>
0

>  <SCORE.INTRA.SOLV>
0.0209347

>  <SCORE.INTRA.SOLV.lig_0>
-5.16926

>  <SCORE.INTRA.VDW>
0.718633

>  <SCORE.INTRA.VDW.0>
1.11912

>  <SCORE.INTRA.norm>
0.00313847

>  <SCORE.RESTR>
0

>  <SCORE.RESTR.CAVITY>
0

>  <SCORE.RESTR.norm>
0

>  <SCORE.SYSTEM>
0

>  <SCORE.SYSTEM.CONST>
0

>  <SCORE.SYSTEM.DIHEDRAL>
0

>  <SCORE.SYSTEM.SOLV>
0

>  <SCORE.SYSTEM.norm>
0

>  <SCORE.heavy>
26

>  <SCORE.norm>
-2.4223

>  <RMSD>
6.132

$$$$
1f1t Malachite green aptamer (Xray 2.8A)
 OpenBabel11021811393D
libRbt.so/2013.1/901 2013/11/27
 26 29  0  0  0  0  0  0  0  0999 V2000
  112.2169  -79.4597  -86.9176 C   0  0  0  0  0  0  0  0  0  0  0  0
  112.3494  -78.9746  -85.5518 C   0  0  0  0  0  0  0  0  0  0  0  0
  111.7749  -77.7167  -85.3594 C   0  0  0  0  0  0  0  0  0  0  0  0
  111.9377  -77.2697  -83.9476 O   0  0  0  0  0  0  0  0  0  0  0  0
  111.4008  -76.1246  -83.7786 C   0  0  0  0  0  0  0  0  0  0  0  0
  111.6221  -75.7721  -82.3763 C   0  0  0  0  0  0  0  0  0  0  0  0
  111.0690  -74.4977  -81.9974 C   0  0  0  0  0  0  0  0  0  0  0  0
  110.3629  -73.6706  -82.9057 C   0  0  0  0  0  0  0  0  0  0  0  0
  110.1853  -74.0744  -84.2881 C   0  0  0  0  0  0  0  0  0  0  0  0
  110.7439  -75.3409  -84.6936 C   0  0  0  0  0  0  0  0  0  0  0  0
  110.5278  -75.6766  -86.1505 C   0  0  0  0  0  0  0  0  0  0  0  0
  111.1249  -76.9397  -86.3120 C   0  0  0  0  0  0  0  0  0  0  0  0
  111.0081  -77.4424  -87.6826 C   0  0  0  0  0  0  0  0  0  0  0  0
  111.5857  -78.7304  -87.9064 C   0  0  0  0  0  0  0  0  0  0  0  0
  109.8645  -74.8392  -87.0274 C   0  0  0  0  0  0  0  0  0  0  0  0
  108.7918  -75.2153  -87.8689 C   0  0  0  0  0  0  0  0  0  0  0  0
  108.0995  -74.3796  -88.7470 C   0  0  0  0  0  0  0  0  0  0  0  0
  108.4713  -72.9762  -88.8481 C   0  0  0  0  0  0  0  0  0  0  0  0
  109.5541  -72.6350  -88.0026 C   0  0  0  0  0  0  0  0  0  0  0  0
  110.2785  -73.4389  -87.1116 C   0  0  0  0  0  0  0  0  0  0  0  0
  112.7340  -80.6998  -87.2657 N   0  3  0  0  0  0  0  0  0  0  0  0
  113.4080  -81.5603  -86.3000 C   0  0  0  0  0  0  0  0  0  0  0  0
  112.6874  -81.3225  -88.6071 C   0  0  0  0  0  0  0  0  0  0  0  0
  111.3169  -74.1691  -80.6536 N   0  0  0  0  0  0  0  0  0  0  0  0
  111.9651  -74.9269  -79.5601 C   0  0  0  0  0  0  0  0  0  0  0  0
  110.8827  -72.8054  -80.1860 C   0  0  0  0  0  0  0  0  0  0  0  0
  1  2  1  0  0  0  0
  1 14  1  0  0  0  0
  1 21  2  0  0  0  0
  2  3  2  0  0  0  0
  3  4  1  0  0  0  0
  3 12  1  0  0  0  0
  4  5  1  0  0  0  0
  5  6  1  0  0  0  0
  5 10  2  0  0  0  0
  6  7  2  0  0  0  0
  7  8  1  0  0  0  0
  7 24  1  0  0  0  0
  8  9  2  0  0  0  0
  9 10  1  0  0  0  0
 10 11  1  0  0  0  0
 11 12  2  0  0  0  0
 11 15  1  0  0  0  0
 12 13  1  0  0  0  0
 13 14  2  0  0  0  0
 15 16  2  0  0  0  0
 15 20  1  0  0  0  0
 16 17  1  0  0  0  0
 17 18  2  0  0  0  0
 18 19  1  0  0  0  0
 19 20  2  0  0  0  0
 21 22  1  0  0  0  0
 21 23  1  0  0  0  0
 24 25  1  0  0  0  0
 24 26  1  0  0  0  0
M  CHG  1  21   1
M  END
>  <CHROM.1>
-4.15599930,-128.47964954,111.03953788,-76.22705663,-85.32771240,-1.25289686
-1.05456990,1.04128246

>  <Name>
1f1t Malachite green aptamer (Xray 2.8A)

>  <RI>
0

>  <Rbt.Current_Directory>
/home/itssahil/PROJECTS/Mol_Feturizer/New_Systems/rnas/1f1t

>  <Rbt.Executable>
rbdock ($Id: //depot/dev/client3/rdock/2013.1/src/exe/rbdock.cxx#4 $)

>  <Rbt.Library>
libRbt.so (2013.1, Build901 2013/11/27)

>  <Rbt.Parameter_File>
/export/apps/rDock/src/rDock_2013.1_src/data/scripts/dock_solv.prm

>  <Rbt.Receptor>
prm/pocket_docking_7.prm

>  <SCORE>
-62.0853

>  <SCORE.INTER>
-62.3652

>  <SCORE.INTER.CONST>
1

>  <SCORE.INTER.POLAR>
0

>  <SCORE.INTER.ROT>
2

>  <SCORE.INTER.SOLV>
11.1088

>  <SCORE.INTER.VDW>
-50.213

>  <SCORE.INTER.norm>
-2.39866

>  <SCORE.INTRA>
0.27991

>  <SCORE.INTRA.DIHEDRAL>
-1.19839

>  <SCORE.INTRA.DIHEDRAL.0>
4.18538

>  <SCORE.INTRA.POLAR>
0

>  <SCORE.INTRA.POLAR.0>
0

>  <SCORE.INTRA.REPUL>
0

>  <SCORE.INTRA.REPUL.0>
0

>  <SCORE.INTRA.SOLV>
0.0202723

>  <SCORE.INTRA.SOLV.lig_0>
-5.16926

>  <SCORE.INTRA.VDW>
0.868969

>  <SCORE.INTRA.VDW.0>
1.11912

>  <SCORE.INTRA.norm>
0.0107658

>  <SCORE.RESTR>
0

>  <SCORE.RESTR.CAVITY>
0

>  <SCORE.RESTR.norm>
0

>  <SCORE.SYSTEM>
0

>  <SCORE.SYSTEM.CONST>
0

>  <SCORE.SYSTEM.DIHEDRAL>
0

>  <SCORE.SYSTEM.SOLV>
0

>  <SCORE.SYSTEM.norm>
0

>  <SCORE.heavy>
26

>  <SCORE.norm>
-2.3879

>  <RMSD>
6.132

$$$$
1f1t Malachite green aptamer (Xray 2.8A)
 OpenBabel11021811393D
libRbt.so/2013.1/901 2013/11/27
 26 29  0  0  0  0  0  0  0  0999 V2000
  112.2511  -79.4433  -86.9060 C   0  0  0  0  0  0  0  0  0  0  0  0
  112.3751  -78.9596  -85.5389 C   0  0  0  0  0  0  0  0  0  0  0  0
  111.7929  -77.7052  -85.3470 C   0  0  0  0  0  0  0  0  0  0  0  0
  111.9472  -77.2596  -83.9338 O   0  0  0  0  0  0  0  0  0  0  0  0
  111.4033  -76.1178  -83.7653 C   0  0  0  0  0  0  0  0  0  0  0  0
  111.6167  -75.7662  -82.3615 C   0  0  0  0  0  0  0  0  0  0  0  0
  111.0550  -74.4955  -81.9830 C   0  0  0  0  0  0  0  0  0  0  0  0
  110.3482  -73.6708  -82.8929 C   0  0  0  0  0  0  0  0  0  0  0  0
  110.1788  -74.0734  -84.2767 C   0  0  0  0  0  0  0  0  0  0  0  0
  110.7460  -75.3362  -84.6818 C   0  0  0  0  0  0  0  0  0  0  0  0
  110.5379  -75.6707  -86.1402 C   0  0  0  0  0  0  0  0  0  0  0  0
  111.1427  -76.9303  -86.3011 C   0  0  0  0  0  0  0  0  0  0  0  0
  111.0344  -77.4315  -87.6730 C   0  0  0  0  0  0  0  0  0  0  0  0
  111.6200  -78.7158  -87.8963 C   0  0  0  0  0  0  0  0  0  0  0  0
  109.8738  -74.8356  -87.0186 C   0  0  0  0  0  0  0  0  0  0  0  0
  108.7929  -75.2111  -87.8499 C   0  0  0  0  0  0  0  0  0  0  0  0
  108.0997  -74.3774  -88.7293 C   0  0  0  0  0  0  0  0  0  0  0  0
  108.4795  -72.9772  -88.8432 C   0  0  0  0  0  0  0  0  0  0  0  0
  109.5703  -72.6366  -88.0076 C   0  0  0  0  0  0  0  0  0  0  0  0
  110.2959  -73.4386  -87.1159 C   0  0  0  0  0  0  0  0  0  0  0  0
  112.7765  -80.6799  -87.2539 N   0  3  0  0  0  0  0  0  0  0  0  0
  113.4511  -81.5383  -86.2867 C   0  0  0  0  0  0  0  0  0  0  0  0
  112.7390  -81.3007  -88.5964 C   0  0  0  0  0  0  0  0  0  0  0  0
  111.2954  -74.1677  -80.6376 N   0  0  0  0  0  0  0  0  0  0  0  0
  111.9450  -74.9229  -79.5431 C   0  0  0  0  0  0  0  0  0  0  0  0
  110.8493  -72.8081  -80.1690 C   0  0  0  0  0  0  0  0  0  0  0  0
  1  2  1  0  0  0  0
  1 14  1  0  0  0  0
  1 21  2  0  0  0  0
  2  3  2  0  0  0  0
  3  4  1  0  0  0  0
  3 12  1  0  0  0  0
  4  5  1  0  0  0  0
  5  6  1  0  0  0  0
  5 10  2  0  0  0  0
  6  7  2  0  0  0  0
  7  8  1  0  0  0  0
  7 24  1  0  0  0  0
  8  9  2  0  0  0  0
  9 10  1  0  0  0  0
 10 11  1  0  0  0  0
 11 12  2  0  0  0  0
 11 15  1  0  0  0  0
 12 13  1  0  0  0  0
 13 14  2  0  0  0  0
 15 16  2  0  0  0  0
 15 20  1  0  0  0  0
 16 17  1  0  0  0  0
 17 18  2  0  0  0  0
 18 19  1  0  0  0  0
 19 20  2  0  0  0  0
 21 22  1  0  0  0  0
 21 23  1  0  0  0  0
 24 25  1  0  0  0  0
 24 26  1  0  0  0  0
M  CHG  1  21   1
M  END
>  <CHROM.1>
-4.04252665,-127.42291647,111.04934147,-76.21969645,-85.31620806,-1.23967073
-1.05198048,1.05440584

>  <Name>
1f1t Malachite green aptamer (Xray 2.8A)

>  <RI>
0

>  <Rbt.Current_Directory>
/home/itssahil/PROJECTS/Mol_Feturizer/New_Systems/rnas/1f1t

>  <Rbt.Executable>
rbdock ($Id: //depot/dev/client3/rdock/2013.1/src/exe/rbdock.cxx#4 $)

>  <Rbt.Library>
libRbt.so (2013.1, Build901 2013/11/27)

>  <Rbt.Parameter_File>
/export/apps/rDock/src/rDock_2013.1_src/data/scripts/dock_solv.prm

>  <Rbt.Receptor>
prm/pocket_docking_7.prm

>  <SCORE>
-62.1217

>  <SCORE.INTER>
-62.3558

>  <SCORE.INTER.CONST>
1

>  <SCORE.INTER.POLAR>
0

>  <SCORE.INTER.ROT>
2

>  <SCORE.INTER.SOLV>
11.121

>  <SCORE.INTER.VDW>
-50.2108

>  <SCORE.INTER.norm>
-2.3983

>  <SCORE.INTRA>
0.23408

>  <SCORE.INTRA.DIHEDRAL>
-1.11603

>  <SCORE.INTRA.DIHEDRAL.0>
4.18538

>  <SCORE.INTRA.POLAR>
0

>  <SCORE.INTRA.POLAR.0>
0

>  <SCORE.INTRA.REPUL>
0

>  <SCORE.INTRA.REPUL.0>
0

>  <SCORE.INTRA.SOLV>
0.0190802

>  <SCORE.INTRA.SOLV.lig_0>
-5.16926

>  <SCORE.INTRA.VDW>
0.782554

>  <SCORE.INTRA.VDW.0>
1.11912

>  <SCORE.INTRA.norm>
0.00900309

>  <SCORE.RESTR>
0

>  <SCORE.RESTR.CAVITY>
0

>  <SCORE.RESTR.norm>
0

>  <SCORE.SYSTEM>
0

>  <SCORE.SYSTEM.CONST>
0

>  <SCORE.SYSTEM.DIHEDRAL>
0

>  <SCORE.SYSTEM.SOLV>
0

>  <SCORE.SYSTEM.norm>
0

>  <SCORE.heavy>
26

>  <SCORE.norm>
-2.3893

>  <RMSD>
6.132

$$$$
1f1t Malachite green aptamer (Xray 2.8A)
 OpenBabel11021811393D
libRbt.so/2013.1/901 2013/11/27
 26 29  0  0  0  0  0  0  0  0999 V2000
  112.2376  -79.4401  -86.8963 C   0  0  0  0  0  0  0  0  0  0  0  0
  112.3619  -78.9510  -85.5311 C   0  0  0  0  0  0  0  0  0  0  0  0
  111.7775  -77.6970  -85.3435 C   0  0  0  0  0  0  0  0  0  0  0  0
  111.9322  -77.2457  -83.9321 O   0  0  0  0  0  0  0  0  0  0  0  0
  111.3863  -76.1043  -83.7674 C   0  0  0  0  0  0  0  0  0  0  0  0
  111.6003  -75.7470  -82.3652 C   0  0  0  0  0  0  0  0  0  0  0  0
  111.0365  -74.4759  -81.9910 C   0  0  0  0  0  0  0  0  0  0  0  0
  110.3275  -73.6560  -82.9035 C   0  0  0  0  0  0  0  0  0  0  0  0
  110.1576  -74.0642  -84.2856 C   0  0  0  0  0  0  0  0  0  0  0  0
  110.7268  -75.3274  -84.6864 C   0  0  0  0  0  0  0  0  0  0  0  0
  110.5182  -75.6678  -86.1433 C   0  0  0  0  0  0  0  0  0  0  0  0
  111.1251  -76.9269  -86.2999 C   0  0  0  0  0  0  0  0  0  0  0  0
  111.0167  -77.4335  -87.6698 C   0  0  0  0  0  0  0  0  0  0  0  0
  111.6044  -78.7176  -87.8888 C   0  0  0  0  0  0  0  0  0  0  0  0
  109.8518  -74.8373  -87.0243 C   0  0  0  0  0  0  0  0  0  0  0  0
  108.7842  -75.2229  -87.8680 C   0  0  0  0  0  0  0  0  0  0  0  0
  108.0888  -74.3942  -88.7504 C   0  0  0  0  0  0  0  0  0  0  0  0
  108.4512  -72.9886  -88.8539 C   0  0  0  0  0  0  0  0  0  0  0  0
  109.5291  -72.6377  -88.0060 C   0  0  0  0  0  0  0  0  0  0  0  0
  110.2563  -73.4344  -87.1108 C   0  0  0  0  0  0  0  0  0  0  0  0
  112.7650  -80.6771  -87.2399 N   0  3  0  0  0  0  0  0  0  0  0  0
  113.4420  -81.5306  -86.2700 C   0  0  0  0  0  0  0  0  0  0  0  0
  112.7276  -81.3031  -88.5800 C   0  0  0  0  0  0  0  0  0  0  0  0
  111.2774  -74.1426  -80.6471 N   0  0  0  0  0  0  0  0  0  0  0  0
  111.9080  -74.9016  -79.5442 C   0  0  0  0  0  0  0  0  0  0  0  0
  110.8552  -72.7713  -80.1906 C   0  0  0  0  0  0  0  0  0  0  0  0
  1  2  1  0  0  0  0
  1 14  1  0  0  0  0
  1 21  2  0  0  0  0
  2  3  2  0  0  0  0
  3  4  1  0  0  0  0
  3 12  1  0  0  0  0
  4  5  1  0  0  0  0
  5  6  1  0  0  0  0
  5 10  2  0  0  0  0
  6  7  2  0  0  0  0
  7  8  1  0  0  0  0
  7 24  1  0  0  0  0
  8  9  2  0  0  0  0
  9 10  1  0  0  0  0
 10 11  1  0  0  0  0
 11 12  2  0  0  0  0
 11 15  1  0  0  0  0
 12 13  1  0  0  0  0
 13 14  2  0  0  0  0
 15 16  2  0  0  0  0
 15 20  1  0  0  0  0
 16 17  1  0  0  0  0
 17 18  2  0  0  0  0
 18 19  1  0  0  0  0
 19 20  2  0  0  0  0
 21 22  1  0  0  0  0
 21 23  1  0  0  0  0
 24 25  1  0  0  0  0
 24 26  1  0  0  0  0
M  CHG  1  21   1
M  END
>  <CHROM.1>
-5.28510578,-128.44143076,111.03132337,-76.21268185,-85.31760725,-1.23979666
-1.05026994,1.05044626

>  <Name>
1f1t Malachite green aptamer (Xray 2.8A)

>  <RI>
0

>  <Rbt.Current_Directory>
/home/itssahil/PROJECTS/Mol_Feturizer/New_Systems/rnas/1f1t

>  <Rbt.Executable>
rbdock ($Id: //depot/dev/client3/rdock/2013.1/src/exe/rbdock.cxx#4 $)

>  <Rbt.Library>
libRbt.so (2013.1, Build901 2013/11/27)

>  <Rbt.Parameter_File>
/export/apps/rDock/src/rDock_2013.1_src/data/scripts/dock_solv.prm

>  <Rbt.Receptor>
prm/pocket_docking_8.prm

>  <SCORE>
-62.1047

>  <SCORE.INTER>
-62.3904

>  <SCORE.INTER.CONST>
1

>  <SCORE.INTER.POLAR>
0

>  <SCORE.INTER.ROT>
2

>  <SCORE.INTER.SOLV>
11.1214

>  <SCORE.INTER.VDW>
-50.2341

>  <SCORE.INTER.norm>
-2.39963

>  <SCORE.INTRA>
0.285732

>  <SCORE.INTRA.DIHEDRAL>
-1.15267

>  <SCORE.INTRA.DIHEDRAL.0>
4.18538

>  <SCORE.INTRA.POLAR>
0

>  <SCORE.INTRA.POLAR.0>
0

>  <SCORE.INTRA.REPUL>
0

>  <SCORE.INTRA.REPUL.0>
0

>  <SCORE.INTRA.SOLV>
0.0202206

>  <SCORE.INTRA.SOLV.lig_0>
-5.16926

>  <SCORE.INTRA.VDW>
0.851957

>  <SCORE.INTRA.VDW.0>
1.11912

>  <SCORE.INTRA.norm>
0.0109897

>  <SCORE.RESTR>
0

>  <SCORE.RESTR.CAVITY>
0

>  <SCORE.RESTR.norm>
0

>  <SCORE.SYSTEM>
0

>  <SCORE.SYSTEM.CONST>
0

>  <SCORE.SYSTEM.DIHEDRAL>
0

>  <SCORE.SYSTEM.SOLV>
0

>  <SCORE.SYSTEM.norm>
0

>  <SCORE.heavy>
26

>  <SCORE.norm>
-2.38864

>  <RMSD>
6.132

$$$$
1f1t Malachite green aptamer (Xray 2.8A)
 OpenBabel11021811393D
libRbt.so/2013.1/901 2013/11/27
 26 29  0  0  0  0  0  0  0  0999 V2000
  112.2305  -79.4523  -86.9174 C   0  0  0  0  0  0  0  0  0  0  0  0
  112.3548  -78.9700  -85.5498 C   0  0  0  0  0  0  0  0  0  0  0  0
  111.7779  -77.7132  -85.3578 C   0  0  0  0  0  0  0  0  0  0  0  0
  111.9322  -77.2692  -83.9441 O   0  0  0  0  0  0  0  0  0  0  0  0
  111.3932  -76.1251  -83.7755 C   0  0  0  0  0  0  0  0  0  0  0  0
  111.6063  -75.7755  -82.3712 C   0  0  0  0  0  0  0  0  0  0  0  0
  111.0496  -74.5025  -81.9926 C   0  0  0  0  0  0  0  0  0  0  0  0
  110.3478  -73.6741  -82.9030 C   0  0  0  0  0  0  0  0  0  0  0  0
  110.1785  -74.0750  -84.2873 C   0  0  0  0  0  0  0  0  0  0  0  0
  110.7406  -75.3400  -84.6924 C   0  0  0  0  0  0  0  0  0  0  0  0
  110.5331  -75.6726  -86.1513 C   0  0  0  0  0  0  0  0  0  0  0  0
  111.1325  -76.9348  -86.3123 C   0  0  0  0  0  0  0  0  0  0  0  0
  111.0238  -77.4345  -87.6847 C   0  0  0  0  0  0  0  0  0  0  0  0
  111.6040  -78.7213  -87.9081 C   0  0  0  0  0  0  0  0  0  0  0  0
  109.8739  -74.8340  -87.0300 C   0  0  0  0  0  0  0  0  0  0  0  0
  108.7748  -75.1968  -87.8429 C   0  0  0  0  0  0  0  0  0  0  0  0
  108.0865  -74.3591  -88.7223 C   0  0  0  0  0  0  0  0  0  0  0  0
  108.4922  -72.9680  -88.8565 C   0  0  0  0  0  0  0  0  0  0  0  0
  109.6006  -72.6401  -88.0392 C   0  0  0  0  0  0  0  0  0  0  0  0
  110.3220  -73.4467  -87.1482 C   0  0  0  0  0  0  0  0  0  0  0  0
  112.7508  -80.6910  -87.2654 N   0  3  0  0  0  0  0  0  0  0  0  0
  113.4203  -81.5530  -86.2978 C   0  0  0  0  0  0  0  0  0  0  0  0
  112.7125  -81.3107  -88.6084 C   0  0  0  0  0  0  0  0  0  0  0  0
  111.2896  -74.1767  -80.6467 N   0  0  0  0  0  0  0  0  0  0  0  0
  111.9338  -74.9358  -79.5516 C   0  0  0  0  0  0  0  0  0  0  0  0
  110.8498  -72.8152  -80.1780 C   0  0  0  0  0  0  0  0  0  0  0  0
  1  2  1  0  0  0  0
  1 14  1  0  0  0  0
  1 21  2  0  0  0  0
  2  3  2  0  0  0  0
  3  4  1  0  0  0  0
  3 12  1  0  0  0  0
  4  5  1  0  0  0  0
  5  6  1  0  0  0  0
  5 10  2  0  0  0  0
  6  7  2  0  0  0  0
  7  8  1  0  0  0  0
  7 24  1  0  0  0  0
  8  9  2  0  0  0  0
  9 10  1  0  0  0  0
 10 11  1  0  0  0  0
 11 12  2  0  0  0  0
 11 15  1  0  0  0  0
 12 13  1  0  0  0  0
 13 14  2  0  0  0  0
 15 16  2  0  0  0  0
 15 20  1  0  0  0  0
 16 17  1  0  0  0  0
 17 18  2  0  0  0  0
 18 19  1  0  0  0  0
 19 20  2  0  0  0  0
 21 22  1  0  0  0  0
 21 23  1  0  0  0  0
 24 25  1  0  0  0  0
 24 26  1  0  0  0  0
M  CHG  1  21   1
M  END
>  <CHROM.1>
-4.08149009,-126.04100205,111.04110779,-76.22442699,-85.32717981,-1.24142472
-1.05663085,1.05362845

>  <Name>
1f1t Malachite green aptamer (Xray 2.8A)

>  <RI>
0

>  <Rbt.Current_Directory>
/home/itssahil/PROJECTS/Mol_Feturizer/New_Systems/rnas/1f1t

>  <Rbt.Executable>
rbdock ($Id: //depot/dev/client3/rdock/2013.1/src/exe/rbdock.cxx#4 $)

>  <Rbt.Library>
libRbt.so (2013.1, Build901 2013/11/27)

>  <Rbt.Parameter_File>
/export/apps/rDock/src/rDock_2013.1_src/data/scripts/dock_solv.prm

>  <Rbt.Receptor>
prm/pocket_docking_8.prm

>  <SCORE>
-62.0335

>  <SCORE.INTER>
-62.217

>  <SCORE.INTER.CONST>
1

>  <SCORE.INTER.POLAR>
0

>  <SCORE.INTER.ROT>
2

>  <SCORE.INTER.SOLV>
11.1217

>  <SCORE.INTER.VDW>
-50.1186

>  <SCORE.INTER.norm>
-2.39296

>  <SCORE.INTRA>
0.183503

>  <SCORE.INTRA.DIHEDRAL>
-1.00341

>  <SCORE.INTRA.DIHEDRAL.0>
4.18538

>  <SCORE.INTRA.POLAR>
0

>  <SCORE.INTRA.POLAR.0>
0

>  <SCORE.INTRA.REPUL>
0

>  <SCORE.INTRA.REPUL.0>
0

>  <SCORE.INTRA.SOLV>
0.0175049

>  <SCORE.INTRA.SOLV.lig_0>
-5.16926

>  <SCORE.INTRA.VDW>
0.676454

>  <SCORE.INTRA.VDW.0>
1.11912

>  <SCORE.INTRA.norm>
0.00705781

>  <SCORE.RESTR>
0

>  <SCORE.RESTR.CAVITY>
0

>  <SCORE.RESTR.norm>
0

>  <SCORE.SYSTEM>
0

>  <SCORE.SYSTEM.CONST>
0

>  <SCORE.SYSTEM.DIHEDRAL>
0

>  <SCORE.SYSTEM.SOLV>
0

>  <SCORE.SYSTEM.norm>
0

>  <SCORE.heavy>
26

>  <SCORE.norm>
-2.38591

>  <RMSD>
6.132

$$$$
1f1t Malachite green aptamer (Xray 2.8A)
 OpenBabel11021811393D
libRbt.so/2013.1/901 2013/11/27
 26 29  0  0  0  0  0  0  0  0999 V2000
  112.2311  -79.4515  -86.9068 C   0  0  0  0  0  0  0  0  0  0  0  0
  112.3597  -78.9635  -85.5417 C   0  0  0  0  0  0  0  0  0  0  0  0
  111.7803  -77.7073  -85.3524 C   0  0  0  0  0  0  0  0  0  0  0  0
  111.9392  -77.2573  -83.9411 O   0  0  0  0  0  0  0  0  0  0  0  0
  111.3979  -76.1139  -83.7749 C   0  0  0  0  0  0  0  0  0  0  0  0
  111.6157  -75.7581  -82.3729 C   0  0  0  0  0  0  0  0  0  0  0  0
  111.0574  -74.4851  -81.9971 C   0  0  0  0  0  0  0  0  0  0  0  0
  110.3498  -73.6621  -82.9079 C   0  0  0  0  0  0  0  0  0  0  0  0
  110.1759  -74.0690  -84.2900 C   0  0  0  0  0  0  0  0  0  0  0  0
  110.7396  -75.3341  -84.6923 C   0  0  0  0  0  0  0  0  0  0  0  0
  110.5271  -75.6731  -86.1490 C   0  0  0  0  0  0  0  0  0  0  0  0
  111.1291  -76.9344  -86.3074 C   0  0  0  0  0  0  0  0  0  0  0  0
  111.0163  -77.4399  -87.6773 C   0  0  0  0  0  0  0  0  0  0  0  0
  111.5988  -78.7261  -87.8979 C   0  0  0  0  0  0  0  0  0  0  0  0
  109.8623  -74.8397  -87.0284 C   0  0  0  0  0  0  0  0  0  0  0  0
  108.7723  -75.2133  -87.8486 C   0  0  0  0  0  0  0  0  0  0  0  0
  108.0784  -74.3811  -88.7288 C   0  0  0  0  0  0  0  0  0  0  0  0
  108.4674  -72.9846  -88.8560 C   0  0  0  0  0  0  0  0  0  0  0  0
  109.5671  -72.6458  -88.0314 C   0  0  0  0  0  0  0  0  0  0  0  0
  110.2937  -73.4465  -87.1393 C   0  0  0  0  0  0  0  0  0  0  0  0
  112.7532  -80.6903  -87.2520 N   0  3  0  0  0  0  0  0  0  0  0  0
  113.4287  -81.5467  -86.2837 C   0  0  0  0  0  0  0  0  0  0  0  0
  112.7111  -81.3154  -88.5923 C   0  0  0  0  0  0  0  0  0  0  0  0
  111.3019  -74.1533  -80.6535 N   0  0  0  0  0  0  0  0  0  0  0  0
  111.9577  -74.9040  -79.5595 C   0  0  0  0  0  0  0  0  0  0  0  0
  110.8540  -72.7937  -80.1866 C   0  0  0  0  0  0  0  0  0  0  0  0
  1  2  1  0  0  0  0
  1 14  1  0  0  0  0
  1 21  2  0  0  0  0
  2  3  2  0  0  0  0
  3  4  1  0  0  0  0
  3 12  1  0  0  0  0
  4  5  1  0  0  0  0
  5  6  1  0  0  0  0
  5 10  2  0  0  0  0
  6  7  2  0  0  0  0
  7  8  1  0  0  0  0
  7 24  1  0  0  0  0
  8  9  2  0  0  0  0
  9 10  1  0  0  0  0
 10 11  1  0  0  0  0
 11 12  2  0  0  0  0
 11 15  1  0  0  0  0
 12 13  1  0  0  0  0
 13 14  2  0  0  0  0
 15 16  2  0  0  0  0
 15 20  1  0  0  0  0
 16 17  1  0  0  0  0
 17 18  2  0  0  0  0
 18 19  1  0  0  0  0
 19 20  2  0  0  0  0
 21 22  1  0  0  0  0
 21 23  1  0  0  0  0
 24 25  1  0  0  0  0
 24 26  1  0  0  0  0
M  CHG  1  21   1
M  END
>  <CHROM.1>
-3.77026801,-126.93940479,111.03969593,-76.22035477,-85.32462111,-1.24601166
-1.05227348,1.04560591

>  <Name>
1f1t Malachite green aptamer (Xray 2.8A)

>  <RI>
0

>  <Rbt.Current_Directory>
/home/itssahil/PROJECTS/Mol_Feturizer/New_Systems/rnas/1f1t

>  <Rbt.Executable>
rbdock ($Id: //depot/dev/client3/rdock/2013.1/src/exe/rbdock.cxx#4 $)

>  <Rbt.Library>
libRbt.so (2013.1, Build901 2013/11/27)

>  <Rbt.Parameter_File>
/export/apps/rDock/src/rDock_2013.1_src/data/scripts/dock_solv.prm

>  <Rbt.Receptor>
prm/pocket_docking_8.prm

>  <SCORE>
-62.072

>  <SCORE.INTER>
-62.2858

>  <SCORE.INTER.CONST>
1

>  <SCORE.INTER.POLAR>
0

>  <SCORE.INTER.ROT>
2

>  <SCORE.INTER.SOLV>
11.1267

>  <SCORE.INTER.VDW>
-50.1661

>  <SCORE.INTER.norm>
-2.39561

>  <SCORE.INTRA>
0.213764

>  <SCORE.INTRA.DIHEDRAL>
-1.08546

>  <SCORE.INTRA.DIHEDRAL.0>
4.18538

>  <SCORE.INTRA.POLAR>
0

>  <SCORE.INTRA.POLAR.0>
0

>  <SCORE.INTRA.REPUL>
0

>  <SCORE.INTRA.REPUL.0>
0

>  <SCORE.INTRA.SOLV>
0.0185328

>  <SCORE.INTRA.SOLV.lig_0>
-5.16926

>  <SCORE.INTRA.VDW>
0.747228

>  <SCORE.INTRA.VDW.0>
1.11912

>  <SCORE.INTRA.norm>
0.0082217

>  <SCORE.RESTR>
0

>  <SCORE.RESTR.CAVITY>
0

>  <SCORE.RESTR.norm>
0

>  <SCORE.SYSTEM>
0

>  <SCORE.SYSTEM.CONST>
0

>  <SCORE.SYSTEM.DIHEDRAL>
0

>  <SCORE.SYSTEM.SOLV>
0

>  <SCORE.SYSTEM.norm>
0

>  <SCORE.heavy>
26

>  <SCORE.norm>
-2.38738

>  <RMSD>
6.132

$$$$
1f1t Malachite green aptamer (Xray 2.8A)
 OpenBabel11021811393D
libRbt.so/2013.1/901 2013/11/27
 26 29  0  0  0  0  0  0  0  0999 V2000
  112.2351  -79.4469  -86.9238 C   0  0  0  0  0  0  0  0  0  0  0  0
  112.3653  -78.9627  -85.5574 C   0  0  0  0  0  0  0  0  0  0  0  0
  111.7845  -77.7080  -85.3635 C   0  0  0  0  0  0  0  0  0  0  0  0
  111.9451  -77.2619  -83.9511 O   0  0  0  0  0  0  0  0  0  0  0  0
  111.4025  -76.1197  -83.7807 C   0  0  0  0  0  0  0  0  0  0  0  0
  111.6222  -75.7677  -82.3780 C   0  0  0  0  0  0  0  0  0  0  0  0
  111.0627  -74.4966  -81.9976 C   0  0  0  0  0  0  0  0  0  0  0  0
  110.3524  -73.6719  -82.9048 C   0  0  0  0  0  0  0  0  0  0  0  0
  110.1768  -74.0750  -84.2877 C   0  0  0  0  0  0  0  0  0  0  0  0
  110.7416  -75.3382  -84.6947 C   0  0  0  0  0  0  0  0  0  0  0  0
  110.5271  -75.6732  -86.1520 C   0  0  0  0  0  0  0  0  0  0  0  0
  111.1306  -76.9331  -86.3151 C   0  0  0  0  0  0  0  0  0  0  0  0
  111.0161  -77.4348  -87.6863 C   0  0  0  0  0  0  0  0  0  0  0  0
  111.6001  -78.7195  -87.9116 C   0  0  0  0  0  0  0  0  0  0  0  0
  109.8596  -74.8381  -87.0278 C   0  0  0  0  0  0  0  0  0  0  0  0
  108.7838  -75.2167  -87.8643 C   0  0  0  0  0  0  0  0  0  0  0  0
  108.0872  -74.3833  -88.7412 C   0  0  0  0  0  0  0  0  0  0  0  0
  108.4574  -72.9799  -88.8466 C   0  0  0  0  0  0  0  0  0  0  0  0
  109.5434  -72.6360  -88.0061 C   0  0  0  0  0  0  0  0  0  0  0  0
  110.2721  -73.4376  -87.1165 C   0  0  0  0  0  0  0  0  0  0  0  0
  112.7584  -80.6840  -87.2734 N   0  3  0  0  0  0  0  0  0  0  0  0
  113.4367  -81.5423  -86.3088 C   0  0  0  0  0  0  0  0  0  0  0  0
  112.7148  -81.3053  -88.6155 C   0  0  0  0  0  0  0  0  0  0  0  0
  111.3091  -74.1684  -80.6534 N   0  0  0  0  0  0  0  0  0  0  0  0
  111.9584  -74.9255  -79.5600 C   0  0  0  0  0  0  0  0  0  0  0  0
  110.8714  -72.8060  -80.1850 C   0  0  0  0  0  0  0  0  0  0  0  0
  1  2  1  0  0  0  0
  1 14  1  0  0  0  0
  1 21  2  0  0  0  0
  2  3  2  0  0  0  0
  3  4  1  0  0  0  0
  3 12  1  0  0  0  0
  4  5  1  0  0  0  0
  5  6  1  0  0  0  0
  5 10  2  0  0  0  0
  6  7  2  0  0  0  0
  7  8  1  0  0  0  0
  7 24  1  0  0  0  0
  8  9  2  0  0  0  0
  9 10  1  0  0  0  0
 10 11  1  0  0  0  0
 11 12  2  0  0  0  0
 11 15  1  0  0  0  0
 12 13  1  0  0  0  0
 13 14  2  0  0  0  0
 15 16  2  0  0  0  0
 15 20  1  0  0  0  0
 16 17  1  0  0  0  0
 17 18  2  0  0  0  0
 18 19  1  0  0  0  0
 19 20  2  0  0  0  0
 21 22  1  0  0  0  0
 21 23  1  0  0  0  0
 24 25  1  0  0  0  0
 24 26  1  0  0  0  0
M  CHG  1  21   1
M  END
>  <CHROM.1>
-4.31661720,-128.10325784,111.04175712,-76.22208802,-85.32998355,-1.24791093
-1.05029084,1.04682529

>  <Name>
1f1t Malachite green aptamer (Xray 2.8A)

>  <RI>
0

>  <Rbt.Current_Directory>
/home/itssahil/PROJECTS/Mol_Feturizer/New_Systems/rnas/1f1t

>  <Rbt.Executable>
rbdock ($Id: //depot/dev/client3/rdock/2013.1/src/exe/rbdock.cxx#4 $)

>  <Rbt.Library>
libRbt.so (2013.1, Build901 2013/11/27)

>  <Rbt.Parameter_File>
/export/apps/rDock/src/rDock_2013.1_src/data/scripts/dock_solv.prm

>  <Rbt.Receptor>
prm/pocket_docking_8.prm

>  <SCORE>
-62.0855

>  <SCORE.INTER>
-62.3496

>  <SCORE.INTER.CONST>
1

>  <SCORE.INTER.POLAR>
0

>  <SCORE.INTER.ROT>
2

>  <SCORE.INTER.SOLV>
11.1155

>  <SCORE.INTER.VDW>
-50.2049

>  <SCORE.INTER.norm>
-2.39806

>  <SCORE.INTRA>
0.264131

>  <SCORE.INTRA.DIHEDRAL>
-1.16218

>  <SCORE.INTRA.DIHEDRAL.0>
4.18538

>  <SCORE.INTRA.POLAR>
0

>  <SCORE.INTRA.POLAR.0>
0

>  <SCORE.INTRA.REPUL>
0

>  <SCORE.INTRA.REPUL.0>
0

>  <SCORE.INTRA.SOLV>
0.0198475

>  <SCORE.INTRA.SOLV.lig_0>
-5.16926

>  <SCORE.INTRA.VDW>
0.835295

>  <SCORE.INTRA.VDW.0>
1.11912

>  <SCORE.INTRA.norm>
0.0101589

>  <SCORE.RESTR>
0

>  <SCORE.RESTR.CAVITY>
0

>  <SCORE.RESTR.norm>
0

>  <SCORE.SYSTEM>
0

>  <SCORE.SYSTEM.CONST>
0

>  <SCORE.SYSTEM.DIHEDRAL>
0

>  <SCORE.SYSTEM.SOLV>
0

>  <SCORE.SYSTEM.norm>
0

>  <SCORE.heavy>
26

>  <SCORE.norm>
-2.3879

>  <RMSD>
6.132

$$$$
1f1t Malachite green aptamer (Xray 2.8A)
 OpenBabel11021811393D
libRbt.so/2013.1/901 2013/11/27
 26 29  0  0  0  0  0  0  0  0999 V2000
  112.2316  -79.4603  -86.9555 C   0  0  0  0  0  0  0  0  0  0  0  0
  112.3666  -78.9841  -85.5868 C   0  0  0  0  0  0  0  0  0  0  0  0
  111.7920  -77.7277  -85.3850 C   0  0  0  0  0  0  0  0  0  0  0  0
  111.9573  -77.2900  -83.9706 O   0  0  0  0  0  0  0  0  0  0  0  0
  111.4204  -76.1462  -83.7930 C   0  0  0  0  0  0  0  0  0  0  0  0
  111.6443  -75.8028  -82.3889 C   0  0  0  0  0  0  0  0  0  0  0  0
  111.0914  -74.5311  -82.0006 C   0  0  0  0  0  0  0  0  0  0  0  0
  110.3834  -73.6983  -82.9021 C   0  0  0  0  0  0  0  0  0  0  0  0
  110.2034  -74.0931  -84.2868 C   0  0  0  0  0  0  0  0  0  0  0  0
  110.7615  -75.3567  -84.7016 C   0  0  0  0  0  0  0  0  0  0  0  0
  110.5428  -75.6828  -86.1603 C   0  0  0  0  0  0  0  0  0  0  0  0
  111.1401  -76.9447  -86.3312 C   0  0  0  0  0  0  0  0  0  0  0  0
  111.0208  -77.4384  -87.7049 C   0  0  0  0  0  0  0  0  0  0  0  0
  111.5983  -78.7247  -87.9382 C   0  0  0  0  0  0  0  0  0  0  0  0
  109.8777  -74.8399  -87.0304 C   0  0  0  0  0  0  0  0  0  0  0  0
  108.8088  -75.2127  -87.8784 C   0  0  0  0  0  0  0  0  0  0  0  0
  108.1147  -74.3715  -88.7498 C   0  0  0  0  0  0  0  0  0  0  0  0
  108.4799  -72.9655  -88.8359 C   0  0  0  0  0  0  0  0  0  0  0  0
  109.5590  -72.6275  -87.9843 C   0  0  0  0  0  0  0  0  0  0  0  0
  110.2851  -73.4368  -87.0996 C   0  0  0  0  0  0  0  0  0  0  0  0
  112.7485  -80.6979  -87.3127 N   0  3  0  0  0  0  0  0  0  0  0  0
  113.4245  -81.5646  -86.3539 C   0  0  0  0  0  0  0  0  0  0  0  0
  112.6996  -81.3118  -88.6580 C   0  0  0  0  0  0  0  0  0  0  0  0
  111.3418  -74.2113  -80.6551 N   0  0  0  0  0  0  0  0  0  0  0  0
  111.9953  -74.9748  -79.5687 C   0  0  0  0  0  0  0  0  0  0  0  0
  110.9044  -72.8524  -80.1767 C   0  0  0  0  0  0  0  0  0  0  0  0
  1  2  1  0  0  0  0
  1 14  1  0  0  0  0
  1 21  2  0  0  0  0
  2  3  2  0  0  0  0
  3  4  1  0  0  0  0
  3 12  1  0  0  0  0
  4  5  1  0  0  0  0
  5  6  1  0  0  0  0
  5 10  2  0  0  0  0
  6  7  2  0  0  0  0
  7  8  1  0  0  0  0
  7 24  1  0  0  0  0
  8  9  2  0  0  0  0
  9 10  1  0  0  0  0
 10 11  1  0  0  0  0
 11 12  2  0  0  0  0
 11 15  1  0  0  0  0
 12 13  1  0  0  0  0
 13 14  2  0  0  0  0
 15 16  2  0  0  0  0
 15 20  1  0  0  0  0
 16 17  1  0  0  0  0
 17 18  2  0  0  0  0
 18 19  1  0  0  0  0
 19 20  2  0  0  0  0
 21 22  1  0  0  0  0
 21 23  1  0  0  0  0
 24 25  1  0  0  0  0
 24 26  1  0  0  0  0
M  CHG  1  21   1
M  END
>  <CHROM.1>
-3.97973788,-128.89110290,111.05618558,-76.23857336,-85.34209719,-1.25587864
-1.05328147,1.04526709

>  <Name>
1f1t Malachite green aptamer (Xray 2.8A)

>  <RI>
0

>  <Rbt.Current_Directory>
/home/itssahil/PROJECTS/Mol_Feturizer/New_Systems/rnas/1f1t

>  <Rbt.Executable>
rbdock ($Id: //depot/dev/client3/rdock/2013.1/src/exe/rbdock.cxx#4 $)

>  <Rbt.Library>
libRbt.so (2013.1, Build901 2013/11/27)

>  <Rbt.Parameter_File>
/export/apps/rDock/src/rDock_2013.1_src/data/scripts/dock_solv.prm

>  <Rbt.Receptor>
prm/pocket_docking_2.prm

>  <SCORE>
-62.0965

>  <SCORE.INTER>
-62.3945

>  <SCORE.INTER.CONST>
1

>  <SCORE.INTER.POLAR>
0

>  <SCORE.INTER.ROT>
2

>  <SCORE.INTER.SOLV>
11.0907

>  <SCORE.INTER.VDW>
-50.2266

>  <SCORE.INTER.norm>
-2.39979

>  <SCORE.INTRA>
0.29805

>  <SCORE.INTRA.DIHEDRAL>
-1.23788

>  <SCORE.INTRA.DIHEDRAL.0>
4.18538

>  <SCORE.INTRA.POLAR>
0

>  <SCORE.INTRA.POLAR.0>
0

>  <SCORE.INTRA.REPUL>
0

>  <SCORE.INTRA.REPUL.0>
0

>  <SCORE.INTRA.SOLV>
0.0207352

>  <SCORE.INTRA.SOLV.lig_0>
-5.16926

>  <SCORE.INTRA.VDW>
0.90662

>  <SCORE.INTRA.VDW.0>
1.11912

>  <SCORE.INTRA.norm>
0.0114635

>  <SCORE.RESTR>
0

>  <SCORE.RESTR.CAVITY>
0

>  <SCORE.RESTR.norm>
0

>  <SCORE.SYSTEM>
0

>  <SCORE.SYSTEM.CONST>
0

>  <SCORE.SYSTEM.DIHEDRAL>
0

>  <SCORE.SYSTEM.SOLV>
0

>  <SCORE.SYSTEM.norm>
0

>  <SCORE.heavy>
26

>  <SCORE.norm>
-2.38833

>  <RMSD>
6.133

$$$$
1f1t Malachite green aptamer (Xray 2.8A)
 OpenBabel11021811393D
libRbt.so/2013.1/901 2013/11/27
 26 29  0  0  0  0  0  0  0  0999 V2000
  112.2437  -79.4561  -86.8892 C   0  0  0  0  0  0  0  0  0  0  0  0
  112.3600  -78.9598  -85.5259 C   0  0  0  0  0  0  0  0  0  0  0  0
  111.7748  -77.7047  -85.3484 C   0  0  0  0  0  0  0  0  0  0  0  0
  111.9212  -77.2460  -83.9385 O   0  0  0  0  0  0  0  0  0  0  0  0
  111.3746  -76.1036  -83.7831 C   0  0  0  0  0  0  0  0  0  0  0  0
  111.5804  -75.7390  -82.3816 C   0  0  0  0  0  0  0  0  0  0  0  0
  111.0146  -74.4658  -82.0174 C   0  0  0  0  0  0  0  0  0  0  0  0
  110.3111  -73.6506  -82.9384 C   0  0  0  0  0  0  0  0  0  0  0  0
  110.1493  -74.0661  -84.3193 C   0  0  0  0  0  0  0  0  0  0  0  0
  110.7206  -75.3315  -84.7100 C   0  0  0  0  0  0  0  0  0  0  0  0
  110.5205  -75.6796  -86.1663 C   0  0  0  0  0  0  0  0  0  0  0  0
  111.1282  -76.9396  -86.3127 C   0  0  0  0  0  0  0  0  0  0  0  0
  111.0276  -77.4534  -87.6805 C   0  0  0  0  0  0  0  0  0  0  0  0
  111.6165  -78.7388  -87.8892 C   0  0  0  0  0  0  0  0  0  0  0  0
  109.8595  -74.8537  -87.0556 C   0  0  0  0  0  0  0  0  0  0  0  0
  108.8399  -75.2577  -87.9487 C   0  0  0  0  0  0  0  0  0  0  0  0
  108.1500  -74.4345  -88.8405 C   0  0  0  0  0  0  0  0  0  0  0  0
  108.4655  -73.0152  -88.9005 C   0  0  0  0  0  0  0  0  0  0  0  0
  109.4965  -72.6456  -88.0036 C   0  0  0  0  0  0  0  0  0  0  0  0
  110.2165  -73.4359  -87.0970 C   0  0  0  0  0  0  0  0  0  0  0  0
  112.7728  -80.6950  -87.2231 N   0  3  0  0  0  0  0  0  0  0  0  0
  113.4439  -81.5434  -86.2447 C   0  0  0  0  0  0  0  0  0  0  0  0
  112.7432  -81.3280  -88.5601 C   0  0  0  0  0  0  0  0  0  0  0  0
  111.2477  -74.1254  -80.6739 N   0  0  0  0  0  0  0  0  0  0  0  0
  111.8799  -74.8752  -79.5656 C   0  0  0  0  0  0  0  0  0  0  0  0
  110.8131  -72.7557  -80.2245 C   0  0  0  0  0  0  0  0  0  0  0  0
  1  2  1  0  0  0  0
  1 14  1  0  0  0  0
  1 21  2  0  0  0  0
  2  3  2  0  0  0  0
  3  4  1  0  0  0  0
  3 12  1  0  0  0  0
  4  5  1  0  0  0  0
  5  6  1  0  0  0  0
  5 10  2  0  0  0  0
  6  7  2  0  0  0  0
  7  8  1  0  0  0  0
  7 24  1  0  0  0  0
  8  9  2  0  0  0  0
  9 10  1  0  0  0  0
 10 11  1  0  0  0  0
 11 12  2  0  0  0  0
 11 15  1  0  0  0  0
 12 13  1  0  0  0  0
 13 14  2  0  0  0  0
 15 16  2  0  0  0  0
 15 20  1  0  0  0  0
 16 17  1  0  0  0  0
 17 18  2  0  0  0  0
 18 19  1  0  0  0  0
 19 20  2  0  0  0  0
 21 22  1  0  0  0  0
 21 23  1  0  0  0  0
 24 25  1  0  0  0  0
 24 26  1  0  0  0  0
M  CHG  1  21   1
M  END
>  <CHROM.1>
-4.80809769,-131.62738184,111.02814393,-76.22023180,-85.33441498,-1.23002358
-1.05292194,1.05357324

>  <Name>
1f1t Malachite green aptamer (Xray 2.8A)

>  <RI>
0

>  <Rbt.Current_Directory>
/home/itssahil/PROJECTS/Mol_Feturizer/New_Systems/rnas/1f1t

>  <Rbt.Executable>
rbdock ($Id: //depot/dev/client3/rdock/2013.1/src/exe/rbdock.cxx#4 $)

>  <Rbt.Library>
libRbt.so (2013.1, Build901 2013/11/27)

>  <Rbt.Parameter_File>
/export/apps/rDock/src/rDock_2013.1_src/data/scripts/dock_solv.prm

>  <Rbt.Receptor>
prm/pocket_docking_3.prm

>  <SCORE>
-62.1008

>  <SCORE.INTER>
-62.5376

>  <SCORE.INTER.CONST>
1

>  <SCORE.INTER.POLAR>
0

>  <SCORE.INTER.ROT>
2

>  <SCORE.INTER.SOLV>
11.1403

>  <SCORE.INTER.VDW>
-50.3385

>  <SCORE.INTER.norm>
-2.40529

>  <SCORE.INTRA>
0.436804

>  <SCORE.INTRA.DIHEDRAL>
-1.43514

>  <SCORE.INTRA.DIHEDRAL.0>
4.18538

>  <SCORE.INTRA.POLAR>
0

>  <SCORE.INTRA.POLAR.0>
0

>  <SCORE.INTRA.REPUL>
0

>  <SCORE.INTRA.REPUL.0>
0

>  <SCORE.INTRA.SOLV>
0.0237554

>  <SCORE.INTRA.SOLV.lig_0>
-5.16926

>  <SCORE.INTRA.VDW>
1.1425

>  <SCORE.INTRA.VDW.0>
1.11912

>  <SCORE.INTRA.norm>
0.0168001

>  <SCORE.RESTR>
0

>  <SCORE.RESTR.CAVITY>
0

>  <SCORE.RESTR.norm>
0

>  <SCORE.SYSTEM>
0

>  <SCORE.SYSTEM.CONST>
0

>  <SCORE.SYSTEM.DIHEDRAL>
0

>  <SCORE.SYSTEM.SOLV>
0

>  <SCORE.SYSTEM.norm>
0

>  <SCORE.heavy>
26

>  <SCORE.norm>
-2.38849

>  <RMSD>
6.133

$$$$
1f1t Malachite green aptamer (Xray 2.8A)
 OpenBabel11021811393D
libRbt.so/2013.1/901 2013/11/27
 26 29  0  0  0  0  0  0  0  0999 V2000
  112.2279  -79.4029  -86.9494 C   0  0  0  0  0  0  0  0  0  0  0  0
  112.3587  -78.9429  -85.5747 C   0  0  0  0  0  0  0  0  0  0  0  0
  111.7917  -77.6848  -85.3621 C   0  0  0  0  0  0  0  0  0  0  0  0
  111.9523  -77.2640  -83.9420 O   0  0  0  0  0  0  0  0  0  0  0  0
  111.4223  -76.1186  -83.7546 C   0  0  0  0  0  0  0  0  0  0  0  0
  111.6408  -75.7924  -82.3455 C   0  0  0  0  0  0  0  0  0  0  0  0
  111.0947  -74.5213  -81.9460 C   0  0  0  0  0  0  0  0  0  0  0  0
  110.3973  -73.6736  -82.8419 C   0  0  0  0  0  0  0  0  0  0  0  0
  110.2222  -74.0517  -84.2319 C   0  0  0  0  0  0  0  0  0  0  0  0
  110.7738  -75.3145  -84.6578 C   0  0  0  0  0  0  0  0  0  0  0  0
  110.5609  -75.6229  -86.1212 C   0  0  0  0  0  0  0  0  0  0  0  0
  111.1503  -76.8869  -86.3030 C   0  0  0  0  0  0  0  0  0  0  0  0
  111.0352  -77.3644  -87.6827 C   0  0  0  0  0  0  0  0  0  0  0  0
  111.6051  -78.6520  -87.9273 C   0  0  0  0  0  0  0  0  0  0  0  0
  109.9063  -74.7657  -86.9854 C   0  0  0  0  0  0  0  0  0  0  0  0
  110.2089  -73.3964  -87.1693 C   0  0  0  0  0  0  0  0  0  0  0  0
  109.5704  -72.5210  -88.0495 C   0  0  0  0  0  0  0  0  0  0  0  0
  108.4831  -73.0075  -88.8854 C   0  0  0  0  0  0  0  0  0  0  0  0
  108.1978  -74.3771  -88.6695 C   0  0  0  0  0  0  0  0  0  0  0  0
  108.8078  -75.2890  -87.7970 C   0  0  0  0  0  0  0  0  0  0  0  0
  112.7382  -80.6400  -87.3176 N   0  3  0  0  0  0  0  0  0  0  0  0
  113.4030  -81.5219  -86.3649 C   0  0  0  0  0  0  0  0  0  0  0  0
  112.6924  -81.2385  -88.6700 C   0  0  0  0  0  0  0  0  0  0  0  0
  111.3398  -74.2182  -80.5957 N   0  0  0  0  0  0  0  0  0  0  0  0
  111.9969  -74.9917  -79.5186 C   0  0  0  0  0  0  0  0  0  0  0  0
  110.8911  -72.8694  -80.0995 C   0  0  0  0  0  0  0  0  0  0  0  0
  1  2  1  0  0  0  0
  1 14  1  0  0  0  0
  1 21  2  0  0  0  0
  2  3  2  0  0  0  0
  3  4  1  0  0  0  0
  3 12  1  0  0  0  0
  4  5  1  0  0  0  0
  5  6  1  0  0  0  0
  5 10  2  0  0  0  0
  6  7  2  0  0  0  0
  7  8  1  0  0  0  0
  7 24  1  0  0  0  0
  8  9  2  0  0  0  0
  9 10  1  0  0  0  0
 10 11  1  0  0  0  0
 11 12  2  0  0  0  0
 11 15  1  0  0  0  0
 12 13  1  0  0  0  0
 13 14  2  0  0  0  0
 15 16  2  0  0  0  0
 15 20  1  0  0  0  0
 16 17  1  0  0  0  0
 17 18  2  0  0  0  0
 18 19  1  0  0  0  0
 19 20  2  0  0  0  0
 21 22  1  0  0  0  0
 21 23  1  0  0  0  0
 24 25  1  0  0  0  0
 24 26  1  0  0  0  0
M  CHG  1  21   1
M  END
>  <CHROM.1>
-3.11241689,52.13709735,111.05855080,-76.20778452,-85.31739282,-1.27265149
-1.05764014,1.05641831

>  <Name>
1f1t Malachite green aptamer (Xray 2.8A)

>  <RI>
0

>  <Rbt.Current_Directory>
/home/itssahil/PROJECTS/Mol_Feturizer/New_Systems/rnas/1f1t

>  <Rbt.Executable>
rbdock ($Id: //depot/dev/client3/rdock/2013.1/src/exe/rbdock.cxx#4 $)

>  <Rbt.Library>
libRbt.so (2013.1, Build901 2013/11/27)

>  <Rbt.Parameter_File>
/export/apps/rDock/src/rDock_2013.1_src/data/scripts/dock_solv.prm

>  <Rbt.Receptor>
prm/pocket_docking_3.prm

>  <SCORE>
-63.0531

>  <SCORE.INTER>
-63.1054

>  <SCORE.INTER.CONST>
1

>  <SCORE.INTER.POLAR>
0

>  <SCORE.INTER.ROT>
2

>  <SCORE.INTER.SOLV>
11.1062

>  <SCORE.INTER.VDW>
-50.7057

>  <SCORE.INTER.norm>
-2.42713

>  <SCORE.INTRA>
0.0523131

>  <SCORE.INTRA.DIHEDRAL>
-1.17868

>  <SCORE.INTRA.DIHEDRAL.0>
4.18538

>  <SCORE.INTRA.POLAR>
0

>  <SCORE.INTRA.POLAR.0>
0

>  <SCORE.INTRA.REPUL>
0

>  <SCORE.INTRA.REPUL.0>
0

>  <SCORE.INTRA.SOLV>
0.0195362

>  <SCORE.INTRA.SOLV.lig_0>
-5.16926

>  <SCORE.INTRA.VDW>
0.631883

>  <SCORE.INTRA.VDW.0>
1.11912

>  <SCORE.INTRA.norm>
0.00201204

>  <SCORE.RESTR>
0

>  <SCORE.RESTR.CAVITY>
0

>  <SCORE.RESTR.norm>
0

>  <SCORE.SYSTEM>
0

>  <SCORE.SYSTEM.CONST>
0

>  <SCORE.SYSTEM.DIHEDRAL>
0

>  <SCORE.SYSTEM.SOLV>
0

>  <SCORE.SYSTEM.norm>
0

>  <SCORE.heavy>
26

>  <SCORE.norm>
-2.42512

>  <RMSD>
6.133

$$$$
1f1t Malachite green aptamer (Xray 2.8A)
 OpenBabel11021811393D
libRbt.so/2013.1/901 2013/11/27
 26 29  0  0  0  0  0  0  0  0999 V2000
  112.2318  -79.4093  -86.9594 C   0  0  0  0  0  0  0  0  0  0  0  0
  112.3662  -78.9495  -85.5850 C   0  0  0  0  0  0  0  0  0  0  0  0
  111.8000  -77.6914  -85.3707 C   0  0  0  0  0  0  0  0  0  0  0  0
  111.9642  -77.2708  -83.9510 O   0  0  0  0  0  0  0  0  0  0  0  0
  111.4349  -76.1254  -83.7621 C   0  0  0  0  0  0  0  0  0  0  0  0
  111.6571  -75.7993  -82.3535 C   0  0  0  0  0  0  0  0  0  0  0  0
  111.1122  -74.5282  -81.9525 C   0  0  0  0  0  0  0  0  0  0  0  0
  110.4126  -73.6803  -82.8465 C   0  0  0  0  0  0  0  0  0  0  0  0
  110.2338  -74.0582  -84.2360 C   0  0  0  0  0  0  0  0  0  0  0  0
  110.7842  -75.3210  -84.6635 C   0  0  0  0  0  0  0  0  0  0  0  0
  110.5674  -75.6292  -86.1264 C   0  0  0  0  0  0  0  0  0  0  0  0
  111.1562  -76.8932  -86.3099 C   0  0  0  0  0  0  0  0  0  0  0  0
  111.0374  -77.3706  -87.6893 C   0  0  0  0  0  0  0  0  0  0  0  0
  111.6065  -78.6582  -87.9355 C   0  0  0  0  0  0  0  0  0  0  0  0
  109.9107  -74.7719  -86.9888 C   0  0  0  0  0  0  0  0  0  0  0  0
  110.2158  -73.4036  -87.1765 C   0  0  0  0  0  0  0  0  0  0  0  0
  109.5751  -72.5281  -88.0550 C   0  0  0  0  0  0  0  0  0  0  0  0
  108.4824  -73.0132  -88.8847 C   0  0  0  0  0  0  0  0  0  0  0  0
  108.1948  -74.3819  -88.6651 C   0  0  0  0  0  0  0  0  0  0  0  0
  108.8068  -75.2938  -87.7941 C   0  0  0  0  0  0  0  0  0  0  0  0
  112.7410  -80.6464  -87.3291 N   0  3  0  0  0  0  0  0  0  0  0  0
  113.4082  -81.5286  -86.3782 C   0  0  0  0  0  0  0  0  0  0  0  0
  112.6916  -81.2448  -88.6813 C   0  0  0  0  0  0  0  0  0  0  0  0
  111.3609  -74.2253  -80.6028 N   0  0  0  0  0  0  0  0  0  0  0  0
  112.0158  -75.0012  -79.5261 C   0  0  0  0  0  0  0  0  0  0  0  0
  110.9195  -72.8739  -80.1069 C   0  0  0  0  0  0  0  0  0  0  0  0
  1  2  1  0  0  0  0
  1 14  1  0  0  0  0
  1 21  2  0  0  0  0
  2  3  2  0  0  0  0
  3  4  1  0  0  0  0
  3 12  1  0  0  0  0
  4  5  1  0  0  0  0
  5  6  1  0  0  0  0
  5 10  2  0  0  0  0
  6  7  2  0  0  0  0
  7  8  1  0  0  0  0
  7 24  1  0  0  0  0
  8  9  2  0  0  0  0
  9 10  1  0  0  0  0
 10 11  1  0  0  0  0
 11 12  2  0  0  0  0
 11 15  1  0  0  0  0
 12 13  1  0  0  0  0
 13 14  2  0  0  0  0
 15 16  2  0  0  0  0
 15 20  1  0  0  0  0
 16 17  1  0  0  0  0
 17 18  2  0  0  0  0
 18 19  1  0  0  0  0
 19 20  2  0  0  0  0
 21 22  1  0  0  0  0
 21 23  1  0  0  0  0
 24 25  1  0  0  0  0
 24 26  1  0  0  0  0
M  CHG  1  21   1
M  END
>  <CHROM.1>
-3.39709144,52.35316574,111.06709470,-76.21425937,-85.32393875,-1.27740399
-1.05652505,1.05237271

>  <Name>
1f1t Malachite green aptamer (Xray 2.8A)

>  <RI>
0

>  <Rbt.Current_Directory>
/home/itssahil/PROJECTS/Mol_Feturizer/New_Systems/rnas/1f1t

>  <Rbt.Executable>
rbdock ($Id: //depot/dev/client3/rdock/2013.1/src/exe/rbdock.cxx#4 $)

>  <Rbt.Library>
libRbt.so (2013.1, Build901 2013/11/27)

>  <Rbt.Parameter_File>
/export/apps/rDock/src/rDock_2013.1_src/data/scripts/dock_solv.prm

>  <Rbt.Receptor>
prm/pocket_docking_3.prm

>  <SCORE>
-63.0824

>  <SCORE.INTER>
-63.1311

>  <SCORE.INTER.CONST>
1

>  <SCORE.INTER.POLAR>
0

>  <SCORE.INTER.ROT>
2

>  <SCORE.INTER.SOLV>
11.104

>  <SCORE.INTER.VDW>
-50.7221

>  <SCORE.INTER.norm>
-2.42812

>  <SCORE.INTRA>
0.0487231

>  <SCORE.INTRA.DIHEDRAL>
-1.15358

>  <SCORE.INTRA.DIHEDRAL.0>
4.18538

>  <SCORE.INTRA.POLAR>
0

>  <SCORE.INTRA.POLAR.0>
0

>  <SCORE.INTRA.REPUL>
0

>  <SCORE.INTRA.REPUL.0>
0

>  <SCORE.INTRA.SOLV>
0.0192925

>  <SCORE.INTRA.SOLV.lig_0>
-5.16926

>  <SCORE.INTRA.VDW>
0.615866

>  <SCORE.INTRA.VDW.0>
1.11912

>  <SCORE.INTRA.norm>
0.00187397

>  <SCORE.RESTR>
0

>  <SCORE.RESTR.CAVITY>
0

>  <SCORE.RESTR.norm>
0

>  <SCORE.SYSTEM>
0

>  <SCORE.SYSTEM.CONST>
0

>  <SCORE.SYSTEM.DIHEDRAL>
0

>  <SCORE.SYSTEM.SOLV>
0

>  <SCORE.SYSTEM.norm>
0

>  <SCORE.heavy>
26

>  <SCORE.norm>
-2.42624

>  <RMSD>
6.133

$$$$
1f1t Malachite green aptamer (Xray 2.8A)
 OpenBabel11021811393D
libRbt.so/2013.1/901 2013/11/27
 26 29  0  0  0  0  0  0  0  0999 V2000
  112.2555  -79.4277  -86.9645 C   0  0  0  0  0  0  0  0  0  0  0  0
  112.3811  -78.9664  -85.5898 C   0  0  0  0  0  0  0  0  0  0  0  0
  111.8122  -77.7087  -85.3803 C   0  0  0  0  0  0  0  0  0  0  0  0
  111.9674  -77.2864  -83.9600 O   0  0  0  0  0  0  0  0  0  0  0  0
  111.4357  -76.1414  -83.7755 C   0  0  0  0  0  0  0  0  0  0  0  0
  111.6490  -75.8136  -82.3660 C   0  0  0  0  0  0  0  0  0  0  0  0
  111.1003  -74.5427  -81.9696 C   0  0  0  0  0  0  0  0  0  0  0  0
  110.4052  -73.6965  -82.8687 C   0  0  0  0  0  0  0  0  0  0  0  0
  110.2352  -74.0760  -84.2589 C   0  0  0  0  0  0  0  0  0  0  0  0
  110.7896  -75.3386  -84.6817 C   0  0  0  0  0  0  0  0  0  0  0  0
  110.5819  -75.6486  -86.1456 C   0  0  0  0  0  0  0  0  0  0  0  0
  111.1733  -76.9122  -86.3242 C   0  0  0  0  0  0  0  0  0  0  0  0
  111.0633  -77.3911  -87.7038 C   0  0  0  0  0  0  0  0  0  0  0  0
  111.6353  -78.6783  -87.9452 C   0  0  0  0  0  0  0  0  0  0  0  0
  109.9295  -74.7929  -87.0128 C   0  0  0  0  0  0  0  0  0  0  0  0
  110.2221  -73.4200  -87.1865 C   0  0  0  0  0  0  0  0  0  0  0  0
  109.5857  -72.5458  -88.0695 C   0  0  0  0  0  0  0  0  0  0  0  0
  108.5121  -73.0376  -88.9199 C   0  0  0  0  0  0  0  0  0  0  0  0
  108.2366  -74.4108  -88.7140 C   0  0  0  0  0  0  0  0  0  0  0  0
  108.8448  -75.3217  -87.8393 C   0  0  0  0  0  0  0  0  0  0  0  0
  112.7682  -80.6647  -87.3299 N   0  3  0  0  0  0  0  0  0  0  0  0
  113.4306  -81.5451  -86.3741 C   0  0  0  0  0  0  0  0  0  0  0  0
  112.7277  -81.2645  -88.6818 C   0  0  0  0  0  0  0  0  0  0  0  0
  111.3405  -74.2382  -80.6187 N   0  0  0  0  0  0  0  0  0  0  0  0
  111.9932  -75.0107  -79.5382 C   0  0  0  0  0  0  0  0  0  0  0  0
  110.8905  -72.8885  -80.1258 C   0  0  0  0  0  0  0  0  0  0  0  0
  1  2  1  0  0  0  0
  1 14  1  0  0  0  0
  1 21  2  0  0  0  0
  2  3  2  0  0  0  0
  3  4  1  0  0  0  0
  3 12  1  0  0  0  0
  4  5  1  0  0  0  0
  5  6  1  0  0  0  0
  5 10  2  0  0  0  0
  6  7  2  0  0  0  0
  7  8  1  0  0  0  0
  7 24  1  0  0  0  0
  8  9  2  0  0  0  0
  9 10  1  0  0  0  0
 10 11  1  0  0  0  0
 11 12  2  0  0  0  0
 11 15  1  0  0  0  0
 12 13  1  0  0  0  0
 13 14  2  0  0  0  0
 15 16  2  0  0  0  0
 15 20  1  0  0  0  0
 16 17  1  0  0  0  0
 17 18  2  0  0  0  0
 18 19  1  0  0  0  0
 19 20  2  0  0  0  0
 21 22  1  0  0  0  0
 21 23  1  0  0  0  0
 24 25  1  0  0  0  0
 24 26  1  0  0  0  0
M  CHG  1  21   1
M  END
>  <CHROM.1>
-3.19727810,51.41841618,111.07753579,-76.23228494,-85.33958274,-1.26570678
-1.05858882,1.06161292

>  <Name>
1f1t Malachite green aptamer (Xray 2.8A)

>  <RI>
0

>  <Rbt.Current_Directory>
/home/itssahil/PROJECTS/Mol_Feturizer/New_Systems/rnas/1f1t

>  <Rbt.Executable>
rbdock ($Id: //depot/dev/client3/rdock/2013.1/src/exe/rbdock.cxx#4 $)

>  <Rbt.Library>
libRbt.so (2013.1, Build901 2013/11/27)

>  <Rbt.Parameter_File>
/export/apps/rDock/src/rDock_2013.1_src/data/scripts/dock_solv.prm

>  <Rbt.Receptor>
prm/pocket_docking_3.prm

>  <SCORE>
-63.0621

>  <SCORE.INTER>
-63.1323

>  <SCORE.INTER.CONST>
1

>  <SCORE.INTER.POLAR>
0

>  <SCORE.INTER.ROT>
2

>  <SCORE.INTER.SOLV>
11.1145

>  <SCORE.INTER.VDW>
-50.7264

>  <SCORE.INTER.norm>
-2.42817

>  <SCORE.INTRA>
0.070185

>  <SCORE.INTRA.DIHEDRAL>
-1.23519

>  <SCORE.INTRA.DIHEDRAL.0>
4.18538

>  <SCORE.INTRA.POLAR>
0

>  <SCORE.INTRA.POLAR.0>
0

>  <SCORE.INTRA.REPUL>
0

>  <SCORE.INTRA.REPUL.0>
0

>  <SCORE.INTRA.SOLV>
0.0203377

>  <SCORE.INTRA.SOLV.lig_0>
-5.16926

>  <SCORE.INTRA.VDW>
0.677611

>  <SCORE.INTRA.VDW.0>
1.11912

>  <SCORE.INTRA.norm>
0.00269942

>  <SCORE.RESTR>
0

>  <SCORE.RESTR.CAVITY>
0

>  <SCORE.RESTR.norm>
0

>  <SCORE.SYSTEM>
0

>  <SCORE.SYSTEM.CONST>
0

>  <SCORE.SYSTEM.DIHEDRAL>
0

>  <SCORE.SYSTEM.SOLV>
0

>  <SCORE.SYSTEM.norm>
0

>  <SCORE.heavy>
26

>  <SCORE.norm>
-2.42547

>  <RMSD>
6.133

$$$$
1f1t Malachite green aptamer (Xray 2.8A)
 OpenBabel11021811393D
libRbt.so/2013.1/901 2013/11/27
 26 29  0  0  0  0  0  0  0  0999 V2000
  112.2370  -79.4075  -86.9627 C   0  0  0  0  0  0  0  0  0  0  0  0
  112.3688  -78.9483  -85.5879 C   0  0  0  0  0  0  0  0  0  0  0  0
  111.8020  -77.6904  -85.3741 C   0  0  0  0  0  0  0  0  0  0  0  0
  111.9636  -77.2704  -83.9538 O   0  0  0  0  0  0  0  0  0  0  0  0
  111.4337  -76.1251  -83.7654 C   0  0  0  0  0  0  0  0  0  0  0  0
  111.6534  -75.7997  -82.3563 C   0  0  0  0  0  0  0  0  0  0  0  0
  111.1075  -74.5288  -81.9557 C   0  0  0  0  0  0  0  0  0  0  0  0
  110.4095  -73.6806  -82.8506 C   0  0  0  0  0  0  0  0  0  0  0  0
  110.2332  -74.0579  -84.2406 C   0  0  0  0  0  0  0  0  0  0  0  0
  110.7846  -75.3204  -84.6677 C   0  0  0  0  0  0  0  0  0  0  0  0
  110.5705  -75.6280  -86.1311 C   0  0  0  0  0  0  0  0  0  0  0  0
  111.1599  -76.8919  -86.3140 C   0  0  0  0  0  0  0  0  0  0  0  0
  111.0436  -77.3686  -87.6940 C   0  0  0  0  0  0  0  0  0  0  0  0
  111.6134  -78.6560  -87.9397 C   0  0  0  0  0  0  0  0  0  0  0  0
  109.9153  -74.7703  -86.9943 C   0  0  0  0  0  0  0  0  0  0  0  0
  110.2293  -73.4053  -87.1907 C   0  0  0  0  0  0  0  0  0  0  0  0
  109.5901  -72.5297  -88.0703 C   0  0  0  0  0  0  0  0  0  0  0  0
  108.4894  -73.0111  -88.8914 C   0  0  0  0  0  0  0  0  0  0  0  0
  108.1931  -74.3765  -88.6631 C   0  0  0  0  0  0  0  0  0  0  0  0
  108.8033  -75.2884  -87.7908 C   0  0  0  0  0  0  0  0  0  0  0  0
  112.7470  -80.6444  -87.3321 N   0  3  0  0  0  0  0  0  0  0  0  0
  113.4125  -81.5269  -86.3804 C   0  0  0  0  0  0  0  0  0  0  0  0
  112.7002  -81.2421  -88.6847 C   0  0  0  0  0  0  0  0  0  0  0  0
  111.3537  -74.2265  -80.6054 N   0  0  0  0  0  0  0  0  0  0  0  0
  112.0084  -75.0020  -79.5283 C   0  0  0  0  0  0  0  0  0  0  0  0
  110.9092  -72.8763  -80.1091 C   0  0  0  0  0  0  0  0  0  0  0  0
  1  2  1  0  0  0  0
  1 14  1  0  0  0  0
  1 21  2  0  0  0  0
  2  3  2  0  0  0  0
  3  4  1  0  0  0  0
  3 12  1  0  0  0  0
  4  5  1  0  0  0  0
  5  6  1  0  0  0  0
  5 10  2  0  0  0  0
  6  7  2  0  0  0  0
  7  8  1  0  0  0  0
  7 24  1  0  0  0  0
  8  9  2  0  0  0  0
  9 10  1  0  0  0  0
 10 11  1  0  0  0  0
 11 12  2  0  0  0  0
 11 15  1  0  0  0  0
 12 13  1  0  0  0  0
 13 14  2  0  0  0  0
 15 16  2  0  0  0  0
 15 20  1  0  0  0  0
 16 17  1  0  0  0  0
 17 18  2  0  0  0  0
 18 19  1  0  0  0  0
 19 20  2  0  0  0  0
 21 22  1  0  0  0  0
 21 23  1  0  0  0  0
 24 25  1  0  0  0  0
 24 26  1  0  0  0  0
M  CHG  1  21   1
M  END
>  <CHROM.1>
-3.29937306,53.03057787,111.06871853,-76.21333799,-85.32789041,-1.27385485
-1.05721841,1.05586737

>  <Name>
1f1t Malachite green aptamer (Xray 2.8A)

>  <RI>
0

>  <Rbt.Current_Directory>
/home/itssahil/PROJECTS/Mol_Feturizer/New_Systems/rnas/1f1t

>  <Rbt.Executable>
rbdock ($Id: //depot/dev/client3/rdock/2013.1/src/exe/rbdock.cxx#4 $)

>  <Rbt.Library>
libRbt.so (2013.1, Build901 2013/11/27)

>  <Rbt.Parameter_File>
/export/apps/rDock/src/rDock_2013.1_src/data/scripts/dock_solv.prm

>  <Rbt.Receptor>
prm/pocket_docking_4.prm

>  <SCORE>
-63.0682

>  <SCORE.INTER>
-63.1199

>  <SCORE.INTER.CONST>
1

>  <SCORE.INTER.POLAR>
0

>  <SCORE.INTER.ROT>
2

>  <SCORE.INTER.SOLV>
11.1152

>  <SCORE.INTER.VDW>
-50.7183

>  <SCORE.INTER.norm>
-2.42769

>  <SCORE.INTRA>
0.0517002

>  <SCORE.INTRA.DIHEDRAL>
-1.10134

>  <SCORE.INTRA.DIHEDRAL.0>
4.18538

>  <SCORE.INTRA.POLAR>
0

>  <SCORE.INTRA.POLAR.0>
0

>  <SCORE.INTRA.REPUL>
0

>  <SCORE.INTRA.REPUL.0>
0

>  <SCORE.INTRA.SOLV>
0.0185316

>  <SCORE.INTRA.SOLV.lig_0>
-5.16926

>  <SCORE.INTRA.VDW>
0.593106

>  <SCORE.INTRA.VDW.0>
1.11912

>  <SCORE.INTRA.norm>
0.00198847

>  <SCORE.RESTR>
0

>  <SCORE.RESTR.CAVITY>
0

>  <SCORE.RESTR.norm>
0

>  <SCORE.SYSTEM>
0

>  <SCORE.SYSTEM.CONST>
0

>  <SCORE.SYSTEM.DIHEDRAL>
0

>  <SCORE.SYSTEM.SOLV>
0

>  <SCORE.SYSTEM.norm>
0

>  <SCORE.heavy>
26

>  <SCORE.norm>
-2.4257

>  <RMSD>
6.133

$$$$
1f1t Malachite green aptamer (Xray 2.8A)
 OpenBabel11021811393D
libRbt.so/2013.1/901 2013/11/27
 26 29  0  0  0  0  0  0  0  0999 V2000
  112.2382  -79.4149  -86.9536 C   0  0  0  0  0  0  0  0  0  0  0  0
  112.3710  -78.9530  -85.5798 C   0  0  0  0  0  0  0  0  0  0  0  0
  111.8041  -77.6949  -85.3678 C   0  0  0  0  0  0  0  0  0  0  0  0
  111.9668  -77.2721  -83.9485 O   0  0  0  0  0  0  0  0  0  0  0  0
  111.4369  -76.1267  -83.7618 C   0  0  0  0  0  0  0  0  0  0  0  0
  111.6576  -75.7985  -82.3535 C   0  0  0  0  0  0  0  0  0  0  0  0
  111.1118  -74.5271  -81.9548 C   0  0  0  0  0  0  0  0  0  0  0  0
  110.4128  -73.6807  -82.8506 C   0  0  0  0  0  0  0  0  0  0  0  0
  110.2354  -74.0607  -84.2398 C   0  0  0  0  0  0  0  0  0  0  0  0
  110.7868  -75.3238  -84.6650 C   0  0  0  0  0  0  0  0  0  0  0  0
  110.5715  -75.6342  -86.1277 C   0  0  0  0  0  0  0  0  0  0  0  0
  111.1610  -76.8983  -86.3087 C   0  0  0  0  0  0  0  0  0  0  0  0
  111.0437  -77.3777  -87.6877 C   0  0  0  0  0  0  0  0  0  0  0  0
  111.6135  -78.6654  -87.9314 C   0  0  0  0  0  0  0  0  0  0  0  0
  109.9153  -74.7783  -86.9919 C   0  0  0  0  0  0  0  0  0  0  0  0
  110.2190  -73.4098  -87.1800 C   0  0  0  0  0  0  0  0  0  0  0  0
  109.5788  -72.5358  -88.0604 C   0  0  0  0  0  0  0  0  0  0  0  0
  108.4883  -73.0229  -88.8917 C   0  0  0  0  0  0  0  0  0  0  0  0
  108.2021  -74.3917  -88.6716 C   0  0  0  0  0  0  0  0  0  0  0  0
  108.8136  -75.3023  -87.7989 C   0  0  0  0  0  0  0  0  0  0  0  0
  112.7481  -80.6523  -87.3211 N   0  3  0  0  0  0  0  0  0  0  0  0
  113.4147  -81.5328  -86.3683 C   0  0  0  0  0  0  0  0  0  0  0  0
  112.7003  -81.2526  -88.6725 C   0  0  0  0  0  0  0  0  0  0  0  0
  111.3591  -74.2222  -80.6053 N   0  0  0  0  0  0  0  0  0  0  0  0
  112.0169  -74.9946  -79.5278 C   0  0  0  0  0  0  0  0  0  0  0  0
  110.9124  -72.8721  -80.1105 C   0  0  0  0  0  0  0  0  0  0  0  0
  1  2  1  0  0  0  0
  1 14  1  0  0  0  0
  1 21  2  0  0  0  0
  2  3  2  0  0  0  0
  3  4  1  0  0  0  0
  3 12  1  0  0  0  0
  4  5  1  0  0  0  0
  5  6  1  0  0  0  0
  5 10  2  0  0  0  0
  6  7  2  0  0  0  0
  7  8  1  0  0  0  0
  7 24  1  0  0  0  0
  8  9  2  0  0  0  0
  9 10  1  0  0  0  0
 10 11  1  0  0  0  0
 11 12  2  0  0  0  0
 11 15  1  0  0  0  0
 12 13  1  0  0  0  0
 13 14  2  0  0  0  0
 15 16  2  0  0  0  0
 15 20  1  0  0  0  0
 16 17  1  0  0  0  0
 17 18  2  0  0  0  0
 18 19  1  0  0  0  0
 19 20  2  0  0  0  0
 21 22  1  0  0  0  0
 21 23  1  0  0  0  0
 24 25  1  0  0  0  0
 24 26  1  0  0  0  0
M  CHG  1  21   1
M  END
>  <CHROM.1>
-3.18633379,52.27062775,111.07060630,-76.21793467,-85.32386144,-1.27527669
-1.05662157,1.05281599

>  <Name>
1f1t Malachite green aptamer (Xray 2.8A)

>  <RI>
0

>  <Rbt.Current_Directory>
/home/itssahil/PROJECTS/Mol_Feturizer/New_Systems/rnas/1f1t

>  <Rbt.Executable>
rbdock ($Id: //depot/dev/client3/rdock/2013.1/src/exe/rbdock.cxx#4 $)

>  <Rbt.Library>
libRbt.so (2013.1, Build901 2013/11/27)

>  <Rbt.Parameter_File>
/export/apps/rDock/src/rDock_2013.1_src/data/scripts/dock_solv.prm

>  <Rbt.Receptor>
prm/pocket_docking_4.prm

>  <SCORE>
-63.0763

>  <SCORE.INTER>
-63.1259

>  <SCORE.INTER.CONST>
1

>  <SCORE.INTER.POLAR>
0

>  <SCORE.INTER.ROT>
2

>  <SCORE.INTER.SOLV>
11.1075

>  <SCORE.INTER.VDW>
-50.7197

>  <SCORE.INTER.norm>
-2.42792

>  <SCORE.INTRA>
0.049592

>  <SCORE.INTRA.DIHEDRAL>
-1.16592

>  <SCORE.INTRA.DIHEDRAL.0>
4.18538

>  <SCORE.INTRA.POLAR>
0

>  <SCORE.INTRA.POLAR.0>
0

>  <SCORE.INTRA.REPUL>
0

>  <SCORE.INTRA.REPUL.0>
0

>  <SCORE.INTRA.SOLV>
0.0193863

>  <SCORE.INTRA.SOLV.lig_0>
-5.16926

>  <SCORE.INTRA.VDW>
0.622858

>  <SCORE.INTRA.VDW.0>
1.11912

>  <SCORE.INTRA.norm>
0.00190739

>  <SCORE.RESTR>
0

>  <SCORE.RESTR.CAVITY>
0

>  <SCORE.RESTR.norm>
0

>  <SCORE.SYSTEM>
0

>  <SCORE.SYSTEM.CONST>
0

>  <SCORE.SYSTEM.DIHEDRAL>
0

>  <SCORE.SYSTEM.SOLV>
0

>  <SCORE.SYSTEM.norm>
0

>  <SCORE.heavy>
26

>  <SCORE.norm>
-2.42601

>  <RMSD>
6.133

$$$$
1f1t Malachite green aptamer (Xray 2.8A)
 OpenBabel11021811393D
libRbt.so/2013.1/901 2013/11/27
 26 29  0  0  0  0  0  0  0  0999 V2000
  112.2177  -79.4145  -86.9633 C   0  0  0  0  0  0  0  0  0  0  0  0
  112.3512  -78.9572  -85.5880 C   0  0  0  0  0  0  0  0  0  0  0  0
  111.7883  -77.6978  -85.3727 C   0  0  0  0  0  0  0  0  0  0  0  0
  111.9515  -77.2799  -83.9520 O   0  0  0  0  0  0  0  0  0  0  0  0
  111.4252  -76.1332  -83.7622 C   0  0  0  0  0  0  0  0  0  0  0  0
  111.6461  -75.8100  -82.3528 C   0  0  0  0  0  0  0  0  0  0  0  0
  111.1042  -74.5379  -81.9507 C   0  0  0  0  0  0  0  0  0  0  0  0
  110.4087  -73.6865  -82.8445 C   0  0  0  0  0  0  0  0  0  0  0  0
  110.2310  -74.0618  -84.2350 C   0  0  0  0  0  0  0  0  0  0  0  0
  110.7784  -75.3255  -84.6635 C   0  0  0  0  0  0  0  0  0  0  0  0
  110.5631  -75.6308  -86.1272 C   0  0  0  0  0  0  0  0  0  0  0  0
  111.1485  -76.8963  -86.3117 C   0  0  0  0  0  0  0  0  0  0  0  0
  111.0305  -77.3712  -87.6921 C   0  0  0  0  0  0  0  0  0  0  0  0
  111.5963  -78.6601  -87.9393 C   0  0  0  0  0  0  0  0  0  0  0  0
  109.9104  -74.7702  -86.9894 C   0  0  0  0  0  0  0  0  0  0  0  0
  110.2195  -73.4024  -87.1740 C   0  0  0  0  0  0  0  0  0  0  0  0
  109.5829  -72.5236  -88.0523 C   0  0  0  0  0  0  0  0  0  0  0  0
  108.4905  -73.0044  -88.8849 C   0  0  0  0  0  0  0  0  0  0  0  0
  108.1988  -74.3726  -88.6682 C   0  0  0  0  0  0  0  0  0  0  0  0
  108.8067  -75.2877  -87.7977 C   0  0  0  0  0  0  0  0  0  0  0  0
  112.7238  -80.6526  -87.3341 N   0  3  0  0  0  0  0  0  0  0  0  0
  113.3868  -81.5382  -86.3835 C   0  0  0  0  0  0  0  0  0  0  0  0
  112.6749  -81.2487  -88.6874 C   0  0  0  0  0  0  0  0  0  0  0  0
  111.3516  -74.2379  -80.6001 N   0  0  0  0  0  0  0  0  0  0  0  0
  112.0237  -75.0076  -79.5296 C   0  0  0  0  0  0  0  0  0  0  0  0
  110.8876  -72.8973  -80.0956 C   0  0  0  0  0  0  0  0  0  0  0  0
  1  2  1  0  0  0  0
  1 14  1  0  0  0  0
  1 21  2  0  0  0  0
  2  3  2  0  0  0  0
  3  4  1  0  0  0  0
  3 12  1  0  0  0  0
  4  5  1  0  0  0  0
  5  6  1  0  0  0  0
  5 10  2  0  0  0  0
  6  7  2  0  0  0  0
  7  8  1  0  0  0  0
  7 24  1  0  0  0  0
  8  9  2  0  0  0  0
  9 10  1  0  0  0  0
 10 11  1  0  0  0  0
 11 12  2  0  0  0  0
 11 15  1  0  0  0  0
 12 13  1  0  0  0  0
 13 14  2  0  0  0  0
 15 16  2  0  0  0  0
 15 20  1  0  0  0  0
 16 17  1  0  0  0  0
 17 18  2  0  0  0  0
 18 19  1  0  0  0  0
 19 20  2  0  0  0  0
 21 22  1  0  0  0  0
 21 23  1  0  0  0  0
 24 25  1  0  0  0  0
 24 26  1  0  0  0  0
M  CHG  1  21   1
M  END
>  <CHROM.1>
-2.14689292,52.32999848,111.05954883,-76.21863760,-85.32477039,-1.27714522
-1.05954239,1.05420016

>  <Name>
1f1t Malachite green aptamer (Xray 2.8A)

>  <RI>
0

>  <Rbt.Current_Directory>
/home/itssahil/PROJECTS/Mol_Feturizer/New_Systems/rnas/1f1t

>  <Rbt.Executable>
rbdock ($Id: //depot/dev/client3/rdock/2013.1/src/exe/rbdock.cxx#4 $)

>  <Rbt.Library>
libRbt.so (2013.1, Build901 2013/11/27)

>  <Rbt.Parameter_File>
/export/apps/rDock/src/rDock_2013.1_src/data/scripts/dock_solv.prm

>  <Rbt.Receptor>
prm/pocket_docking_4.prm

>  <SCORE>
-63.0431

>  <SCORE.INTER>
-63.0874

>  <SCORE.INTER.CONST>
1

>  <SCORE.INTER.POLAR>
0

>  <SCORE.INTER.ROT>
2

>  <SCORE.INTER.SOLV>
11.0916

>  <SCORE.INTER.VDW>
-50.6888

>  <SCORE.INTER.norm>
-2.42644

>  <SCORE.INTRA>
0.044288

>  <SCORE.INTRA.DIHEDRAL>
-1.18381

>  <SCORE.INTRA.DIHEDRAL.0>
4.18538

>  <SCORE.INTRA.POLAR>
0

>  <SCORE.INTRA.POLAR.0>
0

>  <SCORE.INTRA.REPUL>
0

>  <SCORE.INTRA.REPUL.0>
0

>  <SCORE.INTRA.SOLV>
0.019325

>  <SCORE.INTRA.SOLV.lig_0>
-5.16926

>  <SCORE.INTRA.VDW>
0.62653

>  <SCORE.INTRA.VDW.0>
1.11912

>  <SCORE.INTRA.norm>
0.00170338

>  <SCORE.RESTR>
0

>  <SCORE.RESTR.CAVITY>
0

>  <SCORE.RESTR.norm>
0

>  <SCORE.SYSTEM>
0

>  <SCORE.SYSTEM.CONST>
0

>  <SCORE.SYSTEM.DIHEDRAL>
0

>  <SCORE.SYSTEM.SOLV>
0

>  <SCORE.SYSTEM.norm>
0

>  <SCORE.heavy>
26

>  <SCORE.norm>
-2.42474

>  <RMSD>
6.133

$$$$
1f1t Malachite green aptamer (Xray 2.8A)
 OpenBabel11021811393D
libRbt.so/2013.1/901 2013/11/27
 26 29  0  0  0  0  0  0  0  0999 V2000
  112.2528  -79.4290  -86.9578 C   0  0  0  0  0  0  0  0  0  0  0  0
  112.3705  -78.9745  -85.5801 C   0  0  0  0  0  0  0  0  0  0  0  0
  111.8020  -77.7171  -85.3679 C   0  0  0  0  0  0  0  0  0  0  0  0
  111.9490  -77.3020  -83.9446 O   0  0  0  0  0  0  0  0  0  0  0  0
  111.4177  -76.1571  -83.7578 C   0  0  0  0  0  0  0  0  0  0  0  0
  111.6227  -75.8366  -82.3454 C   0  0  0  0  0  0  0  0  0  0  0  0
  111.0732  -74.5669  -81.9461 C   0  0  0  0  0  0  0  0  0  0  0  0
  110.3849  -73.7153  -82.8453 C   0  0  0  0  0  0  0  0  0  0  0  0
  110.2230  -74.0878  -84.2384 C   0  0  0  0  0  0  0  0  0  0  0  0
  110.7783  -75.3491  -84.6640 C   0  0  0  0  0  0  0  0  0  0  0  0
  110.5793  -75.6515  -86.1306 C   0  0  0  0  0  0  0  0  0  0  0  0
  111.1700  -76.9151  -86.3118 C   0  0  0  0  0  0  0  0  0  0  0  0
  111.0680  -77.3871  -87.6944 C   0  0  0  0  0  0  0  0  0  0  0  0
  111.6397  -78.6739  -87.9386 C   0  0  0  0  0  0  0  0  0  0  0  0
  109.9335  -74.7907  -86.9977 C   0  0  0  0  0  0  0  0  0  0  0  0
  110.2385  -73.4208  -87.1732 C   0  0  0  0  0  0  0  0  0  0  0  0
  109.6089  -72.5416  -88.0561 C   0  0  0  0  0  0  0  0  0  0  0  0
  108.5293  -73.0242  -88.9043 C   0  0  0  0  0  0  0  0  0  0  0  0
  108.2414  -74.3946  -88.6965 C   0  0  0  0  0  0  0  0  0  0  0  0
  108.8425  -75.3102  -87.8219 C   0  0  0  0  0  0  0  0  0  0  0  0
  112.7661  -80.6648  -87.3260 N   0  3  0  0  0  0  0  0  0  0  0  0
  113.4213  -81.5508  -86.3705 C   0  0  0  0  0  0  0  0  0  0  0  0
  112.7331  -81.2579  -88.6811 C   0  0  0  0  0  0  0  0  0  0  0  0
  111.3055  -74.2693  -80.5923 N   0  0  0  0  0  0  0  0  0  0  0  0
  111.9378  -75.0536  -79.5082 C   0  0  0  0  0  0  0  0  0  0  0  0
  110.8697  -72.9150  -80.0996 C   0  0  0  0  0  0  0  0  0  0  0  0
  1  2  1  0  0  0  0
  1 14  1  0  0  0  0
  1 21  2  0  0  0  0
  2  3  2  0  0  0  0
  3  4  1  0  0  0  0
  3 12  1  0  0  0  0
  4  5  1  0  0  0  0
  5  6  1  0  0  0  0
  5 10  2  0  0  0  0
  6  7  2  0  0  0  0
  7  8  1  0  0  0  0
  7 24  1  0  0  0  0
  8  9  2  0  0  0  0
  9 10  1  0  0  0  0
 10 11  1  0  0  0  0
 11 12  2  0  0  0  0
 11 15  1  0  0  0  0
 12 13  1  0  0  0  0
 13 14  2  0  0  0  0
 15 16  2  0  0  0  0
 15 20  1  0  0  0  0
 16 17  1  0  0  0  0
 17 18  2  0  0  0  0
 18 19  1  0  0  0  0
 19 20  2  0  0  0  0
 21 22  1  0  0  0  0
 21 23  1  0  0  0  0
 24 25  1  0  0  0  0
 24 26  1  0  0  0  0
M  CHG  1  21   1
M  END
>  <CHROM.1>
-3.93327276,52.14237641,111.06912609,-76.23984716,-85.32442424,-1.25600431
-1.06292880,1.07491008

>  <Name>
1f1t Malachite green aptamer (Xray 2.8A)

>  <RI>
0

>  <Rbt.Current_Directory>
/home/itssahil/PROJECTS/Mol_Feturizer/New_Systems/rnas/1f1t

>  <Rbt.Executable>
rbdock ($Id: //depot/dev/client3/rdock/2013.1/src/exe/rbdock.cxx#4 $)

>  <Rbt.Library>
libRbt.so (2013.1, Build901 2013/11/27)

>  <Rbt.Parameter_File>
/export/apps/rDock/src/rDock_2013.1_src/data/scripts/dock_solv.prm

>  <Rbt.Receptor>
prm/pocket_docking_5.prm

>  <SCORE>
-62.9728

>  <SCORE.INTER>
-63.0291

>  <SCORE.INTER.CONST>
1

>  <SCORE.INTER.POLAR>
0

>  <SCORE.INTER.ROT>
2

>  <SCORE.INTER.SOLV>
11.0739

>  <SCORE.INTER.VDW>
-50.644

>  <SCORE.INTER.norm>
-2.4242

>  <SCORE.INTRA>
0.0563035

>  <SCORE.INTRA.DIHEDRAL>
-1.15486

>  <SCORE.INTRA.DIHEDRAL.0>
4.18538

>  <SCORE.INTRA.POLAR>
0

>  <SCORE.INTRA.POLAR.0>
0

>  <SCORE.INTRA.REPUL>
0

>  <SCORE.INTRA.REPUL.0>
0

>  <SCORE.INTRA.SOLV>
0.0195253

>  <SCORE.INTRA.SOLV.lig_0>
-5.16926

>  <SCORE.INTRA.VDW>
0.623971

>  <SCORE.INTRA.VDW.0>
1.11912

>  <SCORE.INTRA.norm>
0.00216552

>  <SCORE.RESTR>
0

>  <SCORE.RESTR.CAVITY>
0

>  <SCORE.RESTR.norm>
0

>  <SCORE.SYSTEM>
0

>  <SCORE.SYSTEM.CONST>
0

>  <SCORE.SYSTEM.DIHEDRAL>
0

>  <SCORE.SYSTEM.SOLV>
0

>  <SCORE.SYSTEM.norm>
0

>  <SCORE.heavy>
26

>  <SCORE.norm>
-2.42203

>  <RMSD>
6.133

$$$$
1f1t Malachite green aptamer (Xray 2.8A)
 OpenBabel11021811393D
libRbt.so/2013.1/901 2013/11/27
 26 29  0  0  0  0  0  0  0  0999 V2000
  112.2387  -79.3999  -86.9543 C   0  0  0  0  0  0  0  0  0  0  0  0
  112.3665  -78.9422  -85.5786 C   0  0  0  0  0  0  0  0  0  0  0  0
  111.7989  -77.6846  -85.3651 C   0  0  0  0  0  0  0  0  0  0  0  0
  111.9564  -77.2660  -83.9440 O   0  0  0  0  0  0  0  0  0  0  0  0
  111.4258  -76.1210  -83.7558 C   0  0  0  0  0  0  0  0  0  0  0  0
  111.6413  -75.7971  -82.3457 C   0  0  0  0  0  0  0  0  0  0  0  0
  111.0941  -74.5267  -81.9453 C   0  0  0  0  0  0  0  0  0  0  0  0
  110.3984  -73.6777  -82.8413 C   0  0  0  0  0  0  0  0  0  0  0  0
  110.2262  -74.0536  -84.2323 C   0  0  0  0  0  0  0  0  0  0  0  0
  110.7790  -75.3155  -84.6591 C   0  0  0  0  0  0  0  0  0  0  0  0
  110.5692  -75.6216  -86.1234 C   0  0  0  0  0  0  0  0  0  0  0  0
  111.1593  -76.8852  -86.3060 C   0  0  0  0  0  0  0  0  0  0  0  0
  111.0470  -77.3605  -87.6868 C   0  0  0  0  0  0  0  0  0  0  0  0
  111.6177  -78.6476  -87.9322 C   0  0  0  0  0  0  0  0  0  0  0  0
  109.9162  -74.7632  -86.9876 C   0  0  0  0  0  0  0  0  0  0  0  0
  110.2348  -73.3996  -87.1867 C   0  0  0  0  0  0  0  0  0  0  0  0
  109.5980  -72.5233  -88.0672 C   0  0  0  0  0  0  0  0  0  0  0  0
  108.4949  -73.0023  -88.8865 C   0  0  0  0  0  0  0  0  0  0  0  0
  108.1940  -74.3662  -88.6556 C   0  0  0  0  0  0  0  0  0  0  0  0
  108.8017  -75.2787  -87.7822 C   0  0  0  0  0  0  0  0  0  0  0  0
  112.7500  -80.6363  -87.3235 N   0  3  0  0  0  0  0  0  0  0  0  0
  113.4130  -81.5197  -86.3708 C   0  0  0  0  0  0  0  0  0  0  0  0
  112.7071  -81.2327  -88.6768 C   0  0  0  0  0  0  0  0  0  0  0  0
  111.3364  -74.2258  -80.5941 N   0  0  0  0  0  0  0  0  0  0  0  0
  112.0035  -74.9953  -79.5202 C   0  0  0  0  0  0  0  0  0  0  0  0
  110.8717  -72.8844  -80.0925 C   0  0  0  0  0  0  0  0  0  0  0  0
  1  2  1  0  0  0  0
  1 14  1  0  0  0  0
  1 21  2  0  0  0  0
  2  3  2  0  0  0  0
  3  4  1  0  0  0  0
  3 12  1  0  0  0  0
  4  5  1  0  0  0  0
  5  6  1  0  0  0  0
  5 10  2  0  0  0  0
  6  7  2  0  0  0  0
  7  8  1  0  0  0  0
  7 24  1  0  0  0  0
  8  9  2  0  0  0  0
  9 10  1  0  0  0  0
 10 11  1  0  0  0  0
 11 12  2  0  0  0  0
 11 15  1  0  0  0  0
 12 13  1  0  0  0  0
 13 14  2  0  0  0  0
 15 16  2  0  0  0  0
 15 20  1  0  0  0  0
 16 17  1  0  0  0  0
 17 18  2  0  0  0  0
 18 19  1  0  0  0  0
 19 20  2  0  0  0  0
 21 22  1  0  0  0  0
 21 23  1  0  0  0  0
 24 25  1  0  0  0  0
 24 26  1  0  0  0  0
M  CHG  1  21   1
M  END
>  <CHROM.1>
-2.40454253,53.37327892,111.06500242,-76.20777742,-85.31934061,-1.26832629
-1.05812943,1.06173894

>  <Name>
1f1t Malachite green aptamer (Xray 2.8A)

>  <RI>
0

>  <Rbt.Current_Directory>
/home/itssahil/PROJECTS/Mol_Feturizer/New_Systems/rnas/1f1t

>  <Rbt.Executable>
rbdock ($Id: //depot/dev/client3/rdock/2013.1/src/exe/rbdock.cxx#4 $)

>  <Rbt.Library>
libRbt.so (2013.1, Build901 2013/11/27)

>  <Rbt.Parameter_File>
/export/apps/rDock/src/rDock_2013.1_src/data/scripts/dock_solv.prm

>  <Rbt.Receptor>
prm/pocket_docking_6.prm

>  <SCORE>
-63.042

>  <SCORE.INTER>
-63.0832

>  <SCORE.INTER.CONST>
1

>  <SCORE.INTER.POLAR>
0

>  <SCORE.INTER.ROT>
2

>  <SCORE.INTER.SOLV>
11.1152

>  <SCORE.INTER.VDW>
-50.6939

>  <SCORE.INTER.norm>
-2.42628

>  <SCORE.INTRA>
0.0412797

>  <SCORE.INTRA.DIHEDRAL>
-1.09456

>  <SCORE.INTRA.DIHEDRAL.0>
4.18538

>  <SCORE.INTRA.POLAR>
0

>  <SCORE.INTRA.POLAR.0>
0

>  <SCORE.INTRA.REPUL>
0

>  <SCORE.INTRA.REPUL.0>
0

>  <SCORE.INTRA.SOLV>
0.0181495

>  <SCORE.INTRA.SOLV.lig_0>
-5.16926

>  <SCORE.INTRA.VDW>
0.579483

>  <SCORE.INTRA.VDW.0>
1.11912

>  <SCORE.INTRA.norm>
0.00158768

>  <SCORE.RESTR>
0

>  <SCORE.RESTR.CAVITY>
0

>  <SCORE.RESTR.norm>
0

>  <SCORE.SYSTEM>
0

>  <SCORE.SYSTEM.CONST>
0

>  <SCORE.SYSTEM.DIHEDRAL>
0

>  <SCORE.SYSTEM.SOLV>
0

>  <SCORE.SYSTEM.norm>
0

>  <SCORE.heavy>
26

>  <SCORE.norm>
-2.42469

>  <RMSD>
6.133

$$$$
1f1t Malachite green aptamer (Xray 2.8A)
 OpenBabel11021811393D
libRbt.so/2013.1/901 2013/11/27
 26 29  0  0  0  0  0  0  0  0999 V2000
  112.2353  -79.4470  -86.8952 C   0  0  0  0  0  0  0  0  0  0  0  0
  112.3559  -78.9525  -85.5317 C   0  0  0  0  0  0  0  0  0  0  0  0
  111.7703  -77.6980  -85.3505 C   0  0  0  0  0  0  0  0  0  0  0  0
  111.9212  -77.2411  -83.9405 O   0  0  0  0  0  0  0  0  0  0  0  0
  111.3743  -76.0994  -83.7817 C   0  0  0  0  0  0  0  0  0  0  0  0
  111.5846  -75.7364  -82.3804 C   0  0  0  0  0  0  0  0  0  0  0  0
  111.0192  -74.4642  -82.0126 C   0  0  0  0  0  0  0  0  0  0  0  0
  110.3119  -73.6483  -82.9300 C   0  0  0  0  0  0  0  0  0  0  0  0
  110.1457  -74.0620  -84.3110 C   0  0  0  0  0  0  0  0  0  0  0  0
  110.7166  -75.3265  -84.7053 C   0  0  0  0  0  0  0  0  0  0  0  0
  110.5118  -75.6728  -86.1614 C   0  0  0  0  0  0  0  0  0  0  0  0
  111.1199  -76.9321  -86.3116 C   0  0  0  0  0  0  0  0  0  0  0  0
  111.0150  -77.4441  -87.6797 C   0  0  0  0  0  0  0  0  0  0  0  0
  111.6041  -78.7288  -87.8921 C   0  0  0  0  0  0  0  0  0  0  0  0
  109.8471  -74.8461  -87.0473 C   0  0  0  0  0  0  0  0  0  0  0  0
  108.7754  -75.2333  -87.8851 C   0  0  0  0  0  0  0  0  0  0  0  0
  108.0817  -74.4084  -88.7723 C   0  0  0  0  0  0  0  0  0  0  0  0
  108.4506  -73.0054  -88.8880 C   0  0  0  0  0  0  0  0  0  0  0  0
  109.5324  -72.6530  -88.0458 C   0  0  0  0  0  0  0  0  0  0  0  0
  110.2582  -73.4459  -87.1462 C   0  0  0  0  0  0  0  0  0  0  0  0
  112.7642  -80.6851  -87.2327 N   0  3  0  0  0  0  0  0  0  0  0  0
  113.4393  -81.5343  -86.2577 C   0  0  0  0  0  0  0  0  0  0  0  0
  112.7305  -81.3163  -88.5704 C   0  0  0  0  0  0  0  0  0  0  0  0
  111.2566  -74.1254  -80.6694 N   0  0  0  0  0  0  0  0  0  0  0  0
  111.8835  -74.8803  -79.5615 C   0  0  0  0  0  0  0  0  0  0  0  0
  110.8342  -72.7519  -80.2199 C   0  0  0  0  0  0  0  0  0  0  0  0
  1  2  1  0  0  0  0
  1 14  1  0  0  0  0
  1 21  2  0  0  0  0
  2  3  2  0  0  0  0
  3  4  1  0  0  0  0
  3 12  1  0  0  0  0
  4  5  1  0  0  0  0
  5  6  1  0  0  0  0
  5 10  2  0  0  0  0
  6  7  2  0  0  0  0
  7  8  1  0  0  0  0
  7 24  1  0  0  0  0
  8  9  2  0  0  0  0
  9 10  1  0  0  0  0
 10 11  1  0  0  0  0
 11 12  2  0  0  0  0
 11 15  1  0  0  0  0
 12 13  1  0  0  0  0
 13 14  2  0  0  0  0
 15 16  2  0  0  0  0
 15 20  1  0  0  0  0
 16 17  1  0  0  0  0
 17 18  2  0  0  0  0
 18 19  1  0  0  0  0
 19 20  2  0  0  0  0
 21 22  1  0  0  0  0
 21 23  1  0  0  0  0
 24 25  1  0  0  0  0
 24 26  1  0  0  0  0
M  CHG  1  21   1
M  END
>  <CHROM.1>
-5.36840990,-127.95480234,111.02330008,-76.21407655,-85.33236883,-1.23485614
-1.05104678,1.05079874

>  <Name>
1f1t Malachite green aptamer (Xray 2.8A)

>  <RI>
0

>  <Rbt.Current_Directory>
/home/itssahil/PROJECTS/Mol_Feturizer/New_Systems/rnas/1f1t

>  <Rbt.Executable>
rbdock ($Id: //depot/dev/client3/rdock/2013.1/src/exe/rbdock.cxx#4 $)

>  <Rbt.Library>
libRbt.so (2013.1, Build901 2013/11/27)

>  <Rbt.Parameter_File>
/export/apps/rDock/src/rDock_2013.1_src/data/scripts/dock_solv.prm

>  <Rbt.Receptor>
prm/pocket_docking_6.prm

>  <SCORE>
-62.1809

>  <SCORE.INTER>
-62.4458

>  <SCORE.INTER.CONST>
1

>  <SCORE.INTER.POLAR>
0

>  <SCORE.INTER.ROT>
2

>  <SCORE.INTER.SOLV>
11.1405

>  <SCORE.INTER.VDW>
-50.2774

>  <SCORE.INTER.norm>
-2.40176

>  <SCORE.INTRA>
0.264948

>  <SCORE.INTRA.DIHEDRAL>
-1.10941

>  <SCORE.INTRA.DIHEDRAL.0>
4.18538

>  <SCORE.INTRA.POLAR>
0

>  <SCORE.INTRA.POLAR.0>
0

>  <SCORE.INTRA.REPUL>
0

>  <SCORE.INTRA.REPUL.0>
0

>  <SCORE.INTRA.SOLV>
0.0196716

>  <SCORE.INTRA.SOLV.lig_0>
-5.16926

>  <SCORE.INTRA.VDW>
0.809816

>  <SCORE.INTRA.VDW.0>
1.11912

>  <SCORE.INTRA.norm>
0.0101903

>  <SCORE.RESTR>
0

>  <SCORE.RESTR.CAVITY>
0

>  <SCORE.RESTR.norm>
0

>  <SCORE.SYSTEM>
0

>  <SCORE.SYSTEM.CONST>
0

>  <SCORE.SYSTEM.DIHEDRAL>
0

>  <SCORE.SYSTEM.SOLV>
0

>  <SCORE.SYSTEM.norm>
0

>  <SCORE.heavy>
26

>  <SCORE.norm>
-2.39157

>  <RMSD>
6.133

$$$$
1f1t Malachite green aptamer (Xray 2.8A)
 OpenBabel11021811393D
libRbt.so/2013.1/901 2013/11/27
 26 29  0  0  0  0  0  0  0  0999 V2000
  112.2333  -79.4445  -86.8955 C   0  0  0  0  0  0  0  0  0  0  0  0
  112.3536  -78.9502  -85.5319 C   0  0  0  0  0  0  0  0  0  0  0  0
  111.7682  -77.6957  -85.3506 C   0  0  0  0  0  0  0  0  0  0  0  0
  111.9186  -77.2390  -83.9405 O   0  0  0  0  0  0  0  0  0  0  0  0
  111.3719  -76.0972  -83.7817 C   0  0  0  0  0  0  0  0  0  0  0  0
  111.5817  -75.7346  -82.3802 C   0  0  0  0  0  0  0  0  0  0  0  0
  111.0164  -74.4623  -82.0124 C   0  0  0  0  0  0  0  0  0  0  0  0
  110.3096  -73.6461  -82.9300 C   0  0  0  0  0  0  0  0  0  0  0  0
  110.1438  -74.0595  -84.3110 C   0  0  0  0  0  0  0  0  0  0  0  0
  110.7147  -75.3240  -84.7054 C   0  0  0  0  0  0  0  0  0  0  0  0
  110.5103  -75.6701  -86.1616 C   0  0  0  0  0  0  0  0  0  0  0  0
  111.1182  -76.9295  -86.3118 C   0  0  0  0  0  0  0  0  0  0  0  0
  111.0138  -77.4412  -87.6801 C   0  0  0  0  0  0  0  0  0  0  0  0
  111.6027  -78.7259  -87.8926 C   0  0  0  0  0  0  0  0  0  0  0  0
  109.8461  -74.8431  -87.0476 C   0  0  0  0  0  0  0  0  0  0  0  0
  108.7649  -75.2261  -87.8751 C   0  0  0  0  0  0  0  0  0  0  0  0
  108.0717  -74.4006  -88.7621 C   0  0  0  0  0  0  0  0  0  0  0  0
  108.4517  -73.0016  -88.8892 C   0  0  0  0  0  0  0  0  0  0  0  0
  109.5427  -72.6534  -88.0572 C   0  0  0  0  0  0  0  0  0  0  0  0
  110.2684  -73.4471  -87.1581 C   0  0  0  0  0  0  0  0  0  0  0  0
  112.7622  -80.6825  -87.2330 N   0  3  0  0  0  0  0  0  0  0  0  0
  113.4367  -81.5321  -86.2580 C   0  0  0  0  0  0  0  0  0  0  0  0
  112.7288  -81.3135  -88.5708 C   0  0  0  0  0  0  0  0  0  0  0  0
  111.2533  -74.1238  -80.6691 N   0  0  0  0  0  0  0  0  0  0  0  0
  111.8923  -74.8737  -79.5647 C   0  0  0  0  0  0  0  0  0  0  0  0
  110.8157  -72.7566  -80.2152 C   0  0  0  0  0  0  0  0  0  0  0  0
  1  2  1  0  0  0  0
  1 14  1  0  0  0  0
  1 21  2  0  0  0  0
  2  3  2  0  0  0  0
  3  4  1  0  0  0  0
  3 12  1  0  0  0  0
  4  5  1  0  0  0  0
  5  6  1  0  0  0  0
  5 10  2  0  0  0  0
  6  7  2  0  0  0  0
  7  8  1  0  0  0  0
  7 24  1  0  0  0  0
  8  9  2  0  0  0  0
  9 10  1  0  0  0  0
 10 11  1  0  0  0  0
 11 12  2  0  0  0  0
 11 15  1  0  0  0  0
 12 13  1  0  0  0  0
 13 14  2  0  0  0  0
 15 16  2  0  0  0  0
 15 20  1  0  0  0  0
 16 17  1  0  0  0  0
 17 18  2  0  0  0  0
 18 19  1  0  0  0  0
 19 20  2  0  0  0  0
 21 22  1  0  0  0  0
 21 23  1  0  0  0  0
 24 25  1  0  0  0  0
 24 26  1  0  0  0  0
M  CHG  1  21   1
M  END
>  <CHROM.1>
-4.63574477,-127.20687974,111.02139081,-76.21161135,-85.33256718,-1.23405279
-1.05123478,1.05172402

>  <Name>
1f1t Malachite green aptamer (Xray 2.8A)

>  <RI>
0

>  <Rbt.Current_Directory>
/home/itssahil/PROJECTS/Mol_Feturizer/New_Systems/rnas/1f1t

>  <Rbt.Executable>
rbdock ($Id: //depot/dev/client3/rdock/2013.1/src/exe/rbdock.cxx#4 $)

>  <Rbt.Library>
libRbt.so (2013.1, Build901 2013/11/27)

>  <Rbt.Parameter_File>
/export/apps/rDock/src/rDock_2013.1_src/data/scripts/dock_solv.prm

>  <Rbt.Receptor>
prm/pocket_docking_6.prm

>  <SCORE>
-62.1507

>  <SCORE.INTER>
-62.3799

>  <SCORE.INTER.CONST>
1

>  <SCORE.INTER.POLAR>
0

>  <SCORE.INTER.ROT>
2

>  <SCORE.INTER.SOLV>
11.1467

>  <SCORE.INTER.VDW>
-50.2355

>  <SCORE.INTER.norm>
-2.39923

>  <SCORE.INTRA>
0.229188

>  <SCORE.INTRA.DIHEDRAL>
-1.07788

>  <SCORE.INTRA.DIHEDRAL.0>
4.18538

>  <SCORE.INTRA.POLAR>
0

>  <SCORE.INTRA.POLAR.0>
0

>  <SCORE.INTRA.REPUL>
0

>  <SCORE.INTRA.REPUL.0>
0

>  <SCORE.INTRA.SOLV>
0.0188307

>  <SCORE.INTRA.SOLV.lig_0>
-5.16926

>  <SCORE.INTRA.VDW>
0.758714

>  <SCORE.INTRA.VDW.0>
1.11912

>  <SCORE.INTRA.norm>
0.00881492

>  <SCORE.RESTR>
0

>  <SCORE.RESTR.CAVITY>
0

>  <SCORE.RESTR.norm>
0

>  <SCORE.SYSTEM>
0

>  <SCORE.SYSTEM.CONST>
0

>  <SCORE.SYSTEM.DIHEDRAL>
0

>  <SCORE.SYSTEM.SOLV>
0

>  <SCORE.SYSTEM.norm>
0

>  <SCORE.heavy>
26

>  <SCORE.norm>
-2.39041

>  <RMSD>
6.133

$$$$
1f1t Malachite green aptamer (Xray 2.8A)
 OpenBabel11021811393D
libRbt.so/2013.1/901 2013/11/27
 26 29  0  0  0  0  0  0  0  0999 V2000
  112.2145  -79.4488  -86.9225 C   0  0  0  0  0  0  0  0  0  0  0  0
  112.3436  -78.9647  -85.5560 C   0  0  0  0  0  0  0  0  0  0  0  0
  111.7667  -77.7079  -85.3636 C   0  0  0  0  0  0  0  0  0  0  0  0
  111.9259  -77.2619  -83.9510 O   0  0  0  0  0  0  0  0  0  0  0  0
  111.3869  -76.1179  -83.7821 C   0  0  0  0  0  0  0  0  0  0  0  0
  111.6049  -75.7662  -82.3790 C   0  0  0  0  0  0  0  0  0  0  0  0
  111.0491  -74.4930  -82.0001 C   0  0  0  0  0  0  0  0  0  0  0  0
  110.3435  -73.6662  -82.9090 C   0  0  0  0  0  0  0  0  0  0  0  0
  110.1694  -74.0691  -84.2922 C   0  0  0  0  0  0  0  0  0  0  0  0
  110.7306  -75.3343  -84.6977 C   0  0  0  0  0  0  0  0  0  0  0  0
  110.5180  -75.6690  -86.1553 C   0  0  0  0  0  0  0  0  0  0  0  0
  111.1174  -76.9311  -86.3168 C   0  0  0  0  0  0  0  0  0  0  0  0
  111.0041  -77.4327  -87.6881 C   0  0  0  0  0  0  0  0  0  0  0  0
  111.5841  -78.7196  -87.9118 C   0  0  0  0  0  0  0  0  0  0  0  0
  109.8552  -74.8319  -87.0328 C   0  0  0  0  0  0  0  0  0  0  0  0
  108.7842  -75.2087  -87.8762 C   0  0  0  0  0  0  0  0  0  0  0  0
  108.0923  -74.3732  -88.7549 C   0  0  0  0  0  0  0  0  0  0  0  0
  108.4628  -72.9694  -88.8546 C   0  0  0  0  0  0  0  0  0  0  0  0
  109.5439  -72.6274  -88.0072 C   0  0  0  0  0  0  0  0  0  0  0  0
  110.2678  -73.4311  -87.1156 C   0  0  0  0  0  0  0  0  0  0  0  0
  112.7342  -80.6878  -87.2707 N   0  3  0  0  0  0  0  0  0  0  0  0
  113.4076  -81.5482  -86.3044 C   0  0  0  0  0  0  0  0  0  0  0  0
  112.6913  -81.3093  -88.6127 C   0  0  0  0  0  0  0  0  0  0  0  0
  111.2938  -74.1653  -80.6555 N   0  0  0  0  0  0  0  0  0  0  0  0
  111.9465  -74.9207  -79.5630 C   0  0  0  0  0  0  0  0  0  0  0  0
  110.8498  -72.8055  -80.1856 C   0  0  0  0  0  0  0  0  0  0  0  0
  1  2  1  0  0  0  0
  1 14  1  0  0  0  0
  1 21  2  0  0  0  0
  2  3  2  0  0  0  0
  3  4  1  0  0  0  0
  3 12  1  0  0  0  0
  4  5  1  0  0  0  0
  5  6  1  0  0  0  0
  5 10  2  0  0  0  0
  6  7  2  0  0  0  0
  7  8  1  0  0  0  0
  7 24  1  0  0  0  0
  8  9  2  0  0  0  0
  9 10  1  0  0  0  0
 10 11  1  0  0  0  0
 11 12  2  0  0  0  0
 11 15  1  0  0  0  0
 12 13  1  0  0  0  0
 13 14  2  0  0  0  0
 15 16  2  0  0  0  0
 15 20  1  0  0  0  0
 16 17  1  0  0  0  0
 17 18  2  0  0  0  0
 18 19  1  0  0  0  0
 19 20  2  0  0  0  0
 21 22  1  0  0  0  0
 21 23  1  0  0  0  0
 24 25  1  0  0  0  0
 24 26  1  0  0  0  0
M  CHG  1  21   1
M  END
>  <CHROM.1>
-3.83050315,-128.43945249,111.02891119,-76.21947491,-85.33201297,-1.24772706
-1.05414502,1.04669101

>  <Name>
1f1t Malachite green aptamer (Xray 2.8A)

>  <RI>
0

>  <Rbt.Current_Directory>
/home/itssahil/PROJECTS/Mol_Feturizer/New_Systems/rnas/1f1t

>  <Rbt.Executable>
rbdock ($Id: //depot/dev/client3/rdock/2013.1/src/exe/rbdock.cxx#4 $)

>  <Rbt.Library>
libRbt.so (2013.1, Build901 2013/11/27)

>  <Rbt.Parameter_File>
/export/apps/rDock/src/rDock_2013.1_src/data/scripts/dock_solv.prm

>  <Rbt.Receptor>
prm/pocket_docking_7.prm

>  <SCORE>
-62.0807

>  <SCORE.INTER>
-62.357

>  <SCORE.INTER.CONST>
1

>  <SCORE.INTER.POLAR>
0

>  <SCORE.INTER.ROT>
2

>  <SCORE.INTER.SOLV>
11.1175

>  <SCORE.INTER.VDW>
-50.2105

>  <SCORE.INTER.norm>
-2.39834

>  <SCORE.INTRA>
0.276241

>  <SCORE.INTRA.DIHEDRAL>
-1.20556

>  <SCORE.INTRA.DIHEDRAL.0>
4.18538

>  <SCORE.INTRA.POLAR>
0

>  <SCORE.INTRA.POLAR.0>
0

>  <SCORE.INTRA.REPUL>
0

>  <SCORE.INTRA.REPUL.0>
0

>  <SCORE.INTRA.SOLV>
0.0202294

>  <SCORE.INTRA.SOLV.lig_0>
-5.16926

>  <SCORE.INTRA.VDW>
0.868906

>  <SCORE.INTRA.VDW.0>
1.11912

>  <SCORE.INTRA.norm>
0.0106247

>  <SCORE.RESTR>
0

>  <SCORE.RESTR.CAVITY>
0

>  <SCORE.RESTR.norm>
0

>  <SCORE.SYSTEM>
0

>  <SCORE.SYSTEM.CONST>
0

>  <SCORE.SYSTEM.DIHEDRAL>
0

>  <SCORE.SYSTEM.SOLV>
0

>  <SCORE.SYSTEM.norm>
0

>  <SCORE.heavy>
26

>  <SCORE.norm>
-2.38772

>  <RMSD>
6.133

$$$$
1f1t Malachite green aptamer (Xray 2.8A)
 OpenBabel11021811393D
libRbt.so/2013.1/901 2013/11/27
 26 29  0  0  0  0  0  0  0  0999 V2000
  112.2373  -79.4068  -86.9574 C   0  0  0  0  0  0  0  0  0  0  0  0
  112.3679  -78.9473  -85.5826 C   0  0  0  0  0  0  0  0  0  0  0  0
  111.8002  -77.6896  -85.3694 C   0  0  0  0  0  0  0  0  0  0  0  0
  111.9606  -77.2693  -83.9491 O   0  0  0  0  0  0  0  0  0  0  0  0
  111.4299  -76.1243  -83.7612 C   0  0  0  0  0  0  0  0  0  0  0  0
  111.6484  -75.7985  -82.3520 C   0  0  0  0  0  0  0  0  0  0  0  0
  111.1015  -74.5279  -81.9520 C   0  0  0  0  0  0  0  0  0  0  0  0
  110.4037  -73.6802  -82.8475 C   0  0  0  0  0  0  0  0  0  0  0  0
  110.2286  -74.0579  -84.2376 C   0  0  0  0  0  0  0  0  0  0  0  0
  110.7810  -75.3201  -84.6641 C   0  0  0  0  0  0  0  0  0  0  0  0
  110.5681  -75.6280  -86.1276 C   0  0  0  0  0  0  0  0  0  0  0  0
  111.1583  -76.8916  -86.3099 C   0  0  0  0  0  0  0  0  0  0  0  0
  111.0433  -77.3687  -87.6898 C   0  0  0  0  0  0  0  0  0  0  0  0
  111.6139  -78.6558  -87.9349 C   0  0  0  0  0  0  0  0  0  0  0  0
  109.9130  -74.7709  -86.9914 C   0  0  0  0  0  0  0  0  0  0  0  0
  110.2168  -73.4021  -87.1769 C   0  0  0  0  0  0  0  0  0  0  0  0
  109.5778  -72.5267  -88.0568 C   0  0  0  0  0  0  0  0  0  0  0  0
  108.4884  -73.0127  -88.8904 C   0  0  0  0  0  0  0  0  0  0  0  0
  108.2020  -74.3819  -88.6728 C   0  0  0  0  0  0  0  0  0  0  0  0
  108.8125  -75.2937  -87.8007 C   0  0  0  0  0  0  0  0  0  0  0  0
  112.7482  -80.6434  -87.3262 N   0  3  0  0  0  0  0  0  0  0  0  0
  113.4136  -81.5254  -86.3739 C   0  0  0  0  0  0  0  0  0  0  0  0
  112.7027  -81.2414  -88.6788 C   0  0  0  0  0  0  0  0  0  0  0  0
  111.3466  -74.2253  -80.6016 N   0  0  0  0  0  0  0  0  0  0  0  0
  112.0126  -74.9950  -79.5271 C   0  0  0  0  0  0  0  0  0  0  0  0
  110.8870  -72.8814  -80.1019 C   0  0  0  0  0  0  0  0  0  0  0  0
  1  2  1  0  0  0  0
  1 14  1  0  0  0  0
  1 21  2  0  0  0  0
  2  3  2  0  0  0  0
  3  4  1  0  0  0  0
  3 12  1  0  0  0  0
  4  5  1  0  0  0  0
  5  6  1  0  0  0  0
  5 10  2  0  0  0  0
  6  7  2  0  0  0  0
  7  8  1  0  0  0  0
  7 24  1  0  0  0  0
  8  9  2  0  0  0  0
  9 10  1  0  0  0  0
 10 11  1  0  0  0  0
 11 12  2  0  0  0  0
 11 15  1  0  0  0  0
 12 13  1  0  0  0  0
 13 14  2  0  0  0  0
 15 16  2  0  0  0  0
 15 20  1  0  0  0  0
 16 17  1  0  0  0  0
 17 18  2  0  0  0  0
 18 19  1  0  0  0  0
 19 20  2  0  0  0  0
 21 22  1  0  0  0  0
 21 23  1  0  0  0  0
 24 25  1  0  0  0  0
 24 26  1  0  0  0  0
M  CHG  1  21   1
M  END
>  <CHROM.1>
-2.62175321,52.29064718,111.06606634,-76.21304065,-85.32399339,-1.27203977
-1.05694858,1.05737006

>  <Name>
1f1t Malachite green aptamer (Xray 2.8A)

>  <RI>
0

>  <Rbt.Current_Directory>
/home/itssahil/PROJECTS/Mol_Feturizer/New_Systems/rnas/1f1t

>  <Rbt.Executable>
rbdock ($Id: //depot/dev/client3/rdock/2013.1/src/exe/rbdock.cxx#4 $)

>  <Rbt.Library>
libRbt.so (2013.1, Build901 2013/11/27)

>  <Rbt.Parameter_File>
/export/apps/rDock/src/rDock_2013.1_src/data/scripts/dock_solv.prm

>  <Rbt.Receptor>
prm/pocket_docking_8.prm

>  <SCORE>
-63.0493

>  <SCORE.INTER>
-63.0961

>  <SCORE.INTER.CONST>
1

>  <SCORE.INTER.POLAR>
0

>  <SCORE.INTER.ROT>
2

>  <SCORE.INTER.SOLV>
11.1104

>  <SCORE.INTER.VDW>
-50.7009

>  <SCORE.INTER.norm>
-2.42677

>  <SCORE.INTRA>
0.0467988

>  <SCORE.INTRA.DIHEDRAL>
-1.17767

>  <SCORE.INTRA.DIHEDRAL.0>
4.18538

>  <SCORE.INTRA.POLAR>
0

>  <SCORE.INTRA.POLAR.0>
0

>  <SCORE.INTRA.REPUL>
0

>  <SCORE.INTRA.REPUL.0>
0

>  <SCORE.INTRA.SOLV>
0.0193669

>  <SCORE.INTRA.SOLV.lig_0>
-5.16926

>  <SCORE.INTRA.VDW>
0.62595

>  <SCORE.INTRA.VDW.0>
1.11912

>  <SCORE.INTRA.norm>
0.00179995

>  <SCORE.RESTR>
0

>  <SCORE.RESTR.CAVITY>
0

>  <SCORE.RESTR.norm>
0

>  <SCORE.SYSTEM>
0

>  <SCORE.SYSTEM.CONST>
0

>  <SCORE.SYSTEM.DIHEDRAL>
0

>  <SCORE.SYSTEM.SOLV>
0

>  <SCORE.SYSTEM.norm>
0

>  <SCORE.heavy>
26

>  <SCORE.norm>
-2.42497

>  <RMSD>
6.133

$$$$
1f1t Malachite green aptamer (Xray 2.8A)
 OpenBabel11021811393D
libRbt.so/2013.1/901 2013/11/27
 26 29  0  0  0  0  0  0  0  0999 V2000
  112.2221  -79.4395  -86.8903 C   0  0  0  0  0  0  0  0  0  0  0  0
  112.3421  -78.9454  -85.5265 C   0  0  0  0  0  0  0  0  0  0  0  0
  111.7563  -77.6911  -85.3451 C   0  0  0  0  0  0  0  0  0  0  0  0
  111.9065  -77.2346  -83.9349 O   0  0  0  0  0  0  0  0  0  0  0  0
  111.3595  -76.0930  -83.7760 C   0  0  0  0  0  0  0  0  0  0  0  0
  111.5691  -75.7305  -82.3744 C   0  0  0  0  0  0  0  0  0  0  0  0
  111.0034  -74.4584  -82.0065 C   0  0  0  0  0  0  0  0  0  0  0  0
  110.2965  -73.6423  -82.9240 C   0  0  0  0  0  0  0  0  0  0  0  0
  110.1310  -74.0555  -84.3051 C   0  0  0  0  0  0  0  0  0  0  0  0
  110.7021  -75.3198  -84.6996 C   0  0  0  0  0  0  0  0  0  0  0  0
  110.4980  -75.6657  -86.1559 C   0  0  0  0  0  0  0  0  0  0  0  0
  111.1062  -76.9249  -86.3063 C   0  0  0  0  0  0  0  0  0  0  0  0
  111.0021  -77.4365  -87.6746 C   0  0  0  0  0  0  0  0  0  0  0  0
  111.5913  -78.7210  -87.8872 C   0  0  0  0  0  0  0  0  0  0  0  0
  109.8336  -74.8388  -87.0418 C   0  0  0  0  0  0  0  0  0  0  0  0
  108.7592  -75.2245  -87.8768 C   0  0  0  0  0  0  0  0  0  0  0  0
  108.0658  -74.3992  -88.7639 C   0  0  0  0  0  0  0  0  0  0  0  0
  108.4381  -72.9975  -88.8828 C   0  0  0  0  0  0  0  0  0  0  0  0
  109.5227  -72.6465  -88.0434 C   0  0  0  0  0  0  0  0  0  0  0  0
  110.2482  -73.4398  -87.1440 C   0  0  0  0  0  0  0  0  0  0  0  0
  112.7513  -80.6774  -87.2279 N   0  3  0  0  0  0  0  0  0  0  0  0
  113.4260  -81.5269  -86.2529 C   0  0  0  0  0  0  0  0  0  0  0  0
  112.7182  -81.3082  -88.5658 C   0  0  0  0  0  0  0  0  0  0  0  0
  111.2402  -74.1201  -80.6631 N   0  0  0  0  0  0  0  0  0  0  0  0
  111.8641  -74.8763  -79.5545 C   0  0  0  0  0  0  0  0  0  0  0  0
  110.8206  -72.7455  -80.2142 C   0  0  0  0  0  0  0  0  0  0  0  0
  1  2  1  0  0  0  0
  1 14  1  0  0  0  0
  1 21  2  0  0  0  0
  2  3  2  0  0  0  0
  3  4  1  0  0  0  0
  3 12  1  0  0  0  0
  4  5  1  0  0  0  0
  5  6  1  0  0  0  0
  5 10  2  0  0  0  0
  6  7  2  0  0  0  0
  7  8  1  0  0  0  0
  7 24  1  0  0  0  0
  8  9  2  0  0  0  0
  9 10  1  0  0  0  0
 10 11  1  0  0  0  0
 11 12  2  0  0  0  0
 11 15  1  0  0  0  0
 12 13  1  0  0  0  0
 13 14  2  0  0  0  0
 15 16  2  0  0  0  0
 15 20  1  0  0  0  0
 16 17  1  0  0  0  0
 17 18  2  0  0  0  0
 18 19  1  0  0  0  0
 19 20  2  0  0  0  0
 21 22  1  0  0  0  0
 21 23  1  0  0  0  0
 24 25  1  0  0  0  0
 24 26  1  0  0  0  0
M  CHG  1  21   1
M  END
>  <CHROM.1>
-5.51640563,-127.71248066,111.00922474,-76.20718223,-85.32688252,-1.23398255
-1.05126996,1.05190123

>  <Name>
1f1t Malachite green aptamer (Xray 2.8A)

>  <RI>
0

>  <Rbt.Current_Directory>
/home/itssahil/PROJECTS/Mol_Feturizer/New_Systems/rnas/1f1t

>  <Rbt.Executable>
rbdock ($Id: //depot/dev/client3/rdock/2013.1/src/exe/rbdock.cxx#4 $)

>  <Rbt.Library>
libRbt.so (2013.1, Build901 2013/11/27)

>  <Rbt.Parameter_File>
/export/apps/rDock/src/rDock_2013.1_src/data/scripts/dock_solv.prm

>  <Rbt.Receptor>
prm/pocket_docking_8.prm

>  <SCORE>
-62.1274

>  <SCORE.INTER>
-62.3833

>  <SCORE.INTER.CONST>
1

>  <SCORE.INTER.POLAR>
0

>  <SCORE.INTER.ROT>
2

>  <SCORE.INTER.SOLV>
11.1335

>  <SCORE.INTER.VDW>
-50.2334

>  <SCORE.INTER.norm>
-2.39936

>  <SCORE.INTRA>
0.25588

>  <SCORE.INTRA.DIHEDRAL>
-1.08328

>  <SCORE.INTRA.DIHEDRAL.0>
4.18538

>  <SCORE.INTRA.POLAR>
0

>  <SCORE.INTRA.POLAR.0>
0

>  <SCORE.INTRA.REPUL>
0

>  <SCORE.INTRA.REPUL.0>
0

>  <SCORE.INTRA.SOLV>
0.0193965

>  <SCORE.INTRA.SOLV.lig_0>
-5.16926

>  <SCORE.INTRA.VDW>
0.787822

>  <SCORE.INTRA.VDW.0>
1.11912

>  <SCORE.INTRA.norm>
0.00984154

>  <SCORE.RESTR>
0

>  <SCORE.RESTR.CAVITY>
0

>  <SCORE.RESTR.norm>
0

>  <SCORE.SYSTEM>
0

>  <SCORE.SYSTEM.CONST>
0

>  <SCORE.SYSTEM.DIHEDRAL>
0

>  <SCORE.SYSTEM.SOLV>
0

>  <SCORE.SYSTEM.norm>
0

>  <SCORE.heavy>
26

>  <SCORE.norm>
-2.38952

>  <RMSD>
6.133

$$$$
1f1t Malachite green aptamer (Xray 2.8A)
 OpenBabel11021811393D
libRbt.so/2013.1/901 2013/11/27
 26 29  0  0  0  0  0  0  0  0999 V2000
  112.2402  -79.4085  -86.9660 C   0  0  0  0  0  0  0  0  0  0  0  0
  112.3695  -78.9492  -85.5910 C   0  0  0  0  0  0  0  0  0  0  0  0
  111.8027  -77.6910  -85.3785 C   0  0  0  0  0  0  0  0  0  0  0  0
  111.9617  -77.2709  -83.9580 O   0  0  0  0  0  0  0  0  0  0  0  0
  111.4319  -76.1254  -83.7707 C   0  0  0  0  0  0  0  0  0  0  0  0
  111.6489  -75.7999  -82.3612 C   0  0  0  0  0  0  0  0  0  0  0  0
  111.1027  -74.5287  -81.9618 C   0  0  0  0  0  0  0  0  0  0  0  0
  110.4068  -73.6804  -82.8582 C   0  0  0  0  0  0  0  0  0  0  0  0
  110.2331  -74.0578  -84.2486 C   0  0  0  0  0  0  0  0  0  0  0  0
  110.7849  -75.3206  -84.6744 C   0  0  0  0  0  0  0  0  0  0  0  0
  110.5735  -75.6282  -86.1382 C   0  0  0  0  0  0  0  0  0  0  0  0
  111.1628  -76.8924  -86.3198 C   0  0  0  0  0  0  0  0  0  0  0  0
  111.0491  -77.3693  -87.6999 C   0  0  0  0  0  0  0  0  0  0  0  0
  111.6188  -78.6570  -87.9443 C   0  0  0  0  0  0  0  0  0  0  0  0
  109.9204  -74.7705  -87.0028 C   0  0  0  0  0  0  0  0  0  0  0  0
  110.2384  -73.4069  -87.2024 C   0  0  0  0  0  0  0  0  0  0  0  0
  109.6013  -72.5312  -88.0834 C   0  0  0  0  0  0  0  0  0  0  0  0
  108.4985  -73.0110  -88.9027 C   0  0  0  0  0  0  0  0  0  0  0  0
  108.1982  -74.3749  -88.6713 C   0  0  0  0  0  0  0  0  0  0  0  0
  108.8062  -75.2868  -87.7974 C   0  0  0  0  0  0  0  0  0  0  0  0
  112.7504  -80.6457  -87.3342 N   0  3  0  0  0  0  0  0  0  0  0  0
  113.4138  -81.5283  -86.3811 C   0  0  0  0  0  0  0  0  0  0  0  0
  112.7061  -81.2436  -88.6868 C   0  0  0  0  0  0  0  0  0  0  0  0
  111.3464  -74.2264  -80.6111 N   0  0  0  0  0  0  0  0  0  0  0  0
  111.9998  -75.0015  -79.5329 C   0  0  0  0  0  0  0  0  0  0  0  0
  110.9001  -72.8764  -80.1156 C   0  0  0  0  0  0  0  0  0  0  0  0
  1  2  1  0  0  0  0
  1 14  1  0  0  0  0
  1 21  2  0  0  0  0
  2  3  2  0  0  0  0
  3  4  1  0  0  0  0
  3 12  1  0  0  0  0
  4  5  1  0  0  0  0
  5  6  1  0  0  0  0
  5 10  2  0  0  0  0
  6  7  2  0  0  0  0
  7  8  1  0  0  0  0
  7 24  1  0  0  0  0
  8  9  2  0  0  0  0
  9 10  1  0  0  0  0
 10 11  1  0  0  0  0
 11 12  2  0  0  0  0
 11 15  1  0  0  0  0
 12 13  1  0  0  0  0
 13 14  2  0  0  0  0
 15 16  2  0  0  0  0
 15 20  1  0  0  0  0
 16 17  1  0  0  0  0
 17 18  2  0  0  0  0
 18 19  1  0  0  0  0
 19 20  2  0  0  0  0
 21 22  1  0  0  0  0
 21 23  1  0  0  0  0
 24 25  1  0  0  0  0
 24 26  1  0  0  0  0
M  CHG  1  21   1
M  END
>  <CHROM.1>
-3.23594873,53.27685021,111.06989246,-76.21371626,-85.33388521,-1.27067666
-1.05847886,1.05848360

>  <Name>
1f1t Malachite green aptamer (Xray 2.8A)

>  <RI>
0

>  <Rbt.Current_Directory>
/home/itssahil/PROJECTS/Mol_Feturizer/New_Systems/rnas/1f1t

>  <Rbt.Executable>
rbdock ($Id: //depot/dev/client3/rdock/2013.1/src/exe/rbdock.cxx#4 $)

>  <Rbt.Library>
libRbt.so (2013.1, Build901 2013/11/27)

>  <Rbt.Parameter_File>
/export/apps/rDock/src/rDock_2013.1_src/data/scripts/dock_solv.prm

>  <Rbt.Receptor>
prm/pocket_docking_2.prm

>  <SCORE>
-63.0527

>  <SCORE.INTER>
-63.0992

>  <SCORE.INTER.CONST>
1

>  <SCORE.INTER.POLAR>
0

>  <SCORE.INTER.ROT>
2

>  <SCORE.INTER.SOLV>
11.1282

>  <SCORE.INTER.VDW>
-50.7089

>  <SCORE.INTER.norm>
-2.42689

>  <SCORE.INTRA>
0.046498

>  <SCORE.INTRA.DIHEDRAL>
-1.08316

>  <SCORE.INTRA.DIHEDRAL.0>
4.18538

>  <SCORE.INTRA.POLAR>
0

>  <SCORE.INTRA.POLAR.0>
0

>  <SCORE.INTRA.REPUL>
0

>  <SCORE.INTRA.REPUL.0>
0

>  <SCORE.INTRA.SOLV>
0.0182541

>  <SCORE.INTRA.SOLV.lig_0>
-5.16926

>  <SCORE.INTRA.VDW>
0.57895

>  <SCORE.INTRA.VDW.0>
1.11912

>  <SCORE.INTRA.norm>
0.00178839

>  <SCORE.RESTR>
0

>  <SCORE.RESTR.CAVITY>
0

>  <SCORE.RESTR.norm>
0

>  <SCORE.SYSTEM>
0

>  <SCORE.SYSTEM.CONST>
0

>  <SCORE.SYSTEM.DIHEDRAL>
0

>  <SCORE.SYSTEM.SOLV>
0

>  <SCORE.SYSTEM.norm>
0

>  <SCORE.heavy>
26

>  <SCORE.norm>
-2.4251

>  <RMSD>
6.134

$$$$
1f1t Malachite green aptamer (Xray 2.8A)
 OpenBabel11021811393D
libRbt.so/2013.1/901 2013/11/27
 26 29  0  0  0  0  0  0  0  0999 V2000
  112.2199  -79.4135  -86.9604 C   0  0  0  0  0  0  0  0  0  0  0  0
  112.3512  -78.9537  -85.5858 C   0  0  0  0  0  0  0  0  0  0  0  0
  111.7894  -77.6931  -85.3741 C   0  0  0  0  0  0  0  0  0  0  0  0
  111.9502  -77.2726  -83.9539 O   0  0  0  0  0  0  0  0  0  0  0  0
  111.4250  -76.1249  -83.7674 C   0  0  0  0  0  0  0  0  0  0  0  0
  111.6435  -75.7993  -82.3581 C   0  0  0  0  0  0  0  0  0  0  0  0
  111.1023  -74.5257  -81.9596 C   0  0  0  0  0  0  0  0  0  0  0  0
  110.4096  -73.6753  -82.8564 C   0  0  0  0  0  0  0  0  0  0  0  0
  110.2342  -74.0530  -84.2465 C   0  0  0  0  0  0  0  0  0  0  0  0
  110.7809  -75.3182  -84.6715 C   0  0  0  0  0  0  0  0  0  0  0  0
  110.5682  -75.6261  -86.1350 C   0  0  0  0  0  0  0  0  0  0  0  0
  111.1524  -76.8927  -86.3159 C   0  0  0  0  0  0  0  0  0  0  0  0
  111.0366  -77.3701  -87.6956 C   0  0  0  0  0  0  0  0  0  0  0  0
  111.6013  -78.6602  -87.9392 C   0  0  0  0  0  0  0  0  0  0  0  0
  109.9182  -74.7664  -87.0002 C   0  0  0  0  0  0  0  0  0  0  0  0
  110.2292  -73.3993  -87.1867 C   0  0  0  0  0  0  0  0  0  0  0  0
  109.5954  -72.5215  -88.0679 C   0  0  0  0  0  0  0  0  0  0  0  0
  108.5042  -73.0026  -88.9019 C   0  0  0  0  0  0  0  0  0  0  0  0
  108.2106  -74.3701  -88.6833 C   0  0  0  0  0  0  0  0  0  0  0  0
  108.8156  -75.2842  -87.8098 C   0  0  0  0  0  0  0  0  0  0  0  0
  112.7252  -80.6529  -87.3278 N   0  3  0  0  0  0  0  0  0  0  0  0
  113.3852  -81.5374  -86.3742 C   0  0  0  0  0  0  0  0  0  0  0  0
  112.6783  -81.2515  -88.6800 C   0  0  0  0  0  0  0  0  0  0  0  0
  111.3474  -74.2233  -80.6091 N   0  0  0  0  0  0  0  0  0  0  0  0
  111.9982  -75.0001  -79.5306 C   0  0  0  0  0  0  0  0  0  0  0  0
  110.9061  -72.8715  -80.1143 C   0  0  0  0  0  0  0  0  0  0  0  0
  1  2  1  0  0  0  0
  1 14  1  0  0  0  0
  1 21  2  0  0  0  0
  2  3  2  0  0  0  0
  3  4  1  0  0  0  0
  3 12  1  0  0  0  0
  4  5  1  0  0  0  0
  5  6  1  0  0  0  0
  5 10  2  0  0  0  0
  6  7  2  0  0  0  0
  7  8  1  0  0  0  0
  7 24  1  0  0  0  0
  8  9  2  0  0  0  0
  9 10  1  0  0  0  0
 10 11  1  0  0  0  0
 11 12  2  0  0  0  0
 11 15  1  0  0  0  0
 12 13  1  0  0  0  0
 13 14  2  0  0  0  0
 15 16  2  0  0  0  0
 15 20  1  0  0  0  0
 16 17  1  0  0  0  0
 17 18  2  0  0  0  0
 18 19  1  0  0  0  0
 19 20  2  0  0  0  0
 21 22  1  0  0  0  0
 21 23  1  0  0  0  0
 24 25  1  0  0  0  0
 24 26  1  0  0  0  0
M  CHG  1  21   1
M  END
>  <CHROM.1>
-3.21738397,52.31950146,111.06249165,-76.21294524,-85.33051789,-1.27510347
-1.06190075,1.05399005

>  <Name>
1f1t Malachite green aptamer (Xray 2.8A)

>  <RI>
0

>  <Rbt.Current_Directory>
/home/itssahil/PROJECTS/Mol_Feturizer/New_Systems/rnas/1f1t

>  <Rbt.Executable>
rbdock ($Id: //depot/dev/client3/rdock/2013.1/src/exe/rbdock.cxx#4 $)

>  <Rbt.Library>
libRbt.so (2013.1, Build901 2013/11/27)

>  <Rbt.Parameter_File>
/export/apps/rDock/src/rDock_2013.1_src/data/scripts/dock_solv.prm

>  <Rbt.Receptor>
prm/pocket_docking_2.prm

>  <SCORE>
-63.0385

>  <SCORE.INTER>
-63.0872

>  <SCORE.INTER.CONST>
1

>  <SCORE.INTER.POLAR>
0

>  <SCORE.INTER.ROT>
2

>  <SCORE.INTER.SOLV>
11.1229

>  <SCORE.INTER.VDW>
-50.6991

>  <SCORE.INTER.norm>
-2.42643

>  <SCORE.INTRA>
0.0486315

>  <SCORE.INTRA.DIHEDRAL>
-1.16114

>  <SCORE.INTRA.DIHEDRAL.0>
4.18538

>  <SCORE.INTRA.POLAR>
0

>  <SCORE.INTRA.POLAR.0>
0

>  <SCORE.INTRA.REPUL>
0

>  <SCORE.INTRA.REPUL.0>
0

>  <SCORE.INTRA.SOLV>
0.0193313

>  <SCORE.INTRA.SOLV.lig_0>
-5.16926

>  <SCORE.INTRA.VDW>
0.619534

>  <SCORE.INTRA.VDW.0>
1.11912

>  <SCORE.INTRA.norm>
0.00187044

>  <SCORE.RESTR>
0

>  <SCORE.RESTR.CAVITY>
0

>  <SCORE.RESTR.norm>
0

>  <SCORE.SYSTEM>
0

>  <SCORE.SYSTEM.CONST>
0

>  <SCORE.SYSTEM.DIHEDRAL>
0

>  <SCORE.SYSTEM.SOLV>
0

>  <SCORE.SYSTEM.norm>
0

>  <SCORE.heavy>
26

>  <SCORE.norm>
-2.42456

>  <RMSD>
6.134

$$$$
1f1t Malachite green aptamer (Xray 2.8A)
 OpenBabel11021811393D
libRbt.so/2013.1/901 2013/11/27
 26 29  0  0  0  0  0  0  0  0999 V2000
  112.2400  -79.3995  -86.9576 C   0  0  0  0  0  0  0  0  0  0  0  0
  112.3645  -78.9404  -85.5821 C   0  0  0  0  0  0  0  0  0  0  0  0
  111.7960  -77.6827  -85.3711 C   0  0  0  0  0  0  0  0  0  0  0  0
  111.9500  -77.2628  -83.9500 O   0  0  0  0  0  0  0  0  0  0  0  0
  111.4188  -76.1177  -83.7643 C   0  0  0  0  0  0  0  0  0  0  0  0
  111.6309  -75.7924  -82.3540 C   0  0  0  0  0  0  0  0  0  0  0  0
  111.0824  -74.5217  -81.9561 C   0  0  0  0  0  0  0  0  0  0  0  0
  110.3888  -73.6737  -82.8546 C   0  0  0  0  0  0  0  0  0  0  0  0
  110.2200  -74.0509  -84.2456 C   0  0  0  0  0  0  0  0  0  0  0  0
  110.7741  -75.3132  -84.6699 C   0  0  0  0  0  0  0  0  0  0  0  0
  110.5678  -75.6207  -86.1344 C   0  0  0  0  0  0  0  0  0  0  0  0
  111.1586  -76.8844  -86.3144 C   0  0  0  0  0  0  0  0  0  0  0  0
  111.0498  -77.3610  -87.6949 C   0  0  0  0  0  0  0  0  0  0  0  0
  111.6213  -78.6482  -87.9378 C   0  0  0  0  0  0  0  0  0  0  0  0
  109.9168  -74.7632  -87.0010 C   0  0  0  0  0  0  0  0  0  0  0  0
  110.2420  -73.4024  -87.2080 C   0  0  0  0  0  0  0  0  0  0  0  0
  109.6071  -72.5272  -88.0911 C   0  0  0  0  0  0  0  0  0  0  0  0
  108.4990  -73.0045  -88.9046 C   0  0  0  0  0  0  0  0  0  0  0  0
  108.1916  -74.3656  -88.6659 C   0  0  0  0  0  0  0  0  0  0  0  0
  108.7971  -75.2769  -87.7897 C   0  0  0  0  0  0  0  0  0  0  0  0
  112.7524  -80.6362  -87.3244 N   0  3  0  0  0  0  0  0  0  0  0  0
  113.4133  -81.5185  -86.3693 C   0  0  0  0  0  0  0  0  0  0  0  0
  112.7130  -81.2338  -88.6773 C   0  0  0  0  0  0  0  0  0  0  0  0
  111.3214  -74.2195  -80.6046 N   0  0  0  0  0  0  0  0  0  0  0  0
  111.9782  -74.9914  -79.5262 C   0  0  0  0  0  0  0  0  0  0  0  0
  110.8648  -72.8734  -80.1080 C   0  0  0  0  0  0  0  0  0  0  0  0
  1  2  1  0  0  0  0
  1 14  1  0  0  0  0
  1 21  2  0  0  0  0
  2  3  2  0  0  0  0
  3  4  1  0  0  0  0
  3 12  1  0  0  0  0
  4  5  1  0  0  0  0
  5  6  1  0  0  0  0
  5 10  2  0  0  0  0
  6  7  2  0  0  0  0
  7  8  1  0  0  0  0
  7 24  1  0  0  0  0
  8  9  2  0  0  0  0
  9 10  1  0  0  0  0
 10 11  1  0  0  0  0
 11 12  2  0  0  0  0
 11 15  1  0  0  0  0
 12 13  1  0  0  0  0
 13 14  2  0  0  0  0
 15 16  2  0  0  0  0
 15 20  1  0  0  0  0
 16 17  1  0  0  0  0
 17 18  2  0  0  0  0
 18 19  1  0  0  0  0
 19 20  2  0  0  0  0
 21 22  1  0  0  0  0
 21 23  1  0  0  0  0
 24 25  1  0  0  0  0
 24 26  1  0  0  0  0
M  CHG  1  21   1
M  END
>  <CHROM.1>
-2.86228813,53.87311988,111.06179395,-76.20599096,-85.32855952,-1.26383120
-1.05922270,1.06464292

>  <Name>
1f1t Malachite green aptamer (Xray 2.8A)

>  <RI>
0

>  <Rbt.Current_Directory>
/home/itssahil/PROJECTS/Mol_Feturizer/New_Systems/rnas/1f1t

>  <Rbt.Executable>
rbdock ($Id: //depot/dev/client3/rdock/2013.1/src/exe/rbdock.cxx#4 $)

>  <Rbt.Library>
libRbt.so (2013.1, Build901 2013/11/27)

>  <Rbt.Parameter_File>
/export/apps/rDock/src/rDock_2013.1_src/data/scripts/dock_solv.prm

>  <Rbt.Receptor>
prm/pocket_docking_2.prm

>  <SCORE>
-63.0167

>  <SCORE.INTER>
-63.0505

>  <SCORE.INTER.CONST>
1

>  <SCORE.INTER.POLAR>
0

>  <SCORE.INTER.ROT>
2

>  <SCORE.INTER.SOLV>
11.1349

>  <SCORE.INTER.VDW>
-50.6786

>  <SCORE.INTER.norm>
-2.42502

>  <SCORE.INTRA>
0.0337916

>  <SCORE.INTRA.DIHEDRAL>
-1.04453

>  <SCORE.INTRA.DIHEDRAL.0>
4.18538

>  <SCORE.INTRA.POLAR>
0

>  <SCORE.INTRA.POLAR.0>
0

>  <SCORE.INTRA.REPUL>
0

>  <SCORE.INTRA.REPUL.0>
0

>  <SCORE.INTRA.SOLV>
0.0175814

>  <SCORE.INTRA.SOLV.lig_0>
-5.16926

>  <SCORE.INTRA.VDW>
0.547268

>  <SCORE.INTRA.VDW.0>
1.11912

>  <SCORE.INTRA.norm>
0.00129968

>  <SCORE.RESTR>
0

>  <SCORE.RESTR.CAVITY>
0

>  <SCORE.RESTR.norm>
0

>  <SCORE.SYSTEM>
0

>  <SCORE.SYSTEM.CONST>
0

>  <SCORE.SYSTEM.DIHEDRAL>
0

>  <SCORE.SYSTEM.SOLV>
0

>  <SCORE.SYSTEM.norm>
0

>  <SCORE.heavy>
26

>  <SCORE.norm>
-2.42372

>  <RMSD>
6.134

$$$$
1f1t Malachite green aptamer (Xray 2.8A)
 OpenBabel11021811393D
libRbt.so/2013.1/901 2013/11/27
 26 29  0  0  0  0  0  0  0  0999 V2000
  112.2142  -79.3970  -86.9444 C   0  0  0  0  0  0  0  0  0  0  0  0
  112.3424  -78.9360  -85.5699 C   0  0  0  0  0  0  0  0  0  0  0  0
  111.7785  -77.6761  -85.3602 C   0  0  0  0  0  0  0  0  0  0  0  0
  111.9363  -77.2542  -83.9400 O   0  0  0  0  0  0  0  0  0  0  0  0
  111.4091  -76.1071  -83.7553 C   0  0  0  0  0  0  0  0  0  0  0  0
  111.6246  -75.7800  -82.3460 C   0  0  0  0  0  0  0  0  0  0  0  0
  111.0810  -74.5069  -81.9494 C   0  0  0  0  0  0  0  0  0  0  0  0
  110.3887  -73.6581  -82.8482 C   0  0  0  0  0  0  0  0  0  0  0  0
  110.2164  -74.0372  -84.2383 C   0  0  0  0  0  0  0  0  0  0  0  0
  110.7656  -75.3020  -84.6613 C   0  0  0  0  0  0  0  0  0  0  0  0
  110.5558  -75.6113  -86.1249 C   0  0  0  0  0  0  0  0  0  0  0  0
  111.1421  -76.8772  -86.3037 C   0  0  0  0  0  0  0  0  0  0  0  0
  111.0295  -77.3559  -87.6833 C   0  0  0  0  0  0  0  0  0  0  0  0
  111.5963  -78.6454  -87.9249 C   0  0  0  0  0  0  0  0  0  0  0  0
  109.9062  -74.7532  -86.9919 C   0  0  0  0  0  0  0  0  0  0  0  0
  110.2159  -73.3859  -87.1792 C   0  0  0  0  0  0  0  0  0  0  0  0
  109.5825  -72.5096  -88.0622 C   0  0  0  0  0  0  0  0  0  0  0  0
  108.4932  -72.9928  -88.8976 C   0  0  0  0  0  0  0  0  0  0  0  0
  108.2009  -74.3604  -88.6782 C   0  0  0  0  0  0  0  0  0  0  0  0
  108.8056  -75.2731  -87.8029 C   0  0  0  0  0  0  0  0  0  0  0  0
  112.7219  -80.6360  -87.3100 N   0  3  0  0  0  0  0  0  0  0  0  0
  113.3814  -81.5189  -86.3545 C   0  0  0  0  0  0  0  0  0  0  0  0
  112.6782  -81.2358  -88.6618 C   0  0  0  0  0  0  0  0  0  0  0  0
  111.3233  -74.2031  -80.5988 N   0  0  0  0  0  0  0  0  0  0  0  0
  111.9676  -74.9807  -79.5168 C   0  0  0  0  0  0  0  0  0  0  0  0
  110.8862  -72.8486  -80.1077 C   0  0  0  0  0  0  0  0  0  0  0  0
  1  2  1  0  0  0  0
  1 14  1  0  0  0  0
  1 21  2  0  0  0  0
  2  3  2  0  0  0  0
  3  4  1  0  0  0  0
  3 12  1  0  0  0  0
  4  5  1  0  0  0  0
  5  6  1  0  0  0  0
  5 10  2  0  0  0  0
  6  7  2  0  0  0  0
  7  8  1  0  0  0  0
  7 24  1  0  0  0  0
  8  9  2  0  0  0  0
  9 10  1  0  0  0  0
 10 11  1  0  0  0  0
 11 12  2  0  0  0  0
 11 15  1  0  0  0  0
 12 13  1  0  0  0  0
 13 14  2  0  0  0  0
 15 16  2  0  0  0  0
 15 20  1  0  0  0  0
 16 17  1  0  0  0  0
 17 18  2  0  0  0  0
 18 19  1  0  0  0  0
 19 20  2  0  0  0  0
 21 22  1  0  0  0  0
 21 23  1  0  0  0  0
 24 25  1  0  0  0  0
 24 26  1  0  0  0  0
M  CHG  1  21   1
M  END
>  <CHROM.1>
-3.54800064,52.33458163,111.04957773,-76.19680644,-85.31909643,-1.27062455
-1.06168640,1.05710896

>  <Name>
1f1t Malachite green aptamer (Xray 2.8A)

>  <RI>
0

>  <Rbt.Current_Directory>
/home/itssahil/PROJECTS/Mol_Feturizer/New_Systems/rnas/1f1t

>  <Rbt.Executable>
rbdock ($Id: //depot/dev/client3/rdock/2013.1/src/exe/rbdock.cxx#4 $)

>  <Rbt.Library>
libRbt.so (2013.1, Build901 2013/11/27)

>  <Rbt.Parameter_File>
/export/apps/rDock/src/rDock_2013.1_src/data/scripts/dock_solv.prm

>  <Rbt.Receptor>
prm/pocket_docking_2.prm

>  <SCORE>
-63.1022

>  <SCORE.INTER>
-63.1521

>  <SCORE.INTER.CONST>
1

>  <SCORE.INTER.POLAR>
0

>  <SCORE.INTER.ROT>
2

>  <SCORE.INTER.SOLV>
11.1321

>  <SCORE.INTER.VDW>
-50.7455

>  <SCORE.INTER.norm>
-2.42893

>  <SCORE.INTRA>
0.0498845

>  <SCORE.INTRA.DIHEDRAL>
-1.15085

>  <SCORE.INTRA.DIHEDRAL.0>
4.18538

>  <SCORE.INTRA.POLAR>
0

>  <SCORE.INTRA.POLAR.0>
0

>  <SCORE.INTRA.REPUL>
0

>  <SCORE.INTRA.REPUL.0>
0

>  <SCORE.INTRA.SOLV>
0.0193125

>  <SCORE.INTRA.SOLV.lig_0>
-5.16926

>  <SCORE.INTRA.VDW>
0.615653

>  <SCORE.INTRA.VDW.0>
1.11912

>  <SCORE.INTRA.norm>
0.00191863

>  <SCORE.RESTR>
0

>  <SCORE.RESTR.CAVITY>
0

>  <SCORE.RESTR.norm>
0

>  <SCORE.SYSTEM>
0

>  <SCORE.SYSTEM.CONST>
0

>  <SCORE.SYSTEM.DIHEDRAL>
0

>  <SCORE.SYSTEM.SOLV>
0

>  <SCORE.SYSTEM.norm>
0

>  <SCORE.heavy>
26

>  <SCORE.norm>
-2.42701

>  <RMSD>
6.134

$$$$
1f1t Malachite green aptamer (Xray 2.8A)
 OpenBabel11021811393D
libRbt.so/2013.1/901 2013/11/27
 26 29  0  0  0  0  0  0  0  0999 V2000
  112.2038  -79.4349  -86.9049 C   0  0  0  0  0  0  0  0  0  0  0  0
  112.3241  -78.9440  -85.5400 C   0  0  0  0  0  0  0  0  0  0  0  0
  111.7416  -77.6885  -85.3564 C   0  0  0  0  0  0  0  0  0  0  0  0
  111.8920  -77.2354  -83.9452 O   0  0  0  0  0  0  0  0  0  0  0  0
  111.3479  -76.0926  -83.7842 C   0  0  0  0  0  0  0  0  0  0  0  0
  111.5575  -75.7336  -82.3818 C   0  0  0  0  0  0  0  0  0  0  0  0
  110.9949  -74.4608  -82.0116 C   0  0  0  0  0  0  0  0  0  0  0  0
  110.2909  -73.6409  -82.9279 C   0  0  0  0  0  0  0  0  0  0  0  0
  110.1252  -74.0508  -84.3100 C   0  0  0  0  0  0  0  0  0  0  0  0
  110.6933  -75.3158  -84.7068 C   0  0  0  0  0  0  0  0  0  0  0  0
  110.4892  -75.6581  -86.1639 C   0  0  0  0  0  0  0  0  0  0  0  0
  111.0942  -76.9186  -86.3164 C   0  0  0  0  0  0  0  0  0  0  0  0
  110.9897  -77.4270  -87.6859 C   0  0  0  0  0  0  0  0  0  0  0  0
  111.5756  -78.7127  -87.9008 C   0  0  0  0  0  0  0  0  0  0  0  0
  109.8277  -74.8275  -87.0486 C   0  0  0  0  0  0  0  0  0  0  0  0
  108.7423  -75.2045  -87.8732 C   0  0  0  0  0  0  0  0  0  0  0  0
  108.0517  -74.3753  -88.7588 C   0  0  0  0  0  0  0  0  0  0  0  0
  108.4395  -72.9786  -88.8874 C   0  0  0  0  0  0  0  0  0  0  0  0
  109.5347  -72.6364  -88.0582 C   0  0  0  0  0  0  0  0  0  0  0  0
  110.2579  -73.4341  -87.1606 C   0  0  0  0  0  0  0  0  0  0  0  0
  112.7299  -80.6735  -87.2447 N   0  3  0  0  0  0  0  0  0  0  0  0
  113.4017  -81.5268  -86.2711 C   0  0  0  0  0  0  0  0  0  0  0  0
  112.6961  -81.3014  -88.5840 C   0  0  0  0  0  0  0  0  0  0  0  0
  111.2316  -74.1259  -80.6673 N   0  0  0  0  0  0  0  0  0  0  0  0
  111.8460  -74.8889  -79.5580 C   0  0  0  0  0  0  0  0  0  0  0  0
  110.8237  -72.7480  -80.2181 C   0  0  0  0  0  0  0  0  0  0  0  0
  1  2  1  0  0  0  0
  1 14  1  0  0  0  0
  1 21  2  0  0  0  0
  2  3  2  0  0  0  0
  3  4  1  0  0  0  0
  3 12  1  0  0  0  0
  4  5  1  0  0  0  0
  5  6  1  0  0  0  0
  5 10  2  0  0  0  0
  6  7  2  0  0  0  0
  7  8  1  0  0  0  0
  7 24  1  0  0  0  0
  8  9  2  0  0  0  0
  9 10  1  0  0  0  0
 10 11  1  0  0  0  0
 11 12  2  0  0  0  0
 11 15  1  0  0  0  0
 12 13  1  0  0  0  0
 13 14  2  0  0  0  0
 15 16  2  0  0  0  0
 15 20  1  0  0  0  0
 16 17  1  0  0  0  0
 17 18  2  0  0  0  0
 18 19  1  0  0  0  0
 19 20  2  0  0  0  0
 21 22  1  0  0  0  0
 21 23  1  0  0  0  0
 24 25  1  0  0  0  0
 24 26  1  0  0  0  0
M  CHG  1  21   1
M  END
>  <CHROM.1>
-5.90856814,-126.89659324,110.99862422,-76.20261968,-85.33573976,-1.23535019
-1.05411031,1.05283724

>  <Name>
1f1t Malachite green aptamer (Xray 2.8A)

>  <RI>
0

>  <Rbt.Current_Directory>
/home/itssahil/PROJECTS/Mol_Feturizer/New_Systems/rnas/1f1t

>  <Rbt.Executable>
rbdock ($Id: //depot/dev/client3/rdock/2013.1/src/exe/rbdock.cxx#4 $)

>  <Rbt.Library>
libRbt.so (2013.1, Build901 2013/11/27)

>  <Rbt.Parameter_File>
/export/apps/rDock/src/rDock_2013.1_src/data/scripts/dock_solv.prm

>  <Rbt.Receptor>
prm/pocket_docking_2.prm

>  <SCORE>
-62.1704

>  <SCORE.INTER>
-62.3972

>  <SCORE.INTER.CONST>
1

>  <SCORE.INTER.POLAR>
0

>  <SCORE.INTER.ROT>
2

>  <SCORE.INTER.SOLV>
11.141

>  <SCORE.INTER.VDW>
-50.2452

>  <SCORE.INTER.norm>
-2.39989

>  <SCORE.INTRA>
0.226825

>  <SCORE.INTRA.DIHEDRAL>
-0.999401

>  <SCORE.INTRA.DIHEDRAL.0>
4.18538

>  <SCORE.INTRA.POLAR>
0

>  <SCORE.INTRA.POLAR.0>
0

>  <SCORE.INTRA.REPUL>
0

>  <SCORE.INTRA.REPUL.0>
0

>  <SCORE.INTRA.SOLV>
0.0184671

>  <SCORE.INTRA.SOLV.lig_0>
-5.16926

>  <SCORE.INTRA.VDW>
0.717292

>  <SCORE.INTRA.VDW.0>
1.11912

>  <SCORE.INTRA.norm>
0.00872404

>  <SCORE.RESTR>
0

>  <SCORE.RESTR.CAVITY>
0

>  <SCORE.RESTR.norm>
0

>  <SCORE.SYSTEM>
0

>  <SCORE.SYSTEM.CONST>
0

>  <SCORE.SYSTEM.DIHEDRAL>
0

>  <SCORE.SYSTEM.SOLV>
0

>  <SCORE.SYSTEM.norm>
0

>  <SCORE.heavy>
26

>  <SCORE.norm>
-2.39117

>  <RMSD>
6.134

$$$$
1f1t Malachite green aptamer (Xray 2.8A)
 OpenBabel11021811393D
libRbt.so/2013.1/901 2013/11/27
 26 29  0  0  0  0  0  0  0  0999 V2000
  112.2135  -79.3966  -86.9462 C   0  0  0  0  0  0  0  0  0  0  0  0
  112.3414  -78.9358  -85.5716 C   0  0  0  0  0  0  0  0  0  0  0  0
  111.7771  -77.6761  -85.3616 C   0  0  0  0  0  0  0  0  0  0  0  0
  111.9345  -77.2546  -83.9414 O   0  0  0  0  0  0  0  0  0  0  0  0
  111.4070  -76.1076  -83.7564 C   0  0  0  0  0  0  0  0  0  0  0  0
  111.6222  -75.7809  -82.3470 C   0  0  0  0  0  0  0  0  0  0  0  0
  111.0782  -74.5080  -81.9501 C   0  0  0  0  0  0  0  0  0  0  0  0
  110.3858  -73.6592  -82.8488 C   0  0  0  0  0  0  0  0  0  0  0  0
  110.2137  -74.0380  -84.2390 C   0  0  0  0  0  0  0  0  0  0  0  0
  110.7633  -75.3025  -84.6623 C   0  0  0  0  0  0  0  0  0  0  0  0
  110.5539  -75.6115  -86.1260 C   0  0  0  0  0  0  0  0  0  0  0  0
  111.1406  -76.8772  -86.3051 C   0  0  0  0  0  0  0  0  0  0  0  0
  111.0282  -77.3556  -87.6847 C   0  0  0  0  0  0  0  0  0  0  0  0
  111.5955  -78.6448  -87.9265 C   0  0  0  0  0  0  0  0  0  0  0  0
  109.9042  -74.7534  -86.9929 C   0  0  0  0  0  0  0  0  0  0  0  0
  110.2280  -73.3917  -87.1963 C   0  0  0  0  0  0  0  0  0  0  0  0
  109.5944  -72.5157  -88.0796 C   0  0  0  0  0  0  0  0  0  0  0  0
  108.4893  -72.9931  -88.8973 C   0  0  0  0  0  0  0  0  0  0  0  0
  108.1832  -74.3551  -88.6620 C   0  0  0  0  0  0  0  0  0  0  0  0
  108.7875  -75.2671  -87.7857 C   0  0  0  0  0  0  0  0  0  0  0  0
  112.7216  -80.6353  -87.3120 N   0  3  0  0  0  0  0  0  0  0  0  0
  113.3812  -81.5182  -86.3566 C   0  0  0  0  0  0  0  0  0  0  0  0
  112.6782  -81.2348  -88.6639 C   0  0  0  0  0  0  0  0  0  0  0  0
  111.3202  -74.2045  -80.5994 N   0  0  0  0  0  0  0  0  0  0  0  0
  111.9729  -74.9784  -79.5199 C   0  0  0  0  0  0  0  0  0  0  0  0
  110.8726  -72.8545  -80.1053 C   0  0  0  0  0  0  0  0  0  0  0  0
  1  2  1  0  0  0  0
  1 14  1  0  0  0  0
  1 21  2  0  0  0  0
  2  3  2  0  0  0  0
  3  4  1  0  0  0  0
  3 12  1  0  0  0  0
  4  5  1  0  0  0  0
  5  6  1  0  0  0  0
  5 10  2  0  0  0  0
  6  7  2  0  0  0  0
  7  8  1  0  0  0  0
  7 24  1  0  0  0  0
  8  9  2  0  0  0  0
  9 10  1  0  0  0  0
 10 11  1  0  0  0  0
 11 12  2  0  0  0  0
 11 15  1  0  0  0  0
 12 13  1  0  0  0  0
 13 14  2  0  0  0  0
 15 16  2  0  0  0  0
 15 20  1  0  0  0  0
 16 17  1  0  0  0  0
 17 18  2  0  0  0  0
 18 19  1  0  0  0  0
 19 20  2  0  0  0  0
 21 22  1  0  0  0  0
 21 23  1  0  0  0  0
 24 25  1  0  0  0  0
 24 26  1  0  0  0  0
M  CHG  1  21   1
M  END
>  <CHROM.1>
-3.06563552,53.46441594,111.04744809,-76.19710739,-85.32012112,-1.26972209
-1.06122294,1.05806317

>  <Name>
1f1t Malachite green aptamer (Xray 2.8A)

>  <RI>
0

>  <Rbt.Current_Directory>
/home/itssahil/PROJECTS/Mol_Feturizer/New_Systems/rnas/1f1t

>  <Rbt.Executable>
rbdock ($Id: //depot/dev/client3/rdock/2013.1/src/exe/rbdock.cxx#4 $)

>  <Rbt.Library>
libRbt.so (2013.1, Build901 2013/11/27)

>  <Rbt.Parameter_File>
/export/apps/rDock/src/rDock_2013.1_src/data/scripts/dock_solv.prm

>  <Rbt.Receptor>
prm/pocket_docking_2.prm

>  <SCORE>
-63.107

>  <SCORE.INTER>
-63.1491

>  <SCORE.INTER.CONST>
1

>  <SCORE.INTER.POLAR>
0

>  <SCORE.INTER.ROT>
2

>  <SCORE.INTER.SOLV>
11.1302

>  <SCORE.INTER.VDW>
-50.7428

>  <SCORE.INTER.norm>
-2.42881

>  <SCORE.INTRA>
0.0421266

>  <SCORE.INTRA.DIHEDRAL>
-1.07242

>  <SCORE.INTRA.DIHEDRAL.0>
4.18538

>  <SCORE.INTRA.POLAR>
0

>  <SCORE.INTRA.POLAR.0>
0

>  <SCORE.INTRA.REPUL>
0

>  <SCORE.INTRA.REPUL.0>
0

>  <SCORE.INTRA.SOLV>
0.0180431

>  <SCORE.INTRA.SOLV.lig_0>
-5.16926

>  <SCORE.INTRA.VDW>
0.569316

>  <SCORE.INTRA.VDW.0>
1.11912

>  <SCORE.INTRA.norm>
0.00162025

>  <SCORE.RESTR>
0

>  <SCORE.RESTR.CAVITY>
0

>  <SCORE.RESTR.norm>
0

>  <SCORE.SYSTEM>
0

>  <SCORE.SYSTEM.CONST>
0

>  <SCORE.SYSTEM.DIHEDRAL>
0

>  <SCORE.SYSTEM.SOLV>
0

>  <SCORE.SYSTEM.norm>
0

>  <SCORE.heavy>
26

>  <SCORE.norm>
-2.42719

>  <RMSD>
6.134

$$$$
1f1t Malachite green aptamer (Xray 2.8A)
 OpenBabel11021811393D
libRbt.so/2013.1/901 2013/11/27
 26 29  0  0  0  0  0  0  0  0999 V2000
  112.2118  -79.4392  -86.9517 C   0  0  0  0  0  0  0  0  0  0  0  0
  112.3456  -78.9656  -85.5820 C   0  0  0  0  0  0  0  0  0  0  0  0
  111.7702  -77.7099  -85.3781 C   0  0  0  0  0  0  0  0  0  0  0  0
  111.9343  -77.2748  -83.9627 O   0  0  0  0  0  0  0  0  0  0  0  0
  111.3966  -76.1318  -83.7833 C   0  0  0  0  0  0  0  0  0  0  0  0
  111.6194  -75.7910  -82.3783 C   0  0  0  0  0  0  0  0  0  0  0  0
  111.0656  -74.5204  -81.9879 C   0  0  0  0  0  0  0  0  0  0  0  0
  110.3577  -73.6862  -82.8882 C   0  0  0  0  0  0  0  0  0  0  0  0
  110.1788  -74.0784  -84.2738 C   0  0  0  0  0  0  0  0  0  0  0  0
  110.7379  -75.3408  -84.6908 C   0  0  0  0  0  0  0  0  0  0  0  0
  110.5203  -75.6643  -86.1502 C   0  0  0  0  0  0  0  0  0  0  0  0
  111.1184  -76.9254  -86.3232 C   0  0  0  0  0  0  0  0  0  0  0  0
  111.0003  -77.4165  -87.6979 C   0  0  0  0  0  0  0  0  0  0  0  0
  111.5787  -78.7020  -87.9334 C   0  0  0  0  0  0  0  0  0  0  0  0
  109.8552  -74.8200  -87.0191 C   0  0  0  0  0  0  0  0  0  0  0  0
  108.7841  -75.1907  -87.8651 C   0  0  0  0  0  0  0  0  0  0  0  0
  108.0899  -74.3482  -88.7352 C   0  0  0  0  0  0  0  0  0  0  0  0
  108.4578  -72.9429  -88.8220 C   0  0  0  0  0  0  0  0  0  0  0  0
  109.5391  -72.6070  -87.9723 C   0  0  0  0  0  0  0  0  0  0  0  0
  110.2652  -73.4178  -87.0890 C   0  0  0  0  0  0  0  0  0  0  0  0
  112.7296  -80.6758  -87.3110 N   0  3  0  0  0  0  0  0  0  0  0  0
  113.4056  -81.5439  -86.3535 C   0  0  0  0  0  0  0  0  0  0  0  0
  112.6819  -81.2870  -88.6576 C   0  0  0  0  0  0  0  0  0  0  0  0
  111.3149  -74.2030  -80.6417 N   0  0  0  0  0  0  0  0  0  0  0  0
  111.9619  -74.9710  -79.5545 C   0  0  0  0  0  0  0  0  0  0  0  0
  110.8840  -72.8421  -80.1630 C   0  0  0  0  0  0  0  0  0  0  0  0
  1  2  1  0  0  0  0
  1 14  1  0  0  0  0
  1 21  2  0  0  0  0
  2  3  2  0  0  0  0
  3  4  1  0  0  0  0
  3 12  1  0  0  0  0
  4  5  1  0  0  0  0
  5  6  1  0  0  0  0
  5 10  2  0  0  0  0
  6  7  2  0  0  0  0
  7  8  1  0  0  0  0
  7 24  1  0  0  0  0
  8  9  2  0  0  0  0
  9 10  1  0  0  0  0
 10 11  1  0  0  0  0
 11 12  2  0  0  0  0
 11 15  1  0  0  0  0
 12 13  1  0  0  0  0
 13 14  2  0  0  0  0
 15 16  2  0  0  0  0
 15 20  1  0  0  0  0
 16 17  1  0  0  0  0
 17 18  2  0  0  0  0
 18 19  1  0  0  0  0
 19 20  2  0  0  0  0
 21 22  1  0  0  0  0
 21 23  1  0  0  0  0
 24 25  1  0  0  0  0
 24 26  1  0  0  0  0
M  CHG  1  21   1
M  END
>  <CHROM.1>
-4.34458364,-128.65961132,111.03357369,-76.22127127,-85.33280620,-1.25423875
-1.05321541,1.04864230

>  <Name>
1f1t Malachite green aptamer (Xray 2.8A)

>  <RI>
0

>  <Rbt.Current_Directory>
/home/itssahil/PROJECTS/Mol_Feturizer/New_Systems/rnas/1f1t

>  <Rbt.Executable>
rbdock ($Id: //depot/dev/client3/rdock/2013.1/src/exe/rbdock.cxx#4 $)

>  <Rbt.Library>
libRbt.so (2013.1, Build901 2013/11/27)

>  <Rbt.Parameter_File>
/export/apps/rDock/src/rDock_2013.1_src/data/scripts/dock_solv.prm

>  <Rbt.Receptor>
prm/pocket_docking_3.prm

>  <SCORE>
-62.0231

>  <SCORE.INTER>
-62.3124

>  <SCORE.INTER.CONST>
1

>  <SCORE.INTER.POLAR>
0

>  <SCORE.INTER.ROT>
2

>  <SCORE.INTER.SOLV>
11.0889

>  <SCORE.INTER.VDW>
-50.1713

>  <SCORE.INTER.norm>
-2.39663

>  <SCORE.INTRA>
0.289315

>  <SCORE.INTRA.DIHEDRAL>
-1.2067

>  <SCORE.INTRA.DIHEDRAL.0>
4.18538

>  <SCORE.INTRA.POLAR>
0

>  <SCORE.INTRA.POLAR.0>
0

>  <SCORE.INTRA.REPUL>
0

>  <SCORE.INTRA.REPUL.0>
0

>  <SCORE.INTRA.SOLV>
0.0204731

>  <SCORE.INTRA.SOLV.lig_0>
-5.16926

>  <SCORE.INTRA.VDW>
0.882426

>  <SCORE.INTRA.VDW.0>
1.11912

>  <SCORE.INTRA.norm>
0.0111275

>  <SCORE.RESTR>
0

>  <SCORE.RESTR.CAVITY>
0

>  <SCORE.RESTR.norm>
0

>  <SCORE.SYSTEM>
0

>  <SCORE.SYSTEM.CONST>
0

>  <SCORE.SYSTEM.DIHEDRAL>
0

>  <SCORE.SYSTEM.SOLV>
0

>  <SCORE.SYSTEM.norm>
0

>  <SCORE.heavy>
26

>  <SCORE.norm>
-2.3855

>  <RMSD>
6.134

$$$$
1f1t Malachite green aptamer (Xray 2.8A)
 OpenBabel11021811393D
libRbt.so/2013.1/901 2013/11/27
 26 29  0  0  0  0  0  0  0  0999 V2000
  112.2165  -79.3991  -86.9576 C   0  0  0  0  0  0  0  0  0  0  0  0
  112.3497  -78.9397  -85.5830 C   0  0  0  0  0  0  0  0  0  0  0  0
  111.7854  -77.6806  -85.3694 C   0  0  0  0  0  0  0  0  0  0  0  0
  111.9484  -77.2604  -83.9493 O   0  0  0  0  0  0  0  0  0  0  0  0
  111.4209  -76.1141  -83.7610 C   0  0  0  0  0  0  0  0  0  0  0  0
  111.6417  -75.7887  -82.3521 C   0  0  0  0  0  0  0  0  0  0  0  0
  111.0984  -74.5166  -81.9517 C   0  0  0  0  0  0  0  0  0  0  0  0
  110.4017  -73.6673  -82.8466 C   0  0  0  0  0  0  0  0  0  0  0  0
  110.2242  -74.0447  -84.2365 C   0  0  0  0  0  0  0  0  0  0  0  0
  110.7729  -75.3084  -84.6633 C   0  0  0  0  0  0  0  0  0  0  0  0
  110.5577  -75.6160  -86.1266 C   0  0  0  0  0  0  0  0  0  0  0  0
  111.1445  -76.8811  -86.3093 C   0  0  0  0  0  0  0  0  0  0  0  0
  111.0268  -77.3581  -87.6890 C   0  0  0  0  0  0  0  0  0  0  0  0
  111.5940  -78.6467  -87.9346 C   0  0  0  0  0  0  0  0  0  0  0  0
  109.9038  -74.7574  -86.9898 C   0  0  0  0  0  0  0  0  0  0  0  0
  110.2164  -73.3915  -87.1823 C   0  0  0  0  0  0  0  0  0  0  0  0
  109.5786  -72.5148  -88.0617 C   0  0  0  0  0  0  0  0  0  0  0  0
  108.4810  -72.9960  -88.8872 C   0  0  0  0  0  0  0  0  0  0  0  0
  108.1859  -74.3623  -88.6628 C   0  0  0  0  0  0  0  0  0  0  0  0
  108.7948  -75.2752  -87.7907 C   0  0  0  0  0  0  0  0  0  0  0  0
  112.7239  -80.6371  -87.3267 N   0  3  0  0  0  0  0  0  0  0  0  0
  113.3881  -81.5205  -86.3750 C   0  0  0  0  0  0  0  0  0  0  0  0
  112.6755  -81.2351  -88.6792 C   0  0  0  0  0  0  0  0  0  0  0  0
  111.3457  -74.2143  -80.6016 N   0  0  0  0  0  0  0  0  0  0  0  0
  111.9936  -74.9934  -79.5229 C   0  0  0  0  0  0  0  0  0  0  0  0
  110.9112  -72.8601  -80.1076 C   0  0  0  0  0  0  0  0  0  0  0  0
  1  2  1  0  0  0  0
  1 14  1  0  0  0  0
  1 21  2  0  0  0  0
  2  3  2  0  0  0  0
  3  4  1  0  0  0  0
  3 12  1  0  0  0  0
  4  5  1  0  0  0  0
  5  6  1  0  0  0  0
  5 10  2  0  0  0  0
  6  7  2  0  0  0  0
  7  8  1  0  0  0  0
  7 24  1  0  0  0  0
  8  9  2  0  0  0  0
  9 10  1  0  0  0  0
 10 11  1  0  0  0  0
 11 12  2  0  0  0  0
 11 15  1  0  0  0  0
 12 13  1  0  0  0  0
 13 14  2  0  0  0  0
 15 16  2  0  0  0  0
 15 20  1  0  0  0  0
 16 17  1  0  0  0  0
 17 18  2  0  0  0  0
 18 19  1  0  0  0  0
 19 20  2  0  0  0  0
 21 22  1  0  0  0  0
 21 23  1  0  0  0  0
 24 25  1  0  0  0  0
 24 26  1  0  0  0  0
M  CHG  1  21   1
M  END
>  <CHROM.1>
-3.63972717,52.72493493,111.05516048,-76.20211452,-85.32340559,-1.27665821
-1.05885149,1.05311675

>  <Name>
1f1t Malachite green aptamer (Xray 2.8A)

>  <RI>
0

>  <Rbt.Current_Directory>
/home/itssahil/PROJECTS/Mol_Feturizer/New_Systems/rnas/1f1t

>  <Rbt.Executable>
rbdock ($Id: //depot/dev/client3/rdock/2013.1/src/exe/rbdock.cxx#4 $)

>  <Rbt.Library>
libRbt.so (2013.1, Build901 2013/11/27)

>  <Rbt.Parameter_File>
/export/apps/rDock/src/rDock_2013.1_src/data/scripts/dock_solv.prm

>  <Rbt.Receptor>
prm/pocket_docking_3.prm

>  <SCORE>
-63.0925

>  <SCORE.INTER>
-63.1522

>  <SCORE.INTER.CONST>
1

>  <SCORE.INTER.POLAR>
0

>  <SCORE.INTER.ROT>
2

>  <SCORE.INTER.SOLV>
11.1215

>  <SCORE.INTER.VDW>
-50.742

>  <SCORE.INTER.norm>
-2.42893

>  <SCORE.INTRA>
0.0597445

>  <SCORE.INTRA.DIHEDRAL>
-1.11651

>  <SCORE.INTRA.DIHEDRAL.0>
4.18538

>  <SCORE.INTRA.POLAR>
0

>  <SCORE.INTRA.POLAR.0>
0

>  <SCORE.INTRA.REPUL>
0

>  <SCORE.INTRA.REPUL.0>
0

>  <SCORE.INTRA.SOLV>
0.0188736

>  <SCORE.INTRA.SOLV.lig_0>
-5.16926

>  <SCORE.INTRA.VDW>
0.608562

>  <SCORE.INTRA.VDW.0>
1.11912

>  <SCORE.INTRA.norm>
0.00229786

>  <SCORE.RESTR>
0

>  <SCORE.RESTR.CAVITY>
0

>  <SCORE.RESTR.norm>
0

>  <SCORE.SYSTEM>
0

>  <SCORE.SYSTEM.CONST>
0

>  <SCORE.SYSTEM.DIHEDRAL>
0

>  <SCORE.SYSTEM.SOLV>
0

>  <SCORE.SYSTEM.norm>
0

>  <SCORE.heavy>
26

>  <SCORE.norm>
-2.42663

>  <RMSD>
6.134

$$$$
1f1t Malachite green aptamer (Xray 2.8A)
 OpenBabel11021811393D
libRbt.so/2013.1/901 2013/11/27
 26 29  0  0  0  0  0  0  0  0999 V2000
  112.2262  -79.4046  -86.9490 C   0  0  0  0  0  0  0  0  0  0  0  0
  112.3530  -78.9423  -85.5748 C   0  0  0  0  0  0  0  0  0  0  0  0
  111.7880  -77.6827  -85.3665 C   0  0  0  0  0  0  0  0  0  0  0  0
  111.9444  -77.2596  -83.9466 O   0  0  0  0  0  0  0  0  0  0  0  0
  111.4162  -76.1127  -83.7632 C   0  0  0  0  0  0  0  0  0  0  0  0
  111.6305  -75.7843  -82.3540 C   0  0  0  0  0  0  0  0  0  0  0  0
  111.0857  -74.5113  -81.9588 C   0  0  0  0  0  0  0  0  0  0  0  0
  110.3933  -73.6638  -82.8587 C   0  0  0  0  0  0  0  0  0  0  0  0
  110.2223  -74.0441  -84.2486 C   0  0  0  0  0  0  0  0  0  0  0  0
  110.7727  -75.3088  -84.6702 C   0  0  0  0  0  0  0  0  0  0  0  0
  110.5643  -75.6195  -86.1338 C   0  0  0  0  0  0  0  0  0  0  0  0
  111.1517  -76.8851  -86.3111 C   0  0  0  0  0  0  0  0  0  0  0  0
  111.0404  -77.3650  -87.6904 C   0  0  0  0  0  0  0  0  0  0  0  0
  111.6084  -78.6542  -87.9305 C   0  0  0  0  0  0  0  0  0  0  0  0
  109.9147  -74.7626  -87.0019 C   0  0  0  0  0  0  0  0  0  0  0  0
  110.2280  -73.3969  -87.1952 C   0  0  0  0  0  0  0  0  0  0  0  0
  109.5945  -72.5220  -88.0795 C   0  0  0  0  0  0  0  0  0  0  0  0
  108.5012  -73.0049  -88.9097 C   0  0  0  0  0  0  0  0  0  0  0  0
  108.2053  -74.3708  -88.6844 C   0  0  0  0  0  0  0  0  0  0  0  0
  108.8099  -75.2821  -87.8076 C   0  0  0  0  0  0  0  0  0  0  0  0
  112.7351  -80.6435  -87.3132 N   0  3  0  0  0  0  0  0  0  0  0  0
  113.3946  -81.5251  -86.3565 C   0  0  0  0  0  0  0  0  0  0  0  0
  112.6928  -81.2444  -88.6645 C   0  0  0  0  0  0  0  0  0  0  0  0
  111.3267  -74.2062  -80.6082 N   0  0  0  0  0  0  0  0  0  0  0  0
  111.9629  -74.9859  -79.5230 C   0  0  0  0  0  0  0  0  0  0  0  0
  110.8979  -72.8476  -80.1212 C   0  0  0  0  0  0  0  0  0  0  0  0
  1  2  1  0  0  0  0
  1 14  1  0  0  0  0
  1 21  2  0  0  0  0
  2  3  2  0  0  0  0
  3  4  1  0  0  0  0
  3 12  1  0  0  0  0
  4  5  1  0  0  0  0
  5  6  1  0  0  0  0
  5 10  2  0  0  0  0
  6  7  2  0  0  0  0
  7  8  1  0  0  0  0
  7 24  1  0  0  0  0
  8  9  2  0  0  0  0
  9 10  1  0  0  0  0
 10 11  1  0  0  0  0
 11 12  2  0  0  0  0
 11 15  1  0  0  0  0
 12 13  1  0  0  0  0
 13 14  2  0  0  0  0
 15 16  2  0  0  0  0
 15 20  1  0  0  0  0
 16 17  1  0  0  0  0
 17 18  2  0  0  0  0
 18 19  1  0  0  0  0
 19 20  2  0  0  0  0
 21 22  1  0  0  0  0
 21 23  1  0  0  0  0
 24 25  1  0  0  0  0
 24 26  1  0  0  0  0
M  CHG  1  21   1
M  END
>  <CHROM.1>
-4.01217978,52.68574470,111.05793667,-76.20393081,-85.32710616,-1.26862591
-1.06146759,1.05799967

>  <Name>
1f1t Malachite green aptamer (Xray 2.8A)

>  <RI>
0

>  <Rbt.Current_Directory>
/home/itssahil/PROJECTS/Mol_Feturizer/New_Systems/rnas/1f1t

>  <Rbt.Executable>
rbdock ($Id: //depot/dev/client3/rdock/2013.1/src/exe/rbdock.cxx#4 $)

>  <Rbt.Library>
libRbt.so (2013.1, Build901 2013/11/27)

>  <Rbt.Parameter_File>
/export/apps/rDock/src/rDock_2013.1_src/data/scripts/dock_solv.prm

>  <Rbt.Receptor>
prm/pocket_docking_3.prm

>  <SCORE>
-63.0772

>  <SCORE.INTER>
-63.1398

>  <SCORE.INTER.CONST>
1

>  <SCORE.INTER.POLAR>
0

>  <SCORE.INTER.ROT>
2

>  <SCORE.INTER.SOLV>
11.1405

>  <SCORE.INTER.VDW>
-50.74

>  <SCORE.INTER.norm>
-2.42845

>  <SCORE.INTRA>
0.0626066

>  <SCORE.INTRA.DIHEDRAL>
-1.1082

>  <SCORE.INTRA.DIHEDRAL.0>
4.18538

>  <SCORE.INTRA.POLAR>
0

>  <SCORE.INTRA.POLAR.0>
0

>  <SCORE.INTRA.REPUL>
0

>  <SCORE.INTRA.REPUL.0>
0

>  <SCORE.INTRA.SOLV>
0.0189152

>  <SCORE.INTRA.SOLV.lig_0>
-5.16926

>  <SCORE.INTRA.VDW>
0.607249

>  <SCORE.INTRA.VDW.0>
1.11912

>  <SCORE.INTRA.norm>
0.00240795

>  <SCORE.RESTR>
0

>  <SCORE.RESTR.CAVITY>
0

>  <SCORE.RESTR.norm>
0

>  <SCORE.SYSTEM>
0

>  <SCORE.SYSTEM.CONST>
0

>  <SCORE.SYSTEM.DIHEDRAL>
0

>  <SCORE.SYSTEM.SOLV>
0

>  <SCORE.SYSTEM.norm>
0

>  <SCORE.heavy>
26

>  <SCORE.norm>
-2.42604

>  <RMSD>
6.134

$$$$
1f1t Malachite green aptamer (Xray 2.8A)
 OpenBabel11021811393D
libRbt.so/2013.1/901 2013/11/27
 26 29  0  0  0  0  0  0  0  0999 V2000
  112.2243  -79.4483  -86.8936 C   0  0  0  0  0  0  0  0  0  0  0  0
  112.3484  -78.9505  -85.5315 C   0  0  0  0  0  0  0  0  0  0  0  0
  111.7687  -77.6930  -85.3531 C   0  0  0  0  0  0  0  0  0  0  0  0
  111.9229  -77.2329  -83.9445 O   0  0  0  0  0  0  0  0  0  0  0  0
  111.3814  -76.0883  -83.7883 C   0  0  0  0  0  0  0  0  0  0  0  0
  111.5946  -75.7225  -82.3882 C   0  0  0  0  0  0  0  0  0  0  0  0
  111.0352  -74.4467  -82.0234 C   0  0  0  0  0  0  0  0  0  0  0  0
  110.3309  -73.6301  -82.9424 C   0  0  0  0  0  0  0  0  0  0  0  0
  110.1615  -74.0468  -84.3221 C   0  0  0  0  0  0  0  0  0  0  0  0
  110.7263  -75.3149  -84.7135 C   0  0  0  0  0  0  0  0  0  0  0  0
  110.5186  -75.6643  -86.1684 C   0  0  0  0  0  0  0  0  0  0  0  0
  111.1209  -76.9268  -86.3157 C   0  0  0  0  0  0  0  0  0  0  0  0
  111.0125  -77.4420  -87.6824 C   0  0  0  0  0  0  0  0  0  0  0  0
  111.5955  -78.7299  -87.8919 C   0  0  0  0  0  0  0  0  0  0  0  0
  109.8569  -74.8370  -87.0560 C   0  0  0  0  0  0  0  0  0  0  0  0
  108.7874  -75.2234  -87.8970 C   0  0  0  0  0  0  0  0  0  0  0  0
  108.0966  -74.3978  -88.7859 C   0  0  0  0  0  0  0  0  0  0  0  0
  108.4666  -72.9950  -88.9002 C   0  0  0  0  0  0  0  0  0  0  0  0
  109.5462  -72.6434  -88.0548 C   0  0  0  0  0  0  0  0  0  0  0  0
  110.2690  -73.4370  -87.1533 C   0  0  0  0  0  0  0  0  0  0  0  0
  112.7474  -80.6896  -87.2281 N   0  3  0  0  0  0  0  0  0  0  0  0
  113.4194  -81.5392  -86.2514 C   0  0  0  0  0  0  0  0  0  0  0  0
  112.7095  -81.3243  -88.5640 C   0  0  0  0  0  0  0  0  0  0  0  0
  111.2754  -74.1054  -80.6814 N   0  0  0  0  0  0  0  0  0  0  0  0
  111.9051  -74.8579  -79.5735 C   0  0  0  0  0  0  0  0  0  0  0  0
  110.8533  -72.7313  -80.2334 C   0  0  0  0  0  0  0  0  0  0  0  0
  1  2  1  0  0  0  0
  1 14  1  0  0  0  0
  1 21  2  0  0  0  0
  2  3  2  0  0  0  0
  3  4  1  0  0  0  0
  3 12  1  0  0  0  0
  4  5  1  0  0  0  0
  5  6  1  0  0  0  0
  5 10  2  0  0  0  0
  6  7  2  0  0  0  0
  7  8  1  0  0  0  0
  7 24  1  0  0  0  0
  8  9  2  0  0  0  0
  9 10  1  0  0  0  0
 10 11  1  0  0  0  0
 11 12  2  0  0  0  0
 11 15  1  0  0  0  0
 12 13  1  0  0  0  0
 13 14  2  0  0  0  0
 15 16  2  0  0  0  0
 15 20  1  0  0  0  0
 16 17  1  0  0  0  0
 17 18  2  0  0  0  0
 18 19  1  0  0  0  0
 19 20  2  0  0  0  0
 21 22  1  0  0  0  0
 21 23  1  0  0  0  0
 24 25  1  0  0  0  0
 24 26  1  0  0  0  0
M  CHG  1  21   1
M  END
>  <CHROM.1>
-5.06689523,-128.31384325,111.02832309,-76.20562946,-85.33834625,-1.24097944
-1.05440909,1.04275477

>  <Name>
1f1t Malachite green aptamer (Xray 2.8A)

>  <RI>
0

>  <Rbt.Current_Directory>
/home/itssahil/PROJECTS/Mol_Feturizer/New_Systems/rnas/1f1t

>  <Rbt.Executable>
rbdock ($Id: //depot/dev/client3/rdock/2013.1/src/exe/rbdock.cxx#4 $)

>  <Rbt.Library>
libRbt.so (2013.1, Build901 2013/11/27)

>  <Rbt.Parameter_File>
/export/apps/rDock/src/rDock_2013.1_src/data/scripts/dock_solv.prm

>  <Rbt.Receptor>
prm/pocket_docking_3.prm

>  <SCORE>
-62.0531

>  <SCORE.INTER>
-62.3315

>  <SCORE.INTER.CONST>
1

>  <SCORE.INTER.POLAR>
0

>  <SCORE.INTER.ROT>
2

>  <SCORE.INTER.SOLV>
11.1769

>  <SCORE.INTER.VDW>
-50.2133

>  <SCORE.INTER.norm>
-2.39737

>  <SCORE.INTRA>
0.278398

>  <SCORE.INTRA.DIHEDRAL>
-1.15123

>  <SCORE.INTRA.DIHEDRAL.0>
4.18538

>  <SCORE.INTRA.POLAR>
0

>  <SCORE.INTRA.POLAR.0>
0

>  <SCORE.INTRA.REPUL>
0

>  <SCORE.INTRA.REPUL.0>
0

>  <SCORE.INTRA.SOLV>
0.0200789

>  <SCORE.INTRA.SOLV.lig_0>
-5.16926

>  <SCORE.INTRA.VDW>
0.843975

>  <SCORE.INTRA.VDW.0>
1.11912

>  <SCORE.INTRA.norm>
0.0107076

>  <SCORE.RESTR>
0

>  <SCORE.RESTR.CAVITY>
0

>  <SCORE.RESTR.norm>
0

>  <SCORE.SYSTEM>
0

>  <SCORE.SYSTEM.CONST>
0

>  <SCORE.SYSTEM.DIHEDRAL>
0

>  <SCORE.SYSTEM.SOLV>
0

>  <SCORE.SYSTEM.norm>
0

>  <SCORE.heavy>
26

>  <SCORE.norm>
-2.38666

>  <RMSD>
6.134

$$$$
1f1t Malachite green aptamer (Xray 2.8A)
 OpenBabel11021811393D
libRbt.so/2013.1/901 2013/11/27
 26 29  0  0  0  0  0  0  0  0999 V2000
  112.2389  -79.4093  -86.9635 C   0  0  0  0  0  0  0  0  0  0  0  0
  112.3664  -78.9487  -85.5887 C   0  0  0  0  0  0  0  0  0  0  0  0
  111.7996  -77.6902  -85.3782 C   0  0  0  0  0  0  0  0  0  0  0  0
  111.9567  -77.2687  -83.9578 O   0  0  0  0  0  0  0  0  0  0  0  0
  111.4269  -76.1230  -83.7724 C   0  0  0  0  0  0  0  0  0  0  0  0
  111.6420  -75.7962  -82.3629 C   0  0  0  0  0  0  0  0  0  0  0  0
  111.0955  -74.5245  -81.9655 C   0  0  0  0  0  0  0  0  0  0  0  0
  110.4010  -73.6769  -82.8636 C   0  0  0  0  0  0  0  0  0  0  0  0
  110.2292  -74.0556  -84.2539 C   0  0  0  0  0  0  0  0  0  0  0  0
  110.7813  -75.3189  -84.6777 C   0  0  0  0  0  0  0  0  0  0  0  0
  110.5719  -75.6279  -86.1415 C   0  0  0  0  0  0  0  0  0  0  0  0
  111.1611  -76.8923  -86.3211 C   0  0  0  0  0  0  0  0  0  0  0  0
  111.0492  -77.3705  -87.7009 C   0  0  0  0  0  0  0  0  0  0  0  0
  111.6190  -78.6585  -87.9433 C   0  0  0  0  0  0  0  0  0  0  0  0
  109.9201  -74.7708  -87.0079 C   0  0  0  0  0  0  0  0  0  0  0  0
  110.2270  -73.4028  -87.1949 C   0  0  0  0  0  0  0  0  0  0  0  0
  109.5913  -72.5276  -88.0774 C   0  0  0  0  0  0  0  0  0  0  0  0
  108.5025  -73.0127  -88.9122 C   0  0  0  0  0  0  0  0  0  0  0  0
  108.2130  -74.3809  -88.6930 C   0  0  0  0  0  0  0  0  0  0  0  0
  108.8200  -75.2926  -87.8183 C   0  0  0  0  0  0  0  0  0  0  0  0
  112.7494  -80.6469  -87.3298 N   0  3  0  0  0  0  0  0  0  0  0  0
  113.4112  -81.5287  -86.3749 C   0  0  0  0  0  0  0  0  0  0  0  0
  112.7068  -81.2460  -88.6819 C   0  0  0  0  0  0  0  0  0  0  0  0
  111.3374  -74.2209  -80.6147 N   0  0  0  0  0  0  0  0  0  0  0  0
  111.9831  -74.9979  -79.5332 C   0  0  0  0  0  0  0  0  0  0  0  0
  110.8981  -72.8673  -80.1231 C   0  0  0  0  0  0  0  0  0  0  0  0
  1  2  1  0  0  0  0
  1 14  1  0  0  0  0
  1 21  2  0  0  0  0
  2  3  2  0  0  0  0
  3  4  1  0  0  0  0
  3 12  1  0  0  0  0
  4  5  1  0  0  0  0
  5  6  1  0  0  0  0
  5 10  2  0  0  0  0
  6  7  2  0  0  0  0
  7  8  1  0  0  0  0
  7 24  1  0  0  0  0
  8  9  2  0  0  0  0
  9 10  1  0  0  0  0
 10 11  1  0  0  0  0
 11 12  2  0  0  0  0
 11 15  1  0  0  0  0
 12 13  1  0  0  0  0
 13 14  2  0  0  0  0
 15 16  2  0  0  0  0
 15 20  1  0  0  0  0
 16 17  1  0  0  0  0
 17 18  2  0  0  0  0
 18 19  1  0  0  0  0
 19 20  2  0  0  0  0
 21 22  1  0  0  0  0
 21 23  1  0  0  0  0
 24 25  1  0  0  0  0
 24 26  1  0  0  0  0
M  CHG  1  21   1
M  END
>  <CHROM.1>
-3.58901238,52.36725502,111.06721131,-76.21265225,-85.33608979,-1.26870390
-1.05954715,1.05932791

>  <Name>
1f1t Malachite green aptamer (Xray 2.8A)

>  <RI>
0

>  <Rbt.Current_Directory>
/home/itssahil/PROJECTS/Mol_Feturizer/New_Systems/rnas/1f1t

>  <Rbt.Executable>
rbdock ($Id: //depot/dev/client3/rdock/2013.1/src/exe/rbdock.cxx#4 $)

>  <Rbt.Library>
libRbt.so (2013.1, Build901 2013/11/27)

>  <Rbt.Parameter_File>
/export/apps/rDock/src/rDock_2013.1_src/data/scripts/dock_solv.prm

>  <Rbt.Receptor>
prm/pocket_docking_3.prm

>  <SCORE>
-63.0485

>  <SCORE.INTER>
-63.0979

>  <SCORE.INTER.CONST>
1

>  <SCORE.INTER.POLAR>
0

>  <SCORE.INTER.ROT>
2

>  <SCORE.INTER.SOLV>
11.1364

>  <SCORE.INTER.VDW>
-50.7107

>  <SCORE.INTER.norm>
-2.42684

>  <SCORE.INTRA>
0.0493619

>  <SCORE.INTRA.DIHEDRAL>
-1.14701

>  <SCORE.INTRA.DIHEDRAL.0>
4.18538

>  <SCORE.INTRA.POLAR>
0

>  <SCORE.INTRA.POLAR.0>
0

>  <SCORE.INTRA.REPUL>
0

>  <SCORE.INTRA.REPUL.0>
0

>  <SCORE.INTRA.SOLV>
0.0192756

>  <SCORE.INTRA.SOLV.lig_0>
-5.16926

>  <SCORE.INTRA.VDW>
0.613229

>  <SCORE.INTRA.VDW.0>
1.11912

>  <SCORE.INTRA.norm>
0.00189854

>  <SCORE.RESTR>
0

>  <SCORE.RESTR.CAVITY>
0

>  <SCORE.RESTR.norm>
0

>  <SCORE.SYSTEM>
0

>  <SCORE.SYSTEM.CONST>
0

>  <SCORE.SYSTEM.DIHEDRAL>
0

>  <SCORE.SYSTEM.SOLV>
0

>  <SCORE.SYSTEM.norm>
0

>  <SCORE.heavy>
26

>  <SCORE.norm>
-2.42494

>  <RMSD>
6.134

$$$$
1f1t Malachite green aptamer (Xray 2.8A)
 OpenBabel11021811393D
libRbt.so/2013.1/901 2013/11/27
 26 29  0  0  0  0  0  0  0  0999 V2000
  112.2166  -79.4033  -86.9528 C   0  0  0  0  0  0  0  0  0  0  0  0
  112.3437  -78.9438  -85.5777 C   0  0  0  0  0  0  0  0  0  0  0  0
  111.7793  -77.6843  -85.3669 C   0  0  0  0  0  0  0  0  0  0  0  0
  111.9359  -77.2640  -83.9462 O   0  0  0  0  0  0  0  0  0  0  0  0
  111.4082  -76.1173  -83.7605 C   0  0  0  0  0  0  0  0  0  0  0  0
  111.6226  -75.7918  -82.3507 C   0  0  0  0  0  0  0  0  0  0  0  0
  111.0783  -74.5193  -81.9530 C   0  0  0  0  0  0  0  0  0  0  0  0
  110.3863  -73.6697  -82.8513 C   0  0  0  0  0  0  0  0  0  0  0  0
  110.2151  -74.0472  -84.2419 C   0  0  0  0  0  0  0  0  0  0  0  0
  110.7650  -75.3114  -84.6660 C   0  0  0  0  0  0  0  0  0  0  0  0
  110.5564  -75.6191  -86.1302 C   0  0  0  0  0  0  0  0  0  0  0  0
  111.1432  -76.8846  -86.3100 C   0  0  0  0  0  0  0  0  0  0  0  0
  111.0317  -77.3617  -87.6902 C   0  0  0  0  0  0  0  0  0  0  0  0
  111.5992  -78.6507  -87.9328 C   0  0  0  0  0  0  0  0  0  0  0  0
  109.9071  -74.7602  -86.9966 C   0  0  0  0  0  0  0  0  0  0  0  0
  110.2165  -73.3926  -87.1821 C   0  0  0  0  0  0  0  0  0  0  0  0
  109.5834  -72.5155  -88.0646 C   0  0  0  0  0  0  0  0  0  0  0  0
  108.4948  -72.9981  -88.9012 C   0  0  0  0  0  0  0  0  0  0  0  0
  108.2027  -74.3661  -88.6836 C   0  0  0  0  0  0  0  0  0  0  0  0
  108.8072  -75.2795  -87.8089 C   0  0  0  0  0  0  0  0  0  0  0  0
  112.7250  -80.6417  -87.3194 N   0  3  0  0  0  0  0  0  0  0  0  0
  113.3842  -81.5254  -86.3645 C   0  0  0  0  0  0  0  0  0  0  0  0
  112.6824  -81.2400  -88.6719 C   0  0  0  0  0  0  0  0  0  0  0  0
  111.3195  -74.2170  -80.6018 N   0  0  0  0  0  0  0  0  0  0  0  0
  111.9802  -74.9880  -79.5251 C   0  0  0  0  0  0  0  0  0  0  0  0
  110.8611  -72.8720  -80.1039 C   0  0  0  0  0  0  0  0  0  0  0  0
  1  2  1  0  0  0  0
  1 14  1  0  0  0  0
  1 21  2  0  0  0  0
  2  3  2  0  0  0  0
  3  4  1  0  0  0  0
  3 12  1  0  0  0  0
  4  5  1  0  0  0  0
  5  6  1  0  0  0  0
  5 10  2  0  0  0  0
  6  7  2  0  0  0  0
  7  8  1  0  0  0  0
  7 24  1  0  0  0  0
  8  9  2  0  0  0  0
  9 10  1  0  0  0  0
 10 11  1  0  0  0  0
 11 12  2  0  0  0  0
 11 15  1  0  0  0  0
 12 13  1  0  0  0  0
 13 14  2  0  0  0  0
 15 16  2  0  0  0  0
 15 20  1  0  0  0  0
 16 17  1  0  0  0  0
 17 18  2  0  0  0  0
 18 19  1  0  0  0  0
 19 20  2  0  0  0  0
 21 22  1  0  0  0  0
 21 23  1  0  0  0  0
 24 25  1  0  0  0  0
 24 26  1  0  0  0  0
M  CHG  1  21   1
M  END
>  <CHROM.1>
-2.56204669,52.33673115,111.04961574,-76.20539968,-85.32460271,-1.26878123
-1.06142630,1.05989159

>  <Name>
1f1t Malachite green aptamer (Xray 2.8A)

>  <RI>
0

>  <Rbt.Current_Directory>
/home/itssahil/PROJECTS/Mol_Feturizer/New_Systems/rnas/1f1t

>  <Rbt.Executable>
rbdock ($Id: //depot/dev/client3/rdock/2013.1/src/exe/rbdock.cxx#4 $)

>  <Rbt.Library>
libRbt.so (2013.1, Build901 2013/11/27)

>  <Rbt.Parameter_File>
/export/apps/rDock/src/rDock_2013.1_src/data/scripts/dock_solv.prm

>  <Rbt.Receptor>
prm/pocket_docking_4.prm

>  <SCORE>
-63.0567

>  <SCORE.INTER>
-63.1023

>  <SCORE.INTER.CONST>
1

>  <SCORE.INTER.POLAR>
0

>  <SCORE.INTER.ROT>
2

>  <SCORE.INTER.SOLV>
11.1204

>  <SCORE.INTER.VDW>
-50.7083

>  <SCORE.INTER.norm>
-2.42701

>  <SCORE.INTRA>
0.0455409

>  <SCORE.INTRA.DIHEDRAL>
-1.17519

>  <SCORE.INTRA.DIHEDRAL.0>
4.18538

>  <SCORE.INTRA.POLAR>
0

>  <SCORE.INTRA.POLAR.0>
0

>  <SCORE.INTRA.REPUL>
0

>  <SCORE.INTRA.REPUL.0>
0

>  <SCORE.INTRA.SOLV>
0.0193155

>  <SCORE.INTRA.SOLV.lig_0>
-5.16926

>  <SCORE.INTRA.VDW>
0.62348

>  <SCORE.INTRA.VDW.0>
1.11912

>  <SCORE.INTRA.norm>
0.00175157

>  <SCORE.RESTR>
0

>  <SCORE.RESTR.CAVITY>
0

>  <SCORE.RESTR.norm>
0

>  <SCORE.SYSTEM>
0

>  <SCORE.SYSTEM.CONST>
0

>  <SCORE.SYSTEM.DIHEDRAL>
0

>  <SCORE.SYSTEM.SOLV>
0

>  <SCORE.SYSTEM.norm>
0

>  <SCORE.heavy>
26

>  <SCORE.norm>
-2.42526

>  <RMSD>
6.134

$$$$
1f1t Malachite green aptamer (Xray 2.8A)
 OpenBabel11021811393D
libRbt.so/2013.1/901 2013/11/27
 26 29  0  0  0  0  0  0  0  0999 V2000
  112.2160  -79.4032  -86.9536 C   0  0  0  0  0  0  0  0  0  0  0  0
  112.3449  -78.9456  -85.5780 C   0  0  0  0  0  0  0  0  0  0  0  0
  111.7831  -77.6853  -85.3653 C   0  0  0  0  0  0  0  0  0  0  0  0
  111.9415  -77.2671  -83.9441 O   0  0  0  0  0  0  0  0  0  0  0  0
  111.4162  -76.1196  -83.7567 C   0  0  0  0  0  0  0  0  0  0  0  0
  111.6322  -75.7963  -82.3465 C   0  0  0  0  0  0  0  0  0  0  0  0
  111.0907  -74.5232  -81.9469 C   0  0  0  0  0  0  0  0  0  0  0  0
  110.3998  -73.6711  -82.8436 C   0  0  0  0  0  0  0  0  0  0  0  0
  110.2269  -74.0465  -84.2346 C   0  0  0  0  0  0  0  0  0  0  0  0
  110.7740  -75.3112  -84.6607 C   0  0  0  0  0  0  0  0  0  0  0  0
  110.5639  -75.6167  -86.1251 C   0  0  0  0  0  0  0  0  0  0  0  0
  111.1481  -76.8831  -86.3069 C   0  0  0  0  0  0  0  0  0  0  0  0
  111.0347  -77.3583  -87.6876 C   0  0  0  0  0  0  0  0  0  0  0  0
  111.5995  -78.6481  -87.9323 C   0  0  0  0  0  0  0  0  0  0  0  0
  109.9158  -74.7554  -86.9900 C   0  0  0  0  0  0  0  0  0  0  0  0
  110.2358  -73.3913  -87.1832 C   0  0  0  0  0  0  0  0  0  0  0  0
  109.6038  -72.5120  -88.0643 C   0  0  0  0  0  0  0  0  0  0  0  0
  108.5049  -72.9882  -88.8909 C   0  0  0  0  0  0  0  0  0  0  0  0
  108.2024  -74.3527  -88.6658 C   0  0  0  0  0  0  0  0  0  0  0  0
  108.8053  -75.2681  -87.7921 C   0  0  0  0  0  0  0  0  0  0  0  0
  112.7217  -80.6421  -87.3221 N   0  3  0  0  0  0  0  0  0  0  0  0
  113.3797  -81.5283  -86.3687 C   0  0  0  0  0  0  0  0  0  0  0  0
  112.6771  -81.2385  -88.6754 C   0  0  0  0  0  0  0  0  0  0  0  0
  111.3334  -74.2231  -80.5955 N   0  0  0  0  0  0  0  0  0  0  0  0
  112.0033  -74.9921  -79.5230 C   0  0  0  0  0  0  0  0  0  0  0  0
  110.8657  -72.8834  -80.0921 C   0  0  0  0  0  0  0  0  0  0  0  0
  1  2  1  0  0  0  0
  1 14  1  0  0  0  0
  1 21  2  0  0  0  0
  2  3  2  0  0  0  0
  3  4  1  0  0  0  0
  3 12  1  0  0  0  0
  4  5  1  0  0  0  0
  5  6  1  0  0  0  0
  5 10  2  0  0  0  0
  6  7  2  0  0  0  0
  7  8  1  0  0  0  0
  7 24  1  0  0  0  0
  8  9  2  0  0  0  0
  9 10  1  0  0  0  0
 10 11  1  0  0  0  0
 11 12  2  0  0  0  0
 11 15  1  0  0  0  0
 12 13  1  0  0  0  0
 13 14  2  0  0  0  0
 15 16  2  0  0  0  0
 15 20  1  0  0  0  0
 16 17  1  0  0  0  0
 17 18  2  0  0  0  0
 18 19  1  0  0  0  0
 19 20  2  0  0  0  0
 21 22  1  0  0  0  0
 21 23  1  0  0  0  0
 24 25  1  0  0  0  0
 24 26  1  0  0  0  0
M  CHG  1  21   1
M  END
>  <CHROM.1>
-1.96823742,52.96125659,111.05626409,-76.20502666,-85.32051104,-1.27165251
-1.06259664,1.05862761

>  <Name>
1f1t Malachite green aptamer (Xray 2.8A)

>  <RI>
0

>  <Rbt.Current_Directory>
/home/itssahil/PROJECTS/Mol_Feturizer/New_Systems/rnas/1f1t

>  <Rbt.Executable>
rbdock ($Id: //depot/dev/client3/rdock/2013.1/src/exe/rbdock.cxx#4 $)

>  <Rbt.Library>
libRbt.so (2013.1, Build901 2013/11/27)

>  <Rbt.Parameter_File>
/export/apps/rDock/src/rDock_2013.1_src/data/scripts/dock_solv.prm

>  <Rbt.Receptor>
prm/pocket_docking_4.prm

>  <SCORE>
-63.0263

>  <SCORE.INTER>
-63.0744

>  <SCORE.INTER.CONST>
1

>  <SCORE.INTER.POLAR>
0

>  <SCORE.INTER.ROT>
2

>  <SCORE.INTER.SOLV>
11.1201

>  <SCORE.INTER.VDW>
-50.6896

>  <SCORE.INTER.norm>
-2.42594

>  <SCORE.INTRA>
0.0480982

>  <SCORE.INTRA.DIHEDRAL>
-1.1357

>  <SCORE.INTRA.DIHEDRAL.0>
4.18538

>  <SCORE.INTRA.POLAR>
0

>  <SCORE.INTRA.POLAR.0>
0

>  <SCORE.INTRA.REPUL>
0

>  <SCORE.INTRA.REPUL.0>
0

>  <SCORE.INTRA.SOLV>
0.0186163

>  <SCORE.INTRA.SOLV.lig_0>
-5.16926

>  <SCORE.INTRA.VDW>
0.60664

>  <SCORE.INTRA.VDW.0>
1.11912

>  <SCORE.INTRA.norm>
0.00184993

>  <SCORE.RESTR>
0

>  <SCORE.RESTR.CAVITY>
0

>  <SCORE.RESTR.norm>
0

>  <SCORE.SYSTEM>
0

>  <SCORE.SYSTEM.CONST>
0

>  <SCORE.SYSTEM.DIHEDRAL>
0

>  <SCORE.SYSTEM.SOLV>
0

>  <SCORE.SYSTEM.norm>
0

>  <SCORE.heavy>
26

>  <SCORE.norm>
-2.42409

>  <RMSD>
6.134

$$$$
1f1t Malachite green aptamer (Xray 2.8A)
 OpenBabel11021811393D
libRbt.so/2013.1/901 2013/11/27
 26 29  0  0  0  0  0  0  0  0999 V2000
  112.2144  -79.4026  -86.9426 C   0  0  0  0  0  0  0  0  0  0  0  0
  112.3435  -78.9404  -85.5686 C   0  0  0  0  0  0  0  0  0  0  0  0
  111.7802  -77.6800  -85.3597 C   0  0  0  0  0  0  0  0  0  0  0  0
  111.9389  -77.2570  -83.9400 O   0  0  0  0  0  0  0  0  0  0  0  0
  111.4123  -76.1095  -83.7561 C   0  0  0  0  0  0  0  0  0  0  0  0
  111.6287  -75.7812  -82.3471 C   0  0  0  0  0  0  0  0  0  0  0  0
  111.0858  -74.5075  -81.9514 C   0  0  0  0  0  0  0  0  0  0  0  0
  110.3934  -73.6593  -82.8506 C   0  0  0  0  0  0  0  0  0  0  0  0
  110.2202  -74.0395  -84.2402 C   0  0  0  0  0  0  0  0  0  0  0  0
  110.7687  -75.3049  -84.6624 C   0  0  0  0  0  0  0  0  0  0  0  0
  110.5580  -75.6155  -86.1257 C   0  0  0  0  0  0  0  0  0  0  0  0
  111.1437  -76.8818  -86.3036 C   0  0  0  0  0  0  0  0  0  0  0  0
  111.0301  -77.3616  -87.6827 C   0  0  0  0  0  0  0  0  0  0  0  0
  111.5963  -78.6516  -87.9234 C   0  0  0  0  0  0  0  0  0  0  0  0
  109.9084  -74.7578  -86.9931 C   0  0  0  0  0  0  0  0  0  0  0  0
  110.2280  -73.3946  -87.1925 C   0  0  0  0  0  0  0  0  0  0  0  0
  109.5945  -72.5190  -88.0763 C   0  0  0  0  0  0  0  0  0  0  0  0
  108.4941  -72.9987  -88.8990 C   0  0  0  0  0  0  0  0  0  0  0  0
  108.1921  -74.3622  -88.6676 C   0  0  0  0  0  0  0  0  0  0  0  0
  108.7965  -75.2739  -87.7911 C   0  0  0  0  0  0  0  0  0  0  0  0
  112.7214  -80.6422  -87.3073 N   0  3  0  0  0  0  0  0  0  0  0  0
  113.3810  -81.5245  -86.3513 C   0  0  0  0  0  0  0  0  0  0  0  0
  112.6767  -81.2431  -88.6585 C   0  0  0  0  0  0  0  0  0  0  0  0
  111.3289  -74.2027  -80.6012 N   0  0  0  0  0  0  0  0  0  0  0  0
  111.9659  -74.9828  -79.5168 C   0  0  0  0  0  0  0  0  0  0  0  0
  110.9019  -72.8436  -80.1136 C   0  0  0  0  0  0  0  0  0  0  0  0
  1  2  1  0  0  0  0
  1 14  1  0  0  0  0
  1 21  2  0  0  0  0
  2  3  2  0  0  0  0
  3  4  1  0  0  0  0
  3 12  1  0  0  0  0
  4  5  1  0  0  0  0
  5  6  1  0  0  0  0
  5 10  2  0  0  0  0
  6  7  2  0  0  0  0
  7  8  1  0  0  0  0
  7 24  1  0  0  0  0
  8  9  2  0  0  0  0
  9 10  1  0  0  0  0
 10 11  1  0  0  0  0
 11 12  2  0  0  0  0
 11 15  1  0  0  0  0
 12 13  1  0  0  0  0
 13 14  2  0  0  0  0
 15 16  2  0  0  0  0
 15 20  1  0  0  0  0
 16 17  1  0  0  0  0
 17 18  2  0  0  0  0
 18 19  1  0  0  0  0
 19 20  2  0  0  0  0
 21 22  1  0  0  0  0
 21 23  1  0  0  0  0
 24 25  1  0  0  0  0
 24 26  1  0  0  0  0
M  CHG  1  21   1
M  END
>  <CHROM.1>
-3.99067783,53.06973707,111.05190964,-76.20042852,-85.31950957,-1.27193192
-1.06185812,1.05499839

>  <Name>
1f1t Malachite green aptamer (Xray 2.8A)

>  <RI>
0

>  <Rbt.Current_Directory>
/home/itssahil/PROJECTS/Mol_Feturizer/New_Systems/rnas/1f1t

>  <Rbt.Executable>
rbdock ($Id: //depot/dev/client3/rdock/2013.1/src/exe/rbdock.cxx#4 $)

>  <Rbt.Library>
libRbt.so (2013.1, Build901 2013/11/27)

>  <Rbt.Parameter_File>
/export/apps/rDock/src/rDock_2013.1_src/data/scripts/dock_solv.prm

>  <Rbt.Receptor>
prm/pocket_docking_4.prm

>  <SCORE>
-63.1296

>  <SCORE.INTER>
-63.1841

>  <SCORE.INTER.CONST>
1

>  <SCORE.INTER.POLAR>
0

>  <SCORE.INTER.ROT>
2

>  <SCORE.INTER.SOLV>
11.1305

>  <SCORE.INTER.VDW>
-50.7663

>  <SCORE.INTER.norm>
-2.43016

>  <SCORE.INTRA>
0.0544882

>  <SCORE.INTRA.DIHEDRAL>
-1.07783

>  <SCORE.INTRA.DIHEDRAL.0>
4.18538

>  <SCORE.INTRA.POLAR>
0

>  <SCORE.INTRA.POLAR.0>
0

>  <SCORE.INTRA.REPUL>
0

>  <SCORE.INTRA.REPUL.0>
0

>  <SCORE.INTRA.SOLV>
0.0184831

>  <SCORE.INTRA.SOLV.lig_0>
-5.16926

>  <SCORE.INTRA.VDW>
0.584163

>  <SCORE.INTRA.VDW.0>
1.11912

>  <SCORE.INTRA.norm>
0.0020957

>  <SCORE.RESTR>
0

>  <SCORE.RESTR.CAVITY>
0

>  <SCORE.RESTR.norm>
0

>  <SCORE.SYSTEM>
0

>  <SCORE.SYSTEM.CONST>
0

>  <SCORE.SYSTEM.DIHEDRAL>
0

>  <SCORE.SYSTEM.SOLV>
0

>  <SCORE.SYSTEM.norm>
0

>  <SCORE.heavy>
26

>  <SCORE.norm>
-2.42806

>  <RMSD>
6.134

$$$$
1f1t Malachite green aptamer (Xray 2.8A)
 OpenBabel11021811393D
libRbt.so/2013.1/901 2013/11/27
 26 29  0  0  0  0  0  0  0  0999 V2000
  112.2336  -79.4095  -86.9527 C   0  0  0  0  0  0  0  0  0  0  0  0
  112.3620  -78.9477  -85.5784 C   0  0  0  0  0  0  0  0  0  0  0  0
  111.7958  -77.6888  -85.3687 C   0  0  0  0  0  0  0  0  0  0  0  0
  111.9539  -77.2662  -83.9489 O   0  0  0  0  0  0  0  0  0  0  0  0
  111.4246  -76.1200  -83.7641 C   0  0  0  0  0  0  0  0  0  0  0  0
  111.6407  -75.7920  -82.3551 C   0  0  0  0  0  0  0  0  0  0  0  0
  111.0949  -74.5199  -81.9584 C   0  0  0  0  0  0  0  0  0  0  0  0
  110.4001  -73.6728  -82.8569 C   0  0  0  0  0  0  0  0  0  0  0  0
  110.2273  -74.0527  -84.2467 C   0  0  0  0  0  0  0  0  0  0  0  0
  110.7787  -75.3165  -84.6698 C   0  0  0  0  0  0  0  0  0  0  0  0
  110.5683  -75.6268  -86.1332 C   0  0  0  0  0  0  0  0  0  0  0  0
  111.1570  -76.8916  -86.3120 C   0  0  0  0  0  0  0  0  0  0  0  0
  111.0441  -77.3710  -87.6913 C   0  0  0  0  0  0  0  0  0  0  0  0
  111.6134  -78.6594  -87.9329 C   0  0  0  0  0  0  0  0  0  0  0  0
  109.9163  -74.7703  -86.9999 C   0  0  0  0  0  0  0  0  0  0  0  0
  110.2214  -73.4019  -87.1861 C   0  0  0  0  0  0  0  0  0  0  0  0
  109.5855  -72.5271  -88.0689 C   0  0  0  0  0  0  0  0  0  0  0  0
  108.4983  -73.0134  -88.9050 C   0  0  0  0  0  0  0  0  0  0  0  0
  108.2104  -74.3822  -88.6867 C   0  0  0  0  0  0  0  0  0  0  0  0
  108.8178  -75.2933  -87.8117 C   0  0  0  0  0  0  0  0  0  0  0  0
  112.7434  -80.6476  -87.3182 N   0  3  0  0  0  0  0  0  0  0  0  0
  113.4056  -81.5288  -86.3630 C   0  0  0  0  0  0  0  0  0  0  0  0
  112.6998  -81.2479  -88.6698 C   0  0  0  0  0  0  0  0  0  0  0  0
  111.3377  -74.2151  -80.6081 N   0  0  0  0  0  0  0  0  0  0  0  0
  111.9838  -74.9913  -79.5263 C   0  0  0  0  0  0  0  0  0  0  0  0
  110.8991  -72.8609  -80.1174 C   0  0  0  0  0  0  0  0  0  0  0  0
  1  2  1  0  0  0  0
  1 14  1  0  0  0  0
  1 21  2  0  0  0  0
  2  3  2  0  0  0  0
  3  4  1  0  0  0  0
  3 12  1  0  0  0  0
  4  5  1  0  0  0  0
  5  6  1  0  0  0  0
  5 10  2  0  0  0  0
  6  7  2  0  0  0  0
  7  8  1  0  0  0  0
  7 24  1  0  0  0  0
  8  9  2  0  0  0  0
  9 10  1  0  0  0  0
 10 11  1  0  0  0  0
 11 12  2  0  0  0  0
 11 15  1  0  0  0  0
 12 13  1  0  0  0  0
 13 14  2  0  0  0  0
 15 16  2  0  0  0  0
 15 20  1  0  0  0  0
 16 17  1  0  0  0  0
 17 18  2  0  0  0  0
 18 19  1  0  0  0  0
 19 20  2  0  0  0  0
 21 22  1  0  0  0  0
 21 23  1  0  0  0  0
 24 25  1  0  0  0  0
 24 26  1  0  0  0  0
M  CHG  1  21   1
M  END
>  <CHROM.1>
-3.58672740,52.21056139,111.06394751,-76.21102363,-85.32753140,-1.27016439
-1.05954094,1.05716057

>  <Name>
1f1t Malachite green aptamer (Xray 2.8A)

>  <RI>
0

>  <Rbt.Current_Directory>
/home/itssahil/PROJECTS/Mol_Feturizer/New_Systems/rnas/1f1t

>  <Rbt.Executable>
rbdock ($Id: //depot/dev/client3/rdock/2013.1/src/exe/rbdock.cxx#4 $)

>  <Rbt.Library>
libRbt.so (2013.1, Build901 2013/11/27)

>  <Rbt.Parameter_File>
/export/apps/rDock/src/rDock_2013.1_src/data/scripts/dock_solv.prm

>  <Rbt.Receptor>
prm/pocket_docking_4.prm

>  <SCORE>
-63.0637

>  <SCORE.INTER>
-63.1166

>  <SCORE.INTER.CONST>
1

>  <SCORE.INTER.POLAR>
0

>  <SCORE.INTER.ROT>
2

>  <SCORE.INTER.SOLV>
11.1279

>  <SCORE.INTER.VDW>
-50.7204

>  <SCORE.INTER.norm>
-2.42756

>  <SCORE.INTRA>
0.0528873

>  <SCORE.INTRA.DIHEDRAL>
-1.15982

>  <SCORE.INTRA.DIHEDRAL.0>
4.18538

>  <SCORE.INTRA.POLAR>
0

>  <SCORE.INTRA.POLAR.0>
0

>  <SCORE.INTRA.REPUL>
0

>  <SCORE.INTRA.REPUL.0>
0

>  <SCORE.INTRA.SOLV>
0.0194512

>  <SCORE.INTRA.SOLV.lig_0>
-5.16926

>  <SCORE.INTRA.VDW>
0.623071

>  <SCORE.INTRA.VDW.0>
1.11912

>  <SCORE.INTRA.norm>
0.00203413

>  <SCORE.RESTR>
0

>  <SCORE.RESTR.CAVITY>
0

>  <SCORE.RESTR.norm>
0

>  <SCORE.SYSTEM>
0

>  <SCORE.SYSTEM.CONST>
0

>  <SCORE.SYSTEM.DIHEDRAL>
0

>  <SCORE.SYSTEM.SOLV>
0

>  <SCORE.SYSTEM.norm>
0

>  <SCORE.heavy>
26

>  <SCORE.norm>
-2.42553

>  <RMSD>
6.134

$$$$
1f1t Malachite green aptamer (Xray 2.8A)
 OpenBabel11021811393D
libRbt.so/2013.1/901 2013/11/27
 26 29  0  0  0  0  0  0  0  0999 V2000
  112.2397  -79.4020  -86.9555 C   0  0  0  0  0  0  0  0  0  0  0  0
  112.3659  -78.9445  -85.5796 C   0  0  0  0  0  0  0  0  0  0  0  0
  111.8014  -77.6853  -85.3674 C   0  0  0  0  0  0  0  0  0  0  0  0
  111.9572  -77.2671  -83.9460 O   0  0  0  0  0  0  0  0  0  0  0  0
  111.4295  -76.1206  -83.7590 C   0  0  0  0  0  0  0  0  0  0  0  0
  111.6431  -75.7971  -82.3485 C   0  0  0  0  0  0  0  0  0  0  0  0
  111.0987  -74.5252  -81.9493 C   0  0  0  0  0  0  0  0  0  0  0  0
  110.4073  -73.6742  -82.8468 C   0  0  0  0  0  0  0  0  0  0  0  0
  110.2370  -74.0497  -84.2381 C   0  0  0  0  0  0  0  0  0  0  0  0
  110.7870  -75.3133  -84.6637 C   0  0  0  0  0  0  0  0  0  0  0  0
  110.5793  -75.6188  -86.1284 C   0  0  0  0  0  0  0  0  0  0  0  0
  111.1661  -76.8841  -86.3097 C   0  0  0  0  0  0  0  0  0  0  0  0
  111.0554  -77.3592  -87.6907 C   0  0  0  0  0  0  0  0  0  0  0  0
  111.6229  -78.6480  -87.9348 C   0  0  0  0  0  0  0  0  0  0  0  0
  109.9307  -74.7586  -86.9940 C   0  0  0  0  0  0  0  0  0  0  0  0
  110.2309  -73.3873  -87.1669 C   0  0  0  0  0  0  0  0  0  0  0  0
  109.5984  -72.5087  -88.0483 C   0  0  0  0  0  0  0  0  0  0  0  0
  108.5208  -72.9935  -88.8976 C   0  0  0  0  0  0  0  0  0  0  0  0
  108.2376  -74.3652  -88.6925 C   0  0  0  0  0  0  0  0  0  0  0  0
  108.8417  -75.2804  -87.8194 C   0  0  0  0  0  0  0  0  0  0  0  0
  112.7481  -80.6400  -87.3236 N   0  3  0  0  0  0  0  0  0  0  0  0
  113.4066  -81.5252  -86.3695 C   0  0  0  0  0  0  0  0  0  0  0  0
  112.7064  -81.2362  -88.6770 C   0  0  0  0  0  0  0  0  0  0  0  0
  111.3390  -74.2249  -80.5976 N   0  0  0  0  0  0  0  0  0  0  0  0
  112.0082  -74.9931  -79.5241 C   0  0  0  0  0  0  0  0  0  0  0  0
  110.8692  -72.8857  -80.0948 C   0  0  0  0  0  0  0  0  0  0  0  0
  1  2  1  0  0  0  0
  1 14  1  0  0  0  0
  1 21  2  0  0  0  0
  2  3  2  0  0  0  0
  3  4  1  0  0  0  0
  3 12  1  0  0  0  0
  4  5  1  0  0  0  0
  5  6  1  0  0  0  0
  5 10  2  0  0  0  0
  6  7  2  0  0  0  0
  7  8  1  0  0  0  0
  7 24  1  0  0  0  0
  8  9  2  0  0  0  0
  9 10  1  0  0  0  0
 10 11  1  0  0  0  0
 11 12  2  0  0  0  0
 11 15  1  0  0  0  0
 12 13  1  0  0  0  0
 13 14  2  0  0  0  0
 15 16  2  0  0  0  0
 15 20  1  0  0  0  0
 16 17  1  0  0  0  0
 17 18  2  0  0  0  0
 18 19  1  0  0  0  0
 19 20  2  0  0  0  0
 21 22  1  0  0  0  0
 21 23  1  0  0  0  0
 24 25  1  0  0  0  0
 24 26  1  0  0  0  0
M  CHG  1  21   1
M  END
>  <CHROM.1>
-2.01514411,51.61482462,111.07196448,-76.20639875,-85.32345752,-1.26773372
-1.06174941,1.06234427

>  <Name>
1f1t Malachite green aptamer (Xray 2.8A)

>  <RI>
0

>  <Rbt.Current_Directory>
/home/itssahil/PROJECTS/Mol_Feturizer/New_Systems/rnas/1f1t

>  <Rbt.Executable>
rbdock ($Id: //depot/dev/client3/rdock/2013.1/src/exe/rbdock.cxx#4 $)

>  <Rbt.Library>
libRbt.so (2013.1, Build901 2013/11/27)

>  <Rbt.Parameter_File>
/export/apps/rDock/src/rDock_2013.1_src/data/scripts/dock_solv.prm

>  <Rbt.Receptor>
prm/pocket_docking_4.prm

>  <SCORE>
-63.0328

>  <SCORE.INTER>
-63.0936

>  <SCORE.INTER.CONST>
1

>  <SCORE.INTER.POLAR>
0

>  <SCORE.INTER.ROT>
2

>  <SCORE.INTER.SOLV>
11.1385

>  <SCORE.INTER.VDW>
-50.7086

>  <SCORE.INTER.norm>
-2.42668

>  <SCORE.INTRA>
0.060814

>  <SCORE.INTRA.DIHEDRAL>
-1.2444

>  <SCORE.INTRA.DIHEDRAL.0>
4.18538

>  <SCORE.INTRA.POLAR>
0

>  <SCORE.INTRA.POLAR.0>
0

>  <SCORE.INTRA.REPUL>
0

>  <SCORE.INTRA.REPUL.0>
0

>  <SCORE.INTRA.SOLV>
0.0201248

>  <SCORE.INTRA.SOLV.lig_0>
-5.16926

>  <SCORE.INTRA.VDW>
0.672952

>  <SCORE.INTRA.VDW.0>
1.11912

>  <SCORE.INTRA.norm>
0.002339

>  <SCORE.RESTR>
0

>  <SCORE.RESTR.CAVITY>
0

>  <SCORE.RESTR.norm>
0

>  <SCORE.SYSTEM>
0

>  <SCORE.SYSTEM.CONST>
0

>  <SCORE.SYSTEM.DIHEDRAL>
0

>  <SCORE.SYSTEM.SOLV>
0

>  <SCORE.SYSTEM.norm>
0

>  <SCORE.heavy>
26

>  <SCORE.norm>
-2.42434

>  <RMSD>
6.134

$$$$
1f1t Malachite green aptamer (Xray 2.8A)
 OpenBabel11021811393D
libRbt.so/2013.1/901 2013/11/27
 26 29  0  0  0  0  0  0  0  0999 V2000
  112.2237  -79.4040  -86.9732 C   0  0  0  0  0  0  0  0  0  0  0  0
  112.3514  -78.9508  -85.5960 C   0  0  0  0  0  0  0  0  0  0  0  0
  111.7875  -77.6920  -85.3794 C   0  0  0  0  0  0  0  0  0  0  0  0
  111.9447  -77.2783  -83.9568 O   0  0  0  0  0  0  0  0  0  0  0  0
  111.4175  -76.1322  -83.7658 C   0  0  0  0  0  0  0  0  0  0  0  0
  111.6325  -75.8132  -82.3545 C   0  0  0  0  0  0  0  0  0  0  0  0
  111.0888  -74.5423  -81.9509 C   0  0  0  0  0  0  0  0  0  0  0  0
  110.3969  -73.6884  -82.8451 C   0  0  0  0  0  0  0  0  0  0  0  0
  110.2250  -74.0595  -84.2374 C   0  0  0  0  0  0  0  0  0  0  0  0
  110.7744  -75.3219  -84.6674 C   0  0  0  0  0  0  0  0  0  0  0  0
  110.5652  -75.6229  -86.1329 C   0  0  0  0  0  0  0  0  0  0  0  0
  111.1515  -76.8878  -86.3186 C   0  0  0  0  0  0  0  0  0  0  0  0
  111.0393  -77.3586  -87.7009 C   0  0  0  0  0  0  0  0  0  0  0  0
  111.6062  -78.6467  -87.9496 C   0  0  0  0  0  0  0  0  0  0  0  0
  109.9160  -74.7598  -86.9952 C   0  0  0  0  0  0  0  0  0  0  0  0
  110.2408  -73.3973  -87.1917 C   0  0  0  0  0  0  0  0  0  0  0  0
  109.6077  -72.5164  -88.0703 C   0  0  0  0  0  0  0  0  0  0  0  0
  108.5022  -72.9887  -88.8903 C   0  0  0  0  0  0  0  0  0  0  0  0
  108.1950  -74.3516  -88.6619 C   0  0  0  0  0  0  0  0  0  0  0  0
  108.7988  -75.2686  -87.7905 C   0  0  0  0  0  0  0  0  0  0  0  0
  112.7315  -80.6409  -87.3456 N   0  3  0  0  0  0  0  0  0  0  0  0
  113.3906  -81.5292  -86.3949 C   0  0  0  0  0  0  0  0  0  0  0  0
  112.6883  -81.2330  -88.7008 C   0  0  0  0  0  0  0  0  0  0  0  0
  111.3305  -74.2462  -80.5984 N   0  0  0  0  0  0  0  0  0  0  0  0
  111.9789  -75.0280  -79.5219 C   0  0  0  0  0  0  0  0  0  0  0  0
  110.8879  -72.8968  -80.0984 C   0  0  0  0  0  0  0  0  0  0  0  0
  1  2  1  0  0  0  0
  1 14  1  0  0  0  0
  1 21  2  0  0  0  0
  2  3  2  0  0  0  0
  3  4  1  0  0  0  0
  3 12  1  0  0  0  0
  4  5  1  0  0  0  0
  5  6  1  0  0  0  0
  5 10  2  0  0  0  0
  6  7  2  0  0  0  0
  7  8  1  0  0  0  0
  7 24  1  0  0  0  0
  8  9  2  0  0  0  0
  9 10  1  0  0  0  0
 10 11  1  0  0  0  0
 11 12  2  0  0  0  0
 11 15  1  0  0  0  0
 12 13  1  0  0  0  0
 13 14  2  0  0  0  0
 15 16  2  0  0  0  0
 15 20  1  0  0  0  0
 16 17  1  0  0  0  0
 17 18  2  0  0  0  0
 18 19  1  0  0  0  0
 19 20  2  0  0  0  0
 21 22  1  0  0  0  0
 21 23  1  0  0  0  0
 24 25  1  0  0  0  0
 24 26  1  0  0  0  0
M  CHG  1  21   1
M  END
>  <CHROM.1>
-3.28817497,53.50395467,111.05835978,-76.21301057,-85.33001835,-1.26965399
-1.06170787,1.06356300

>  <Name>
1f1t Malachite green aptamer (Xray 2.8A)

>  <RI>
0

>  <Rbt.Current_Directory>
/home/itssahil/PROJECTS/Mol_Feturizer/New_Systems/rnas/1f1t

>  <Rbt.Executable>
rbdock ($Id: //depot/dev/client3/rdock/2013.1/src/exe/rbdock.cxx#4 $)

>  <Rbt.Library>
libRbt.so (2013.1, Build901 2013/11/27)

>  <Rbt.Parameter_File>
/export/apps/rDock/src/rDock_2013.1_src/data/scripts/dock_solv.prm

>  <Rbt.Receptor>
prm/pocket_docking_4.prm

>  <SCORE>
-62.9919

>  <SCORE.INTER>
-63.0343

>  <SCORE.INTER.CONST>
1

>  <SCORE.INTER.POLAR>
0

>  <SCORE.INTER.ROT>
2

>  <SCORE.INTER.SOLV>
11.112

>  <SCORE.INTER.VDW>
-50.6602

>  <SCORE.INTER.norm>
-2.4244

>  <SCORE.INTRA>
0.0423878

>  <SCORE.INTRA.DIHEDRAL>
-1.0635

>  <SCORE.INTRA.DIHEDRAL.0>
4.18538

>  <SCORE.INTRA.POLAR>
0

>  <SCORE.INTRA.POLAR.0>
0

>  <SCORE.INTRA.REPUL>
0

>  <SCORE.INTRA.REPUL.0>
0

>  <SCORE.INTRA.SOLV>
0.0179972

>  <SCORE.INTRA.SOLV.lig_0>
-5.16926

>  <SCORE.INTRA.VDW>
0.565138

>  <SCORE.INTRA.VDW.0>
1.11912

>  <SCORE.INTRA.norm>
0.0016303

>  <SCORE.RESTR>
0

>  <SCORE.RESTR.CAVITY>
0

>  <SCORE.RESTR.norm>
0

>  <SCORE.SYSTEM>
0

>  <SCORE.SYSTEM.CONST>
0

>  <SCORE.SYSTEM.DIHEDRAL>
0

>  <SCORE.SYSTEM.SOLV>
0

>  <SCORE.SYSTEM.norm>
0

>  <SCORE.heavy>
26

>  <SCORE.norm>
-2.42276

>  <RMSD>
6.134

$$$$
1f1t Malachite green aptamer (Xray 2.8A)
 OpenBabel11021811393D
libRbt.so/2013.1/901 2013/11/27
 26 29  0  0  0  0  0  0  0  0999 V2000
  112.2355  -79.3964  -86.9547 C   0  0  0  0  0  0  0  0  0  0  0  0
  112.3620  -78.9397  -85.5785 C   0  0  0  0  0  0  0  0  0  0  0  0
  111.7960  -77.6814  -85.3650 C   0  0  0  0  0  0  0  0  0  0  0  0
  111.9520  -77.2640  -83.9434 O   0  0  0  0  0  0  0  0  0  0  0  0
  111.4230  -76.1183  -83.7553 C   0  0  0  0  0  0  0  0  0  0  0  0
  111.6369  -75.7956  -82.3447 C   0  0  0  0  0  0  0  0  0  0  0  0
  111.0911  -74.5246  -81.9443 C   0  0  0  0  0  0  0  0  0  0  0  0
  110.3981  -73.6739  -82.8408 C   0  0  0  0  0  0  0  0  0  0  0  0
  110.2274  -74.0486  -84.2322 C   0  0  0  0  0  0  0  0  0  0  0  0
  110.7789  -75.3112  -84.6590 C   0  0  0  0  0  0  0  0  0  0  0  0
  110.5708  -75.6159  -86.1239 C   0  0  0  0  0  0  0  0  0  0  0  0
  111.1591  -76.8803  -86.3064 C   0  0  0  0  0  0  0  0  0  0  0  0
  111.0482  -77.3546  -87.6876 C   0  0  0  0  0  0  0  0  0  0  0  0
  111.6172  -78.6424  -87.9331 C   0  0  0  0  0  0  0  0  0  0  0  0
  109.9205  -74.7559  -86.9885 C   0  0  0  0  0  0  0  0  0  0  0  0
  110.2284  -73.3876  -87.1711 C   0  0  0  0  0  0  0  0  0  0  0  0
  109.5943  -72.5093  -88.0517 C   0  0  0  0  0  0  0  0  0  0  0  0
  108.5063  -72.9914  -88.8894 C   0  0  0  0  0  0  0  0  0  0  0  0
  108.2157  -74.3601  -88.6746 C   0  0  0  0  0  0  0  0  0  0  0  0
  108.8212  -75.2747  -87.8019 C   0  0  0  0  0  0  0  0  0  0  0  0
  112.7454  -80.6334  -87.3239 N   0  3  0  0  0  0  0  0  0  0  0  0
  113.4055  -81.5184  -86.3709 C   0  0  0  0  0  0  0  0  0  0  0  0
  112.7036  -81.2287  -88.6777 C   0  0  0  0  0  0  0  0  0  0  0  0
  111.3318  -74.2250  -80.5924 N   0  0  0  0  0  0  0  0  0  0  0  0
  112.0031  -74.9929  -79.5201 C   0  0  0  0  0  0  0  0  0  0  0  0
  110.8599  -72.8870  -80.0883 C   0  0  0  0  0  0  0  0  0  0  0  0
  1  2  1  0  0  0  0
  1 14  1  0  0  0  0
  1 21  2  0  0  0  0
  2  3  2  0  0  0  0
  3  4  1  0  0  0  0
  3 12  1  0  0  0  0
  4  5  1  0  0  0  0
  5  6  1  0  0  0  0
  5 10  2  0  0  0  0
  6  7  2  0  0  0  0
  7  8  1  0  0  0  0
  7 24  1  0  0  0  0
  8  9  2  0  0  0  0
  9 10  1  0  0  0  0
 10 11  1  0  0  0  0
 11 12  2  0  0  0  0
 11 15  1  0  0  0  0
 12 13  1  0  0  0  0
 13 14  2  0  0  0  0
 15 16  2  0  0  0  0
 15 20  1  0  0  0  0
 16 17  1  0  0  0  0
 17 18  2  0  0  0  0
 18 19  1  0  0  0  0
 19 20  2  0  0  0  0
 21 22  1  0  0  0  0
 21 23  1  0  0  0  0
 24 25  1  0  0  0  0
 24 26  1  0  0  0  0
M  CHG  1  21   1
M  END
>  <CHROM.1>
-1.98624891,52.34396717,111.06451944,-76.20345328,-85.31953669,-1.26731518
-1.06025632,1.06337585

>  <Name>
1f1t Malachite green aptamer (Xray 2.8A)

>  <RI>
0

>  <Rbt.Current_Directory>
/home/itssahil/PROJECTS/Mol_Feturizer/New_Systems/rnas/1f1t

>  <Rbt.Executable>
rbdock ($Id: //depot/dev/client3/rdock/2013.1/src/exe/rbdock.cxx#4 $)

>  <Rbt.Library>
libRbt.so (2013.1, Build901 2013/11/27)

>  <Rbt.Parameter_File>
/export/apps/rDock/src/rDock_2013.1_src/data/scripts/dock_solv.prm

>  <Rbt.Receptor>
prm/pocket_docking_5.prm

>  <SCORE>
-63.025

>  <SCORE.INTER>
-63.0685

>  <SCORE.INTER.CONST>
1

>  <SCORE.INTER.POLAR>
0

>  <SCORE.INTER.ROT>
2

>  <SCORE.INTER.SOLV>
11.1264

>  <SCORE.INTER.VDW>
-50.6878

>  <SCORE.INTER.norm>
-2.42571

>  <SCORE.INTRA>
0.043496

>  <SCORE.INTRA.DIHEDRAL>
-1.18544

>  <SCORE.INTRA.DIHEDRAL.0>
4.18538

>  <SCORE.INTRA.POLAR>
0

>  <SCORE.INTRA.POLAR.0>
0

>  <SCORE.INTRA.REPUL>
0

>  <SCORE.INTRA.REPUL.0>
0

>  <SCORE.INTRA.SOLV>
0.01931

>  <SCORE.INTRA.SOLV.lig_0>
-5.16926

>  <SCORE.INTRA.VDW>
0.62656

>  <SCORE.INTRA.VDW.0>
1.11912

>  <SCORE.INTRA.norm>
0.00167292

>  <SCORE.RESTR>
0

>  <SCORE.RESTR.CAVITY>
0

>  <SCORE.RESTR.norm>
0

>  <SCORE.SYSTEM>
0

>  <SCORE.SYSTEM.CONST>
0

>  <SCORE.SYSTEM.DIHEDRAL>
0

>  <SCORE.SYSTEM.SOLV>
0

>  <SCORE.SYSTEM.norm>
0

>  <SCORE.heavy>
26

>  <SCORE.norm>
-2.42404

>  <RMSD>
6.134

$$$$
1f1t Malachite green aptamer (Xray 2.8A)
 OpenBabel11021811393D
libRbt.so/2013.1/901 2013/11/27
 26 29  0  0  0  0  0  0  0  0999 V2000
  112.2453  -79.4136  -86.9632 C   0  0  0  0  0  0  0  0  0  0  0  0
  112.3727  -78.9551  -85.5877 C   0  0  0  0  0  0  0  0  0  0  0  0
  111.8060  -77.6969  -85.3753 C   0  0  0  0  0  0  0  0  0  0  0  0
  111.9631  -77.2777  -83.9543 O   0  0  0  0  0  0  0  0  0  0  0  0
  111.4334  -76.1322  -83.7671 C   0  0  0  0  0  0  0  0  0  0  0  0
  111.6484  -75.8076  -82.3571 C   0  0  0  0  0  0  0  0  0  0  0  0
  111.1020  -74.5366  -81.9577 C   0  0  0  0  0  0  0  0  0  0  0  0
  110.4076  -73.6874  -82.8546 C   0  0  0  0  0  0  0  0  0  0  0  0
  110.2359  -74.0640  -84.2454 C   0  0  0  0  0  0  0  0  0  0  0  0
  110.7879  -75.3266  -84.6712 C   0  0  0  0  0  0  0  0  0  0  0  0
  110.5786  -75.6333  -86.1355 C   0  0  0  0  0  0  0  0  0  0  0  0
  111.1677  -76.8975  -86.3170 C   0  0  0  0  0  0  0  0  0  0  0  0
  111.0558  -77.3736  -87.6976 C   0  0  0  0  0  0  0  0  0  0  0  0
  111.6256  -78.6613  -87.9419 C   0  0  0  0  0  0  0  0  0  0  0  0
  109.9269  -74.7749  -87.0005 C   0  0  0  0  0  0  0  0  0  0  0  0
  110.2097  -73.3981  -87.1588 C   0  0  0  0  0  0  0  0  0  0  0  0
  109.5741  -72.5209  -88.0393 C   0  0  0  0  0  0  0  0  0  0  0  0
  108.5121  -73.0134  -88.9038 C   0  0  0  0  0  0  0  0  0  0  0  0
  108.2459  -74.3906  -88.7131 C   0  0  0  0  0  0  0  0  0  0  0  0
  108.8538  -75.3047  -87.8415 C   0  0  0  0  0  0  0  0  0  0  0  0
  112.7558  -80.6507  -87.3314 N   0  3  0  0  0  0  0  0  0  0  0  0
  113.4175  -81.5340  -86.3779 C   0  0  0  0  0  0  0  0  0  0  0  0
  112.7132  -81.2477  -88.6845 C   0  0  0  0  0  0  0  0  0  0  0  0
  111.3438  -74.2351  -80.6065 N   0  0  0  0  0  0  0  0  0  0  0  0
  112.0081  -75.0053  -79.5314 C   0  0  0  0  0  0  0  0  0  0  0  0
  110.8818  -72.8921  -80.1065 C   0  0  0  0  0  0  0  0  0  0  0  0
  1  2  1  0  0  0  0
  1 14  1  0  0  0  0
  1 21  2  0  0  0  0
  2  3  2  0  0  0  0
  3  4  1  0  0  0  0
  3 12  1  0  0  0  0
  4  5  1  0  0  0  0
  5  6  1  0  0  0  0
  5 10  2  0  0  0  0
  6  7  2  0  0  0  0
  7  8  1  0  0  0  0
  7 24  1  0  0  0  0
  8  9  2  0  0  0  0
  9 10  1  0  0  0  0
 10 11  1  0  0  0  0
 11 12  2  0  0  0  0
 11 15  1  0  0  0  0
 12 13  1  0  0  0  0
 13 14  2  0  0  0  0
 15 16  2  0  0  0  0
 15 20  1  0  0  0  0
 16 17  1  0  0  0  0
 17 18  2  0  0  0  0
 18 19  1  0  0  0  0
 19 20  2  0  0  0  0
 21 22  1  0  0  0  0
 21 23  1  0  0  0  0
 24 25  1  0  0  0  0
 24 26  1  0  0  0  0
M  CHG  1  21   1
M  END
>  <CHROM.1>
-2.49302039,50.52813535,111.07386851,-76.21947849,-85.33110311,-1.26871416
-1.05949966,1.06106314

>  <Name>
1f1t Malachite green aptamer (Xray 2.8A)

>  <RI>
0

>  <Rbt.Current_Directory>
/home/itssahil/PROJECTS/Mol_Feturizer/New_Systems/rnas/1f1t

>  <Rbt.Executable>
rbdock ($Id: //depot/dev/client3/rdock/2013.1/src/exe/rbdock.cxx#4 $)

>  <Rbt.Library>
libRbt.so (2013.1, Build901 2013/11/27)

>  <Rbt.Parameter_File>
/export/apps/rDock/src/rDock_2013.1_src/data/scripts/dock_solv.prm

>  <Rbt.Receptor>
prm/pocket_docking_5.prm

>  <SCORE>
-63.0059

>  <SCORE.INTER>
-63.0975

>  <SCORE.INTER.CONST>
1

>  <SCORE.INTER.POLAR>
0

>  <SCORE.INTER.ROT>
2

>  <SCORE.INTER.SOLV>
11.1182

>  <SCORE.INTER.VDW>
-50.7044

>  <SCORE.INTER.norm>
-2.42683

>  <SCORE.INTRA>
0.0915477

>  <SCORE.INTRA.DIHEDRAL>
-1.3247

>  <SCORE.INTRA.DIHEDRAL.0>
4.18538

>  <SCORE.INTRA.POLAR>
0

>  <SCORE.INTRA.POLAR.0>
0

>  <SCORE.INTRA.REPUL>
0

>  <SCORE.INTRA.REPUL.0>
0

>  <SCORE.INTRA.SOLV>
0.0213279

>  <SCORE.INTRA.SOLV.lig_0>
-5.16926

>  <SCORE.INTRA.VDW>
0.743233

>  <SCORE.INTRA.VDW.0>
1.11912

>  <SCORE.INTRA.norm>
0.00352107

>  <SCORE.RESTR>
0

>  <SCORE.RESTR.CAVITY>
0

>  <SCORE.RESTR.norm>
0

>  <SCORE.SYSTEM>
0

>  <SCORE.SYSTEM.CONST>
0

>  <SCORE.SYSTEM.DIHEDRAL>
0

>  <SCORE.SYSTEM.SOLV>
0

>  <SCORE.SYSTEM.norm>
0

>  <SCORE.heavy>
26

>  <SCORE.norm>
-2.42331

>  <RMSD>
6.134

$$$$
1f1t Malachite green aptamer (Xray 2.8A)
 OpenBabel11021811393D
libRbt.so/2013.1/901 2013/11/27
 26 29  0  0  0  0  0  0  0  0999 V2000
  112.2015  -79.4406  -86.9013 C   0  0  0  0  0  0  0  0  0  0  0  0
  112.3253  -78.9479  -85.5374 C   0  0  0  0  0  0  0  0  0  0  0  0
  111.7435  -77.6920  -85.3540 C   0  0  0  0  0  0  0  0  0  0  0  0
  111.8975  -77.2372  -83.9436 O   0  0  0  0  0  0  0  0  0  0  0  0
  111.3540  -76.0941  -83.7829 C   0  0  0  0  0  0  0  0  0  0  0  0
  111.5671  -75.7333  -82.3814 C   0  0  0  0  0  0  0  0  0  0  0  0
  111.0057  -74.4599  -82.0115 C   0  0  0  0  0  0  0  0  0  0  0  0
  110.2997  -73.6410  -82.9271 C   0  0  0  0  0  0  0  0  0  0  0  0
  110.1306  -74.0526  -84.3083 C   0  0  0  0  0  0  0  0  0  0  0  0
  110.6974  -75.3182  -84.7048 C   0  0  0  0  0  0  0  0  0  0  0  0
  110.4897  -75.6623  -86.1610 C   0  0  0  0  0  0  0  0  0  0  0  0
  111.0940  -76.9232  -86.3134 C   0  0  0  0  0  0  0  0  0  0  0  0
  110.9861  -77.4333  -87.6820 C   0  0  0  0  0  0  0  0  0  0  0  0
  111.5712  -78.7194  -87.8966 C   0  0  0  0  0  0  0  0  0  0  0  0
  109.8263  -74.8327  -87.0451 C   0  0  0  0  0  0  0  0  0  0  0  0
  108.7420  -75.2118  -87.8704 C   0  0  0  0  0  0  0  0  0  0  0  0
  108.0496  -74.3836  -88.7555 C   0  0  0  0  0  0  0  0  0  0  0  0
  108.4339  -72.9858  -88.8828 C   0  0  0  0  0  0  0  0  0  0  0  0
  109.5280  -72.6416  -88.0530 C   0  0  0  0  0  0  0  0  0  0  0  0
  110.2530  -73.4381  -87.1559 C   0  0  0  0  0  0  0  0  0  0  0  0
  112.7265  -80.6797  -87.2408 N   0  3  0  0  0  0  0  0  0  0  0  0
  113.4004  -81.5320  -86.2677 C   0  0  0  0  0  0  0  0  0  0  0  0
  112.6893  -81.3094  -88.5792 C   0  0  0  0  0  0  0  0  0  0  0  0
  111.2458  -74.1234  -80.6682 N   0  0  0  0  0  0  0  0  0  0  0  0
  111.8831  -74.8766  -79.5652 C   0  0  0  0  0  0  0  0  0  0  0  0
  110.8143  -72.7546  -80.2128 C   0  0  0  0  0  0  0  0  0  0  0  0
  1  2  1  0  0  0  0
  1 14  1  0  0  0  0
  1 21  2  0  0  0  0
  2  3  2  0  0  0  0
  3  4  1  0  0  0  0
  3 12  1  0  0  0  0
  4  5  1  0  0  0  0
  5  6  1  0  0  0  0
  5 10  2  0  0  0  0
  6  7  2  0  0  0  0
  7  8  1  0  0  0  0
  7 24  1  0  0  0  0
  8  9  2  0  0  0  0
  9 10  1  0  0  0  0
 10 11  1  0  0  0  0
 11 12  2  0  0  0  0
 11 15  1  0  0  0  0
 12 13  1  0  0  0  0
 13 14  2  0  0  0  0
 15 16  2  0  0  0  0
 15 20  1  0  0  0  0
 16 17  1  0  0  0  0
 17 18  2  0  0  0  0
 18 19  1  0  0  0  0
 19 20  2  0  0  0  0
 21 22  1  0  0  0  0
 21 23  1  0  0  0  0
 24 25  1  0  0  0  0
 24 26  1  0  0  0  0
M  CHG  1  21   1
M  END
>  <CHROM.1>
-4.71927909,-127.14854103,111.00075066,-76.20602418,-85.33330746,-1.23956170
-1.05277243,1.04790075

>  <Name>
1f1t Malachite green aptamer (Xray 2.8A)

>  <RI>
0

>  <Rbt.Current_Directory>
/home/itssahil/PROJECTS/Mol_Feturizer/New_Systems/rnas/1f1t

>  <Rbt.Executable>
rbdock ($Id: //depot/dev/client3/rdock/2013.1/src/exe/rbdock.cxx#4 $)

>  <Rbt.Library>
libRbt.so (2013.1, Build901 2013/11/27)

>  <Rbt.Parameter_File>
/export/apps/rDock/src/rDock_2013.1_src/data/scripts/dock_solv.prm

>  <Rbt.Receptor>
prm/pocket_docking_5.prm

>  <SCORE>
-62.129

>  <SCORE.INTER>
-62.3565

>  <SCORE.INTER.CONST>
1

>  <SCORE.INTER.POLAR>
0

>  <SCORE.INTER.ROT>
2

>  <SCORE.INTER.SOLV>
11.1353

>  <SCORE.INTER.VDW>
-50.2161

>  <SCORE.INTER.norm>
-2.39833

>  <SCORE.INTRA>
0.227474

>  <SCORE.INTRA.DIHEDRAL>
-1.07004

>  <SCORE.INTRA.DIHEDRAL.0>
4.18538

>  <SCORE.INTRA.POLAR>
0

>  <SCORE.INTRA.POLAR.0>
0

>  <SCORE.INTRA.REPUL>
0

>  <SCORE.INTRA.REPUL.0>
0

>  <SCORE.INTRA.SOLV>
0.0187638

>  <SCORE.INTRA.SOLV.lig_0>
-5.16926

>  <SCORE.INTRA.VDW>
0.753111

>  <SCORE.INTRA.VDW.0>
1.11912

>  <SCORE.INTRA.norm>
0.00874899

>  <SCORE.RESTR>
0

>  <SCORE.RESTR.CAVITY>
0

>  <SCORE.RESTR.norm>
0

>  <SCORE.SYSTEM>
0

>  <SCORE.SYSTEM.CONST>
0

>  <SCORE.SYSTEM.DIHEDRAL>
0

>  <SCORE.SYSTEM.SOLV>
0

>  <SCORE.SYSTEM.norm>
0

>  <SCORE.heavy>
26

>  <SCORE.norm>
-2.38958

>  <RMSD>
6.134

$$$$
1f1t Malachite green aptamer (Xray 2.8A)
 OpenBabel11021811393D
libRbt.so/2013.1/901 2013/11/27
 26 29  0  0  0  0  0  0  0  0999 V2000
  112.2369  -79.4087  -86.9619 C   0  0  0  0  0  0  0  0  0  0  0  0
  112.3668  -78.9495  -85.5869 C   0  0  0  0  0  0  0  0  0  0  0  0
  111.8021  -77.6904  -85.3745 C   0  0  0  0  0  0  0  0  0  0  0  0
  111.9616  -77.2704  -83.9540 O   0  0  0  0  0  0  0  0  0  0  0  0
  111.4336  -76.1240  -83.7669 C   0  0  0  0  0  0  0  0  0  0  0  0
  111.6510  -75.7988  -82.3574 C   0  0  0  0  0  0  0  0  0  0  0  0
  111.1068  -74.5267  -81.9582 C   0  0  0  0  0  0  0  0  0  0  0  0
  110.4123  -73.6773  -82.8547 C   0  0  0  0  0  0  0  0  0  0  0  0
  110.2382  -74.0545  -84.2451 C   0  0  0  0  0  0  0  0  0  0  0  0
  110.7880  -75.3182  -84.6707 C   0  0  0  0  0  0  0  0  0  0  0  0
  110.5763  -75.6257  -86.1345 C   0  0  0  0  0  0  0  0  0  0  0  0
  111.1635  -76.8908  -86.3160 C   0  0  0  0  0  0  0  0  0  0  0  0
  111.0492  -77.3676  -87.6960 C   0  0  0  0  0  0  0  0  0  0  0  0
  111.6169  -78.6562  -87.9403 C   0  0  0  0  0  0  0  0  0  0  0  0
  109.9246  -74.7669  -86.9993 C   0  0  0  0  0  0  0  0  0  0  0  0
  110.2325  -73.3990  -87.1848 C   0  0  0  0  0  0  0  0  0  0  0  0
  109.5969  -72.5221  -88.0656 C   0  0  0  0  0  0  0  0  0  0  0  0
  108.5071  -73.0052  -88.9003 C   0  0  0  0  0  0  0  0  0  0  0  0
  108.2165  -74.3735  -88.6827 C   0  0  0  0  0  0  0  0  0  0  0  0
  108.8235  -75.2868  -87.8096 C   0  0  0  0  0  0  0  0  0  0  0  0
  112.7452  -80.6467  -87.3299 N   0  3  0  0  0  0  0  0  0  0  0  0
  113.4070  -81.5303  -86.3767 C   0  0  0  0  0  0  0  0  0  0  0  0
  112.7000  -81.2446  -88.6825 C   0  0  0  0  0  0  0  0  0  0  0  0
  111.3508  -74.2246  -80.6075 N   0  0  0  0  0  0  0  0  0  0  0  0
  112.0014  -75.0014  -79.5287 C   0  0  0  0  0  0  0  0  0  0  0  0
  110.9085  -72.8732  -80.1125 C   0  0  0  0  0  0  0  0  0  0  0  0
  1  2  1  0  0  0  0
  1 14  1  0  0  0  0
  1 21  2  0  0  0  0
  2  3  2  0  0  0  0
  3  4  1  0  0  0  0
  3 12  1  0  0  0  0
  4  5  1  0  0  0  0
  5  6  1  0  0  0  0
  5 10  2  0  0  0  0
  6  7  2  0  0  0  0
  7  8  1  0  0  0  0
  7 24  1  0  0  0  0
  8  9  2  0  0  0  0
  9 10  1  0  0  0  0
 10 11  1  0  0  0  0
 11 12  2  0  0  0  0
 11 15  1  0  0  0  0
 12 13  1  0  0  0  0
 13 14  2  0  0  0  0
 15 16  2  0  0  0  0
 15 20  1  0  0  0  0
 16 17  1  0  0  0  0
 17 18  2  0  0  0  0
 18 19  1  0  0  0  0
 19 20  2  0  0  0  0
 21 22  1  0  0  0  0
 21 23  1  0  0  0  0
 24 25  1  0  0  0  0
 24 26  1  0  0  0  0
M  CHG  1  21   1
M  END
>  <CHROM.1>
-3.32156197,52.31552955,111.07176753,-76.21187628,-85.33021396,-1.27233918
-1.06005745,1.05703655

>  <Name>
1f1t Malachite green aptamer (Xray 2.8A)

>  <RI>
0

>  <Rbt.Current_Directory>
/home/itssahil/PROJECTS/Mol_Feturizer/New_Systems/rnas/1f1t

>  <Rbt.Executable>
rbdock ($Id: //depot/dev/client3/rdock/2013.1/src/exe/rbdock.cxx#4 $)

>  <Rbt.Library>
libRbt.so (2013.1, Build901 2013/11/27)

>  <Rbt.Parameter_File>
/export/apps/rDock/src/rDock_2013.1_src/data/scripts/dock_solv.prm

>  <Rbt.Receptor>
prm/pocket_docking_5.prm

>  <SCORE>
-63.0597

>  <SCORE.INTER>
-63.1089

>  <SCORE.INTER.CONST>
1

>  <SCORE.INTER.POLAR>
0

>  <SCORE.INTER.ROT>
2

>  <SCORE.INTER.SOLV>
11.1309

>  <SCORE.INTER.VDW>
-50.7162

>  <SCORE.INTER.norm>
-2.42727

>  <SCORE.INTRA>
0.0492057

>  <SCORE.INTRA.DIHEDRAL>
-1.1587

>  <SCORE.INTRA.DIHEDRAL.0>
4.18538

>  <SCORE.INTRA.POLAR>
0

>  <SCORE.INTRA.POLAR.0>
0

>  <SCORE.INTRA.REPUL>
0

>  <SCORE.INTRA.REPUL.0>
0

>  <SCORE.INTRA.SOLV>
0.0193352

>  <SCORE.INTRA.SOLV.lig_0>
-5.16926

>  <SCORE.INTRA.VDW>
0.618886

>  <SCORE.INTRA.VDW.0>
1.11912

>  <SCORE.INTRA.norm>
0.00189253

>  <SCORE.RESTR>
0

>  <SCORE.RESTR.CAVITY>
0

>  <SCORE.RESTR.norm>
0

>  <SCORE.SYSTEM>
0

>  <SCORE.SYSTEM.CONST>
0

>  <SCORE.SYSTEM.DIHEDRAL>
0

>  <SCORE.SYSTEM.SOLV>
0

>  <SCORE.SYSTEM.norm>
0

>  <SCORE.heavy>
26

>  <SCORE.norm>
-2.42537

>  <RMSD>
6.134

$$$$
1f1t Malachite green aptamer (Xray 2.8A)
 OpenBabel11021811393D
libRbt.so/2013.1/901 2013/11/27
 26 29  0  0  0  0  0  0  0  0999 V2000
  112.2301  -79.3970  -86.9536 C   0  0  0  0  0  0  0  0  0  0  0  0
  112.3580  -78.9391  -85.5779 C   0  0  0  0  0  0  0  0  0  0  0  0
  111.7915  -77.6809  -85.3648 C   0  0  0  0  0  0  0  0  0  0  0  0
  111.9490  -77.2622  -83.9437 O   0  0  0  0  0  0  0  0  0  0  0  0
  111.4194  -76.1167  -83.7559 C   0  0  0  0  0  0  0  0  0  0  0  0
  111.6349  -75.7927  -82.3459 C   0  0  0  0  0  0  0  0  0  0  0  0
  111.0887  -74.5218  -81.9458 C   0  0  0  0  0  0  0  0  0  0  0  0
  110.3941  -73.6723  -82.8422 C   0  0  0  0  0  0  0  0  0  0  0  0
  110.2218  -74.0483  -84.2331 C   0  0  0  0  0  0  0  0  0  0  0  0
  110.7736  -75.3108  -84.6595 C   0  0  0  0  0  0  0  0  0  0  0  0
  110.5638  -75.6170  -86.1238 C   0  0  0  0  0  0  0  0  0  0  0  0
  111.1528  -76.8811  -86.3061 C   0  0  0  0  0  0  0  0  0  0  0  0
  111.0405  -77.3567  -87.6867 C   0  0  0  0  0  0  0  0  0  0  0  0
  111.6101  -78.6443  -87.9318 C   0  0  0  0  0  0  0  0  0  0  0  0
  109.9119  -74.7582  -86.9884 C   0  0  0  0  0  0  0  0  0  0  0  0
  110.2283  -73.3935  -87.1836 C   0  0  0  0  0  0  0  0  0  0  0  0
  109.5925  -72.5167  -88.0644 C   0  0  0  0  0  0  0  0  0  0  0  0
  108.4929  -72.9963  -88.8882 C   0  0  0  0  0  0  0  0  0  0  0  0
  108.1941  -74.3613  -88.6610 C   0  0  0  0  0  0  0  0  0  0  0  0
  108.8009  -75.2743  -87.7876 C   0  0  0  0  0  0  0  0  0  0  0  0
  112.7404  -80.6339  -87.3224 N   0  3  0  0  0  0  0  0  0  0  0  0
  113.4024  -81.5177  -86.3694 C   0  0  0  0  0  0  0  0  0  0  0  0
  112.6973  -81.2305  -88.6757 C   0  0  0  0  0  0  0  0  0  0  0  0
  111.3310  -74.2208  -80.5946 N   0  0  0  0  0  0  0  0  0  0  0  0
  111.9926  -74.9928  -79.5191 C   0  0  0  0  0  0  0  0  0  0  0  0
  110.8729  -72.8764  -80.0949 C   0  0  0  0  0  0  0  0  0  0  0  0
  1  2  1  0  0  0  0
  1 14  1  0  0  0  0
  1 21  2  0  0  0  0
  2  3  2  0  0  0  0
  3  4  1  0  0  0  0
  3 12  1  0  0  0  0
  4  5  1  0  0  0  0
  5  6  1  0  0  0  0
  5 10  2  0  0  0  0
  6  7  2  0  0  0  0
  7  8  1  0  0  0  0
  7 24  1  0  0  0  0
  8  9  2  0  0  0  0
  9 10  1  0  0  0  0
 10 11  1  0  0  0  0
 11 12  2  0  0  0  0
 11 15  1  0  0  0  0
 12 13  1  0  0  0  0
 13 14  2  0  0  0  0
 15 16  2  0  0  0  0
 15 20  1  0  0  0  0
 16 17  1  0  0  0  0
 17 18  2  0  0  0  0
 18 19  1  0  0  0  0
 19 20  2  0  0  0  0
 21 22  1  0  0  0  0
 21 23  1  0  0  0  0
 24 25  1  0  0  0  0
 24 26  1  0  0  0  0
M  CHG  1  21   1
M  END
>  <CHROM.1>
-2.66920994,53.10157167,111.05900577,-76.20344287,-85.31958176,-1.26892841
-1.05914667,1.06103053

>  <Name>
1f1t Malachite green aptamer (Xray 2.8A)

>  <RI>
0

>  <Rbt.Current_Directory>
/home/itssahil/PROJECTS/Mol_Feturizer/New_Systems/rnas/1f1t

>  <Rbt.Executable>
rbdock ($Id: //depot/dev/client3/rdock/2013.1/src/exe/rbdock.cxx#4 $)

>  <Rbt.Library>
libRbt.so (2013.1, Build901 2013/11/27)

>  <Rbt.Parameter_File>
/export/apps/rDock/src/rDock_2013.1_src/data/scripts/dock_solv.prm

>  <Rbt.Receptor>
prm/pocket_docking_5.prm

>  <SCORE>
-63.0418

>  <SCORE.INTER>
-63.0894

>  <SCORE.INTER.CONST>
1

>  <SCORE.INTER.POLAR>
0

>  <SCORE.INTER.ROT>
2

>  <SCORE.INTER.SOLV>
11.1194

>  <SCORE.INTER.VDW>
-50.6994

>  <SCORE.INTER.norm>
-2.42651

>  <SCORE.INTRA>
0.0475824

>  <SCORE.INTRA.DIHEDRAL>
-1.11094

>  <SCORE.INTRA.DIHEDRAL.0>
4.18538

>  <SCORE.INTRA.POLAR>
0

>  <SCORE.INTRA.POLAR.0>
0

>  <SCORE.INTRA.REPUL>
0

>  <SCORE.INTRA.REPUL.0>
0

>  <SCORE.INTRA.SOLV>
0.018455

>  <SCORE.INTRA.SOLV.lig_0>
-5.16926

>  <SCORE.INTRA.VDW>
0.593824

>  <SCORE.INTRA.VDW.0>
1.11912

>  <SCORE.INTRA.norm>
0.00183009

>  <SCORE.RESTR>
0

>  <SCORE.RESTR.CAVITY>
0

>  <SCORE.RESTR.norm>
0

>  <SCORE.SYSTEM>
0

>  <SCORE.SYSTEM.CONST>
0

>  <SCORE.SYSTEM.DIHEDRAL>
0

>  <SCORE.SYSTEM.SOLV>
0

>  <SCORE.SYSTEM.norm>
0

>  <SCORE.heavy>
26

>  <SCORE.norm>
-2.42468

>  <RMSD>
6.134

$$$$
1f1t Malachite green aptamer (Xray 2.8A)
 OpenBabel11021811393D
libRbt.so/2013.1/901 2013/11/27
 26 29  0  0  0  0  0  0  0  0999 V2000
  112.2158  -79.3965  -86.9469 C   0  0  0  0  0  0  0  0  0  0  0  0
  112.3424  -78.9363  -85.5719 C   0  0  0  0  0  0  0  0  0  0  0  0
  111.7787  -77.6763  -85.3622 C   0  0  0  0  0  0  0  0  0  0  0  0
  111.9348  -77.2553  -83.9416 O   0  0  0  0  0  0  0  0  0  0  0  0
  111.4077  -76.1081  -83.7569 C   0  0  0  0  0  0  0  0  0  0  0  0
  111.6216  -75.7820  -82.3471 C   0  0  0  0  0  0  0  0  0  0  0  0
  111.0779  -74.5089  -81.9504 C   0  0  0  0  0  0  0  0  0  0  0  0
  110.3871  -73.6594  -82.8495 C   0  0  0  0  0  0  0  0  0  0  0  0
  110.2164  -74.0375  -84.2401 C   0  0  0  0  0  0  0  0  0  0  0  0
  110.7657  -75.3023  -84.6632 C   0  0  0  0  0  0  0  0  0  0  0  0
  110.5577  -75.6106  -86.1273 C   0  0  0  0  0  0  0  0  0  0  0  0
  111.1437  -76.8766  -86.3061 C   0  0  0  0  0  0  0  0  0  0  0  0
  111.0327  -77.3545  -87.6860 C   0  0  0  0  0  0  0  0  0  0  0  0
  111.5994  -78.6440  -87.9277 C   0  0  0  0  0  0  0  0  0  0  0  0
  109.9095  -74.7518  -86.9946 C   0  0  0  0  0  0  0  0  0  0  0  0
  110.2388  -73.3921  -87.2023 C   0  0  0  0  0  0  0  0  0  0  0  0
  109.6068  -72.5155  -88.0861 C   0  0  0  0  0  0  0  0  0  0  0  0
  108.4975  -72.9900  -88.8996 C   0  0  0  0  0  0  0  0  0  0  0  0
  108.1859  -74.3500  -88.6601 C   0  0  0  0  0  0  0  0  0  0  0  0
  108.7885  -75.2625  -87.7832 C   0  0  0  0  0  0  0  0  0  0  0  0
  112.7235  -80.6354  -87.3125 N   0  3  0  0  0  0  0  0  0  0  0  0
  113.3815  -81.5191  -86.3567 C   0  0  0  0  0  0  0  0  0  0  0  0
  112.6813  -81.2344  -88.6647 C   0  0  0  0  0  0  0  0  0  0  0  0
  111.3186  -74.2060  -80.5993 N   0  0  0  0  0  0  0  0  0  0  0  0
  111.9630  -74.9837  -79.5175 C   0  0  0  0  0  0  0  0  0  0  0  0
  110.8792  -72.8526  -80.1074 C   0  0  0  0  0  0  0  0  0  0  0  0
  1  2  1  0  0  0  0
  1 14  1  0  0  0  0
  1 21  2  0  0  0  0
  2  3  2  0  0  0  0
  3  4  1  0  0  0  0
  3 12  1  0  0  0  0
  4  5  1  0  0  0  0
  5  6  1  0  0  0  0
  5 10  2  0  0  0  0
  6  7  2  0  0  0  0
  7  8  1  0  0  0  0
  7 24  1  0  0  0  0
  8  9  2  0  0  0  0
  9 10  1  0  0  0  0
 10 11  1  0  0  0  0
 11 12  2  0  0  0  0
 11 15  1  0  0  0  0
 12 13  1  0  0  0  0
 13 14  2  0  0  0  0
 15 16  2  0  0  0  0
 15 20  1  0  0  0  0
 16 17  1  0  0  0  0
 17 18  2  0  0  0  0
 18 19  1  0  0  0  0
 19 20  2  0  0  0  0
 21 22  1  0  0  0  0
 21 23  1  0  0  0  0
 24 25  1  0  0  0  0
 24 26  1  0  0  0  0
M  CHG  1  21   1
M  END
>  <CHROM.1>
-3.44438027,53.81343392,111.04994877,-76.19681201,-85.32098120,-1.26834294
-1.06241827,1.05958258

>  <Name>
1f1t Malachite green aptamer (Xray 2.8A)

>  <RI>
0

>  <Rbt.Current_Directory>
/home/itssahil/PROJECTS/Mol_Feturizer/New_Systems/rnas/1f1t

>  <Rbt.Executable>
rbdock ($Id: //depot/dev/client3/rdock/2013.1/src/exe/rbdock.cxx#4 $)

>  <Rbt.Library>
libRbt.so (2013.1, Build901 2013/11/27)

>  <Rbt.Parameter_File>
/export/apps/rDock/src/rDock_2013.1_src/data/scripts/dock_solv.prm

>  <Rbt.Receptor>
prm/pocket_docking_5.prm

>  <SCORE>
-63.1035

>  <SCORE.INTER>
-63.141

>  <SCORE.INTER.CONST>
1

>  <SCORE.INTER.POLAR>
0

>  <SCORE.INTER.ROT>
2

>  <SCORE.INTER.SOLV>
11.1359

>  <SCORE.INTER.VDW>
-50.7393

>  <SCORE.INTER.norm>
-2.4285

>  <SCORE.INTRA>
0.0374664

>  <SCORE.INTRA.DIHEDRAL>
-1.0344

>  <SCORE.INTRA.DIHEDRAL.0>
4.18538

>  <SCORE.INTRA.POLAR>
0

>  <SCORE.INTRA.POLAR.0>
0

>  <SCORE.INTRA.REPUL>
0

>  <SCORE.INTRA.REPUL.0>
0

>  <SCORE.INTRA.SOLV>
0.0176457

>  <SCORE.INTRA.SOLV.lig_0>
-5.16926

>  <SCORE.INTRA.VDW>
0.545842

>  <SCORE.INTRA.VDW.0>
1.11912

>  <SCORE.INTRA.norm>
0.00144102

>  <SCORE.RESTR>
0

>  <SCORE.RESTR.CAVITY>
0

>  <SCORE.RESTR.norm>
0

>  <SCORE.SYSTEM>
0

>  <SCORE.SYSTEM.CONST>
0

>  <SCORE.SYSTEM.DIHEDRAL>
0

>  <SCORE.SYSTEM.SOLV>
0

>  <SCORE.SYSTEM.norm>
0

>  <SCORE.heavy>
26

>  <SCORE.norm>
-2.42706

>  <RMSD>
6.134

$$$$
1f1t Malachite green aptamer (Xray 2.8A)
 OpenBabel11021811393D
libRbt.so/2013.1/901 2013/11/27
 26 29  0  0  0  0  0  0  0  0999 V2000
  112.2248  -79.4476  -86.9041 C   0  0  0  0  0  0  0  0  0  0  0  0
  112.3425  -78.9560  -85.5392 C   0  0  0  0  0  0  0  0  0  0  0  0
  111.7621  -77.6992  -85.3580 C   0  0  0  0  0  0  0  0  0  0  0  0
  111.9097  -77.2455  -83.9466 O   0  0  0  0  0  0  0  0  0  0  0  0
  111.3675  -76.1015  -83.7878 C   0  0  0  0  0  0  0  0  0  0  0  0
  111.5741  -75.7421  -82.3850 C   0  0  0  0  0  0  0  0  0  0  0  0
  111.0132  -74.4679  -82.0172 C   0  0  0  0  0  0  0  0  0  0  0  0
  110.3133  -73.6470  -82.9359 C   0  0  0  0  0  0  0  0  0  0  0  0
  110.1505  -74.0575  -84.3182 C   0  0  0  0  0  0  0  0  0  0  0  0
  110.7170  -75.3239  -84.7126 C   0  0  0  0  0  0  0  0  0  0  0  0
  110.5162  -75.6666  -86.1701 C   0  0  0  0  0  0  0  0  0  0  0  0
  111.1189  -76.9285  -86.3202 C   0  0  0  0  0  0  0  0  0  0  0  0
  111.0170  -77.4376  -87.6897 C   0  0  0  0  0  0  0  0  0  0  0  0
  111.6009  -78.7246  -87.9022 C   0  0  0  0  0  0  0  0  0  0  0  0
  109.8589  -74.8352  -87.0570 C   0  0  0  0  0  0  0  0  0  0  0  0
  108.7934  -75.2176  -87.9049 C   0  0  0  0  0  0  0  0  0  0  0  0
  108.1070  -74.3879  -88.7933 C   0  0  0  0  0  0  0  0  0  0  0  0
  108.4777  -72.9847  -88.8995 C   0  0  0  0  0  0  0  0  0  0  0  0
  109.5533  -72.6370  -88.0474 C   0  0  0  0  0  0  0  0  0  0  0  0
  110.2716  -73.4348  -87.1460 C   0  0  0  0  0  0  0  0  0  0  0  0
  112.7492  -80.6875  -87.2418 N   0  3  0  0  0  0  0  0  0  0  0  0
  113.4165  -81.5416  -86.2657 C   0  0  0  0  0  0  0  0  0  0  0  0
  112.7177  -81.3161  -88.5807 C   0  0  0  0  0  0  0  0  0  0  0  0
  111.2470  -74.1326  -80.6725 N   0  0  0  0  0  0  0  0  0  0  0  0
  111.8571  -74.8961  -79.5611 C   0  0  0  0  0  0  0  0  0  0  0  0
  110.8402  -72.7537  -80.2250 C   0  0  0  0  0  0  0  0  0  0  0  0
  1  2  1  0  0  0  0
  1 14  1  0  0  0  0
  1 21  2  0  0  0  0
  2  3  2  0  0  0  0
  3  4  1  0  0  0  0
  3 12  1  0  0  0  0
  4  5  1  0  0  0  0
  5  6  1  0  0  0  0
  5 10  2  0  0  0  0
  6  7  2  0  0  0  0
  7  8  1  0  0  0  0
  7 24  1  0  0  0  0
  8  9  2  0  0  0  0
  9 10  1  0  0  0  0
 10 11  1  0  0  0  0
 11 12  2  0  0  0  0
 11 15  1  0  0  0  0
 12 13  1  0  0  0  0
 13 14  2  0  0  0  0
 15 16  2  0  0  0  0
 15 20  1  0  0  0  0
 16 17  1  0  0  0  0
 17 18  2  0  0  0  0
 18 19  1  0  0  0  0
 19 20  2  0  0  0  0
 21 22  1  0  0  0  0
 21 23  1  0  0  0  0
 24 25  1  0  0  0  0
 24 26  1  0  0  0  0
M  CHG  1  21   1
M  END
>  <CHROM.1>
-5.88599446,-128.31550133,111.02199419,-76.21174171,-85.34005720,-1.23295723
-1.05717950,1.05424529

>  <Name>
1f1t Malachite green aptamer (Xray 2.8A)

>  <RI>
0

>  <Rbt.Current_Directory>
/home/itssahil/PROJECTS/Mol_Feturizer/New_Systems/rnas/1f1t

>  <Rbt.Executable>
rbdock ($Id: //depot/dev/client3/rdock/2013.1/src/exe/rbdock.cxx#4 $)

>  <Rbt.Library>
libRbt.so (2013.1, Build901 2013/11/27)

>  <Rbt.Parameter_File>
/export/apps/rDock/src/rDock_2013.1_src/data/scripts/dock_solv.prm

>  <Rbt.Receptor>
prm/pocket_docking_5.prm

>  <SCORE>
-62.083

>  <SCORE.INTER>
-62.3679

>  <SCORE.INTER.CONST>
1

>  <SCORE.INTER.POLAR>
0

>  <SCORE.INTER.ROT>
2

>  <SCORE.INTER.SOLV>
11.1569

>  <SCORE.INTER.VDW>
-50.2309

>  <SCORE.INTER.norm>
-2.39876

>  <SCORE.INTRA>
0.28483

>  <SCORE.INTRA.DIHEDRAL>
-1.11572

>  <SCORE.INTRA.DIHEDRAL.0>
4.18538

>  <SCORE.INTRA.POLAR>
0

>  <SCORE.INTRA.POLAR.0>
0

>  <SCORE.INTRA.REPUL>
0

>  <SCORE.INTRA.REPUL.0>
0

>  <SCORE.INTRA.SOLV>
0.0200736

>  <SCORE.INTRA.SOLV.lig_0>
-5.16926

>  <SCORE.INTRA.VDW>
0.832654

>  <SCORE.INTRA.VDW.0>
1.11912

>  <SCORE.INTRA.norm>
0.010955

>  <SCORE.RESTR>
0

>  <SCORE.RESTR.CAVITY>
0

>  <SCORE.RESTR.norm>
0

>  <SCORE.SYSTEM>
0

>  <SCORE.SYSTEM.CONST>
0

>  <SCORE.SYSTEM.DIHEDRAL>
0

>  <SCORE.SYSTEM.SOLV>
0

>  <SCORE.SYSTEM.norm>
0

>  <SCORE.heavy>
26

>  <SCORE.norm>
-2.38781

>  <RMSD>
6.134

$$$$
1f1t Malachite green aptamer (Xray 2.8A)
 OpenBabel11021811393D
libRbt.so/2013.1/901 2013/11/27
 26 29  0  0  0  0  0  0  0  0999 V2000
  112.2400  -79.4224  -86.9587 C   0  0  0  0  0  0  0  0  0  0  0  0
  112.3661  -78.9621  -85.5837 C   0  0  0  0  0  0  0  0  0  0  0  0
  111.7998  -77.7033  -85.3736 C   0  0  0  0  0  0  0  0  0  0  0  0
  111.9554  -77.2822  -83.9531 O   0  0  0  0  0  0  0  0  0  0  0  0
  111.4260  -76.1362  -83.7681 C   0  0  0  0  0  0  0  0  0  0  0  0
  111.6397  -75.8097  -82.3583 C   0  0  0  0  0  0  0  0  0  0  0  0
  111.0934  -74.5379  -81.9613 C   0  0  0  0  0  0  0  0  0  0  0  0
  110.4004  -73.6897  -82.8601 C   0  0  0  0  0  0  0  0  0  0  0  0
  110.2301  -74.0680  -84.2506 C   0  0  0  0  0  0  0  0  0  0  0  0
  110.7819  -75.3316  -84.6740 C   0  0  0  0  0  0  0  0  0  0  0  0
  110.5741  -75.6402  -86.1381 C   0  0  0  0  0  0  0  0  0  0  0  0
  111.1628  -76.9049  -86.3172 C   0  0  0  0  0  0  0  0  0  0  0  0
  111.0523  -77.3828  -87.6972 C   0  0  0  0  0  0  0  0  0  0  0  0
  111.6217  -78.6711  -87.9392 C   0  0  0  0  0  0  0  0  0  0  0  0
  109.9238  -74.7826  -87.0051 C   0  0  0  0  0  0  0  0  0  0  0  0
  110.2178  -73.4097  -87.1761 C   0  0  0  0  0  0  0  0  0  0  0  0
  109.5836  -72.5336  -88.0588 C   0  0  0  0  0  0  0  0  0  0  0  0
  108.5109  -73.0232  -88.9117 C   0  0  0  0  0  0  0  0  0  0  0  0
  108.2339  -74.3965  -88.7084 C   0  0  0  0  0  0  0  0  0  0  0  0
  108.8400  -75.3093  -87.8341 C   0  0  0  0  0  0  0  0  0  0  0  0
  112.7502  -80.6602  -87.3246 N   0  3  0  0  0  0  0  0  0  0  0  0
  113.4104  -81.5426  -86.3691 C   0  0  0  0  0  0  0  0  0  0  0  0
  112.7089  -81.2591  -88.6769 C   0  0  0  0  0  0  0  0  0  0  0  0
  111.3339  -74.2346  -80.6102 N   0  0  0  0  0  0  0  0  0  0  0  0
  112.0013  -75.0014  -79.5346 C   0  0  0  0  0  0  0  0  0  0  0  0
  110.8662  -72.8933  -80.1109 C   0  0  0  0  0  0  0  0  0  0  0  0
  1  2  1  0  0  0  0
  1 14  1  0  0  0  0
  1 21  2  0  0  0  0
  2  3  2  0  0  0  0
  3  4  1  0  0  0  0
  3 12  1  0  0  0  0
  4  5  1  0  0  0  0
  5  6  1  0  0  0  0
  5 10  2  0  0  0  0
  6  7  2  0  0  0  0
  7  8  1  0  0  0  0
  7 24  1  0  0  0  0
  8  9  2  0  0  0  0
  9 10  1  0  0  0  0
 10 11  1  0  0  0  0
 11 12  2  0  0  0  0
 11 15  1  0  0  0  0
 12 13  1  0  0  0  0
 13 14  2  0  0  0  0
 15 16  2  0  0  0  0
 15 20  1  0  0  0  0
 16 17  1  0  0  0  0
 17 18  2  0  0  0  0
 18 19  1  0  0  0  0
 19 20  2  0  0  0  0
 21 22  1  0  0  0  0
 21 23  1  0  0  0  0
 24 25  1  0  0  0  0
 24 26  1  0  0  0  0
M  CHG  1  21   1
M  END
>  <CHROM.1>
-2.21455800,51.30181940,111.06809346,-76.22547133,-85.33226479,-1.26699910
-1.06030035,1.06111254

>  <Name>
1f1t Malachite green aptamer (Xray 2.8A)

>  <RI>
0

>  <Rbt.Current_Directory>
/home/itssahil/PROJECTS/Mol_Feturizer/New_Systems/rnas/1f1t

>  <Rbt.Executable>
rbdock ($Id: //depot/dev/client3/rdock/2013.1/src/exe/rbdock.cxx#4 $)

>  <Rbt.Library>
libRbt.so (2013.1, Build901 2013/11/27)

>  <Rbt.Parameter_File>
/export/apps/rDock/src/rDock_2013.1_src/data/scripts/dock_solv.prm

>  <Rbt.Receptor>
prm/pocket_docking_5.prm

>  <SCORE>
-63.0558

>  <SCORE.INTER>
-63.1252

>  <SCORE.INTER.CONST>
1

>  <SCORE.INTER.POLAR>
0

>  <SCORE.INTER.ROT>
2

>  <SCORE.INTER.SOLV>
11.1106

>  <SCORE.INTER.VDW>
-50.7203

>  <SCORE.INTER.norm>
-2.42789

>  <SCORE.INTRA>
0.0693907

>  <SCORE.INTRA.DIHEDRAL>
-1.26652

>  <SCORE.INTRA.DIHEDRAL.0>
4.18538

>  <SCORE.INTRA.POLAR>
0

>  <SCORE.INTRA.POLAR.0>
0

>  <SCORE.INTRA.REPUL>
0

>  <SCORE.INTRA.REPUL.0>
0

>  <SCORE.INTRA.SOLV>
0.0204723

>  <SCORE.INTRA.SOLV.lig_0>
-5.16926

>  <SCORE.INTRA.VDW>
0.692415

>  <SCORE.INTRA.VDW.0>
1.11912

>  <SCORE.INTRA.norm>
0.00266887

>  <SCORE.RESTR>
0

>  <SCORE.RESTR.CAVITY>
0

>  <SCORE.RESTR.norm>
0

>  <SCORE.SYSTEM>
0

>  <SCORE.SYSTEM.CONST>
0

>  <SCORE.SYSTEM.DIHEDRAL>
0

>  <SCORE.SYSTEM.SOLV>
0

>  <SCORE.SYSTEM.norm>
0

>  <SCORE.heavy>
26

>  <SCORE.norm>
-2.42522

>  <RMSD>
6.134

$$$$
1f1t Malachite green aptamer (Xray 2.8A)
 OpenBabel11021811393D
libRbt.so/2013.1/901 2013/11/27
 26 29  0  0  0  0  0  0  0  0999 V2000
  112.2277  -79.3987  -86.9587 C   0  0  0  0  0  0  0  0  0  0  0  0
  112.3565  -78.9408  -85.5832 C   0  0  0  0  0  0  0  0  0  0  0  0
  111.7907  -77.6823  -85.3699 C   0  0  0  0  0  0  0  0  0  0  0  0
  111.9491  -77.2636  -83.9489 O   0  0  0  0  0  0  0  0  0  0  0  0
  111.4201  -76.1179  -83.7609 C   0  0  0  0  0  0  0  0  0  0  0  0
  111.6365  -75.7939  -82.3509 C   0  0  0  0  0  0  0  0  0  0  0  0
  111.0911  -74.5227  -81.9507 C   0  0  0  0  0  0  0  0  0  0  0  0
  110.3964  -73.6729  -82.8467 C   0  0  0  0  0  0  0  0  0  0  0  0
  110.2233  -74.0489  -84.2376 C   0  0  0  0  0  0  0  0  0  0  0  0
  110.7743  -75.3117  -84.6642 C   0  0  0  0  0  0  0  0  0  0  0  0
  110.5636  -75.6179  -86.1284 C   0  0  0  0  0  0  0  0  0  0  0  0
  111.1519  -76.8823  -86.3108 C   0  0  0  0  0  0  0  0  0  0  0  0
  111.0387  -77.3579  -87.6914 C   0  0  0  0  0  0  0  0  0  0  0  0
  111.6075  -78.6457  -87.9367 C   0  0  0  0  0  0  0  0  0  0  0  0
  109.9116  -74.7588  -86.9926 C   0  0  0  0  0  0  0  0  0  0  0  0
  110.2359  -73.3973  -87.1965 C   0  0  0  0  0  0  0  0  0  0  0  0
  109.6000  -72.5204  -88.0772 C   0  0  0  0  0  0  0  0  0  0  0  0
  108.4918  -72.9965  -88.8914 C   0  0  0  0  0  0  0  0  0  0  0  0
  108.1854  -74.3583  -88.6557 C   0  0  0  0  0  0  0  0  0  0  0  0
  108.7919  -75.2712  -87.7819 C   0  0  0  0  0  0  0  0  0  0  0  0
  112.7372  -80.6359  -87.3277 N   0  3  0  0  0  0  0  0  0  0  0  0
  113.3992  -81.5200  -86.3750 C   0  0  0  0  0  0  0  0  0  0  0  0
  112.6932  -81.2325  -88.6809 C   0  0  0  0  0  0  0  0  0  0  0  0
  111.3342  -74.2217  -80.5996 N   0  0  0  0  0  0  0  0  0  0  0  0
  111.9946  -74.9946  -79.5240 C   0  0  0  0  0  0  0  0  0  0  0  0
  110.8786  -72.8763  -80.1002 C   0  0  0  0  0  0  0  0  0  0  0  0
  1  2  1  0  0  0  0
  1 14  1  0  0  0  0
  1 21  2  0  0  0  0
  2  3  2  0  0  0  0
  3  4  1  0  0  0  0
  3 12  1  0  0  0  0
  4  5  1  0  0  0  0
  5  6  1  0  0  0  0
  5 10  2  0  0  0  0
  6  7  2  0  0  0  0
  7  8  1  0  0  0  0
  7 24  1  0  0  0  0
  8  9  2  0  0  0  0
  9 10  1  0  0  0  0
 10 11  1  0  0  0  0
 11 12  2  0  0  0  0
 11 15  1  0  0  0  0
 12 13  1  0  0  0  0
 13 14  2  0  0  0  0
 15 16  2  0  0  0  0
 15 20  1  0  0  0  0
 16 17  1  0  0  0  0
 17 18  2  0  0  0  0
 18 19  1  0  0  0  0
 19 20  2  0  0  0  0
 21 22  1  0  0  0  0
 21 23  1  0  0  0  0
 24 25  1  0  0  0  0
 24 26  1  0  0  0  0
M  CHG  1  21   1
M  END
>  <CHROM.1>
-2.74871124,53.67178487,111.05885071,-76.20451306,-85.32427680,-1.27017526
-1.05927701,1.05983774

>  <Name>
1f1t Malachite green aptamer (Xray 2.8A)

>  <RI>
0

>  <Rbt.Current_Directory>
/home/itssahil/PROJECTS/Mol_Feturizer/New_Systems/rnas/1f1t

>  <Rbt.Executable>
rbdock ($Id: //depot/dev/client3/rdock/2013.1/src/exe/rbdock.cxx#4 $)

>  <Rbt.Library>
libRbt.so (2013.1, Build901 2013/11/27)

>  <Rbt.Parameter_File>
/export/apps/rDock/src/rDock_2013.1_src/data/scripts/dock_solv.prm

>  <Rbt.Receptor>
prm/pocket_docking_5.prm

>  <SCORE>
-63.0477

>  <SCORE.INTER>
-63.0846

>  <SCORE.INTER.CONST>
1

>  <SCORE.INTER.POLAR>
0

>  <SCORE.INTER.ROT>
2

>  <SCORE.INTER.SOLV>
11.123

>  <SCORE.INTER.VDW>
-50.6974

>  <SCORE.INTER.norm>
-2.42633

>  <SCORE.INTRA>
0.0369533

>  <SCORE.INTRA.DIHEDRAL>
-1.06328

>  <SCORE.INTRA.DIHEDRAL.0>
4.18538

>  <SCORE.INTRA.POLAR>
0

>  <SCORE.INTRA.POLAR.0>
0

>  <SCORE.INTRA.REPUL>
0

>  <SCORE.INTRA.REPUL.0>
0

>  <SCORE.INTRA.SOLV>
0.0178102

>  <SCORE.INTRA.SOLV.lig_0>
-5.16926

>  <SCORE.INTRA.VDW>
0.559688

>  <SCORE.INTRA.VDW.0>
1.11912

>  <SCORE.INTRA.norm>
0.00142128

>  <SCORE.RESTR>
0

>  <SCORE.RESTR.CAVITY>
0

>  <SCORE.RESTR.norm>
0

>  <SCORE.SYSTEM>
0

>  <SCORE.SYSTEM.CONST>
0

>  <SCORE.SYSTEM.DIHEDRAL>
0

>  <SCORE.SYSTEM.SOLV>
0

>  <SCORE.SYSTEM.norm>
0

>  <SCORE.heavy>
26

>  <SCORE.norm>
-2.42491

>  <RMSD>
6.134

$$$$
1f1t Malachite green aptamer (Xray 2.8A)
 OpenBabel11021811393D
libRbt.so/2013.1/901 2013/11/27
 26 29  0  0  0  0  0  0  0  0999 V2000
  112.2193  -79.3929  -86.9562 C   0  0  0  0  0  0  0  0  0  0  0  0
  112.3487  -78.9349  -85.5807 C   0  0  0  0  0  0  0  0  0  0  0  0
  111.7840  -77.6760  -85.3674 C   0  0  0  0  0  0  0  0  0  0  0  0
  111.9429  -77.2573  -83.9465 O   0  0  0  0  0  0  0  0  0  0  0  0
  111.4150  -76.1111  -83.7585 C   0  0  0  0  0  0  0  0  0  0  0  0
  111.6318  -75.7871  -82.3486 C   0  0  0  0  0  0  0  0  0  0  0  0
  111.0876  -74.5154  -81.9484 C   0  0  0  0  0  0  0  0  0  0  0  0
  110.3935  -73.6651  -82.8444 C   0  0  0  0  0  0  0  0  0  0  0  0
  110.2200  -74.0411  -84.2352 C   0  0  0  0  0  0  0  0  0  0  0  0
  110.7698  -75.3044  -84.6618 C   0  0  0  0  0  0  0  0  0  0  0  0
  110.5586  -75.6105  -86.1260 C   0  0  0  0  0  0  0  0  0  0  0  0
  111.1458  -76.8755  -86.3084 C   0  0  0  0  0  0  0  0  0  0  0  0
  111.0320  -77.3510  -87.6889 C   0  0  0  0  0  0  0  0  0  0  0  0
  111.5997  -78.6394  -87.9341 C   0  0  0  0  0  0  0  0  0  0  0  0
  109.9073  -74.7509  -86.9902 C   0  0  0  0  0  0  0  0  0  0  0  0
  110.2296  -73.3884  -87.1906 C   0  0  0  0  0  0  0  0  0  0  0  0
  109.5944  -72.5109  -88.0712 C   0  0  0  0  0  0  0  0  0  0  0  0
  108.4892  -72.9874  -88.8891 C   0  0  0  0  0  0  0  0  0  0  0  0
  108.1846  -74.3503  -88.6569 C   0  0  0  0  0  0  0  0  0  0  0  0
  108.7906  -75.2638  -87.7834 C   0  0  0  0  0  0  0  0  0  0  0  0
  112.7277  -80.6305  -87.3252 N   0  3  0  0  0  0  0  0  0  0  0  0
  113.3890  -81.5151  -86.3725 C   0  0  0  0  0  0  0  0  0  0  0  0
  112.6830  -81.2272  -88.6783 C   0  0  0  0  0  0  0  0  0  0  0  0
  111.3311  -74.2146  -80.5973 N   0  0  0  0  0  0  0  0  0  0  0  0
  111.9906  -74.9882  -79.5217 C   0  0  0  0  0  0  0  0  0  0  0  0
  110.8773  -72.8686  -80.0982 C   0  0  0  0  0  0  0  0  0  0  0  0
  1  2  1  0  0  0  0
  1 14  1  0  0  0  0
  1 21  2  0  0  0  0
  2  3  2  0  0  0  0
  3  4  1  0  0  0  0
  3 12  1  0  0  0  0
  4  5  1  0  0  0  0
  5  6  1  0  0  0  0
  5 10  2  0  0  0  0
  6  7  2  0  0  0  0
  7  8  1  0  0  0  0
  7 24  1  0  0  0  0
  8  9  2  0  0  0  0
  9 10  1  0  0  0  0
 10 11  1  0  0  0  0
 11 12  2  0  0  0  0
 11 15  1  0  0  0  0
 12 13  1  0  0  0  0
 13 14  2  0  0  0  0
 15 16  2  0  0  0  0
 15 20  1  0  0  0  0
 16 17  1  0  0  0  0
 17 18  2  0  0  0  0
 18 19  1  0  0  0  0
 19 20  2  0  0  0  0
 21 22  1  0  0  0  0
 21 23  1  0  0  0  0
 24 25  1  0  0  0  0
 24 26  1  0  0  0  0
M  CHG  1  21   1
M  END
>  <CHROM.1>
-2.77350906,53.42405657,111.05350952,-76.19749881,-85.32187719,-1.27133088
-1.06002647,1.05877328

>  <Name>
1f1t Malachite green aptamer (Xray 2.8A)

>  <RI>
0

>  <Rbt.Current_Directory>
/home/itssahil/PROJECTS/Mol_Feturizer/New_Systems/rnas/1f1t

>  <Rbt.Executable>
rbdock ($Id: //depot/dev/client3/rdock/2013.1/src/exe/rbdock.cxx#4 $)

>  <Rbt.Library>
libRbt.so (2013.1, Build901 2013/11/27)

>  <Rbt.Parameter_File>
/export/apps/rDock/src/rDock_2013.1_src/data/scripts/dock_solv.prm

>  <Rbt.Receptor>
prm/pocket_docking_6.prm

>  <SCORE>
-63.0693

>  <SCORE.INTER>
-63.111

>  <SCORE.INTER.CONST>
1

>  <SCORE.INTER.POLAR>
0

>  <SCORE.INTER.ROT>
2

>  <SCORE.INTER.SOLV>
11.1312

>  <SCORE.INTER.VDW>
-50.7177

>  <SCORE.INTER.norm>
-2.42735

>  <SCORE.INTRA>
0.0416757

>  <SCORE.INTRA.DIHEDRAL>
-1.08263

>  <SCORE.INTRA.DIHEDRAL.0>
4.18538

>  <SCORE.INTRA.POLAR>
0

>  <SCORE.INTRA.POLAR.0>
0

>  <SCORE.INTRA.REPUL>
0

>  <SCORE.INTRA.REPUL.0>
0

>  <SCORE.INTRA.SOLV>
0.0180903

>  <SCORE.INTRA.SOLV.lig_0>
-5.16926

>  <SCORE.INTRA.VDW>
0.573944

>  <SCORE.INTRA.VDW.0>
1.11912

>  <SCORE.INTRA.norm>
0.00160291

>  <SCORE.RESTR>
0

>  <SCORE.RESTR.CAVITY>
0

>  <SCORE.RESTR.norm>
0

>  <SCORE.SYSTEM>
0

>  <SCORE.SYSTEM.CONST>
0

>  <SCORE.SYSTEM.DIHEDRAL>
0

>  <SCORE.SYSTEM.SOLV>
0

>  <SCORE.SYSTEM.norm>
0

>  <SCORE.heavy>
26

>  <SCORE.norm>
-2.42574

>  <RMSD>
6.134

$$$$
1f1t Malachite green aptamer (Xray 2.8A)
 OpenBabel11021811393D
libRbt.so/2013.1/901 2013/11/27
 26 29  0  0  0  0  0  0  0  0999 V2000
  112.2197  -79.4169  -86.9657 C   0  0  0  0  0  0  0  0  0  0  0  0
  112.3519  -78.9591  -85.5904 C   0  0  0  0  0  0  0  0  0  0  0  0
  111.7906  -77.6987  -85.3766 C   0  0  0  0  0  0  0  0  0  0  0  0
  111.9523  -77.2803  -83.9559 O   0  0  0  0  0  0  0  0  0  0  0  0
  111.4275  -76.1327  -83.7674 C   0  0  0  0  0  0  0  0  0  0  0  0
  111.6469  -75.8091  -82.3579 C   0  0  0  0  0  0  0  0  0  0  0  0
  111.1063  -74.5360  -81.9572 C   0  0  0  0  0  0  0  0  0  0  0  0
  110.4133  -73.6841  -82.8525 C   0  0  0  0  0  0  0  0  0  0  0  0
  110.2371  -74.0598  -84.2430 C   0  0  0  0  0  0  0  0  0  0  0  0
  110.7832  -75.3245  -84.6701 C   0  0  0  0  0  0  0  0  0  0  0  0
  110.5695  -75.6302  -86.1339 C   0  0  0  0  0  0  0  0  0  0  0  0
  111.1533  -76.8967  -86.3169 C   0  0  0  0  0  0  0  0  0  0  0  0
  111.0366  -77.3722  -87.6972 C   0  0  0  0  0  0  0  0  0  0  0  0
  111.6007  -78.6620  -87.9430 C   0  0  0  0  0  0  0  0  0  0  0  0
  109.9193  -74.7691  -86.9975 C   0  0  0  0  0  0  0  0  0  0  0  0
  110.2303  -73.4017  -87.1818 C   0  0  0  0  0  0  0  0  0  0  0  0
  109.5962  -72.5224  -88.0614 C   0  0  0  0  0  0  0  0  0  0  0  0
  108.5049  -73.0022  -88.8959 C   0  0  0  0  0  0  0  0  0  0  0  0
  108.2113  -74.3700  -88.6796 C   0  0  0  0  0  0  0  0  0  0  0  0
  108.8166  -75.2856  -87.8078 C   0  0  0  0  0  0  0  0  0  0  0  0
  112.7244  -80.6559  -87.3352 N   0  3  0  0  0  0  0  0  0  0  0  0
  113.3847  -81.5420  -86.3832 C   0  0  0  0  0  0  0  0  0  0  0  0
  112.6766  -81.2526  -88.6882 C   0  0  0  0  0  0  0  0  0  0  0  0
  111.3523  -74.2356  -80.6065 N   0  0  0  0  0  0  0  0  0  0  0  0
  112.0190  -75.0071  -79.5338 C   0  0  0  0  0  0  0  0  0  0  0  0
  110.8928  -72.8926  -80.1042 C   0  0  0  0  0  0  0  0  0  0  0  0
  1  2  1  0  0  0  0
  1 14  1  0  0  0  0
  1 21  2  0  0  0  0
  2  3  2  0  0  0  0
  3  4  1  0  0  0  0
  3 12  1  0  0  0  0
  4  5  1  0  0  0  0
  5  6  1  0  0  0  0
  5 10  2  0  0  0  0
  6  7  2  0  0  0  0
  7  8  1  0  0  0  0
  7 24  1  0  0  0  0
  8  9  2  0  0  0  0
  9 10  1  0  0  0  0
 10 11  1  0  0  0  0
 11 12  2  0  0  0  0
 11 15  1  0  0  0  0
 12 13  1  0  0  0  0
 13 14  2  0  0  0  0
 15 16  2  0  0  0  0
 15 20  1  0  0  0  0
 16 17  1  0  0  0  0
 17 18  2  0  0  0  0
 18 19  1  0  0  0  0
 19 20  2  0  0  0  0
 21 22  1  0  0  0  0
 21 23  1  0  0  0  0
 24 25  1  0  0  0  0
 24 26  1  0  0  0  0
M  CHG  1  21   1
M  END
>  <CHROM.1>
-2.30764391,52.28816002,111.06398266,-76.21843626,-85.33050238,-1.27617129
-1.06160413,1.05452734

>  <Name>
1f1t Malachite green aptamer (Xray 2.8A)

>  <RI>
0

>  <Rbt.Current_Directory>
/home/itssahil/PROJECTS/Mol_Feturizer/New_Systems/rnas/1f1t

>  <Rbt.Executable>
rbdock ($Id: //depot/dev/client3/rdock/2013.1/src/exe/rbdock.cxx#4 $)

>  <Rbt.Library>
libRbt.so (2013.1, Build901 2013/11/27)

>  <Rbt.Parameter_File>
/export/apps/rDock/src/rDock_2013.1_src/data/scripts/dock_solv.prm

>  <Rbt.Receptor>
prm/pocket_docking_6.prm

>  <SCORE>
-63.0268

>  <SCORE.INTER>
-63.0725

>  <SCORE.INTER.CONST>
1

>  <SCORE.INTER.POLAR>
0

>  <SCORE.INTER.ROT>
2

>  <SCORE.INTER.SOLV>
11.1086

>  <SCORE.INTER.VDW>
-50.6846

>  <SCORE.INTER.norm>
-2.42587

>  <SCORE.INTRA>
0.0457447

>  <SCORE.INTRA.DIHEDRAL>
-1.18425

>  <SCORE.INTRA.DIHEDRAL.0>
4.18538

>  <SCORE.INTRA.POLAR>
0

>  <SCORE.INTRA.POLAR.0>
0

>  <SCORE.INTRA.REPUL>
0

>  <SCORE.INTRA.REPUL.0>
0

>  <SCORE.INTRA.SOLV>
0.0193711

>  <SCORE.INTRA.SOLV.lig_0>
-5.16926

>  <SCORE.INTRA.VDW>
0.628182

>  <SCORE.INTRA.VDW.0>
1.11912

>  <SCORE.INTRA.norm>
0.00175941

>  <SCORE.RESTR>
0

>  <SCORE.RESTR.CAVITY>
0

>  <SCORE.RESTR.norm>
0

>  <SCORE.SYSTEM>
0

>  <SCORE.SYSTEM.CONST>
0

>  <SCORE.SYSTEM.DIHEDRAL>
0

>  <SCORE.SYSTEM.SOLV>
0

>  <SCORE.SYSTEM.norm>
0

>  <SCORE.heavy>
26

>  <SCORE.norm>
-2.42411

>  <RMSD>
6.134

$$$$
1f1t Malachite green aptamer (Xray 2.8A)
 OpenBabel11021811393D
libRbt.so/2013.1/901 2013/11/27
 26 29  0  0  0  0  0  0  0  0999 V2000
  112.2169  -79.3963  -86.9510 C   0  0  0  0  0  0  0  0  0  0  0  0
  112.3470  -78.9377  -85.5758 C   0  0  0  0  0  0  0  0  0  0  0  0
  111.7826  -77.6785  -85.3628 C   0  0  0  0  0  0  0  0  0  0  0  0
  111.9424  -77.2593  -83.9421 O   0  0  0  0  0  0  0  0  0  0  0  0
  111.4147  -76.1129  -83.7544 C   0  0  0  0  0  0  0  0  0  0  0  0
  111.6323  -75.7883  -82.3448 C   0  0  0  0  0  0  0  0  0  0  0  0
  111.0886  -74.5163  -81.9449 C   0  0  0  0  0  0  0  0  0  0  0  0
  110.3942  -73.6663  -82.8409 C   0  0  0  0  0  0  0  0  0  0  0  0
  110.2199  -74.0428  -84.2315 C   0  0  0  0  0  0  0  0  0  0  0  0
  110.7692  -75.3065  -84.6578 C   0  0  0  0  0  0  0  0  0  0  0  0
  110.5574  -75.6131  -86.1217 C   0  0  0  0  0  0  0  0  0  0  0  0
  111.1442  -76.8783  -86.3038 C   0  0  0  0  0  0  0  0  0  0  0  0
  111.0296  -77.3545  -87.6841 C   0  0  0  0  0  0  0  0  0  0  0  0
  111.5969  -78.6431  -87.9290 C   0  0  0  0  0  0  0  0  0  0  0  0
  109.9058  -74.7538  -86.9860 C   0  0  0  0  0  0  0  0  0  0  0  0
  110.2263  -73.3907  -87.1848 C   0  0  0  0  0  0  0  0  0  0  0  0
  109.5909  -72.5134  -88.0655 C   0  0  0  0  0  0  0  0  0  0  0  0
  108.4873  -72.9909  -88.8852 C   0  0  0  0  0  0  0  0  0  0  0  0
  108.1845  -74.3544  -88.6544 C   0  0  0  0  0  0  0  0  0  0  0  0
  108.7908  -75.2677  -87.7809 C   0  0  0  0  0  0  0  0  0  0  0  0
  112.7248  -80.6342  -87.3197 N   0  3  0  0  0  0  0  0  0  0  0  0
  113.3864  -81.5184  -86.3669 C   0  0  0  0  0  0  0  0  0  0  0  0
  112.6793  -81.2315  -88.6725 C   0  0  0  0  0  0  0  0  0  0  0  0
  111.3328  -74.2149  -80.5941 N   0  0  0  0  0  0  0  0  0  0  0  0
  111.9919  -74.9885  -79.5182 C   0  0  0  0  0  0  0  0  0  0  0  0
  110.8803  -72.8682  -80.0955 C   0  0  0  0  0  0  0  0  0  0  0  0
  1  2  1  0  0  0  0
  1 14  1  0  0  0  0
  1 21  2  0  0  0  0
  2  3  2  0  0  0  0
  3  4  1  0  0  0  0
  3 12  1  0  0  0  0
  4  5  1  0  0  0  0
  5  6  1  0  0  0  0
  5 10  2  0  0  0  0
  6  7  2  0  0  0  0
  7  8  1  0  0  0  0
  7 24  1  0  0  0  0
  8  9  2  0  0  0  0
  9 10  1  0  0  0  0
 10 11  1  0  0  0  0
 11 12  2  0  0  0  0
 11 15  1  0  0  0  0
 12 13  1  0  0  0  0
 13 14  2  0  0  0  0
 15 16  2  0  0  0  0
 15 20  1  0  0  0  0
 16 17  1  0  0  0  0
 17 18  2  0  0  0  0
 18 19  1  0  0  0  0
 19 20  2  0  0  0  0
 21 22  1  0  0  0  0
 21 23  1  0  0  0  0
 24 25  1  0  0  0  0
 24 26  1  0  0  0  0
M  CHG  1  21   1
M  END
>  <CHROM.1>
-2.81478511,53.26795502,111.05251599,-76.19989639,-85.31759088,-1.27244143
-1.06000336,1.05736286

>  <Name>
1f1t Malachite green aptamer (Xray 2.8A)

>  <RI>
0

>  <Rbt.Current_Directory>
/home/itssahil/PROJECTS/Mol_Feturizer/New_Systems/rnas/1f1t

>  <Rbt.Executable>
rbdock ($Id: //depot/dev/client3/rdock/2013.1/src/exe/rbdock.cxx#4 $)

>  <Rbt.Library>
libRbt.so (2013.1, Build901 2013/11/27)

>  <Rbt.Parameter_File>
/export/apps/rDock/src/rDock_2013.1_src/data/scripts/dock_solv.prm

>  <Rbt.Receptor>
prm/pocket_docking_6.prm

>  <SCORE>
-63.0821

>  <SCORE.INTER>
-63.127

>  <SCORE.INTER.CONST>
1

>  <SCORE.INTER.POLAR>
0

>  <SCORE.INTER.ROT>
2

>  <SCORE.INTER.SOLV>
11.1185

>  <SCORE.INTER.VDW>
-50.7242

>  <SCORE.INTER.norm>
-2.42796

>  <SCORE.INTRA>
0.0448545

>  <SCORE.INTRA.DIHEDRAL>
-1.09425

>  <SCORE.INTRA.DIHEDRAL.0>
4.18538

>  <SCORE.INTRA.POLAR>
0

>  <SCORE.INTRA.POLAR.0>
0

>  <SCORE.INTRA.REPUL>
0

>  <SCORE.INTRA.REPUL.0>
0

>  <SCORE.INTRA.SOLV>
0.0182665

>  <SCORE.INTRA.SOLV.lig_0>
-5.16926

>  <SCORE.INTRA.VDW>
0.582848

>  <SCORE.INTRA.VDW.0>
1.11912

>  <SCORE.INTRA.norm>
0.00172517

>  <SCORE.RESTR>
0

>  <SCORE.RESTR.CAVITY>
0

>  <SCORE.RESTR.norm>
0

>  <SCORE.SYSTEM>
0

>  <SCORE.SYSTEM.CONST>
0

>  <SCORE.SYSTEM.DIHEDRAL>
0

>  <SCORE.SYSTEM.SOLV>
0

>  <SCORE.SYSTEM.norm>
0

>  <SCORE.heavy>
26

>  <SCORE.norm>
-2.42624

>  <RMSD>
6.134

$$$$
1f1t Malachite green aptamer (Xray 2.8A)
 OpenBabel11021811393D
libRbt.so/2013.1/901 2013/11/27
 26 29  0  0  0  0  0  0  0  0999 V2000
  112.2249  -79.4054  -86.9574 C   0  0  0  0  0  0  0  0  0  0  0  0
  112.3547  -78.9440  -85.5831 C   0  0  0  0  0  0  0  0  0  0  0  0
  111.7898  -77.6846  -85.3728 C   0  0  0  0  0  0  0  0  0  0  0  0
  111.9492  -77.2623  -83.9530 O   0  0  0  0  0  0  0  0  0  0  0  0
  111.4211  -76.1157  -83.7677 C   0  0  0  0  0  0  0  0  0  0  0  0
  111.6384  -75.7881  -82.3588 C   0  0  0  0  0  0  0  0  0  0  0  0
  111.0940  -74.5155  -81.9616 C   0  0  0  0  0  0  0  0  0  0  0  0
  110.3994  -73.6677  -82.8595 C   0  0  0  0  0  0  0  0  0  0  0  0
  110.2253  -74.0472  -84.2492 C   0  0  0  0  0  0  0  0  0  0  0  0
  110.7753  -75.3115  -84.6728 C   0  0  0  0  0  0  0  0  0  0  0  0
  110.5636  -75.6213  -86.1361 C   0  0  0  0  0  0  0  0  0  0  0  0
  111.1510  -76.8867  -86.3156 C   0  0  0  0  0  0  0  0  0  0  0  0
  111.0368  -77.3657  -87.6948 C   0  0  0  0  0  0  0  0  0  0  0  0
  111.6047  -78.6546  -87.9370 C   0  0  0  0  0  0  0  0  0  0  0  0
  109.9118  -74.7641  -87.0023 C   0  0  0  0  0  0  0  0  0  0  0  0
  110.2344  -73.4024  -87.2072 C   0  0  0  0  0  0  0  0  0  0  0  0
  109.5987  -72.5273  -88.0898 C   0  0  0  0  0  0  0  0  0  0  0  0
  108.4924  -73.0059  -88.9051 C   0  0  0  0  0  0  0  0  0  0  0  0
  108.1875  -74.3678  -88.6684 C   0  0  0  0  0  0  0  0  0  0  0  0
  108.7940  -75.2790  -87.7927 C   0  0  0  0  0  0  0  0  0  0  0  0
  112.7334  -80.6439  -87.3234 N   0  3  0  0  0  0  0  0  0  0  0  0
  113.3954  -81.5259  -86.3688 C   0  0  0  0  0  0  0  0  0  0  0  0
  112.6883  -81.2441  -88.6750 C   0  0  0  0  0  0  0  0  0  0  0  0
  111.3380  -74.2112  -80.6114 N   0  0  0  0  0  0  0  0  0  0  0  0
  111.9742  -74.9925  -79.5273 C   0  0  0  0  0  0  0  0  0  0  0  0
  110.9132  -72.8516  -80.1235 C   0  0  0  0  0  0  0  0  0  0  0  0
  1  2  1  0  0  0  0
  1 14  1  0  0  0  0
  1 21  2  0  0  0  0
  2  3  2  0  0  0  0
  3  4  1  0  0  0  0
  3 12  1  0  0  0  0
  4  5  1  0  0  0  0
  5  6  1  0  0  0  0
  5 10  2  0  0  0  0
  6  7  2  0  0  0  0
  7  8  1  0  0  0  0
  7 24  1  0  0  0  0
  8  9  2  0  0  0  0
  9 10  1  0  0  0  0
 10 11  1  0  0  0  0
 11 12  2  0  0  0  0
 11 15  1  0  0  0  0
 12 13  1  0  0  0  0
 13 14  2  0  0  0  0
 15 16  2  0  0  0  0
 15 20  1  0  0  0  0
 16 17  1  0  0  0  0
 17 18  2  0  0  0  0
 18 19  1  0  0  0  0
 19 20  2  0  0  0  0
 21 22  1  0  0  0  0
 21 23  1  0  0  0  0
 24 25  1  0  0  0  0
 24 26  1  0  0  0  0
M  CHG  1  21   1
M  END
>  <CHROM.1>
-4.17138696,53.48652913,111.05919353,-76.20612194,-85.33082404,-1.27216677
-1.06004169,1.05545148

>  <Name>
1f1t Malachite green aptamer (Xray 2.8A)

>  <RI>
0

>  <Rbt.Current_Directory>
/home/itssahil/PROJECTS/Mol_Feturizer/New_Systems/rnas/1f1t

>  <Rbt.Executable>
rbdock ($Id: //depot/dev/client3/rdock/2013.1/src/exe/rbdock.cxx#4 $)

>  <Rbt.Library>
libRbt.so (2013.1, Build901 2013/11/27)

>  <Rbt.Parameter_File>
/export/apps/rDock/src/rDock_2013.1_src/data/scripts/dock_solv.prm

>  <Rbt.Receptor>
prm/pocket_docking_6.prm

>  <SCORE>
-63.0532

>  <SCORE.INTER>
-63.1006

>  <SCORE.INTER.CONST>
1

>  <SCORE.INTER.POLAR>
0

>  <SCORE.INTER.ROT>
2

>  <SCORE.INTER.SOLV>
11.1345

>  <SCORE.INTER.VDW>
-50.7119

>  <SCORE.INTER.norm>
-2.42694

>  <SCORE.INTRA>
0.0473964

>  <SCORE.INTRA.DIHEDRAL>
-1.03832

>  <SCORE.INTRA.DIHEDRAL.0>
4.18538

>  <SCORE.INTRA.POLAR>
0

>  <SCORE.INTRA.POLAR.0>
0

>  <SCORE.INTRA.REPUL>
0

>  <SCORE.INTRA.REPUL.0>
0

>  <SCORE.INTRA.SOLV>
0.0180112

>  <SCORE.INTRA.SOLV.lig_0>
-5.16926

>  <SCORE.INTRA.VDW>
0.557552

>  <SCORE.INTRA.VDW.0>
1.11912

>  <SCORE.INTRA.norm>
0.00182294

>  <SCORE.RESTR>
0

>  <SCORE.RESTR.CAVITY>
0

>  <SCORE.RESTR.norm>
0

>  <SCORE.SYSTEM>
0

>  <SCORE.SYSTEM.CONST>
0

>  <SCORE.SYSTEM.DIHEDRAL>
0

>  <SCORE.SYSTEM.SOLV>
0

>  <SCORE.SYSTEM.norm>
0

>  <SCORE.heavy>
26

>  <SCORE.norm>
-2.42512

>  <RMSD>
6.134

$$$$
1f1t Malachite green aptamer (Xray 2.8A)
 OpenBabel11021811393D
libRbt.so/2013.1/901 2013/11/27
 26 29  0  0  0  0  0  0  0  0999 V2000
  112.2369  -79.4392  -86.9032 C   0  0  0  0  0  0  0  0  0  0  0  0
  112.3551  -78.9463  -85.5388 C   0  0  0  0  0  0  0  0  0  0  0  0
  111.7721  -77.6906  -85.3579 C   0  0  0  0  0  0  0  0  0  0  0  0
  111.9203  -77.2355  -83.9471 O   0  0  0  0  0  0  0  0  0  0  0  0
  111.3757  -76.0925  -83.7886 C   0  0  0  0  0  0  0  0  0  0  0  0
  111.5831  -75.7315  -82.3864 C   0  0  0  0  0  0  0  0  0  0  0  0
  111.0198  -74.4583  -82.0189 C   0  0  0  0  0  0  0  0  0  0  0  0
  110.3171  -73.6397  -82.9374 C   0  0  0  0  0  0  0  0  0  0  0  0
  110.1536  -74.0517  -84.3192 C   0  0  0  0  0  0  0  0  0  0  0  0
  110.7224  -75.3171  -84.7133 C   0  0  0  0  0  0  0  0  0  0  0  0
  110.5207  -75.6615  -86.1702 C   0  0  0  0  0  0  0  0  0  0  0  0
  111.1261  -76.9222  -86.3200 C   0  0  0  0  0  0  0  0  0  0  0  0
  111.0237  -77.4326  -87.6890 C   0  0  0  0  0  0  0  0  0  0  0  0
  111.6102  -78.7185  -87.9011 C   0  0  0  0  0  0  0  0  0  0  0  0
  109.8605  -74.8323  -87.0571 C   0  0  0  0  0  0  0  0  0  0  0  0
  108.7742  -75.2098  -87.8806 C   0  0  0  0  0  0  0  0  0  0  0  0
  108.0849  -74.3818  -88.7684 C   0  0  0  0  0  0  0  0  0  0  0  0
  108.4751  -72.9862  -88.9009 C   0  0  0  0  0  0  0  0  0  0  0  0
  109.5710  -72.6436  -88.0728 C   0  0  0  0  0  0  0  0  0  0  0  0
  110.2930  -73.4399  -87.1731 C   0  0  0  0  0  0  0  0  0  0  0  0
  112.7637  -80.6782  -87.2404 N   0  3  0  0  0  0  0  0  0  0  0  0
  113.4341  -81.5301  -86.2645 C   0  0  0  0  0  0  0  0  0  0  0  0
  112.7321  -81.3081  -88.5788 C   0  0  0  0  0  0  0  0  0  0  0  0
  111.2544  -74.1214  -80.6747 N   0  0  0  0  0  0  0  0  0  0  0  0
  111.8656  -74.8833  -79.5629 C   0  0  0  0  0  0  0  0  0  0  0  0
  110.8473  -72.7422  -80.2286 C   0  0  0  0  0  0  0  0  0  0  0  0
  1  2  1  0  0  0  0
  1 14  1  0  0  0  0
  1 21  2  0  0  0  0
  2  3  2  0  0  0  0
  3  4  1  0  0  0  0
  3 12  1  0  0  0  0
  4  5  1  0  0  0  0
  5  6  1  0  0  0  0
  5 10  2  0  0  0  0
  6  7  2  0  0  0  0
  7  8  1  0  0  0  0
  7 24  1  0  0  0  0
  8  9  2  0  0  0  0
  9 10  1  0  0  0  0
 10 11  1  0  0  0  0
 11 12  2  0  0  0  0
 11 15  1  0  0  0  0
 12 13  1  0  0  0  0
 13 14  2  0  0  0  0
 15 16  2  0  0  0  0
 15 20  1  0  0  0  0
 16 17  1  0  0  0  0
 17 18  2  0  0  0  0
 18 19  1  0  0  0  0
 19 20  2  0  0  0  0
 21 22  1  0  0  0  0
 21 23  1  0  0  0  0
 24 25  1  0  0  0  0
 24 26  1  0  0  0  0
M  CHG  1  21   1
M  END
>  <CHROM.1>
-5.99258045,-126.73387313,111.02892300,-76.20482849,-85.34053767,-1.23247444
-1.05480670,1.05391480

>  <Name>
1f1t Malachite green aptamer (Xray 2.8A)

>  <RI>
0

>  <Rbt.Current_Directory>
/home/itssahil/PROJECTS/Mol_Feturizer/New_Systems/rnas/1f1t

>  <Rbt.Executable>
rbdock ($Id: //depot/dev/client3/rdock/2013.1/src/exe/rbdock.cxx#4 $)

>  <Rbt.Library>
libRbt.so (2013.1, Build901 2013/11/27)

>  <Rbt.Parameter_File>
/export/apps/rDock/src/rDock_2013.1_src/data/scripts/dock_solv.prm

>  <Rbt.Receptor>
prm/pocket_docking_6.prm

>  <SCORE>
-62.0915

>  <SCORE.INTER>
-62.313

>  <SCORE.INTER.CONST>
1

>  <SCORE.INTER.POLAR>
0

>  <SCORE.INTER.ROT>
2

>  <SCORE.INTER.SOLV>
11.1795

>  <SCORE.INTER.VDW>
-50.2018

>  <SCORE.INTER.norm>
-2.39665

>  <SCORE.INTRA>
0.221492

>  <SCORE.INTRA.DIHEDRAL>
-0.982317

>  <SCORE.INTRA.DIHEDRAL.0>
4.18538

>  <SCORE.INTRA.POLAR>
0

>  <SCORE.INTRA.POLAR.0>
0

>  <SCORE.INTRA.REPUL>
0

>  <SCORE.INTRA.REPUL.0>
0

>  <SCORE.INTRA.SOLV>
0.0182809

>  <SCORE.INTRA.SOLV.lig_0>
-5.16926

>  <SCORE.INTRA.VDW>
0.70351

>  <SCORE.INTRA.VDW.0>
1.11912

>  <SCORE.INTRA.norm>
0.00851891

>  <SCORE.RESTR>
0

>  <SCORE.RESTR.CAVITY>
0

>  <SCORE.RESTR.norm>
0

>  <SCORE.SYSTEM>
0

>  <SCORE.SYSTEM.CONST>
0

>  <SCORE.SYSTEM.DIHEDRAL>
0

>  <SCORE.SYSTEM.SOLV>
0

>  <SCORE.SYSTEM.norm>
0

>  <SCORE.heavy>
26

>  <SCORE.norm>
-2.38814

>  <RMSD>
6.134

$$$$
1f1t Malachite green aptamer (Xray 2.8A)
 OpenBabel11021811393D
libRbt.so/2013.1/901 2013/11/27
 26 29  0  0  0  0  0  0  0  0999 V2000
  112.2354  -79.4277  -86.9866 C   0  0  0  0  0  0  0  0  0  0  0  0
  112.3638  -78.9734  -85.6098 C   0  0  0  0  0  0  0  0  0  0  0  0
  111.7996  -77.7146  -85.3938 C   0  0  0  0  0  0  0  0  0  0  0  0
  111.9576  -77.2998  -83.9716 O   0  0  0  0  0  0  0  0  0  0  0  0
  111.4302  -76.1537  -83.7811 C   0  0  0  0  0  0  0  0  0  0  0  0
  111.6459  -75.8336  -82.3702 C   0  0  0  0  0  0  0  0  0  0  0  0
  111.1021  -74.5626  -81.9672 C   0  0  0  0  0  0  0  0  0  0  0  0
  110.4093  -73.7095  -82.8616 C   0  0  0  0  0  0  0  0  0  0  0  0
  110.2368  -74.0818  -84.2535 C   0  0  0  0  0  0  0  0  0  0  0  0
  110.7862  -75.3443  -84.6829 C   0  0  0  0  0  0  0  0  0  0  0  0
  110.5762  -75.6464  -86.1480 C   0  0  0  0  0  0  0  0  0  0  0  0
  111.1628  -76.9113  -86.3332 C   0  0  0  0  0  0  0  0  0  0  0  0
  111.0500  -77.3832  -87.7151 C   0  0  0  0  0  0  0  0  0  0  0  0
  111.6171  -78.6713  -87.9632 C   0  0  0  0  0  0  0  0  0  0  0  0
  109.9262  -74.7842  -87.0106 C   0  0  0  0  0  0  0  0  0  0  0  0
  110.2235  -73.4116  -87.1778 C   0  0  0  0  0  0  0  0  0  0  0  0
  109.5896  -72.5308  -88.0560 C   0  0  0  0  0  0  0  0  0  0  0  0
  108.5136  -73.0146  -88.9080 C   0  0  0  0  0  0  0  0  0  0  0  0
  108.2333  -74.3878  -88.7086 C   0  0  0  0  0  0  0  0  0  0  0  0
  108.8390  -75.3051  -87.8388 C   0  0  0  0  0  0  0  0  0  0  0  0
  112.7433  -80.6647  -87.3584 N   0  3  0  0  0  0  0  0  0  0  0  0
  113.4033  -81.5521  -86.4074 C   0  0  0  0  0  0  0  0  0  0  0  0
  112.6995  -81.2578  -88.7131 C   0  0  0  0  0  0  0  0  0  0  0  0
  111.3446  -74.2654  -80.6151 N   0  0  0  0  0  0  0  0  0  0  0  0
  111.9924  -75.0468  -79.5380 C   0  0  0  0  0  0  0  0  0  0  0  0
  110.9035  -72.9150  -80.1163 C   0  0  0  0  0  0  0  0  0  0  0  0
  1  2  1  0  0  0  0
  1 14  1  0  0  0  0
  1 21  2  0  0  0  0
  2  3  2  0  0  0  0
  3  4  1  0  0  0  0
  3 12  1  0  0  0  0
  4  5  1  0  0  0  0
  5  6  1  0  0  0  0
  5 10  2  0  0  0  0
  6  7  2  0  0  0  0
  7  8  1  0  0  0  0
  7 24  1  0  0  0  0
  8  9  2  0  0  0  0
  9 10  1  0  0  0  0
 10 11  1  0  0  0  0
 11 12  2  0  0  0  0
 11 15  1  0  0  0  0
 12 13  1  0  0  0  0
 13 14  2  0  0  0  0
 15 16  2  0  0  0  0
 15 20  1  0  0  0  0
 16 17  1  0  0  0  0
 17 18  2  0  0  0  0
 18 19  1  0  0  0  0
 19 20  2  0  0  0  0
 21 22  1  0  0  0  0
 21 23  1  0  0  0  0
 24 25  1  0  0  0  0
 24 26  1  0  0  0  0
M  CHG  1  21   1
M  END
>  <CHROM.1>
-3.37144233,51.41365559,111.07041784,-76.23580329,-85.34529172,-1.27089143
-1.06139446,1.06190116

>  <Name>
1f1t Malachite green aptamer (Xray 2.8A)

>  <RI>
0

>  <Rbt.Current_Directory>
/home/itssahil/PROJECTS/Mol_Feturizer/New_Systems/rnas/1f1t

>  <Rbt.Executable>
rbdock ($Id: //depot/dev/client3/rdock/2013.1/src/exe/rbdock.cxx#4 $)

>  <Rbt.Library>
libRbt.so (2013.1, Build901 2013/11/27)

>  <Rbt.Parameter_File>
/export/apps/rDock/src/rDock_2013.1_src/data/scripts/dock_solv.prm

>  <Rbt.Receptor>
prm/pocket_docking_7.prm

>  <SCORE>
-63.039

>  <SCORE.INTER>
-63.1101

>  <SCORE.INTER.CONST>
1

>  <SCORE.INTER.POLAR>
0

>  <SCORE.INTER.ROT>
2

>  <SCORE.INTER.SOLV>
11.0931

>  <SCORE.INTER.VDW>
-50.7044

>  <SCORE.INTER.norm>
-2.42731

>  <SCORE.INTRA>
0.0711214

>  <SCORE.INTRA.DIHEDRAL>
-1.23094

>  <SCORE.INTRA.DIHEDRAL.0>
4.18538

>  <SCORE.INTRA.POLAR>
0

>  <SCORE.INTRA.POLAR.0>
0

>  <SCORE.INTRA.REPUL>
0

>  <SCORE.INTRA.REPUL.0>
0

>  <SCORE.INTRA.SOLV>
0.0203419

>  <SCORE.INTRA.SOLV.lig_0>
-5.16926

>  <SCORE.INTRA.VDW>
0.67642

>  <SCORE.INTRA.VDW.0>
1.11912

>  <SCORE.INTRA.norm>
0.00273544

>  <SCORE.RESTR>
0

>  <SCORE.RESTR.CAVITY>
0

>  <SCORE.RESTR.norm>
0

>  <SCORE.SYSTEM>
0

>  <SCORE.SYSTEM.CONST>
0

>  <SCORE.SYSTEM.DIHEDRAL>
0

>  <SCORE.SYSTEM.SOLV>
0

>  <SCORE.SYSTEM.norm>
0

>  <SCORE.heavy>
26

>  <SCORE.norm>
-2.42458

>  <RMSD>
6.134

$$$$
1f1t Malachite green aptamer (Xray 2.8A)
 OpenBabel11021811393D
libRbt.so/2013.1/901 2013/11/27
 26 29  0  0  0  0  0  0  0  0999 V2000
  112.2197  -79.4012  -86.9638 C   0  0  0  0  0  0  0  0  0  0  0  0
  112.3491  -78.9452  -85.5877 C   0  0  0  0  0  0  0  0  0  0  0  0
  111.7852  -77.6861  -85.3727 C   0  0  0  0  0  0  0  0  0  0  0  0
  111.9442  -77.2696  -83.9512 O   0  0  0  0  0  0  0  0  0  0  0  0
  111.4170  -76.1232  -83.7617 C   0  0  0  0  0  0  0  0  0  0  0  0
  111.6338  -75.8014  -82.3514 C   0  0  0  0  0  0  0  0  0  0  0  0
  111.0904  -74.5298  -81.9496 C   0  0  0  0  0  0  0  0  0  0  0  0
  110.3971  -73.6778  -82.8445 C   0  0  0  0  0  0  0  0  0  0  0  0
  110.2235  -74.0517  -84.2359 C   0  0  0  0  0  0  0  0  0  0  0  0
  110.7725  -75.3149  -84.6641 C   0  0  0  0  0  0  0  0  0  0  0  0
  110.5615  -75.6188  -86.1287 C   0  0  0  0  0  0  0  0  0  0  0  0
  111.1478  -76.8839  -86.3127 C   0  0  0  0  0  0  0  0  0  0  0  0
  111.0339  -77.3575  -87.6939 C   0  0  0  0  0  0  0  0  0  0  0  0
  111.6008  -78.6459  -87.9408 C   0  0  0  0  0  0  0  0  0  0  0  0
  109.9109  -74.7575  -86.9919 C   0  0  0  0  0  0  0  0  0  0  0  0
  110.2373  -73.3963  -87.1940 C   0  0  0  0  0  0  0  0  0  0  0  0
  109.6030  -72.5172  -88.0736 C   0  0  0  0  0  0  0  0  0  0  0  0
  108.4940  -72.9905  -88.8885 C   0  0  0  0  0  0  0  0  0  0  0  0
  108.1854  -74.3521  -88.6545 C   0  0  0  0  0  0  0  0  0  0  0  0
  108.7904  -75.2672  -87.7819 C   0  0  0  0  0  0  0  0  0  0  0  0
  112.7272  -80.6387  -87.3344 N   0  3  0  0  0  0  0  0  0  0  0  0
  113.3878  -81.5250  -86.3828 C   0  0  0  0  0  0  0  0  0  0  0  0
  112.6824  -81.2335  -88.6884 C   0  0  0  0  0  0  0  0  0  0  0  0
  111.3338  -74.2310  -80.5980 N   0  0  0  0  0  0  0  0  0  0  0  0
  112.0034  -75.0015  -79.5264 C   0  0  0  0  0  0  0  0  0  0  0  0
  110.8676  -72.8913  -80.0934 C   0  0  0  0  0  0  0  0  0  0  0  0
  1  2  1  0  0  0  0
  1 14  1  0  0  0  0
  1 21  2  0  0  0  0
  2  3  2  0  0  0  0
  3  4  1  0  0  0  0
  3 12  1  0  0  0  0
  4  5  1  0  0  0  0
  5  6  1  0  0  0  0
  5 10  2  0  0  0  0
  6  7  2  0  0  0  0
  7  8  1  0  0  0  0
  7 24  1  0  0  0  0
  8  9  2  0  0  0  0
  9 10  1  0  0  0  0
 10 11  1  0  0  0  0
 11 12  2  0  0  0  0
 11 15  1  0  0  0  0
 12 13  1  0  0  0  0
 13 14  2  0  0  0  0
 15 16  2  0  0  0  0
 15 20  1  0  0  0  0
 16 17  1  0  0  0  0
 17 18  2  0  0  0  0
 18 19  1  0  0  0  0
 19 20  2  0  0  0  0
 21 22  1  0  0  0  0
 21 23  1  0  0  0  0
 24 25  1  0  0  0  0
 24 26  1  0  0  0  0
M  CHG  1  21   1
M  END
>  <CHROM.1>
-2.13107215,53.67400139,111.05561925,-76.20726558,-85.32528244,-1.27146122
-1.06050619,1.06003586

>  <Name>
1f1t Malachite green aptamer (Xray 2.8A)

>  <RI>
0

>  <Rbt.Current_Directory>
/home/itssahil/PROJECTS/Mol_Feturizer/New_Systems/rnas/1f1t

>  <Rbt.Executable>
rbdock ($Id: //depot/dev/client3/rdock/2013.1/src/exe/rbdock.cxx#4 $)

>  <Rbt.Library>
libRbt.so (2013.1, Build901 2013/11/27)

>  <Rbt.Parameter_File>
/export/apps/rDock/src/rDock_2013.1_src/data/scripts/dock_solv.prm

>  <Rbt.Receptor>
prm/pocket_docking_7.prm

>  <SCORE>
-63.0415

>  <SCORE.INTER>
-63.0762

>  <SCORE.INTER.CONST>
1

>  <SCORE.INTER.POLAR>
0

>  <SCORE.INTER.ROT>
2

>  <SCORE.INTER.SOLV>
11.1167

>  <SCORE.INTER.VDW>
-50.6897

>  <SCORE.INTER.norm>
-2.42601

>  <SCORE.INTRA>
0.0347509

>  <SCORE.INTRA.DIHEDRAL>
-1.07552

>  <SCORE.INTRA.DIHEDRAL.0>
4.18538

>  <SCORE.INTRA.POLAR>
0

>  <SCORE.INTRA.POLAR.0>
0

>  <SCORE.INTRA.REPUL>
0

>  <SCORE.INTRA.REPUL.0>
0

>  <SCORE.INTRA.SOLV>
0.0178105

>  <SCORE.INTRA.SOLV.lig_0>
-5.16926

>  <SCORE.INTRA.VDW>
0.563604

>  <SCORE.INTRA.VDW.0>
1.11912

>  <SCORE.INTRA.norm>
0.00133657

>  <SCORE.RESTR>
0

>  <SCORE.RESTR.CAVITY>
0

>  <SCORE.RESTR.norm>
0

>  <SCORE.SYSTEM>
0

>  <SCORE.SYSTEM.CONST>
0

>  <SCORE.SYSTEM.DIHEDRAL>
0

>  <SCORE.SYSTEM.SOLV>
0

>  <SCORE.SYSTEM.norm>
0

>  <SCORE.heavy>
26

>  <SCORE.norm>
-2.42467

>  <RMSD>
6.134

$$$$
1f1t Malachite green aptamer (Xray 2.8A)
 OpenBabel11021811393D
libRbt.so/2013.1/901 2013/11/27
 26 29  0  0  0  0  0  0  0  0999 V2000
  112.2313  -79.4003  -86.9565 C   0  0  0  0  0  0  0  0  0  0  0  0
  112.3606  -78.9423  -85.5811 C   0  0  0  0  0  0  0  0  0  0  0  0
  111.7947  -77.6839  -85.3676 C   0  0  0  0  0  0  0  0  0  0  0  0
  111.9537  -77.2652  -83.9467 O   0  0  0  0  0  0  0  0  0  0  0  0
  111.4247  -76.1195  -83.7585 C   0  0  0  0  0  0  0  0  0  0  0  0
  111.6417  -75.7954  -82.3487 C   0  0  0  0  0  0  0  0  0  0  0  0
  111.0963  -74.5242  -81.9482 C   0  0  0  0  0  0  0  0  0  0  0  0
  110.4011  -73.6745  -82.8440 C   0  0  0  0  0  0  0  0  0  0  0  0
  110.2275  -74.0506  -84.2347 C   0  0  0  0  0  0  0  0  0  0  0  0
  110.7784  -75.3134  -84.6616 C   0  0  0  0  0  0  0  0  0  0  0  0
  110.5671  -75.6196  -86.1257 C   0  0  0  0  0  0  0  0  0  0  0  0
  111.1555  -76.8840  -86.3083 C   0  0  0  0  0  0  0  0  0  0  0  0
  111.0417  -77.3596  -87.6888 C   0  0  0  0  0  0  0  0  0  0  0  0
  111.6106  -78.6474  -87.9343 C   0  0  0  0  0  0  0  0  0  0  0  0
  109.9147  -74.7606  -86.9896 C   0  0  0  0  0  0  0  0  0  0  0  0
  110.2349  -73.3975  -87.1893 C   0  0  0  0  0  0  0  0  0  0  0  0
  109.5986  -72.5206  -88.0696 C   0  0  0  0  0  0  0  0  0  0  0  0
  108.4943  -72.9985  -88.8882 C   0  0  0  0  0  0  0  0  0  0  0  0
  108.1919  -74.3619  -88.6567 C   0  0  0  0  0  0  0  0  0  0  0  0
  108.7990  -75.2749  -87.7834 C   0  0  0  0  0  0  0  0  0  0  0  0
  112.7407  -80.6375  -87.3257 N   0  3  0  0  0  0  0  0  0  0  0  0
  113.4033  -81.5214  -86.3733 C   0  0  0  0  0  0  0  0  0  0  0  0
  112.6962  -81.2341  -88.6789 C   0  0  0  0  0  0  0  0  0  0  0  0
  111.3399  -74.2232  -80.5972 N   0  0  0  0  0  0  0  0  0  0  0  0
  111.9994  -74.9967  -79.5215 C   0  0  0  0  0  0  0  0  0  0  0  0
  110.8863  -72.8770  -80.0982 C   0  0  0  0  0  0  0  0  0  0  0  0
  1  2  1  0  0  0  0
  1 14  1  0  0  0  0
  1 21  2  0  0  0  0
  2  3  2  0  0  0  0
  3  4  1  0  0  0  0
  3 12  1  0  0  0  0
  4  5  1  0  0  0  0
  5  6  1  0  0  0  0
  5 10  2  0  0  0  0
  6  7  2  0  0  0  0
  7  8  1  0  0  0  0
  7 24  1  0  0  0  0
  8  9  2  0  0  0  0
  9 10  1  0  0  0  0
 10 11  1  0  0  0  0
 11 12  2  0  0  0  0
 11 15  1  0  0  0  0
 12 13  1  0  0  0  0
 13 14  2  0  0  0  0
 15 16  2  0  0  0  0
 15 20  1  0  0  0  0
 16 17  1  0  0  0  0
 17 18  2  0  0  0  0
 18 19  1  0  0  0  0
 19 20  2  0  0  0  0
 21 22  1  0  0  0  0
 21 23  1  0  0  0  0
 24 25  1  0  0  0  0
 24 26  1  0  0  0  0
M  CHG  1  21   1
M  END
>  <CHROM.1>
-2.83738552,53.36889052,111.06284538,-76.20616344,-85.32176826,-1.27092298
-1.05904521,1.05916767

>  <Name>
1f1t Malachite green aptamer (Xray 2.8A)

>  <RI>
0

>  <Rbt.Current_Directory>
/home/itssahil/PROJECTS/Mol_Feturizer/New_Systems/rnas/1f1t

>  <Rbt.Executable>
rbdock ($Id: //depot/dev/client3/rdock/2013.1/src/exe/rbdock.cxx#4 $)

>  <Rbt.Library>
libRbt.so (2013.1, Build901 2013/11/27)

>  <Rbt.Parameter_File>
/export/apps/rDock/src/rDock_2013.1_src/data/scripts/dock_solv.prm

>  <Rbt.Receptor>
prm/pocket_docking_7.prm

>  <SCORE>
-63.0497

>  <SCORE.INTER>
-63.0927

>  <SCORE.INTER.CONST>
1

>  <SCORE.INTER.POLAR>
0

>  <SCORE.INTER.ROT>
2

>  <SCORE.INTER.SOLV>
11.1192

>  <SCORE.INTER.VDW>
-50.7015

>  <SCORE.INTER.norm>
-2.42664

>  <SCORE.INTRA>
0.0429881

>  <SCORE.INTRA.DIHEDRAL>
-1.0856

>  <SCORE.INTRA.DIHEDRAL.0>
4.18538

>  <SCORE.INTRA.POLAR>
0

>  <SCORE.INTRA.POLAR.0>
0

>  <SCORE.INTRA.REPUL>
0

>  <SCORE.INTRA.REPUL.0>
0

>  <SCORE.INTRA.SOLV>
0.0181524

>  <SCORE.INTRA.SOLV.lig_0>
-5.16926

>  <SCORE.INTRA.VDW>
0.576712

>  <SCORE.INTRA.VDW.0>
1.11912

>  <SCORE.INTRA.norm>
0.00165339

>  <SCORE.RESTR>
0

>  <SCORE.RESTR.CAVITY>
0

>  <SCORE.RESTR.norm>
0

>  <SCORE.SYSTEM>
0

>  <SCORE.SYSTEM.CONST>
0

>  <SCORE.SYSTEM.DIHEDRAL>
0

>  <SCORE.SYSTEM.SOLV>
0

>  <SCORE.SYSTEM.norm>
0

>  <SCORE.heavy>
26

>  <SCORE.norm>
-2.42499

>  <RMSD>
6.134

$$$$
1f1t Malachite green aptamer (Xray 2.8A)
 OpenBabel11021811393D
libRbt.so/2013.1/901 2013/11/27
 26 29  0  0  0  0  0  0  0  0999 V2000
  112.2395  -79.4220  -86.9570 C   0  0  0  0  0  0  0  0  0  0  0  0
  112.3638  -78.9602  -85.5823 C   0  0  0  0  0  0  0  0  0  0  0  0
  111.7975  -77.7010  -85.3744 C   0  0  0  0  0  0  0  0  0  0  0  0
  111.9513  -77.2784  -83.9541 O   0  0  0  0  0  0  0  0  0  0  0  0
  111.4220  -76.1320  -83.7711 C   0  0  0  0  0  0  0  0  0  0  0  0
  111.6337  -75.8040  -82.3614 C   0  0  0  0  0  0  0  0  0  0  0  0
  111.0873  -74.5316  -81.9665 C   0  0  0  0  0  0  0  0  0  0  0  0
  110.3957  -73.6843  -82.8672 C   0  0  0  0  0  0  0  0  0  0  0  0
  110.2272  -74.0641  -84.2576 C   0  0  0  0  0  0  0  0  0  0  0  0
  110.7793  -75.3283  -84.6788 C   0  0  0  0  0  0  0  0  0  0  0  0
  110.5734  -75.6385  -86.1428 C   0  0  0  0  0  0  0  0  0  0  0  0
  111.1621  -76.9035  -86.3198 C   0  0  0  0  0  0  0  0  0  0  0  0
  111.0533  -77.3829  -87.6994 C   0  0  0  0  0  0  0  0  0  0  0  0
  111.6227  -78.6716  -87.9391 C   0  0  0  0  0  0  0  0  0  0  0  0
  109.9245  -74.7817  -87.0116 C   0  0  0  0  0  0  0  0  0  0  0  0
  110.2214  -73.4099  -87.1864 C   0  0  0  0  0  0  0  0  0  0  0  0
  109.5886  -72.5347  -88.0710 C   0  0  0  0  0  0  0  0  0  0  0  0
  108.5143  -73.0241  -88.9220 C   0  0  0  0  0  0  0  0  0  0  0  0
  108.2344  -74.3963  -88.7149 C   0  0  0  0  0  0  0  0  0  0  0  0
  108.8389  -75.3081  -87.8386 C   0  0  0  0  0  0  0  0  0  0  0  0
  112.7500  -80.6603  -87.3208 N   0  3  0  0  0  0  0  0  0  0  0  0
  113.4087  -81.5418  -86.3635 C   0  0  0  0  0  0  0  0  0  0  0  0
  112.7103  -81.2607  -88.6725 C   0  0  0  0  0  0  0  0  0  0  0  0
  111.3259  -74.2269  -80.6154 N   0  0  0  0  0  0  0  0  0  0  0  0
  111.9856  -74.9955  -79.5364 C   0  0  0  0  0  0  0  0  0  0  0  0
  110.8654  -72.8817  -80.1204 C   0  0  0  0  0  0  0  0  0  0  0  0
  1  2  1  0  0  0  0
  1 14  1  0  0  0  0
  1 21  2  0  0  0  0
  2  3  2  0  0  0  0
  3  4  1  0  0  0  0
  3 12  1  0  0  0  0
  4  5  1  0  0  0  0
  5  6  1  0  0  0  0
  5 10  2  0  0  0  0
  6  7  2  0  0  0  0
  7  8  1  0  0  0  0
  7 24  1  0  0  0  0
  8  9  2  0  0  0  0
  9 10  1  0  0  0  0
 10 11  1  0  0  0  0
 11 12  2  0  0  0  0
 11 15  1  0  0  0  0
 12 13  1  0  0  0  0
 13 14  2  0  0  0  0
 15 16  2  0  0  0  0
 15 20  1  0  0  0  0
 16 17  1  0  0  0  0
 17 18  2  0  0  0  0
 18 19  1  0  0  0  0
 19 20  2  0  0  0  0
 21 22  1  0  0  0  0
 21 23  1  0  0  0  0
 24 25  1  0  0  0  0
 24 26  1  0  0  0  0
M  CHG  1  21   1
M  END
>  <CHROM.1>
-2.57311915,51.48492336,111.06616513,-76.22294800,-85.33565589,-1.26485652
-1.06125656,1.06184522

>  <Name>
1f1t Malachite green aptamer (Xray 2.8A)

>  <RI>
0

>  <Rbt.Current_Directory>
/home/itssahil/PROJECTS/Mol_Feturizer/New_Systems/rnas/1f1t

>  <Rbt.Executable>
rbdock ($Id: //depot/dev/client3/rdock/2013.1/src/exe/rbdock.cxx#4 $)

>  <Rbt.Library>
libRbt.so (2013.1, Build901 2013/11/27)

>  <Rbt.Parameter_File>
/export/apps/rDock/src/rDock_2013.1_src/data/scripts/dock_solv.prm

>  <Rbt.Receptor>
prm/pocket_docking_7.prm

>  <SCORE>
-63.0407

>  <SCORE.INTER>
-63.1066

>  <SCORE.INTER.CONST>
1

>  <SCORE.INTER.POLAR>
0

>  <SCORE.INTER.ROT>
2

>  <SCORE.INTER.SOLV>
11.1248

>  <SCORE.INTER.VDW>
-50.7127

>  <SCORE.INTER.norm>
-2.42718

>  <SCORE.INTRA>
0.0659189

>  <SCORE.INTRA.DIHEDRAL>
-1.24445

>  <SCORE.INTRA.DIHEDRAL.0>
4.18538

>  <SCORE.INTRA.POLAR>
0

>  <SCORE.INTRA.POLAR.0>
0

>  <SCORE.INTRA.REPUL>
0

>  <SCORE.INTRA.REPUL.0>
0

>  <SCORE.INTRA.SOLV>
0.020267

>  <SCORE.INTRA.SOLV.lig_0>
-5.16926

>  <SCORE.INTRA.VDW>
0.678008

>  <SCORE.INTRA.VDW.0>
1.11912

>  <SCORE.INTRA.norm>
0.00253534

>  <SCORE.RESTR>
0

>  <SCORE.RESTR.CAVITY>
0

>  <SCORE.RESTR.norm>
0

>  <SCORE.SYSTEM>
0

>  <SCORE.SYSTEM.CONST>
0

>  <SCORE.SYSTEM.DIHEDRAL>
0

>  <SCORE.SYSTEM.SOLV>
0

>  <SCORE.SYSTEM.norm>
0

>  <SCORE.heavy>
26

>  <SCORE.norm>
-2.42464

>  <RMSD>
6.134

$$$$
1f1t Malachite green aptamer (Xray 2.8A)
 OpenBabel11021811393D
libRbt.so/2013.1/901 2013/11/27
 26 29  0  0  0  0  0  0  0  0999 V2000
  112.2130  -79.3991  -86.9453 C   0  0  0  0  0  0  0  0  0  0  0  0
  112.3432  -78.9363  -85.5715 C   0  0  0  0  0  0  0  0  0  0  0  0
  111.7796  -77.6761  -85.3626 C   0  0  0  0  0  0  0  0  0  0  0  0
  111.9394  -77.2524  -83.9433 O   0  0  0  0  0  0  0  0  0  0  0  0
  111.4125  -76.1050  -83.7593 C   0  0  0  0  0  0  0  0  0  0  0  0
  111.6301  -75.7762  -82.3507 C   0  0  0  0  0  0  0  0  0  0  0  0
  111.0871  -74.5025  -81.9549 C   0  0  0  0  0  0  0  0  0  0  0  0
  110.3934  -73.6549  -82.8538 C   0  0  0  0  0  0  0  0  0  0  0  0
  110.2191  -74.0357  -84.2431 C   0  0  0  0  0  0  0  0  0  0  0  0
  110.7677  -75.3011  -84.6653 C   0  0  0  0  0  0  0  0  0  0  0  0
  110.5558  -75.6123  -86.1283 C   0  0  0  0  0  0  0  0  0  0  0  0
  111.1419  -76.8784  -86.3063 C   0  0  0  0  0  0  0  0  0  0  0  0
  111.0272  -77.3589  -87.6851 C   0  0  0  0  0  0  0  0  0  0  0  0
  111.5937  -78.6487  -87.9258 C   0  0  0  0  0  0  0  0  0  0  0  0
  109.9050  -74.7553  -86.9954 C   0  0  0  0  0  0  0  0  0  0  0  0
  110.2291  -73.3941  -87.2017 C   0  0  0  0  0  0  0  0  0  0  0  0
  109.5944  -72.5193  -88.0853 C   0  0  0  0  0  0  0  0  0  0  0  0
  108.4876  -72.9975  -88.9003 C   0  0  0  0  0  0  0  0  0  0  0  0
  108.1813  -74.3590  -88.6621 C   0  0  0  0  0  0  0  0  0  0  0  0
  108.7867  -75.2698  -87.7854 C   0  0  0  0  0  0  0  0  0  0  0  0
  112.7202  -80.6385  -87.3100 N   0  3  0  0  0  0  0  0  0  0  0  0
  113.3811  -81.5202  -86.3543 C   0  0  0  0  0  0  0  0  0  0  0  0
  112.6745  -81.2401  -88.6609 C   0  0  0  0  0  0  0  0  0  0  0  0
  111.3313  -74.1970  -80.6050 N   0  0  0  0  0  0  0  0  0  0  0  0
  111.9733  -74.9749  -79.5220 C   0  0  0  0  0  0  0  0  0  0  0  0
  110.8995  -72.8399  -80.1164 C   0  0  0  0  0  0  0  0  0  0  0  0
  1  2  1  0  0  0  0
  1 14  1  0  0  0  0
  1 21  2  0  0  0  0
  2  3  2  0  0  0  0
  3  4  1  0  0  0  0
  3 12  1  0  0  0  0
  4  5  1  0  0  0  0
  5  6  1  0  0  0  0
  5 10  2  0  0  0  0
  6  7  2  0  0  0  0
  7  8  1  0  0  0  0
  7 24  1  0  0  0  0
  8  9  2  0  0  0  0
  9 10  1  0  0  0  0
 10 11  1  0  0  0  0
 11 12  2  0  0  0  0
 11 15  1  0  0  0  0
 12 13  1  0  0  0  0
 13 14  2  0  0  0  0
 15 16  2  0  0  0  0
 15 20  1  0  0  0  0
 16 17  1  0  0  0  0
 17 18  2  0  0  0  0
 18 19  1  0  0  0  0
 19 20  2  0  0  0  0
 21 22  1  0  0  0  0
 21 23  1  0  0  0  0
 24 25  1  0  0  0  0
 24 26  1  0  0  0  0
M  CHG  1  21   1
M  END
>  <CHROM.1>
-3.77192417,53.48253012,111.05060011,-76.19675422,-85.32228873,-1.27301528
-1.06091338,1.05363658

>  <Name>
1f1t Malachite green aptamer (Xray 2.8A)

>  <RI>
0

>  <Rbt.Current_Directory>
/home/itssahil/PROJECTS/Mol_Feturizer/New_Systems/rnas/1f1t

>  <Rbt.Executable>
rbdock ($Id: //depot/dev/client3/rdock/2013.1/src/exe/rbdock.cxx#4 $)

>  <Rbt.Library>
libRbt.so (2013.1, Build901 2013/11/27)

>  <Rbt.Parameter_File>
/export/apps/rDock/src/rDock_2013.1_src/data/scripts/dock_solv.prm

>  <Rbt.Receptor>
prm/pocket_docking_7.prm

>  <SCORE>
-63.1206

>  <SCORE.INTER>
-63.1658

>  <SCORE.INTER.CONST>
1

>  <SCORE.INTER.POLAR>
0

>  <SCORE.INTER.ROT>
2

>  <SCORE.INTER.SOLV>
11.1384

>  <SCORE.INTER.VDW>
-50.7567

>  <SCORE.INTER.norm>
-2.42945

>  <SCORE.INTRA>
0.0452197

>  <SCORE.INTRA.DIHEDRAL>
-1.05141

>  <SCORE.INTRA.DIHEDRAL.0>
4.18538

>  <SCORE.INTRA.POLAR>
0

>  <SCORE.INTRA.POLAR.0>
0

>  <SCORE.INTRA.REPUL>
0

>  <SCORE.INTRA.REPUL.0>
0

>  <SCORE.INTRA.SOLV>
0.0180184

>  <SCORE.INTRA.SOLV.lig_0>
-5.16926

>  <SCORE.INTRA.VDW>
0.561916

>  <SCORE.INTRA.VDW.0>
1.11912

>  <SCORE.INTRA.norm>
0.00173922

>  <SCORE.RESTR>
0

>  <SCORE.RESTR.CAVITY>
0

>  <SCORE.RESTR.norm>
0

>  <SCORE.SYSTEM>
0

>  <SCORE.SYSTEM.CONST>
0

>  <SCORE.SYSTEM.DIHEDRAL>
0

>  <SCORE.SYSTEM.SOLV>
0

>  <SCORE.SYSTEM.norm>
0

>  <SCORE.heavy>
26

>  <SCORE.norm>
-2.42772

>  <RMSD>
6.134

$$$$
1f1t Malachite green aptamer (Xray 2.8A)
 OpenBabel11021811393D
libRbt.so/2013.1/901 2013/11/27
 26 29  0  0  0  0  0  0  0  0999 V2000
  112.2356  -79.4053  -86.9603 C   0  0  0  0  0  0  0  0  0  0  0  0
  112.3653  -78.9452  -85.5856 C   0  0  0  0  0  0  0  0  0  0  0  0
  111.7984  -77.6871  -85.3735 C   0  0  0  0  0  0  0  0  0  0  0  0
  111.9580  -77.2662  -83.9532 O   0  0  0  0  0  0  0  0  0  0  0  0
  111.4280  -76.1207  -83.7663 C   0  0  0  0  0  0  0  0  0  0  0  0
  111.6456  -75.7944  -82.3571 C   0  0  0  0  0  0  0  0  0  0  0  0
  111.0993  -74.5232  -81.9581 C   0  0  0  0  0  0  0  0  0  0  0  0
  110.4028  -73.6754  -82.8547 C   0  0  0  0  0  0  0  0  0  0  0  0
  110.2287  -74.0536  -84.2448 C   0  0  0  0  0  0  0  0  0  0  0  0
  110.7805  -75.3165  -84.6701 C   0  0  0  0  0  0  0  0  0  0  0  0
  110.5686  -75.6249  -86.1337 C   0  0  0  0  0  0  0  0  0  0  0  0
  111.1579  -76.8890  -86.3149 C   0  0  0  0  0  0  0  0  0  0  0  0
  111.0437  -77.3667  -87.6947 C   0  0  0  0  0  0  0  0  0  0  0  0
  111.6136  -78.6544  -87.9387 C   0  0  0  0  0  0  0  0  0  0  0  0
  109.9148  -74.7677  -86.9985 C   0  0  0  0  0  0  0  0  0  0  0  0
  110.2358  -73.4055  -87.2027 C   0  0  0  0  0  0  0  0  0  0  0  0
  109.5982  -72.5304  -88.0840 C   0  0  0  0  0  0  0  0  0  0  0  0
  108.4915  -73.0095  -88.8984 C   0  0  0  0  0  0  0  0  0  0  0  0
  108.1883  -74.3720  -88.6624 C   0  0  0  0  0  0  0  0  0  0  0  0
  108.7967  -75.2832  -87.7881 C   0  0  0  0  0  0  0  0  0  0  0  0
  112.7459  -80.6425  -87.3281 N   0  3  0  0  0  0  0  0  0  0  0  0
  113.4098  -81.5245  -86.3748 C   0  0  0  0  0  0  0  0  0  0  0  0
  112.7011  -81.2411  -88.6804 C   0  0  0  0  0  0  0  0  0  0  0  0
  111.3435  -74.2201  -80.6077 N   0  0  0  0  0  0  0  0  0  0  0  0
  111.9918  -74.9971  -79.5278 C   0  0  0  0  0  0  0  0  0  0  0  0
  110.9042  -72.8670  -80.1146 C   0  0  0  0  0  0  0  0  0  0  0  0
  1  2  1  0  0  0  0
  1 14  1  0  0  0  0
  1 21  2  0  0  0  0
  2  3  2  0  0  0  0
  3  4  1  0  0  0  0
  3 12  1  0  0  0  0
  4  5  1  0  0  0  0
  5  6  1  0  0  0  0
  5 10  2  0  0  0  0
  6  7  2  0  0  0  0
  7  8  1  0  0  0  0
  7 24  1  0  0  0  0
  8  9  2  0  0  0  0
  9 10  1  0  0  0  0
 10 11  1  0  0  0  0
 11 12  2  0  0  0  0
 11 15  1  0  0  0  0
 12 13  1  0  0  0  0
 13 14  2  0  0  0  0
 15 16  2  0  0  0  0
 15 20  1  0  0  0  0
 16 17  1  0  0  0  0
 17 18  2  0  0  0  0
 18 19  1  0  0  0  0
 19 20  2  0  0  0  0
 21 22  1  0  0  0  0
 21 23  1  0  0  0  0
 24 25  1  0  0  0  0
 24 26  1  0  0  0  0
M  CHG  1  21   1
M  END
>  <CHROM.1>
-3.57227782,53.53712842,111.06537947,-76.20985917,-85.32930125,-1.27128092
-1.05817401,1.05742110

>  <Name>
1f1t Malachite green aptamer (Xray 2.8A)

>  <RI>
0

>  <Rbt.Current_Directory>
/home/itssahil/PROJECTS/Mol_Feturizer/New_Systems/rnas/1f1t

>  <Rbt.Executable>
rbdock ($Id: //depot/dev/client3/rdock/2013.1/src/exe/rbdock.cxx#4 $)

>  <Rbt.Library>
libRbt.so (2013.1, Build901 2013/11/27)

>  <Rbt.Parameter_File>
/export/apps/rDock/src/rDock_2013.1_src/data/scripts/dock_solv.prm

>  <Rbt.Receptor>
prm/pocket_docking_7.prm

>  <SCORE>
-63.0631

>  <SCORE.INTER>
-63.1062

>  <SCORE.INTER.CONST>
1

>  <SCORE.INTER.POLAR>
0

>  <SCORE.INTER.ROT>
2

>  <SCORE.INTER.SOLV>
11.126

>  <SCORE.INTER.VDW>
-50.7128

>  <SCORE.INTER.norm>
-2.42716

>  <SCORE.INTRA>
0.0431521

>  <SCORE.INTRA.DIHEDRAL>
-1.05294

>  <SCORE.INTRA.DIHEDRAL.0>
4.18538

>  <SCORE.INTRA.POLAR>
0

>  <SCORE.INTRA.POLAR.0>
0

>  <SCORE.INTRA.REPUL>
0

>  <SCORE.INTRA.REPUL.0>
0

>  <SCORE.INTRA.SOLV>
0.0179579

>  <SCORE.INTRA.SOLV.lig_0>
-5.16926

>  <SCORE.INTRA.VDW>
0.560643

>  <SCORE.INTRA.VDW.0>
1.11912

>  <SCORE.INTRA.norm>
0.0016597

>  <SCORE.RESTR>
0

>  <SCORE.RESTR.CAVITY>
0

>  <SCORE.RESTR.norm>
0

>  <SCORE.SYSTEM>
0

>  <SCORE.SYSTEM.CONST>
0

>  <SCORE.SYSTEM.DIHEDRAL>
0

>  <SCORE.SYSTEM.SOLV>
0

>  <SCORE.SYSTEM.norm>
0

>  <SCORE.heavy>
26

>  <SCORE.norm>
-2.4255

>  <RMSD>
6.134

$$$$
1f1t Malachite green aptamer (Xray 2.8A)
 OpenBabel11021811393D
libRbt.so/2013.1/901 2013/11/27
 26 29  0  0  0  0  0  0  0  0999 V2000
  112.2302  -79.4070  -86.9502 C   0  0  0  0  0  0  0  0  0  0  0  0
  112.3586  -78.9458  -85.5757 C   0  0  0  0  0  0  0  0  0  0  0  0
  111.7943  -77.6861  -85.3659 C   0  0  0  0  0  0  0  0  0  0  0  0
  111.9523  -77.2642  -83.9458 O   0  0  0  0  0  0  0  0  0  0  0  0
  111.4247  -76.1173  -83.7610 C   0  0  0  0  0  0  0  0  0  0  0  0
  111.6405  -75.7901  -82.3517 C   0  0  0  0  0  0  0  0  0  0  0  0
  111.0966  -74.5172  -81.9550 C   0  0  0  0  0  0  0  0  0  0  0  0
  110.4037  -73.6687  -82.8535 C   0  0  0  0  0  0  0  0  0  0  0  0
  110.2311  -74.0478  -84.2436 C   0  0  0  0  0  0  0  0  0  0  0  0
  110.7807  -75.3124  -84.6667 C   0  0  0  0  0  0  0  0  0  0  0  0
  110.5706  -75.6218  -86.1304 C   0  0  0  0  0  0  0  0  0  0  0  0
  111.1573  -76.8875  -86.3093 C   0  0  0  0  0  0  0  0  0  0  0  0
  111.0445  -77.3662  -87.6888 C   0  0  0  0  0  0  0  0  0  0  0  0
  111.6117  -78.6555  -87.9305 C   0  0  0  0  0  0  0  0  0  0  0  0
  109.9205  -74.7639  -86.9972 C   0  0  0  0  0  0  0  0  0  0  0  0
  110.2296  -73.3965  -87.1844 C   0  0  0  0  0  0  0  0  0  0  0  0
  109.5956  -72.5204  -88.0673 C   0  0  0  0  0  0  0  0  0  0  0  0
  108.5064  -73.0041  -88.9024 C   0  0  0  0  0  0  0  0  0  0  0  0
  108.2146  -74.3718  -88.6831 C   0  0  0  0  0  0  0  0  0  0  0  0
  108.8199  -75.2843  -87.8079 C   0  0  0  0  0  0  0  0  0  0  0  0
  112.7382  -80.6458  -87.3159 N   0  3  0  0  0  0  0  0  0  0  0  0
  113.3983  -81.5284  -86.3606 C   0  0  0  0  0  0  0  0  0  0  0  0
  112.6943  -81.2456  -88.6677 C   0  0  0  0  0  0  0  0  0  0  0  0
  111.3391  -74.2133  -80.6044 N   0  0  0  0  0  0  0  0  0  0  0  0
  111.9826  -74.9913  -79.5222 C   0  0  0  0  0  0  0  0  0  0  0  0
  110.9033  -72.8582  -80.1137 C   0  0  0  0  0  0  0  0  0  0  0  0
  1  2  1  0  0  0  0
  1 14  1  0  0  0  0
  1 21  2  0  0  0  0
  2  3  2  0  0  0  0
  3  4  1  0  0  0  0
  3 12  1  0  0  0  0
  4  5  1  0  0  0  0
  5  6  1  0  0  0  0
  5 10  2  0  0  0  0
  6  7  2  0  0  0  0
  7  8  1  0  0  0  0
  7 24  1  0  0  0  0
  8  9  2  0  0  0  0
  9 10  1  0  0  0  0
 10 11  1  0  0  0  0
 11 12  2  0  0  0  0
 11 15  1  0  0  0  0
 12 13  1  0  0  0  0
 13 14  2  0  0  0  0
 15 16  2  0  0  0  0
 15 20  1  0  0  0  0
 16 17  1  0  0  0  0
 17 18  2  0  0  0  0
 18 19  1  0  0  0  0
 19 20  2  0  0  0  0
 21 22  1  0  0  0  0
 21 23  1  0  0  0  0
 24 25  1  0  0  0  0
 24 26  1  0  0  0  0
M  CHG  1  21   1
M  END
>  <CHROM.1>
-3.63029660,52.32751019,111.06482476,-76.20712410,-85.32463300,-1.27076475
-1.06126438,1.05697405

>  <Name>
1f1t Malachite green aptamer (Xray 2.8A)

>  <RI>
0

>  <Rbt.Current_Directory>
/home/itssahil/PROJECTS/Mol_Feturizer/New_Systems/rnas/1f1t

>  <Rbt.Executable>
rbdock ($Id: //depot/dev/client3/rdock/2013.1/src/exe/rbdock.cxx#4 $)

>  <Rbt.Library>
libRbt.so (2013.1, Build901 2013/11/27)

>  <Rbt.Parameter_File>
/export/apps/rDock/src/rDock_2013.1_src/data/scripts/dock_solv.prm

>  <Rbt.Receptor>
prm/pocket_docking_7.prm

>  <SCORE>
-63.0616

>  <SCORE.INTER>
-63.112

>  <SCORE.INTER.CONST>
1

>  <SCORE.INTER.POLAR>
0

>  <SCORE.INTER.ROT>
2

>  <SCORE.INTER.SOLV>
11.1343

>  <SCORE.INTER.VDW>
-50.7194

>  <SCORE.INTER.norm>
-2.42739

>  <SCORE.INTRA>
0.050463

>  <SCORE.INTRA.DIHEDRAL>
-1.14904

>  <SCORE.INTRA.DIHEDRAL.0>
4.18538

>  <SCORE.INTRA.POLAR>
0

>  <SCORE.INTRA.POLAR.0>
0

>  <SCORE.INTRA.REPUL>
0

>  <SCORE.INTRA.REPUL.0>
0

>  <SCORE.INTRA.SOLV>
0.0193199

>  <SCORE.INTRA.SOLV.lig_0>
-5.16926

>  <SCORE.INTRA.VDW>
0.615321

>  <SCORE.INTRA.VDW.0>
1.11912

>  <SCORE.INTRA.norm>
0.00194088

>  <SCORE.RESTR>
0

>  <SCORE.RESTR.CAVITY>
0

>  <SCORE.RESTR.norm>
0

>  <SCORE.SYSTEM>
0

>  <SCORE.SYSTEM.CONST>
0

>  <SCORE.SYSTEM.DIHEDRAL>
0

>  <SCORE.SYSTEM.SOLV>
0

>  <SCORE.SYSTEM.norm>
0

>  <SCORE.heavy>
26

>  <SCORE.norm>
-2.42544

>  <RMSD>
6.134

$$$$
1f1t Malachite green aptamer (Xray 2.8A)
 OpenBabel11021811393D
libRbt.so/2013.1/901 2013/11/27
 26 29  0  0  0  0  0  0  0  0999 V2000
  112.2217  -79.3979  -86.9652 C   0  0  0  0  0  0  0  0  0  0  0  0
  112.3549  -78.9387  -85.5905 C   0  0  0  0  0  0  0  0  0  0  0  0
  111.7901  -77.6799  -85.3766 C   0  0  0  0  0  0  0  0  0  0  0  0
  111.9531  -77.2599  -83.9565 O   0  0  0  0  0  0  0  0  0  0  0  0
  111.4250  -76.1138  -83.7679 C   0  0  0  0  0  0  0  0  0  0  0  0
  111.6459  -75.7885  -82.3590 C   0  0  0  0  0  0  0  0  0  0  0  0
  111.1021  -74.5167  -81.9583 C   0  0  0  0  0  0  0  0  0  0  0  0
  110.4049  -73.6676  -82.8530 C   0  0  0  0  0  0  0  0  0  0  0  0
  110.2274  -74.0448  -84.2429 C   0  0  0  0  0  0  0  0  0  0  0  0
  110.7767  -75.3082  -84.6700 C   0  0  0  0  0  0  0  0  0  0  0  0
  110.5613  -75.6157  -86.1333 C   0  0  0  0  0  0  0  0  0  0  0  0
  111.1487  -76.8805  -86.3164 C   0  0  0  0  0  0  0  0  0  0  0  0
  111.0310  -77.3573  -87.6961 C   0  0  0  0  0  0  0  0  0  0  0  0
  111.5987  -78.6456  -87.9420 C   0  0  0  0  0  0  0  0  0  0  0  0
  109.9070  -74.7572  -86.9963 C   0  0  0  0  0  0  0  0  0  0  0  0
  110.2255  -73.3937  -87.1961 C   0  0  0  0  0  0  0  0  0  0  0  0
  109.5872  -72.5173  -88.0755 C   0  0  0  0  0  0  0  0  0  0  0  0
  108.4825  -72.9962  -88.8927 C   0  0  0  0  0  0  0  0  0  0  0  0
  108.1817  -74.3599  -88.6611 C   0  0  0  0  0  0  0  0  0  0  0  0
  108.7909  -75.2725  -87.7888 C   0  0  0  0  0  0  0  0  0  0  0  0
  112.7296  -80.6356  -87.3346 N   0  3  0  0  0  0  0  0  0  0  0  0
  113.3943  -81.5189  -86.3832 C   0  0  0  0  0  0  0  0  0  0  0  0
  112.6812  -81.2334  -88.6871 C   0  0  0  0  0  0  0  0  0  0  0  0
  111.3495  -74.2146  -80.6082 N   0  0  0  0  0  0  0  0  0  0  0  0
  112.0045  -74.9906  -79.5315 C   0  0  0  0  0  0  0  0  0  0  0  0
  110.9063  -72.8641  -80.1116 C   0  0  0  0  0  0  0  0  0  0  0  0
  1  2  1  0  0  0  0
  1 14  1  0  0  0  0
  1 21  2  0  0  0  0
  2  3  2  0  0  0  0
  3  4  1  0  0  0  0
  3 12  1  0  0  0  0
  4  5  1  0  0  0  0
  5  6  1  0  0  0  0
  5 10  2  0  0  0  0
  6  7  2  0  0  0  0
  7  8  1  0  0  0  0
  7 24  1  0  0  0  0
  8  9  2  0  0  0  0
  9 10  1  0  0  0  0
 10 11  1  0  0  0  0
 11 12  2  0  0  0  0
 11 15  1  0  0  0  0
 12 13  1  0  0  0  0
 13 14  2  0  0  0  0
 15 16  2  0  0  0  0
 15 20  1  0  0  0  0
 16 17  1  0  0  0  0
 17 18  2  0  0  0  0
 18 19  1  0  0  0  0
 19 20  2  0  0  0  0
 21 22  1  0  0  0  0
 21 23  1  0  0  0  0
 24 25  1  0  0  0  0
 24 26  1  0  0  0  0
M  CHG  1  21   1
M  END
>  <CHROM.1>
-3.24919225,53.23555105,111.05903980,-76.20171438,-85.33023237,-1.27623515
-1.05824544,1.05363135

>  <Name>
1f1t Malachite green aptamer (Xray 2.8A)

>  <RI>
0

>  <Rbt.Current_Directory>
/home/itssahil/PROJECTS/Mol_Feturizer/New_Systems/rnas/1f1t

>  <Rbt.Executable>
rbdock ($Id: //depot/dev/client3/rdock/2013.1/src/exe/rbdock.cxx#4 $)

>  <Rbt.Library>
libRbt.so (2013.1, Build901 2013/11/27)

>  <Rbt.Parameter_File>
/export/apps/rDock/src/rDock_2013.1_src/data/scripts/dock_solv.prm

>  <Rbt.Receptor>
prm/pocket_docking_8.prm

>  <SCORE>
-63.0863

>  <SCORE.INTER>
-63.1337

>  <SCORE.INTER.CONST>
1

>  <SCORE.INTER.POLAR>
0

>  <SCORE.INTER.ROT>
2

>  <SCORE.INTER.SOLV>
11.136

>  <SCORE.INTER.VDW>
-50.7344

>  <SCORE.INTER.norm>
-2.42822

>  <SCORE.INTRA>
0.0473685

>  <SCORE.INTRA.DIHEDRAL>
-1.08614

>  <SCORE.INTRA.DIHEDRAL.0>
4.18538

>  <SCORE.INTRA.POLAR>
0

>  <SCORE.INTRA.POLAR.0>
0

>  <SCORE.INTRA.REPUL>
0

>  <SCORE.INTRA.REPUL.0>
0

>  <SCORE.INTRA.SOLV>
0.0183007

>  <SCORE.INTRA.SOLV.lig_0>
-5.16926

>  <SCORE.INTRA.VDW>
0.581287

>  <SCORE.INTRA.VDW.0>
1.11912

>  <SCORE.INTRA.norm>
0.00182186

>  <SCORE.RESTR>
0

>  <SCORE.RESTR.CAVITY>
0

>  <SCORE.RESTR.norm>
0

>  <SCORE.SYSTEM>
0

>  <SCORE.SYSTEM.CONST>
0

>  <SCORE.SYSTEM.DIHEDRAL>
0

>  <SCORE.SYSTEM.SOLV>
0

>  <SCORE.SYSTEM.norm>
0

>  <SCORE.heavy>
26

>  <SCORE.norm>
-2.4264

>  <RMSD>
6.134

$$$$
1f1t Malachite green aptamer (Xray 2.8A)
 OpenBabel11021811393D
libRbt.so/2013.1/901 2013/11/27
 26 29  0  0  0  0  0  0  0  0999 V2000
  112.2353  -79.4401  -86.9006 C   0  0  0  0  0  0  0  0  0  0  0  0
  112.3521  -78.9486  -85.5356 C   0  0  0  0  0  0  0  0  0  0  0  0
  111.7673  -77.6939  -85.3536 C   0  0  0  0  0  0  0  0  0  0  0  0
  111.9141  -77.2402  -83.9421 O   0  0  0  0  0  0  0  0  0  0  0  0
  111.3679  -76.0982  -83.7826 C   0  0  0  0  0  0  0  0  0  0  0  0
  111.5740  -75.7386  -82.3798 C   0  0  0  0  0  0  0  0  0  0  0  0
  111.0088  -74.4665  -82.0111 C   0  0  0  0  0  0  0  0  0  0  0  0
  110.3055  -73.6479  -82.9291 C   0  0  0  0  0  0  0  0  0  0  0  0
  110.1433  -74.0584  -84.3115 C   0  0  0  0  0  0  0  0  0  0  0  0
  110.7141  -75.3226  -84.7067 C   0  0  0  0  0  0  0  0  0  0  0  0
  110.5137  -75.6655  -86.1642 C   0  0  0  0  0  0  0  0  0  0  0  0
  111.1208  -76.9252  -86.3152 C   0  0  0  0  0  0  0  0  0  0  0  0
  111.0199  -77.4341  -87.6847 C   0  0  0  0  0  0  0  0  0  0  0  0
  111.6082  -78.7190  -87.8980 C   0  0  0  0  0  0  0  0  0  0  0  0
  109.8528  -74.8362  -87.0505 C   0  0  0  0  0  0  0  0  0  0  0  0
  108.7845  -75.2207  -87.8938 C   0  0  0  0  0  0  0  0  0  0  0  0
  108.0946  -74.3931  -88.7814 C   0  0  0  0  0  0  0  0  0  0  0  0
  108.4643  -72.9899  -88.8917 C   0  0  0  0  0  0  0  0  0  0  0  0
  109.5428  -72.6401  -88.0441 C   0  0  0  0  0  0  0  0  0  0  0  0
  110.2647  -73.4358  -87.1438 C   0  0  0  0  0  0  0  0  0  0  0  0
  112.7640  -80.6780  -87.2390 N   0  3  0  0  0  0  0  0  0  0  0  0
  113.4349  -81.5301  -86.2637 C   0  0  0  0  0  0  0  0  0  0  0  0
  112.7339  -81.3063  -88.5782 C   0  0  0  0  0  0  0  0  0  0  0  0
  111.2422  -74.1309  -80.6665 N   0  0  0  0  0  0  0  0  0  0  0  0
  111.8607  -74.8905  -79.5571 C   0  0  0  0  0  0  0  0  0  0  0  0
  110.8246  -72.7561  -80.2166 C   0  0  0  0  0  0  0  0  0  0  0  0
  1  2  1  0  0  0  0
  1 14  1  0  0  0  0
  1 21  2  0  0  0  0
  2  3  2  0  0  0  0
  3  4  1  0  0  0  0
  3 12  1  0  0  0  0
  4  5  1  0  0  0  0
  5  6  1  0  0  0  0
  5 10  2  0  0  0  0
  6  7  2  0  0  0  0
  7  8  1  0  0  0  0
  7 24  1  0  0  0  0
  8  9  2  0  0  0  0
  9 10  1  0  0  0  0
 10 11  1  0  0  0  0
 11 12  2  0  0  0  0
 11 15  1  0  0  0  0
 12 13  1  0  0  0  0
 13 14  2  0  0  0  0
 15 16  2  0  0  0  0
 15 20  1  0  0  0  0
 16 17  1  0  0  0  0
 17 18  2  0  0  0  0
 18 19  1  0  0  0  0
 19 20  2  0  0  0  0
 21 22  1  0  0  0  0
 21 23  1  0  0  0  0
 24 25  1  0  0  0  0
 24 26  1  0  0  0  0
M  CHG  1  21   1
M  END
>  <CHROM.1>
-5.59394813,-128.03237371,111.02187951,-76.20917549,-85.33469857,-1.23029700
-1.05370901,1.05693051

>  <Name>
1f1t Malachite green aptamer (Xray 2.8A)

>  <RI>
0

>  <Rbt.Current_Directory>
/home/itssahil/PROJECTS/Mol_Feturizer/New_Systems/rnas/1f1t

>  <Rbt.Executable>
rbdock ($Id: //depot/dev/client3/rdock/2013.1/src/exe/rbdock.cxx#4 $)

>  <Rbt.Library>
libRbt.so (2013.1, Build901 2013/11/27)

>  <Rbt.Parameter_File>
/export/apps/rDock/src/rDock_2013.1_src/data/scripts/dock_solv.prm

>  <Rbt.Receptor>
prm/pocket_docking_8.prm

>  <SCORE>
-62.1886

>  <SCORE.INTER>
-62.4586

>  <SCORE.INTER.CONST>
1

>  <SCORE.INTER.POLAR>
0

>  <SCORE.INTER.ROT>
2

>  <SCORE.INTER.SOLV>
11.1511

>  <SCORE.INTER.VDW>
-50.2894

>  <SCORE.INTER.norm>
-2.40225

>  <SCORE.INTRA>
0.270032

>  <SCORE.INTRA.DIHEDRAL>
-1.10591

>  <SCORE.INTRA.DIHEDRAL.0>
4.18538

>  <SCORE.INTRA.POLAR>
0

>  <SCORE.INTRA.POLAR.0>
0

>  <SCORE.INTRA.REPUL>
0

>  <SCORE.INTRA.REPUL.0>
0

>  <SCORE.INTRA.SOLV>
0.0197572

>  <SCORE.INTRA.SOLV.lig_0>
-5.16926

>  <SCORE.INTRA.VDW>
0.813107

>  <SCORE.INTRA.VDW.0>
1.11912

>  <SCORE.INTRA.norm>
0.0103858

>  <SCORE.RESTR>
0

>  <SCORE.RESTR.CAVITY>
0

>  <SCORE.RESTR.norm>
0

>  <SCORE.SYSTEM>
0

>  <SCORE.SYSTEM.CONST>
0

>  <SCORE.SYSTEM.DIHEDRAL>
0

>  <SCORE.SYSTEM.SOLV>
0

>  <SCORE.SYSTEM.norm>
0

>  <SCORE.heavy>
26

>  <SCORE.norm>
-2.39187

>  <RMSD>
6.134

$$$$
1f1t Malachite green aptamer (Xray 2.8A)
 OpenBabel11021811393D
libRbt.so/2013.1/901 2013/11/27
 26 29  0  0  0  0  0  0  0  0999 V2000
  112.2253  -79.4001  -86.9511 C   0  0  0  0  0  0  0  0  0  0  0  0
  112.3503  -78.9392  -85.5763 C   0  0  0  0  0  0  0  0  0  0  0  0
  111.7840  -77.6802  -85.3673 C   0  0  0  0  0  0  0  0  0  0  0  0
  111.9386  -77.2584  -83.9468 O   0  0  0  0  0  0  0  0  0  0  0  0
  111.4092  -76.1122  -83.7628 C   0  0  0  0  0  0  0  0  0  0  0  0
  111.6217  -75.7851  -82.3530 C   0  0  0  0  0  0  0  0  0  0  0  0
  111.0754  -74.5129  -81.9571 C   0  0  0  0  0  0  0  0  0  0  0  0
  110.3833  -73.6650  -82.8569 C   0  0  0  0  0  0  0  0  0  0  0  0
  110.2141  -74.0441  -84.2474 C   0  0  0  0  0  0  0  0  0  0  0  0
  110.7661  -75.3079  -84.6697 C   0  0  0  0  0  0  0  0  0  0  0  0
  110.5595  -75.6172  -86.1338 C   0  0  0  0  0  0  0  0  0  0  0  0
  111.1481  -76.8821  -86.3118 C   0  0  0  0  0  0  0  0  0  0  0  0
  111.0386  -77.3607  -87.6917 C   0  0  0  0  0  0  0  0  0  0  0  0
  111.6080  -78.6492  -87.9325 C   0  0  0  0  0  0  0  0  0  0  0  0
  109.9101  -74.7599  -87.0018 C   0  0  0  0  0  0  0  0  0  0  0  0
  110.2332  -73.3981  -87.2055 C   0  0  0  0  0  0  0  0  0  0  0  0
  109.6000  -72.5230  -88.0899 C   0  0  0  0  0  0  0  0  0  0  0  0
  108.4961  -73.0016  -88.9085 C   0  0  0  0  0  0  0  0  0  0  0  0
  108.1906  -74.3636  -88.6728 C   0  0  0  0  0  0  0  0  0  0  0  0
  108.7946  -75.2748  -87.7955 C   0  0  0  0  0  0  0  0  0  0  0  0
  112.7356  -80.6382  -87.3160 N   0  3  0  0  0  0  0  0  0  0  0  0
  113.3948  -81.5203  -86.3595 C   0  0  0  0  0  0  0  0  0  0  0  0
  112.6953  -81.2378  -88.6680 C   0  0  0  0  0  0  0  0  0  0  0  0
  111.3147  -74.2091  -80.6059 N   0  0  0  0  0  0  0  0  0  0  0  0
  111.9587  -74.9857  -79.5231 C   0  0  0  0  0  0  0  0  0  0  0  0
  110.8742  -72.8555  -80.1153 C   0  0  0  0  0  0  0  0  0  0  0  0
  1  2  1  0  0  0  0
  1 14  1  0  0  0  0
  1 21  2  0  0  0  0
  2  3  2  0  0  0  0
  3  4  1  0  0  0  0
  3 12  1  0  0  0  0
  4  5  1  0  0  0  0
  5  6  1  0  0  0  0
  5 10  2  0  0  0  0
  6  7  2  0  0  0  0
  7  8  1  0  0  0  0
  7 24  1  0  0  0  0
  8  9  2  0  0  0  0
  9 10  1  0  0  0  0
 10 11  1  0  0  0  0
 11 12  2  0  0  0  0
 11 15  1  0  0  0  0
 12 13  1  0  0  0  0
 13 14  2  0  0  0  0
 15 16  2  0  0  0  0
 15 20  1  0  0  0  0
 16 17  1  0  0  0  0
 17 18  2  0  0  0  0
 18 19  1  0  0  0  0
 19 20  2  0  0  0  0
 21 22  1  0  0  0  0
 21 23  1  0  0  0  0
 24 25  1  0  0  0  0
 24 26  1  0  0  0  0
M  CHG  1  21   1
M  END
>  <CHROM.1>
-3.52999200,53.52183928,111.05250118,-76.20212222,-85.32707383,-1.26555288
-1.06104659,1.06166387

>  <Name>
1f1t Malachite green aptamer (Xray 2.8A)

>  <RI>
0

>  <Rbt.Current_Directory>
/home/itssahil/PROJECTS/Mol_Feturizer/New_Systems/rnas/1f1t

>  <Rbt.Executable>
rbdock ($Id: //depot/dev/client3/rdock/2013.1/src/exe/rbdock.cxx#4 $)

>  <Rbt.Library>
libRbt.so (2013.1, Build901 2013/11/27)

>  <Rbt.Parameter_File>
/export/apps/rDock/src/rDock_2013.1_src/data/scripts/dock_solv.prm

>  <Rbt.Receptor>
prm/pocket_docking_8.prm

>  <SCORE>
-63.0651

>  <SCORE.INTER>
-63.1083

>  <SCORE.INTER.CONST>
1

>  <SCORE.INTER.POLAR>
0

>  <SCORE.INTER.ROT>
2

>  <SCORE.INTER.SOLV>
11.137

>  <SCORE.INTER.VDW>
-50.7179

>  <SCORE.INTER.norm>
-2.42724

>  <SCORE.INTRA>
0.0432249

>  <SCORE.INTRA.DIHEDRAL>
-1.05538

>  <SCORE.INTRA.DIHEDRAL.0>
4.18538

>  <SCORE.INTRA.POLAR>
0

>  <SCORE.INTRA.POLAR.0>
0

>  <SCORE.INTRA.REPUL>
0

>  <SCORE.INTRA.REPUL.0>
0

>  <SCORE.INTRA.SOLV>
0.0179755

>  <SCORE.INTRA.SOLV.lig_0>
-5.16926

>  <SCORE.INTRA.VDW>
0.561928

>  <SCORE.INTRA.VDW.0>
1.11912

>  <SCORE.INTRA.norm>
0.0016625

>  <SCORE.RESTR>
0

>  <SCORE.RESTR.CAVITY>
0

>  <SCORE.RESTR.norm>
0

>  <SCORE.SYSTEM>
0

>  <SCORE.SYSTEM.CONST>
0

>  <SCORE.SYSTEM.DIHEDRAL>
0

>  <SCORE.SYSTEM.SOLV>
0

>  <SCORE.SYSTEM.norm>
0

>  <SCORE.heavy>
26

>  <SCORE.norm>
-2.42558

>  <RMSD>
6.134

$$$$
1f1t Malachite green aptamer (Xray 2.8A)
 OpenBabel11021811393D
libRbt.so/2013.1/901 2013/11/27
 26 29  0  0  0  0  0  0  0  0999 V2000
  112.2403  -79.4082  -86.9535 C   0  0  0  0  0  0  0  0  0  0  0  0
  112.3625  -78.9503  -85.5774 C   0  0  0  0  0  0  0  0  0  0  0  0
  111.7978  -77.6908  -85.3673 C   0  0  0  0  0  0  0  0  0  0  0  0
  111.9493  -77.2722  -83.9455 O   0  0  0  0  0  0  0  0  0  0  0  0
  111.4214  -76.1255  -83.7605 C   0  0  0  0  0  0  0  0  0  0  0  0
  111.6308  -75.8017  -82.3494 C   0  0  0  0  0  0  0  0  0  0  0  0
  111.0856  -74.5294  -81.9523 C   0  0  0  0  0  0  0  0  0  0  0  0
  110.3972  -73.6785  -82.8521 C   0  0  0  0  0  0  0  0  0  0  0  0
  110.2310  -74.0544  -84.2438 C   0  0  0  0  0  0  0  0  0  0  0  0
  110.7819  -75.3183  -84.6673 C   0  0  0  0  0  0  0  0  0  0  0  0
  110.5786  -75.6242  -86.1326 C   0  0  0  0  0  0  0  0  0  0  0  0
  111.1656  -76.8897  -86.3118 C   0  0  0  0  0  0  0  0  0  0  0  0
  111.0589  -77.3652  -87.6929 C   0  0  0  0  0  0  0  0  0  0  0  0
  111.6267  -78.6542  -87.9349 C   0  0  0  0  0  0  0  0  0  0  0  0
  109.9328  -74.7640  -87.0005 C   0  0  0  0  0  0  0  0  0  0  0  0
  110.2417  -73.3957  -87.1813 C   0  0  0  0  0  0  0  0  0  0  0  0
  109.6122  -72.5173  -88.0650 C   0  0  0  0  0  0  0  0  0  0  0  0
  108.5285  -72.9991  -88.9083 C   0  0  0  0  0  0  0  0  0  0  0  0
  108.2368  -74.3679  -88.6953 C   0  0  0  0  0  0  0  0  0  0  0  0
  108.8377  -75.2827  -87.8196 C   0  0  0  0  0  0  0  0  0  0  0  0
  112.7495  -80.6463  -87.3197 N   0  3  0  0  0  0  0  0  0  0  0  0
  113.4048  -81.5314  -86.3633 C   0  0  0  0  0  0  0  0  0  0  0  0
  112.7117  -81.2430  -88.6730 C   0  0  0  0  0  0  0  0  0  0  0  0
  111.3219  -74.2288  -80.5999 N   0  0  0  0  0  0  0  0  0  0  0  0
  111.9926  -74.9946  -79.5256 C   0  0  0  0  0  0  0  0  0  0  0  0
  110.8449  -72.8921  -80.0973 C   0  0  0  0  0  0  0  0  0  0  0  0
  1  2  1  0  0  0  0
  1 14  1  0  0  0  0
  1 21  2  0  0  0  0
  2  3  2  0  0  0  0
  3  4  1  0  0  0  0
  3 12  1  0  0  0  0
  4  5  1  0  0  0  0
  5  6  1  0  0  0  0
  5 10  2  0  0  0  0
  6  7  2  0  0  0  0
  7  8  1  0  0  0  0
  7 24  1  0  0  0  0
  8  9  2  0  0  0  0
  9 10  1  0  0  0  0
 10 11  1  0  0  0  0
 11 12  2  0  0  0  0
 11 15  1  0  0  0  0
 12 13  1  0  0  0  0
 13 14  2  0  0  0  0
 15 16  2  0  0  0  0
 15 20  1  0  0  0  0
 16 17  1  0  0  0  0
 17 18  2  0  0  0  0
 18 19  1  0  0  0  0
 19 20  2  0  0  0  0
 21 22  1  0  0  0  0
 21 23  1  0  0  0  0
 24 25  1  0  0  0  0
 24 26  1  0  0  0  0
M  CHG  1  21   1
M  END
>  <CHROM.1>
-1.72004538,52.19969116,111.06847658,-76.21168936,-85.32590617,-1.26239415
-1.06333525,1.06667254

>  <Name>
1f1t Malachite green aptamer (Xray 2.8A)

>  <RI>
0

>  <Rbt.Current_Directory>
/home/itssahil/PROJECTS/Mol_Feturizer/New_Systems/rnas/1f1t

>  <Rbt.Executable>
rbdock ($Id: //depot/dev/client3/rdock/2013.1/src/exe/rbdock.cxx#4 $)

>  <Rbt.Library>
libRbt.so (2013.1, Build901 2013/11/27)

>  <Rbt.Parameter_File>
/export/apps/rDock/src/rDock_2013.1_src/data/scripts/dock_solv.prm

>  <Rbt.Receptor>
prm/pocket_docking_8.prm

>  <SCORE>
-63.013

>  <SCORE.INTER>
-63.059

>  <SCORE.INTER.CONST>
1

>  <SCORE.INTER.POLAR>
0

>  <SCORE.INTER.ROT>
2

>  <SCORE.INTER.SOLV>
11.136

>  <SCORE.INTER.VDW>
-50.6847

>  <SCORE.INTER.norm>
-2.42535

>  <SCORE.INTRA>
0.0460461

>  <SCORE.INTRA.DIHEDRAL>
-1.20131

>  <SCORE.INTRA.DIHEDRAL.0>
4.18538

>  <SCORE.INTRA.POLAR>
0

>  <SCORE.INTRA.POLAR.0>
0

>  <SCORE.INTRA.REPUL>
0

>  <SCORE.INTRA.REPUL.0>
0

>  <SCORE.INTRA.SOLV>
0.0194726

>  <SCORE.INTRA.SOLV.lig_0>
-5.16926

>  <SCORE.INTRA.VDW>
0.636963

>  <SCORE.INTRA.VDW.0>
1.11912

>  <SCORE.INTRA.norm>
0.001771

>  <SCORE.RESTR>
0

>  <SCORE.RESTR.CAVITY>
0

>  <SCORE.RESTR.norm>
0

>  <SCORE.SYSTEM>
0

>  <SCORE.SYSTEM.CONST>
0

>  <SCORE.SYSTEM.DIHEDRAL>
0

>  <SCORE.SYSTEM.SOLV>
0

>  <SCORE.SYSTEM.norm>
0

>  <SCORE.heavy>
26

>  <SCORE.norm>
-2.42358

>  <RMSD>
6.134

$$$$
1f1t Malachite green aptamer (Xray 2.8A)
 OpenBabel11021811393D
libRbt.so/2013.1/901 2013/11/27
 26 29  0  0  0  0  0  0  0  0999 V2000
  112.2298  -79.4033  -86.9524 C   0  0  0  0  0  0  0  0  0  0  0  0
  112.3522  -78.9417  -85.5775 C   0  0  0  0  0  0  0  0  0  0  0  0
  111.7877  -77.6816  -85.3707 C   0  0  0  0  0  0  0  0  0  0  0  0
  111.9395  -77.2593  -83.9500 O   0  0  0  0  0  0  0  0  0  0  0  0
  111.4118  -76.1120  -83.7680 C   0  0  0  0  0  0  0  0  0  0  0  0
  111.6214  -75.7844  -82.3579 C   0  0  0  0  0  0  0  0  0  0  0  0
  111.0764  -74.5110  -81.9641 C   0  0  0  0  0  0  0  0  0  0  0  0
  110.3880  -73.6625  -82.8661 C   0  0  0  0  0  0  0  0  0  0  0  0
  110.2215  -74.0420  -84.2568 C   0  0  0  0  0  0  0  0  0  0  0  0
  110.7723  -75.3071  -84.6770 C   0  0  0  0  0  0  0  0  0  0  0  0
  110.5687  -75.6169  -86.1414 C   0  0  0  0  0  0  0  0  0  0  0  0
  111.1555  -76.8830  -86.3172 C   0  0  0  0  0  0  0  0  0  0  0  0
  111.0486  -77.3622  -87.6970 C   0  0  0  0  0  0  0  0  0  0  0  0
  111.6162  -78.6519  -87.9357 C   0  0  0  0  0  0  0  0  0  0  0  0
  109.9229  -74.7590  -87.0114 C   0  0  0  0  0  0  0  0  0  0  0  0
  110.2284  -73.3899  -87.1920 C   0  0  0  0  0  0  0  0  0  0  0  0
  109.5989  -72.5137  -88.0780 C   0  0  0  0  0  0  0  0  0  0  0  0
  108.5190  -72.9990  -88.9241 C   0  0  0  0  0  0  0  0  0  0  0  0
  108.2306  -74.3685  -88.7113 C   0  0  0  0  0  0  0  0  0  0  0  0
  108.8316  -75.2812  -87.8334 C   0  0  0  0  0  0  0  0  0  0  0  0
  112.7388  -80.6425  -87.3153 N   0  3  0  0  0  0  0  0  0  0  0  0
  113.3941  -81.5252  -86.3566 C   0  0  0  0  0  0  0  0  0  0  0  0
  112.7007  -81.2428  -88.6670 C   0  0  0  0  0  0  0  0  0  0  0  0
  111.3129  -74.2068  -80.6125 N   0  0  0  0  0  0  0  0  0  0  0  0
  111.9685  -74.9769  -79.5320 C   0  0  0  0  0  0  0  0  0  0  0  0
  110.8546  -72.8603  -80.1186 C   0  0  0  0  0  0  0  0  0  0  0  0
  1  2  1  0  0  0  0
  1 14  1  0  0  0  0
  1 21  2  0  0  0  0
  2  3  2  0  0  0  0
  3  4  1  0  0  0  0
  3 12  1  0  0  0  0
  4  5  1  0  0  0  0
  5  6  1  0  0  0  0
  5 10  2  0  0  0  0
  6  7  2  0  0  0  0
  7  8  1  0  0  0  0
  7 24  1  0  0  0  0
  8  9  2  0  0  0  0
  9 10  1  0  0  0  0
 10 11  1  0  0  0  0
 11 12  2  0  0  0  0
 11 15  1  0  0  0  0
 12 13  1  0  0  0  0
 13 14  2  0  0  0  0
 15 16  2  0  0  0  0
 15 20  1  0  0  0  0
 16 17  1  0  0  0  0
 17 18  2  0  0  0  0
 18 19  1  0  0  0  0
 19 20  2  0  0  0  0
 21 22  1  0  0  0  0
 21 23  1  0  0  0  0
 24 25  1  0  0  0  0
 24 26  1  0  0  0  0
M  CHG  1  21   1
M  END
>  <CHROM.1>
-2.61581859,51.92714830,111.05879578,-76.20227179,-85.33324033,-1.26304580
-1.06369116,1.06340695

>  <Name>
1f1t Malachite green aptamer (Xray 2.8A)

>  <RI>
0

>  <Rbt.Current_Directory>
/home/itssahil/PROJECTS/Mol_Feturizer/New_Systems/rnas/1f1t

>  <Rbt.Executable>
rbdock ($Id: //depot/dev/client3/rdock/2013.1/src/exe/rbdock.cxx#4 $)

>  <Rbt.Library>
libRbt.so (2013.1, Build901 2013/11/27)

>  <Rbt.Parameter_File>
/export/apps/rDock/src/rDock_2013.1_src/data/scripts/dock_solv.prm

>  <Rbt.Receptor>
prm/pocket_docking_2.prm

>  <SCORE>
-63.0501

>  <SCORE.INTER>
-63.1053

>  <SCORE.INTER.CONST>
1

>  <SCORE.INTER.POLAR>
0

>  <SCORE.INTER.ROT>
2

>  <SCORE.INTER.SOLV>
11.1609

>  <SCORE.INTER.VDW>
-50.7238

>  <SCORE.INTER.norm>
-2.42713

>  <SCORE.INTRA>
0.0552053

>  <SCORE.INTRA.DIHEDRAL>
-1.2074

>  <SCORE.INTRA.DIHEDRAL.0>
4.18538

>  <SCORE.INTRA.POLAR>
0

>  <SCORE.INTRA.POLAR.0>
0

>  <SCORE.INTRA.REPUL>
0

>  <SCORE.INTRA.REPUL.0>
0

>  <SCORE.INTRA.SOLV>
0.0197736

>  <SCORE.INTRA.SOLV.lig_0>
-5.16926

>  <SCORE.INTRA.VDW>
0.649019

>  <SCORE.INTRA.VDW.0>
1.11912

>  <SCORE.INTRA.norm>
0.00212328

>  <SCORE.RESTR>
0

>  <SCORE.RESTR.CAVITY>
0

>  <SCORE.RESTR.norm>
0

>  <SCORE.SYSTEM>
0

>  <SCORE.SYSTEM.CONST>
0

>  <SCORE.SYSTEM.DIHEDRAL>
0

>  <SCORE.SYSTEM.SOLV>
0

>  <SCORE.SYSTEM.norm>
0

>  <SCORE.heavy>
26

>  <SCORE.norm>
-2.425

>  <RMSD>
6.135

$$$$
1f1t Malachite green aptamer (Xray 2.8A)
 OpenBabel11021811393D
libRbt.so/2013.1/901 2013/11/27
 26 29  0  0  0  0  0  0  0  0999 V2000
  112.2146  -79.3954  -86.9542 C   0  0  0  0  0  0  0  0  0  0  0  0
  112.3407  -78.9357  -85.5791 C   0  0  0  0  0  0  0  0  0  0  0  0
  111.7765  -77.6760  -85.3689 C   0  0  0  0  0  0  0  0  0  0  0  0
  111.9321  -77.2556  -83.9481 O   0  0  0  0  0  0  0  0  0  0  0  0
  111.4046  -76.1087  -83.7631 C   0  0  0  0  0  0  0  0  0  0  0  0
  111.6180  -75.7830  -82.3531 C   0  0  0  0  0  0  0  0  0  0  0  0
  111.0738  -74.5103  -81.9560 C   0  0  0  0  0  0  0  0  0  0  0  0
  110.3828  -73.6606  -82.8550 C   0  0  0  0  0  0  0  0  0  0  0  0
  110.2126  -74.0383  -84.2457 C   0  0  0  0  0  0  0  0  0  0  0  0
  110.7624  -75.3026  -84.6692 C   0  0  0  0  0  0  0  0  0  0  0  0
  110.5549  -75.6105  -86.1335 C   0  0  0  0  0  0  0  0  0  0  0  0
  111.1415  -76.8762  -86.3127 C   0  0  0  0  0  0  0  0  0  0  0  0
  111.0309  -77.3535  -87.6928 C   0  0  0  0  0  0  0  0  0  0  0  0
  111.5982  -78.6427  -87.9349 C   0  0  0  0  0  0  0  0  0  0  0  0
  109.9067  -74.7515  -87.0006 C   0  0  0  0  0  0  0  0  0  0  0  0
  110.2364  -73.3919  -87.2087 C   0  0  0  0  0  0  0  0  0  0  0  0
  109.6043  -72.5152  -88.0923 C   0  0  0  0  0  0  0  0  0  0  0  0
  108.4944  -72.9894  -88.9052 C   0  0  0  0  0  0  0  0  0  0  0  0
  108.1824  -74.3493  -88.6653 C   0  0  0  0  0  0  0  0  0  0  0  0
  108.7851  -75.2619  -87.7886 C   0  0  0  0  0  0  0  0  0  0  0  0
  112.7228  -80.6340  -87.3202 N   0  3  0  0  0  0  0  0  0  0  0  0
  113.3809  -81.5178  -86.3646 C   0  0  0  0  0  0  0  0  0  0  0  0
  112.6812  -81.2324  -88.6727 C   0  0  0  0  0  0  0  0  0  0  0  0
  111.3139  -74.2079  -80.6047 N   0  0  0  0  0  0  0  0  0  0  0  0
  111.9712  -74.9800  -79.5266 C   0  0  0  0  0  0  0  0  0  0  0  0
  110.8584  -72.8615  -80.1081 C   0  0  0  0  0  0  0  0  0  0  0  0
  1  2  1  0  0  0  0
  1 14  1  0  0  0  0
  1 21  2  0  0  0  0
  2  3  2  0  0  0  0
  3  4  1  0  0  0  0
  3 12  1  0  0  0  0
  4  5  1  0  0  0  0
  5  6  1  0  0  0  0
  5 10  2  0  0  0  0
  6  7  2  0  0  0  0
  7  8  1  0  0  0  0
  7 24  1  0  0  0  0
  8  9  2  0  0  0  0
  9 10  1  0  0  0  0
 10 11  1  0  0  0  0
 11 12  2  0  0  0  0
 11 15  1  0  0  0  0
 12 13  1  0  0  0  0
 13 14  2  0  0  0  0
 15 16  2  0  0  0  0
 15 20  1  0  0  0  0
 16 17  1  0  0  0  0
 17 18  2  0  0  0  0
 18 19  1  0  0  0  0
 19 20  2  0  0  0  0
 21 22  1  0  0  0  0
 21 23  1  0  0  0  0
 24 25  1  0  0  0  0
 24 26  1  0  0  0  0
M  CHG  1  21   1
M  END
>  <CHROM.1>
-2.69694869,53.88159505,111.04708600,-76.19685354,-85.32726630,-1.26732237
-1.06199309,1.06090313

>  <Name>
1f1t Malachite green aptamer (Xray 2.8A)

>  <RI>
0

>  <Rbt.Current_Directory>
/home/itssahil/PROJECTS/Mol_Feturizer/New_Systems/rnas/1f1t

>  <Rbt.Executable>
rbdock ($Id: //depot/dev/client3/rdock/2013.1/src/exe/rbdock.cxx#4 $)

>  <Rbt.Library>
libRbt.so (2013.1, Build901 2013/11/27)

>  <Rbt.Parameter_File>
/export/apps/rDock/src/rDock_2013.1_src/data/scripts/dock_solv.prm

>  <Rbt.Receptor>
prm/pocket_docking_2.prm

>  <SCORE>
-63.0935

>  <SCORE.INTER>
-63.1265

>  <SCORE.INTER.CONST>
1

>  <SCORE.INTER.POLAR>
0

>  <SCORE.INTER.ROT>
2

>  <SCORE.INTER.SOLV>
11.1405

>  <SCORE.INTER.VDW>
-50.7312

>  <SCORE.INTER.norm>
-2.42794

>  <SCORE.INTRA>
0.0329853

>  <SCORE.INTRA.DIHEDRAL>
-1.04762

>  <SCORE.INTRA.DIHEDRAL.0>
4.18538

>  <SCORE.INTRA.POLAR>
0

>  <SCORE.INTRA.POLAR.0>
0

>  <SCORE.INTRA.REPUL>
0

>  <SCORE.INTRA.REPUL.0>
0

>  <SCORE.INTRA.SOLV>
0.0175726

>  <SCORE.INTRA.SOLV.lig_0>
-5.16926

>  <SCORE.INTRA.VDW>
0.548007

>  <SCORE.INTRA.VDW.0>
1.11912

>  <SCORE.INTRA.norm>
0.00126867

>  <SCORE.RESTR>
0

>  <SCORE.RESTR.CAVITY>
0

>  <SCORE.RESTR.norm>
0

>  <SCORE.SYSTEM>
0

>  <SCORE.SYSTEM.CONST>
0

>  <SCORE.SYSTEM.DIHEDRAL>
0

>  <SCORE.SYSTEM.SOLV>
0

>  <SCORE.SYSTEM.norm>
0

>  <SCORE.heavy>
26

>  <SCORE.norm>
-2.42667

>  <RMSD>
6.135

$$$$
1f1t Malachite green aptamer (Xray 2.8A)
 OpenBabel11021811393D
libRbt.so/2013.1/901 2013/11/27
 26 29  0  0  0  0  0  0  0  0999 V2000
  112.2150  -79.3933  -86.9497 C   0  0  0  0  0  0  0  0  0  0  0  0
  112.3413  -78.9341  -85.5744 C   0  0  0  0  0  0  0  0  0  0  0  0
  111.7767  -77.6747  -85.3637 C   0  0  0  0  0  0  0  0  0  0  0  0
  111.9325  -77.2548  -83.9428 O   0  0  0  0  0  0  0  0  0  0  0  0
  111.4047  -76.1081  -83.7571 C   0  0  0  0  0  0  0  0  0  0  0  0
  111.6183  -75.7829  -82.3471 C   0  0  0  0  0  0  0  0  0  0  0  0
  111.0737  -74.5105  -81.9494 C   0  0  0  0  0  0  0  0  0  0  0  0
  110.3822  -73.6607  -82.8479 C   0  0  0  0  0  0  0  0  0  0  0  0
  110.2118  -74.0379  -84.2387 C   0  0  0  0  0  0  0  0  0  0  0  0
  110.7620  -75.3020  -84.6628 C   0  0  0  0  0  0  0  0  0  0  0  0
  110.5542  -75.6093  -86.1271 C   0  0  0  0  0  0  0  0  0  0  0  0
  111.1412  -76.8748  -86.3069 C   0  0  0  0  0  0  0  0  0  0  0  0
  111.0305  -77.3516  -87.6873 C   0  0  0  0  0  0  0  0  0  0  0  0
  111.5981  -78.6405  -87.9299 C   0  0  0  0  0  0  0  0  0  0  0  0
  109.9054  -74.7503  -86.9938 C   0  0  0  0  0  0  0  0  0  0  0  0
  110.2358  -73.3910  -87.2028 C   0  0  0  0  0  0  0  0  0  0  0  0
  109.6032  -72.5142  -88.0860 C   0  0  0  0  0  0  0  0  0  0  0  0
  108.4919  -72.9880  -88.8973 C   0  0  0  0  0  0  0  0  0  0  0  0
  108.1794  -74.3475  -88.6565 C   0  0  0  0  0  0  0  0  0  0  0  0
  108.7825  -75.2602  -87.7801 C   0  0  0  0  0  0  0  0  0  0  0  0
  112.7236  -80.6316  -87.3163 N   0  3  0  0  0  0  0  0  0  0  0  0
  113.3823  -81.5156  -86.3612 C   0  0  0  0  0  0  0  0  0  0  0  0
  112.6819  -81.2296  -88.6690 C   0  0  0  0  0  0  0  0  0  0  0  0
  111.3141  -74.2085  -80.5980 N   0  0  0  0  0  0  0  0  0  0  0  0
  111.9651  -74.9839  -79.5185 C   0  0  0  0  0  0  0  0  0  0  0  0
  110.8666  -72.8588  -80.1031 C   0  0  0  0  0  0  0  0  0  0  0  0
  1  2  1  0  0  0  0
  1 14  1  0  0  0  0
  1 21  2  0  0  0  0
  2  3  2  0  0  0  0
  3  4  1  0  0  0  0
  3 12  1  0  0  0  0
  4  5  1  0  0  0  0
  5  6  1  0  0  0  0
  5 10  2  0  0  0  0
  6  7  2  0  0  0  0
  7  8  1  0  0  0  0
  7 24  1  0  0  0  0
  8  9  2  0  0  0  0
  9 10  1  0  0  0  0
 10 11  1  0  0  0  0
 11 12  2  0  0  0  0
 11 15  1  0  0  0  0
 12 13  1  0  0  0  0
 13 14  2  0  0  0  0
 15 16  2  0  0  0  0
 15 20  1  0  0  0  0
 16 17  1  0  0  0  0
 17 18  2  0  0  0  0
 18 19  1  0  0  0  0
 19 20  2  0  0  0  0
 21 22  1  0  0  0  0
 21 23  1  0  0  0  0
 24 25  1  0  0  0  0
 24 26  1  0  0  0  0
M  CHG  1  21   1
M  END
>  <CHROM.1>
-3.10035879,53.97608218,111.04684928,-76.19580483,-85.32127989,-1.26749771
-1.06166714,1.06110105

>  <Name>
1f1t Malachite green aptamer (Xray 2.8A)

>  <RI>
0

>  <Rbt.Current_Directory>
/home/itssahil/PROJECTS/Mol_Feturizer/New_Systems/rnas/1f1t

>  <Rbt.Executable>
rbdock ($Id: //depot/dev/client3/rdock/2013.1/src/exe/rbdock.cxx#4 $)

>  <Rbt.Library>
libRbt.so (2013.1, Build901 2013/11/27)

>  <Rbt.Parameter_File>
/export/apps/rDock/src/rDock_2013.1_src/data/scripts/dock_solv.prm

>  <Rbt.Receptor>
prm/pocket_docking_2.prm

>  <SCORE>
-63.105

>  <SCORE.INTER>
-63.138

>  <SCORE.INTER.CONST>
1

>  <SCORE.INTER.POLAR>
0

>  <SCORE.INTER.ROT>
2

>  <SCORE.INTER.SOLV>
11.132

>  <SCORE.INTER.VDW>
-50.736

>  <SCORE.INTER.norm>
-2.42838

>  <SCORE.INTRA>
0.0330031

>  <SCORE.INTRA.DIHEDRAL>
-1.03051

>  <SCORE.INTRA.DIHEDRAL.0>
4.18538

>  <SCORE.INTRA.POLAR>
0

>  <SCORE.INTRA.POLAR.0>
0

>  <SCORE.INTRA.REPUL>
0

>  <SCORE.INTRA.REPUL.0>
0

>  <SCORE.INTRA.SOLV>
0.0174632

>  <SCORE.INTRA.SOLV.lig_0>
-5.16926

>  <SCORE.INTRA.VDW>
0.539526

>  <SCORE.INTRA.VDW.0>
1.11912

>  <SCORE.INTRA.norm>
0.00126935

>  <SCORE.RESTR>
0

>  <SCORE.RESTR.CAVITY>
0

>  <SCORE.RESTR.norm>
0

>  <SCORE.SYSTEM>
0

>  <SCORE.SYSTEM.CONST>
0

>  <SCORE.SYSTEM.DIHEDRAL>
0

>  <SCORE.SYSTEM.SOLV>
0

>  <SCORE.SYSTEM.norm>
0

>  <SCORE.heavy>
26

>  <SCORE.norm>
-2.42711

>  <RMSD>
6.135

$$$$
1f1t Malachite green aptamer (Xray 2.8A)
 OpenBabel11021811393D
libRbt.so/2013.1/901 2013/11/27
 26 29  0  0  0  0  0  0  0  0999 V2000
  112.2156  -79.4013  -86.9521 C   0  0  0  0  0  0  0  0  0  0  0  0
  112.3439  -78.9397  -85.5777 C   0  0  0  0  0  0  0  0  0  0  0  0
  111.7805  -77.6795  -85.3685 C   0  0  0  0  0  0  0  0  0  0  0  0
  111.9382  -77.2571  -83.9486 O   0  0  0  0  0  0  0  0  0  0  0  0
  111.4114  -76.1098  -83.7644 C   0  0  0  0  0  0  0  0  0  0  0  0
  111.6270  -75.7822  -82.3551 C   0  0  0  0  0  0  0  0  0  0  0  0
  111.0838  -74.5087  -81.9591 C   0  0  0  0  0  0  0  0  0  0  0  0
  110.3919  -73.6601  -82.8583 C   0  0  0  0  0  0  0  0  0  0  0  0
  110.2195  -74.0396  -84.2482 C   0  0  0  0  0  0  0  0  0  0  0  0
  110.7683  -75.3048  -84.6707 C   0  0  0  0  0  0  0  0  0  0  0  0
  110.5586  -75.6146  -86.1342 C   0  0  0  0  0  0  0  0  0  0  0  0
  111.1444  -76.8808  -86.3125 C   0  0  0  0  0  0  0  0  0  0  0  0
  111.0317  -77.3600  -87.6918 C   0  0  0  0  0  0  0  0  0  0  0  0
  111.5981  -78.6498  -87.9328 C   0  0  0  0  0  0  0  0  0  0  0  0
  109.9094  -74.7566  -87.0016 C   0  0  0  0  0  0  0  0  0  0  0  0
  110.2346  -73.3955  -87.2066 C   0  0  0  0  0  0  0  0  0  0  0  0
  109.6016  -72.5197  -88.0904 C   0  0  0  0  0  0  0  0  0  0  0  0
  108.4956  -72.9966  -88.9071 C   0  0  0  0  0  0  0  0  0  0  0  0
  108.1881  -74.3580  -88.6702 C   0  0  0  0  0  0  0  0  0  0  0  0
  108.7918  -75.2699  -87.7934 C   0  0  0  0  0  0  0  0  0  0  0  0
  112.7229  -80.6406  -87.3170 N   0  3  0  0  0  0  0  0  0  0  0  0
  113.3820  -81.5233  -86.3611 C   0  0  0  0  0  0  0  0  0  0  0  0
  112.6791  -81.2409  -88.6686 C   0  0  0  0  0  0  0  0  0  0  0  0
  111.3260  -74.2045  -80.6085 N   0  0  0  0  0  0  0  0  0  0  0  0
  111.9629  -74.9850  -79.5243 C   0  0  0  0  0  0  0  0  0  0  0  0
  110.8980  -72.8460  -80.1204 C   0  0  0  0  0  0  0  0  0  0  0  0
  1  2  1  0  0  0  0
  1 14  1  0  0  0  0
  1 21  2  0  0  0  0
  2  3  2  0  0  0  0
  3  4  1  0  0  0  0
  3 12  1  0  0  0  0
  4  5  1  0  0  0  0
  5  6  1  0  0  0  0
  5 10  2  0  0  0  0
  6  7  2  0  0  0  0
  7  8  1  0  0  0  0
  7 24  1  0  0  0  0
  8  9  2  0  0  0  0
  9 10  1  0  0  0  0
 10 11  1  0  0  0  0
 11 12  2  0  0  0  0
 11 15  1  0  0  0  0
 12 13  1  0  0  0  0
 13 14  2  0  0  0  0
 15 16  2  0  0  0  0
 15 20  1  0  0  0  0
 16 17  1  0  0  0  0
 17 18  2  0  0  0  0
 18 19  1  0  0  0  0
 19 20  2  0  0  0  0
 21 22  1  0  0  0  0
 21 23  1  0  0  0  0
 24 25  1  0  0  0  0
 24 26  1  0  0  0  0
M  CHG  1  21   1
M  END
>  <CHROM.1>
-3.96096067,53.50781402,111.05194040,-76.19995201,-85.32799820,-1.27068136
-1.06204942,1.05655629

>  <Name>
1f1t Malachite green aptamer (Xray 2.8A)

>  <RI>
0

>  <Rbt.Current_Directory>
/home/itssahil/PROJECTS/Mol_Feturizer/New_Systems/rnas/1f1t

>  <Rbt.Executable>
rbdock ($Id: //depot/dev/client3/rdock/2013.1/src/exe/rbdock.cxx#4 $)

>  <Rbt.Library>
libRbt.so (2013.1, Build901 2013/11/27)

>  <Rbt.Parameter_File>
/export/apps/rDock/src/rDock_2013.1_src/data/scripts/dock_solv.prm

>  <Rbt.Receptor>
prm/pocket_docking_2.prm

>  <SCORE>
-63.1214

>  <SCORE.INTER>
-63.1672

>  <SCORE.INTER.CONST>
1

>  <SCORE.INTER.POLAR>
0

>  <SCORE.INTER.ROT>
2

>  <SCORE.INTER.SOLV>
11.1408

>  <SCORE.INTER.VDW>
-50.7584

>  <SCORE.INTER.norm>
-2.42951

>  <SCORE.INTRA>
0.0457814

>  <SCORE.INTRA.DIHEDRAL>
-1.04349

>  <SCORE.INTRA.DIHEDRAL.0>
4.18538

>  <SCORE.INTRA.POLAR>
0

>  <SCORE.INTRA.POLAR.0>
0

>  <SCORE.INTRA.REPUL>
0

>  <SCORE.INTRA.REPUL.0>
0

>  <SCORE.INTRA.SOLV>
0.0179885

>  <SCORE.INTRA.SOLV.lig_0>
-5.16926

>  <SCORE.INTRA.VDW>
0.558532

>  <SCORE.INTRA.VDW.0>
1.11912

>  <SCORE.INTRA.norm>
0.00176082

>  <SCORE.RESTR>
0

>  <SCORE.RESTR.CAVITY>
0

>  <SCORE.RESTR.norm>
0

>  <SCORE.SYSTEM>
0

>  <SCORE.SYSTEM.CONST>
0

>  <SCORE.SYSTEM.DIHEDRAL>
0

>  <SCORE.SYSTEM.SOLV>
0

>  <SCORE.SYSTEM.norm>
0

>  <SCORE.heavy>
26

>  <SCORE.norm>
-2.42775

>  <RMSD>
6.135

$$$$
1f1t Malachite green aptamer (Xray 2.8A)
 OpenBabel11021811393D
libRbt.so/2013.1/901 2013/11/27
 26 29  0  0  0  0  0  0  0  0999 V2000
  112.2200  -79.3982  -86.9619 C   0  0  0  0  0  0  0  0  0  0  0  0
  112.3492  -78.9398  -85.5866 C   0  0  0  0  0  0  0  0  0  0  0  0
  111.7844  -77.6808  -85.3737 C   0  0  0  0  0  0  0  0  0  0  0  0
  111.9432  -77.2616  -83.9530 O   0  0  0  0  0  0  0  0  0  0  0  0
  111.4152  -76.1154  -83.7654 C   0  0  0  0  0  0  0  0  0  0  0  0
  111.6319  -75.7909  -82.3557 C   0  0  0  0  0  0  0  0  0  0  0  0
  111.0875  -74.5191  -81.9560 C   0  0  0  0  0  0  0  0  0  0  0  0
  110.3934  -73.6692  -82.8523 C   0  0  0  0  0  0  0  0  0  0  0  0
  110.2199  -74.0457  -84.2429 C   0  0  0  0  0  0  0  0  0  0  0  0
  110.7699  -75.3091  -84.6691 C   0  0  0  0  0  0  0  0  0  0  0  0
  110.5589  -75.6157  -86.1331 C   0  0  0  0  0  0  0  0  0  0  0  0
  111.1462  -76.8807  -86.3150 C   0  0  0  0  0  0  0  0  0  0  0  0
  111.0325  -77.3568  -87.6954 C   0  0  0  0  0  0  0  0  0  0  0  0
  111.6003  -78.6452  -87.9401 C   0  0  0  0  0  0  0  0  0  0  0  0
  109.9075  -74.7565  -86.9977 C   0  0  0  0  0  0  0  0  0  0  0  0
  110.2145  -73.3881  -87.1813 C   0  0  0  0  0  0  0  0  0  0  0  0
  109.5793  -72.5107  -88.0618 C   0  0  0  0  0  0  0  0  0  0  0  0
  108.4909  -72.9937  -88.8984 C   0  0  0  0  0  0  0  0  0  0  0  0
  108.2012  -74.3625  -88.6827 C   0  0  0  0  0  0  0  0  0  0  0  0
  108.8078  -75.2764  -87.8100 C   0  0  0  0  0  0  0  0  0  0  0  0
  112.7285  -80.6360  -87.3304 N   0  3  0  0  0  0  0  0  0  0  0  0
  113.3899  -81.5201  -86.3774 C   0  0  0  0  0  0  0  0  0  0  0  0
  112.6839  -81.2331  -88.6833 C   0  0  0  0  0  0  0  0  0  0  0  0
  111.3309  -74.2178  -80.6050 N   0  0  0  0  0  0  0  0  0  0  0  0
  111.9884  -74.9918  -79.5285 C   0  0  0  0  0  0  0  0  0  0  0  0
  110.8793  -72.8705  -80.1070 C   0  0  0  0  0  0  0  0  0  0  0  0
  1  2  1  0  0  0  0
  1 14  1  0  0  0  0
  1 21  2  0  0  0  0
  2  3  2  0  0  0  0
  3  4  1  0  0  0  0
  3 12  1  0  0  0  0
  4  5  1  0  0  0  0
  5  6  1  0  0  0  0
  5 10  2  0  0  0  0
  6  7  2  0  0  0  0
  7  8  1  0  0  0  0
  7 24  1  0  0  0  0
  8  9  2  0  0  0  0
  9 10  1  0  0  0  0
 10 11  1  0  0  0  0
 11 12  2  0  0  0  0
 11 15  1  0  0  0  0
 12 13  1  0  0  0  0
 13 14  2  0  0  0  0
 15 16  2  0  0  0  0
 15 20  1  0  0  0  0
 16 17  1  0  0  0  0
 17 18  2  0  0  0  0
 18 19  1  0  0  0  0
 19 20  2  0  0  0  0
 21 22  1  0  0  0  0
 21 23  1  0  0  0  0
 24 25  1  0  0  0  0
 24 26  1  0  0  0  0
M  CHG  1  21   1
M  END
>  <CHROM.1>
-2.88777205,52.24286753,111.05394146,-76.20238295,-85.32894069,-1.27142092
-1.06012345,1.05841781

>  <Name>
1f1t Malachite green aptamer (Xray 2.8A)

>  <RI>
0

>  <Rbt.Current_Directory>
/home/itssahil/PROJECTS/Mol_Feturizer/New_Systems/rnas/1f1t

>  <Rbt.Executable>
rbdock ($Id: //depot/dev/client3/rdock/2013.1/src/exe/rbdock.cxx#4 $)

>  <Rbt.Library>
libRbt.so (2013.1, Build901 2013/11/27)

>  <Rbt.Parameter_File>
/export/apps/rDock/src/rDock_2013.1_src/data/scripts/dock_solv.prm

>  <Rbt.Receptor>
prm/pocket_docking_3.prm

>  <SCORE>
-63.069

>  <SCORE.INTER>
-63.118

>  <SCORE.INTER.CONST>
1

>  <SCORE.INTER.POLAR>
0

>  <SCORE.INTER.ROT>
2

>  <SCORE.INTER.SOLV>
11.1316

>  <SCORE.INTER.VDW>
-50.7225

>  <SCORE.INTER.norm>
-2.42761

>  <SCORE.INTRA>
0.0489285

>  <SCORE.INTRA.DIHEDRAL>
-1.17556

>  <SCORE.INTRA.DIHEDRAL.0>
4.18538

>  <SCORE.INTRA.POLAR>
0

>  <SCORE.INTRA.POLAR.0>
0

>  <SCORE.INTRA.REPUL>
0

>  <SCORE.INTRA.REPUL.0>
0

>  <SCORE.INTRA.SOLV>
0.019419

>  <SCORE.INTRA.SOLV.lig_0>
-5.16926

>  <SCORE.INTRA.VDW>
0.626999

>  <SCORE.INTRA.VDW.0>
1.11912

>  <SCORE.INTRA.norm>
0.00188187

>  <SCORE.RESTR>
0

>  <SCORE.RESTR.CAVITY>
0

>  <SCORE.RESTR.norm>
0

>  <SCORE.SYSTEM>
0

>  <SCORE.SYSTEM.CONST>
0

>  <SCORE.SYSTEM.DIHEDRAL>
0

>  <SCORE.SYSTEM.SOLV>
0

>  <SCORE.SYSTEM.norm>
0

>  <SCORE.heavy>
26

>  <SCORE.norm>
-2.42573

>  <RMSD>
6.135

$$$$
1f1t Malachite green aptamer (Xray 2.8A)
 OpenBabel11021811393D
libRbt.so/2013.1/901 2013/11/27
 26 29  0  0  0  0  0  0  0  0999 V2000
  112.2302  -79.4113  -86.9497 C   0  0  0  0  0  0  0  0  0  0  0  0
  112.3558  -78.9476  -85.5758 C   0  0  0  0  0  0  0  0  0  0  0  0
  111.7923  -77.6869  -85.3697 C   0  0  0  0  0  0  0  0  0  0  0  0
  111.9473  -77.2624  -83.9501 O   0  0  0  0  0  0  0  0  0  0  0  0
  111.4205  -76.1145  -83.7688 C   0  0  0  0  0  0  0  0  0  0  0  0
  111.6333  -75.7848  -82.3596 C   0  0  0  0  0  0  0  0  0  0  0  0
  111.0897  -74.5106  -81.9667 C   0  0  0  0  0  0  0  0  0  0  0  0
  110.3999  -73.6631  -82.8686 C   0  0  0  0  0  0  0  0  0  0  0  0
  110.2302  -74.0447  -84.2583 C   0  0  0  0  0  0  0  0  0  0  0  0
  110.7795  -75.3107  -84.6776 C   0  0  0  0  0  0  0  0  0  0  0  0
  110.5726  -75.6228  -86.1412 C   0  0  0  0  0  0  0  0  0  0  0  0
  111.1584  -76.8894  -86.3162 C   0  0  0  0  0  0  0  0  0  0  0  0
  111.0484  -77.3707  -87.6951 C   0  0  0  0  0  0  0  0  0  0  0  0
  111.6149  -78.6611  -87.9329 C   0  0  0  0  0  0  0  0  0  0  0  0
  109.9255  -74.7659  -87.0112 C   0  0  0  0  0  0  0  0  0  0  0  0
  110.2289  -73.3964  -87.1920 C   0  0  0  0  0  0  0  0  0  0  0  0
  109.5979  -72.5212  -88.0779 C   0  0  0  0  0  0  0  0  0  0  0  0
  108.5186  -73.0082  -88.9238 C   0  0  0  0  0  0  0  0  0  0  0  0
  108.2322  -74.3781  -88.7108 C   0  0  0  0  0  0  0  0  0  0  0  0
  108.8347  -75.2898  -87.8329 C   0  0  0  0  0  0  0  0  0  0  0  0
  112.7378  -80.6513  -87.3117 N   0  3  0  0  0  0  0  0  0  0  0  0
  113.3947  -81.5327  -86.3531 C   0  0  0  0  0  0  0  0  0  0  0  0
  112.6965  -81.2537  -88.6624 C   0  0  0  0  0  0  0  0  0  0  0  0
  111.3293  -74.2043  -80.6161 N   0  0  0  0  0  0  0  0  0  0  0  0
  111.9707  -74.9802  -79.5313 C   0  0  0  0  0  0  0  0  0  0  0  0
  110.8921  -72.8485  -80.1287 C   0  0  0  0  0  0  0  0  0  0  0  0
  1  2  1  0  0  0  0
  1 14  1  0  0  0  0
  1 21  2  0  0  0  0
  2  3  2  0  0  0  0
  3  4  1  0  0  0  0
  3 12  1  0  0  0  0
  4  5  1  0  0  0  0
  5  6  1  0  0  0  0
  5 10  2  0  0  0  0
  6  7  2  0  0  0  0
  7  8  1  0  0  0  0
  7 24  1  0  0  0  0
  8  9  2  0  0  0  0
  9 10  1  0  0  0  0
 10 11  1  0  0  0  0
 11 12  2  0  0  0  0
 11 15  1  0  0  0  0
 12 13  1  0  0  0  0
 13 14  2  0  0  0  0
 15 16  2  0  0  0  0
 15 20  1  0  0  0  0
 16 17  1  0  0  0  0
 17 18  2  0  0  0  0
 18 19  1  0  0  0  0
 19 20  2  0  0  0  0
 21 22  1  0  0  0  0
 21 23  1  0  0  0  0
 24 25  1  0  0  0  0
 24 26  1  0  0  0  0
M  CHG  1  21   1
M  END
>  <CHROM.1>
-3.55036025,51.74886972,111.06435008,-76.20704757,-85.33317476,-1.26760882
-1.06339163,1.05783095

>  <Name>
1f1t Malachite green aptamer (Xray 2.8A)

>  <RI>
0

>  <Rbt.Current_Directory>
/home/itssahil/PROJECTS/Mol_Feturizer/New_Systems/rnas/1f1t

>  <Rbt.Executable>
rbdock ($Id: //depot/dev/client3/rdock/2013.1/src/exe/rbdock.cxx#4 $)

>  <Rbt.Library>
libRbt.so (2013.1, Build901 2013/11/27)

>  <Rbt.Parameter_File>
/export/apps/rDock/src/rDock_2013.1_src/data/scripts/dock_solv.prm

>  <Rbt.Receptor>
prm/pocket_docking_3.prm

>  <SCORE>
-63.0822

>  <SCORE.INTER>
-63.1458

>  <SCORE.INTER.CONST>
1

>  <SCORE.INTER.POLAR>
0

>  <SCORE.INTER.ROT>
2

>  <SCORE.INTER.SOLV>
11.1574

>  <SCORE.INTER.VDW>
-50.7497

>  <SCORE.INTER.norm>
-2.42869

>  <SCORE.INTRA>
0.0636139

>  <SCORE.INTRA.DIHEDRAL>
-1.19851

>  <SCORE.INTRA.DIHEDRAL.0>
4.18538

>  <SCORE.INTRA.POLAR>
0

>  <SCORE.INTRA.POLAR.0>
0

>  <SCORE.INTRA.REPUL>
0

>  <SCORE.INTRA.REPUL.0>
0

>  <SCORE.INTRA.SOLV>
0.0199674

>  <SCORE.INTRA.SOLV.lig_0>
-5.16926

>  <SCORE.INTRA.VDW>
0.652885

>  <SCORE.INTRA.VDW.0>
1.11912

>  <SCORE.INTRA.norm>
0.00244669

>  <SCORE.RESTR>
0

>  <SCORE.RESTR.CAVITY>
0

>  <SCORE.RESTR.norm>
0

>  <SCORE.SYSTEM>
0

>  <SCORE.SYSTEM.CONST>
0

>  <SCORE.SYSTEM.DIHEDRAL>
0

>  <SCORE.SYSTEM.SOLV>
0

>  <SCORE.SYSTEM.norm>
0

>  <SCORE.heavy>
26

>  <SCORE.norm>
-2.42624

>  <RMSD>
6.135

$$$$
1f1t Malachite green aptamer (Xray 2.8A)
 OpenBabel11021811393D
libRbt.so/2013.1/901 2013/11/27
 26 29  0  0  0  0  0  0  0  0999 V2000
  112.2079  -79.4022  -86.9675 C   0  0  0  0  0  0  0  0  0  0  0  0
  112.3415  -78.9434  -85.5927 C   0  0  0  0  0  0  0  0  0  0  0  0
  111.7806  -77.6827  -85.3793 C   0  0  0  0  0  0  0  0  0  0  0  0
  111.9438  -77.2632  -83.9591 O   0  0  0  0  0  0  0  0  0  0  0  0
  111.4194  -76.1154  -83.7710 C   0  0  0  0  0  0  0  0  0  0  0  0
  111.6401  -75.7908  -82.3619 C   0  0  0  0  0  0  0  0  0  0  0  0
  111.1002  -74.5172  -81.9617 C   0  0  0  0  0  0  0  0  0  0  0  0
  110.4066  -73.6658  -82.8570 C   0  0  0  0  0  0  0  0  0  0  0  0
  110.2290  -74.0425  -84.2470 C   0  0  0  0  0  0  0  0  0  0  0  0
  110.7744  -75.3078  -84.6737 C   0  0  0  0  0  0  0  0  0  0  0  0
  110.5594  -75.6145  -86.1371 C   0  0  0  0  0  0  0  0  0  0  0  0
  111.1427  -76.8813  -86.3196 C   0  0  0  0  0  0  0  0  0  0  0  0
  111.0247  -77.3577  -87.6995 C   0  0  0  0  0  0  0  0  0  0  0  0
  111.5883  -78.6479  -87.9448 C   0  0  0  0  0  0  0  0  0  0  0  0
  109.9086  -74.7539  -87.0007 C   0  0  0  0  0  0  0  0  0  0  0  0
  110.2311  -73.3912  -87.1994 C   0  0  0  0  0  0  0  0  0  0  0  0
  109.5964  -72.5127  -88.0794 C   0  0  0  0  0  0  0  0  0  0  0  0
  108.4916  -72.9883  -88.8985 C   0  0  0  0  0  0  0  0  0  0  0  0
  108.1868  -74.3513  -88.6679 C   0  0  0  0  0  0  0  0  0  0  0  0
  108.7922  -75.2659  -87.7951 C   0  0  0  0  0  0  0  0  0  0  0  0
  112.7121  -80.6416  -87.3364 N   0  3  0  0  0  0  0  0  0  0  0  0
  113.3731  -81.5271  -86.3844 C   0  0  0  0  0  0  0  0  0  0  0  0
  112.6629  -81.2393  -88.6890 C   0  0  0  0  0  0  0  0  0  0  0  0
  111.3474  -74.2159  -80.6114 N   0  0  0  0  0  0  0  0  0  0  0  0
  112.0012  -74.9929  -79.5348 C   0  0  0  0  0  0  0  0  0  0  0  0
  110.9053  -72.8651  -80.1144 C   0  0  0  0  0  0  0  0  0  0  0  0
  1  2  1  0  0  0  0
  1 14  1  0  0  0  0
  1 21  2  0  0  0  0
  2  3  2  0  0  0  0
  3  4  1  0  0  0  0
  3 12  1  0  0  0  0
  4  5  1  0  0  0  0
  5  6  1  0  0  0  0
  5 10  2  0  0  0  0
  6  7  2  0  0  0  0
  7  8  1  0  0  0  0
  7 24  1  0  0  0  0
  8  9  2  0  0  0  0
  9 10  1  0  0  0  0
 10 11  1  0  0  0  0
 11 12  2  0  0  0  0
 11 15  1  0  0  0  0
 12 13  1  0  0  0  0
 13 14  2  0  0  0  0
 15 16  2  0  0  0  0
 15 20  1  0  0  0  0
 16 17  1  0  0  0  0
 17 18  2  0  0  0  0
 18 19  1  0  0  0  0
 19 20  2  0  0  0  0
 21 22  1  0  0  0  0
 21 23  1  0  0  0  0
 24 25  1  0  0  0  0
 24 26  1  0  0  0  0
M  CHG  1  21   1
M  END
>  <CHROM.1>
-3.11180477,53.18024400,111.05442994,-76.20217415,-85.33360122,-1.27801734
-1.06149623,1.05205388

>  <Name>
1f1t Malachite green aptamer (Xray 2.8A)

>  <RI>
0

>  <Rbt.Current_Directory>
/home/itssahil/PROJECTS/Mol_Feturizer/New_Systems/rnas/1f1t

>  <Rbt.Executable>
rbdock ($Id: //depot/dev/client3/rdock/2013.1/src/exe/rbdock.cxx#4 $)

>  <Rbt.Library>
libRbt.so (2013.1, Build901 2013/11/27)

>  <Rbt.Parameter_File>
/export/apps/rDock/src/rDock_2013.1_src/data/scripts/dock_solv.prm

>  <Rbt.Receptor>
prm/pocket_docking_3.prm

>  <SCORE>
-63.0302

>  <SCORE.INTER>
-63.078

>  <SCORE.INTER.CONST>
1

>  <SCORE.INTER.POLAR>
0

>  <SCORE.INTER.ROT>
2

>  <SCORE.INTER.SOLV>
11.141

>  <SCORE.INTER.VDW>
-50.699

>  <SCORE.INTER.norm>
-2.42608

>  <SCORE.INTRA>
0.0478382

>  <SCORE.INTRA.DIHEDRAL>
-1.09415

>  <SCORE.INTRA.DIHEDRAL.0>
4.18538

>  <SCORE.INTRA.POLAR>
0

>  <SCORE.INTRA.POLAR.0>
0

>  <SCORE.INTRA.REPUL>
0

>  <SCORE.INTRA.REPUL.0>
0

>  <SCORE.INTRA.SOLV>
0.0183639

>  <SCORE.INTRA.SOLV.lig_0>
-5.16926

>  <SCORE.INTRA.VDW>
0.58573

>  <SCORE.INTRA.VDW.0>
1.11912

>  <SCORE.INTRA.norm>
0.00183993

>  <SCORE.RESTR>
0

>  <SCORE.RESTR.CAVITY>
0

>  <SCORE.RESTR.norm>
0

>  <SCORE.SYSTEM>
0

>  <SCORE.SYSTEM.CONST>
0

>  <SCORE.SYSTEM.DIHEDRAL>
0

>  <SCORE.SYSTEM.SOLV>
0

>  <SCORE.SYSTEM.norm>
0

>  <SCORE.heavy>
26

>  <SCORE.norm>
-2.42424

>  <RMSD>
6.135

$$$$
1f1t Malachite green aptamer (Xray 2.8A)
 OpenBabel11021811393D
libRbt.so/2013.1/901 2013/11/27
 26 29  0  0  0  0  0  0  0  0999 V2000
  112.2162  -79.3963  -86.9503 C   0  0  0  0  0  0  0  0  0  0  0  0
  112.3429  -78.9360  -85.5753 C   0  0  0  0  0  0  0  0  0  0  0  0
  111.7780  -77.6766  -85.3653 C   0  0  0  0  0  0  0  0  0  0  0  0
  111.9342  -77.2556  -83.9448 O   0  0  0  0  0  0  0  0  0  0  0  0
  111.4061  -76.1089  -83.7598 C   0  0  0  0  0  0  0  0  0  0  0  0
  111.6202  -75.7827  -82.3500 C   0  0  0  0  0  0  0  0  0  0  0  0
  111.0754  -74.5102  -81.9530 C   0  0  0  0  0  0  0  0  0  0  0  0
  110.3834  -73.6612  -82.8519 C   0  0  0  0  0  0  0  0  0  0  0  0
  110.2125  -74.0395  -84.2424 C   0  0  0  0  0  0  0  0  0  0  0  0
  110.7629  -75.3036  -84.6657 C   0  0  0  0  0  0  0  0  0  0  0  0
  110.5546  -75.6121  -86.1298 C   0  0  0  0  0  0  0  0  0  0  0  0
  111.1419  -76.8775  -86.3089 C   0  0  0  0  0  0  0  0  0  0  0  0
  111.0308  -77.3554  -87.6888 C   0  0  0  0  0  0  0  0  0  0  0  0
  111.5987  -78.6443  -87.9308 C   0  0  0  0  0  0  0  0  0  0  0  0
  109.9053  -74.7538  -86.9968 C   0  0  0  0  0  0  0  0  0  0  0  0
  110.2304  -73.3926  -87.2013 C   0  0  0  0  0  0  0  0  0  0  0  0
  109.5973  -72.5166  -88.0848 C   0  0  0  0  0  0  0  0  0  0  0  0
  108.4911  -72.9933  -88.9014 C   0  0  0  0  0  0  0  0  0  0  0  0
  108.1837  -74.3547  -88.6650 C   0  0  0  0  0  0  0  0  0  0  0  0
  108.7876  -75.2669  -87.7885 C   0  0  0  0  0  0  0  0  0  0  0  0
  112.7250  -80.6347  -87.3162 N   0  3  0  0  0  0  0  0  0  0  0  0
  113.3842  -81.5178  -86.3607 C   0  0  0  0  0  0  0  0  0  0  0  0
  112.6828  -81.2336  -88.6684 C   0  0  0  0  0  0  0  0  0  0  0  0
  111.3163  -74.2071  -80.6020 N   0  0  0  0  0  0  0  0  0  0  0  0
  111.9641  -74.9832  -79.5211 C   0  0  0  0  0  0  0  0  0  0  0  0
  110.8731  -72.8552  -80.1091 C   0  0  0  0  0  0  0  0  0  0  0  0
  1  2  1  0  0  0  0
  1 14  1  0  0  0  0
  1 21  2  0  0  0  0
  2  3  2  0  0  0  0
  3  4  1  0  0  0  0
  3 12  1  0  0  0  0
  4  5  1  0  0  0  0
  5  6  1  0  0  0  0
  5 10  2  0  0  0  0
  6  7  2  0  0  0  0
  7  8  1  0  0  0  0
  7 24  1  0  0  0  0
  8  9  2  0  0  0  0
  9 10  1  0  0  0  0
 10 11  1  0  0  0  0
 11 12  2  0  0  0  0
 11 15  1  0  0  0  0
 12 13  1  0  0  0  0
 13 14  2  0  0  0  0
 15 16  2  0  0  0  0
 15 20  1  0  0  0  0
 16 17  1  0  0  0  0
 17 18  2  0  0  0  0
 18 19  1  0  0  0  0
 19 20  2  0  0  0  0
 21 22  1  0  0  0  0
 21 23  1  0  0  0  0
 24 25  1  0  0  0  0
 24 26  1  0  0  0  0
M  CHG  1  21   1
M  END
>  <CHROM.1>
-3.31584548,53.59645850,111.04782399,-76.19785443,-85.32373745,-1.26805973
-1.06135628,1.05991608

>  <Name>
1f1t Malachite green aptamer (Xray 2.8A)

>  <RI>
0

>  <Rbt.Current_Directory>
/home/itssahil/PROJECTS/Mol_Feturizer/New_Systems/rnas/1f1t

>  <Rbt.Executable>
rbdock ($Id: //depot/dev/client3/rdock/2013.1/src/exe/rbdock.cxx#4 $)

>  <Rbt.Library>
libRbt.so (2013.1, Build901 2013/11/27)

>  <Rbt.Parameter_File>
/export/apps/rDock/src/rDock_2013.1_src/data/scripts/dock_solv.prm

>  <Rbt.Receptor>
prm/pocket_docking_3.prm

>  <SCORE>
-63.1061

>  <SCORE.INTER>
-63.1469

>  <SCORE.INTER.CONST>
1

>  <SCORE.INTER.POLAR>
0

>  <SCORE.INTER.ROT>
2

>  <SCORE.INTER.SOLV>
11.1333

>  <SCORE.INTER.VDW>
-50.7424

>  <SCORE.INTER.norm>
-2.42873

>  <SCORE.INTRA>
0.0407917

>  <SCORE.INTRA.DIHEDRAL>
-1.05532

>  <SCORE.INTRA.DIHEDRAL.0>
4.18538

>  <SCORE.INTRA.POLAR>
0

>  <SCORE.INTRA.POLAR.0>
0

>  <SCORE.INTRA.REPUL>
0

>  <SCORE.INTRA.REPUL.0>
0

>  <SCORE.INTRA.SOLV>
0.0178923

>  <SCORE.INTRA.SOLV.lig_0>
-5.16926

>  <SCORE.INTRA.VDW>
0.559507

>  <SCORE.INTRA.VDW.0>
1.11912

>  <SCORE.INTRA.norm>
0.00156891

>  <SCORE.RESTR>
0

>  <SCORE.RESTR.CAVITY>
0

>  <SCORE.RESTR.norm>
0

>  <SCORE.SYSTEM>
0

>  <SCORE.SYSTEM.CONST>
0

>  <SCORE.SYSTEM.DIHEDRAL>
0

>  <SCORE.SYSTEM.SOLV>
0

>  <SCORE.SYSTEM.norm>
0

>  <SCORE.heavy>
26

>  <SCORE.norm>
-2.42716

>  <RMSD>
6.135

$$$$
1f1t Malachite green aptamer (Xray 2.8A)
 OpenBabel11021811393D
libRbt.so/2013.1/901 2013/11/27
 26 29  0  0  0  0  0  0  0  0999 V2000
  112.2359  -79.3945  -86.9634 C   0  0  0  0  0  0  0  0  0  0  0  0
  112.3607  -78.9382  -85.5869 C   0  0  0  0  0  0  0  0  0  0  0  0
  111.7930  -77.6806  -85.3734 C   0  0  0  0  0  0  0  0  0  0  0  0
  111.9474  -77.2635  -83.9515 O   0  0  0  0  0  0  0  0  0  0  0  0
  111.4168  -76.1186  -83.7634 C   0  0  0  0  0  0  0  0  0  0  0  0
  111.6293  -75.7961  -82.3525 C   0  0  0  0  0  0  0  0  0  0  0  0
  111.0816  -74.5260  -81.9520 C   0  0  0  0  0  0  0  0  0  0  0  0
  110.3884  -73.6758  -82.8488 C   0  0  0  0  0  0  0  0  0  0  0  0
  110.2192  -74.0501  -84.2405 C   0  0  0  0  0  0  0  0  0  0  0  0
  110.7725  -75.3119  -84.6673 C   0  0  0  0  0  0  0  0  0  0  0  0
  110.5659  -75.6163  -86.1325 C   0  0  0  0  0  0  0  0  0  0  0  0
  111.1559  -76.8799  -86.3150 C   0  0  0  0  0  0  0  0  0  0  0  0
  111.0467  -77.3538  -87.6965 C   0  0  0  0  0  0  0  0  0  0  0  0
  111.6175  -78.6408  -87.9420 C   0  0  0  0  0  0  0  0  0  0  0  0
  109.9153  -74.7567  -86.9973 C   0  0  0  0  0  0  0  0  0  0  0  0
  110.2303  -73.3913  -87.1888 C   0  0  0  0  0  0  0  0  0  0  0  0
  109.5958  -72.5136  -88.0698 C   0  0  0  0  0  0  0  0  0  0  0  0
  108.4996  -72.9933  -88.8980 C   0  0  0  0  0  0  0  0  0  0  0  0
  108.2022  -74.3591  -88.6745 C   0  0  0  0  0  0  0  0  0  0  0  0
  108.8077  -75.2730  -87.8010 C   0  0  0  0  0  0  0  0  0  0  0  0
  112.7475  -80.6307  -87.3327 N   0  3  0  0  0  0  0  0  0  0  0  0
  113.4079  -81.5153  -86.3794 C   0  0  0  0  0  0  0  0  0  0  0  0
  112.7075  -81.2256  -88.6868 C   0  0  0  0  0  0  0  0  0  0  0  0
  111.3209  -74.2266  -80.5999 N   0  0  0  0  0  0  0  0  0  0  0  0
  111.9911  -74.9947  -79.5270 C   0  0  0  0  0  0  0  0  0  0  0  0
  110.8484  -72.8887  -80.0960 C   0  0  0  0  0  0  0  0  0  0  0  0
  1  2  1  0  0  0  0
  1 14  1  0  0  0  0
  1 21  2  0  0  0  0
  2  3  2  0  0  0  0
  3  4  1  0  0  0  0
  3 12  1  0  0  0  0
  4  5  1  0  0  0  0
  5  6  1  0  0  0  0
  5 10  2  0  0  0  0
  6  7  2  0  0  0  0
  7  8  1  0  0  0  0
  7 24  1  0  0  0  0
  8  9  2  0  0  0  0
  9 10  1  0  0  0  0
 10 11  1  0  0  0  0
 11 12  2  0  0  0  0
 11 15  1  0  0  0  0
 12 13  1  0  0  0  0
 13 14  2  0  0  0  0
 15 16  2  0  0  0  0
 15 20  1  0  0  0  0
 16 17  1  0  0  0  0
 17 18  2  0  0  0  0
 18 19  1  0  0  0  0
 19 20  2  0  0  0  0
 21 22  1  0  0  0  0
 21 23  1  0  0  0  0
 24 25  1  0  0  0  0
 24 26  1  0  0  0  0
M  CHG  1  21   1
M  END
>  <CHROM.1>
-2.05557385,53.00554293,111.05965743,-76.20354530,-85.32789455,-1.26458747
-1.05953991,1.06607728

>  <Name>
1f1t Malachite green aptamer (Xray 2.8A)

>  <RI>
0

>  <Rbt.Current_Directory>
/home/itssahil/PROJECTS/Mol_Feturizer/New_Systems/rnas/1f1t

>  <Rbt.Executable>
rbdock ($Id: //depot/dev/client3/rdock/2013.1/src/exe/rbdock.cxx#4 $)

>  <Rbt.Library>
libRbt.so (2013.1, Build901 2013/11/27)

>  <Rbt.Parameter_File>
/export/apps/rDock/src/rDock_2013.1_src/data/scripts/dock_solv.prm

>  <Rbt.Receptor>
prm/pocket_docking_4.prm

>  <SCORE>
-63.0074

>  <SCORE.INTER>
-63.0548

>  <SCORE.INTER.CONST>
1

>  <SCORE.INTER.POLAR>
0

>  <SCORE.INTER.ROT>
2

>  <SCORE.INTER.SOLV>
11.1323

>  <SCORE.INTER.VDW>
-50.6807

>  <SCORE.INTER.norm>
-2.42519

>  <SCORE.INTRA>
0.0474451

>  <SCORE.INTRA.DIHEDRAL>
-1.13066

>  <SCORE.INTRA.DIHEDRAL.0>
4.18538

>  <SCORE.INTRA.POLAR>
0

>  <SCORE.INTRA.POLAR.0>
0

>  <SCORE.INTRA.REPUL>
0

>  <SCORE.INTRA.REPUL.0>
0

>  <SCORE.INTRA.SOLV>
0.0185661

>  <SCORE.INTRA.SOLV.lig_0>
-5.16926

>  <SCORE.INTRA.VDW>
0.60349

>  <SCORE.INTRA.VDW.0>
1.11912

>  <SCORE.INTRA.norm>
0.00182481

>  <SCORE.RESTR>
0

>  <SCORE.RESTR.CAVITY>
0

>  <SCORE.RESTR.norm>
0

>  <SCORE.SYSTEM>
0

>  <SCORE.SYSTEM.CONST>
0

>  <SCORE.SYSTEM.DIHEDRAL>
0

>  <SCORE.SYSTEM.SOLV>
0

>  <SCORE.SYSTEM.norm>
0

>  <SCORE.heavy>
26

>  <SCORE.norm>
-2.42336

>  <RMSD>
6.135

$$$$
1f1t Malachite green aptamer (Xray 2.8A)
 OpenBabel11021811393D
libRbt.so/2013.1/901 2013/11/27
 26 29  0  0  0  0  0  0  0  0999 V2000
  112.2156  -79.4019  -86.9482 C   0  0  0  0  0  0  0  0  0  0  0  0
  112.3450  -78.9381  -85.5747 C   0  0  0  0  0  0  0  0  0  0  0  0
  111.7817  -77.6776  -85.3671 C   0  0  0  0  0  0  0  0  0  0  0  0
  111.9406  -77.2530  -83.9479 O   0  0  0  0  0  0  0  0  0  0  0  0
  111.4140  -76.1053  -83.7651 C   0  0  0  0  0  0  0  0  0  0  0  0
  111.6307  -75.7755  -82.3566 C   0  0  0  0  0  0  0  0  0  0  0  0
  111.0878  -74.5014  -81.9621 C   0  0  0  0  0  0  0  0  0  0  0  0
  110.3950  -73.6542  -82.8621 C   0  0  0  0  0  0  0  0  0  0  0  0
  110.2215  -74.0360  -84.2513 C   0  0  0  0  0  0  0  0  0  0  0  0
  110.7700  -75.3018  -84.6722 C   0  0  0  0  0  0  0  0  0  0  0  0
  110.5590  -75.6140  -86.1351 C   0  0  0  0  0  0  0  0  0  0  0  0
  111.1448  -76.8805  -86.3117 C   0  0  0  0  0  0  0  0  0  0  0  0
  111.0309  -77.3619  -87.6902 C   0  0  0  0  0  0  0  0  0  0  0  0
  111.5972  -78.6520  -87.9297 C   0  0  0  0  0  0  0  0  0  0  0  0
  109.9090  -74.7575  -87.0032 C   0  0  0  0  0  0  0  0  0  0  0  0
  110.2175  -73.3901  -87.1918 C   0  0  0  0  0  0  0  0  0  0  0  0
  109.5836  -72.5153  -88.0761 C   0  0  0  0  0  0  0  0  0  0  0  0
  108.4952  -73.0005  -88.9114 C   0  0  0  0  0  0  0  0  0  0  0  0
  108.2041  -74.3682  -88.6908 C   0  0  0  0  0  0  0  0  0  0  0  0
  108.8093  -75.2793  -87.8142 C   0  0  0  0  0  0  0  0  0  0  0  0
  112.7227  -80.6418  -87.3116 N   0  3  0  0  0  0  0  0  0  0  0  0
  113.3827  -81.5229  -86.3549 C   0  0  0  0  0  0  0  0  0  0  0  0
  112.6778  -81.2443  -88.6622 C   0  0  0  0  0  0  0  0  0  0  0  0
  111.3311  -74.1950  -80.6123 N   0  0  0  0  0  0  0  0  0  0  0  0
  111.9781  -74.9697  -79.5299 C   0  0  0  0  0  0  0  0  0  0  0  0
  110.8923  -72.8404  -80.1229 C   0  0  0  0  0  0  0  0  0  0  0  0
  1  2  1  0  0  0  0
  1 14  1  0  0  0  0
  1 21  2  0  0  0  0
  2  3  2  0  0  0  0
  3  4  1  0  0  0  0
  3 12  1  0  0  0  0
  4  5  1  0  0  0  0
  5  6  1  0  0  0  0
  5 10  2  0  0  0  0
  6  7  2  0  0  0  0
  7  8  1  0  0  0  0
  7 24  1  0  0  0  0
  8  9  2  0  0  0  0
  9 10  1  0  0  0  0
 10 11  1  0  0  0  0
 11 12  2  0  0  0  0
 11 15  1  0  0  0  0
 12 13  1  0  0  0  0
 13 14  2  0  0  0  0
 15 16  2  0  0  0  0
 15 20  1  0  0  0  0
 16 17  1  0  0  0  0
 17 18  2  0  0  0  0
 18 19  1  0  0  0  0
 19 20  2  0  0  0  0
 21 22  1  0  0  0  0
 21 23  1  0  0  0  0
 24 25  1  0  0  0  0
 24 26  1  0  0  0  0
M  CHG  1  21   1
M  END
>  <CHROM.1>
-3.42835443,52.21714536,111.05321090,-76.19807986,-85.32841527,-1.27228645
-1.06154441,1.05366227

>  <Name>
1f1t Malachite green aptamer (Xray 2.8A)

>  <RI>
0

>  <Rbt.Current_Directory>
/home/itssahil/PROJECTS/Mol_Feturizer/New_Systems/rnas/1f1t

>  <Rbt.Executable>
rbdock ($Id: //depot/dev/client3/rdock/2013.1/src/exe/rbdock.cxx#4 $)

>  <Rbt.Library>
libRbt.so (2013.1, Build901 2013/11/27)

>  <Rbt.Parameter_File>
/export/apps/rDock/src/rDock_2013.1_src/data/scripts/dock_solv.prm

>  <Rbt.Receptor>
prm/pocket_docking_4.prm

>  <SCORE>
-63.1057

>  <SCORE.INTER>
-63.1576

>  <SCORE.INTER.CONST>
1

>  <SCORE.INTER.POLAR>
0

>  <SCORE.INTER.ROT>
2

>  <SCORE.INTER.SOLV>
11.1505

>  <SCORE.INTER.VDW>
-50.7553

>  <SCORE.INTER.norm>
-2.42914

>  <SCORE.INTRA>
0.051947

>  <SCORE.INTRA.DIHEDRAL>
-1.16378

>  <SCORE.INTRA.DIHEDRAL.0>
4.18538

>  <SCORE.INTRA.POLAR>
0

>  <SCORE.INTRA.POLAR.0>
0

>  <SCORE.INTRA.REPUL>
0

>  <SCORE.INTRA.REPUL.0>
0

>  <SCORE.INTRA.SOLV>
0.0194448

>  <SCORE.INTRA.SOLV.lig_0>
-5.16926

>  <SCORE.INTRA.VDW>
0.624113

>  <SCORE.INTRA.VDW.0>
1.11912

>  <SCORE.INTRA.norm>
0.00199796

>  <SCORE.RESTR>
0

>  <SCORE.RESTR.CAVITY>
0

>  <SCORE.RESTR.norm>
0

>  <SCORE.SYSTEM>
0

>  <SCORE.SYSTEM.CONST>
0

>  <SCORE.SYSTEM.DIHEDRAL>
0

>  <SCORE.SYSTEM.SOLV>
0

>  <SCORE.SYSTEM.norm>
0

>  <SCORE.heavy>
26

>  <SCORE.norm>
-2.42714

>  <RMSD>
6.135

$$$$
1f1t Malachite green aptamer (Xray 2.8A)
 OpenBabel11021811393D
libRbt.so/2013.1/901 2013/11/27
 26 29  0  0  0  0  0  0  0  0999 V2000
  112.2166  -79.3938  -86.9535 C   0  0  0  0  0  0  0  0  0  0  0  0
  112.3421  -78.9346  -85.5781 C   0  0  0  0  0  0  0  0  0  0  0  0
  111.7777  -77.6750  -85.3678 C   0  0  0  0  0  0  0  0  0  0  0  0
  111.9327  -77.2551  -83.9468 O   0  0  0  0  0  0  0  0  0  0  0  0
  111.4051  -76.1083  -83.7615 C   0  0  0  0  0  0  0  0  0  0  0  0
  111.6179  -75.7831  -82.3514 C   0  0  0  0  0  0  0  0  0  0  0  0
  111.0734  -74.5106  -81.9541 C   0  0  0  0  0  0  0  0  0  0  0  0
  110.3827  -73.6606  -82.8530 C   0  0  0  0  0  0  0  0  0  0  0  0
  110.2130  -74.0378  -84.2439 C   0  0  0  0  0  0  0  0  0  0  0  0
  110.7632  -75.3020  -84.6676 C   0  0  0  0  0  0  0  0  0  0  0  0
  110.5562  -75.6094  -86.1321 C   0  0  0  0  0  0  0  0  0  0  0  0
  111.1430  -76.8750  -86.3115 C   0  0  0  0  0  0  0  0  0  0  0  0
  111.0330  -77.3518  -87.6919 C   0  0  0  0  0  0  0  0  0  0  0  0
  111.6005  -78.6409  -87.9341 C   0  0  0  0  0  0  0  0  0  0  0  0
  109.9082  -74.7501  -86.9991 C   0  0  0  0  0  0  0  0  0  0  0  0
  110.2371  -73.3901  -87.2057 C   0  0  0  0  0  0  0  0  0  0  0  0
  109.6053  -72.5132  -88.0892 C   0  0  0  0  0  0  0  0  0  0  0  0
  108.4966  -72.9876  -88.9038 C   0  0  0  0  0  0  0  0  0  0  0  0
  108.1855  -74.3478  -88.6654 C   0  0  0  0  0  0  0  0  0  0  0  0
  108.7879  -75.2608  -87.7888 C   0  0  0  0  0  0  0  0  0  0  0  0
  112.7251  -80.6323  -87.3197 N   0  3  0  0  0  0  0  0  0  0  0  0
  113.3829  -81.5164  -86.3642 C   0  0  0  0  0  0  0  0  0  0  0  0
  112.6840  -81.2302  -88.6724 C   0  0  0  0  0  0  0  0  0  0  0  0
  111.3131  -74.2086  -80.6026 N   0  0  0  0  0  0  0  0  0  0  0  0
  111.9666  -74.9825  -79.5236 C   0  0  0  0  0  0  0  0  0  0  0  0
  110.8612  -72.8606  -80.1068 C   0  0  0  0  0  0  0  0  0  0  0  0
  1  2  1  0  0  0  0
  1 14  1  0  0  0  0
  1 21  2  0  0  0  0
  2  3  2  0  0  0  0
  3  4  1  0  0  0  0
  3 12  1  0  0  0  0
  4  5  1  0  0  0  0
  5  6  1  0  0  0  0
  5 10  2  0  0  0  0
  6  7  2  0  0  0  0
  7  8  1  0  0  0  0
  7 24  1  0  0  0  0
  8  9  2  0  0  0  0
  9 10  1  0  0  0  0
 10 11  1  0  0  0  0
 11 12  2  0  0  0  0
 11 15  1  0  0  0  0
 12 13  1  0  0  0  0
 13 14  2  0  0  0  0
 15 16  2  0  0  0  0
 15 20  1  0  0  0  0
 16 17  1  0  0  0  0
 17 18  2  0  0  0  0
 18 19  1  0  0  0  0
 19 20  2  0  0  0  0
 21 22  1  0  0  0  0
 21 23  1  0  0  0  0
 24 25  1  0  0  0  0
 24 26  1  0  0  0  0
M  CHG  1  21   1
M  END
>  <CHROM.1>
-2.89225351,53.81500932,111.04819544,-76.19594827,-85.32590619,-1.26662450
-1.06216425,1.06185142

>  <Name>
1f1t Malachite green aptamer (Xray 2.8A)

>  <RI>
0

>  <Rbt.Current_Directory>
/home/itssahil/PROJECTS/Mol_Feturizer/New_Systems/rnas/1f1t

>  <Rbt.Executable>
rbdock ($Id: //depot/dev/client3/rdock/2013.1/src/exe/rbdock.cxx#4 $)

>  <Rbt.Library>
libRbt.so (2013.1, Build901 2013/11/27)

>  <Rbt.Parameter_File>
/export/apps/rDock/src/rDock_2013.1_src/data/scripts/dock_solv.prm

>  <Rbt.Receptor>
prm/pocket_docking_4.prm

>  <SCORE>
-63.0935

>  <SCORE.INTER>
-63.1285

>  <SCORE.INTER.CONST>
1

>  <SCORE.INTER.POLAR>
0

>  <SCORE.INTER.ROT>
2

>  <SCORE.INTER.SOLV>
11.1412

>  <SCORE.INTER.VDW>
-50.7327

>  <SCORE.INTER.norm>
-2.42802

>  <SCORE.INTRA>
0.0349458

>  <SCORE.INTRA.DIHEDRAL>
-1.04849

>  <SCORE.INTRA.DIHEDRAL.0>
4.18538

>  <SCORE.INTRA.POLAR>
0

>  <SCORE.INTRA.POLAR.0>
0

>  <SCORE.INTRA.REPUL>
0

>  <SCORE.INTRA.REPUL.0>
0

>  <SCORE.INTRA.SOLV>
0.0176471

>  <SCORE.INTRA.SOLV.lig_0>
-5.16926

>  <SCORE.INTRA.VDW>
0.550365

>  <SCORE.INTRA.VDW.0>
1.11912

>  <SCORE.INTRA.norm>
0.00134407

>  <SCORE.RESTR>
0

>  <SCORE.RESTR.CAVITY>
0

>  <SCORE.RESTR.norm>
0

>  <SCORE.SYSTEM>
0

>  <SCORE.SYSTEM.CONST>
0

>  <SCORE.SYSTEM.DIHEDRAL>
0

>  <SCORE.SYSTEM.SOLV>
0

>  <SCORE.SYSTEM.norm>
0

>  <SCORE.heavy>
26

>  <SCORE.norm>
-2.42667

>  <RMSD>
6.135

$$$$
1f1t Malachite green aptamer (Xray 2.8A)
 OpenBabel11021811393D
libRbt.so/2013.1/901 2013/11/27
 26 29  0  0  0  0  0  0  0  0999 V2000
  112.2296  -79.4105  -86.9538 C   0  0  0  0  0  0  0  0  0  0  0  0
  112.3553  -78.9470  -85.5799 C   0  0  0  0  0  0  0  0  0  0  0  0
  111.7909  -77.6869  -85.3734 C   0  0  0  0  0  0  0  0  0  0  0  0
  111.9460  -77.2625  -83.9537 O   0  0  0  0  0  0  0  0  0  0  0  0
  111.4183  -76.1152  -83.7719 C   0  0  0  0  0  0  0  0  0  0  0  0
  111.6313  -75.7856  -82.3628 C   0  0  0  0  0  0  0  0  0  0  0  0
  111.0868  -74.5119  -81.9694 C   0  0  0  0  0  0  0  0  0  0  0  0
  110.3959  -73.6648  -82.8708 C   0  0  0  0  0  0  0  0  0  0  0  0
  110.2261  -74.0463  -84.2605 C   0  0  0  0  0  0  0  0  0  0  0  0
  110.7763  -75.3118  -84.6804 C   0  0  0  0  0  0  0  0  0  0  0  0
  110.5691  -75.6237  -86.1439 C   0  0  0  0  0  0  0  0  0  0  0  0
  111.1560  -76.8898  -86.3194 C   0  0  0  0  0  0  0  0  0  0  0  0
  111.0458  -77.3709  -87.6983 C   0  0  0  0  0  0  0  0  0  0  0  0
  111.6133  -78.6607  -87.9366 C   0  0  0  0  0  0  0  0  0  0  0  0
  109.9209  -74.7672  -87.0135 C   0  0  0  0  0  0  0  0  0  0  0  0
  110.2135  -73.3939  -87.1836 C   0  0  0  0  0  0  0  0  0  0  0  0
  109.5814  -72.5188  -88.0689 C   0  0  0  0  0  0  0  0  0  0  0  0
  108.5128  -73.0101  -88.9258 C   0  0  0  0  0  0  0  0  0  0  0  0
  108.2371  -74.3838  -88.7234 C   0  0  0  0  0  0  0  0  0  0  0  0
  108.8411  -75.2955  -87.8466 C   0  0  0  0  0  0  0  0  0  0  0  0
  112.7382  -80.6501  -87.3163 N   0  3  0  0  0  0  0  0  0  0  0  0
  113.3962  -81.5311  -86.3581 C   0  0  0  0  0  0  0  0  0  0  0  0
  112.6970  -81.2522  -88.6671 C   0  0  0  0  0  0  0  0  0  0  0  0
  111.3266  -74.2057  -80.6188 N   0  0  0  0  0  0  0  0  0  0  0  0
  111.9678  -74.9819  -79.5340 C   0  0  0  0  0  0  0  0  0  0  0  0
  110.8901  -72.8497  -80.1314 C   0  0  0  0  0  0  0  0  0  0  0  0
  1  2  1  0  0  0  0
  1 14  1  0  0  0  0
  1 21  2  0  0  0  0
  2  3  2  0  0  0  0
  3  4  1  0  0  0  0
  3 12  1  0  0  0  0
  4  5  1  0  0  0  0
  5  6  1  0  0  0  0
  5 10  2  0  0  0  0
  6  7  2  0  0  0  0
  7  8  1  0  0  0  0
  7 24  1  0  0  0  0
  8  9  2  0  0  0  0
  9 10  1  0  0  0  0
 10 11  1  0  0  0  0
 11 12  2  0  0  0  0
 11 15  1  0  0  0  0
 12 13  1  0  0  0  0
 13 14  2  0  0  0  0
 15 16  2  0  0  0  0
 15 20  1  0  0  0  0
 16 17  1  0  0  0  0
 17 18  2  0  0  0  0
 18 19  1  0  0  0  0
 19 20  2  0  0  0  0
 21 22  1  0  0  0  0
 21 23  1  0  0  0  0
 24 25  1  0  0  0  0
 24 26  1  0  0  0  0
M  CHG  1  21   1
M  END
>  <CHROM.1>
-3.63089968,51.01999946,111.06178659,-76.20765841,-85.33628810,-1.26755429
-1.06256226,1.05815001

>  <Name>
1f1t Malachite green aptamer (Xray 2.8A)

>  <RI>
0

>  <Rbt.Current_Directory>
/home/itssahil/PROJECTS/Mol_Feturizer/New_Systems/rnas/1f1t

>  <Rbt.Executable>
rbdock ($Id: //depot/dev/client3/rdock/2013.1/src/exe/rbdock.cxx#4 $)

>  <Rbt.Library>
libRbt.so (2013.1, Build901 2013/11/27)

>  <Rbt.Parameter_File>
/export/apps/rDock/src/rDock_2013.1_src/data/scripts/dock_solv.prm

>  <Rbt.Receptor>
prm/pocket_docking_4.prm

>  <SCORE>
-63.085

>  <SCORE.INTER>
-63.1678

>  <SCORE.INTER.CONST>
1

>  <SCORE.INTER.POLAR>
0

>  <SCORE.INTER.ROT>
2

>  <SCORE.INTER.SOLV>
11.1545

>  <SCORE.INTER.VDW>
-50.7634

>  <SCORE.INTER.norm>
-2.42953

>  <SCORE.INTRA>
0.0827755

>  <SCORE.INTRA.DIHEDRAL>
-1.25588

>  <SCORE.INTRA.DIHEDRAL.0>
4.18538

>  <SCORE.INTRA.POLAR>
0

>  <SCORE.INTRA.POLAR.0>
0

>  <SCORE.INTRA.REPUL>
0

>  <SCORE.INTRA.REPUL.0>
0

>  <SCORE.INTRA.SOLV>
0.0207775

>  <SCORE.INTRA.SOLV.lig_0>
-5.16926

>  <SCORE.INTRA.VDW>
0.700324

>  <SCORE.INTRA.VDW.0>
1.11912

>  <SCORE.INTRA.norm>
0.00318367

>  <SCORE.RESTR>
0

>  <SCORE.RESTR.CAVITY>
0

>  <SCORE.RESTR.norm>
0

>  <SCORE.SYSTEM>
0

>  <SCORE.SYSTEM.CONST>
0

>  <SCORE.SYSTEM.DIHEDRAL>
0

>  <SCORE.SYSTEM.SOLV>
0

>  <SCORE.SYSTEM.norm>
0

>  <SCORE.heavy>
26

>  <SCORE.norm>
-2.42635

>  <RMSD>
6.135

$$$$
1f1t Malachite green aptamer (Xray 2.8A)
 OpenBabel11021811393D
libRbt.so/2013.1/901 2013/11/27
 26 29  0  0  0  0  0  0  0  0999 V2000
  112.2299  -79.3965  -86.9556 C   0  0  0  0  0  0  0  0  0  0  0  0
  112.3530  -78.9373  -85.5800 C   0  0  0  0  0  0  0  0  0  0  0  0
  111.7867  -77.6785  -85.3702 C   0  0  0  0  0  0  0  0  0  0  0  0
  111.9392  -77.2586  -83.9490 O   0  0  0  0  0  0  0  0  0  0  0  0
  111.4099  -76.1124  -83.7643 C   0  0  0  0  0  0  0  0  0  0  0  0
  111.6204  -75.7872  -82.3538 C   0  0  0  0  0  0  0  0  0  0  0  0
  111.0738  -74.5154  -81.9571 C   0  0  0  0  0  0  0  0  0  0  0  0
  110.3833  -73.6661  -82.8568 C   0  0  0  0  0  0  0  0  0  0  0  0
  110.2161  -74.0433  -84.2481 C   0  0  0  0  0  0  0  0  0  0  0  0
  110.7684  -75.3068  -84.6712 C   0  0  0  0  0  0  0  0  0  0  0  0
  110.5639  -75.6142  -86.1360 C   0  0  0  0  0  0  0  0  0  0  0  0
  111.1524  -76.8790  -86.3147 C   0  0  0  0  0  0  0  0  0  0  0  0
  111.0450  -77.3558  -87.6953 C   0  0  0  0  0  0  0  0  0  0  0  0
  111.6143  -78.6441  -87.9370 C   0  0  0  0  0  0  0  0  0  0  0  0
  109.9161  -74.7556  -87.0038 C   0  0  0  0  0  0  0  0  0  0  0  0
  110.2429  -73.3949  -87.2089 C   0  0  0  0  0  0  0  0  0  0  0  0
  109.6113  -72.5185  -88.0932 C   0  0  0  0  0  0  0  0  0  0  0  0
  108.5051  -72.9944  -88.9102 C   0  0  0  0  0  0  0  0  0  0  0  0
  108.1960  -74.3554  -88.6733 C   0  0  0  0  0  0  0  0  0  0  0  0
  108.7983  -75.2677  -87.7960 C   0  0  0  0  0  0  0  0  0  0  0  0
  112.7404  -80.6343  -87.3213 N   0  3  0  0  0  0  0  0  0  0  0  0
  113.3980  -81.5177  -86.3650 C   0  0  0  0  0  0  0  0  0  0  0  0
  112.7020  -81.2321  -88.6742 C   0  0  0  0  0  0  0  0  0  0  0  0
  111.3111  -74.2133  -80.6052 N   0  0  0  0  0  0  0  0  0  0  0  0
  111.9626  -74.9873  -79.5249 C   0  0  0  0  0  0  0  0  0  0  0  0
  110.8589  -72.8651  -80.1103 C   0  0  0  0  0  0  0  0  0  0  0  0
  1  2  1  0  0  0  0
  1 14  1  0  0  0  0
  1 21  2  0  0  0  0
  2  3  2  0  0  0  0
  3  4  1  0  0  0  0
  3 12  1  0  0  0  0
  4  5  1  0  0  0  0
  5  6  1  0  0  0  0
  5 10  2  0  0  0  0
  6  7  2  0  0  0  0
  7  8  1  0  0  0  0
  7 24  1  0  0  0  0
  8  9  2  0  0  0  0
  9 10  1  0  0  0  0
 10 11  1  0  0  0  0
 11 12  2  0  0  0  0
 11 15  1  0  0  0  0
 12 13  1  0  0  0  0
 13 14  2  0  0  0  0
 15 16  2  0  0  0  0
 15 20  1  0  0  0  0
 16 17  1  0  0  0  0
 17 18  2  0  0  0  0
 18 19  1  0  0  0  0
 19 20  2  0  0  0  0
 21 22  1  0  0  0  0
 21 23  1  0  0  0  0
 24 25  1  0  0  0  0
 24 26  1  0  0  0  0
M  CHG  1  21   1
M  END
>  <CHROM.1>
-2.98396996,53.76301716,111.05542494,-76.20027303,-85.32919313,-1.26290510
-1.06183658,1.06525608

>  <Name>
1f1t Malachite green aptamer (Xray 2.8A)

>  <RI>
0

>  <Rbt.Current_Directory>
/home/itssahil/PROJECTS/Mol_Feturizer/New_Systems/rnas/1f1t

>  <Rbt.Executable>
rbdock ($Id: //depot/dev/client3/rdock/2013.1/src/exe/rbdock.cxx#4 $)

>  <Rbt.Library>
libRbt.so (2013.1, Build901 2013/11/27)

>  <Rbt.Parameter_File>
/export/apps/rDock/src/rDock_2013.1_src/data/scripts/dock_solv.prm

>  <Rbt.Receptor>
prm/pocket_docking_5.prm

>  <SCORE>
-63.0462

>  <SCORE.INTER>
-63.0824

>  <SCORE.INTER.CONST>
1

>  <SCORE.INTER.POLAR>
0

>  <SCORE.INTER.ROT>
2

>  <SCORE.INTER.SOLV>
11.1458

>  <SCORE.INTER.VDW>
-50.7036

>  <SCORE.INTER.norm>
-2.42625

>  <SCORE.INTRA>
0.0362617

>  <SCORE.INTRA.DIHEDRAL>
-1.05046

>  <SCORE.INTRA.DIHEDRAL.0>
4.18538

>  <SCORE.INTRA.POLAR>
0

>  <SCORE.INTRA.POLAR.0>
0

>  <SCORE.INTRA.REPUL>
0

>  <SCORE.INTRA.REPUL.0>
0

>  <SCORE.INTRA.SOLV>
0.0177055

>  <SCORE.INTRA.SOLV.lig_0>
-5.16926

>  <SCORE.INTRA.VDW>
0.552637

>  <SCORE.INTRA.VDW.0>
1.11912

>  <SCORE.INTRA.norm>
0.00139468

>  <SCORE.RESTR>
0

>  <SCORE.RESTR.CAVITY>
0

>  <SCORE.RESTR.norm>
0

>  <SCORE.SYSTEM>
0

>  <SCORE.SYSTEM.CONST>
0

>  <SCORE.SYSTEM.DIHEDRAL>
0

>  <SCORE.SYSTEM.SOLV>
0

>  <SCORE.SYSTEM.norm>
0

>  <SCORE.heavy>
26

>  <SCORE.norm>
-2.42485

>  <RMSD>
6.135

$$$$
1f1t Malachite green aptamer (Xray 2.8A)
 OpenBabel11021811393D
libRbt.so/2013.1/901 2013/11/27
 26 29  0  0  0  0  0  0  0  0999 V2000
  112.2148  -79.3974  -86.9498 C   0  0  0  0  0  0  0  0  0  0  0  0
  112.3405  -78.9365  -85.5749 C   0  0  0  0  0  0  0  0  0  0  0  0
  111.7766  -77.6765  -85.3662 C   0  0  0  0  0  0  0  0  0  0  0  0
  111.9316  -77.2549  -83.9457 O   0  0  0  0  0  0  0  0  0  0  0  0
  111.4044  -76.1076  -83.7618 C   0  0  0  0  0  0  0  0  0  0  0  0
  111.6173  -75.7808  -82.3520 C   0  0  0  0  0  0  0  0  0  0  0  0
  111.0733  -74.5076  -81.9563 C   0  0  0  0  0  0  0  0  0  0  0  0
  110.3830  -73.6584  -82.8564 C   0  0  0  0  0  0  0  0  0  0  0  0
  110.2133  -74.0372  -84.2468 C   0  0  0  0  0  0  0  0  0  0  0  0
  110.7630  -75.3022  -84.6689 C   0  0  0  0  0  0  0  0  0  0  0  0
  110.5560  -75.6112  -86.1331 C   0  0  0  0  0  0  0  0  0  0  0  0
  111.1423  -76.8773  -86.3109 C   0  0  0  0  0  0  0  0  0  0  0  0
  111.0322  -77.3557  -87.6907 C   0  0  0  0  0  0  0  0  0  0  0  0
  111.5991  -78.6454  -87.9313 C   0  0  0  0  0  0  0  0  0  0  0  0
  109.9085  -74.7528  -87.0012 C   0  0  0  0  0  0  0  0  0  0  0  0
  110.2183  -73.3853  -87.1870 C   0  0  0  0  0  0  0  0  0  0  0  0
  109.5869  -72.5087  -88.0711 C   0  0  0  0  0  0  0  0  0  0  0  0
  108.4999  -72.9917  -88.9095 C   0  0  0  0  0  0  0  0  0  0  0  0
  108.2072  -74.3595  -88.6916 C   0  0  0  0  0  0  0  0  0  0  0  0
  108.8100  -75.2725  -87.8152 C   0  0  0  0  0  0  0  0  0  0  0  0
  112.7228  -80.6365  -87.3145 N   0  3  0  0  0  0  0  0  0  0  0  0
  113.3802  -81.5197  -86.3578 C   0  0  0  0  0  0  0  0  0  0  0  0
  112.6816  -81.2361  -88.6664 C   0  0  0  0  0  0  0  0  0  0  0  0
  111.3130  -74.2041  -80.6052 N   0  0  0  0  0  0  0  0  0  0  0  0
  111.9638  -74.9780  -79.5245 C   0  0  0  0  0  0  0  0  0  0  0  0
  110.8645  -72.8541  -80.1118 C   0  0  0  0  0  0  0  0  0  0  0  0
  1  2  1  0  0  0  0
  1 14  1  0  0  0  0
  1 21  2  0  0  0  0
  2  3  2  0  0  0  0
  3  4  1  0  0  0  0
  3 12  1  0  0  0  0
  4  5  1  0  0  0  0
  5  6  1  0  0  0  0
  5 10  2  0  0  0  0
  6  7  2  0  0  0  0
  7  8  1  0  0  0  0
  7 24  1  0  0  0  0
  8  9  2  0  0  0  0
  9 10  1  0  0  0  0
 10 11  1  0  0  0  0
 11 12  2  0  0  0  0
 11 15  1  0  0  0  0
 12 13  1  0  0  0  0
 13 14  2  0  0  0  0
 15 16  2  0  0  0  0
 15 20  1  0  0  0  0
 16 17  1  0  0  0  0
 17 18  2  0  0  0  0
 18 19  1  0  0  0  0
 19 20  2  0  0  0  0
 21 22  1  0  0  0  0
 21 23  1  0  0  0  0
 24 25  1  0  0  0  0
 24 26  1  0  0  0  0
M  CHG  1  21   1
M  END
>  <CHROM.1>
-3.02905561,52.28526312,111.04792607,-76.19702001,-85.32630216,-1.26726261
-1.06278594,1.06020064

>  <Name>
1f1t Malachite green aptamer (Xray 2.8A)

>  <RI>
0

>  <Rbt.Current_Directory>
/home/itssahil/PROJECTS/Mol_Feturizer/New_Systems/rnas/1f1t

>  <Rbt.Executable>
rbdock ($Id: //depot/dev/client3/rdock/2013.1/src/exe/rbdock.cxx#4 $)

>  <Rbt.Library>
libRbt.so (2013.1, Build901 2013/11/27)

>  <Rbt.Parameter_File>
/export/apps/rDock/src/rDock_2013.1_src/data/scripts/dock_solv.prm

>  <Rbt.Receptor>
prm/pocket_docking_5.prm

>  <SCORE>
-63.0859

>  <SCORE.INTER>
-63.1345

>  <SCORE.INTER.CONST>
1

>  <SCORE.INTER.POLAR>
0

>  <SCORE.INTER.ROT>
2

>  <SCORE.INTER.SOLV>
11.1434

>  <SCORE.INTER.VDW>
-50.7374

>  <SCORE.INTER.norm>
-2.42825

>  <SCORE.INTRA>
0.0485644

>  <SCORE.INTRA.DIHEDRAL>
-1.1687

>  <SCORE.INTRA.DIHEDRAL.0>
4.18538

>  <SCORE.INTRA.POLAR>
0

>  <SCORE.INTRA.POLAR.0>
0

>  <SCORE.INTRA.REPUL>
0

>  <SCORE.INTRA.REPUL.0>
0

>  <SCORE.INTRA.SOLV>
0.0193708

>  <SCORE.INTRA.SOLV.lig_0>
-5.16926

>  <SCORE.INTRA.VDW>
0.623231

>  <SCORE.INTRA.VDW.0>
1.11912

>  <SCORE.INTRA.norm>
0.00186786

>  <SCORE.RESTR>
0

>  <SCORE.RESTR.CAVITY>
0

>  <SCORE.RESTR.norm>
0

>  <SCORE.SYSTEM>
0

>  <SCORE.SYSTEM.CONST>
0

>  <SCORE.SYSTEM.DIHEDRAL>
0

>  <SCORE.SYSTEM.SOLV>
0

>  <SCORE.SYSTEM.norm>
0

>  <SCORE.heavy>
26

>  <SCORE.norm>
-2.42638

>  <RMSD>
6.135

$$$$
1f1t Malachite green aptamer (Xray 2.8A)
 OpenBabel11021811393D
libRbt.so/2013.1/901 2013/11/27
 26 29  0  0  0  0  0  0  0  0999 V2000
  112.2300  -79.3924  -86.9564 C   0  0  0  0  0  0  0  0  0  0  0  0
  112.3522  -78.9343  -85.5803 C   0  0  0  0  0  0  0  0  0  0  0  0
  111.7842  -77.6763  -85.3696 C   0  0  0  0  0  0  0  0  0  0  0  0
  111.9359  -77.2574  -83.9480 O   0  0  0  0  0  0  0  0  0  0  0  0
  111.4051  -76.1121  -83.7624 C   0  0  0  0  0  0  0  0  0  0  0  0
  111.6148  -75.7878  -82.3516 C   0  0  0  0  0  0  0  0  0  0  0  0
  111.0665  -74.5170  -81.9539 C   0  0  0  0  0  0  0  0  0  0  0  0
  110.3751  -73.6680  -82.8531 C   0  0  0  0  0  0  0  0  0  0  0  0
  110.2086  -74.0442  -84.2447 C   0  0  0  0  0  0  0  0  0  0  0  0
  110.7626  -75.3066  -84.6687 C   0  0  0  0  0  0  0  0  0  0  0  0
  110.5587  -75.6130  -86.1338 C   0  0  0  0  0  0  0  0  0  0  0  0
  111.1490  -76.8769  -86.3135 C   0  0  0  0  0  0  0  0  0  0  0  0
  111.0424  -77.3527  -87.6946 C   0  0  0  0  0  0  0  0  0  0  0  0
  111.6135  -78.6401  -87.9372 C   0  0  0  0  0  0  0  0  0  0  0  0
  109.9099  -74.7546  -87.0010 C   0  0  0  0  0  0  0  0  0  0  0  0
  110.2331  -73.3925  -87.2027 C   0  0  0  0  0  0  0  0  0  0  0  0
  109.6004  -72.5162  -88.0863 C   0  0  0  0  0  0  0  0  0  0  0  0
  108.4971  -72.9936  -88.9064 C   0  0  0  0  0  0  0  0  0  0  0  0
  108.1916  -74.3560  -88.6728 C   0  0  0  0  0  0  0  0  0  0  0  0
  108.7951  -75.2684  -87.7963 C   0  0  0  0  0  0  0  0  0  0  0  0
  112.7422  -80.6292  -87.3230 N   0  3  0  0  0  0  0  0  0  0  0  0
  113.4007  -81.5126  -86.3673 C   0  0  0  0  0  0  0  0  0  0  0  0
  112.7048  -81.2259  -88.6764 C   0  0  0  0  0  0  0  0  0  0  0  0
  111.3033  -74.2158  -80.6017 N   0  0  0  0  0  0  0  0  0  0  0  0
  111.9611  -74.9873  -79.5236 C   0  0  0  0  0  0  0  0  0  0  0  0
  110.8423  -72.8716  -80.1040 C   0  0  0  0  0  0  0  0  0  0  0  0
  1  2  1  0  0  0  0
  1 14  1  0  0  0  0
  1 21  2  0  0  0  0
  2  3  2  0  0  0  0
  3  4  1  0  0  0  0
  3 12  1  0  0  0  0
  4  5  1  0  0  0  0
  5  6  1  0  0  0  0
  5 10  2  0  0  0  0
  6  7  2  0  0  0  0
  7  8  1  0  0  0  0
  7 24  1  0  0  0  0
  8  9  2  0  0  0  0
  9 10  1  0  0  0  0
 10 11  1  0  0  0  0
 11 12  2  0  0  0  0
 11 15  1  0  0  0  0
 12 13  1  0  0  0  0
 13 14  2  0  0  0  0
 15 16  2  0  0  0  0
 15 20  1  0  0  0  0
 16 17  1  0  0  0  0
 17 18  2  0  0  0  0
 18 19  1  0  0  0  0
 19 20  2  0  0  0  0
 21 22  1  0  0  0  0
 21 23  1  0  0  0  0
 24 25  1  0  0  0  0
 24 26  1  0  0  0  0
M  CHG  1  21   1
M  END
>  <CHROM.1>
-2.65520027,53.61122933,111.05090158,-76.19915789,-85.32746403,-1.26125230
-1.06066150,1.06755820

>  <Name>
1f1t Malachite green aptamer (Xray 2.8A)

>  <RI>
0

>  <Rbt.Current_Directory>
/home/itssahil/PROJECTS/Mol_Feturizer/New_Systems/rnas/1f1t

>  <Rbt.Executable>
rbdock ($Id: //depot/dev/client3/rdock/2013.1/src/exe/rbdock.cxx#4 $)

>  <Rbt.Library>
libRbt.so (2013.1, Build901 2013/11/27)

>  <Rbt.Parameter_File>
/export/apps/rDock/src/rDock_2013.1_src/data/scripts/dock_solv.prm

>  <Rbt.Receptor>
prm/pocket_docking_5.prm

>  <SCORE>
-63.0448

>  <SCORE.INTER>
-63.0825

>  <SCORE.INTER.CONST>
1

>  <SCORE.INTER.POLAR>
0

>  <SCORE.INTER.ROT>
2

>  <SCORE.INTER.SOLV>
11.1379

>  <SCORE.INTER.VDW>
-50.701

>  <SCORE.INTER.norm>
-2.42625

>  <SCORE.INTRA>
0.0377045

>  <SCORE.INTRA.DIHEDRAL>
-1.07021

>  <SCORE.INTRA.DIHEDRAL.0>
4.18538

>  <SCORE.INTRA.POLAR>
0

>  <SCORE.INTRA.POLAR.0>
0

>  <SCORE.INTRA.REPUL>
0

>  <SCORE.INTRA.REPUL.0>
0

>  <SCORE.INTRA.SOLV>
0.0178792

>  <SCORE.INTRA.SOLV.lig_0>
-5.16926

>  <SCORE.INTRA.VDW>
0.56387

>  <SCORE.INTRA.VDW.0>
1.11912

>  <SCORE.INTRA.norm>
0.00145017

>  <SCORE.RESTR>
0

>  <SCORE.RESTR.CAVITY>
0

>  <SCORE.RESTR.norm>
0

>  <SCORE.SYSTEM>
0

>  <SCORE.SYSTEM.CONST>
0

>  <SCORE.SYSTEM.DIHEDRAL>
0

>  <SCORE.SYSTEM.SOLV>
0

>  <SCORE.SYSTEM.norm>
0

>  <SCORE.heavy>
26

>  <SCORE.norm>
-2.4248

>  <RMSD>
6.135

$$$$
1f1t Malachite green aptamer (Xray 2.8A)
 OpenBabel11021811393D
libRbt.so/2013.1/901 2013/11/27
 26 29  0  0  0  0  0  0  0  0999 V2000
  112.2172  -79.3988  -86.9533 C   0  0  0  0  0  0  0  0  0  0  0  0
  112.3456  -78.9372  -85.5789 C   0  0  0  0  0  0  0  0  0  0  0  0
  111.7816  -77.6772  -85.3696 C   0  0  0  0  0  0  0  0  0  0  0  0
  111.9396  -77.2549  -83.9497 O   0  0  0  0  0  0  0  0  0  0  0  0
  111.4124  -76.1077  -83.7653 C   0  0  0  0  0  0  0  0  0  0  0  0
  111.6281  -75.7801  -82.3561 C   0  0  0  0  0  0  0  0  0  0  0  0
  111.0845  -74.5069  -81.9599 C   0  0  0  0  0  0  0  0  0  0  0  0
  110.3920  -73.6584  -82.8589 C   0  0  0  0  0  0  0  0  0  0  0  0
  110.2195  -74.0380  -84.2488 C   0  0  0  0  0  0  0  0  0  0  0  0
  110.7687  -75.3029  -84.6715 C   0  0  0  0  0  0  0  0  0  0  0  0
  110.5588  -75.6128  -86.1350 C   0  0  0  0  0  0  0  0  0  0  0  0
  111.1451  -76.8788  -86.3134 C   0  0  0  0  0  0  0  0  0  0  0  0
  111.0323  -77.3580  -87.6927 C   0  0  0  0  0  0  0  0  0  0  0  0
  111.5991  -78.6475  -87.9339 C   0  0  0  0  0  0  0  0  0  0  0  0
  109.9090  -74.7550  -87.0022 C   0  0  0  0  0  0  0  0  0  0  0  0
  110.2261  -73.3907  -87.1984 C   0  0  0  0  0  0  0  0  0  0  0  0
  109.5925  -72.5149  -88.0819 C   0  0  0  0  0  0  0  0  0  0  0  0
  108.4949  -72.9955  -88.9078 C   0  0  0  0  0  0  0  0  0  0  0  0
  108.1954  -74.3601  -88.6796 C   0  0  0  0  0  0  0  0  0  0  0  0
  108.8000  -75.2721  -87.8035 C   0  0  0  0  0  0  0  0  0  0  0  0
  112.7249  -80.6379  -87.3184 N   0  3  0  0  0  0  0  0  0  0  0  0
  113.3846  -81.5204  -86.3627 C   0  0  0  0  0  0  0  0  0  0  0  0
  112.6810  -81.2382  -88.6700 C   0  0  0  0  0  0  0  0  0  0  0  0
  111.3269  -74.2026  -80.6094 N   0  0  0  0  0  0  0  0  0  0  0  0
  111.9673  -74.9815  -79.5262 C   0  0  0  0  0  0  0  0  0  0  0  0
  110.8948  -72.8458  -80.1202 C   0  0  0  0  0  0  0  0  0  0  0  0
  1  2  1  0  0  0  0
  1 14  1  0  0  0  0
  1 21  2  0  0  0  0
  2  3  2  0  0  0  0
  3  4  1  0  0  0  0
  3 12  1  0  0  0  0
  4  5  1  0  0  0  0
  5  6  1  0  0  0  0
  5 10  2  0  0  0  0
  6  7  2  0  0  0  0
  7  8  1  0  0  0  0
  7 24  1  0  0  0  0
  8  9  2  0  0  0  0
  9 10  1  0  0  0  0
 10 11  1  0  0  0  0
 11 12  2  0  0  0  0
 11 15  1  0  0  0  0
 12 13  1  0  0  0  0
 13 14  2  0  0  0  0
 15 16  2  0  0  0  0
 15 20  1  0  0  0  0
 16 17  1  0  0  0  0
 17 18  2  0  0  0  0
 18 19  1  0  0  0  0
 19 20  2  0  0  0  0
 21 22  1  0  0  0  0
 21 23  1  0  0  0  0
 24 25  1  0  0  0  0
 24 26  1  0  0  0  0
M  CHG  1  21   1
M  END
>  <CHROM.1>
-3.78731024,52.90972381,111.05260144,-76.19798672,-85.32893152,-1.27076348
-1.06159992,1.05656271

>  <Name>
1f1t Malachite green aptamer (Xray 2.8A)

>  <RI>
0

>  <Rbt.Current_Directory>
/home/itssahil/PROJECTS/Mol_Feturizer/New_Systems/rnas/1f1t

>  <Rbt.Executable>
rbdock ($Id: //depot/dev/client3/rdock/2013.1/src/exe/rbdock.cxx#4 $)

>  <Rbt.Library>
libRbt.so (2013.1, Build901 2013/11/27)

>  <Rbt.Parameter_File>
/export/apps/rDock/src/rDock_2013.1_src/data/scripts/dock_solv.prm

>  <Rbt.Receptor>
prm/pocket_docking_5.prm

>  <SCORE>
-63.1102

>  <SCORE.INTER>
-63.1668

>  <SCORE.INTER.CONST>
1

>  <SCORE.INTER.POLAR>
0

>  <SCORE.INTER.ROT>
2

>  <SCORE.INTER.SOLV>
11.1459

>  <SCORE.INTER.VDW>
-50.7598

>  <SCORE.INTER.norm>
-2.42949

>  <SCORE.INTRA>
0.0566386

>  <SCORE.INTRA.DIHEDRAL>
-1.09713

>  <SCORE.INTRA.DIHEDRAL.0>
4.18538

>  <SCORE.INTRA.POLAR>
0

>  <SCORE.INTRA.POLAR.0>
0

>  <SCORE.INTRA.REPUL>
0

>  <SCORE.INTRA.REPUL.0>
0

>  <SCORE.INTRA.SOLV>
0.0186647

>  <SCORE.INTRA.SOLV.lig_0>
-5.16926

>  <SCORE.INTRA.VDW>
0.595872

>  <SCORE.INTRA.VDW.0>
1.11912

>  <SCORE.INTRA.norm>
0.00217841

>  <SCORE.RESTR>
0

>  <SCORE.RESTR.CAVITY>
0

>  <SCORE.RESTR.norm>
0

>  <SCORE.SYSTEM>
0

>  <SCORE.SYSTEM.CONST>
0

>  <SCORE.SYSTEM.DIHEDRAL>
0

>  <SCORE.SYSTEM.SOLV>
0

>  <SCORE.SYSTEM.norm>
0

>  <SCORE.heavy>
26

>  <SCORE.norm>
-2.42731

>  <RMSD>
6.135

$$$$
1f1t Malachite green aptamer (Xray 2.8A)
 OpenBabel11021811393D
libRbt.so/2013.1/901 2013/11/27
 26 29  0  0  0  0  0  0  0  0999 V2000
  112.2346  -79.4096  -86.9587 C   0  0  0  0  0  0  0  0  0  0  0  0
  112.3615  -78.9484  -85.5841 C   0  0  0  0  0  0  0  0  0  0  0  0
  111.7967  -77.6888  -85.3749 C   0  0  0  0  0  0  0  0  0  0  0  0
  111.9531  -77.2668  -83.9547 O   0  0  0  0  0  0  0  0  0  0  0  0
  111.4251  -76.1199  -83.7705 C   0  0  0  0  0  0  0  0  0  0  0  0
  111.6394  -75.7927  -82.3610 C   0  0  0  0  0  0  0  0  0  0  0  0
  111.0947  -74.5199  -81.9649 C   0  0  0  0  0  0  0  0  0  0  0  0
  110.4026  -73.6715  -82.8642 C   0  0  0  0  0  0  0  0  0  0  0  0
  110.2315  -74.0508  -84.2544 C   0  0  0  0  0  0  0  0  0  0  0  0
  110.7818  -75.3153  -84.6769 C   0  0  0  0  0  0  0  0  0  0  0  0
  110.5733  -75.6248  -86.1407 C   0  0  0  0  0  0  0  0  0  0  0  0
  111.1605  -76.8904  -86.3190 C   0  0  0  0  0  0  0  0  0  0  0  0
  111.0492  -77.3692  -87.6986 C   0  0  0  0  0  0  0  0  0  0  0  0
  111.6170  -78.6583  -87.9397 C   0  0  0  0  0  0  0  0  0  0  0  0
  109.9239  -74.7671  -87.0083 C   0  0  0  0  0  0  0  0  0  0  0  0
  110.2212  -73.3954  -87.1824 C   0  0  0  0  0  0  0  0  0  0  0  0
  109.5879  -72.5192  -88.0656 C   0  0  0  0  0  0  0  0  0  0  0  0
  108.5125  -73.0076  -88.9159 C   0  0  0  0  0  0  0  0  0  0  0  0
  108.2322  -74.3797  -88.7095 C   0  0  0  0  0  0  0  0  0  0  0  0
  108.8373  -75.2924  -87.8345 C   0  0  0  0  0  0  0  0  0  0  0  0
  112.7433  -80.6483  -87.3238 N   0  3  0  0  0  0  0  0  0  0  0  0
  113.4026  -81.5307  -86.3678 C   0  0  0  0  0  0  0  0  0  0  0  0
  112.7010  -81.2482  -88.6756 C   0  0  0  0  0  0  0  0  0  0  0  0
  111.3358  -74.2158  -80.6141 N   0  0  0  0  0  0  0  0  0  0  0  0
  111.9778  -74.9938  -79.5311 C   0  0  0  0  0  0  0  0  0  0  0  0
  110.8999  -72.8605  -80.1241 C   0  0  0  0  0  0  0  0  0  0  0  0
  1  2  1  0  0  0  0
  1 14  1  0  0  0  0
  1 21  2  0  0  0  0
  2  3  2  0  0  0  0
  3  4  1  0  0  0  0
  3 12  1  0  0  0  0
  4  5  1  0  0  0  0
  5  6  1  0  0  0  0
  5 10  2  0  0  0  0
  6  7  2  0  0  0  0
  7  8  1  0  0  0  0
  7 24  1  0  0  0  0
  8  9  2  0  0  0  0
  9 10  1  0  0  0  0
 10 11  1  0  0  0  0
 11 12  2  0  0  0  0
 11 15  1  0  0  0  0
 12 13  1  0  0  0  0
 13 14  2  0  0  0  0
 15 16  2  0  0  0  0
 15 20  1  0  0  0  0
 16 17  1  0  0  0  0
 17 18  2  0  0  0  0
 18 19  1  0  0  0  0
 19 20  2  0  0  0  0
 21 22  1  0  0  0  0
 21 23  1  0  0  0  0
 24 25  1  0  0  0  0
 24 26  1  0  0  0  0
M  CHG  1  21   1
M  END
>  <CHROM.1>
-3.66096435,51.43624013,111.06699010,-76.20995890,-85.33458771,-1.26887096
-1.06166630,1.05864892

>  <Name>
1f1t Malachite green aptamer (Xray 2.8A)

>  <RI>
0

>  <Rbt.Current_Directory>
/home/itssahil/PROJECTS/Mol_Feturizer/New_Systems/rnas/1f1t

>  <Rbt.Executable>
rbdock ($Id: //depot/dev/client3/rdock/2013.1/src/exe/rbdock.cxx#4 $)

>  <Rbt.Library>
libRbt.so (2013.1, Build901 2013/11/27)

>  <Rbt.Parameter_File>
/export/apps/rDock/src/rDock_2013.1_src/data/scripts/dock_solv.prm

>  <Rbt.Receptor>
prm/pocket_docking_5.prm

>  <SCORE>
-63.0528

>  <SCORE.INTER>
-63.1248

>  <SCORE.INTER.CONST>
1

>  <SCORE.INTER.POLAR>
0

>  <SCORE.INTER.ROT>
2

>  <SCORE.INTER.SOLV>
11.1452

>  <SCORE.INTER.VDW>
-50.7316

>  <SCORE.INTER.norm>
-2.42788

>  <SCORE.INTRA>
0.0719914

>  <SCORE.INTRA.DIHEDRAL>
-1.22086

>  <SCORE.INTRA.DIHEDRAL.0>
4.18538

>  <SCORE.INTRA.POLAR>
0

>  <SCORE.INTRA.POLAR.0>
0

>  <SCORE.INTRA.REPUL>
0

>  <SCORE.INTRA.REPUL.0>
0

>  <SCORE.INTRA.SOLV>
0.020315

>  <SCORE.INTRA.SOLV.lig_0>
-5.16926

>  <SCORE.INTRA.VDW>
0.672261

>  <SCORE.INTRA.VDW.0>
1.11912

>  <SCORE.INTRA.norm>
0.0027689

>  <SCORE.RESTR>
0

>  <SCORE.RESTR.CAVITY>
0

>  <SCORE.RESTR.norm>
0

>  <SCORE.SYSTEM>
0

>  <SCORE.SYSTEM.CONST>
0

>  <SCORE.SYSTEM.DIHEDRAL>
0

>  <SCORE.SYSTEM.SOLV>
0

>  <SCORE.SYSTEM.norm>
0

>  <SCORE.heavy>
26

>  <SCORE.norm>
-2.42511

>  <RMSD>
6.135

$$$$
1f1t Malachite green aptamer (Xray 2.8A)
 OpenBabel11021811393D
libRbt.so/2013.1/901 2013/11/27
 26 29  0  0  0  0  0  0  0  0999 V2000
  112.2366  -79.4096  -86.9630 C   0  0  0  0  0  0  0  0  0  0  0  0
  112.3653  -78.9487  -85.5885 C   0  0  0  0  0  0  0  0  0  0  0  0
  111.8000  -77.6895  -85.3780 C   0  0  0  0  0  0  0  0  0  0  0  0
  111.9583  -77.2678  -83.9579 O   0  0  0  0  0  0  0  0  0  0  0  0
  111.4298  -76.1214  -83.7725 C   0  0  0  0  0  0  0  0  0  0  0  0
  111.6461  -75.7944  -82.3632 C   0  0  0  0  0  0  0  0  0  0  0  0
  111.1012  -74.5221  -81.9659 C   0  0  0  0  0  0  0  0  0  0  0  0
  110.4071  -73.6740  -82.8639 C   0  0  0  0  0  0  0  0  0  0  0  0
  110.2341  -74.0529  -84.2539 C   0  0  0  0  0  0  0  0  0  0  0  0
  110.7846  -75.3169  -84.6777 C   0  0  0  0  0  0  0  0  0  0  0  0
  110.5741  -75.6261  -86.1413 C   0  0  0  0  0  0  0  0  0  0  0  0
  111.1618  -76.8912  -86.3209 C   0  0  0  0  0  0  0  0  0  0  0  0
  111.0487  -77.3697  -87.7004 C   0  0  0  0  0  0  0  0  0  0  0  0
  111.6170  -78.6584  -87.9428 C   0  0  0  0  0  0  0  0  0  0  0  0
  109.9227  -74.7686  -87.0075 C   0  0  0  0  0  0  0  0  0  0  0  0
  110.2093  -73.3933  -87.1713 C   0  0  0  0  0  0  0  0  0  0  0  0
  109.5740  -72.5171  -88.0530 C   0  0  0  0  0  0  0  0  0  0  0  0
  108.5082  -73.0093  -88.9130 C   0  0  0  0  0  0  0  0  0  0  0  0
  108.2384  -74.3850  -88.7169 C   0  0  0  0  0  0  0  0  0  0  0  0
  108.8458  -75.2980  -87.8438 C   0  0  0  0  0  0  0  0  0  0  0  0
  112.7456  -80.6478  -87.3292 N   0  3  0  0  0  0  0  0  0  0  0  0
  113.4070  -81.5301  -86.3745 C   0  0  0  0  0  0  0  0  0  0  0  0
  112.7016  -81.2473  -88.6812 C   0  0  0  0  0  0  0  0  0  0  0  0
  111.3441  -74.2184  -80.6154 N   0  0  0  0  0  0  0  0  0  0  0  0
  111.9948  -74.9933  -79.5354 C   0  0  0  0  0  0  0  0  0  0  0  0
  110.9001  -72.8669  -80.1221 C   0  0  0  0  0  0  0  0  0  0  0  0
  1  2  1  0  0  0  0
  1 14  1  0  0  0  0
  1 21  2  0  0  0  0
  2  3  2  0  0  0  0
  3  4  1  0  0  0  0
  3 12  1  0  0  0  0
  4  5  1  0  0  0  0
  5  6  1  0  0  0  0
  5 10  2  0  0  0  0
  6  7  2  0  0  0  0
  7  8  1  0  0  0  0
  7 24  1  0  0  0  0
  8  9  2  0  0  0  0
  9 10  1  0  0  0  0
 10 11  1  0  0  0  0
 11 12  2  0  0  0  0
 11 15  1  0  0  0  0
 12 13  1  0  0  0  0
 13 14  2  0  0  0  0
 15 16  2  0  0  0  0
 15 20  1  0  0  0  0
 16 17  1  0  0  0  0
 17 18  2  0  0  0  0
 18 19  1  0  0  0  0
 19 20  2  0  0  0  0
 21 22  1  0  0  0  0
 21 23  1  0  0  0  0
 24 25  1  0  0  0  0
 24 26  1  0  0  0  0
M  CHG  1  21   1
M  END
>  <CHROM.1>
-3.28045734,50.71564038,111.06940419,-76.21121845,-85.33614158,-1.27097233
-1.06028744,1.05719673

>  <Name>
1f1t Malachite green aptamer (Xray 2.8A)

>  <RI>
0

>  <Rbt.Current_Directory>
/home/itssahil/PROJECTS/Mol_Feturizer/New_Systems/rnas/1f1t

>  <Rbt.Executable>
rbdock ($Id: //depot/dev/client3/rdock/2013.1/src/exe/rbdock.cxx#4 $)

>  <Rbt.Library>
libRbt.so (2013.1, Build901 2013/11/27)

>  <Rbt.Parameter_File>
/export/apps/rDock/src/rDock_2013.1_src/data/scripts/dock_solv.prm

>  <Rbt.Receptor>
prm/pocket_docking_5.prm

>  <SCORE>
-63.0489

>  <SCORE.INTER>
-63.1384

>  <SCORE.INTER.CONST>
1

>  <SCORE.INTER.POLAR>
0

>  <SCORE.INTER.ROT>
2

>  <SCORE.INTER.SOLV>
11.1417

>  <SCORE.INTER.VDW>
-50.7395

>  <SCORE.INTER.norm>
-2.4284

>  <SCORE.INTRA>
0.0894502

>  <SCORE.INTRA.DIHEDRAL>
-1.2907

>  <SCORE.INTRA.DIHEDRAL.0>
4.18538

>  <SCORE.INTRA.POLAR>
0

>  <SCORE.INTRA.POLAR.0>
0

>  <SCORE.INTRA.REPUL>
0

>  <SCORE.INTRA.REPUL.0>
0

>  <SCORE.INTRA.SOLV>
0.0211166

>  <SCORE.INTRA.SOLV.lig_0>
-5.16926

>  <SCORE.INTRA.VDW>
0.724242

>  <SCORE.INTRA.VDW.0>
1.11912

>  <SCORE.INTRA.norm>
0.00344039

>  <SCORE.RESTR>
0

>  <SCORE.RESTR.CAVITY>
0

>  <SCORE.RESTR.norm>
0

>  <SCORE.SYSTEM>
0

>  <SCORE.SYSTEM.CONST>
0

>  <SCORE.SYSTEM.DIHEDRAL>
0

>  <SCORE.SYSTEM.SOLV>
0

>  <SCORE.SYSTEM.norm>
0

>  <SCORE.heavy>
26

>  <SCORE.norm>
-2.42496

>  <RMSD>
6.135

$$$$
1f1t Malachite green aptamer (Xray 2.8A)
 OpenBabel11021811393D
libRbt.so/2013.1/901 2013/11/27
 26 29  0  0  0  0  0  0  0  0999 V2000
  112.2172  -79.4020  -86.9481 C   0  0  0  0  0  0  0  0  0  0  0  0
  112.3434  -78.9401  -85.5736 C   0  0  0  0  0  0  0  0  0  0  0  0
  111.7826  -77.6784  -85.3663 C   0  0  0  0  0  0  0  0  0  0  0  0
  111.9381  -77.2558  -83.9462 O   0  0  0  0  0  0  0  0  0  0  0  0
  111.4138  -76.1070  -83.7637 C   0  0  0  0  0  0  0  0  0  0  0  0
  111.6268  -75.7794  -82.3541 C   0  0  0  0  0  0  0  0  0  0  0  0
  111.0859  -74.5044  -81.9599 C   0  0  0  0  0  0  0  0  0  0  0  0
  110.3983  -73.6544  -82.8611 C   0  0  0  0  0  0  0  0  0  0  0  0
  110.2283  -74.0341  -84.2513 C   0  0  0  0  0  0  0  0  0  0  0  0
  110.7748  -75.3008  -84.6719 C   0  0  0  0  0  0  0  0  0  0  0  0
  110.5678  -75.6108  -86.1358 C   0  0  0  0  0  0  0  0  0  0  0  0
  111.1509  -76.8785  -86.3121 C   0  0  0  0  0  0  0  0  0  0  0  0
  111.0402  -77.3580  -87.6915 C   0  0  0  0  0  0  0  0  0  0  0  0
  111.6039  -78.6493  -87.9307 C   0  0  0  0  0  0  0  0  0  0  0  0
  109.9228  -74.7515  -87.0051 C   0  0  0  0  0  0  0  0  0  0  0  0
  110.2374  -73.3854  -87.1933 C   0  0  0  0  0  0  0  0  0  0  0  0
  109.6086  -72.5081  -88.0786 C   0  0  0  0  0  0  0  0  0  0  0  0
  108.5195  -72.9886  -88.9156 C   0  0  0  0  0  0  0  0  0  0  0  0
  108.2222  -74.3551  -88.6953 C   0  0  0  0  0  0  0  0  0  0  0  0
  108.8221  -75.2687  -87.8178 C   0  0  0  0  0  0  0  0  0  0  0  0
  112.7222  -80.6427  -87.3113 N   0  3  0  0  0  0  0  0  0  0  0  0
  113.3769  -81.5267  -86.3535 C   0  0  0  0  0  0  0  0  0  0  0  0
  112.6801  -81.2435  -88.6628 C   0  0  0  0  0  0  0  0  0  0  0  0
  111.3258  -74.2002  -80.6089 N   0  0  0  0  0  0  0  0  0  0  0  0
  111.9616  -74.9803  -79.5238 C   0  0  0  0  0  0  0  0  0  0  0  0
  110.8958  -72.8422  -80.1213 C   0  0  0  0  0  0  0  0  0  0  0  0
  1  2  1  0  0  0  0
  1 14  1  0  0  0  0
  1 21  2  0  0  0  0
  2  3  2  0  0  0  0
  3  4  1  0  0  0  0
  3 12  1  0  0  0  0
  4  5  1  0  0  0  0
  5  6  1  0  0  0  0
  5 10  2  0  0  0  0
  6  7  2  0  0  0  0
  7  8  1  0  0  0  0
  7 24  1  0  0  0  0
  8  9  2  0  0  0  0
  9 10  1  0  0  0  0
 10 11  1  0  0  0  0
 11 12  2  0  0  0  0
 11 15  1  0  0  0  0
 12 13  1  0  0  0  0
 13 14  2  0  0  0  0
 15 16  2  0  0  0  0
 15 20  1  0  0  0  0
 16 17  1  0  0  0  0
 17 18  2  0  0  0  0
 18 19  1  0  0  0  0
 19 20  2  0  0  0  0
 21 22  1  0  0  0  0
 21 23  1  0  0  0  0
 24 25  1  0  0  0  0
 24 26  1  0  0  0  0
M  CHG  1  21   1
M  END
>  <CHROM.1>
-3.76066290,52.36992768,111.05789711,-76.19701014,-85.32828769,-1.26919727
-1.06546546,1.05751540

>  <Name>
1f1t Malachite green aptamer (Xray 2.8A)

>  <RI>
0

>  <Rbt.Current_Directory>
/home/itssahil/PROJECTS/Mol_Feturizer/New_Systems/rnas/1f1t

>  <Rbt.Executable>
rbdock ($Id: //depot/dev/client3/rdock/2013.1/src/exe/rbdock.cxx#4 $)

>  <Rbt.Library>
libRbt.so (2013.1, Build901 2013/11/27)

>  <Rbt.Parameter_File>
/export/apps/rDock/src/rDock_2013.1_src/data/scripts/dock_solv.prm

>  <Rbt.Receptor>
prm/pocket_docking_5.prm

>  <SCORE>
-63.0892

>  <SCORE.INTER>
-63.1394

>  <SCORE.INTER.CONST>
1

>  <SCORE.INTER.POLAR>
0

>  <SCORE.INTER.ROT>
2

>  <SCORE.INTER.SOLV>
11.1625

>  <SCORE.INTER.VDW>
-50.7471

>  <SCORE.INTER.norm>
-2.42844

>  <SCORE.INTRA>
0.0501987

>  <SCORE.INTRA.DIHEDRAL>
-1.1417

>  <SCORE.INTRA.DIHEDRAL.0>
4.18538

>  <SCORE.INTRA.POLAR>
0

>  <SCORE.INTRA.POLAR.0>
0

>  <SCORE.INTRA.REPUL>
0

>  <SCORE.INTRA.REPUL.0>
0

>  <SCORE.INTRA.SOLV>
0.0192715

>  <SCORE.INTRA.SOLV.lig_0>
-5.16926

>  <SCORE.INTRA.VDW>
0.611413

>  <SCORE.INTRA.VDW.0>
1.11912

>  <SCORE.INTRA.norm>
0.00193072

>  <SCORE.RESTR>
0

>  <SCORE.RESTR.CAVITY>
0

>  <SCORE.RESTR.norm>
0

>  <SCORE.SYSTEM>
0

>  <SCORE.SYSTEM.CONST>
0

>  <SCORE.SYSTEM.DIHEDRAL>
0

>  <SCORE.SYSTEM.SOLV>
0

>  <SCORE.SYSTEM.norm>
0

>  <SCORE.heavy>
26

>  <SCORE.norm>
-2.42651

>  <RMSD>
6.135

$$$$
1f1t Malachite green aptamer (Xray 2.8A)
 OpenBabel11021811393D
libRbt.so/2013.1/901 2013/11/27
 26 29  0  0  0  0  0  0  0  0999 V2000
  112.2262  -79.3890  -86.9571 C   0  0  0  0  0  0  0  0  0  0  0  0
  112.3539  -78.9288  -85.5822 C   0  0  0  0  0  0  0  0  0  0  0  0
  111.7866  -77.6706  -85.3712 C   0  0  0  0  0  0  0  0  0  0  0  0
  111.9440  -77.2495  -83.9508 O   0  0  0  0  0  0  0  0  0  0  0  0
  111.4138  -76.1040  -83.7648 C   0  0  0  0  0  0  0  0  0  0  0  0
  111.6292  -75.7775  -82.3553 C   0  0  0  0  0  0  0  0  0  0  0  0
  111.0823  -74.5062  -81.9574 C   0  0  0  0  0  0  0  0  0  0  0  0
  110.3872  -73.6586  -82.8551 C   0  0  0  0  0  0  0  0  0  0  0  0
  110.2151  -74.0369  -84.2454 C   0  0  0  0  0  0  0  0  0  0  0  0
  110.7676  -75.2999  -84.6697 C   0  0  0  0  0  0  0  0  0  0  0  0
  110.5579  -75.6085  -86.1336 C   0  0  0  0  0  0  0  0  0  0  0  0
  111.1475  -76.8727  -86.3137 C   0  0  0  0  0  0  0  0  0  0  0  0
  111.0355  -77.3505  -87.6936 C   0  0  0  0  0  0  0  0  0  0  0  0
  111.6057  -78.6382  -87.9365 C   0  0  0  0  0  0  0  0  0  0  0  0
  109.9055  -74.7515  -86.9995 C   0  0  0  0  0  0  0  0  0  0  0  0
  110.2209  -73.3869  -87.1967 C   0  0  0  0  0  0  0  0  0  0  0  0
  109.5846  -72.5119  -88.0789 C   0  0  0  0  0  0  0  0  0  0  0  0
  108.4856  -72.9935  -88.9022 C   0  0  0  0  0  0  0  0  0  0  0  0
  108.1877  -74.3584  -88.6731 C   0  0  0  0  0  0  0  0  0  0  0  0
  108.7951  -75.2696  -87.7981 C   0  0  0  0  0  0  0  0  0  0  0  0
  112.7371  -80.6263  -87.3239 N   0  3  0  0  0  0  0  0  0  0  0  0
  113.3995  -81.5082  -86.3695 C   0  0  0  0  0  0  0  0  0  0  0  0
  112.6943  -81.2251  -88.6762 C   0  0  0  0  0  0  0  0  0  0  0  0
  111.3244  -74.2029  -80.6066 N   0  0  0  0  0  0  0  0  0  0  0  0
  111.9707  -74.9799  -79.5255 C   0  0  0  0  0  0  0  0  0  0  0  0
  110.8848  -72.8496  -80.1144 C   0  0  0  0  0  0  0  0  0  0  0  0
  1  2  1  0  0  0  0
  1 14  1  0  0  0  0
  1 21  2  0  0  0  0
  2  3  2  0  0  0  0
  3  4  1  0  0  0  0
  3 12  1  0  0  0  0
  4  5  1  0  0  0  0
  5  6  1  0  0  0  0
  5 10  2  0  0  0  0
  6  7  2  0  0  0  0
  7  8  1  0  0  0  0
  7 24  1  0  0  0  0
  8  9  2  0  0  0  0
  9 10  1  0  0  0  0
 10 11  1  0  0  0  0
 11 12  2  0  0  0  0
 11 15  1  0  0  0  0
 12 13  1  0  0  0  0
 13 14  2  0  0  0  0
 15 16  2  0  0  0  0
 15 20  1  0  0  0  0
 16 17  1  0  0  0  0
 17 18  2  0  0  0  0
 18 19  1  0  0  0  0
 19 20  2  0  0  0  0
 21 22  1  0  0  0  0
 21 23  1  0  0  0  0
 24 25  1  0  0  0  0
 24 26  1  0  0  0  0
M  CHG  1  21   1
M  END
>  <CHROM.1>
-3.59155460,53.08138373,111.05355644,-76.19336485,-85.32837499,-1.26867733
-1.05896621,1.05957735

>  <Name>
1f1t Malachite green aptamer (Xray 2.8A)

>  <RI>
0

>  <Rbt.Current_Directory>
/home/itssahil/PROJECTS/Mol_Feturizer/New_Systems/rnas/1f1t

>  <Rbt.Executable>
rbdock ($Id: //depot/dev/client3/rdock/2013.1/src/exe/rbdock.cxx#4 $)

>  <Rbt.Library>
libRbt.so (2013.1, Build901 2013/11/27)

>  <Rbt.Parameter_File>
/export/apps/rDock/src/rDock_2013.1_src/data/scripts/dock_solv.prm

>  <Rbt.Receptor>
prm/pocket_docking_6.prm

>  <SCORE>
-63.0366

>  <SCORE.INTER>
-63.0887

>  <SCORE.INTER.CONST>
1

>  <SCORE.INTER.POLAR>
0

>  <SCORE.INTER.ROT>
2

>  <SCORE.INTER.SOLV>
11.1494

>  <SCORE.INTER.VDW>
-50.7089

>  <SCORE.INTER.norm>
-2.42649

>  <SCORE.INTRA>
0.0521039

>  <SCORE.INTRA.DIHEDRAL>
-1.08909

>  <SCORE.INTRA.DIHEDRAL.0>
4.18538

>  <SCORE.INTRA.POLAR>
0

>  <SCORE.INTRA.POLAR.0>
0

>  <SCORE.INTRA.REPUL>
0

>  <SCORE.INTRA.REPUL.0>
0

>  <SCORE.INTRA.SOLV>
0.0184726

>  <SCORE.INTRA.SOLV.lig_0>
-5.16926

>  <SCORE.INTRA.VDW>
0.587413

>  <SCORE.INTRA.VDW.0>
1.11912

>  <SCORE.INTRA.norm>
0.002004

>  <SCORE.RESTR>
0

>  <SCORE.RESTR.CAVITY>
0

>  <SCORE.RESTR.norm>
0

>  <SCORE.SYSTEM>
0

>  <SCORE.SYSTEM.CONST>
0

>  <SCORE.SYSTEM.DIHEDRAL>
0

>  <SCORE.SYSTEM.SOLV>
0

>  <SCORE.SYSTEM.norm>
0

>  <SCORE.heavy>
26

>  <SCORE.norm>
-2.42448

>  <RMSD>
6.135

$$$$
1f1t Malachite green aptamer (Xray 2.8A)
 OpenBabel11021811393D
libRbt.so/2013.1/901 2013/11/27
 26 29  0  0  0  0  0  0  0  0999 V2000
  112.2253  -79.4017  -86.9537 C   0  0  0  0  0  0  0  0  0  0  0  0
  112.3511  -78.9407  -85.5789 C   0  0  0  0  0  0  0  0  0  0  0  0
  111.7868  -77.6808  -85.3701 C   0  0  0  0  0  0  0  0  0  0  0  0
  111.9420  -77.2591  -83.9496 O   0  0  0  0  0  0  0  0  0  0  0  0
  111.4145  -76.1120  -83.7658 C   0  0  0  0  0  0  0  0  0  0  0  0
  111.6275  -75.7851  -82.3560 C   0  0  0  0  0  0  0  0  0  0  0  0
  111.0832  -74.5120  -81.9603 C   0  0  0  0  0  0  0  0  0  0  0  0
  110.3925  -73.6631  -82.8602 C   0  0  0  0  0  0  0  0  0  0  0  0
  110.2226  -74.0420  -84.2506 C   0  0  0  0  0  0  0  0  0  0  0  0
  110.7726  -75.3068  -84.6728 C   0  0  0  0  0  0  0  0  0  0  0  0
  110.5655  -75.6160  -86.1369 C   0  0  0  0  0  0  0  0  0  0  0  0
  111.1521  -76.8819  -86.3147 C   0  0  0  0  0  0  0  0  0  0  0  0
  111.0419  -77.3604  -87.6945 C   0  0  0  0  0  0  0  0  0  0  0  0
  111.6092  -78.6499  -87.9352 C   0  0  0  0  0  0  0  0  0  0  0  0
  109.9175  -74.7578  -87.0049 C   0  0  0  0  0  0  0  0  0  0  0  0
  110.2308  -73.3917  -87.1952 C   0  0  0  0  0  0  0  0  0  0  0  0
  109.5989  -72.5154  -88.0794 C   0  0  0  0  0  0  0  0  0  0  0  0
  108.5076  -72.9973  -88.9127 C   0  0  0  0  0  0  0  0  0  0  0  0
  108.2116  -74.3637  -88.6904 C   0  0  0  0  0  0  0  0  0  0  0  0
  108.8147  -75.2762  -87.8139 C   0  0  0  0  0  0  0  0  0  0  0  0
  112.7337  -80.6406  -87.3184 N   0  3  0  0  0  0  0  0  0  0  0  0
  113.3915  -81.5236  -86.3618 C   0  0  0  0  0  0  0  0  0  0  0  0
  112.6924  -81.2403  -88.6703 C   0  0  0  0  0  0  0  0  0  0  0  0
  111.3230  -74.2083  -80.6092 N   0  0  0  0  0  0  0  0  0  0  0  0
  111.9638  -74.9867  -79.5257 C   0  0  0  0  0  0  0  0  0  0  0  0
  110.8869  -72.8530  -80.1193 C   0  0  0  0  0  0  0  0  0  0  0  0
  1  2  1  0  0  0  0
  1 14  1  0  0  0  0
  1 21  2  0  0  0  0
  2  3  2  0  0  0  0
  3  4  1  0  0  0  0
  3 12  1  0  0  0  0
  4  5  1  0  0  0  0
  5  6  1  0  0  0  0
  5 10  2  0  0  0  0
  6  7  2  0  0  0  0
  7  8  1  0  0  0  0
  7 24  1  0  0  0  0
  8  9  2  0  0  0  0
  9 10  1  0  0  0  0
 10 11  1  0  0  0  0
 11 12  2  0  0  0  0
 11 15  1  0  0  0  0
 12 13  1  0  0  0  0
 13 14  2  0  0  0  0
 15 16  2  0  0  0  0
 15 20  1  0  0  0  0
 16 17  1  0  0  0  0
 17 18  2  0  0  0  0
 18 19  1  0  0  0  0
 19 20  2  0  0  0  0
 21 22  1  0  0  0  0
 21 23  1  0  0  0  0
 24 25  1  0  0  0  0
 24 26  1  0  0  0  0
M  CHG  1  21   1
M  END
>  <CHROM.1>
-3.64087267,52.58614300,111.05776717,-76.20156533,-85.33015374,-1.26736487
-1.06257438,1.06002133

>  <Name>
1f1t Malachite green aptamer (Xray 2.8A)

>  <RI>
0

>  <Rbt.Current_Directory>
/home/itssahil/PROJECTS/Mol_Feturizer/New_Systems/rnas/1f1t

>  <Rbt.Executable>
rbdock ($Id: //depot/dev/client3/rdock/2013.1/src/exe/rbdock.cxx#4 $)

>  <Rbt.Library>
libRbt.so (2013.1, Build901 2013/11/27)

>  <Rbt.Parameter_File>
/export/apps/rDock/src/rDock_2013.1_src/data/scripts/dock_solv.prm

>  <Rbt.Receptor>
prm/pocket_docking_6.prm

>  <SCORE>
-63.0396

>  <SCORE.INTER>
-63.1023

>  <SCORE.INTER.CONST>
1

>  <SCORE.INTER.POLAR>
0

>  <SCORE.INTER.ROT>
2

>  <SCORE.INTER.SOLV>
11.149

>  <SCORE.INTER.VDW>
-50.7179

>  <SCORE.INTER.norm>
-2.42701

>  <SCORE.INTRA>
0.0627423

>  <SCORE.INTRA.DIHEDRAL>
-1.12773

>  <SCORE.INTRA.DIHEDRAL.0>
4.18538

>  <SCORE.INTRA.POLAR>
0

>  <SCORE.INTRA.POLAR.0>
0

>  <SCORE.INTRA.REPUL>
0

>  <SCORE.INTRA.REPUL.0>
0

>  <SCORE.INTRA.SOLV>
0.0190296

>  <SCORE.INTRA.SOLV.lig_0>
-5.16926

>  <SCORE.INTRA.VDW>
0.61709

>  <SCORE.INTRA.VDW.0>
1.11912

>  <SCORE.INTRA.norm>
0.00241317

>  <SCORE.RESTR>
0

>  <SCORE.RESTR.CAVITY>
0

>  <SCORE.RESTR.norm>
0

>  <SCORE.SYSTEM>
0

>  <SCORE.SYSTEM.CONST>
0

>  <SCORE.SYSTEM.DIHEDRAL>
0

>  <SCORE.SYSTEM.SOLV>
0

>  <SCORE.SYSTEM.norm>
0

>  <SCORE.heavy>
26

>  <SCORE.norm>
-2.4246

>  <RMSD>
6.135

$$$$
1f1t Malachite green aptamer (Xray 2.8A)
 OpenBabel11021811393D
libRbt.so/2013.1/901 2013/11/27
 26 29  0  0  0  0  0  0  0  0999 V2000
  112.2172  -79.3989  -86.9553 C   0  0  0  0  0  0  0  0  0  0  0  0
  112.3445  -78.9379  -85.5807 C   0  0  0  0  0  0  0  0  0  0  0  0
  111.7813  -77.6776  -85.3714 C   0  0  0  0  0  0  0  0  0  0  0  0
  111.9381  -77.2559  -83.9511 O   0  0  0  0  0  0  0  0  0  0  0  0
  111.4116  -76.1084  -83.7669 C   0  0  0  0  0  0  0  0  0  0  0  0
  111.6261  -75.7815  -82.3573 C   0  0  0  0  0  0  0  0  0  0  0  0
  111.0831  -74.5080  -81.9612 C   0  0  0  0  0  0  0  0  0  0  0  0
  110.3922  -73.6587  -82.8606 C   0  0  0  0  0  0  0  0  0  0  0  0
  110.2208  -74.0376  -84.2508 C   0  0  0  0  0  0  0  0  0  0  0  0
  110.7695  -75.3028  -84.6734 C   0  0  0  0  0  0  0  0  0  0  0  0
  110.5608  -75.6119  -86.1372 C   0  0  0  0  0  0  0  0  0  0  0  0
  111.1463  -76.8783  -86.3155 C   0  0  0  0  0  0  0  0  0  0  0  0
  111.0346  -77.3568  -87.6952 C   0  0  0  0  0  0  0  0  0  0  0  0
  111.6007  -78.6467  -87.9363 C   0  0  0  0  0  0  0  0  0  0  0  0
  109.9126  -74.7533  -87.0048 C   0  0  0  0  0  0  0  0  0  0  0  0
  110.2322  -73.3897  -87.2016 C   0  0  0  0  0  0  0  0  0  0  0  0
  109.6002  -72.5131  -88.0854 C   0  0  0  0  0  0  0  0  0  0  0  0
  108.5017  -72.9920  -88.9110 C   0  0  0  0  0  0  0  0  0  0  0  0
  108.1996  -74.3559  -88.6822 C   0  0  0  0  0  0  0  0  0  0  0  0
  108.8025  -75.2686  -87.8057 C   0  0  0  0  0  0  0  0  0  0  0  0
  112.7243  -80.6382  -87.3204 N   0  3  0  0  0  0  0  0  0  0  0  0
  113.3823  -81.5216  -86.3644 C   0  0  0  0  0  0  0  0  0  0  0  0
  112.6813  -81.2379  -88.6723 C   0  0  0  0  0  0  0  0  0  0  0  0
  111.3244  -74.2045  -80.6103 N   0  0  0  0  0  0  0  0  0  0  0  0
  111.9624  -74.9846  -79.5265 C   0  0  0  0  0  0  0  0  0  0  0  0
  110.8937  -72.8472  -80.1212 C   0  0  0  0  0  0  0  0  0  0  0  0
  1  2  1  0  0  0  0
  1 14  1  0  0  0  0
  1 21  2  0  0  0  0
  2  3  2  0  0  0  0
  3  4  1  0  0  0  0
  3 12  1  0  0  0  0
  4  5  1  0  0  0  0
  5  6  1  0  0  0  0
  5 10  2  0  0  0  0
  6  7  2  0  0  0  0
  7  8  1  0  0  0  0
  7 24  1  0  0  0  0
  8  9  2  0  0  0  0
  9 10  1  0  0  0  0
 10 11  1  0  0  0  0
 11 12  2  0  0  0  0
 11 15  1  0  0  0  0
 12 13  1  0  0  0  0
 13 14  2  0  0  0  0
 15 16  2  0  0  0  0
 15 20  1  0  0  0  0
 16 17  1  0  0  0  0
 17 18  2  0  0  0  0
 18 19  1  0  0  0  0
 19 20  2  0  0  0  0
 21 22  1  0  0  0  0
 21 23  1  0  0  0  0
 24 25  1  0  0  0  0
 24 26  1  0  0  0  0
M  CHG  1  21   1
M  END
>  <CHROM.1>
-3.82826051,53.01306977,111.05336285,-76.19779783,-85.33089554,-1.26969724
-1.06277284,1.05788022

>  <Name>
1f1t Malachite green aptamer (Xray 2.8A)

>  <RI>
0

>  <Rbt.Current_Directory>
/home/itssahil/PROJECTS/Mol_Feturizer/New_Systems/rnas/1f1t

>  <Rbt.Executable>
rbdock ($Id: //depot/dev/client3/rdock/2013.1/src/exe/rbdock.cxx#4 $)

>  <Rbt.Library>
libRbt.so (2013.1, Build901 2013/11/27)

>  <Rbt.Parameter_File>
/export/apps/rDock/src/rDock_2013.1_src/data/scripts/dock_solv.prm

>  <Rbt.Receptor>
prm/pocket_docking_6.prm

>  <SCORE>
-63.1045

>  <SCORE.INTER>
-63.1592

>  <SCORE.INTER.CONST>
1

>  <SCORE.INTER.POLAR>
0

>  <SCORE.INTER.ROT>
2

>  <SCORE.INTER.SOLV>
11.1508

>  <SCORE.INTER.VDW>
-50.7564

>  <SCORE.INTER.norm>
-2.4292

>  <SCORE.INTRA>
0.0547363

>  <SCORE.INTRA.DIHEDRAL>
-1.08752

>  <SCORE.INTRA.DIHEDRAL.0>
4.18538

>  <SCORE.INTRA.POLAR>
0

>  <SCORE.INTRA.POLAR.0>
0

>  <SCORE.INTRA.REPUL>
0

>  <SCORE.INTRA.REPUL.0>
0

>  <SCORE.INTRA.SOLV>
0.018548

>  <SCORE.INTRA.SOLV.lig_0>
-5.16926

>  <SCORE.INTRA.VDW>
0.589223

>  <SCORE.INTRA.VDW.0>
1.11912

>  <SCORE.INTRA.norm>
0.00210524

>  <SCORE.RESTR>
0

>  <SCORE.RESTR.CAVITY>
0

>  <SCORE.RESTR.norm>
0

>  <SCORE.SYSTEM>
0

>  <SCORE.SYSTEM.CONST>
0

>  <SCORE.SYSTEM.DIHEDRAL>
0

>  <SCORE.SYSTEM.SOLV>
0

>  <SCORE.SYSTEM.norm>
0

>  <SCORE.heavy>
26

>  <SCORE.norm>
-2.42709

>  <RMSD>
6.135

$$$$
1f1t Malachite green aptamer (Xray 2.8A)
 OpenBabel11021811393D
libRbt.so/2013.1/901 2013/11/27
 26 29  0  0  0  0  0  0  0  0999 V2000
  112.2164  -79.3929  -86.9486 C   0  0  0  0  0  0  0  0  0  0  0  0
  112.3416  -78.9335  -85.5732 C   0  0  0  0  0  0  0  0  0  0  0  0
  111.7768  -77.6740  -85.3632 C   0  0  0  0  0  0  0  0  0  0  0  0
  111.9314  -77.2538  -83.9423 O   0  0  0  0  0  0  0  0  0  0  0  0
  111.4034  -76.1071  -83.7573 C   0  0  0  0  0  0  0  0  0  0  0  0
  111.6158  -75.7816  -82.3471 C   0  0  0  0  0  0  0  0  0  0  0  0
  111.0710  -74.5092  -81.9501 C   0  0  0  0  0  0  0  0  0  0  0  0
  110.3803  -73.6595  -82.8493 C   0  0  0  0  0  0  0  0  0  0  0  0
  110.2110  -74.0370  -84.2403 C   0  0  0  0  0  0  0  0  0  0  0  0
  110.7615  -75.3011  -84.6636 C   0  0  0  0  0  0  0  0  0  0  0  0
  110.5550  -75.6087  -86.1281 C   0  0  0  0  0  0  0  0  0  0  0  0
  111.1421  -76.8742  -86.3072 C   0  0  0  0  0  0  0  0  0  0  0  0
  111.0326  -77.3513  -87.6875 C   0  0  0  0  0  0  0  0  0  0  0  0
  111.6004  -78.6403  -87.9294 C   0  0  0  0  0  0  0  0  0  0  0  0
  109.9070  -74.7498  -86.9954 C   0  0  0  0  0  0  0  0  0  0  0  0
  110.2246  -73.3852  -87.1894 C   0  0  0  0  0  0  0  0  0  0  0  0
  109.5927  -72.5083  -88.0729 C   0  0  0  0  0  0  0  0  0  0  0  0
  108.4966  -72.9877  -88.9014 C   0  0  0  0  0  0  0  0  0  0  0  0
  108.1965  -74.3526  -88.6755 C   0  0  0  0  0  0  0  0  0  0  0  0
  108.7994  -75.2657  -87.7994 C   0  0  0  0  0  0  0  0  0  0  0  0
  112.7253  -80.6313  -87.3145 N   0  3  0  0  0  0  0  0  0  0  0  0
  113.3831  -81.5151  -86.3587 C   0  0  0  0  0  0  0  0  0  0  0  0
  112.6847  -81.2295  -88.6672 C   0  0  0  0  0  0  0  0  0  0  0  0
  111.3102  -74.2070  -80.5986 N   0  0  0  0  0  0  0  0  0  0  0  0
  111.9737  -74.9760  -79.5222 C   0  0  0  0  0  0  0  0  0  0  0  0
  110.8458  -72.8644  -80.0998 C   0  0  0  0  0  0  0  0  0  0  0  0
  1  2  1  0  0  0  0
  1 14  1  0  0  0  0
  1 21  2  0  0  0  0
  2  3  2  0  0  0  0
  3  4  1  0  0  0  0
  3 12  1  0  0  0  0
  4  5  1  0  0  0  0
  5  6  1  0  0  0  0
  5 10  2  0  0  0  0
  6  7  2  0  0  0  0
  7  8  1  0  0  0  0
  7 24  1  0  0  0  0
  8  9  2  0  0  0  0
  9 10  1  0  0  0  0
 10 11  1  0  0  0  0
 11 12  2  0  0  0  0
 11 15  1  0  0  0  0
 12 13  1  0  0  0  0
 13 14  2  0  0  0  0
 15 16  2  0  0  0  0
 15 20  1  0  0  0  0
 16 17  1  0  0  0  0
 17 18  2  0  0  0  0
 18 19  1  0  0  0  0
 19 20  2  0  0  0  0
 21 22  1  0  0  0  0
 21 23  1  0  0  0  0
 24 25  1  0  0  0  0
 24 26  1  0  0  0  0
M  CHG  1  21   1
M  END
>  <CHROM.1>
-2.30601634,52.95025075,111.04696264,-76.19510439,-85.32179433,-1.26602006
-1.06198444,1.06232172

>  <Name>
1f1t Malachite green aptamer (Xray 2.8A)

>  <RI>
0

>  <Rbt.Current_Directory>
/home/itssahil/PROJECTS/Mol_Feturizer/New_Systems/rnas/1f1t

>  <Rbt.Executable>
rbdock ($Id: //depot/dev/client3/rdock/2013.1/src/exe/rbdock.cxx#4 $)

>  <Rbt.Library>
libRbt.so (2013.1, Build901 2013/11/27)

>  <Rbt.Parameter_File>
/export/apps/rDock/src/rDock_2013.1_src/data/scripts/dock_solv.prm

>  <Rbt.Receptor>
prm/pocket_docking_6.prm

>  <SCORE>
-63.0786

>  <SCORE.INTER>
-63.1279

>  <SCORE.INTER.CONST>
1

>  <SCORE.INTER.POLAR>
0

>  <SCORE.INTER.ROT>
2

>  <SCORE.INTER.SOLV>
11.1375

>  <SCORE.INTER.VDW>
-50.7311

>  <SCORE.INTER.norm>
-2.428

>  <SCORE.INTRA>
0.0493648

>  <SCORE.INTRA.DIHEDRAL>
-1.1306

>  <SCORE.INTRA.DIHEDRAL.0>
4.18538

>  <SCORE.INTRA.POLAR>
0

>  <SCORE.INTRA.POLAR.0>
0

>  <SCORE.INTRA.REPUL>
0

>  <SCORE.INTRA.REPUL.0>
0

>  <SCORE.INTRA.SOLV>
0.0186273

>  <SCORE.INTRA.SOLV.lig_0>
-5.16926

>  <SCORE.INTRA.VDW>
0.605349

>  <SCORE.INTRA.VDW.0>
1.11912

>  <SCORE.INTRA.norm>
0.00189865

>  <SCORE.RESTR>
0

>  <SCORE.RESTR.CAVITY>
0

>  <SCORE.RESTR.norm>
0

>  <SCORE.SYSTEM>
0

>  <SCORE.SYSTEM.CONST>
0

>  <SCORE.SYSTEM.DIHEDRAL>
0

>  <SCORE.SYSTEM.SOLV>
0

>  <SCORE.SYSTEM.norm>
0

>  <SCORE.heavy>
26

>  <SCORE.norm>
-2.4261

>  <RMSD>
6.135

$$$$
1f1t Malachite green aptamer (Xray 2.8A)
 OpenBabel11021811393D
libRbt.so/2013.1/901 2013/11/27
 26 29  0  0  0  0  0  0  0  0999 V2000
  112.2296  -79.3976  -86.9632 C   0  0  0  0  0  0  0  0  0  0  0  0
  112.3557  -78.9371  -85.5883 C   0  0  0  0  0  0  0  0  0  0  0  0
  111.7900  -77.6780  -85.3785 C   0  0  0  0  0  0  0  0  0  0  0  0
  111.9456  -77.2567  -83.9580 O   0  0  0  0  0  0  0  0  0  0  0  0
  111.4169  -76.1103  -83.7732 C   0  0  0  0  0  0  0  0  0  0  0  0
  111.6304  -75.7838  -82.3635 C   0  0  0  0  0  0  0  0  0  0  0  0
  111.0848  -74.5116  -81.9668 C   0  0  0  0  0  0  0  0  0  0  0  0
  110.3925  -73.6631  -82.8659 C   0  0  0  0  0  0  0  0  0  0  0  0
  110.2222  -74.0416  -84.2564 C   0  0  0  0  0  0  0  0  0  0  0  0
  110.7734  -75.3055  -84.6795 C   0  0  0  0  0  0  0  0  0  0  0  0
  110.5657  -75.6143  -86.1435 C   0  0  0  0  0  0  0  0  0  0  0  0
  111.1538  -76.8794  -86.3224 C   0  0  0  0  0  0  0  0  0  0  0  0
  111.0433  -77.3574  -87.7023 C   0  0  0  0  0  0  0  0  0  0  0  0
  111.6119  -78.6461  -87.9439 C   0  0  0  0  0  0  0  0  0  0  0  0
  109.9161  -74.7564  -87.0108 C   0  0  0  0  0  0  0  0  0  0  0  0
  110.2390  -73.3944  -87.2136 C   0  0  0  0  0  0  0  0  0  0  0  0
  109.6056  -72.5188  -88.0972 C   0  0  0  0  0  0  0  0  0  0  0  0
  108.5016  -72.9969  -88.9161 C   0  0  0  0  0  0  0  0  0  0  0  0
  108.1964  -74.3591  -88.6814 C   0  0  0  0  0  0  0  0  0  0  0  0
  108.8007  -75.2709  -87.8048 C   0  0  0  0  0  0  0  0  0  0  0  0
  112.7392  -80.6357  -87.3288 N   0  3  0  0  0  0  0  0  0  0  0  0
  113.3987  -81.5183  -86.3731 C   0  0  0  0  0  0  0  0  0  0  0  0
  112.6978  -81.2348  -88.6810 C   0  0  0  0  0  0  0  0  0  0  0  0
  111.3252  -74.2083  -80.6157 N   0  0  0  0  0  0  0  0  0  0  0  0
  111.9607  -74.9894  -79.5311 C   0  0  0  0  0  0  0  0  0  0  0  0
  110.8962  -72.8502  -80.1272 C   0  0  0  0  0  0  0  0  0  0  0  0
  1  2  1  0  0  0  0
  1 14  1  0  0  0  0
  1 21  2  0  0  0  0
  2  3  2  0  0  0  0
  3  4  1  0  0  0  0
  3 12  1  0  0  0  0
  4  5  1  0  0  0  0
  5  6  1  0  0  0  0
  5 10  2  0  0  0  0
  6  7  2  0  0  0  0
  7  8  1  0  0  0  0
  7 24  1  0  0  0  0
  8  9  2  0  0  0  0
  9 10  1  0  0  0  0
 10 11  1  0  0  0  0
 11 12  2  0  0  0  0
 11 15  1  0  0  0  0
 12 13  1  0  0  0  0
 13 14  2  0  0  0  0
 15 16  2  0  0  0  0
 15 20  1  0  0  0  0
 16 17  1  0  0  0  0
 17 18  2  0  0  0  0
 18 19  1  0  0  0  0
 19 20  2  0  0  0  0
 21 22  1  0  0  0  0
 21 23  1  0  0  0  0
 24 25  1  0  0  0  0
 24 26  1  0  0  0  0
M  CHG  1  21   1
M  END
>  <CHROM.1>
-4.04464306,53.47181876,111.05918038,-76.19960387,-85.33734715,-1.26725160
-1.06123272,1.06050426

>  <Name>
1f1t Malachite green aptamer (Xray 2.8A)

>  <RI>
0

>  <Rbt.Current_Directory>
/home/itssahil/PROJECTS/Mol_Feturizer/New_Systems/rnas/1f1t

>  <Rbt.Executable>
rbdock ($Id: //depot/dev/client3/rdock/2013.1/src/exe/rbdock.cxx#4 $)

>  <Rbt.Library>
libRbt.so (2013.1, Build901 2013/11/27)

>  <Rbt.Parameter_File>
/export/apps/rDock/src/rDock_2013.1_src/data/scripts/dock_solv.prm

>  <Rbt.Receptor>
prm/pocket_docking_6.prm

>  <SCORE>
-63.056

>  <SCORE.INTER>
-63.103

>  <SCORE.INTER.CONST>
1

>  <SCORE.INTER.POLAR>
0

>  <SCORE.INTER.ROT>
2

>  <SCORE.INTER.SOLV>
11.1584

>  <SCORE.INTER.VDW>
-50.7214

>  <SCORE.INTER.norm>
-2.42704

>  <SCORE.INTRA>
0.0469354

>  <SCORE.INTRA.DIHEDRAL>
-1.04369

>  <SCORE.INTRA.DIHEDRAL.0>
4.18538

>  <SCORE.INTRA.POLAR>
0

>  <SCORE.INTRA.POLAR.0>
0

>  <SCORE.INTRA.REPUL>
0

>  <SCORE.INTRA.REPUL.0>
0

>  <SCORE.INTRA.SOLV>
0.0180287

>  <SCORE.INTRA.SOLV.lig_0>
-5.16926

>  <SCORE.INTRA.VDW>
0.559766

>  <SCORE.INTRA.VDW.0>
1.11912

>  <SCORE.INTRA.norm>
0.00180521

>  <SCORE.RESTR>
0

>  <SCORE.RESTR.CAVITY>
0

>  <SCORE.RESTR.norm>
0

>  <SCORE.SYSTEM>
0

>  <SCORE.SYSTEM.CONST>
0

>  <SCORE.SYSTEM.DIHEDRAL>
0

>  <SCORE.SYSTEM.SOLV>
0

>  <SCORE.SYSTEM.norm>
0

>  <SCORE.heavy>
26

>  <SCORE.norm>
-2.42523

>  <RMSD>
6.135

$$$$
1f1t Malachite green aptamer (Xray 2.8A)
 OpenBabel11021811393D
libRbt.so/2013.1/901 2013/11/27
 26 29  0  0  0  0  0  0  0  0999 V2000
  112.2155  -79.4027  -86.9540 C   0  0  0  0  0  0  0  0  0  0  0  0
  112.3427  -78.9411  -85.5795 C   0  0  0  0  0  0  0  0  0  0  0  0
  111.7799  -77.6804  -85.3711 C   0  0  0  0  0  0  0  0  0  0  0  0
  111.9365  -77.2580  -83.9510 O   0  0  0  0  0  0  0  0  0  0  0  0
  111.4103  -76.1103  -83.7674 C   0  0  0  0  0  0  0  0  0  0  0  0
  111.6246  -75.7827  -82.3580 C   0  0  0  0  0  0  0  0  0  0  0  0
  111.0820  -74.5088  -81.9627 C   0  0  0  0  0  0  0  0  0  0  0  0
  110.3916  -73.6597  -82.8626 C   0  0  0  0  0  0  0  0  0  0  0  0
  110.2204  -74.0393  -84.2527 C   0  0  0  0  0  0  0  0  0  0  0  0
  110.7687  -75.3049  -84.6745 C   0  0  0  0  0  0  0  0  0  0  0  0
  110.5603  -75.6147  -86.1383 C   0  0  0  0  0  0  0  0  0  0  0  0
  111.1455  -76.8813  -86.3158 C   0  0  0  0  0  0  0  0  0  0  0  0
  111.0339  -77.3606  -87.6952 C   0  0  0  0  0  0  0  0  0  0  0  0
  111.5996  -78.6508  -87.9355 C   0  0  0  0  0  0  0  0  0  0  0  0
  109.9127  -74.7563  -87.0064 C   0  0  0  0  0  0  0  0  0  0  0  0
  110.2238  -73.3893  -87.1937 C   0  0  0  0  0  0  0  0  0  0  0  0
  109.5923  -72.5128  -88.0779 C   0  0  0  0  0  0  0  0  0  0  0  0
  108.5038  -72.9953  -88.9146 C   0  0  0  0  0  0  0  0  0  0  0  0
  108.2100  -74.3626  -88.6952 C   0  0  0  0  0  0  0  0  0  0  0  0
  108.8127  -75.2755  -87.8187 C   0  0  0  0  0  0  0  0  0  0  0  0
  112.7223  -80.6424  -87.3183 N   0  3  0  0  0  0  0  0  0  0  0  0
  113.3798  -81.5255  -86.3616 C   0  0  0  0  0  0  0  0  0  0  0  0
  112.6795  -81.2428  -88.6699 C   0  0  0  0  0  0  0  0  0  0  0  0
  111.3230  -74.2047  -80.6119 N   0  0  0  0  0  0  0  0  0  0  0  0
  111.9611  -74.9842  -79.5277 C   0  0  0  0  0  0  0  0  0  0  0  0
  110.8918  -72.8473  -80.1234 C   0  0  0  0  0  0  0  0  0  0  0  0
  1  2  1  0  0  0  0
  1 14  1  0  0  0  0
  1 21  2  0  0  0  0
  2  3  2  0  0  0  0
  3  4  1  0  0  0  0
  3 12  1  0  0  0  0
  4  5  1  0  0  0  0
  5  6  1  0  0  0  0
  5 10  2  0  0  0  0
  6  7  2  0  0  0  0
  7  8  1  0  0  0  0
  7 24  1  0  0  0  0
  8  9  2  0  0  0  0
  9 10  1  0  0  0  0
 10 11  1  0  0  0  0
 11 12  2  0  0  0  0
 11 15  1  0  0  0  0
 12 13  1  0  0  0  0
 13 14  2  0  0  0  0
 15 16  2  0  0  0  0
 15 20  1  0  0  0  0
 16 17  1  0  0  0  0
 17 18  2  0  0  0  0
 18 19  1  0  0  0  0
 19 20  2  0  0  0  0
 21 22  1  0  0  0  0
 21 23  1  0  0  0  0
 24 25  1  0  0  0  0
 24 26  1  0  0  0  0
M  CHG  1  21   1
M  END
>  <CHROM.1>
-3.78627616,52.31206214,111.05256829,-76.20034518,-85.33156789,-1.26973394
-1.06327515,1.05738869

>  <Name>
1f1t Malachite green aptamer (Xray 2.8A)

>  <RI>
0

>  <Rbt.Current_Directory>
/home/itssahil/PROJECTS/Mol_Feturizer/New_Systems/rnas/1f1t

>  <Rbt.Executable>
rbdock ($Id: //depot/dev/client3/rdock/2013.1/src/exe/rbdock.cxx#4 $)

>  <Rbt.Library>
libRbt.so (2013.1, Build901 2013/11/27)

>  <Rbt.Parameter_File>
/export/apps/rDock/src/rDock_2013.1_src/data/scripts/dock_solv.prm

>  <Rbt.Receptor>
prm/pocket_docking_6.prm

>  <SCORE>
-63.1114

>  <SCORE.INTER>
-63.1631

>  <SCORE.INTER.CONST>
1

>  <SCORE.INTER.POLAR>
0

>  <SCORE.INTER.ROT>
2

>  <SCORE.INTER.SOLV>
11.1486

>  <SCORE.INTER.VDW>
-50.7582

>  <SCORE.INTER.norm>
-2.42935

>  <SCORE.INTRA>
0.0516319

>  <SCORE.INTRA.DIHEDRAL>
-1.14562

>  <SCORE.INTRA.DIHEDRAL.0>
4.18538

>  <SCORE.INTRA.POLAR>
0

>  <SCORE.INTRA.POLAR.0>
0

>  <SCORE.INTRA.REPUL>
0

>  <SCORE.INTRA.REPUL.0>
0

>  <SCORE.INTRA.SOLV>
0.0193362

>  <SCORE.INTRA.SOLV.lig_0>
-5.16926

>  <SCORE.INTRA.VDW>
0.614776

>  <SCORE.INTRA.VDW.0>
1.11912

>  <SCORE.INTRA.norm>
0.00198584

>  <SCORE.RESTR>
0

>  <SCORE.RESTR.CAVITY>
0

>  <SCORE.RESTR.norm>
0

>  <SCORE.SYSTEM>
0

>  <SCORE.SYSTEM.CONST>
0

>  <SCORE.SYSTEM.DIHEDRAL>
0

>  <SCORE.SYSTEM.SOLV>
0

>  <SCORE.SYSTEM.norm>
0

>  <SCORE.heavy>
26

>  <SCORE.norm>
-2.42736

>  <RMSD>
6.135

$$$$
1f1t Malachite green aptamer (Xray 2.8A)
 OpenBabel11021811393D
libRbt.so/2013.1/901 2013/11/27
 26 29  0  0  0  0  0  0  0  0999 V2000
  112.2213  -79.3960  -86.9663 C   0  0  0  0  0  0  0  0  0  0  0  0
  112.3526  -78.9379  -85.5911 C   0  0  0  0  0  0  0  0  0  0  0  0
  111.7878  -77.6792  -85.3770 C   0  0  0  0  0  0  0  0  0  0  0  0
  111.9488  -77.2603  -83.9564 O   0  0  0  0  0  0  0  0  0  0  0  0
  111.4207  -76.1143  -83.7677 C   0  0  0  0  0  0  0  0  0  0  0  0
  111.6396  -75.7901  -82.3582 C   0  0  0  0  0  0  0  0  0  0  0  0
  111.0955  -74.5186  -81.9572 C   0  0  0  0  0  0  0  0  0  0  0  0
  110.3998  -73.6686  -82.8522 C   0  0  0  0  0  0  0  0  0  0  0  0
  110.2242  -74.0447  -84.2427 C   0  0  0  0  0  0  0  0  0  0  0  0
  110.7738  -75.3079  -84.6701 C   0  0  0  0  0  0  0  0  0  0  0  0
  110.5606  -75.6141  -86.1339 C   0  0  0  0  0  0  0  0  0  0  0  0
  111.1479  -76.8789  -86.3171 C   0  0  0  0  0  0  0  0  0  0  0  0
  111.0322  -77.3546  -87.6974 C   0  0  0  0  0  0  0  0  0  0  0  0
  111.5999  -78.6429  -87.9434 C   0  0  0  0  0  0  0  0  0  0  0  0
  109.9077  -74.7548  -86.9972 C   0  0  0  0  0  0  0  0  0  0  0  0
  110.2111  -73.3852  -87.1776 C   0  0  0  0  0  0  0  0  0  0  0  0
  109.5743  -72.5076  -88.0568 C   0  0  0  0  0  0  0  0  0  0  0  0
  108.4880  -72.9918  -88.8954 C   0  0  0  0  0  0  0  0  0  0  0  0
  108.2018  -74.3618  -88.6829 C   0  0  0  0  0  0  0  0  0  0  0  0
  108.8101  -75.2759  -87.8116 C   0  0  0  0  0  0  0  0  0  0  0  0
  112.7295  -80.6336  -87.3360 N   0  3  0  0  0  0  0  0  0  0  0  0
  113.3926  -81.5178  -86.3842 C   0  0  0  0  0  0  0  0  0  0  0  0
  112.6829  -81.2304  -88.6890 C   0  0  0  0  0  0  0  0  0  0  0  0
  111.3410  -74.2176  -80.6066 N   0  0  0  0  0  0  0  0  0  0  0  0
  111.9884  -74.9971  -79.5279 C   0  0  0  0  0  0  0  0  0  0  0  0
  110.9045  -72.8643  -80.1115 C   0  0  0  0  0  0  0  0  0  0  0  0
  1  2  1  0  0  0  0
  1 14  1  0  0  0  0
  1 21  2  0  0  0  0
  2  3  2  0  0  0  0
  3  4  1  0  0  0  0
  3 12  1  0  0  0  0
  4  5  1  0  0  0  0
  5  6  1  0  0  0  0
  5 10  2  0  0  0  0
  6  7  2  0  0  0  0
  7  8  1  0  0  0  0
  7 24  1  0  0  0  0
  8  9  2  0  0  0  0
  9 10  1  0  0  0  0
 10 11  1  0  0  0  0
 11 12  2  0  0  0  0
 11 15  1  0  0  0  0
 12 13  1  0  0  0  0
 13 14  2  0  0  0  0
 15 16  2  0  0  0  0
 15 20  1  0  0  0  0
 16 17  1  0  0  0  0
 17 18  2  0  0  0  0
 18 19  1  0  0  0  0
 19 20  2  0  0  0  0
 21 22  1  0  0  0  0
 21 23  1  0  0  0  0
 24 25  1  0  0  0  0
 24 26  1  0  0  0  0
M  CHG  1  21   1
M  END
>  <CHROM.1>
-3.59204417,52.01691739,111.05721236,-76.20088089,-85.33070152,-1.27421632
-1.05939297,1.05626223

>  <Name>
1f1t Malachite green aptamer (Xray 2.8A)

>  <RI>
0

>  <Rbt.Current_Directory>
/home/itssahil/PROJECTS/Mol_Feturizer/New_Systems/rnas/1f1t

>  <Rbt.Executable>
rbdock ($Id: //depot/dev/client3/rdock/2013.1/src/exe/rbdock.cxx#4 $)

>  <Rbt.Library>
libRbt.so (2013.1, Build901 2013/11/27)

>  <Rbt.Parameter_File>
/export/apps/rDock/src/rDock_2013.1_src/data/scripts/dock_solv.prm

>  <Rbt.Receptor>
prm/pocket_docking_7.prm

>  <SCORE>
-63.0767

>  <SCORE.INTER>
-63.1341

>  <SCORE.INTER.CONST>
1

>  <SCORE.INTER.POLAR>
0

>  <SCORE.INTER.ROT>
2

>  <SCORE.INTER.SOLV>
11.1373

>  <SCORE.INTER.VDW>
-50.7351

>  <SCORE.INTER.norm>
-2.42823

>  <SCORE.INTRA>
0.0574012

>  <SCORE.INTRA.DIHEDRAL>
-1.17543

>  <SCORE.INTRA.DIHEDRAL.0>
4.18538

>  <SCORE.INTRA.POLAR>
0

>  <SCORE.INTRA.POLAR.0>
0

>  <SCORE.INTRA.REPUL>
0

>  <SCORE.INTRA.REPUL.0>
0

>  <SCORE.INTRA.SOLV>
0.0196678

>  <SCORE.INTRA.SOLV.lig_0>
-5.16926

>  <SCORE.INTRA.VDW>
0.635285

>  <SCORE.INTRA.VDW.0>
1.11912

>  <SCORE.INTRA.norm>
0.00220774

>  <SCORE.RESTR>
0

>  <SCORE.RESTR.CAVITY>
0

>  <SCORE.RESTR.norm>
0

>  <SCORE.SYSTEM>
0

>  <SCORE.SYSTEM.CONST>
0

>  <SCORE.SYSTEM.DIHEDRAL>
0

>  <SCORE.SYSTEM.SOLV>
0

>  <SCORE.SYSTEM.norm>
0

>  <SCORE.heavy>
26

>  <SCORE.norm>
-2.42603

>  <RMSD>
6.135

$$$$
1f1t Malachite green aptamer (Xray 2.8A)
 OpenBabel11021811393D
libRbt.so/2013.1/901 2013/11/27
 26 29  0  0  0  0  0  0  0  0999 V2000
  112.2184  -79.3900  -86.9521 C   0  0  0  0  0  0  0  0  0  0  0  0
  112.3432  -78.9318  -85.5762 C   0  0  0  0  0  0  0  0  0  0  0  0
  111.7807  -77.6714  -85.3657 C   0  0  0  0  0  0  0  0  0  0  0  0
  111.9349  -77.2526  -83.9443 O   0  0  0  0  0  0  0  0  0  0  0  0
  111.4089  -76.1050  -83.7589 C   0  0  0  0  0  0  0  0  0  0  0  0
  111.6208  -75.7811  -82.3483 C   0  0  0  0  0  0  0  0  0  0  0  0
  111.0780  -74.5079  -81.9508 C   0  0  0  0  0  0  0  0  0  0  0  0
  110.3897  -73.6563  -82.8500 C   0  0  0  0  0  0  0  0  0  0  0  0
  110.2209  -74.0323  -84.2413 C   0  0  0  0  0  0  0  0  0  0  0  0
  110.7694  -75.2971  -84.6652 C   0  0  0  0  0  0  0  0  0  0  0  0
  110.5635  -75.6032  -86.1301 C   0  0  0  0  0  0  0  0  0  0  0  0
  111.1484  -76.8697  -86.3096 C   0  0  0  0  0  0  0  0  0  0  0  0
  111.0391  -77.3455  -87.6904 C   0  0  0  0  0  0  0  0  0  0  0  0
  111.6046  -78.6354  -87.9328 C   0  0  0  0  0  0  0  0  0  0  0  0
  109.9179  -74.7424  -86.9973 C   0  0  0  0  0  0  0  0  0  0  0  0
  110.2642  -73.3893  -87.2202 C   0  0  0  0  0  0  0  0  0  0  0  0
  109.6348  -72.5111  -88.1042 C   0  0  0  0  0  0  0  0  0  0  0  0
  108.5097  -72.9764  -88.9013 C   0  0  0  0  0  0  0  0  0  0  0  0
  108.1815  -74.3297  -88.6467 C   0  0  0  0  0  0  0  0  0  0  0  0
  108.7809  -75.2435  -87.7689 C   0  0  0  0  0  0  0  0  0  0  0  0
  112.7252  -80.6290  -87.3185 N   0  3  0  0  0  0  0  0  0  0  0  0
  113.3805  -81.5148  -86.3628 C   0  0  0  0  0  0  0  0  0  0  0  0
  112.6846  -81.2261  -88.6716 C   0  0  0  0  0  0  0  0  0  0  0  0
  111.3167  -74.2072  -80.5988 N   0  0  0  0  0  0  0  0  0  0  0  0
  111.9561  -74.9881  -79.5164 C   0  0  0  0  0  0  0  0  0  0  0  0
  110.8808  -72.8527  -80.1066 C   0  0  0  0  0  0  0  0  0  0  0  0
  1  2  1  0  0  0  0
  1 14  1  0  0  0  0
  1 21  2  0  0  0  0
  2  3  2  0  0  0  0
  3  4  1  0  0  0  0
  3 12  1  0  0  0  0
  4  5  1  0  0  0  0
  5  6  1  0  0  0  0
  5 10  2  0  0  0  0
  6  7  2  0  0  0  0
  7  8  1  0  0  0  0
  7 24  1  0  0  0  0
  8  9  2  0  0  0  0
  9 10  1  0  0  0  0
 10 11  1  0  0  0  0
 11 12  2  0  0  0  0
 11 15  1  0  0  0  0
 12 13  1  0  0  0  0
 13 14  2  0  0  0  0
 15 16  2  0  0  0  0
 15 20  1  0  0  0  0
 16 17  1  0  0  0  0
 17 18  2  0  0  0  0
 18 19  1  0  0  0  0
 19 20  2  0  0  0  0
 21 22  1  0  0  0  0
 21 23  1  0  0  0  0
 24 25  1  0  0  0  0
 24 26  1  0  0  0  0
M  CHG  1  21   1
M  END
>  <CHROM.1>
-3.57276988,55.00895929,111.05356193,-76.19111254,-85.32361666,-1.26622019
-1.06422748,1.06272409

>  <Name>
1f1t Malachite green aptamer (Xray 2.8A)

>  <RI>
0

>  <Rbt.Current_Directory>
/home/itssahil/PROJECTS/Mol_Feturizer/New_Systems/rnas/1f1t

>  <Rbt.Executable>
rbdock ($Id: //depot/dev/client3/rdock/2013.1/src/exe/rbdock.cxx#4 $)

>  <Rbt.Library>
libRbt.so (2013.1, Build901 2013/11/27)

>  <Rbt.Parameter_File>
/export/apps/rDock/src/rDock_2013.1_src/data/scripts/dock_solv.prm

>  <Rbt.Receptor>
prm/pocket_docking_7.prm

>  <SCORE>
-63.0311

>  <SCORE.INTER>
-63.05

>  <SCORE.INTER.CONST>
1

>  <SCORE.INTER.POLAR>
0

>  <SCORE.INTER.ROT>
2

>  <SCORE.INTER.SOLV>
11.1555

>  <SCORE.INTER.VDW>
-50.6852

>  <SCORE.INTER.norm>
-2.425

>  <SCORE.INTRA>
0.0189422

>  <SCORE.INTRA.DIHEDRAL>
-0.935589

>  <SCORE.INTRA.DIHEDRAL.0>
4.18538

>  <SCORE.INTRA.POLAR>
0

>  <SCORE.INTRA.POLAR.0>
0

>  <SCORE.INTRA.REPUL>
0

>  <SCORE.INTRA.REPUL.0>
0

>  <SCORE.INTRA.SOLV>
0.0162838

>  <SCORE.INTRA.SOLV.lig_0>
-5.16926

>  <SCORE.INTRA.VDW>
0.478595

>  <SCORE.INTRA.VDW.0>
1.11912

>  <SCORE.INTRA.norm>
0.000728545

>  <SCORE.RESTR>
0

>  <SCORE.RESTR.CAVITY>
0

>  <SCORE.RESTR.norm>
0

>  <SCORE.SYSTEM>
0

>  <SCORE.SYSTEM.CONST>
0

>  <SCORE.SYSTEM.DIHEDRAL>
0

>  <SCORE.SYSTEM.SOLV>
0

>  <SCORE.SYSTEM.norm>
0

>  <SCORE.heavy>
26

>  <SCORE.norm>
-2.42427

>  <RMSD>
6.135

$$$$
1f1t Malachite green aptamer (Xray 2.8A)
 OpenBabel11021811393D
libRbt.so/2013.1/901 2013/11/27
 26 29  0  0  0  0  0  0  0  0999 V2000
  112.2170  -79.3999  -86.9510 C   0  0  0  0  0  0  0  0  0  0  0  0
  112.3454  -78.9380  -85.5768 C   0  0  0  0  0  0  0  0  0  0  0  0
  111.7813  -77.6781  -85.3677 C   0  0  0  0  0  0  0  0  0  0  0  0
  111.9392  -77.2554  -83.9478 O   0  0  0  0  0  0  0  0  0  0  0  0
  111.4119  -76.1082  -83.7637 C   0  0  0  0  0  0  0  0  0  0  0  0
  111.6276  -75.7804  -82.3546 C   0  0  0  0  0  0  0  0  0  0  0  0
  111.0838  -74.5071  -81.9586 C   0  0  0  0  0  0  0  0  0  0  0  0
  110.3912  -73.6589  -82.8577 C   0  0  0  0  0  0  0  0  0  0  0  0
  110.2188  -74.0388  -84.2476 C   0  0  0  0  0  0  0  0  0  0  0  0
  110.7681  -75.3037  -84.6700 C   0  0  0  0  0  0  0  0  0  0  0  0
  110.5582  -75.6139  -86.1334 C   0  0  0  0  0  0  0  0  0  0  0  0
  111.1447  -76.8798  -86.3116 C   0  0  0  0  0  0  0  0  0  0  0  0
  111.0319  -77.3593  -87.6909 C   0  0  0  0  0  0  0  0  0  0  0  0
  111.5989  -78.6488  -87.9318 C   0  0  0  0  0  0  0  0  0  0  0  0
  109.9084  -74.7564  -87.0008 C   0  0  0  0  0  0  0  0  0  0  0  0
  110.2179  -73.3892  -87.1890 C   0  0  0  0  0  0  0  0  0  0  0  0
  109.5842  -72.5135  -88.0724 C   0  0  0  0  0  0  0  0  0  0  0  0
  108.4948  -72.9973  -88.9072 C   0  0  0  0  0  0  0  0  0  0  0  0
  108.2026  -74.3648  -88.6870 C   0  0  0  0  0  0  0  0  0  0  0  0
  108.8076  -75.2769  -87.8112 C   0  0  0  0  0  0  0  0  0  0  0  0
  112.7249  -80.6390  -87.3159 N   0  3  0  0  0  0  0  0  0  0  0  0
  113.3847  -81.5212  -86.3600 C   0  0  0  0  0  0  0  0  0  0  0  0
  112.6811  -81.2395  -88.6674 C   0  0  0  0  0  0  0  0  0  0  0  0
  111.3262  -74.2025  -80.6082 N   0  0  0  0  0  0  0  0  0  0  0  0
  111.9655  -74.9817  -79.5244 C   0  0  0  0  0  0  0  0  0  0  0  0
  110.8954  -72.8451  -80.1196 C   0  0  0  0  0  0  0  0  0  0  0  0
  1  2  1  0  0  0  0
  1 14  1  0  0  0  0
  1 21  2  0  0  0  0
  2  3  2  0  0  0  0
  3  4  1  0  0  0  0
  3 12  1  0  0  0  0
  4  5  1  0  0  0  0
  5  6  1  0  0  0  0
  5 10  2  0  0  0  0
  6  7  2  0  0  0  0
  7  8  1  0  0  0  0
  7 24  1  0  0  0  0
  8  9  2  0  0  0  0
  9 10  1  0  0  0  0
 10 11  1  0  0  0  0
 11 12  2  0  0  0  0
 11 15  1  0  0  0  0
 12 13  1  0  0  0  0
 13 14  2  0  0  0  0
 15 16  2  0  0  0  0
 15 20  1  0  0  0  0
 16 17  1  0  0  0  0
 17 18  2  0  0  0  0
 18 19  1  0  0  0  0
 19 20  2  0  0  0  0
 21 22  1  0  0  0  0
 21 23  1  0  0  0  0
 24 25  1  0  0  0  0
 24 26  1  0  0  0  0
M  CHG  1  21   1
M  END
>  <CHROM.1>
-3.85712795,52.33974061,111.05220780,-76.19887629,-85.32734622,-1.27079727
-1.06157801,1.05638586

>  <Name>
1f1t Malachite green aptamer (Xray 2.8A)

>  <RI>
0

>  <Rbt.Current_Directory>
/home/itssahil/PROJECTS/Mol_Feturizer/New_Systems/rnas/1f1t

>  <Rbt.Executable>
rbdock ($Id: //depot/dev/client3/rdock/2013.1/src/exe/rbdock.cxx#4 $)

>  <Rbt.Library>
libRbt.so (2013.1, Build901 2013/11/27)

>  <Rbt.Parameter_File>
/export/apps/rDock/src/rDock_2013.1_src/data/scripts/dock_solv.prm

>  <Rbt.Receptor>
prm/pocket_docking_7.prm

>  <SCORE>
-63.12

>  <SCORE.INTER>
-63.1714

>  <SCORE.INTER.CONST>
1

>  <SCORE.INTER.POLAR>
0

>  <SCORE.INTER.ROT>
2

>  <SCORE.INTER.SOLV>
11.1421

>  <SCORE.INTER.VDW>
-50.7616

>  <SCORE.INTER.norm>
-2.42967

>  <SCORE.INTRA>
0.0513952

>  <SCORE.INTRA.DIHEDRAL>
-1.14119

>  <SCORE.INTRA.DIHEDRAL.0>
4.18538

>  <SCORE.INTRA.POLAR>
0

>  <SCORE.INTRA.POLAR.0>
0

>  <SCORE.INTRA.REPUL>
0

>  <SCORE.INTRA.REPUL.0>
0

>  <SCORE.INTRA.SOLV>
0.0193047

>  <SCORE.INTRA.SOLV.lig_0>
-5.16926

>  <SCORE.INTRA.VDW>
0.612339

>  <SCORE.INTRA.VDW.0>
1.11912

>  <SCORE.INTRA.norm>
0.00197674

>  <SCORE.RESTR>
0

>  <SCORE.RESTR.CAVITY>
0

>  <SCORE.RESTR.norm>
0

>  <SCORE.SYSTEM>
0

>  <SCORE.SYSTEM.CONST>
0

>  <SCORE.SYSTEM.DIHEDRAL>
0

>  <SCORE.SYSTEM.SOLV>
0

>  <SCORE.SYSTEM.norm>
0

>  <SCORE.heavy>
26

>  <SCORE.norm>
-2.42769

>  <RMSD>
6.135

$$$$
1f1t Malachite green aptamer (Xray 2.8A)
 OpenBabel11021811393D
libRbt.so/2013.1/901 2013/11/27
 26 29  0  0  0  0  0  0  0  0999 V2000
  112.2517  -79.4030  -86.9633 C   0  0  0  0  0  0  0  0  0  0  0  0
  112.3758  -78.9458  -85.5871 C   0  0  0  0  0  0  0  0  0  0  0  0
  111.8096  -77.6873  -85.3750 C   0  0  0  0  0  0  0  0  0  0  0  0
  111.9632  -77.2695  -83.9532 O   0  0  0  0  0  0  0  0  0  0  0  0
  111.4339  -76.1237  -83.7664 C   0  0  0  0  0  0  0  0  0  0  0  0
  111.6454  -75.8006  -82.3556 C   0  0  0  0  0  0  0  0  0  0  0  0
  111.0991  -74.5294  -81.9565 C   0  0  0  0  0  0  0  0  0  0  0  0
  110.4079  -73.6789  -82.8545 C   0  0  0  0  0  0  0  0  0  0  0  0
  110.2396  -74.0540  -84.2462 C   0  0  0  0  0  0  0  0  0  0  0  0
  110.7916  -75.3168  -84.6716 C   0  0  0  0  0  0  0  0  0  0  0  0
  110.5860  -75.6220  -86.1367 C   0  0  0  0  0  0  0  0  0  0  0  0
  111.1745  -76.8865  -86.3178 C   0  0  0  0  0  0  0  0  0  0  0  0
  111.0660  -77.3612  -87.6991 C   0  0  0  0  0  0  0  0  0  0  0  0
  111.6353  -78.6492  -87.9431 C   0  0  0  0  0  0  0  0  0  0  0  0
  109.9374  -74.7621  -87.0028 C   0  0  0  0  0  0  0  0  0  0  0  0
  110.2444  -73.3934  -87.1837 C   0  0  0  0  0  0  0  0  0  0  0  0
  109.6120  -72.5153  -88.0657 C   0  0  0  0  0  0  0  0  0  0  0  0
  108.5270  -72.9980  -88.9068 C   0  0  0  0  0  0  0  0  0  0  0  0
  108.2372  -74.3672  -88.6937 C   0  0  0  0  0  0  0  0  0  0  0  0
  108.8410  -75.2816  -87.8197 C   0  0  0  0  0  0  0  0  0  0  0  0
  112.7620  -80.6401  -87.3313 N   0  3  0  0  0  0  0  0  0  0  0  0
  113.4203  -81.5249  -86.3767 C   0  0  0  0  0  0  0  0  0  0  0  0
  112.7226  -81.2359  -88.6850 C   0  0  0  0  0  0  0  0  0  0  0  0
  111.3375  -74.2294  -80.6044 N   0  0  0  0  0  0  0  0  0  0  0  0
  112.0006  -74.9999  -79.5288 C   0  0  0  0  0  0  0  0  0  0  0  0
  110.8724  -72.8878  -80.1036 C   0  0  0  0  0  0  0  0  0  0  0  0
  1  2  1  0  0  0  0
  1 14  1  0  0  0  0
  1 21  2  0  0  0  0
  2  3  2  0  0  0  0
  3  4  1  0  0  0  0
  3 12  1  0  0  0  0
  4  5  1  0  0  0  0
  5  6  1  0  0  0  0
  5 10  2  0  0  0  0
  6  7  2  0  0  0  0
  7  8  1  0  0  0  0
  7 24  1  0  0  0  0
  8  9  2  0  0  0  0
  9 10  1  0  0  0  0
 10 11  1  0  0  0  0
 11 12  2  0  0  0  0
 11 15  1  0  0  0  0
 12 13  1  0  0  0  0
 13 14  2  0  0  0  0
 15 16  2  0  0  0  0
 15 20  1  0  0  0  0
 16 17  1  0  0  0  0
 17 18  2  0  0  0  0
 18 19  1  0  0  0  0
 19 20  2  0  0  0  0
 21 22  1  0  0  0  0
 21 23  1  0  0  0  0
 24 25  1  0  0  0  0
 24 26  1  0  0  0  0
M  CHG  1  21   1
M  END
>  <CHROM.1>
-2.34873071,52.23368950,111.07833502,-76.20927988,-85.33133013,-1.26440249
-1.06136303,1.06558742

>  <Name>
1f1t Malachite green aptamer (Xray 2.8A)

>  <RI>
0

>  <Rbt.Current_Directory>
/home/itssahil/PROJECTS/Mol_Feturizer/New_Systems/rnas/1f1t

>  <Rbt.Executable>
rbdock ($Id: //depot/dev/client3/rdock/2013.1/src/exe/rbdock.cxx#4 $)

>  <Rbt.Library>
libRbt.so (2013.1, Build901 2013/11/27)

>  <Rbt.Parameter_File>
/export/apps/rDock/src/rDock_2013.1_src/data/scripts/dock_solv.prm

>  <Rbt.Receptor>
prm/pocket_docking_7.prm

>  <SCORE>
-63.0158

>  <SCORE.INTER>
-63.063

>  <SCORE.INTER.CONST>
1

>  <SCORE.INTER.POLAR>
0

>  <SCORE.INTER.ROT>
2

>  <SCORE.INTER.SOLV>
11.149

>  <SCORE.INTER.VDW>
-50.6916

>  <SCORE.INTER.norm>
-2.4255

>  <SCORE.INTRA>
0.0471169

>  <SCORE.INTRA.DIHEDRAL>
-1.18789

>  <SCORE.INTRA.DIHEDRAL.0>
4.18538

>  <SCORE.INTRA.POLAR>
0

>  <SCORE.INTRA.POLAR.0>
0

>  <SCORE.INTRA.REPUL>
0

>  <SCORE.INTRA.REPUL.0>
0

>  <SCORE.INTRA.SOLV>
0.019432

>  <SCORE.INTRA.SOLV.lig_0>
-5.16926

>  <SCORE.INTRA.VDW>
0.631344

>  <SCORE.INTRA.VDW.0>
1.11912

>  <SCORE.INTRA.norm>
0.00181219

>  <SCORE.RESTR>
0

>  <SCORE.RESTR.CAVITY>
0

>  <SCORE.RESTR.norm>
0

>  <SCORE.SYSTEM>
0

>  <SCORE.SYSTEM.CONST>
0

>  <SCORE.SYSTEM.DIHEDRAL>
0

>  <SCORE.SYSTEM.SOLV>
0

>  <SCORE.SYSTEM.norm>
0

>  <SCORE.heavy>
26

>  <SCORE.norm>
-2.42369

>  <RMSD>
6.135

$$$$
1f1t Malachite green aptamer (Xray 2.8A)
 OpenBabel11021811393D
libRbt.so/2013.1/901 2013/11/27
 26 29  0  0  0  0  0  0  0  0999 V2000
  112.2169  -79.3980  -86.9530 C   0  0  0  0  0  0  0  0  0  0  0  0
  112.3422  -78.9376  -85.5780 C   0  0  0  0  0  0  0  0  0  0  0  0
  111.7789  -77.6772  -85.3691 C   0  0  0  0  0  0  0  0  0  0  0  0
  111.9336  -77.2561  -83.9484 O   0  0  0  0  0  0  0  0  0  0  0  0
  111.4070  -76.1086  -83.7645 C   0  0  0  0  0  0  0  0  0  0  0  0
  111.6194  -75.7824  -82.3545 C   0  0  0  0  0  0  0  0  0  0  0  0
  111.0760  -74.5089  -81.9587 C   0  0  0  0  0  0  0  0  0  0  0  0
  110.3866  -73.6591  -82.8587 C   0  0  0  0  0  0  0  0  0  0  0  0
  110.2173  -74.0375  -84.2494 C   0  0  0  0  0  0  0  0  0  0  0  0
  110.7664  -75.3026  -84.6716 C   0  0  0  0  0  0  0  0  0  0  0  0
  110.5599  -75.6111  -86.1359 C   0  0  0  0  0  0  0  0  0  0  0  0
  111.1455  -76.8774  -86.3138 C   0  0  0  0  0  0  0  0  0  0  0  0
  111.0358  -77.3554  -87.6939 C   0  0  0  0  0  0  0  0  0  0  0  0
  111.6021  -78.6453  -87.9346 C   0  0  0  0  0  0  0  0  0  0  0  0
  109.9132  -74.7520  -87.0041 C   0  0  0  0  0  0  0  0  0  0  0  0
  110.2437  -73.3926  -87.2119 C   0  0  0  0  0  0  0  0  0  0  0  0
  109.6132  -72.5158  -88.0965 C   0  0  0  0  0  0  0  0  0  0  0  0
  108.5044  -72.9898  -88.9111 C   0  0  0  0  0  0  0  0  0  0  0  0
  108.1916  -74.3495  -88.6715 C   0  0  0  0  0  0  0  0  0  0  0  0
  108.7927  -75.2622  -87.7938 C   0  0  0  0  0  0  0  0  0  0  0  0
  112.7244  -80.6372  -87.3178 N   0  3  0  0  0  0  0  0  0  0  0  0
  113.3809  -81.5211  -86.3611 C   0  0  0  0  0  0  0  0  0  0  0  0
  112.6835  -81.2364  -88.6700 C   0  0  0  0  0  0  0  0  0  0  0  0
  111.3152  -74.2059  -80.6073 N   0  0  0  0  0  0  0  0  0  0  0  0
  111.9736  -74.9767  -79.5290 C   0  0  0  0  0  0  0  0  0  0  0  0
  110.8570  -72.8603  -80.1109 C   0  0  0  0  0  0  0  0  0  0  0  0
  1  2  1  0  0  0  0
  1 14  1  0  0  0  0
  1 21  2  0  0  0  0
  2  3  2  0  0  0  0
  3  4  1  0  0  0  0
  3 12  1  0  0  0  0
  4  5  1  0  0  0  0
  5  6  1  0  0  0  0
  5 10  2  0  0  0  0
  6  7  2  0  0  0  0
  7  8  1  0  0  0  0
  7 24  1  0  0  0  0
  8  9  2  0  0  0  0
  9 10  1  0  0  0  0
 10 11  1  0  0  0  0
 11 12  2  0  0  0  0
 11 15  1  0  0  0  0
 12 13  1  0  0  0  0
 13 14  2  0  0  0  0
 15 16  2  0  0  0  0
 15 20  1  0  0  0  0
 16 17  1  0  0  0  0
 17 18  2  0  0  0  0
 18 19  1  0  0  0  0
 19 20  2  0  0  0  0
 21 22  1  0  0  0  0
 21 23  1  0  0  0  0
 24 25  1  0  0  0  0
 24 26  1  0  0  0  0
M  CHG  1  21   1
M  END
>  <CHROM.1>
-2.53185148,53.82561913,111.05083007,-76.19742861,-85.32894113,-1.26657228
-1.06317185,1.06098702

>  <Name>
1f1t Malachite green aptamer (Xray 2.8A)

>  <RI>
0

>  <Rbt.Current_Directory>
/home/itssahil/PROJECTS/Mol_Feturizer/New_Systems/rnas/1f1t

>  <Rbt.Executable>
rbdock ($Id: //depot/dev/client3/rdock/2013.1/src/exe/rbdock.cxx#4 $)

>  <Rbt.Library>
libRbt.so (2013.1, Build901 2013/11/27)

>  <Rbt.Parameter_File>
/export/apps/rDock/src/rDock_2013.1_src/data/scripts/dock_solv.prm

>  <Rbt.Receptor>
prm/pocket_docking_8.prm

>  <SCORE>
-63.0789

>  <SCORE.INTER>
-63.1123

>  <SCORE.INTER.CONST>
1

>  <SCORE.INTER.POLAR>
0

>  <SCORE.INTER.ROT>
2

>  <SCORE.INTER.SOLV>
11.1498

>  <SCORE.INTER.VDW>
-50.7248

>  <SCORE.INTER.norm>
-2.4274

>  <SCORE.INTRA>
0.0333589

>  <SCORE.INTRA.DIHEDRAL>
-1.05564

>  <SCORE.INTRA.DIHEDRAL.0>
4.18538

>  <SCORE.INTRA.POLAR>
0

>  <SCORE.INTRA.POLAR.0>
0

>  <SCORE.INTRA.REPUL>
0

>  <SCORE.INTRA.REPUL.0>
0

>  <SCORE.INTRA.SOLV>
0.0176369

>  <SCORE.INTRA.SOLV.lig_0>
-5.16926

>  <SCORE.INTRA.VDW>
0.552361

>  <SCORE.INTRA.VDW.0>
1.11912

>  <SCORE.INTRA.norm>
0.00128303

>  <SCORE.RESTR>
0

>  <SCORE.RESTR.CAVITY>
0

>  <SCORE.RESTR.norm>
0

>  <SCORE.SYSTEM>
0

>  <SCORE.SYSTEM.CONST>
0

>  <SCORE.SYSTEM.DIHEDRAL>
0

>  <SCORE.SYSTEM.SOLV>
0

>  <SCORE.SYSTEM.norm>
0

>  <SCORE.heavy>
26

>  <SCORE.norm>
-2.42611

>  <RMSD>
6.135

$$$$
1f1t Malachite green aptamer (Xray 2.8A)
 OpenBabel11021811393D
libRbt.so/2013.1/901 2013/11/27
 26 29  0  0  0  0  0  0  0  0999 V2000
  112.2469  -79.4116  -86.9669 C   0  0  0  0  0  0  0  0  0  0  0  0
  112.3741  -78.9517  -85.5918 C   0  0  0  0  0  0  0  0  0  0  0  0
  111.8080  -77.6930  -85.3809 C   0  0  0  0  0  0  0  0  0  0  0  0
  111.9648  -77.2724  -83.9603 O   0  0  0  0  0  0  0  0  0  0  0  0
  111.4356  -76.1264  -83.7745 C   0  0  0  0  0  0  0  0  0  0  0  0
  111.6504  -75.8004  -82.3647 C   0  0  0  0  0  0  0  0  0  0  0  0
  111.1044  -74.5287  -81.9669 C   0  0  0  0  0  0  0  0  0  0  0  0
  110.4107  -73.6802  -82.8648 C   0  0  0  0  0  0  0  0  0  0  0  0
  110.2391  -74.0582  -84.2553 C   0  0  0  0  0  0  0  0  0  0  0  0
  110.7906  -75.3215  -84.6796 C   0  0  0  0  0  0  0  0  0  0  0  0
  110.5816  -75.6297  -86.1436 C   0  0  0  0  0  0  0  0  0  0  0  0
  111.1702  -76.8944  -86.3237 C   0  0  0  0  0  0  0  0  0  0  0  0
  111.0585  -77.3718  -87.7037 C   0  0  0  0  0  0  0  0  0  0  0  0
  111.6277  -78.6600  -87.9466 C   0  0  0  0  0  0  0  0  0  0  0  0
  109.9305  -74.7719  -87.0097 C   0  0  0  0  0  0  0  0  0  0  0  0
  110.2294  -73.4007  -87.1863 C   0  0  0  0  0  0  0  0  0  0  0  0
  109.5944  -72.5245  -88.0682 C   0  0  0  0  0  0  0  0  0  0  0  0
  108.5154  -73.0120  -88.9142 C   0  0  0  0  0  0  0  0  0  0  0  0
  108.2336  -74.3835  -88.7055 C   0  0  0  0  0  0  0  0  0  0  0  0
  108.8402  -75.2963  -87.8317 C   0  0  0  0  0  0  0  0  0  0  0  0
  112.7568  -80.6493  -87.3336 N   0  3  0  0  0  0  0  0  0  0  0  0
  113.4179  -81.5319  -86.3790 C   0  0  0  0  0  0  0  0  0  0  0  0
  112.7144  -81.2477  -88.6861 C   0  0  0  0  0  0  0  0  0  0  0  0
  111.3460  -74.2259  -80.6159 N   0  0  0  0  0  0  0  0  0  0  0  0
  111.9947  -75.0021  -79.5356 C   0  0  0  0  0  0  0  0  0  0  0  0
  110.9028  -72.8742  -80.1225 C   0  0  0  0  0  0  0  0  0  0  0  0
  1  2  1  0  0  0  0
  1 14  1  0  0  0  0
  1 21  2  0  0  0  0
  2  3  2  0  0  0  0
  3  4  1  0  0  0  0
  3 12  1  0  0  0  0
  4  5  1  0  0  0  0
  5  6  1  0  0  0  0
  5 10  2  0  0  0  0
  6  7  2  0  0  0  0
  7  8  1  0  0  0  0
  7 24  1  0  0  0  0
  8  9  2  0  0  0  0
  9 10  1  0  0  0  0
 10 11  1  0  0  0  0
 11 12  2  0  0  0  0
 11 15  1  0  0  0  0
 12 13  1  0  0  0  0
 13 14  2  0  0  0  0
 15 16  2  0  0  0  0
 15 20  1  0  0  0  0
 16 17  1  0  0  0  0
 17 18  2  0  0  0  0
 18 19  1  0  0  0  0
 19 20  2  0  0  0  0
 21 22  1  0  0  0  0
 21 23  1  0  0  0  0
 24 25  1  0  0  0  0
 24 26  1  0  0  0  0
M  CHG  1  21   1
M  END
>  <CHROM.1>
-3.37382696,51.69361839,111.07639995,-76.21515594,-85.33838902,-1.26872892
-1.06016497,1.05985668

>  <Name>
1f1t Malachite green aptamer (Xray 2.8A)

>  <RI>
0

>  <Rbt.Current_Directory>
/home/itssahil/PROJECTS/Mol_Feturizer/New_Systems/rnas/1f1t

>  <Rbt.Executable>
rbdock ($Id: //depot/dev/client3/rdock/2013.1/src/exe/rbdock.cxx#4 $)

>  <Rbt.Library>
libRbt.so (2013.1, Build901 2013/11/27)

>  <Rbt.Parameter_File>
/export/apps/rDock/src/rDock_2013.1_src/data/scripts/dock_solv.prm

>  <Rbt.Receptor>
prm/pocket_docking_8.prm

>  <SCORE>
-63.0469

>  <SCORE.INTER>
-63.111

>  <SCORE.INTER.CONST>
1

>  <SCORE.INTER.POLAR>
0

>  <SCORE.INTER.ROT>
2

>  <SCORE.INTER.SOLV>
11.1431

>  <SCORE.INTER.VDW>
-50.7217

>  <SCORE.INTER.norm>
-2.42735

>  <SCORE.INTRA>
0.0640999

>  <SCORE.INTRA.DIHEDRAL>
-1.20797

>  <SCORE.INTRA.DIHEDRAL.0>
4.18538

>  <SCORE.INTRA.POLAR>
0

>  <SCORE.INTRA.POLAR.0>
0

>  <SCORE.INTRA.REPUL>
0

>  <SCORE.INTRA.REPUL.0>
0

>  <SCORE.INTRA.SOLV>
0.0200301

>  <SCORE.INTRA.SOLV.lig_0>
-5.16926

>  <SCORE.INTRA.VDW>
0.65807

>  <SCORE.INTRA.VDW.0>
1.11912

>  <SCORE.INTRA.norm>
0.00246538

>  <SCORE.RESTR>
0

>  <SCORE.RESTR.CAVITY>
0

>  <SCORE.RESTR.norm>
0

>  <SCORE.SYSTEM>
0

>  <SCORE.SYSTEM.CONST>
0

>  <SCORE.SYSTEM.DIHEDRAL>
0

>  <SCORE.SYSTEM.SOLV>
0

>  <SCORE.SYSTEM.norm>
0

>  <SCORE.heavy>
26

>  <SCORE.norm>
-2.42488

>  <RMSD>
6.135

$$$$
1f1t Malachite green aptamer (Xray 2.8A)
 OpenBabel11021811393D
libRbt.so/2013.1/901 2013/11/27
 26 29  0  0  0  0  0  0  0  0999 V2000
  112.2133  -79.4008  -86.9515 C   0  0  0  0  0  0  0  0  0  0  0  0
  112.3415  -78.9394  -85.5771 C   0  0  0  0  0  0  0  0  0  0  0  0
  111.7782  -77.6792  -85.3678 C   0  0  0  0  0  0  0  0  0  0  0  0
  111.9359  -77.2570  -83.9478 O   0  0  0  0  0  0  0  0  0  0  0  0
  111.4093  -76.1096  -83.7635 C   0  0  0  0  0  0  0  0  0  0  0  0
  111.6248  -75.7822  -82.3542 C   0  0  0  0  0  0  0  0  0  0  0  0
  111.0817  -74.5087  -81.9580 C   0  0  0  0  0  0  0  0  0  0  0  0
  110.3899  -73.6599  -82.8571 C   0  0  0  0  0  0  0  0  0  0  0  0
  110.2175  -74.0392  -84.2471 C   0  0  0  0  0  0  0  0  0  0  0  0
  110.7662  -75.3044  -84.6697 C   0  0  0  0  0  0  0  0  0  0  0  0
  110.5565  -75.6141  -86.1333 C   0  0  0  0  0  0  0  0  0  0  0  0
  111.1423  -76.8803  -86.3117 C   0  0  0  0  0  0  0  0  0  0  0  0
  111.0295  -77.3593  -87.6911 C   0  0  0  0  0  0  0  0  0  0  0  0
  111.5958  -78.6491  -87.9322 C   0  0  0  0  0  0  0  0  0  0  0  0
  109.9075  -74.7559  -87.0006 C   0  0  0  0  0  0  0  0  0  0  0  0
  110.2279  -73.3928  -87.1997 C   0  0  0  0  0  0  0  0  0  0  0  0
  109.5950  -72.5167  -88.0833 C   0  0  0  0  0  0  0  0  0  0  0  0
  108.4944  -72.9955  -88.9062 C   0  0  0  0  0  0  0  0  0  0  0  0
  108.1916  -74.3589  -88.6752 C   0  0  0  0  0  0  0  0  0  0  0  0
  108.7954  -75.2712  -87.7988 C   0  0  0  0  0  0  0  0  0  0  0  0
  112.7204  -80.6401  -87.3166 N   0  3  0  0  0  0  0  0  0  0  0  0
  113.3794  -81.5230  -86.3608 C   0  0  0  0  0  0  0  0  0  0  0  0
  112.6766  -81.2403  -88.6683 C   0  0  0  0  0  0  0  0  0  0  0  0
  111.3239  -74.2047  -80.6074 N   0  0  0  0  0  0  0  0  0  0  0  0
  111.9611  -74.9851  -79.5234 C   0  0  0  0  0  0  0  0  0  0  0  0
  110.8955  -72.8464  -80.1190 C   0  0  0  0  0  0  0  0  0  0  0  0
  1  2  1  0  0  0  0
  1 14  1  0  0  0  0
  1 21  2  0  0  0  0
  2  3  2  0  0  0  0
  3  4  1  0  0  0  0
  3 12  1  0  0  0  0
  4  5  1  0  0  0  0
  5  6  1  0  0  0  0
  5 10  2  0  0  0  0
  6  7  2  0  0  0  0
  7  8  1  0  0  0  0
  7 24  1  0  0  0  0
  8  9  2  0  0  0  0
  9 10  1  0  0  0  0
 10 11  1  0  0  0  0
 11 12  2  0  0  0  0
 11 15  1  0  0  0  0
 12 13  1  0  0  0  0
 13 14  2  0  0  0  0
 15 16  2  0  0  0  0
 15 20  1  0  0  0  0
 16 17  1  0  0  0  0
 17 18  2  0  0  0  0
 18 19  1  0  0  0  0
 19 20  2  0  0  0  0
 21 22  1  0  0  0  0
 21 23  1  0  0  0  0
 24 25  1  0  0  0  0
 24 26  1  0  0  0  0
M  CHG  1  21   1
M  END
>  <CHROM.1>
-3.93514214,53.11927507,111.04984575,-76.19955378,-85.32716467,-1.27079552
-1.06218560,1.05660418

>  <Name>
1f1t Malachite green aptamer (Xray 2.8A)

>  <RI>
0

>  <Rbt.Current_Directory>
/home/itssahil/PROJECTS/Mol_Feturizer/New_Systems/rnas/1f1t

>  <Rbt.Executable>
rbdock ($Id: //depot/dev/client3/rdock/2013.1/src/exe/rbdock.cxx#4 $)

>  <Rbt.Library>
libRbt.so (2013.1, Build901 2013/11/27)

>  <Rbt.Parameter_File>
/export/apps/rDock/src/rDock_2013.1_src/data/scripts/dock_solv.prm

>  <Rbt.Receptor>
prm/pocket_docking_8.prm

>  <SCORE>
-63.1206

>  <SCORE.INTER>
-63.1738

>  <SCORE.INTER.CONST>
1

>  <SCORE.INTER.POLAR>
0

>  <SCORE.INTER.ROT>
2

>  <SCORE.INTER.SOLV>
11.1381

>  <SCORE.INTER.VDW>
-50.7619

>  <SCORE.INTER.norm>
-2.42976

>  <SCORE.INTRA>
0.0531792

>  <SCORE.INTRA.DIHEDRAL>
-1.07561

>  <SCORE.INTRA.DIHEDRAL.0>
4.18538

>  <SCORE.INTRA.POLAR>
0

>  <SCORE.INTRA.POLAR.0>
0

>  <SCORE.INTRA.REPUL>
0

>  <SCORE.INTRA.REPUL.0>
0

>  <SCORE.INTRA.SOLV>
0.0184276

>  <SCORE.INTRA.SOLV.lig_0>
-5.16926

>  <SCORE.INTRA.VDW>
0.581768

>  <SCORE.INTRA.VDW.0>
1.11912

>  <SCORE.INTRA.norm>
0.00204536

>  <SCORE.RESTR>
0

>  <SCORE.RESTR.CAVITY>
0

>  <SCORE.RESTR.norm>
0

>  <SCORE.SYSTEM>
0

>  <SCORE.SYSTEM.CONST>
0

>  <SCORE.SYSTEM.DIHEDRAL>
0

>  <SCORE.SYSTEM.SOLV>
0

>  <SCORE.SYSTEM.norm>
0

>  <SCORE.heavy>
26

>  <SCORE.norm>
-2.42772

>  <RMSD>
6.135

$$$$
1f1t Malachite green aptamer (Xray 2.8A)
 OpenBabel11021811393D
libRbt.so/2013.1/901 2013/11/27
 26 29  0  0  0  0  0  0  0  0999 V2000
  112.2128  -79.3937  -86.9442 C   0  0  0  0  0  0  0  0  0  0  0  0
  112.3396  -78.9335  -85.5692 C   0  0  0  0  0  0  0  0  0  0  0  0
  111.7763  -77.6733  -85.3596 C   0  0  0  0  0  0  0  0  0  0  0  0
  111.9325  -77.2523  -83.9391 O   0  0  0  0  0  0  0  0  0  0  0  0
  111.4059  -76.1049  -83.7544 C   0  0  0  0  0  0  0  0  0  0  0  0
  111.6199  -75.7787  -82.3446 C   0  0  0  0  0  0  0  0  0  0  0  0
  111.0767  -74.5054  -81.9481 C   0  0  0  0  0  0  0  0  0  0  0  0
  110.3861  -73.6556  -82.8473 C   0  0  0  0  0  0  0  0  0  0  0  0
  110.2153  -74.0338  -84.2378 C   0  0  0  0  0  0  0  0  0  0  0  0
  110.7642  -75.2988  -84.6608 C   0  0  0  0  0  0  0  0  0  0  0  0
  110.5561  -75.6072  -86.1249 C   0  0  0  0  0  0  0  0  0  0  0  0
  111.1417  -76.8735  -86.3036 C   0  0  0  0  0  0  0  0  0  0  0  0
  111.0305  -77.3513  -87.6835 C   0  0  0  0  0  0  0  0  0  0  0  0
  111.5967  -78.6411  -87.9250 C   0  0  0  0  0  0  0  0  0  0  0  0
  109.9082  -74.7482  -86.9922 C   0  0  0  0  0  0  0  0  0  0  0  0
  110.2324  -73.3863  -87.1935 C   0  0  0  0  0  0  0  0  0  0  0  0
  109.6007  -72.5094  -88.0772 C   0  0  0  0  0  0  0  0  0  0  0  0
  108.4975  -72.9860  -88.8979 C   0  0  0  0  0  0  0  0  0  0  0  0
  108.1910  -74.3482  -88.6647 C   0  0  0  0  0  0  0  0  0  0  0  0
  108.7934  -75.2611  -87.7881 C   0  0  0  0  0  0  0  0  0  0  0  0
  112.7201  -80.6329  -87.3097 N   0  3  0  0  0  0  0  0  0  0  0  0
  113.3777  -81.5167  -86.3538 C   0  0  0  0  0  0  0  0  0  0  0  0
  112.6777  -81.2319  -88.6619 C   0  0  0  0  0  0  0  0  0  0  0  0
  111.3174  -74.2025  -80.5970 N   0  0  0  0  0  0  0  0  0  0  0  0
  111.9703  -74.9764  -79.5175 C   0  0  0  0  0  0  0  0  0  0  0  0
  110.8680  -72.8533  -80.1023 C   0  0  0  0  0  0  0  0  0  0  0  0
  1  2  1  0  0  0  0
  1 14  1  0  0  0  0
  1 21  2  0  0  0  0
  2  3  2  0  0  0  0
  3  4  1  0  0  0  0
  3 12  1  0  0  0  0
  4  5  1  0  0  0  0
  5  6  1  0  0  0  0
  5 10  2  0  0  0  0
  6  7  2  0  0  0  0
  7  8  1  0  0  0  0
  7 24  1  0  0  0  0
  8  9  2  0  0  0  0
  9 10  1  0  0  0  0
 10 11  1  0  0  0  0
 11 12  2  0  0  0  0
 11 15  1  0  0  0  0
 12 13  1  0  0  0  0
 13 14  2  0  0  0  0
 15 16  2  0  0  0  0
 15 20  1  0  0  0  0
 16 17  1  0  0  0  0
 17 18  2  0  0  0  0
 18 19  1  0  0  0  0
 19 20  2  0  0  0  0
 21 22  1  0  0  0  0
 21 23  1  0  0  0  0
 24 25  1  0  0  0  0
 24 26  1  0  0  0  0
M  CHG  1  21   1
M  END
>  <CHROM.1>
-2.93769893,53.36608347,111.04811408,-76.19353873,-85.31855271,-1.26866034
-1.06263729,1.05927927

>  <Name>
1f1t Malachite green aptamer (Xray 2.8A)

>  <RI>
0

>  <Rbt.Current_Directory>
/home/itssahil/PROJECTS/Mol_Feturizer/New_Systems/rnas/1f1t

>  <Rbt.Executable>
rbdock ($Id: //depot/dev/client3/rdock/2013.1/src/exe/rbdock.cxx#4 $)

>  <Rbt.Library>
libRbt.so (2013.1, Build901 2013/11/27)

>  <Rbt.Parameter_File>
/export/apps/rDock/src/rDock_2013.1_src/data/scripts/dock_solv.prm

>  <Rbt.Receptor>
prm/pocket_docking_8.prm

>  <SCORE>
-63.092

>  <SCORE.INTER>
-63.1354

>  <SCORE.INTER.CONST>
1

>  <SCORE.INTER.POLAR>
0

>  <SCORE.INTER.ROT>
2

>  <SCORE.INTER.SOLV>
11.1386

>  <SCORE.INTER.VDW>
-50.7365

>  <SCORE.INTER.norm>
-2.42829

>  <SCORE.INTRA>
0.0434556

>  <SCORE.INTRA.DIHEDRAL>
-1.08346

>  <SCORE.INTRA.DIHEDRAL.0>
4.18538

>  <SCORE.INTRA.POLAR>
0

>  <SCORE.INTRA.POLAR.0>
0

>  <SCORE.INTRA.REPUL>
0

>  <SCORE.INTRA.REPUL.0>
0

>  <SCORE.INTRA.SOLV>
0.018155

>  <SCORE.INTRA.SOLV.lig_0>
-5.16926

>  <SCORE.INTRA.VDW>
0.576109

>  <SCORE.INTRA.VDW.0>
1.11912

>  <SCORE.INTRA.norm>
0.00167137

>  <SCORE.RESTR>
0

>  <SCORE.RESTR.CAVITY>
0

>  <SCORE.RESTR.norm>
0

>  <SCORE.SYSTEM>
0

>  <SCORE.SYSTEM.CONST>
0

>  <SCORE.SYSTEM.DIHEDRAL>
0

>  <SCORE.SYSTEM.SOLV>
0

>  <SCORE.SYSTEM.norm>
0

>  <SCORE.heavy>
26

>  <SCORE.norm>
-2.42661

>  <RMSD>
6.135

$$$$
1f1t Malachite green aptamer (Xray 2.8A)
 OpenBabel11021811393D
libRbt.so/2013.1/901 2013/11/27
 26 29  0  0  0  0  0  0  0  0999 V2000
  112.2309  -79.4063  -86.9594 C   0  0  0  0  0  0  0  0  0  0  0  0
  112.3564  -78.9456  -85.5845 C   0  0  0  0  0  0  0  0  0  0  0  0
  111.7926  -77.6855  -85.3757 C   0  0  0  0  0  0  0  0  0  0  0  0
  111.9475  -77.2640  -83.9551 O   0  0  0  0  0  0  0  0  0  0  0  0
  111.4205  -76.1167  -83.7713 C   0  0  0  0  0  0  0  0  0  0  0  0
  111.6331  -75.7901  -82.3614 C   0  0  0  0  0  0  0  0  0  0  0  0
  111.0893  -74.5168  -81.9656 C   0  0  0  0  0  0  0  0  0  0  0  0
  110.3993  -73.6675  -82.8657 C   0  0  0  0  0  0  0  0  0  0  0  0
  110.2298  -74.0461  -84.2562 C   0  0  0  0  0  0  0  0  0  0  0  0
  110.7793  -75.3111  -84.6784 C   0  0  0  0  0  0  0  0  0  0  0  0
  110.5726  -75.6199  -86.1426 C   0  0  0  0  0  0  0  0  0  0  0  0
  111.1586  -76.8861  -86.3204 C   0  0  0  0  0  0  0  0  0  0  0  0
  111.0487  -77.3644  -87.7003 C   0  0  0  0  0  0  0  0  0  0  0  0
  111.6155  -78.6540  -87.9410 C   0  0  0  0  0  0  0  0  0  0  0  0
  109.9252  -74.7613  -87.0107 C   0  0  0  0  0  0  0  0  0  0  0  0
  110.2289  -73.3915  -87.1891 C   0  0  0  0  0  0  0  0  0  0  0  0
  109.5978  -72.5145  -88.0731 C   0  0  0  0  0  0  0  0  0  0  0  0
  108.5179  -72.9997  -88.9194 C   0  0  0  0  0  0  0  0  0  0  0  0
  108.2313  -74.3699  -88.7088 C   0  0  0  0  0  0  0  0  0  0  0  0
  108.8340  -75.2834  -87.8329 C   0  0  0  0  0  0  0  0  0  0  0  0
  112.7388  -80.6454  -87.3242 N   0  3  0  0  0  0  0  0  0  0  0  0
  113.3959  -81.5288  -86.3675 C   0  0  0  0  0  0  0  0  0  0  0  0
  112.6977  -81.2448  -88.6762 C   0  0  0  0  0  0  0  0  0  0  0  0
  111.3288  -74.2135  -80.6144 N   0  0  0  0  0  0  0  0  0  0  0  0
  111.9789  -74.9878  -79.5336 C   0  0  0  0  0  0  0  0  0  0  0  0
  110.8809  -72.8633  -80.1211 C   0  0  0  0  0  0  0  0  0  0  0  0
  1  2  1  0  0  0  0
  1 14  1  0  0  0  0
  1 21  2  0  0  0  0
  2  3  2  0  0  0  0
  3  4  1  0  0  0  0
  3 12  1  0  0  0  0
  4  5  1  0  0  0  0
  5  6  1  0  0  0  0
  5 10  2  0  0  0  0
  6  7  2  0  0  0  0
  7  8  1  0  0  0  0
  7 24  1  0  0  0  0
  8  9  2  0  0  0  0
  9 10  1  0  0  0  0
 10 11  1  0  0  0  0
 11 12  2  0  0  0  0
 11 15  1  0  0  0  0
 12 13  1  0  0  0  0
 13 14  2  0  0  0  0
 15 16  2  0  0  0  0
 15 20  1  0  0  0  0
 16 17  1  0  0  0  0
 17 18  2  0  0  0  0
 18 19  1  0  0  0  0
 19 20  2  0  0  0  0
 21 22  1  0  0  0  0
 21 23  1  0  0  0  0
 24 25  1  0  0  0  0
 24 26  1  0  0  0  0
M  CHG  1  21   1
M  END
>  <CHROM.1>
-3.05122594,51.79290864,111.06429695,-76.20590372,-85.33584361,-1.26721896
-1.06305367,1.06038723

>  <Name>
1f1t Malachite green aptamer (Xray 2.8A)

>  <RI>
0

>  <Rbt.Current_Directory>
/home/itssahil/PROJECTS/Mol_Feturizer/New_Systems/rnas/1f1t

>  <Rbt.Executable>
rbdock ($Id: //depot/dev/client3/rdock/2013.1/src/exe/rbdock.cxx#4 $)

>  <Rbt.Library>
libRbt.so (2013.1, Build901 2013/11/27)

>  <Rbt.Parameter_File>
/export/apps/rDock/src/rDock_2013.1_src/data/scripts/dock_solv.prm

>  <Rbt.Receptor>
prm/pocket_docking_8.prm

>  <SCORE>
-63.0264

>  <SCORE.INTER>
-63.0866

>  <SCORE.INTER.CONST>
1

>  <SCORE.INTER.POLAR>
0

>  <SCORE.INTER.ROT>
2

>  <SCORE.INTER.SOLV>
11.1556

>  <SCORE.INTER.VDW>
-50.7096

>  <SCORE.INTER.norm>
-2.42641

>  <SCORE.INTRA>
0.0601957

>  <SCORE.INTRA.DIHEDRAL>
-1.20828

>  <SCORE.INTRA.DIHEDRAL.0>
4.18538

>  <SCORE.INTRA.POLAR>
0

>  <SCORE.INTRA.POLAR.0>
0

>  <SCORE.INTRA.REPUL>
0

>  <SCORE.INTRA.REPUL.0>
0

>  <SCORE.INTRA.SOLV>
0.0199212

>  <SCORE.INTRA.SOLV.lig_0>
-5.16926

>  <SCORE.INTRA.VDW>
0.654373

>  <SCORE.INTRA.VDW.0>
1.11912

>  <SCORE.INTRA.norm>
0.00231522

>  <SCORE.RESTR>
0

>  <SCORE.RESTR.CAVITY>
0

>  <SCORE.RESTR.norm>
0

>  <SCORE.SYSTEM>
0

>  <SCORE.SYSTEM.CONST>
0

>  <SCORE.SYSTEM.DIHEDRAL>
0

>  <SCORE.SYSTEM.SOLV>
0

>  <SCORE.SYSTEM.norm>
0

>  <SCORE.heavy>
26

>  <SCORE.norm>
-2.42409

>  <RMSD>
6.135

$$$$
1f1t Malachite green aptamer (Xray 2.8A)
 OpenBabel11021811393D
libRbt.so/2013.1/901 2013/11/27
 26 29  0  0  0  0  0  0  0  0999 V2000
  112.2495  -79.3971  -86.9630 C   0  0  0  0  0  0  0  0  0  0  0  0
  112.3736  -78.9428  -85.5859 C   0  0  0  0  0  0  0  0  0  0  0  0
  111.8081  -77.6844  -85.3714 C   0  0  0  0  0  0  0  0  0  0  0  0
  111.9617  -77.2695  -83.9488 O   0  0  0  0  0  0  0  0  0  0  0  0
  111.4330  -76.1237  -83.7598 C   0  0  0  0  0  0  0  0  0  0  0  0
  111.6445  -75.8035  -82.3483 C   0  0  0  0  0  0  0  0  0  0  0  0
  111.0987  -74.5328  -81.9468 C   0  0  0  0  0  0  0  0  0  0  0  0
  110.4081  -73.6802  -82.8432 C   0  0  0  0  0  0  0  0  0  0  0  0
  110.2399  -74.0524  -84.2357 C   0  0  0  0  0  0  0  0  0  0  0  0
  110.7913  -75.3147  -84.6635 C   0  0  0  0  0  0  0  0  0  0  0  0
  110.5857  -75.6169  -86.1292 C   0  0  0  0  0  0  0  0  0  0  0  0
  111.1736  -76.8814  -86.3127 C   0  0  0  0  0  0  0  0  0  0  0  0
  111.0651  -77.3533  -87.6949 C   0  0  0  0  0  0  0  0  0  0  0  0
  111.6337  -78.6411  -87.9414 C   0  0  0  0  0  0  0  0  0  0  0  0
  109.9378  -74.7550  -86.9937 C   0  0  0  0  0  0  0  0  0  0  0  0
  110.2379  -73.3833  -87.1634 C   0  0  0  0  0  0  0  0  0  0  0  0
  109.6061  -72.5030  -88.0436 C   0  0  0  0  0  0  0  0  0  0  0  0
  108.5294  -72.9862  -88.8949 C   0  0  0  0  0  0  0  0  0  0  0  0
  108.2462  -74.3585  -88.6929 C   0  0  0  0  0  0  0  0  0  0  0  0
  108.8497  -75.2753  -87.8211 C   0  0  0  0  0  0  0  0  0  0  0  0
  112.7593  -80.6338  -87.3333 N   0  3  0  0  0  0  0  0  0  0  0  0
  113.4170  -81.5209  -86.3805 C   0  0  0  0  0  0  0  0  0  0  0  0
  112.7197  -81.2269  -88.6882 C   0  0  0  0  0  0  0  0  0  0  0  0
  111.3371  -74.2356  -80.5940 N   0  0  0  0  0  0  0  0  0  0  0  0
  111.9640  -75.0246  -79.5102 C   0  0  0  0  0  0  0  0  0  0  0  0
  110.9160  -72.8762  -80.1024 C   0  0  0  0  0  0  0  0  0  0  0  0
  1  2  1  0  0  0  0
  1 14  1  0  0  0  0
  1 21  2  0  0  0  0
  2  3  2  0  0  0  0
  3  4  1  0  0  0  0
  3 12  1  0  0  0  0
  4  5  1  0  0  0  0
  5  6  1  0  0  0  0
  5 10  2  0  0  0  0
  6  7  2  0  0  0  0
  7  8  1  0  0  0  0
  7 24  1  0  0  0  0
  8  9  2  0  0  0  0
  9 10  1  0  0  0  0
 10 11  1  0  0  0  0
 11 12  2  0  0  0  0
 11 15  1  0  0  0  0
 12 13  1  0  0  0  0
 13 14  2  0  0  0  0
 15 16  2  0  0  0  0
 15 20  1  0  0  0  0
 16 17  1  0  0  0  0
 17 18  2  0  0  0  0
 18 19  1  0  0  0  0
 19 20  2  0  0  0  0
 21 22  1  0  0  0  0
 21 23  1  0  0  0  0
 24 25  1  0  0  0  0
 24 26  1  0  0  0  0
M  CHG  1  21   1
M  END
>  <CHROM.1>
-4.42877419,51.65486784,111.07805840,-76.20592948,-85.32506830,-1.26530677
-1.06261107,1.06676282

>  <Name>
1f1t Malachite green aptamer (Xray 2.8A)

>  <RI>
0

>  <Rbt.Current_Directory>
/home/itssahil/PROJECTS/Mol_Feturizer/New_Systems/rnas/1f1t

>  <Rbt.Executable>
rbdock ($Id: //depot/dev/client3/rdock/2013.1/src/exe/rbdock.cxx#4 $)

>  <Rbt.Library>
libRbt.so (2013.1, Build901 2013/11/27)

>  <Rbt.Parameter_File>
/export/apps/rDock/src/rDock_2013.1_src/data/scripts/dock_solv.prm

>  <Rbt.Receptor>
prm/pocket_docking_8.prm

>  <SCORE>
-62.9705

>  <SCORE.INTER>
-63.0414

>  <SCORE.INTER.CONST>
1

>  <SCORE.INTER.POLAR>
0

>  <SCORE.INTER.ROT>
2

>  <SCORE.INTER.SOLV>
11.1401

>  <SCORE.INTER.VDW>
-50.6743

>  <SCORE.INTER.norm>
-2.42467

>  <SCORE.INTRA>
0.0709011

>  <SCORE.INTRA.DIHEDRAL>
-1.178

>  <SCORE.INTRA.DIHEDRAL.0>
4.18538

>  <SCORE.INTRA.POLAR>
0

>  <SCORE.INTRA.POLAR.0>
0

>  <SCORE.INTRA.REPUL>
0

>  <SCORE.INTRA.REPUL.0>
0

>  <SCORE.INTRA.SOLV>
0.0200663

>  <SCORE.INTRA.SOLV.lig_0>
-5.16926

>  <SCORE.INTRA.VDW>
0.649867

>  <SCORE.INTRA.VDW.0>
1.11912

>  <SCORE.INTRA.norm>
0.00272696

>  <SCORE.RESTR>
0

>  <SCORE.RESTR.CAVITY>
0

>  <SCORE.RESTR.norm>
0

>  <SCORE.SYSTEM>
0

>  <SCORE.SYSTEM.CONST>
0

>  <SCORE.SYSTEM.DIHEDRAL>
0

>  <SCORE.SYSTEM.SOLV>
0

>  <SCORE.SYSTEM.norm>
0

>  <SCORE.heavy>
26

>  <SCORE.norm>
-2.42194

>  <RMSD>
6.135

$$$$
1f1t Malachite green aptamer (Xray 2.8A)
 OpenBabel11021811393D
libRbt.so/2013.1/901 2013/11/27
 26 29  0  0  0  0  0  0  0  0999 V2000
  112.2168  -79.3962  -86.9512 C   0  0  0  0  0  0  0  0  0  0  0  0
  112.3434  -78.9364  -85.5761 C   0  0  0  0  0  0  0  0  0  0  0  0
  111.7806  -77.6760  -85.3662 C   0  0  0  0  0  0  0  0  0  0  0  0
  111.9367  -77.2555  -83.9454 O   0  0  0  0  0  0  0  0  0  0  0  0
  111.4106  -76.1079  -83.7606 C   0  0  0  0  0  0  0  0  0  0  0  0
  111.6243  -75.7823  -82.3506 C   0  0  0  0  0  0  0  0  0  0  0  0
  111.0816  -74.5089  -81.9538 C   0  0  0  0  0  0  0  0  0  0  0  0
  110.3917  -73.6585  -82.8530 C   0  0  0  0  0  0  0  0  0  0  0  0
  110.2211  -74.0362  -84.2436 C   0  0  0  0  0  0  0  0  0  0  0  0
  110.7694  -75.3013  -84.6669 C   0  0  0  0  0  0  0  0  0  0  0  0
  110.5616  -75.6091  -86.1311 C   0  0  0  0  0  0  0  0  0  0  0  0
  111.1467  -76.8756  -86.3101 C   0  0  0  0  0  0  0  0  0  0  0  0
  111.0356  -77.3530  -87.6902 C   0  0  0  0  0  0  0  0  0  0  0  0
  111.6013  -78.6429  -87.9320 C   0  0  0  0  0  0  0  0  0  0  0  0
  109.9144  -74.7495  -86.9984 C   0  0  0  0  0  0  0  0  0  0  0  0
  110.2433  -73.3893  -87.2038 C   0  0  0  0  0  0  0  0  0  0  0  0
  109.6123  -72.5120  -88.0875 C   0  0  0  0  0  0  0  0  0  0  0  0
  108.5046  -72.9860  -88.9036 C   0  0  0  0  0  0  0  0  0  0  0  0
  108.1935  -74.3465  -88.6663 C   0  0  0  0  0  0  0  0  0  0  0  0
  108.7951  -75.2599  -87.7896 C   0  0  0  0  0  0  0  0  0  0  0  0
  112.7236  -80.6354  -87.3170 N   0  3  0  0  0  0  0  0  0  0  0  0
  113.3805  -81.5199  -86.3612 C   0  0  0  0  0  0  0  0  0  0  0  0
  112.6813  -81.2340  -88.6694 C   0  0  0  0  0  0  0  0  0  0  0  0
  111.3220  -74.2066  -80.6025 N   0  0  0  0  0  0  0  0  0  0  0  0
  111.9648  -74.9853  -79.5206 C   0  0  0  0  0  0  0  0  0  0  0  0
  110.8845  -72.8524  -80.1107 C   0  0  0  0  0  0  0  0  0  0  0  0
  1  2  1  0  0  0  0
  1 14  1  0  0  0  0
  1 21  2  0  0  0  0
  2  3  2  0  0  0  0
  3  4  1  0  0  0  0
  3 12  1  0  0  0  0
  4  5  1  0  0  0  0
  5  6  1  0  0  0  0
  5 10  2  0  0  0  0
  6  7  2  0  0  0  0
  7  8  1  0  0  0  0
  7 24  1  0  0  0  0
  8  9  2  0  0  0  0
  9 10  1  0  0  0  0
 10 11  1  0  0  0  0
 11 12  2  0  0  0  0
 11 15  1  0  0  0  0
 12 13  1  0  0  0  0
 13 14  2  0  0  0  0
 15 16  2  0  0  0  0
 15 20  1  0  0  0  0
 16 17  1  0  0  0  0
 17 18  2  0  0  0  0
 18 19  1  0  0  0  0
 19 20  2  0  0  0  0
 21 22  1  0  0  0  0
 21 23  1  0  0  0  0
 24 25  1  0  0  0  0
 24 26  1  0  0  0  0
M  CHG  1  21   1
M  END
>  <CHROM.1>
-3.48721203,53.68413819,111.05318646,-76.19591348,-85.32484234,-1.26869493
-1.06332418,1.05953319

>  <Name>
1f1t Malachite green aptamer (Xray 2.8A)

>  <RI>
0

>  <Rbt.Current_Directory>
/home/itssahil/PROJECTS/Mol_Feturizer/New_Systems/rnas/1f1t

>  <Rbt.Executable>
rbdock ($Id: //depot/dev/client3/rdock/2013.1/src/exe/rbdock.cxx#4 $)

>  <Rbt.Library>
libRbt.so (2013.1, Build901 2013/11/27)

>  <Rbt.Parameter_File>
/export/apps/rDock/src/rDock_2013.1_src/data/scripts/dock_solv.prm

>  <Rbt.Receptor>
prm/pocket_docking_8.prm

>  <SCORE>
-63.0903

>  <SCORE.INTER>
-63.1303

>  <SCORE.INTER.CONST>
1

>  <SCORE.INTER.POLAR>
0

>  <SCORE.INTER.ROT>
2

>  <SCORE.INTER.SOLV>
11.1462

>  <SCORE.INTER.VDW>
-50.7356

>  <SCORE.INTER.norm>
-2.42809

>  <SCORE.INTRA>
0.0400099

>  <SCORE.INTRA.DIHEDRAL>
-1.04356

>  <SCORE.INTRA.DIHEDRAL.0>
4.18538

>  <SCORE.INTRA.POLAR>
0

>  <SCORE.INTRA.POLAR.0>
0

>  <SCORE.INTRA.REPUL>
0

>  <SCORE.INTRA.REPUL.0>
0

>  <SCORE.INTRA.SOLV>
0.017792

>  <SCORE.INTRA.SOLV.lig_0>
-5.16926

>  <SCORE.INTRA.VDW>
0.552895

>  <SCORE.INTRA.VDW.0>
1.11912

>  <SCORE.INTRA.norm>
0.00153884

>  <SCORE.RESTR>
0

>  <SCORE.RESTR.CAVITY>
0

>  <SCORE.RESTR.norm>
0

>  <SCORE.SYSTEM>
0

>  <SCORE.SYSTEM.CONST>
0

>  <SCORE.SYSTEM.DIHEDRAL>
0

>  <SCORE.SYSTEM.SOLV>
0

>  <SCORE.SYSTEM.norm>
0

>  <SCORE.heavy>
26

>  <SCORE.norm>
-2.42655

>  <RMSD>
6.135

$$$$
1f1t Malachite green aptamer (Xray 2.8A)
 OpenBabel11021811393D
libRbt.so/2013.1/901 2013/11/27
 26 29  0  0  0  0  0  0  0  0999 V2000
  112.2354  -79.4203  -86.9887 C   0  0  0  0  0  0  0  0  0  0  0  0
  112.3617  -78.9686  -85.6109 C   0  0  0  0  0  0  0  0  0  0  0  0
  111.7989  -77.7094  -85.3938 C   0  0  0  0  0  0  0  0  0  0  0  0
  111.9545  -77.2972  -83.9706 O   0  0  0  0  0  0  0  0  0  0  0  0
  111.4284  -76.1507  -83.7792 C   0  0  0  0  0  0  0  0  0  0  0  0
  111.6417  -75.8334  -82.3673 C   0  0  0  0  0  0  0  0  0  0  0  0
  111.0989  -74.5623  -81.9632 C   0  0  0  0  0  0  0  0  0  0  0  0
  110.4092  -73.7067  -82.8575 C   0  0  0  0  0  0  0  0  0  0  0  0
  110.2390  -74.0762  -84.2505 C   0  0  0  0  0  0  0  0  0  0  0  0
  110.7875  -75.3388  -84.6809 C   0  0  0  0  0  0  0  0  0  0  0  0
  110.5801  -75.6381  -86.1470 C   0  0  0  0  0  0  0  0  0  0  0  0
  111.1652  -76.9035  -86.3332 C   0  0  0  0  0  0  0  0  0  0  0  0
  111.0545  -77.3728  -87.7161 C   0  0  0  0  0  0  0  0  0  0  0  0
  111.6203  -78.6613  -87.9652 C   0  0  0  0  0  0  0  0  0  0  0  0
  109.9331  -74.7734  -87.0094 C   0  0  0  0  0  0  0  0  0  0  0  0
  110.2414  -73.4040  -87.1832 C   0  0  0  0  0  0  0  0  0  0  0  0
  109.6107  -72.5210  -88.0614 C   0  0  0  0  0  0  0  0  0  0  0  0
  108.5261  -72.9986  -88.9061 C   0  0  0  0  0  0  0  0  0  0  0  0
  108.2350  -74.3686  -88.7001 C   0  0  0  0  0  0  0  0  0  0  0  0
  108.8371  -75.2879  -87.8301 C   0  0  0  0  0  0  0  0  0  0  0  0
  112.7423  -80.6574  -87.3616 N   0  3  0  0  0  0  0  0  0  0  0  0
  113.3990  -81.5474  -86.4108 C   0  0  0  0  0  0  0  0  0  0  0  0
  112.7004  -81.2481  -88.7175 C   0  0  0  0  0  0  0  0  0  0  0  0
  111.3390  -74.2678  -80.6101 N   0  0  0  0  0  0  0  0  0  0  0  0
  111.9885  -75.0498  -79.5344 C   0  0  0  0  0  0  0  0  0  0  0  0
  110.8928  -72.9203  -80.1082 C   0  0  0  0  0  0  0  0  0  0  0  0
  1  2  1  0  0  0  0
  1 14  1  0  0  0  0
  1 21  2  0  0  0  0
  2  3  2  0  0  0  0
  3  4  1  0  0  0  0
  3 12  1  0  0  0  0
  4  5  1  0  0  0  0
  5  6  1  0  0  0  0
  5 10  2  0  0  0  0
  6  7  2  0  0  0  0
  7  8  1  0  0  0  0
  7 24  1  0  0  0  0
  8  9  2  0  0  0  0
  9 10  1  0  0  0  0
 10 11  1  0  0  0  0
 11 12  2  0  0  0  0
 11 15  1  0  0  0  0
 12 13  1  0  0  0  0
 13 14  2  0  0  0  0
 15 16  2  0  0  0  0
 15 20  1  0  0  0  0
 16 17  1  0  0  0  0
 17 18  2  0  0  0  0
 18 19  1  0  0  0  0
 19 20  2  0  0  0  0
 21 22  1  0  0  0  0
 21 23  1  0  0  0  0
 24 25  1  0  0  0  0
 24 26  1  0  0  0  0
M  CHG  1  21   1
M  END
>  <CHROM.1>
-3.07786256,52.07527508,111.07159895,-76.22959700,-85.34418970,-1.26844469
-1.06351961,1.06573354

>  <Name>
1f1t Malachite green aptamer (Xray 2.8A)

>  <RI>
0

>  <Rbt.Current_Directory>
/home/itssahil/PROJECTS/Mol_Feturizer/New_Systems/rnas/1f1t

>  <Rbt.Executable>
rbdock ($Id: //depot/dev/client3/rdock/2013.1/src/exe/rbdock.cxx#4 $)

>  <Rbt.Library>
libRbt.so (2013.1, Build901 2013/11/27)

>  <Rbt.Parameter_File>
/export/apps/rDock/src/rDock_2013.1_src/data/scripts/dock_solv.prm

>  <Rbt.Receptor>
prm/pocket_docking_8.prm

>  <SCORE>
-62.9861

>  <SCORE.INTER>
-63.0397

>  <SCORE.INTER.CONST>
1

>  <SCORE.INTER.POLAR>
0

>  <SCORE.INTER.ROT>
2

>  <SCORE.INTER.SOLV>
11.1108

>  <SCORE.INTER.VDW>
-50.6634

>  <SCORE.INTER.norm>
-2.42461

>  <SCORE.INTRA>
0.0535947

>  <SCORE.INTRA.DIHEDRAL>
-1.18458

>  <SCORE.INTRA.DIHEDRAL.0>
4.18538

>  <SCORE.INTRA.POLAR>
0

>  <SCORE.INTRA.POLAR.0>
0

>  <SCORE.INTRA.REPUL>
0

>  <SCORE.INTRA.REPUL.0>
0

>  <SCORE.INTRA.SOLV>
0.0196056

>  <SCORE.INTRA.SOLV.lig_0>
-5.16926

>  <SCORE.INTRA.VDW>
0.636083

>  <SCORE.INTRA.VDW.0>
1.11912

>  <SCORE.INTRA.norm>
0.00206133

>  <SCORE.RESTR>
0

>  <SCORE.RESTR.CAVITY>
0

>  <SCORE.RESTR.norm>
0

>  <SCORE.SYSTEM>
0

>  <SCORE.SYSTEM.CONST>
0

>  <SCORE.SYSTEM.DIHEDRAL>
0

>  <SCORE.SYSTEM.SOLV>
0

>  <SCORE.SYSTEM.norm>
0

>  <SCORE.heavy>
26

>  <SCORE.norm>
-2.42254

>  <RMSD>
6.135

$$$$
1f1t Malachite green aptamer (Xray 2.8A)
 OpenBabel11021811393D
libRbt.so/2013.1/901 2013/11/27
 26 29  0  0  0  0  0  0  0  0999 V2000
  112.2263  -79.4127  -86.9579 C   0  0  0  0  0  0  0  0  0  0  0  0
  112.3445  -78.9517  -85.5825 C   0  0  0  0  0  0  0  0  0  0  0  0
  111.7778  -77.6924  -85.3765 C   0  0  0  0  0  0  0  0  0  0  0  0
  111.9253  -77.2706  -83.9552 O   0  0  0  0  0  0  0  0  0  0  0  0
  111.3956  -76.1241  -83.7740 C   0  0  0  0  0  0  0  0  0  0  0  0
  111.6010  -75.7970  -82.3632 C   0  0  0  0  0  0  0  0  0  0  0  0
  111.0533  -74.5246  -81.9701 C   0  0  0  0  0  0  0  0  0  0  0  0
  110.3662  -73.6764  -82.8735 C   0  0  0  0  0  0  0  0  0  0  0  0
  110.2039  -74.0554  -84.2648 C   0  0  0  0  0  0  0  0  0  0  0  0
  110.7574  -75.3196  -84.6842 C   0  0  0  0  0  0  0  0  0  0  0  0
  110.5581  -75.6289  -86.1494 C   0  0  0  0  0  0  0  0  0  0  0  0
  111.1470  -76.8941  -86.3243 C   0  0  0  0  0  0  0  0  0  0  0  0
  111.0444  -77.3727  -87.7046 C   0  0  0  0  0  0  0  0  0  0  0  0
  111.6143  -78.6615  -87.9425 C   0  0  0  0  0  0  0  0  0  0  0  0
  109.9135  -74.7714  -87.0207 C   0  0  0  0  0  0  0  0  0  0  0  0
  110.2133  -73.4002  -87.1950 C   0  0  0  0  0  0  0  0  0  0  0  0
  109.5849  -72.5242  -88.0820 C   0  0  0  0  0  0  0  0  0  0  0  0
  108.5127  -73.0122  -88.9364 C   0  0  0  0  0  0  0  0  0  0  0  0
  108.2298  -74.3838  -88.7297 C   0  0  0  0  0  0  0  0  0  0  0  0
  108.8299  -75.2963  -87.8511 C   0  0  0  0  0  0  0  0  0  0  0  0
  112.7379  -80.6510  -87.3201 N   0  3  0  0  0  0  0  0  0  0  0  0
  113.3918  -81.5333  -86.3603 C   0  0  0  0  0  0  0  0  0  0  0  0
  112.7042  -81.2506  -88.6723 C   0  0  0  0  0  0  0  0  0  0  0  0
  111.2859  -74.2207  -80.6178 N   0  0  0  0  0  0  0  0  0  0  0  0
  111.9283  -74.9957  -79.5329 C   0  0  0  0  0  0  0  0  0  0  0  0
  110.8383  -72.8691  -80.1281 C   0  0  0  0  0  0  0  0  0  0  0  0
  1  2  1  0  0  0  0
  1 14  1  0  0  0  0
  1 21  2  0  0  0  0
  2  3  2  0  0  0  0
  3  4  1  0  0  0  0
  3 12  1  0  0  0  0
  4  5  1  0  0  0  0
  5  6  1  0  0  0  0
  5 10  2  0  0  0  0
  6  7  2  0  0  0  0
  7  8  1  0  0  0  0
  7 24  1  0  0  0  0
  8  9  2  0  0  0  0
  9 10  1  0  0  0  0
 10 11  1  0  0  0  0
 11 12  2  0  0  0  0
 11 15  1  0  0  0  0
 12 13  1  0  0  0  0
 13 14  2  0  0  0  0
 15 16  2  0  0  0  0
 15 20  1  0  0  0  0
 16 17  1  0  0  0  0
 17 18  2  0  0  0  0
 18 19  1  0  0  0  0
 19 20  2  0  0  0  0
 21 22  1  0  0  0  0
 21 23  1  0  0  0  0
 24 25  1  0  0  0  0
 24 26  1  0  0  0  0
M  CHG  1  21   1
M  END
>  <CHROM.1>
-3.27778315,51.59701444,111.04700595,-76.21399197,-85.34028228,-1.25720754
-1.06404940,1.06904588

>  <Name>
1f1t Malachite green aptamer (Xray 2.8A)

>  <RI>
0

>  <Rbt.Current_Directory>
/home/itssahil/PROJECTS/Mol_Feturizer/New_Systems/rnas/1f1t

>  <Rbt.Executable>
rbdock ($Id: //depot/dev/client3/rdock/2013.1/src/exe/rbdock.cxx#4 $)

>  <Rbt.Library>
libRbt.so (2013.1, Build901 2013/11/27)

>  <Rbt.Parameter_File>
/export/apps/rDock/src/rDock_2013.1_src/data/scripts/dock_solv.prm

>  <Rbt.Receptor>
prm/pocket_docking_6.prm

>  <SCORE>
-63.0174

>  <SCORE.INTER>
-63.0834

>  <SCORE.INTER.CONST>
1

>  <SCORE.INTER.POLAR>
0

>  <SCORE.INTER.ROT>
2

>  <SCORE.INTER.SOLV>
11.1365

>  <SCORE.INTER.VDW>
-50.7011

>  <SCORE.INTER.norm>
-2.42629

>  <SCORE.INTRA>
0.0660407

>  <SCORE.INTRA.DIHEDRAL>
-1.21846

>  <SCORE.INTRA.DIHEDRAL.0>
4.18538

>  <SCORE.INTRA.POLAR>
0

>  <SCORE.INTRA.POLAR.0>
0

>  <SCORE.INTRA.REPUL>
0

>  <SCORE.INTRA.REPUL.0>
0

>  <SCORE.INTRA.SOLV>
0.0201384

>  <SCORE.INTRA.SOLV.lig_0>
-5.16926

>  <SCORE.INTRA.VDW>
0.6652

>  <SCORE.INTRA.VDW.0>
1.11912

>  <SCORE.INTRA.norm>
0.00254003

>  <SCORE.RESTR>
0

>  <SCORE.RESTR.CAVITY>
0

>  <SCORE.RESTR.norm>
0

>  <SCORE.SYSTEM>
0

>  <SCORE.SYSTEM.CONST>
0

>  <SCORE.SYSTEM.DIHEDRAL>
0

>  <SCORE.SYSTEM.SOLV>
0

>  <SCORE.SYSTEM.norm>
0

>  <SCORE.heavy>
26

>  <SCORE.norm>
-2.42375

>  <RMSD>
6.136

$$$$
1f1t Malachite green aptamer (Xray 2.8A)
 OpenBabel11021811393D
libRbt.so/2013.1/901 2013/11/27
 26 29  0  0  0  0  0  0  0  0999 V2000
  112.2192  -79.3941  -86.9606 C   0  0  0  0  0  0  0  0  0  0  0  0
  112.3465  -78.9341  -85.5857 C   0  0  0  0  0  0  0  0  0  0  0  0
  111.7831  -77.6740  -85.3755 C   0  0  0  0  0  0  0  0  0  0  0  0
  111.9399  -77.2532  -83.9550 O   0  0  0  0  0  0  0  0  0  0  0  0
  111.4131  -76.1060  -83.7699 C   0  0  0  0  0  0  0  0  0  0  0  0
  111.6277  -75.7799  -82.3602 C   0  0  0  0  0  0  0  0  0  0  0  0
  111.0844  -74.5068  -81.9632 C   0  0  0  0  0  0  0  0  0  0  0  0
  110.3931  -73.6571  -82.8619 C   0  0  0  0  0  0  0  0  0  0  0  0
  110.2217  -74.0352  -84.2524 C   0  0  0  0  0  0  0  0  0  0  0  0
  110.7707  -75.2999  -84.6758 C   0  0  0  0  0  0  0  0  0  0  0  0
  110.5619  -75.6082  -86.1399 C   0  0  0  0  0  0  0  0  0  0  0  0
  111.1478  -76.8742  -86.3191 C   0  0  0  0  0  0  0  0  0  0  0  0
  111.0360  -77.3519  -87.6990 C   0  0  0  0  0  0  0  0  0  0  0  0
  111.6024  -78.6415  -87.9410 C   0  0  0  0  0  0  0  0  0  0  0  0
  109.9134  -74.7491  -87.0068 C   0  0  0  0  0  0  0  0  0  0  0  0
  110.2233  -73.3816  -87.1922 C   0  0  0  0  0  0  0  0  0  0  0  0
  109.5909  -72.5044  -88.0751 C   0  0  0  0  0  0  0  0  0  0  0  0
  108.5028  -72.9868  -88.9124 C   0  0  0  0  0  0  0  0  0  0  0  0
  108.2103  -74.3547  -88.6949 C   0  0  0  0  0  0  0  0  0  0  0  0
  108.8139  -75.2682  -87.8198 C   0  0  0  0  0  0  0  0  0  0  0  0
  112.7266  -80.6331  -87.3266 N   0  3  0  0  0  0  0  0  0  0  0  0
  113.3849  -81.5169  -86.3711 C   0  0  0  0  0  0  0  0  0  0  0  0
  112.6837  -81.2319  -88.6788 C   0  0  0  0  0  0  0  0  0  0  0  0
  111.3257  -74.2041  -80.6121 N   0  0  0  0  0  0  0  0  0  0  0  0
  111.9628  -74.9853  -79.5286 C   0  0  0  0  0  0  0  0  0  0  0  0
  110.8962  -72.8466  -80.1225 C   0  0  0  0  0  0  0  0  0  0  0  0
  1  2  1  0  0  0  0
  1 14  1  0  0  0  0
  1 21  2  0  0  0  0
  2  3  2  0  0  0  0
  3  4  1  0  0  0  0
  3 12  1  0  0  0  0
  4  5  1  0  0  0  0
  5  6  1  0  0  0  0
  5 10  2  0  0  0  0
  6  7  2  0  0  0  0
  7  8  1  0  0  0  0
  7 24  1  0  0  0  0
  8  9  2  0  0  0  0
  9 10  1  0  0  0  0
 10 11  1  0  0  0  0
 11 12  2  0  0  0  0
 11 15  1  0  0  0  0
 12 13  1  0  0  0  0
 13 14  2  0  0  0  0
 15 16  2  0  0  0  0
 15 20  1  0  0  0  0
 16 17  1  0  0  0  0
 17 18  2  0  0  0  0
 18 19  1  0  0  0  0
 19 20  2  0  0  0  0
 21 22  1  0  0  0  0
 21 23  1  0  0  0  0
 24 25  1  0  0  0  0
 24 26  1  0  0  0  0
M  CHG  1  21   1
M  END
>  <CHROM.1>
-3.89940622,52.28386366,111.05483448,-76.19442665,-85.33404925,-1.26979393
-1.06259377,1.05850440

>  <Name>
1f1t Malachite green aptamer (Xray 2.8A)

>  <RI>
0

>  <Rbt.Current_Directory>
/home/itssahil/PROJECTS/Mol_Feturizer/New_Systems/rnas/1f1t

>  <Rbt.Executable>
rbdock ($Id: //depot/dev/client3/rdock/2013.1/src/exe/rbdock.cxx#4 $)

>  <Rbt.Library>
libRbt.so (2013.1, Build901 2013/11/27)

>  <Rbt.Parameter_File>
/export/apps/rDock/src/rDock_2013.1_src/data/scripts/dock_solv.prm

>  <Rbt.Receptor>
prm/pocket_docking_7.prm

>  <SCORE>
-63.0915

>  <SCORE.INTER>
-63.1444

>  <SCORE.INTER.CONST>
1

>  <SCORE.INTER.POLAR>
0

>  <SCORE.INTER.ROT>
2

>  <SCORE.INTER.SOLV>
11.162

>  <SCORE.INTER.VDW>
-50.7503

>  <SCORE.INTER.norm>
-2.42863

>  <SCORE.INTRA>
0.052885

>  <SCORE.INTRA.DIHEDRAL>
-1.14441

>  <SCORE.INTRA.DIHEDRAL.0>
4.18538

>  <SCORE.INTRA.POLAR>
0

>  <SCORE.INTRA.POLAR.0>
0

>  <SCORE.INTRA.REPUL>
0

>  <SCORE.INTRA.REPUL.0>
0

>  <SCORE.INTRA.SOLV>
0.019367

>  <SCORE.INTRA.SOLV.lig_0>
-5.16926

>  <SCORE.INTRA.VDW>
0.615409

>  <SCORE.INTRA.VDW.0>
1.11912

>  <SCORE.INTRA.norm>
0.00203404

>  <SCORE.RESTR>
0

>  <SCORE.RESTR.CAVITY>
0

>  <SCORE.RESTR.norm>
0

>  <SCORE.SYSTEM>
0

>  <SCORE.SYSTEM.CONST>
0

>  <SCORE.SYSTEM.DIHEDRAL>
0

>  <SCORE.SYSTEM.SOLV>
0

>  <SCORE.SYSTEM.norm>
0

>  <SCORE.heavy>
26

>  <SCORE.norm>
-2.4266

>  <RMSD>
6.136

$$$$
1f1t Malachite green aptamer (Xray 2.8A)
 OpenBabel11021811393D
libRbt.so/2013.1/901 2013/11/27
 26 29  0  0  0  0  0  0  0  0999 V2000
  112.2253  -79.4025  -86.9785 C   0  0  0  0  0  0  0  0  0  0  0  0
  112.3515  -78.9475  -85.6018 C   0  0  0  0  0  0  0  0  0  0  0  0
  111.7888  -77.6877  -85.3878 C   0  0  0  0  0  0  0  0  0  0  0  0
  111.9445  -77.2721  -83.9656 O   0  0  0  0  0  0  0  0  0  0  0  0
  111.4184  -76.1251  -83.7771 C   0  0  0  0  0  0  0  0  0  0  0  0
  111.6317  -75.8043  -82.3659 C   0  0  0  0  0  0  0  0  0  0  0  0
  111.0890  -74.5321  -81.9650 C   0  0  0  0  0  0  0  0  0  0  0  0
  110.3995  -73.6787  -82.8614 C   0  0  0  0  0  0  0  0  0  0  0  0
  110.2293  -74.0516  -84.2534 C   0  0  0  0  0  0  0  0  0  0  0  0
  110.7776  -75.3153  -84.6808 C   0  0  0  0  0  0  0  0  0  0  0  0
  110.5702  -75.6182  -86.1461 C   0  0  0  0  0  0  0  0  0  0  0  0
  111.1552  -76.8841  -86.3292 C   0  0  0  0  0  0  0  0  0  0  0  0
  111.0445  -77.3567  -87.7109 C   0  0  0  0  0  0  0  0  0  0  0  0
  111.6102  -78.6459  -87.9569 C   0  0  0  0  0  0  0  0  0  0  0  0
  109.9234  -74.7555  -87.0107 C   0  0  0  0  0  0  0  0  0  0  0  0
  110.2466  -73.3923  -87.2045 C   0  0  0  0  0  0  0  0  0  0  0  0
  109.6160  -72.5117  -88.0853 C   0  0  0  0  0  0  0  0  0  0  0  0
  108.5150  -72.9854  -88.9107 C   0  0  0  0  0  0  0  0  0  0  0  0
  108.2094  -74.3491  -88.6849 C   0  0  0  0  0  0  0  0  0  0  0  0
  108.8108  -75.2657  -87.8115 C   0  0  0  0  0  0  0  0  0  0  0  0
  112.7321  -80.6406  -87.3483 N   0  3  0  0  0  0  0  0  0  0  0  0
  113.3887  -81.5284  -86.3954 C   0  0  0  0  0  0  0  0  0  0  0  0
  112.6901  -81.2346  -88.7028 C   0  0  0  0  0  0  0  0  0  0  0  0
  111.3291  -74.2344  -80.6126 N   0  0  0  0  0  0  0  0  0  0  0  0
  111.9944  -75.0064  -79.5394 C   0  0  0  0  0  0  0  0  0  0  0  0
  110.8636  -72.8941  -80.1086 C   0  0  0  0  0  0  0  0  0  0  0  0
  1  2  1  0  0  0  0
  1 14  1  0  0  0  0
  1 21  2  0  0  0  0
  2  3  2  0  0  0  0
  3  4  1  0  0  0  0
  3 12  1  0  0  0  0
  4  5  1  0  0  0  0
  5  6  1  0  0  0  0
  5 10  2  0  0  0  0
  6  7  2  0  0  0  0
  7  8  1  0  0  0  0
  7 24  1  0  0  0  0
  8  9  2  0  0  0  0
  9 10  1  0  0  0  0
 10 11  1  0  0  0  0
 11 12  2  0  0  0  0
 11 15  1  0  0  0  0
 12 13  1  0  0  0  0
 13 14  2  0  0  0  0
 15 16  2  0  0  0  0
 15 20  1  0  0  0  0
 16 17  1  0  0  0  0
 17 18  2  0  0  0  0
 18 19  1  0  0  0  0
 19 20  2  0  0  0  0
 21 22  1  0  0  0  0
 21 23  1  0  0  0  0
 24 25  1  0  0  0  0
 24 26  1  0  0  0  0
M  CHG  1  21   1
M  END
>  <CHROM.1>
-2.13986144,53.22070687,111.06136362,-76.20778933,-85.34168736,-1.26800101
-1.06319826,1.06360995

>  <Name>
1f1t Malachite green aptamer (Xray 2.8A)

>  <RI>
0

>  <Rbt.Current_Directory>
/home/itssahil/PROJECTS/Mol_Feturizer/New_Systems/rnas/1f1t

>  <Rbt.Executable>
rbdock ($Id: //depot/dev/client3/rdock/2013.1/src/exe/rbdock.cxx#4 $)

>  <Rbt.Library>
libRbt.so (2013.1, Build901 2013/11/27)

>  <Rbt.Parameter_File>
/export/apps/rDock/src/rDock_2013.1_src/data/scripts/dock_solv.prm

>  <Rbt.Receptor>
prm/pocket_docking_8.prm

>  <SCORE>
-62.9911

>  <SCORE.INTER>
-63.0344

>  <SCORE.INTER.CONST>
1

>  <SCORE.INTER.POLAR>
0

>  <SCORE.INTER.ROT>
2

>  <SCORE.INTER.SOLV>
11.1497

>  <SCORE.INTER.VDW>
-50.6729

>  <SCORE.INTER.norm>
-2.4244

>  <SCORE.INTRA>
0.0433847

>  <SCORE.INTRA.DIHEDRAL>
-1.11182

>  <SCORE.INTRA.DIHEDRAL.0>
4.18538

>  <SCORE.INTRA.POLAR>
0

>  <SCORE.INTRA.POLAR.0>
0

>  <SCORE.INTRA.REPUL>
0

>  <SCORE.INTRA.REPUL.0>
0

>  <SCORE.INTRA.SOLV>
0.018323

>  <SCORE.INTRA.SOLV.lig_0>
-5.16926

>  <SCORE.INTRA.VDW>
0.590134

>  <SCORE.INTRA.VDW.0>
1.11912

>  <SCORE.INTRA.norm>
0.00166864

>  <SCORE.RESTR>
0

>  <SCORE.RESTR.CAVITY>
0

>  <SCORE.RESTR.norm>
0

>  <SCORE.SYSTEM>
0

>  <SCORE.SYSTEM.CONST>
0

>  <SCORE.SYSTEM.DIHEDRAL>
0

>  <SCORE.SYSTEM.SOLV>
0

>  <SCORE.SYSTEM.norm>
0

>  <SCORE.heavy>
26

>  <SCORE.norm>
-2.42273

>  <RMSD>
6.136

$$$$
1f1t Malachite green aptamer (Xray 2.8A)
 OpenBabel11021811393D
libRbt.so/2013.1/901 2013/11/27
 26 29  0  0  0  0  0  0  0  0999 V2000
  112.2188  -79.3976  -86.9614 C   0  0  0  0  0  0  0  0  0  0  0  0
  112.3432  -78.9377  -85.5861 C   0  0  0  0  0  0  0  0  0  0  0  0
  111.7791  -77.6779  -85.3769 C   0  0  0  0  0  0  0  0  0  0  0  0
  111.9329  -77.2572  -83.9560 O   0  0  0  0  0  0  0  0  0  0  0  0
  111.4055  -76.1102  -83.7718 C   0  0  0  0  0  0  0  0  0  0  0  0
  111.6171  -75.7843  -82.3616 C   0  0  0  0  0  0  0  0  0  0  0  0
  111.0727  -74.5114  -81.9654 C   0  0  0  0  0  0  0  0  0  0  0  0
  110.3831  -73.6617  -82.8654 C   0  0  0  0  0  0  0  0  0  0  0  0
  110.2146  -74.0396  -84.2563 C   0  0  0  0  0  0  0  0  0  0  0  0
  110.7647  -75.3041  -84.6788 C   0  0  0  0  0  0  0  0  0  0  0  0
  110.5590  -75.6122  -86.1434 C   0  0  0  0  0  0  0  0  0  0  0  0
  111.1455  -76.8781  -86.3216 C   0  0  0  0  0  0  0  0  0  0  0  0
  111.0366  -77.3555  -87.7018 C   0  0  0  0  0  0  0  0  0  0  0  0
  111.6039  -78.6449  -87.9429 C   0  0  0  0  0  0  0  0  0  0  0  0
  109.9121  -74.7531  -87.0114 C   0  0  0  0  0  0  0  0  0  0  0  0
  110.2226  -73.3858  -87.1967 C   0  0  0  0  0  0  0  0  0  0  0  0
  109.5919  -72.5086  -88.0808 C   0  0  0  0  0  0  0  0  0  0  0  0
  108.5049  -72.9908  -88.9196 C   0  0  0  0  0  0  0  0  0  0  0  0
  108.2115  -74.3586  -88.7022 C   0  0  0  0  0  0  0  0  0  0  0  0
  108.8136  -75.2721  -87.8259 C   0  0  0  0  0  0  0  0  0  0  0  0
  112.7272  -80.6364  -87.3265 N   0  3  0  0  0  0  0  0  0  0  0  0
  113.3839  -81.5202  -86.3699 C   0  0  0  0  0  0  0  0  0  0  0  0
  112.6872  -81.2350  -88.6789 C   0  0  0  0  0  0  0  0  0  0  0  0
  111.3112  -74.2089  -80.6138 N   0  0  0  0  0  0  0  0  0  0  0  0
  111.9669  -74.9809  -79.5348 C   0  0  0  0  0  0  0  0  0  0  0  0
  110.8551  -72.8623  -80.1180 C   0  0  0  0  0  0  0  0  0  0  0  0
  1  2  1  0  0  0  0
  1 14  1  0  0  0  0
  1 21  2  0  0  0  0
  2  3  2  0  0  0  0
  3  4  1  0  0  0  0
  3 12  1  0  0  0  0
  4  5  1  0  0  0  0
  5  6  1  0  0  0  0
  5 10  2  0  0  0  0
  6  7  2  0  0  0  0
  7  8  1  0  0  0  0
  7 24  1  0  0  0  0
  8  9  2  0  0  0  0
  9 10  1  0  0  0  0
 10 11  1  0  0  0  0
 11 12  2  0  0  0  0
 11 15  1  0  0  0  0
 12 13  1  0  0  0  0
 13 14  2  0  0  0  0
 15 16  2  0  0  0  0
 15 20  1  0  0  0  0
 16 17  1  0  0  0  0
 17 18  2  0  0  0  0
 18 19  1  0  0  0  0
 19 20  2  0  0  0  0
 21 22  1  0  0  0  0
 21 23  1  0  0  0  0
 24 25  1  0  0  0  0
 24 26  1  0  0  0  0
M  CHG  1  21   1
M  END
>  <CHROM.1>
-2.68971982,52.33679592,111.05019806,-76.19851735,-85.33658161,-1.26557240
-1.06301009,1.06239318

>  <Name>
1f1t Malachite green aptamer (Xray 2.8A)

>  <RI>
0

>  <Rbt.Current_Directory>
/home/itssahil/PROJECTS/Mol_Feturizer/New_Systems/rnas/1f1t

>  <Rbt.Executable>
rbdock ($Id: //depot/dev/client3/rdock/2013.1/src/exe/rbdock.cxx#4 $)

>  <Rbt.Library>
libRbt.so (2013.1, Build901 2013/11/27)

>  <Rbt.Parameter_File>
/export/apps/rDock/src/rDock_2013.1_src/data/scripts/dock_solv.prm

>  <Rbt.Receptor>
prm/pocket_docking_8.prm

>  <SCORE>
-63.0694

>  <SCORE.INTER>
-63.1154

>  <SCORE.INTER.CONST>
1

>  <SCORE.INTER.POLAR>
0

>  <SCORE.INTER.ROT>
2

>  <SCORE.INTER.SOLV>
11.1558

>  <SCORE.INTER.VDW>
-50.7289

>  <SCORE.INTER.norm>
-2.42752

>  <SCORE.INTRA>
0.0460193

>  <SCORE.INTRA.DIHEDRAL>
-1.17244

>  <SCORE.INTRA.DIHEDRAL.0>
4.18538

>  <SCORE.INTRA.POLAR>
0

>  <SCORE.INTRA.POLAR.0>
0

>  <SCORE.INTRA.REPUL>
0

>  <SCORE.INTRA.REPUL.0>
0

>  <SCORE.INTRA.SOLV>
0.0193148

>  <SCORE.INTRA.SOLV.lig_0>
-5.16926

>  <SCORE.INTRA.VDW>
0.622581

>  <SCORE.INTRA.VDW.0>
1.11912

>  <SCORE.INTRA.norm>
0.00176997

>  <SCORE.RESTR>
0

>  <SCORE.RESTR.CAVITY>
0

>  <SCORE.RESTR.norm>
0

>  <SCORE.SYSTEM>
0

>  <SCORE.SYSTEM.CONST>
0

>  <SCORE.SYSTEM.DIHEDRAL>
0

>  <SCORE.SYSTEM.SOLV>
0

>  <SCORE.SYSTEM.norm>
0

>  <SCORE.heavy>
26

>  <SCORE.norm>
-2.42575

>  <RMSD>
6.136

$$$$
1f1t Malachite green aptamer (Xray 2.8A)
 OpenBabel11021811393D
libRbt.so/2013.1/901 2013/11/27
 26 29  0  0  0  0  0  0  0  0999 V2000
  112.2980  -78.3482  -85.4228 C   0  0  0  0  0  0  0  0  0  0  0  0
  112.6845  -78.9110  -84.1373 C   0  0  0  0  0  0  0  0  0  0  0  0
  112.5110  -78.0210  -83.0756 C   0  0  0  0  0  0  0  0  0  0  0  0
  112.9195  -78.6470  -81.7869 O   0  0  0  0  0  0  0  0  0  0  0  0
  112.7478  -77.8306  -80.8214 C   0  0  0  0  0  0  0  0  0  0  0  0
  113.1846  -78.5290  -79.6127 C   0  0  0  0  0  0  0  0  0  0  0  0
  113.0529  -77.7530  -78.4068 C   0  0  0  0  0  0  0  0  0  0  0  0
  112.5330  -76.4349  -78.3992 C   0  0  0  0  0  0  0  0  0  0  0  0
  112.1252  -75.7943  -79.6357 C   0  0  0  0  0  0  0  0  0  0  0  0
  112.2620  -76.5478  -80.8579 C   0  0  0  0  0  0  0  0  0  0  0  0
  111.8302  -75.8018  -82.0985 C   0  0  0  0  0  0  0  0  0  0  0  0
  112.0265  -76.7196  -83.1461 C   0  0  0  0  0  0  0  0  0  0  0  0
  111.6496  -76.1691  -84.4499 C   0  0  0  0  0  0  0  0  0  0  0  0
  111.8146  -77.0610  -85.5543 C   0  0  0  0  0  0  0  0  0  0  0  0
  111.3569  -74.5036  -82.0720 C   0  0  0  0  0  0  0  0  0  0  0  0
  110.8393  -73.8417  -80.9343 C   0  0  0  0  0  0  0  0  0  0  0  0
  110.3737  -72.5265  -80.8852 C   0  0  0  0  0  0  0  0  0  0  0  0
  110.4003  -71.7087  -82.0887 C   0  0  0  0  0  0  0  0  0  0  0  0
  110.9127  -72.4032  -83.2108 C   0  0  0  0  0  0  0  0  0  0  0  0
  111.3857  -73.7192  -83.3062 C   0  0  0  0  0  0  0  0  0  0  0  0
  112.4079  -79.1135  -86.5754 N   0  3  0  0  0  0  0  0  0  0  0  0
  112.8927  -80.4890  -86.5525 C   0  0  0  0  0  0  0  0  0  0  0  0
  112.0666  -78.6817  -87.9488 C   0  0  0  0  0  0  0  0  0  0  0  0
  113.5029  -78.4347  -77.2632 N   0  0  0  0  0  0  0  0  0  0  0  0
  113.8776  -79.8500  -77.0466 C   0  0  0  0  0  0  0  0  0  0  0  0
  113.6710  -77.6294  -76.0021 C   0  0  0  0  0  0  0  0  0  0  0  0
  1  2  1  0  0  0  0
  1 14  1  0  0  0  0
  1 21  2  0  0  0  0
  2  3  2  0  0  0  0
  3  4  1  0  0  0  0
  3 12  1  0  0  0  0
  4  5  1  0  0  0  0
  5  6  1  0  0  0  0
  5 10  2  0  0  0  0
  6  7  2  0  0  0  0
  7  8  1  0  0  0  0
  7 24  1  0  0  0  0
  8  9  2  0  0  0  0
  9 10  1  0  0  0  0
 10 11  1  0  0  0  0
 11 12  2  0  0  0  0
 11 15  1  0  0  0  0
 12 13  1  0  0  0  0
 13 14  2  0  0  0  0
 15 16  2  0  0  0  0
 15 20  1  0  0  0  0
 16 17  1  0  0  0  0
 17 18  2  0  0  0  0
 18 19  1  0  0  0  0
 19 20  2  0  0  0  0
 21 22  1  0  0  0  0
 21 23  1  0  0  0  0
 24 25  1  0  0  0  0
 24 26  1  0  0  0  0
M  CHG  1  21   1
M  END
>  <CHROM.1>
-11.10745846,-19.84230115,112.23573893,-76.82912638,-81.96844496,-1.87311657
-1.20256021,1.20779341

>  <Name>
1f1t Malachite green aptamer (Xray 2.8A)

>  <RI>
0

>  <Rbt.Current_Directory>
/home/itssahil/PROJECTS/Mol_Feturizer/New_Systems/rnas/1f1t

>  <Rbt.Executable>
rbdock ($Id: //depot/dev/client3/rdock/2013.1/src/exe/rbdock.cxx#4 $)

>  <Rbt.Library>
libRbt.so (2013.1, Build901 2013/11/27)

>  <Rbt.Parameter_File>
/export/apps/rDock/src/rDock_2013.1_src/data/scripts/dock_solv.prm

>  <Rbt.Receptor>
prm/pocket_docking_8.prm

>  <SCORE>
-42.1631

>  <SCORE.INTER>
-45.2268

>  <SCORE.INTER.CONST>
1

>  <SCORE.INTER.POLAR>
0

>  <SCORE.INTER.ROT>
2

>  <SCORE.INTER.SOLV>
8.89414

>  <SCORE.INTER.VDW>
-38.0493

>  <SCORE.INTER.norm>
-1.73949

>  <SCORE.INTRA>
3.06373

>  <SCORE.INTRA.DIHEDRAL>
-3.12601

>  <SCORE.INTRA.DIHEDRAL.0>
4.18538

>  <SCORE.INTRA.POLAR>
0

>  <SCORE.INTRA.POLAR.0>
0

>  <SCORE.INTRA.REPUL>
0

>  <SCORE.INTRA.REPUL.0>
0

>  <SCORE.INTRA.SOLV>
0.0473965

>  <SCORE.INTRA.SOLV.lig_0>
-5.16926

>  <SCORE.INTRA.VDW>
4.60303

>  <SCORE.INTRA.VDW.0>
1.11912

>  <SCORE.INTRA.norm>
0.117836

>  <SCORE.RESTR>
0

>  <SCORE.RESTR.CAVITY>
0

>  <SCORE.RESTR.norm>
0

>  <SCORE.SYSTEM>
0

>  <SCORE.SYSTEM.CONST>
0

>  <SCORE.SYSTEM.DIHEDRAL>
0

>  <SCORE.SYSTEM.SOLV>
0

>  <SCORE.SYSTEM.norm>
0

>  <SCORE.heavy>
26

>  <SCORE.norm>
-1.62166

>  <RMSD>
6.822

$$$$
1f1t Malachite green aptamer (Xray 2.8A)
 OpenBabel11021811393D
libRbt.so/2013.1/901 2013/11/27
 26 29  0  0  0  0  0  0  0  0999 V2000
  112.3595  -78.4954  -85.3000 C   0  0  0  0  0  0  0  0  0  0  0  0
  112.9873  -78.9568  -84.0706 C   0  0  0  0  0  0  0  0  0  0  0  0
  112.8832  -78.0381  -83.0244 C   0  0  0  0  0  0  0  0  0  0  0  0
  113.5397  -78.5601  -81.7931 O   0  0  0  0  0  0  0  0  0  0  0  0
  113.4305  -77.7190  -80.8399 C   0  0  0  0  0  0  0  0  0  0  0  0
  114.1103  -78.3141  -79.6895 C   0  0  0  0  0  0  0  0  0  0  0  0
  114.0802  -77.4979  -78.5035 C   0  0  0  0  0  0  0  0  0  0  0  0
  113.4356  -76.2369  -78.4598 C   0  0  0  0  0  0  0  0  0  0  0  0
  112.7861  -75.6977  -79.6401 C   0  0  0  0  0  0  0  0  0  0  0  0
  112.8164  -76.4919  -80.8437 C   0  0  0  0  0  0  0  0  0  0  0  0
  112.1319  -75.8505  -82.0279 C   0  0  0  0  0  0  0  0  0  0  0  0
  112.2635  -76.7940  -83.0627 C   0  0  0  0  0  0  0  0  0  0  0  0
  111.6436  -76.3447  -84.3112 C   0  0  0  0  0  0  0  0  0  0  0  0
  111.7333  -77.2681  -85.3983 C   0  0  0  0  0  0  0  0  0  0  0  0
  111.5380  -74.6039  -81.9719 C   0  0  0  0  0  0  0  0  0  0  0  0
  111.0068  -73.9992  -80.8090 C   0  0  0  0  0  0  0  0  0  0  0  0
  110.4197  -72.7350  -80.7308 C   0  0  0  0  0  0  0  0  0  0  0  0
  110.3182  -71.9137  -81.9278 C   0  0  0  0  0  0  0  0  0  0  0  0
  110.8481  -72.5514  -83.0752 C   0  0  0  0  0  0  0  0  0  0  0  0
  111.4406  -73.8156  -83.2001 C   0  0  0  0  0  0  0  0  0  0  0  0
  112.3749  -79.3005  -86.4304 N   0  3  0  0  0  0  0  0  0  0  0  0
  112.9954  -80.6205  -86.4368 C   0  0  0  0  0  0  0  0  0  0  0  0
  111.7918  -78.9691  -87.7492 C   0  0  0  0  0  0  0  0  0  0  0  0
  114.7618  -78.0782  -77.4201 N   0  0  0  0  0  0  0  0  0  0  0  0
  115.5248  -79.3408  -77.3016 C   0  0  0  0  0  0  0  0  0  0  0  0
  114.7671  -77.3167  -76.1212 C   0  0  0  0  0  0  0  0  0  0  0  0
  1  2  1  0  0  0  0
  1 14  1  0  0  0  0
  1 21  2  0  0  0  0
  2  3  2  0  0  0  0
  3  4  1  0  0  0  0
  3 12  1  0  0  0  0
  4  5  1  0  0  0  0
  5  6  1  0  0  0  0
  5 10  2  0  0  0  0
  6  7  2  0  0  0  0
  7  8  1  0  0  0  0
  7 24  1  0  0  0  0
  8  9  2  0  0  0  0
  9 10  1  0  0  0  0
 10 11  1  0  0  0  0
 11 12  2  0  0  0  0
 11 15  1  0  0  0  0
 12 13  1  0  0  0  0
 13 14  2  0  0  0  0
 15 16  2  0  0  0  0
 15 20  1  0  0  0  0
 16 17  1  0  0  0  0
 17 18  2  0  0  0  0
 18 19  1  0  0  0  0
 19 20  2  0  0  0  0
 21 22  1  0  0  0  0
 21 23  1  0  0  0  0
 24 25  1  0  0  0  0
 24 26  1  0  0  0  0
M  CHG  1  21   1
M  END
>  <CHROM.1>
2.06695075,-26.67207026,112.65384607,-76.82714493,-81.92617662,-2.06721222
-1.04405927,0.99235512

>  <Name>
1f1t Malachite green aptamer (Xray 2.8A)

>  <RI>
0

>  <Rbt.Current_Directory>
/home/itssahil/PROJECTS/Mol_Feturizer/New_Systems/rnas/1f1t

>  <Rbt.Executable>
rbdock ($Id: //depot/dev/client3/rdock/2013.1/src/exe/rbdock.cxx#4 $)

>  <Rbt.Library>
libRbt.so (2013.1, Build901 2013/11/27)

>  <Rbt.Parameter_File>
/export/apps/rDock/src/rDock_2013.1_src/data/scripts/dock_solv.prm

>  <Rbt.Receptor>
prm/pocket_docking_7.prm

>  <SCORE>
-43.2044

>  <SCORE.INTER>
-45.2166

>  <SCORE.INTER.CONST>
1

>  <SCORE.INTER.POLAR>
0

>  <SCORE.INTER.ROT>
2

>  <SCORE.INTER.SOLV>
9.13192

>  <SCORE.INTER.VDW>
-38.1217

>  <SCORE.INTER.norm>
-1.7391

>  <SCORE.INTRA>
2.01213

>  <SCORE.INTRA.DIHEDRAL>
-3.17981

>  <SCORE.INTRA.DIHEDRAL.0>
4.18538

>  <SCORE.INTRA.POLAR>
0

>  <SCORE.INTRA.POLAR.0>
0

>  <SCORE.INTRA.REPUL>
0

>  <SCORE.INTRA.REPUL.0>
0

>  <SCORE.INTRA.SOLV>
0.0430867

>  <SCORE.INTRA.SOLV.lig_0>
-5.16926

>  <SCORE.INTRA.VDW>
3.58049

>  <SCORE.INTRA.VDW.0>
1.11912

>  <SCORE.INTRA.norm>
0.0773896

>  <SCORE.RESTR>
0

>  <SCORE.RESTR.CAVITY>
0

>  <SCORE.RESTR.norm>
0

>  <SCORE.SYSTEM>
0

>  <SCORE.SYSTEM.CONST>
0

>  <SCORE.SYSTEM.DIHEDRAL>
0

>  <SCORE.SYSTEM.SOLV>
0

>  <SCORE.SYSTEM.norm>
0

>  <SCORE.heavy>
26

>  <SCORE.norm>
-1.66171

>  <RMSD>
6.898

$$$$
1f1t Malachite green aptamer (Xray 2.8A)
 OpenBabel11021811393D
libRbt.so/2013.1/901 2013/11/27
 26 29  0  0  0  0  0  0  0  0999 V2000
  112.6751  -80.7161  -86.3007 C   0  0  0  0  0  0  0  0  0  0  0  0
  112.0433  -79.6701  -87.0912 C   0  0  0  0  0  0  0  0  0  0  0  0
  111.8031  -78.5032  -86.3632 C   0  0  0  0  0  0  0  0  0  0  0  0
  111.1581  -77.4678  -87.2186 O   0  0  0  0  0  0  0  0  0  0  0  0
  110.9520  -76.4019  -86.5482 C   0  0  0  0  0  0  0  0  0  0  0  0
  110.3115  -75.4594  -87.4652 C   0  0  0  0  0  0  0  0  0  0  0  0
  110.0090  -74.1809  -86.8757 C   0  0  0  0  0  0  0  0  0  0  0  0
  110.3196  -73.8675  -85.5293 C   0  0  0  0  0  0  0  0  0  0  0  0
  110.9479  -74.8516  -84.6676 C   0  0  0  0  0  0  0  0  0  0  0  0
  111.2468  -76.1444  -85.2330 C   0  0  0  0  0  0  0  0  0  0  0  0
  111.8845  -77.1128  -84.2647 C   0  0  0  0  0  0  0  0  0  0  0  0
  112.1030  -78.2761  -85.0245 C   0  0  0  0  0  0  0  0  0  0  0  0
  112.7322  -79.3438  -84.2441 C   0  0  0  0  0  0  0  0  0  0  0  0
  112.9921  -80.5492  -84.9666 C   0  0  0  0  0  0  0  0  0  0  0  0
  112.1483  -76.7970  -82.9454 C   0  0  0  0  0  0  0  0  0  0  0  0
  111.3863  -75.9150  -82.1443 C   0  0  0  0  0  0  0  0  0  0  0  0
  111.6278  -75.5982  -80.8063 C   0  0  0  0  0  0  0  0  0  0  0  0
  112.7565  -76.2042  -80.1160 C   0  0  0  0  0  0  0  0  0  0  0  0
  113.5045  -77.0719  -80.9476 C   0  0  0  0  0  0  0  0  0  0  0  0
  113.3016  -77.4148  -82.2915 C   0  0  0  0  0  0  0  0  0  0  0  0
  112.9828  -81.9365  -86.8857 N   0  3  0  0  0  0  0  0  0  0  0  0
  112.7055  -82.2179  -88.2897 C   0  0  0  0  0  0  0  0  0  0  0  0
  113.6131  -83.0948  -86.2147 C   0  0  0  0  0  0  0  0  0  0  0  0
  109.3707  -73.3021  -87.7677 N   0  0  0  0  0  0  0  0  0  0  0  0
  108.1004  -73.4153  -88.5186 C   0  0  0  0  0  0  0  0  0  0  0  0
  110.0440  -71.9823  -88.0353 C   0  0  0  0  0  0  0  0  0  0  0  0
  1  2  1  0  0  0  0
  1 14  1  0  0  0  0
  1 21  2  0  0  0  0
  2  3  2  0  0  0  0
  3  4  1  0  0  0  0
  3 12  1  0  0  0  0
  4  5  1  0  0  0  0
  5  6  1  0  0  0  0
  5 10  2  0  0  0  0
  6  7  2  0  0  0  0
  7  8  1  0  0  0  0
  7 24  1  0  0  0  0
  8  9  2  0  0  0  0
  9 10  1  0  0  0  0
 10 11  1  0  0  0  0
 11 12  2  0  0  0  0
 11 15  1  0  0  0  0
 12 13  1  0  0  0  0
 13 14  2  0  0  0  0
 15 16  2  0  0  0  0
 15 20  1  0  0  0  0
 16 17  1  0  0  0  0
 17 18  2  0  0  0  0
 18 19  1  0  0  0  0
 19 20  2  0  0  0  0
 21 22  1  0  0  0  0
 21 23  1  0  0  0  0
 24 25  1  0  0  0  0
 24 26  1  0  0  0  0
M  CHG  1  21   1
M  END
>  <CHROM.1>
58.97607667,31.61014229,111.62473764,-77.22556056,-85.34319146,0.50344192
1.11344795,-2.23029163

>  <Name>
1f1t Malachite green aptamer (Xray 2.8A)

>  <RI>
0

>  <Rbt.Current_Directory>
/home/itssahil/PROJECTS/Mol_Feturizer/New_Systems/rnas/1f1t

>  <Rbt.Executable>
rbdock ($Id: //depot/dev/client3/rdock/2013.1/src/exe/rbdock.cxx#4 $)

>  <Rbt.Library>
libRbt.so (2013.1, Build901 2013/11/27)

>  <Rbt.Parameter_File>
/export/apps/rDock/src/rDock_2013.1_src/data/scripts/dock_solv.prm

>  <Rbt.Receptor>
prm/pocket_docking_7.prm

>  <SCORE>
-39.2258

>  <SCORE.INTER>
-43.1186

>  <SCORE.INTER.CONST>
1

>  <SCORE.INTER.POLAR>
0

>  <SCORE.INTER.ROT>
2

>  <SCORE.INTER.SOLV>
10.1309

>  <SCORE.INTER.VDW>
-37.0561

>  <SCORE.INTER.norm>
-1.65841

>  <SCORE.INTRA>
3.89279

>  <SCORE.INTRA.DIHEDRAL>
6.47961

>  <SCORE.INTRA.DIHEDRAL.0>
4.18538

>  <SCORE.INTRA.POLAR>
0

>  <SCORE.INTRA.POLAR.0>
0

>  <SCORE.INTRA.REPUL>
0

>  <SCORE.INTRA.REPUL.0>
0

>  <SCORE.INTRA.SOLV>
0.0378778

>  <SCORE.INTRA.SOLV.lig_0>
-5.16926

>  <SCORE.INTRA.VDW>
0.634051

>  <SCORE.INTRA.VDW.0>
1.11912

>  <SCORE.INTRA.norm>
0.149723

>  <SCORE.RESTR>
0

>  <SCORE.RESTR.CAVITY>
0

>  <SCORE.RESTR.norm>
0

>  <SCORE.SYSTEM>
0

>  <SCORE.SYSTEM.CONST>
0

>  <SCORE.SYSTEM.DIHEDRAL>
0

>  <SCORE.SYSTEM.SOLV>
0

>  <SCORE.SYSTEM.norm>
0

>  <SCORE.heavy>
26

>  <SCORE.norm>
-1.50869

>  <RMSD>
7.075

$$$$
1f1t Malachite green aptamer (Xray 2.8A)
 OpenBabel11021811393D
libRbt.so/2013.1/901 2013/11/27
 26 29  0  0  0  0  0  0  0  0999 V2000
  112.9699  -80.8714  -86.7058 C   0  0  0  0  0  0  0  0  0  0  0  0
  112.3411  -79.7617  -87.4070 C   0  0  0  0  0  0  0  0  0  0  0  0
  112.0143  -78.6969  -86.5651 C   0  0  0  0  0  0  0  0  0  0  0  0
  111.3764  -77.5907  -87.3325 O   0  0  0  0  0  0  0  0  0  0  0  0
  111.0908  -76.6183  -86.5574 C   0  0  0  0  0  0  0  0  0  0  0  0
  110.4644  -75.5968  -87.3964 C   0  0  0  0  0  0  0  0  0  0  0  0
  110.0786  -74.4071  -86.6828 C   0  0  0  0  0  0  0  0  0  0  0  0
  110.3015  -74.2434  -85.2932 C   0  0  0  0  0  0  0  0  0  0  0  0
  110.9204  -75.3000  -84.5145 C   0  0  0  0  0  0  0  0  0  0  0  0
  111.3019  -76.5068  -85.2061 C   0  0  0  0  0  0  0  0  0  0  0  0
  111.9237  -77.5601  -84.3195 C   0  0  0  0  0  0  0  0  0  0  0  0
  112.2305  -78.6184  -85.1938 C   0  0  0  0  0  0  0  0  0  0  0  0
  112.8581  -79.7484  -84.5053 C   0  0  0  0  0  0  0  0  0  0  0  0
  113.2058  -80.8514  -85.3449 C   0  0  0  0  0  0  0  0  0  0  0  0
  112.1013  -77.3924  -82.9593 C   0  0  0  0  0  0  0  0  0  0  0  0
  112.0765  -78.4263  -81.9945 C   0  0  0  0  0  0  0  0  0  0  0  0
  112.2712  -78.2776  -80.6202 C   0  0  0  0  0  0  0  0  0  0  0  0
  112.5303  -76.9558  -80.0693 C   0  0  0  0  0  0  0  0  0  0  0  0
  112.5375  -75.9428  -81.0581 C   0  0  0  0  0  0  0  0  0  0  0  0
  112.3436  -76.0457  -82.4425 C   0  0  0  0  0  0  0  0  0  0  0  0
  113.3584  -82.0039  -87.4080 N   0  3  0  0  0  0  0  0  0  0  0  0
  113.1706  -82.1279  -88.8491 C   0  0  0  0  0  0  0  0  0  0  0  0
  113.9968  -83.2110  -86.8385 C   0  0  0  0  0  0  0  0  0  0  0  0
  109.4557  -73.4518  -87.5041 N   0  0  0  0  0  0  0  0  0  0  0  0
  108.1840  -73.4854  -88.2604 C   0  0  0  0  0  0  0  0  0  0  0  0
  110.1514  -72.1269  -87.6703 C   0  0  0  0  0  0  0  0  0  0  0  0
  1  2  1  0  0  0  0
  1 14  1  0  0  0  0
  1 21  2  0  0  0  0
  2  3  2  0  0  0  0
  3  4  1  0  0  0  0
  3 12  1  0  0  0  0
  4  5  1  0  0  0  0
  5  6  1  0  0  0  0
  5 10  2  0  0  0  0
  6  7  2  0  0  0  0
  7  8  1  0  0  0  0
  7 24  1  0  0  0  0
  8  9  2  0  0  0  0
  9 10  1  0  0  0  0
 10 11  1  0  0  0  0
 11 12  2  0  0  0  0
 11 15  1  0  0  0  0
 12 13  1  0  0  0  0
 13 14  2  0  0  0  0
 15 16  2  0  0  0  0
 15 20  1  0  0  0  0
 16 17  1  0  0  0  0
 17 18  2  0  0  0  0
 18 19  1  0  0  0  0
 19 20  2  0  0  0  0
 21 22  1  0  0  0  0
 21 23  1  0  0  0  0
 24 25  1  0  0  0  0
 24 26  1  0  0  0  0
M  CHG  1  21   1
M  END
>  <CHROM.1>
64.04235163,149.18563104,111.72754885,-77.53676273,-85.42001341,0.38075137
1.12822800,-1.99645883

>  <Name>
1f1t Malachite green aptamer (Xray 2.8A)

>  <RI>
0

>  <Rbt.Current_Directory>
/home/itssahil/PROJECTS/Mol_Feturizer/New_Systems/rnas/1f1t

>  <Rbt.Executable>
rbdock ($Id: //depot/dev/client3/rdock/2013.1/src/exe/rbdock.cxx#4 $)

>  <Rbt.Library>
libRbt.so (2013.1, Build901 2013/11/27)

>  <Rbt.Parameter_File>
/export/apps/rDock/src/rDock_2013.1_src/data/scripts/dock_solv.prm

>  <Rbt.Receptor>
prm/pocket_docking_5.prm

>  <SCORE>
-36.9297

>  <SCORE.INTER>
-42.4797

>  <SCORE.INTER.CONST>
1

>  <SCORE.INTER.POLAR>
0

>  <SCORE.INTER.ROT>
2

>  <SCORE.INTER.SOLV>
9.77722

>  <SCORE.INTER.VDW>
-36.5122

>  <SCORE.INTER.norm>
-1.63383

>  <SCORE.INTRA>
5.54991

>  <SCORE.INTRA.DIHEDRAL>
7.4212

>  <SCORE.INTRA.DIHEDRAL.0>
4.18538

>  <SCORE.INTRA.POLAR>
0

>  <SCORE.INTRA.POLAR.0>
0

>  <SCORE.INTRA.REPUL>
0

>  <SCORE.INTRA.REPUL.0>
0

>  <SCORE.INTRA.SOLV>
0.0380885

>  <SCORE.INTRA.SOLV.lig_0>
-5.16926

>  <SCORE.INTRA.VDW>
1.82027

>  <SCORE.INTRA.VDW.0>
1.11912

>  <SCORE.INTRA.norm>
0.213458

>  <SCORE.RESTR>
0

>  <SCORE.RESTR.CAVITY>
0

>  <SCORE.RESTR.norm>
0

>  <SCORE.SYSTEM>
0

>  <SCORE.SYSTEM.CONST>
0

>  <SCORE.SYSTEM.DIHEDRAL>
0

>  <SCORE.SYSTEM.SOLV>
0

>  <SCORE.SYSTEM.norm>
0

>  <SCORE.heavy>
26

>  <SCORE.norm>
-1.42037

>  <RMSD>
7.207

$$$$
1f1t Malachite green aptamer (Xray 2.8A)
 OpenBabel11021811393D
libRbt.so/2013.1/901 2013/11/27
 26 29  0  0  0  0  0  0  0  0999 V2000
  112.0329  -78.6248  -86.7855 C   0  0  0  0  0  0  0  0  0  0  0  0
  112.4709  -79.9574  -86.3972 C   0  0  0  0  0  0  0  0  0  0  0  0
  112.9766  -80.7005  -87.4655 C   0  0  0  0  0  0  0  0  0  0  0  0
  113.4104  -82.0521  -87.0131 O   0  0  0  0  0  0  0  0  0  0  0  0
  113.8805  -82.7199  -87.9934 C   0  0  0  0  0  0  0  0  0  0  0  0
  114.2646  -84.0239  -87.4532 C   0  0  0  0  0  0  0  0  0  0  0  0
  114.8308  -84.9193  -88.4285 C   0  0  0  0  0  0  0  0  0  0  0  0
  115.0087  -84.5566  -89.7866 C   0  0  0  0  0  0  0  0  0  0  0  0
  114.5977  -83.2486  -90.2620 C   0  0  0  0  0  0  0  0  0  0  0  0
  114.0145  -82.3403  -89.3052 C   0  0  0  0  0  0  0  0  0  0  0  0
  113.6008  -81.0086  -89.8860 C   0  0  0  0  0  0  0  0  0  0  0  0
  113.0886  -80.2915  -88.7898 C   0  0  0  0  0  0  0  0  0  0  0  0
  112.6356  -78.9494  -89.1619 C   0  0  0  0  0  0  0  0  0  0  0  0
  112.1158  -78.1658  -88.0857 C   0  0  0  0  0  0  0  0  0  0  0  0
  113.7530  -80.6879  -91.2217 C   0  0  0  0  0  0  0  0  0  0  0  0
  114.4674  -79.5747  -91.7223 C   0  0  0  0  0  0  0  0  0  0  0  0
  114.6459  -79.2455  -93.0672 C   0  0  0  0  0  0  0  0  0  0  0  0
  114.0660  -80.0930  -94.0983 C   0  0  0  0  0  0  0  0  0  0  0  0
  113.3489  -81.1907  -93.5647 C   0  0  0  0  0  0  0  0  0  0  0  0
  113.1413  -81.5560  -92.2275 C   0  0  0  0  0  0  0  0  0  0  0  0
  111.5098  -77.7622  -85.8323 N   0  3  0  0  0  0  0  0  0  0  0  0
  111.3882  -78.1364  -84.4279 C   0  0  0  0  0  0  0  0  0  0  0  0
  111.0154  -76.3884  -86.0722 C   0  0  0  0  0  0  0  0  0  0  0  0
  115.1674  -86.1739  -87.8920 N   0  0  0  0  0  0  0  0  0  0  0  0
  115.3388  -86.6314  -86.4950 C   0  0  0  0  0  0  0  0  0  0  0  0
  115.3896  -87.3021  -88.8640 C   0  0  0  0  0  0  0  0  0  0  0  0
  1  2  1  0  0  0  0
  1 14  1  0  0  0  0
  1 21  2  0  0  0  0
  2  3  2  0  0  0  0
  3  4  1  0  0  0  0
  3 12  1  0  0  0  0
  4  5  1  0  0  0  0
  5  6  1  0  0  0  0
  5 10  2  0  0  0  0
  6  7  2  0  0  0  0
  7  8  1  0  0  0  0
  7 24  1  0  0  0  0
  8  9  2  0  0  0  0
  9 10  1  0  0  0  0
 10 11  1  0  0  0  0
 11 12  2  0  0  0  0
 11 15  1  0  0  0  0
 12 13  1  0  0  0  0
 13 14  2  0  0  0  0
 15 16  2  0  0  0  0
 15 20  1  0  0  0  0
 16 17  1  0  0  0  0
 17 18  2  0  0  0  0
 18 19  1  0  0  0  0
 19 20  2  0  0  0  0
 21 22  1  0  0  0  0
 21 23  1  0  0  0  0
 24 25  1  0  0  0  0
 24 26  1  0  0  0  0
M  CHG  1  21   1
M  END
>  <CHROM.1>
-16.17781388,-123.31912593,113.53665470,-81.42167874,-88.85267367,2.93757418
1.17249063,-1.08097204

>  <Name>
1f1t Malachite green aptamer (Xray 2.8A)

>  <RI>
0

>  <Rbt.Current_Directory>
/home/itssahil/PROJECTS/Mol_Feturizer/New_Systems/rnas/1f1t

>  <Rbt.Executable>
rbdock ($Id: //depot/dev/client3/rdock/2013.1/src/exe/rbdock.cxx#4 $)

>  <Rbt.Library>
libRbt.so (2013.1, Build901 2013/11/27)

>  <Rbt.Parameter_File>
/export/apps/rDock/src/rDock_2013.1_src/data/scripts/dock_solv.prm

>  <Rbt.Receptor>
prm/pocket_docking_8.prm

>  <SCORE>
-33.1503

>  <SCORE.INTER>
-33.6573

>  <SCORE.INTER.CONST>
1

>  <SCORE.INTER.POLAR>
0

>  <SCORE.INTER.ROT>
2

>  <SCORE.INTER.SOLV>
8.59734

>  <SCORE.INTER.VDW>
-30.2373

>  <SCORE.INTER.norm>
-1.29451

>  <SCORE.INTRA>
0.266754

>  <SCORE.INTRA.DIHEDRAL>
0.151871

>  <SCORE.INTRA.DIHEDRAL.0>
4.18538

>  <SCORE.INTRA.POLAR>
0

>  <SCORE.INTRA.POLAR.0>
0

>  <SCORE.INTRA.REPUL>
0

>  <SCORE.INTRA.REPUL.0>
0

>  <SCORE.INTRA.SOLV>
0.0141768

>  <SCORE.INTRA.SOLV.lig_0>
-5.16926

>  <SCORE.INTRA.VDW>
0.18373

>  <SCORE.INTRA.VDW.0>
1.11912

>  <SCORE.INTRA.norm>
0.0102598

>  <SCORE.RESTR>
0.240248

>  <SCORE.RESTR.CAVITY>
0.240248

>  <SCORE.RESTR.norm>
0.00924032

>  <SCORE.SYSTEM>
0

>  <SCORE.SYSTEM.CONST>
0

>  <SCORE.SYSTEM.DIHEDRAL>
0

>  <SCORE.SYSTEM.SOLV>
0

>  <SCORE.SYSTEM.norm>
0

>  <SCORE.heavy>
26

>  <SCORE.norm>
-1.27501

>  <RMSD>
7.278

$$$$
1f1t Malachite green aptamer (Xray 2.8A)
 OpenBabel11021811393D
libRbt.so/2013.1/901 2013/11/27
 26 29  0  0  0  0  0  0  0  0999 V2000
  113.0490  -81.0337  -86.1325 C   0  0  0  0  0  0  0  0  0  0  0  0
  112.5019  -79.7143  -86.4123 C   0  0  0  0  0  0  0  0  0  0  0  0
  112.5208  -78.8671  -85.3026 C   0  0  0  0  0  0  0  0  0  0  0  0
  111.9522  -77.5331  -85.6441 O   0  0  0  0  0  0  0  0  0  0  0  0
  111.9831  -76.7627  -84.6276 C   0  0  0  0  0  0  0  0  0  0  0  0
  111.3981  -75.4931  -85.0586 C   0  0  0  0  0  0  0  0  0  0  0  0
  111.3579  -74.4864  -84.0298 C   0  0  0  0  0  0  0  0  0  0  0  0
  111.8551  -74.7099  -82.7220 C   0  0  0  0  0  0  0  0  0  0  0  0
  112.4158  -75.9969  -82.3546 C   0  0  0  0  0  0  0  0  0  0  0  0
  112.4530  -77.0251  -83.3653 C   0  0  0  0  0  0  0  0  0  0  0  0
  113.0367  -78.3367  -82.8952 C   0  0  0  0  0  0  0  0  0  0  0  0
  112.9936  -79.1669  -84.0298 C   0  0  0  0  0  0  0  0  0  0  0  0
  113.5339  -80.5024  -83.7664 C   0  0  0  0  0  0  0  0  0  0  0  0
  113.5290  -81.3893  -84.8871 C   0  0  0  0  0  0  0  0  0  0  0  0
  113.4854  -78.5434  -81.6045 C   0  0  0  0  0  0  0  0  0  0  0  0
  114.8413  -78.6079  -81.2073 C   0  0  0  0  0  0  0  0  0  0  0  0
  115.3123  -78.7984  -79.9070 C   0  0  0  0  0  0  0  0  0  0  0  0
  114.3640  -78.9494  -78.8134 C   0  0  0  0  0  0  0  0  0  0  0  0
  113.0172  -78.8915  -79.2454 C   0  0  0  0  0  0  0  0  0  0  0  0
  112.5008  -78.7067  -80.5353 C   0  0  0  0  0  0  0  0  0  0  0  0
  113.1037  -81.9887  -87.1382 N   0  3  0  0  0  0  0  0  0  0  0  0
  112.6378  -81.7183  -88.4937 C   0  0  0  0  0  0  0  0  0  0  0  0
  113.6194  -83.3692  -87.0073 C   0  0  0  0  0  0  0  0  0  0  0  0
  110.7682  -73.2853  -84.4596 N   0  0  0  0  0  0  0  0  0  0  0  0
  110.1759  -72.8905  -85.7572 C   0  0  0  0  0  0  0  0  0  0  0  0
  110.6778  -72.1647  -83.4581 C   0  0  0  0  0  0  0  0  0  0  0  0
  1  2  1  0  0  0  0
  1 14  1  0  0  0  0
  1 21  2  0  0  0  0
  2  3  2  0  0  0  0
  3  4  1  0  0  0  0
  3 12  1  0  0  0  0
  4  5  1  0  0  0  0
  5  6  1  0  0  0  0
  5 10  2  0  0  0  0
  6  7  2  0  0  0  0
  7  8  1  0  0  0  0
  7 24  1  0  0  0  0
  8  9  2  0  0  0  0
  9 10  1  0  0  0  0
 10 11  1  0  0  0  0
 11 12  2  0  0  0  0
 11 15  1  0  0  0  0
 12 13  1  0  0  0  0
 13 14  2  0  0  0  0
 15 16  2  0  0  0  0
 15 20  1  0  0  0  0
 16 17  1  0  0  0  0
 17 18  2  0  0  0  0
 18 19  1  0  0  0  0
 19 20  2  0  0  0  0
 21 22  1  0  0  0  0
 21 23  1  0  0  0  0
 24 25  1  0  0  0  0
 24 26  1  0  0  0  0
M  CHG  1  21   1
M  END
>  <CHROM.1>
0.94675006,-105.34890338,112.62726534,-78.01761623,-83.88079311,0.95131435
1.13765697,-2.24142112

>  <Name>
1f1t Malachite green aptamer (Xray 2.8A)

>  <RI>
0

>  <Rbt.Current_Directory>
/home/itssahil/PROJECTS/Mol_Feturizer/New_Systems/rnas/1f1t

>  <Rbt.Executable>
rbdock ($Id: //depot/dev/client3/rdock/2013.1/src/exe/rbdock.cxx#4 $)

>  <Rbt.Library>
libRbt.so (2013.1, Build901 2013/11/27)

>  <Rbt.Parameter_File>
/export/apps/rDock/src/rDock_2013.1_src/data/scripts/dock_solv.prm

>  <Rbt.Receptor>
prm/pocket_docking_7.prm

>  <SCORE>
-37.8309

>  <SCORE.INTER>
-37.8623

>  <SCORE.INTER.CONST>
1

>  <SCORE.INTER.POLAR>
0

>  <SCORE.INTER.ROT>
2

>  <SCORE.INTER.SOLV>
11.9543

>  <SCORE.INTER.VDW>
-34.1596

>  <SCORE.INTER.norm>
-1.45624

>  <SCORE.INTRA>
0.0313762

>  <SCORE.INTRA.DIHEDRAL>
0.267357

>  <SCORE.INTRA.DIHEDRAL.0>
4.18538

>  <SCORE.INTRA.POLAR>
0

>  <SCORE.INTRA.POLAR.0>
0

>  <SCORE.INTRA.REPUL>
0

>  <SCORE.INTRA.REPUL.0>
0

>  <SCORE.INTRA.SOLV>
-0.00515349

>  <SCORE.INTRA.SOLV.lig_0>
-5.16926

>  <SCORE.INTRA.VDW>
-0.0997256

>  <SCORE.INTRA.VDW.0>
1.11912

>  <SCORE.INTRA.norm>
0.00120678

>  <SCORE.RESTR>
0

>  <SCORE.RESTR.CAVITY>
0

>  <SCORE.RESTR.norm>
0

>  <SCORE.SYSTEM>
0

>  <SCORE.SYSTEM.CONST>
0

>  <SCORE.SYSTEM.DIHEDRAL>
0

>  <SCORE.SYSTEM.SOLV>
0

>  <SCORE.SYSTEM.norm>
0

>  <SCORE.heavy>
26

>  <SCORE.norm>
-1.45504

>  <RMSD>
7.912

$$$$
