@<TRIPOS>MOLECULE
lig_1aju.pdb
 11 10 0 0 0
SMALL
GASTEIGER

@<TRIPOS>ATOM
      1 N          -1.8430   -3.0230    2.1640 N.4     1  UNK11       0.5984
      2 N          -4.2230   -2.6410   -1.9930 N.pl3   1  UNK11      -0.0865
      3 N          -5.2510   -3.4060   -3.8550 N.pl3   1  UNK11       0.1354
      4 N          -3.5460   -1.9200   -4.0280 N.pl3   1  UNK11       0.1354
      5 C          -1.1150   -3.5340    0.9630 C.3     1  UNK11       0.3132
      6 C           0.2700   -4.0580    1.3800 C.2     1  UNK11       0.2803
      7 C          -0.9590   -2.3970   -0.0560 C.3     1  UNK11       0.0860
      8 C          -2.3380   -1.9720   -0.5670 C.3     1  UNK11       0.0540
      9 C          -2.9710   -3.1210   -1.3480 C.3     1  UNK11       0.2206
     10 C          -4.3380   -2.6570   -3.2930 C.cat   1  UNK11       0.5346
     11 O           0.6700   -5.1370    0.9830 O.2     1  UNK11      -0.2814
@<TRIPOS>BOND
     1     4    10    2
     2     3    10    1
     3    10     2    1
     4     2     9    1
     5     9     8    1
     6     8     7    1
     7     7     5    1
     8     5     6    1
     9     5     1    1
    10    11     6    2
@<TRIPOS>MOLECULE
lig_1akx.pdb
 11 10 0 0 0
SMALL
GASTEIGER

@<TRIPOS>ATOM
      1 N          -0.0580   -3.3900    2.3940 N.3     1  UNK11      -0.1245
      2 N          -3.3810   -2.7250   -1.7820 N.pl3   1  UNK11      -0.0865
      3 N          -2.6900   -2.0750   -3.8430 N.pl3   1  UNK11       0.1354
      4 N          -4.7680   -2.9240   -3.5580 N.pl3   1  UNK11       0.1354
      5 C          -0.8800   -4.5750    2.0070 C.3     1  UNK11       0.1563
      6 C          -0.2210   -5.8520    2.5430 C.2     1  UNK11       0.2260
      7 C          -0.9860   -4.6510    0.4780 C.3     1  UNK11       0.0307
      8 C          -1.7950   -3.4600   -0.0450 C.3     1  UNK11       0.0489
      9 C          -2.5650   -3.8750   -1.2980 C.3     1  UNK11       0.2205
     10 C          -3.6130   -2.5720   -3.0610 C.cat   1  UNK11       0.5346
     11 O           0.9720   -6.0360    2.4040 O.2     1  UNK11      -0.2867
@<TRIPOS>BOND
     1     3    10    2
     2     4    10    1
     3    10     2    1
     4     2     9    1
     5     9     8    1
     6     8     7    1
     7     7     5    1
     8     5     1    1
     9     5     6    1
    10    11     6    2
@<TRIPOS>MOLECULE
lig_1am0.pdb
 23 25 0 0 0
SMALL
GASTEIGER

@<TRIPOS>ATOM
      1 N          -1.2090   -8.4640    6.2760 N.ar    1  UNK11      -0.2693
      2 N          -1.9800   -6.1750    6.5930 N.ar    1  UNK11      -0.2048
      3 N          -4.1450   -6.0980    7.6150 N.ar    1  UNK11      -0.2040
      4 N          -5.3370   -8.0160    8.2340 N.pl3   1  UNK11      -0.1054
      5 N          -2.9760   -9.5620    7.1340 N.ar    1  UNK11      -0.2193
      6 C           1.0950  -11.6910    5.1210 C.3     1  UNK11       0.1781
      7 C           1.4210  -10.2040    5.2720 C.3     1  UNK11       0.1800
      8 C           0.1130   -8.2610    5.6210 C.3     1  UNK11       0.2409
      9 C          -2.1160   -7.5100    6.6860 C.ar    1  UNK11       0.1692
     10 C          -3.0470   -5.5570    7.0820 C.ar    1  UNK11       0.2016
     11 C          -4.2560   -7.4360    7.6970 C.ar    1  UNK11       0.1919
     12 C          -3.1850   -8.1930    7.2060 C.ar    1  UNK11       0.1518
     13 C          -1.8070   -9.6530    6.5820 C.ar    1  UNK11       0.1816
     14 C           1.4540   -8.1530    6.4490 C.3     1  UNK11       0.2337
     15 C           1.7750   -9.6200    6.6850 C.3     1  UNK11       0.2161
     16 O          -2.4930  -12.6550    3.9570 O.3     1  UNK11      -0.2139
     17 O          -1.0770  -10.9320    2.8300 O.2     1  UNK11      -0.8499
     18 O          -0.3310  -13.3820    2.9350 O.3     1  UNK11      -0.7986
     19 O          -0.3140  -11.9510    5.0060 O.3     1  UNK11      -0.3423
     20 O           0.2940   -9.4420    4.8240 O.3     1  UNK11      -0.3306
     21 O           2.4720   -7.5810    5.6370 O.3     1  UNK11      -0.2155
     22 O           3.0830  -10.0310    7.0600 O.3     1  UNK11      -0.2175
     23 P          -0.9950  -12.2160    3.5600 P.3     1  UNK11       0.0265
@<TRIPOS>BOND
     1    17    23    2
     2    18    23    1
     3    23    16    1
     4    23    19    1
     5    20     7    1
     6    20     8    1
     7    19     6    1
     8     6     7    1
     9     7    15    1
    10     8     1    1
    11     8    14    1
    12    21    14    1
    13     1    13   ar
    14     1     9   ar
    15    14    15    1
    16    13     5   ar
    17     2     9   ar
    18     2    10   ar
    19    15    22    1
    20     9    12   ar
    21    10     3   ar
    22     5    12   ar
    23    12    11   ar
    24     3    11   ar
    25    11     4    1
@<TRIPOS>MOLECULE
lig_1byj.pdb
 31 33 0 0 0
SMALL
GASTEIGER

@<TRIPOS>ATOM
      1 N           6.6520    3.9500    1.2960 N.4     1  UNK11       0.5959
      2 N          10.5040    0.1710   -2.5950 N.4     1  UNK11       0.5996
      3 N           4.7060    8.9270   -4.2290 N.4     1  UNK11       0.5934
      4 N           8.7540    6.1600   -3.5350 N.4     1  UNK11       0.5934
      5 N          -0.9090    8.0130   -0.4710 N.4     1  UNK11       0.4528
      6 C           8.8040    1.8920   -1.8890 C.3     1  UNK11       0.1920
      7 C           6.8270    3.2490   -1.1340 C.3     1  UNK11       0.3058
      8 C           7.1690    2.9370    0.3550 C.3     1  UNK11       0.3046
      9 C           8.7020    2.7740    0.5250 C.3     1  UNK11       0.0819
     10 C           9.2490    1.6890   -0.4140 C.3     1  UNK11       0.0432
     11 C           9.1070    0.6150   -2.6910 C.3     1  UNK11       0.3447
     12 C           7.4610    6.5650   -2.9560 C.3     1  UNK11       0.2846
     13 C           6.6980    7.4780   -3.9470 C.3     1  UNK11       0.1525
     14 C           5.3840    7.9980   -3.3050 C.3     1  UNK11       0.2846
     15 C           4.4680    6.8040   -2.9080 C.3     1  UNK11       0.2177
     16 C           5.2100    5.7950   -1.9950 C.3     1  UNK11       0.2186
     17 C           6.6010    5.3280   -2.5370 C.3     1  UNK11       0.2179
     18 C           1.0270    5.2490   -2.3540 C.3     1  UNK11       0.1811
     19 C          -0.1640    5.9000   -1.6080 C.3     1  UNK11       0.2071
     20 C           0.2790    7.2990   -1.0340 C.3     1  UNK11       0.2100
     21 C           1.0090    8.1900   -2.0950 C.3     1  UNK11       0.2662
     22 C           2.0710    7.4220   -2.9220 C.3     1  UNK11       0.2732
     23 C          -0.6440    9.0820    0.5130 C.3     1  UNK11       0.2703
     24 C          -0.6610    4.9190   -0.5190 C.3     1  UNK11       0.0419
     25 O           7.3760    2.1990   -1.9850 O.3     1  UNK11      -0.3215
     26 O           7.3280    4.5650   -1.5230 O.3     1  UNK11      -0.3190
     27 O           4.3460    4.6780   -1.8400 O.3     1  UNK11      -0.2174
     28 O          -1.2190    6.0500   -2.5570 O.3     1  UNK11      -0.2168
     29 O           3.3040    7.2740   -2.1700 O.3     1  UNK11      -0.3216
     30 O           1.5530    6.1390   -3.3750 O.3     1  UNK11      -0.3256
     31 O           1.6280    9.3210   -1.4890 O.3     1  UNK11      -0.2111
@<TRIPOS>BOND
     1     3    14    1
     2    13    14    1
     3    13    12    1
     4     4    12    1
     5    30    22    1
     6    30    18    1
     7    14    15    1
     8    12    17    1
     9    22    29    1
    10    22    21    1
    11    15    29    1
    12    15    16    1
    13    11     2    1
    14    11     6    1
    15    28    19    1
    16    17    16    1
    17    17    26    1
    18    18    19    1
    19    21    31    1
    20    21    20    1
    21    16    27    1
    22    25     6    1
    23    25     7    1
    24     6    10    1
    25    19    20    1
    26    19    24    1
    27    26     7    1
    28     7     8    1
    29    20     5    1
    30     5    23    1
    31    10     9    1
    32     8     9    1
    33     8     1    1
@<TRIPOS>MOLECULE
lig_1eht.pdb
 13 14 0 0 0
SMALL
GASTEIGER

@<TRIPOS>ATOM
      1 N          -5.2440   -7.0080   11.5610 N.am    1  UNK11      -0.2454
      2 N          -6.1060   -6.8640   13.8270 N.am    1  UNK11      -0.2627
      3 N          -5.9550   -3.6030   12.5540 N.ar    1  UNK11      -0.2160
      4 N          -6.5820   -4.5250   14.4780 N.ar    1  UNK11      -0.2047
      5 C          -4.7850   -7.8540   10.5550 C.3     1  UNK11       0.1383
      6 C          -5.6340   -7.5700   12.7490 C.2     1  UNK11       0.3350
      7 C          -6.4940   -7.4530   15.0190 C.3     1  UNK11       0.1366
      8 C          -6.1570   -5.5190   13.6040 C.ar    1  UNK11       0.1716
      9 C          -5.7670   -4.9710   12.4160 C.ar    1  UNK11       0.1731
     10 C          -5.2800   -5.6770   11.3010 C.2     1  UNK11       0.2850
     11 C          -6.4410   -3.4180   13.8040 C.ar    1  UNK11       0.2005
     12 O          -5.5510   -8.7970   12.8300 O.2     1  UNK11      -0.2461
     13 O          -4.9160   -5.2320   10.2130 O.2     1  UNK11      -0.2651
@<TRIPOS>BOND
     1    13    10    2
     2     5     1    1
     3    10     1   am
     4    10     9    1
     5     1     6   am
     6     9     3   ar
     7     9     8   ar
     8     3    11   ar
     9     6    12    2
    10     6     2   am
    11     8     2    1
    12     8     4   ar
    13    11     4   ar
    14     2     7    1
@<TRIPOS>MOLECULE
lig_1ei2.pdb
 42 45 0 0 0
SMALL
GASTEIGER

@<TRIPOS>ATOM
      1 N          -6.7040    7.4430    1.6590 N.4     1  UNK11       0.5986
      2 N          -1.2160    1.7600    1.7280 N.4     1  UNK11       0.5936
      3 N          -5.6470    2.5450    3.7040 N.4     1  UNK11       0.5934
      4 N          -9.2150    2.6220   -0.8510 N.4     1  UNK11       0.5997
      5 N          -0.1420    2.0510   -1.8350 N.4     1  UNK11       0.5997
      6 N          -3.5860    3.4790   -7.0650 N.4     1  UNK11       0.5986
      7 C          -7.2380    5.0530    1.0690 C.3     1  UNK11       0.3087
      8 C          -7.7330    6.5360    1.1010 C.3     1  UNK11       0.3372
      9 C          -9.0610    6.6540    1.9070 C.3     1  UNK11       0.2568
     10 C         -10.1850    5.7720    1.2990 C.3     1  UNK11       0.2223
     11 C          -9.6620    4.3370    0.9680 C.3     1  UNK11       0.2246
     12 C          -9.5760    4.0180   -0.5420 C.3     1  UNK11       0.3475
     13 C          -2.2690    2.7850    1.9070 C.3     1  UNK11       0.2877
     14 C          -2.7440    3.3570    0.5450 C.3     1  UNK11       0.2485
     15 C          -3.9630    4.3370    0.6620 C.3     1  UNK11       0.1878
     16 C          -5.1210    3.7850    1.5720 C.3     1  UNK11       0.2148
     17 C          -4.5810    3.1960    2.9150 C.3     1  UNK11       0.2845
     18 C          -3.4530    2.1660    2.6790 C.3     1  UNK11       0.1527
     19 C          -4.2320    5.7830   -1.3770 C.3     1  UNK11       0.2694
     20 C          -3.0400    5.5580   -2.3010 C.3     1  UNK11       0.2373
     21 C          -3.7340    4.8670   -3.4670 C.3     1  UNK11       0.1829
     22 C          -5.0320    5.6790   -3.5810 C.3     1  UNK11       0.1804
     23 C          -6.2060    4.8620   -4.1490 C.3     1  UNK11       0.2141
     24 C          -3.2630    1.1990   -3.9020 C.3     1  UNK11       0.2223
     25 C          -3.9030    1.9190   -5.1220 C.3     1  UNK11       0.2568
     26 C          -2.9070    2.7910   -5.9390 C.3     1  UNK11       0.3372
     27 C          -2.1290    3.7790   -5.0120 C.3     1  UNK11       0.3086
     28 C          -1.7840    1.6500   -3.7060 C.3     1  UNK11       0.2246
     29 C          -1.1880    1.1550   -2.3630 C.3     1  UNK11       0.3475
     30 O          -6.0510    4.8640    1.8980 O.3     1  UNK11      -0.3190
     31 O          -9.5080    8.0090    1.9210 O.3     1  UNK11      -0.2133
     32 O         -11.2600    5.6980    2.2280 O.3     1  UNK11      -0.2173
     33 O          -8.3130    4.1550    1.5090 O.3     1  UNK11      -0.3187
     34 O          -4.5100    4.5410   -0.6680 O.3     1  UNK11      -0.3254
     35 O          -5.3350    6.1170   -2.2350 O.3     1  UNK11      -0.3257
     36 O          -2.9390    4.9440   -4.6850 O.3     1  UNK11      -0.3228
     37 O          -1.7050    3.1120   -3.7600 O.3     1  UNK11      -0.3187
     38 O          -2.4880    6.8150   -2.6910 O.3     1  UNK11      -0.2150
     39 O          -4.4580    0.9290   -5.9880 O.3     1  UNK11      -0.2133
     40 O          -4.0320    1.5120   -2.7390 O.3     1  UNK11      -0.2173
     41 O          -6.9160    5.6070   -5.1230 O.3     1  UNK11      -0.2176
     42 O          -1.6570    4.0530   -0.0630 O.3     1  UNK11      -0.2136
@<TRIPOS>BOND
     1     6    26    1
     2    39    25    1
     3    26    25    1
     4    26    27    1
     5    41    23    1
     6    25    24    1
     7    27    36    1
     8    27    37    1
     9    36    21    1
    10    23    22    1
    11    24    28    1
    12    24    40    1
    13    37    28    1
    14    28    29    1
    15    22    21    1
    16    22    35    1
    17    21    20    1
    18    38    20    1
    19    29     5    1
    20    20    19    1
    21    35    19    1
    22    19    34    1
    23     4    12    1
    24    34    15    1
    25    12    11    1
    26    42    14    1
    27    14    15    1
    28    14    13    1
    29    15    16    1
    30    11    10    1
    31    11    33    1
    32     7     8    1
    33     7    33    1
    34     7    30    1
    35     8     1    1
    36     8     9    1
    37    10     9    1
    38    10    32    1
    39    16    30    1
    40    16    17    1
    41     2    13    1
    42     9    31    1
    43    13    18    1
    44    18    17    1
    45    17     3    1
@<TRIPOS>MOLECULE
lig_1f1t.pdb
 26 29 0 0 0
SMALL
GASTEIGER

@<TRIPOS>ATOM
      1 N         111.4190  -74.2800  -80.4740 N.pl3   1  UNK11      -0.1533
      2 N         112.7620  -80.6250  -87.2790 N.pl3   1  UNK11      -0.3073
      3 C         111.2370  -74.6530  -81.7980 C.2     1  UNK11       0.2143
      4 C         111.7590  -75.9260  -82.2740 C.2     1  UNK11       0.1048
      5 C         111.5000  -76.1530  -83.6270 C.2     1  UNK11       0.1470
      6 C         111.8230  -77.6600  -85.2990 C.2     1  UNK11       0.1247
      7 C         112.3930  -78.9680  -85.6220 C.3     1  UNK11       0.1047
      8 C         112.2300  -79.3550  -87.0000 C.2     1  UNK11       0.0286
      9 C         111.5870  -78.5290  -87.9540 C.2     1  UNK11      -0.0108
     10 C         111.0340  -77.2440  -87.5680 C.3     1  UNK11       0.0560
     11 C         111.1720  -76.8430  -86.1890 C.2     1  UNK11       0.0127
     12 C         110.5560  -75.5010  -85.8690 C.2     1  UNK11      -0.0018
     13 C         110.8250  -75.3090  -84.5020 C.2     1  UNK11       0.0169
     14 C         110.3010  -74.0350  -84.0030 C.3     1  UNK11       0.0616
     15 C         110.5550  -73.7770  -82.6200 C.2     1  UNK11       0.0468
     16 C         109.9030  -74.7270  -86.8090 C.ar    1  UNK11      -0.0004
     17 C         110.2230  -73.3890  -87.1370 C.ar    1  UNK11      -0.0000
     18 C         109.5860  -72.5990  -88.0950 C.ar    1  UNK11      -0.0000
     19 C         108.4800  -73.1510  -88.8640 C.ar    1  UNK11      -0.0000
     20 C         108.1780  -74.4870  -88.5040 C.ar    1  UNK11      -0.0000
     21 C         108.7860  -75.3130  -87.5500 C.ar    1  UNK11      -0.0000
     22 C         112.1350  -75.1210  -79.5210 C.3     1  UNK11       0.3946
     23 C         110.9420  -73.0300  -79.8420 C.3     1  UNK11       0.3946
     24 C         113.3530  -81.6590  -86.4000 C.3     1  UNK11       0.1120
     25 C         112.7370  -81.0820  -88.7140 C.3     1  UNK11       0.1120
     26 O         112.0550  -77.4650  -84.0600 O.2     1  UNK11      -0.4578
@<TRIPOS>BOND
     1    19    20   ar
     2    19    18   ar
     3    25     2    1
     4    20    21   ar
     5    18    17   ar
     6     9    10    1
     7     9     8    2
     8    10    11    1
     9    21    16   ar
    10     2     8    1
    11     2    24    1
    12    17    16   ar
    13     8     7    1
    14    16    12    1
    15    11    12    1
    16    11     6    2
    17    12    13    2
    18     7     6    1
    19     6    26    1
    20    13    14    1
    21    13     5    1
    22    26     5    1
    23    14    15    1
    24     5     4    2
    25    15     3    2
    26     4     3    1
    27     3     1    1
    28     1    23    1
    29     1    22    1
@<TRIPOS>MOLECULE
lig_1f27.pdb
 16 17 0 0 0
SMALL
GASTEIGER

@<TRIPOS>ATOM
      1 N          13.8300    2.2150   11.9180 N.am    1  UNK11      -0.1863
      2 N          15.9480    3.0230   12.0170 N.am    1  UNK11      -0.1863
      3 C          20.8600   -2.1090   13.2430 C.2     1  UNK11       0.0503
      4 C          20.3640   -1.0250   14.1910 C.3     1  UNK11       0.0417
      5 C          19.2650   -0.1200   13.5890 C.3     1  UNK11       0.0059
      6 C          18.9620    1.0650   14.4870 C.3     1  UNK11       0.0013
      7 C          17.9510    2.0270   13.8970 C.3     1  UNK11       0.0126
      8 C          16.4840    1.6480   14.1390 C.3     1  UNK11       0.0694
      9 C          14.1370    0.5480   13.7240 C.3     1  UNK11       0.0810
     10 C          14.1620    2.0760   13.4280 C.3     1  UNK11       0.1284
     11 C          14.7440    2.7810   11.2560 C.2     1  UNK11       0.3393
     12 C          15.5640    2.6590   13.4510 C.3     1  UNK11       0.1275
     13 O          21.7520   -2.8740   13.5950 O.co2   1  UNK11      -0.5492
     14 O          20.3290   -2.2550   12.1430 O.co2   1  UNK11      -0.5492
     15 O          14.8870    2.9180    9.9890 O.2     1  UNK11      -0.2492
     16 S          15.9290   -0.0420   13.4310 S.3     1  UNK11      -0.1374
@<TRIPOS>BOND
     1    15    11    2
     2    11     1   am
     3    11     2   am
     4     1    10    1
     5     2    12    1
     6    14     3   ar
     7     3    13   ar
     8     3     4    1
     9    10    12    1
    10    10     9    1
    11    16     9    1
    12    16     8    1
    13    12     8    1
    14     5     4    1
    15     5     6    1
    16     7     8    1
    17     7     6    1
@<TRIPOS>MOLECULE
lig_1fmn.pdb
 31 33 0 0 0
SMALL
GASTEIGER

@<TRIPOS>ATOM
      1 N          -8.6660   -6.2130    3.6270 N.am    1  UNK11       0.0442
      2 N         -10.7680   -5.6470    4.5540 N.am    1  UNK11      -0.0996
      3 N         -10.7190   -4.4480    1.0870 N.2     1  UNK11      -0.2518
      4 N          -8.1500   -5.6140    1.3260 N.pl3   1  UNK11      -0.1859
      5 C          -9.4950   -6.2480    4.7230 C.2     1  UNK11       0.4599
      6 C         -11.2590   -5.0270    3.3840 C.2     1  UNK11       0.2852
      7 C         -10.3170   -5.0320    2.2620 C.3     1  UNK11       0.2840
      8 C          -9.9170   -4.6120   -0.0050 C.2     1  UNK11       0.1011
      9 C         -10.4000   -4.1880   -1.2310 C.2     1  UNK11       0.0140
     10 C          -9.6590   -4.3190   -2.3560 C.2     1  UNK11      -0.0247
     11 C         -10.2260   -3.8420   -3.6550 C.3     1  UNK11       0.0307
     12 C          -8.4190   -4.8760   -2.3020 C.2     1  UNK11      -0.0258
     13 C          -7.6110   -5.0230   -3.5500 C.3     1  UNK11       0.0305
     14 C          -7.9040   -5.3050   -1.1210 C.2     1  UNK11       0.0214
     15 C          -8.6260   -5.1930    0.0670 C.3     1  UNK11       0.2217
     16 C          -9.0200   -5.6420    2.4360 C.2     1  UNK11       0.3273
     17 C          -6.6730   -5.4780    1.6080 C.3     1  UNK11       0.2381
     18 C          -5.7790   -6.6920    1.2130 C.3     1  UNK11       0.2311
     19 C          -5.9700   -7.9170    2.1390 C.3     1  UNK11       0.2189
     20 C          -5.4510   -7.7860    3.5920 C.3     1  UNK11       0.2145
     21 C          -3.9200   -7.9650    3.7040 C.3     1  UNK11       0.1803
     22 O          -9.1530   -6.7720    5.7840 O.2     1  UNK11      -0.2173
     23 O         -12.3960   -4.5370    3.3740 O.2     1  UNK11      -0.2700
     24 O          -4.4180   -6.2910    1.1320 O.3     1  UNK11      -0.2158
     25 O          -5.4220   -9.0840    1.5320 O.3     1  UNK11      -0.2174
     26 O          -6.0880   -8.7790    4.3880 O.3     1  UNK11      -0.2176
     27 O          -3.4710   -7.9660    5.0530 O.3     1  UNK11      -0.3515
     28 O          -1.5530   -9.6100    5.0550 O.2     1  UNK11      -0.6377
     29 O          -1.1020   -7.1060    5.0660 O.3     1  UNK11      -0.5770
     30 O          -1.9910   -8.2570    7.0450 O.3     1  UNK11      -0.5770
     31 P          -1.9630   -8.2440    5.4530 P.3     1  UNK11      -0.0139
@<TRIPOS>BOND
     1    11    10    1
     2    13    12    1
     3    10    12    1
     4    10     9    2
     5    12    14    2
     6     9     8    1
     7    14    15    1
     8     8    15    1
     9     8     3    2
    10    15     4    1
    11     3     7    1
    12    24    18    1
    13    18    17    1
    14    18    19    1
    15     4    17    1
    16     4    16    1
    17    25    19    1
    18    19    20    1
    19     7    16    1
    20     7     6    1
    21    16     1    2
    22    23     6    2
    23     6     2   am
    24    20    21    1
    25    20    26    1
    26     1     5    1
    27    21    27    1
    28     2     5   am
    29     5    22    2
    30    27    31    1
    31    28    31    2
    32    29    31    1
    33    31    30    1
@<TRIPOS>MOLECULE
lig_1fyp.pdb
 42 45 0 0 0
SMALL
GASTEIGER

@<TRIPOS>ATOM
      1 N           3.1100    8.0910   21.6650 N.3     1  UNK11      -0.1301
      2 N           4.8660    5.7590   29.4340 N.3     1  UNK11      -0.1248
      3 N          -0.8070    0.6150   23.8500 N.3     1  UNK11      -0.1248
      4 N           6.7200    8.6050   24.9540 N.3     1  UNK11      -0.1302
      5 N          -2.5200   -0.9610   29.5510 N.3     1  UNK11      -0.1286
      6 C           6.2140    5.6080   27.3210 C.3     1  UNK11       0.2561
      7 C           3.4740    7.8150   23.0670 C.3     1  UNK11       0.1261
      8 C           2.7450    3.8020   25.4320 C.3     1  UNK11       0.2694
      9 C           0.2100    0.2280   26.1360 C.3     1  UNK11       0.2561
     10 C           6.2360    5.7400   28.8780 C.3     1  UNK11       0.1807
     11 C           4.8900    8.3580   23.3460 C.3     1  UNK11       0.0433
     12 C           2.9840    2.3100   25.1850 C.3     1  UNK11       0.2373
     13 C          -0.1030   -0.3540   24.7250 C.3     1  UNK11       0.1807
     14 C           7.0160    7.0170   29.3180 C.3     1  UNK11       0.2070
     15 C           5.3290    8.1250   24.8170 C.3     1  UNK11       0.1230
     16 C           2.2110    1.6720   26.3430 C.3     1  UNK11       0.1827
     17 C          -0.8950   -1.6930   24.8390 C.3     1  UNK11       0.2070
     18 C           8.4240    7.0820   28.6750 C.3     1  UNK11       0.2133
     19 C           5.1930    6.6260   25.2650 C.3     1  UNK11       0.1649
     20 C           2.4430    2.6800   27.4780 C.3     1  UNK11       0.1804
     21 C          -2.1020   -1.6370   25.8230 C.3     1  UNK11       0.2122
     22 C           8.3180    6.9610   27.1280 C.3     1  UNK11       0.1834
     23 C           3.8140    5.9890   24.8600 C.3     1  UNK11       0.1779
     24 C           3.7120    2.3850   28.2960 C.3     1  UNK11       0.2141
     25 C          -1.6800   -0.9930   27.1810 C.3     1  UNK11       0.1696
     26 C           9.6720    6.8680   26.3900 C.3     1  UNK11       0.2142
     27 C           3.4090    6.3020   23.3860 C.3     1  UNK11       0.1989
     28 C          -2.8810   -0.7680   28.1350 C.3     1  UNK11       0.1415
     29 O           5.3300    6.5950   26.7150 O.3     1  UNK11      -0.3278
     30 O           2.4260    1.9410   23.9230 O.3     1  UNK11      -0.2150
     31 O           7.1640    7.0400   30.7360 O.3     1  UNK11      -0.2186
     32 O           0.7930    1.5540   26.0450 O.3     1  UNK11      -0.3265
     33 O          -0.0020   -2.7110   25.2860 O.3     1  UNK11      -0.2186
     34 O           9.0460    8.3110   29.0390 O.3     1  UNK11      -0.2176
     35 O           2.5490    3.9700   26.8460 O.3     1  UNK11      -0.3257
     36 O          -3.1460   -0.8720   25.2180 O.3     1  UNK11      -0.2177
     37 O           7.5760    5.7490   26.7940 O.3     1  UNK11      -0.3264
     38 O           3.9200    4.5490   25.0080 O.3     1  UNK11      -0.3258
     39 O           3.5010    1.3000   29.1820 O.3     1  UNK11      -0.2176
     40 O          -1.0210    0.2860   26.9340 O.3     1  UNK11      -0.3276
     41 O          10.4840    7.9980   26.6610 O.3     1  UNK11      -0.2176
     42 O           2.0790    5.8340   23.1650 O.3     1  UNK11      -0.2189
@<TRIPOS>BOND
     1     1     7    1
     2     7    11    1
     3     7    27    1
     4    42    27    1
     5    11    15    1
     6    27    23    1
     7     3    13    1
     8    30    12    1
     9    13    17    1
    10    13     9    1
    11    15     4    1
    12    15    19    1
    13    17    33    1
    14    17    21    1
    15    23    38    1
    16    23    19    1
    17    38     8    1
    18    12     8    1
    19    12    16    1
    20    36    21    1
    21    19    29    1
    22     8    35    1
    23    21    25    1
    24    32     9    1
    25    32    16    1
    26     9    40    1
    27    16    20    1
    28    26    41    1
    29    26    22    1
    30    29     6    1
    31    37    22    1
    32    37     6    1
    33    35    20    1
    34    40    25    1
    35    22    18    1
    36    25    28    1
    37     6    10    1
    38    20    24    1
    39    28     5    1
    40    24    39    1
    41    18    34    1
    42    18    14    1
    43    10    14    1
    44    10     2    1
    45    14    31    1
@<TRIPOS>MOLECULE
lig_1j7t.pdb
 42 45 0 0 0
SMALL
GASTEIGER

@<TRIPOS>ATOM
      1 N          28.3760    7.4670   52.9100 N.4     1  UNK11       0.5986
      2 N          35.4050    5.1680   54.7630 N.4     1  UNK11       0.5936
      3 N          33.6350    7.9470   51.0620 N.4     1  UNK11       0.5934
      4 N          28.9790    4.6170   60.9510 N.4     1  UNK11       0.5986
      5 N          25.1780    4.2650   56.5100 N.4     1  UNK11       0.5997
      6 C          30.3210    9.1370   52.9040 C.3     1  UNK11       0.3086
      7 C          28.8620    8.8080   52.4740 C.3     1  UNK11       0.3372
      8 C          28.7950    8.8600   50.9320 C.3     1  UNK11       0.2566
      9 C          29.2650   10.2440   50.4270 C.3     1  UNK11       0.2183
     10 C          30.6940   10.4930   50.8630 C.3     1  UNK11       0.1838
     11 C          31.1890   11.8770   50.5080 C.3     1  UNK11       0.2142
     12 C          34.1950    5.5920   54.0570 C.3     1  UNK11       0.2877
     13 C          34.5740    6.5330   52.8650 C.3     1  UNK11       0.1527
     14 C          33.3000    7.0210   52.1490 C.3     1  UNK11       0.2845
     15 C          32.3600    7.7220   53.1490 C.3     1  UNK11       0.2148
     16 C          31.9910    6.8270   54.3480 C.3     1  UNK11       0.1878
     17 C          33.2730    6.2970   55.0390 C.3     1  UNK11       0.2485
     18 C          30.4720    7.1550   56.3370 C.3     1  UNK11       0.2694
     19 C          30.1800    8.3290   57.3390 C.3     1  UNK11       0.2373
     20 C          28.8440    7.8360   57.8740 C.3     1  UNK11       0.1829
     21 C          28.1050    7.4310   56.6060 C.3     1  UNK11       0.1804
     22 C          27.4860    8.6170   55.7970 C.3     1  UNK11       0.2141
     23 C          27.8130    6.1840   59.3110 C.3     1  UNK11       0.3086
     24 C          27.9820    5.7200   60.7970 C.3     1  UNK11       0.3372
     25 C          26.5660    5.2880   61.3060 C.3     1  UNK11       0.2568
     26 C          25.9130    4.1710   60.4020 C.3     1  UNK11       0.2223
     27 C          25.8260    4.7230   58.9190 C.3     1  UNK11       0.2246
     28 C          25.2200    3.7330   57.8990 C.3     1  UNK11       0.3475
     29 O          31.1520    8.0410   52.4470 O.3     1  UNK11      -0.3191
     30 O          27.4970    8.5860   50.4850 O.3     1  UNK11      -0.2133
     31 O          29.1910   10.3210   49.0170 O.3     1  UNK11      -0.2175
     32 O          30.7800   10.3750   52.2770 O.3     1  UNK11      -0.3228
     33 O          32.5740   11.9670   50.7830 O.3     1  UNK11      -0.2176
     34 O          31.2490    7.6640   55.2560 O.3     1  UNK11      -0.3254
     35 O          32.9130    5.4090   56.0600 O.3     1  UNK11      -0.2136
     36 O          31.1840    8.5080   58.3240 O.3     1  UNK11      -0.2150
     37 O          29.0130    6.6370   58.6880 O.3     1  UNK11      -0.3228
     38 O          29.1500    6.7530   55.8860 O.3     1  UNK11      -0.3257
     39 O          26.6230    8.1510   54.7510 O.3     1  UNK11      -0.2176
     40 O          25.7040    6.4900   61.2720 O.3     1  UNK11      -0.2133
     41 O          26.7230    2.9860   60.4830 O.3     1  UNK11      -0.2173
     42 O          27.1850    5.0920   58.5040 O.3     1  UNK11      -0.3187
@<TRIPOS>BOND
     1    31     9    1
     2     9    10    1
     3     9     8    1
     4    30     8    1
     5    11    33    1
     6    11    10    1
     7    10    32    1
     8     8     7    1
     9     3    14    1
    10    14    13    1
    11    14    15    1
    12    32     6    1
    13    29     6    1
    14    29    15    1
    15     7     6    1
    16     7     1    1
    17    13    12    1
    18    15    16    1
    19    12     2    1
    20    12    17    1
    21    16    17    1
    22    16    34    1
    23    39    22    1
    24    17    35    1
    25    34    18    1
    26    22    21    1
    27    38    18    1
    28    38    21    1
    29    18    19    1
    30     5    28    1
    31    21    20    1
    32    19    20    1
    33    19    36    1
    34    20    37    1
    35    28    27    1
    36    42    27    1
    37    42    23    1
    38    37    23    1
    39    27    26    1
    40    23    24    1
    41    26    41    1
    42    26    25    1
    43    24     4    1
    44    24    25    1
    45    40    25    1
@<TRIPOS>MOLECULE
lig_1koc.pdb
 12 11 0 0 0
SMALL
GASTEIGER

@<TRIPOS>ATOM
      1 N           5.0050    7.9420   29.6870 N.4     1  UNK11       0.5961
      2 N           2.9860    2.4710   30.3480 N.pl3   1  UNK11      -0.0865
      3 N           1.0620    2.3210   31.5510 N.pl3   1  UNK11       0.1354
      4 N           2.3640    0.4910   31.2590 N.pl3   1  UNK11       0.1354
      5 C           4.0620    6.9160   30.2260 C.3     1  UNK11       0.2856
      6 C           4.6110    6.3800   31.5620 C.2     1  UNK11       0.1181
      7 C           3.9120    5.7690   29.1900 C.3     1  UNK11       0.0836
      8 C           2.7820    4.8120   29.5870 C.3     1  UNK11       0.0539
      9 C           3.2590    3.8940   30.7070 C.3     1  UNK11       0.2206
     10 C           2.1380    1.7620   31.0540 C.cat   1  UNK11       0.5346
     11 O           3.9240    6.5230   32.5630 O.co2   1  UNK11      -0.5434
     12 O           5.7120    5.8480   31.5660 O.co2   1  UNK11      -0.5434
@<TRIPOS>BOND
     1     7     8    1
     2     7     5    1
     3     8     9    1
     4     1     5    1
     5     5     6    1
     6     2     9    1
     7     2    10    1
     8    10     4    2
     9    10     3    1
    10     6    12   ar
    11     6    11   ar
@<TRIPOS>MOLECULE
lig_1kod.pdb
 12 11 0 0 0
SMALL
GASTEIGER

@<TRIPOS>ATOM
      1 N           1.2310    6.5780   35.9170 N.4     1  UNK11       0.5969
      2 N           2.2350    1.3950   33.5960 N.am    1  UNK11      -0.1859
      3 N           0.3470    0.5160   32.7270 N.am    1  UNK11      -0.0679
      4 C           1.9480    4.3900   36.8300 C.2     1  UNK11       0.1648
      5 C           1.4910    5.1480   35.5680 C.3     1  UNK11       0.2951
      6 C           2.5720    5.0750   34.4640 C.3     1  UNK11       0.0827
      7 C           3.0200    3.6350   34.2470 C.3     1  UNK11       0.0305
      8 C           1.9270    2.8570   33.5170 C.3     1  UNK11       0.1171
      9 C           1.2720    0.5140   33.6430 C.2     1  UNK11       0.3589
     10 O           1.3570    3.3610   37.1240 O.co2   1  UNK11      -0.8430
     11 O           2.8800    4.8490   37.4780 O.co2   1  UNK11      -0.3018
     12 O           1.2350   -0.3280   34.5380 O.2     1  UNK11      -0.2474
@<TRIPOS>BOND
     1     3     9   am
     2     8     2    1
     3     8     7    1
     4     2     9   am
     5     9    12    2
     6     7     6    1
     7     6     5    1
     8     5     1    1
     9     5     4    1
    10     4    10   ar
    11     4    11   ar
@<TRIPOS>MOLECULE
lig_1lc4.pdb
 32 34 0 0 0
SMALL
GASTEIGER

@<TRIPOS>ATOM
      1 N         -12.0220    3.7830   19.5940 N.4     1  UNK11       0.5960
      2 N          -7.4760    8.2150   21.4000 N.4     1  UNK11       0.5997
      3 N         -14.2420   11.0420   17.9100 N.4     1  UNK11       0.5934
      4 N         -11.3720    9.1170   21.3830 N.4     1  UNK11       0.5934
      5 N         -17.5630    8.2760   13.9300 N.4     1  UNK11       0.5963
      6 C         -10.4540    5.6810   19.4060 C.3     1  UNK11       0.3060
      7 C         -10.6920    4.2670   19.9740 C.3     1  UNK11       0.3071
      8 C         -10.5110    4.2730   21.5100 C.3     1  UNK11       0.1147
      9 C          -9.0800    4.7560   21.8060 C.3     1  UNK11       0.1921
     10 C          -8.8870    6.1750   21.2170 C.3     1  UNK11       0.2220
     11 C          -7.4770    6.7280   21.4100 C.3     1  UNK11       0.3474
     12 C         -13.8110    9.7840   18.5480 C.3     1  UNK11       0.2846
     13 C         -12.7610   10.0760   19.6110 C.3     1  UNK11       0.1525
     14 C         -12.3020    8.7750   20.2790 C.3     1  UNK11       0.2846
     15 C         -11.7150    7.7800   19.2340 C.3     1  UNK11       0.2179
     16 C         -12.7610    7.5260   18.1180 C.3     1  UNK11       0.2186
     17 C         -13.2260    8.8500   17.4910 C.3     1  UNK11       0.2177
     18 C         -14.0800    9.2170   15.2760 C.3     1  UNK11       0.2736
     19 C         -15.4820    9.4570   14.6910 C.3     1  UNK11       0.2771
     20 C         -16.1860    8.1060   14.4780 C.3     1  UNK11       0.3163
     21 C         -15.3290    7.2270   13.5340 C.3     1  UNK11       0.2511
     22 C         -13.9100    7.0580   14.1070 C.3     1  UNK11       0.1873
     23 C         -12.9890    6.3390   13.1470 C.3     1  UNK11       0.2144
     24 O         -11.4630    6.5270   19.9000 O.3     1  UNK11      -0.3190
     25 O          -8.8280    4.7390   23.2150 O.3     1  UNK11      -0.2201
     26 O          -9.1480    6.1700   19.7850 O.3     1  UNK11      -0.3188
     27 O         -12.1740    6.7610   17.0930 O.3     1  UNK11      -0.2174
     28 O         -14.2090    8.5690   16.4950 O.3     1  UNK11      -0.3216
     29 O         -16.2250   10.2550   15.6040 O.3     1  UNK11      -0.2107
     30 O         -15.9460    5.9560   13.3380 O.3     1  UNK11      -0.2135
     31 O         -13.3060    8.3730   14.3840 O.3     1  UNK11      -0.3254
     32 O         -12.7100    7.1300   11.9940 O.3     1  UNK11      -0.2176
@<TRIPOS>BOND
     1    32    23    1
     2    23    22    1
     3    30    21    1
     4    21    22    1
     5    21    20    1
     6     5    20    1
     7    22    31    1
     8    31    18    1
     9    20    19    1
    10    19    18    1
    11    19    29    1
    12    18    28    1
    13    28    17    1
    14    27    16    1
    15    17    16    1
    16    17    12    1
    17     3    12    1
    18    16    15    1
    19    12    13    1
    20    15    24    1
    21    15    14    1
    22     6    26    1
    23     6    24    1
    24     6     7    1
    25     1     7    1
    26    13    14    1
    27    26    10    1
    28     7     8    1
    29    14     4    1
    30    10    11    1
    31    10     9    1
    32     2    11    1
    33     8     9    1
    34     9    25    1
@<TRIPOS>MOLECULE
lig_1lvj.pdb
 23 25 0 0 0
SMALL
GASTEIGER

@<TRIPOS>ATOM
      1 N         -24.6860    7.7260    6.5230 N.pl3   1  UNK11      -0.2859
      2 N         -28.1970    4.5800    5.4100 N.4     1  UNK11       0.3867
      3 C         -24.4780    6.7710    8.7270 C.ar    1  UNK11       0.0182
      4 C         -23.6690    6.4640    9.8290 C.ar    1  UNK11       0.0360
      5 C         -22.3160    6.7920    9.8180 C.ar    1  UNK11       0.0034
      6 C         -21.7650    7.4220    8.7080 C.ar    1  UNK11       0.0078
      7 C         -22.5590    7.7300    7.6070 C.ar    1  UNK11       0.0431
      8 C         -23.9210    7.4070    7.6090 C.ar    1  UNK11       0.0577
      9 C         -22.7840    7.5410    5.0870 C.ar    1  UNK11       0.0431
     10 C         -22.2010    7.0560    3.9130 C.ar    1  UNK11       0.0077
     11 C         -22.9580    6.2810    3.0290 C.ar    1  UNK11       0.0006
     12 C         -24.2960    5.9970    3.3210 C.ar    1  UNK11       0.0013
     13 C         -24.8710    6.4860    4.4940 C.ar    1  UNK11       0.0153
     14 C         -24.1220    7.2520    5.3770 C.ar    1  UNK11       0.0576
     15 C         -26.1650    7.7710    6.6390 C.3     1  UNK11       0.1017
     16 C         -26.9120    6.4020    6.7710 C.3     1  UNK11       0.0844
     17 C         -27.3220    5.7800    5.3920 C.3     1  UNK11       0.1410
     18 C         -27.4090    3.3360    5.6080 C.3     1  UNK11       0.2025
     19 C         -29.0330    4.5150    4.1620 C.3     1  UNK11       0.2025
     20 C         -24.2530    5.7740   11.0290 C.2     1  UNK11       0.1735
     21 C         -25.7000    5.3480   11.0800 C.3     1  UNK11       0.0773
     22 O         -23.5280    5.4940   11.9700 O.2     1  UNK11      -0.2913
     23 S         -21.8350    8.5250    6.2040 S.3     1  UNK11      -0.0844
@<TRIPOS>BOND
     1    11    12   ar
     2    11    10   ar
     3    12    13   ar
     4    10     9   ar
     5    19     2    1
     6    13    14   ar
     7     9    14   ar
     8     9    23    1
     9    14     1    1
    10    17     2    1
    11    17    16    1
    12     2    18    1
    13    23     7    1
    14     1    15    1
    15     1     8    1
    16    15    16    1
    17     7     8   ar
    18     7     6   ar
    19     8     3   ar
    20     6     5   ar
    21     3     4   ar
    22     5     4   ar
    23     4    20    1
    24    20    21    1
    25    20    22    2
@<TRIPOS>MOLECULE
lig_1mwl.pdb
 34 36 0 0 0
SMALL
GASTEIGER

@<TRIPOS>ATOM
      1 N         -10.4290    4.1890   20.3730 N.4     1  UNK11       0.5986
      2 N         -13.6130   10.9280   18.6650 N.4     1  UNK11       0.5934
      3 N         -10.6260    9.3660   22.3750 N.4     1  UNK11       0.5934
      4 N         -16.2130    7.7510   14.6060 N.4     1  UNK11       0.4528
      5 C          -9.0400    6.2410   20.3400 C.3     1  UNK11       0.3086
      6 C          -9.1740    4.7780   20.8500 C.3     1  UNK11       0.3372
      7 C          -9.0750    4.7280   22.4030 C.3     1  UNK11       0.2566
      8 C          -7.7200    5.3770   22.8380 C.3     1  UNK11       0.2182
      9 C          -7.6850    6.8500   22.3040 C.3     1  UNK11       0.1811
     10 C          -6.4000    7.6190   22.6320 C.3     1  UNK11       0.1817
     11 C          -5.1700    7.1260   21.8480 C.3     1  UNK11       0.0382
     12 C         -13.0230    9.7420   19.3360 C.3     1  UNK11       0.2846
     13 C         -12.1200   10.1760   20.5290 C.3     1  UNK11       0.1525
     14 C         -11.4860    8.9150   21.2200 C.3     1  UNK11       0.2846
     15 C         -10.6590    8.1060   20.1630 C.3     1  UNK11       0.2179
     16 C         -11.5840    7.6820   18.9960 C.3     1  UNK11       0.2186
     17 C         -12.1890    8.9390   18.3150 C.3     1  UNK11       0.2177
     18 C         -12.8910    9.1530   16.0020 C.3     1  UNK11       0.2732
     19 C         -14.2900    9.2230   15.3610 C.3     1  UNK11       0.2662
     20 C         -14.8500    7.7690   15.1930 C.3     1  UNK11       0.2100
     21 C         -17.2430    7.9390   15.6600 C.3     1  UNK11       0.2703
     22 C         -13.8700    6.9400   14.2950 C.3     1  UNK11       0.2071
     23 C         -14.3330    5.5790   14.0930 C.3     1  UNK11       0.0419
     24 C         -12.4370    6.9530   14.9120 C.3     1  UNK11       0.1811
     25 O         -10.1440    6.9520   20.8150 O.3     1  UNK11      -0.3189
     26 O          -9.1660    3.4520   22.8540 O.3     1  UNK11      -0.2133
     27 O          -7.5910    5.3390   24.2750 O.3     1  UNK11      -0.2175
     28 O          -7.8270    6.8650   20.8310 O.3     1  UNK11      -0.3229
     29 O          -6.5600    8.9600   22.3020 O.3     1  UNK11      -0.2204
     30 O         -10.8230    6.9860   18.0380 O.3     1  UNK11      -0.2174
     31 O         -13.0310    8.5270   17.2480 O.3     1  UNK11      -0.3216
     32 O         -15.1360    9.9950   16.1860 O.3     1  UNK11      -0.2111
     33 O         -13.7540    7.5550   12.9980 O.3     1  UNK11      -0.2168
     34 O         -11.9820    8.3610   15.1550 O.3     1  UNK11      -0.3256
@<TRIPOS>BOND
     1    33    22    1
     2    23    22    1
     3    22    24    1
     4    22    20    1
     5     4    20    1
     6     4    21    1
     7    24    34    1
     8    34    18    1
     9    20    19    1
    10    19    18    1
    11    19    32    1
    12    18    31    1
    13    31    17    1
    14    30    16    1
    15    17    16    1
    16    17    12    1
    17     2    12    1
    18    16    15    1
    19    12    13    1
    20    15    25    1
    21    15    14    1
    22     5    25    1
    23     5    28    1
    24     5     6    1
    25     1     6    1
    26    13    14    1
    27    28     9    1
    28     6     7    1
    29    14     3    1
    30    11    10    1
    31    29    10    1
    32     9    10    1
    33     9     8    1
    34     7     8    1
    35     7    26    1
    36     8    27    1
@<TRIPOS>MOLECULE
lig_1nem.pdb
 42 45 0 0 0
SMALL
GASTEIGER

@<TRIPOS>ATOM
      1 N           5.9170   -0.8330    3.4170 N.4     1  UNK11       0.5986
      2 N           2.2720    2.1660    6.9340 N.4     1  UNK11       0.5997
      3 N          -0.4130   -4.0510    0.3640 N.4     1  UNK11       0.5986
      4 N          -5.0070   -1.4900    4.3490 N.4     1  UNK11       0.5997
      5 N          -3.6120    2.9940   -1.6170 N.4     1  UNK11       0.5936
      6 N          -5.0490   -1.1120    0.5690 N.4     1  UNK11       0.5934
      7 C           2.2730   -2.8920    1.8620 C.3     1  UNK11       0.2141
      8 C           2.3030   -1.8540    0.7420 C.3     1  UNK11       0.1804
      9 C           2.4810   -0.4190    1.2110 C.3     1  UNK11       0.1829
     10 C           2.1060    0.2990   -0.0710 C.3     1  UNK11       0.2373
     11 C           0.8390   -0.4900   -0.4230 C.3     1  UNK11       0.2694
     12 C           4.0610    0.6330    2.6830 C.3     1  UNK11       0.3086
     13 C           5.5360    0.5690    3.1010 C.3     1  UNK11       0.3372
     14 C           5.8100    1.5090    4.2800 C.3     1  UNK11       0.2568
     15 C           4.8040    1.2830    5.4130 C.3     1  UNK11       0.2223
     16 C           3.3840    1.3650    4.8620 C.3     1  UNK11       0.2246
     17 C           2.3180    1.0990    5.9100 C.3     1  UNK11       0.3475
     18 C          -3.9090   -2.4620    4.5510 C.3     1  UNK11       0.3475
     19 C          -1.5020   -2.3130    1.7380 C.3     1  UNK11       0.3087
     20 C          -1.0230   -3.7610    1.6840 C.3     1  UNK11       0.3372
     21 C          -2.1910   -4.7100    1.9190 C.3     1  UNK11       0.2568
     22 C          -2.8680   -4.3670    3.2440 C.3     1  UNK11       0.2223
     23 C          -3.3040   -2.9030    3.2290 C.3     1  UNK11       0.2246
     24 C          -3.2720    1.5720   -1.3860 C.3     1  UNK11       0.2877
     25 C          -4.3360    0.9170   -0.5130 C.3     1  UNK11       0.1527
     26 C          -3.9980   -0.5470   -0.2650 C.3     1  UNK11       0.2845
     27 C          -2.6390   -0.6540    0.4240 C.3     1  UNK11       0.2148
     28 C          -1.5440    0.0070   -0.4260 C.3     1  UNK11       0.1878
     29 C          -1.8880    1.4590   -0.7490 C.3     1  UNK11       0.2485
     30 O           2.1930   -4.2350    1.3780 O.3     1  UNK11      -0.2176
     31 O           1.0560   -1.8180    0.0540 O.3     1  UNK11      -0.3257
     32 O           3.8350   -0.2800    1.6470 O.3     1  UNK11      -0.3228
     33 O           3.0920    0.1290   -1.0940 O.3     1  UNK11      -0.2150
     34 O           5.7390    2.8590    3.8410 O.3     1  UNK11      -0.2133
     35 O           5.0170    0.0130    6.0170 O.3     1  UNK11      -0.2173
     36 O           3.2170    0.4020    3.8030 O.3     1  UNK11      -0.3187
     37 O          -1.7200   -6.0480    1.9430 O.3     1  UNK11      -0.2133
     38 O          -4.0020   -5.2030    3.4380 O.3     1  UNK11      -0.2173
     39 O          -2.1710   -2.0510    2.9690 O.3     1  UNK11      -0.3187
     40 O          -2.3130   -2.0420    0.6300 O.3     1  UNK11      -0.3190
     41 O          -0.2990   -0.0190    0.2970 O.3     1  UNK11      -0.3254
     42 O          -0.9130    1.9900   -1.6360 O.3     1  UNK11      -0.2136
@<TRIPOS>BOND
     1    42    29    1
     2     5    24    1
     3    24    29    1
     4    24    25    1
     5    33    10    1
     6    29    28    1
     7    25    26    1
     8    28    41    1
     9    28    27    1
    10    11    10    1
    11    11    31    1
    12    11    41    1
    13    26    27    1
    14    26     6    1
    15    10     9    1
    16    31     8    1
    17     3    20    1
    18    27    40    1
    19    40    19    1
    20     8     9    1
    21     8     7    1
    22     9    32    1
    23    30     7    1
    24    32    12    1
    25    20    19    1
    26    20    21    1
    27    19    39    1
    28    21    37    1
    29    21    22    1
    30    12    13    1
    31    12    36    1
    32    39    23    1
    33    13     1    1
    34    13    14    1
    35    23    22    1
    36    23    18    1
    37    22    38    1
    38    36    16    1
    39    34    14    1
    40    14    15    1
    41     4    18    1
    42    16    15    1
    43    16    17    1
    44    15    35    1
    45    17     2    1
@<TRIPOS>MOLECULE
lig_1nta.pdb
 40 42 0 0 0
SMALL
GASTEIGER

@<TRIPOS>ATOM
      1 N           9.5470   32.4570   -1.3310 N.pl3   1  UNK11       0.1354
      2 N           4.4900   35.7560    2.2540 N.pl3   1  UNK11       0.1354
      3 N           7.9620   33.3730   -0.1040 N.pl3   1  UNK11      -0.0846
      4 N           0.9640   38.0670   -2.0180 N.3     1  UNK11      -0.2103
      5 N           3.9840   36.4490    0.1150 N.pl3   1  UNK11      -0.0847
      6 N           9.8140   34.5920   -0.6640 N.pl3   1  UNK11       0.1354
      7 N           2.4950   35.4180    1.3040 N.pl3   1  UNK11       0.1354
      8 C           9.1360   33.4960   -0.7050 C.cat   1  UNK11       0.5346
      9 C           0.4140   35.4180   -4.6560 C.2     1  UNK11       0.2421
     10 C           3.6790   35.8870    1.2360 C.cat   1  UNK11       0.5346
     11 C           0.7310   32.1510   -4.1240 C.3     1  UNK11       0.0353
     12 C           2.1270   38.8560   -1.6450 C.3     1  UNK11       0.1077
     13 C           6.8320   34.0000   -0.8970 C.3     1  UNK11       0.2474
     14 C           1.6050   34.5030   -1.5560 C.3     1  UNK11       0.2666
     15 C           0.0010   36.5780   -0.4240 C.3     1  UNK11       0.2546
     16 C           5.9930   34.9170    0.0130 C.3     1  UNK11       0.2360
     17 C           0.5480   35.3620   -2.2410 C.3     1  UNK11       0.2110
     18 C           0.1110   38.0160   -0.8820 C.3     1  UNK11       0.1620
     19 C           4.8170   35.5620   -0.7330 C.3     1  UNK11       0.2442
     20 C           0.2590   34.5560   -3.4320 C.3     1  UNK11       0.2380
     21 C          -1.1320   38.5260   -1.2290 C.3     1  UNK11       0.2054
     22 C           3.9470   34.4490   -1.2940 C.3     1  UNK11       0.1929
     23 C           1.1840   33.4170   -3.4650 C.3     1  UNK11       0.1554
     24 C          -2.1450   38.2100   -0.1600 C.3     1  UNK11       0.2132
     25 C           4.7800   33.5460   -2.2490 C.3     1  UNK11       0.2162
     26 C          -2.1040   36.7550    0.1600 C.3     1  UNK11       0.1834
     27 C           5.9440   32.9100   -1.4600 C.3     1  UNK11       0.2268
     28 C          -3.1150   36.3950    1.2670 C.3     1  UNK11       0.2142
     29 O          -0.2150   36.4300   -4.8760 O.2     1  UNK11      -0.2854
     30 O          -0.4150   35.6780   -1.3910 O.3     1  UNK11      -0.3236
     31 O           6.8300   35.9490    0.4410 O.3     1  UNK11      -0.2154
     32 O          -1.0720   34.0550   -3.2920 O.3     1  UNK11      -0.2124
     33 O          -1.0010   39.9200   -1.3530 O.3     1  UNK11      -0.2186
     34 O           2.8640   35.0500   -1.9860 O.3     1  UNK11      -0.3247
     35 O           1.5200   33.2060   -2.0990 O.3     1  UNK11      -0.3281
     36 O          -3.4210   38.5190   -0.6380 O.3     1  UNK11      -0.2176
     37 O           3.9450   32.5150   -2.7730 O.3     1  UNK11      -0.2175
     38 O          -0.8250   36.4580    0.6410 O.3     1  UNK11      -0.3265
     39 O           6.7260   32.0710   -2.3250 O.3     1  UNK11      -0.2165
     40 O          -3.0180   35.0050    1.5550 O.3     1  UNK11      -0.2176
@<TRIPOS>BOND
     1    29     9    2
     2     9    20    1
     3    11    23    1
     4    23    20    1
     5    23    35    1
     6    20    32    1
     7    20    17    1
     8    37    25    1
     9    39    27    1
    10    25    27    1
    11    25    22    1
    12    17    14    1
    13    17    30    1
    14    35    14    1
    15     4    12    1
    16     4    18    1
    17    34    14    1
    18    34    22    1
    19    27    13    1
    20    30    15    1
    21    33    21    1
    22     1     8    2
    23    22    19    1
    24    21    18    1
    25    21    24    1
    26    13     3    1
    27    13    16    1
    28    18    15    1
    29    19    16    1
    30    19     5    1
    31     8     6    1
    32     8     3    1
    33    36    24    1
    34    15    38    1
    35    24    26    1
    36    16    31    1
    37     5    10    1
    38    26    38    1
    39    26    28    1
    40    10     7    2
    41    10     2    1
    42    28    40    1
@<TRIPOS>MOLECULE
lig_1ntb.pdb
 40 42 0 0 0
SMALL
GASTEIGER

@<TRIPOS>ATOM
      1 N          10.6300   31.8500   -1.7430 N.pl3   1  UNK11       0.1354
      2 N           5.5980   36.6570    1.2200 N.pl3   1  UNK11       0.1354
      3 N           8.8920   32.7220   -0.7210 N.pl3   1  UNK11      -0.0846
      4 N          -0.9970   35.8390    0.5030 N.3     1  UNK11      -0.2103
      5 N           4.5230   35.0490    0.1020 N.pl3   1  UNK11      -0.0847
      6 N          10.4610   34.0880   -1.6490 N.pl3   1  UNK11       0.1354
      7 N           3.9720   37.0770   -0.1750 N.pl3   1  UNK11       0.1354
      8 C          10.0210   32.9100   -1.3770 C.cat   1  UNK11       0.5346
      9 C          -0.5290   34.6050   -3.9800 C.3     1  UNK11       0.2173
     10 C           4.7190   36.2490    0.3760 C.cat   1  UNK11       0.5346
     11 C           0.2800   31.5410   -3.2470 C.3     1  UNK11       0.0350
     12 C          -2.3350   35.3430    0.3430 C.3     1  UNK11       0.1077
     13 C           7.7270   33.4600   -1.3440 C.3     1  UNK11       0.2474
     14 C           2.5710   33.9530   -2.1090 C.3     1  UNK11       0.2662
     15 C          -0.0130   36.4460   -1.5970 C.3     1  UNK11       0.2546
     16 C           6.7210   33.8900   -0.2820 C.3     1  UNK11       0.2360
     17 C           1.4400   34.9020   -2.4620 C.3     1  UNK11       0.2064
     18 C          -0.5490   36.9390   -0.2750 C.3     1  UNK11       0.1620
     19 C           5.5100   34.6140   -0.8660 C.3     1  UNK11       0.2442
     20 C           0.3470   33.9750   -2.9230 C.3     1  UNK11       0.2112
     21 C           0.5800   37.6550    0.4500 C.3     1  UNK11       0.2054
     22 C           4.8410   33.6860   -1.8470 C.3     1  UNK11       0.1929
     23 C           1.0700   32.8040   -3.4770 C.3     1  UNK11       0.1508
     24 C           1.0100   38.8210   -0.4400 C.3     1  UNK11       0.2132
     25 C           5.8400   33.2800   -2.9630 C.3     1  UNK11       0.2162
     26 C           1.4590   38.2720   -1.7940 C.3     1  UNK11       0.1834
     27 C           7.0380   32.5430   -2.3350 C.3     1  UNK11       0.2268
     28 C           1.8600   39.4410   -2.6950 C.3     1  UNK11       0.2142
     29 O           0.2640   35.0030   -5.0870 O.3     1  UNK11      -0.2175
     30 O           1.0860   35.5890   -1.3500 O.3     1  UNK11      -0.3239
     31 O           7.5060   34.7360    0.6660 O.3     1  UNK11      -0.2154
     32 O          -0.4500   33.5650   -1.8060 O.3     1  UNK11      -0.2177
     33 O           0.1340   38.1290    1.7020 O.3     1  UNK11      -0.2186
     34 O           3.8260   34.5000   -2.4980 O.3     1  UNK11      -0.3247
     35 O           2.3270   32.7260   -2.8010 O.3     1  UNK11      -0.3284
     36 O           2.0720   39.5400    0.1690 O.3     1  UNK11      -0.2176
     37 O           5.1870   32.4180   -3.8830 O.3     1  UNK11      -0.2175
     38 O           0.3910   37.5500   -2.4040 O.3     1  UNK11      -0.3265
     39 O           7.9710   32.1610   -3.3530 O.3     1  UNK11      -0.2165
     40 O           2.0760   38.9610   -4.0120 O.3     1  UNK11      -0.2176
@<TRIPOS>BOND
     1    29     9    1
     2    40    28    1
     3     9    20    1
     4    37    25    1
     5    23    11    1
     6    23    20    1
     7    23    35    1
     8    39    27    1
     9    25    27    1
    10    25    22    1
    11    20    17    1
    12    20    32    1
    13    35    14    1
    14    28    26    1
    15    34    14    1
    16    34    22    1
    17    17    14    1
    18    17    30    1
    19    38    26    1
    20    38    15    1
    21    27    13    1
    22    22    19    1
    23    26    24    1
    24     1     8    2
    25     6     8    1
    26    15    30    1
    27    15    18    1
    28     8     3    1
    29    13     3    1
    30    13    16    1
    31    19    16    1
    32    19     5    1
    33    24    36    1
    34    24    21    1
    35    16    31    1
    36    18    21    1
    37    18     4    1
    38     7    10    2
    39     5    10    1
    40    12     4    1
    41    10     2    1
    42    21    33    1
@<TRIPOS>MOLECULE
lig_1nyi.pdb
 20 22 0 0 0
SMALL
GASTEIGER

@<TRIPOS>ATOM
      1 N          24.6390   -8.3950   43.6030 N.ar    1  UNK11      -0.1709
      2 N          26.5420   -9.4520   44.3150 N.pl3   1  UNK11      -0.0859
      3 N          26.5970   -7.1490   44.1860 N.ar    1  UNK11      -0.1918
      4 N          24.0900   -4.7660   43.1740 N.ar    1  UNK11      -0.2173
      5 N          26.2250   -4.7340   43.8820 N.ar    1  UNK11      -0.2693
      6 C          26.6140   -0.9450   45.1000 C.3     1  UNK11       0.2142
      7 C          27.7400   -1.9150   44.8180 C.3     1  UNK11       0.1831
      8 C          27.9780   -2.1180   43.3250 C.3     1  UNK11       0.2162
      9 C          28.4400   -3.5720   43.2660 C.3     1  UNK11       0.2337
     10 C          27.5350   -4.2010   44.3230 C.3     1  UNK11       0.2409
     11 C          25.9390   -8.2950   44.0380 C.ar    1  UNK11       0.2606
     12 C          25.8370   -6.0670   43.8470 C.ar    1  UNK11       0.1723
     13 C          24.5260   -6.0650   43.4010 C.ar    1  UNK11       0.1748
     14 C          23.8410   -7.3040   43.2610 C.ar    1  UNK11       0.3023
     15 C          25.1190   -4.0220   43.4700 C.ar    1  UNK11       0.1817
     16 O          25.3450   -1.5810   44.9490 O.3     1  UNK11      -0.2176
     17 O          27.3790   -3.2210   45.3430 O.3     1  UNK11      -0.3305
     18 O          28.9390   -1.1910   42.8170 O.3     1  UNK11      -0.2175
     19 O          29.8030   -3.7400   43.6270 O.3     1  UNK11      -0.2155
     20 O          22.6790   -7.5040   42.8830 O.2     1  UNK11      -0.2633
@<TRIPOS>BOND
     1    18     8    1
     2    20    14    2
     3     4    13   ar
     4     4    15   ar
     5    14    13   ar
     6    14     1   ar
     7     9     8    1
     8     9    19    1
     9     9    10    1
    10     8     7    1
    11    13    12   ar
    12    15     5   ar
    13     1    11   ar
    14    12     5   ar
    15    12     3   ar
    16     5    10    1
    17    11     3   ar
    18    11     2    1
    19    10    17    1
    20     7     6    1
    21     7    17    1
    22    16     6    1
@<TRIPOS>MOLECULE
lig_1o15.pdb
 13 14 0 0 0
SMALL
GASTEIGER

@<TRIPOS>ATOM
      1 N           9.3830    2.1980   37.5760 N.am    1  UNK11      -0.2454
      2 N          10.3360    4.4160   37.5130 N.am    1  UNK11      -0.2627
      3 N           7.2220    4.5670   35.9200 N.ar    1  UNK11      -0.2160
      4 N           8.8430    6.0260   36.3770 N.ar    1  UNK11      -0.2047
      5 C           9.5670    0.8950   37.9820 C.3     1  UNK11       0.1383
      6 C          10.3690    3.0910   37.8490 C.2     1  UNK11       0.3350
      7 C          11.3510    5.3010   37.8060 C.3     1  UNK11       0.1366
      8 C           9.1970    4.7690   36.8570 C.ar    1  UNK11       0.1716
      9 C           8.2140    3.8620   36.5860 C.ar    1  UNK11       0.1731
     10 C           8.2380    2.4970   36.9280 C.2     1  UNK11       0.2850
     11 C           7.6700    5.8450   35.8340 C.ar    1  UNK11       0.2005
     12 O          11.3460    2.6470   38.4470 O.2     1  UNK11      -0.2461
     13 O           7.3920    1.6320   36.7150 O.2     1  UNK11      -0.2651
@<TRIPOS>BOND
     1    11     3   ar
     2    11     4   ar
     3     3     9   ar
     4     4     8   ar
     5     9     8   ar
     6     9    10    1
     7    13    10    2
     8     8     2    1
     9    10     1   am
    10     2     7    1
    11     2     6   am
    12     1     6   am
    13     1     5    1
    14     6    12    2
@<TRIPOS>MOLECULE
lig_1o9m.pdb
 37 38 0 0 0
SMALL
GASTEIGER

@<TRIPOS>ATOM
      1 N          -2.9890   15.7110    5.4210 N.3     1  UNK11      -0.1248
      2 N          -5.1810   10.2740    4.0530 N.3     1  UNK11      -0.1286
      3 N         -10.4310   18.0970    6.4540 N.am    1  UNK11      -0.2024
      4 N          -7.9130   15.3890    3.0420 N.3     1  UNK11      -0.1302
      5 N          -6.2720   19.3730    9.7920 N.3     1  UNK11      -0.2154
      6 N          -1.0690   18.4980   11.9140 N.3     1  UNK11      -0.1314
      7 N         -14.7280   20.9200    7.4740 N.3     1  UNK11      -0.1313
      8 C          -4.9660   14.1340    5.4000 C.3     1  UNK11       0.2561
      9 C          -3.4680   14.3860    4.9910 C.3     1  UNK11       0.1807
     10 C          -3.3250   14.2200    3.4310 C.3     1  UNK11       0.2070
     11 C          -3.8270   12.7890    3.0460 C.3     1  UNK11       0.2122
     12 C          -5.2860   12.5760    3.5210 C.3     1  UNK11       0.1696
     13 C          -5.7740   11.1840    3.2120 C.3     1  UNK11       0.1415
     14 C          -9.0960   17.7000    5.9260 C.3     1  UNK11       0.1265
     15 C          -8.3190   16.9980    7.0320 C.3     1  UNK11       0.1678
     16 C          -6.9020   16.5790    6.5280 C.3     1  UNK11       0.2090
     17 C          -7.0460   15.6010    5.2920 C.3     1  UNK11       0.1680
     18 C          -7.8050   16.2980    4.1730 C.3     1  UNK11       0.1234
     19 C          -9.2070   16.7320    4.6790 C.3     1  UNK11       0.0458
     20 C          -8.6230   18.8980    9.0560 C.3     1  UNK11       0.1610
     21 C          -7.6270   18.9400   10.1910 C.3     1  UNK11       0.1207
     22 C          -4.8340   19.7230    9.8370 C.3     1  UNK11       0.0888
     23 C          -4.6590   19.6500   11.3590 C.3     1  UNK11       0.0203
     24 C          -3.1800   19.7240   11.7820 C.3     1  UNK11       0.0220
     25 C          -2.4710   18.3960   11.5340 C.3     1  UNK11       0.1094
     26 C         -10.5740   19.8590    6.6020 C.2     1  UNK11       0.2719
     27 C         -11.9540   19.5950    7.1540 C.3     1  UNK11       0.2305
     28 C         -12.3460   20.8220    7.9690 C.3     1  UNK11       0.0630
     29 C         -13.7600   20.8310    8.5770 C.3     1  UNK11       0.1124
     30 O          -5.7490   15.1940    4.7710 O.3     1  UNK11      -0.3277
     31 O          -1.9690   14.4420    3.0340 O.3     1  UNK11      -0.2186
     32 O          -3.7570   12.5340    1.6340 O.3     1  UNK11      -0.2177
     33 O          -5.4050   12.8150    4.9310 O.3     1  UNK11      -0.3276
     34 O          -8.2300   17.8730    8.1160 O.3     1  UNK11      -0.3503
     35 O          -6.1750   15.8880    7.5900 O.3     1  UNK11      -0.2178
     36 O          -9.9280   20.6970    6.3890 O.2     1  UNK11      -0.2706
     37 O         -12.8780   19.4770    6.1470 O.3     1  UNK11      -0.2131
@<TRIPOS>BOND
     1    32    11    1
     2    31    10    1
     3     4    18    1
     4    11    10    1
     5    11    12    1
     6    13    12    1
     7    13     2    1
     8    10     9    1
     9    12    33    1
    10    18    19    1
    11    18    17    1
    12    19    14    1
    13    30    17    1
    14    30     8    1
    15    33     8    1
    16     9     8    1
    17     9     1    1
    18    17    16    1
    19    14     3    1
    20    14    15    1
    21    37    27    1
    22    36    26    2
    23     3    26   am
    24    16    15    1
    25    16    35    1
    26    26    27    1
    27    15    34    1
    28    27    28    1
    29     7    29    1
    30    28    29    1
    31    34    20    1
    32    20    21    1
    33     5    22    1
    34     5    21    1
    35    22    23    1
    36    23    24    1
    37    25    24    1
    38    25     6    1
@<TRIPOS>MOLECULE
lig_1pbr.pdb
 42 45 0 0 0
SMALL
GASTEIGER

@<TRIPOS>ATOM
      1 N           4.6130   -0.5210   44.6370 N.4     1  UNK11       0.5986
      2 N          -0.5450   -5.8520   41.2130 N.4     1  UNK11       0.5936
      3 N          -0.5020   -2.8480   45.1660 N.4     1  UNK11       0.5934
      4 N           5.1720    1.6120   35.5680 N.4     1  UNK11       0.5986
      5 N           0.4450    2.8300   38.6580 N.4     1  UNK11       0.5997
      6 C           2.0890   -0.2890   44.1830 C.3     1  UNK11       0.3086
      7 C           3.3730    0.2500   44.9180 C.3     1  UNK11       0.3372
      8 C           3.1970    0.2390   46.4480 C.3     1  UNK11       0.2566
      9 C           1.8420    0.8400   46.8520 C.3     1  UNK11       0.2183
     10 C           0.6820    0.0850   46.1650 C.3     1  UNK11       0.1838
     11 C          -0.7080    0.6060   46.5280 C.3     1  UNK11       0.2142
     12 C           0.2910   -4.9710   42.0490 C.3     1  UNK11       0.2877
     13 C           1.0460   -3.8990   41.2050 C.3     1  UNK11       0.2485
     14 C           1.9300   -2.9900   42.1080 C.3     1  UNK11       0.1878
     15 C           1.1240   -2.3840   43.3020 C.3     1  UNK11       0.2148
     16 C           0.3280   -3.4620   44.1060 C.3     1  UNK11       0.2845
     17 C          -0.5700   -4.2980   43.1580 C.3     1  UNK11       0.1527
     18 C           3.9010   -1.8790   40.9740 C.3     1  UNK11       0.2694
     19 C           4.0650   -1.7240   39.4510 C.3     1  UNK11       0.2373
     20 C           4.0160   -0.1910   39.3580 C.3     1  UNK11       0.1829
     21 C           4.8820    0.2330   40.5320 C.3     1  UNK11       0.1804
     22 C           4.6510    1.6660   41.0300 C.3     1  UNK11       0.2141
     23 C           1.9140    2.1650   35.1610 C.3     1  UNK11       0.2223
     24 C           2.9070    1.0820   34.6540 C.3     1  UNK11       0.2568
     25 C           4.0290    0.6770   35.6650 C.3     1  UNK11       0.3372
     26 C           3.4840    0.5430   37.1110 C.3     1  UNK11       0.3086
     27 C           1.4300    1.8050   36.5880 C.3     1  UNK11       0.2246
     28 C           0.4340    2.8190   37.1820 C.3     1  UNK11       0.3475
     29 O           2.0510   -1.7380   44.2070 O.3     1  UNK11      -0.3191
     30 O           4.2460    0.9660   47.0840 O.3     1  UNK11      -0.2133
     31 O           1.7150    0.8630   48.2700 O.3     1  UNK11      -0.2175
     32 O           0.8590    0.2490   44.7420 O.3     1  UNK11      -0.3228
     33 O          -0.8750    0.6890   47.9380 O.3     1  UNK11      -0.2176
     34 O           1.8850   -4.5280   40.2390 O.3     1  UNK11      -0.2136
     35 O           2.4730   -1.9100   41.2910 O.3     1  UNK11      -0.3254
     36 O           5.3150   -2.2510   39.0140 O.3     1  UNK11      -0.2150
     37 O           4.5120   -0.7020   41.5330 O.3     1  UNK11      -0.3257
     38 O           3.3490    1.7860   41.5830 O.3     1  UNK11      -0.2176
     39 O           2.5630    3.4360   35.1650 O.3     1  UNK11      -0.2173
     40 O           2.1650   -0.0830   34.3010 O.3     1  UNK11      -0.2133
     41 O           4.5140    0.3800   38.1170 O.3     1  UNK11      -0.3228
     42 O           2.6050    1.6730   37.4330 O.3     1  UNK11      -0.3187
@<TRIPOS>BOND
     1    40    24    1
     2    24    23    1
     3    24    25    1
     4    23    39    1
     5    23    27    1
     6     4    25    1
     7    25    26    1
     8    27    28    1
     9    27    42    1
    10    26    42    1
    11    26    41    1
    12    28     5    1
    13    41    20    1
    14    36    19    1
    15    20    19    1
    16    20    21    1
    17    19    18    1
    18    34    13    1
    19    21    22    1
    20    21    37    1
    21    18    35    1
    22    18    37    1
    23    22    38    1
    24    13    12    1
    25    13    14    1
    26     2    12    1
    27    35    14    1
    28    12    17    1
    29    14    15    1
    30    17    16    1
    31    15    16    1
    32    15    29    1
    33    16     3    1
    34     6    29    1
    35     6    32    1
    36     6     7    1
    37     1     7    1
    38    32    10    1
    39     7     8    1
    40    10    11    1
    41    10     9    1
    42     8     9    1
    43     8    30    1
    44    11    33    1
    45     9    31    1
@<TRIPOS>MOLECULE
lig_1q8n.pdb
 25 27 0 0 0
SMALL
GASTEIGER

@<TRIPOS>ATOM
      1 N          -1.3090    2.6380    3.4380 N.pl3   1  UNK11      -0.3041
      2 N           2.4920   -4.6130   -2.7060 N.pl3   1  UNK11      -0.3041
      3 C           0.5840    1.0200   -1.9670 C.3     1  UNK11       0.0667
      4 C           0.5310    2.1280   -3.1650 C.ar    1  UNK11      -0.0143
      5 C          -0.1650    1.9530   -4.3140 C.ar    1  UNK11      -0.0036
      6 C          -0.1820    2.9820   -5.3800 C.ar    1  UNK11      -0.0003
      7 C           0.5090    4.1330   -5.2130 C.ar    1  UNK11      -0.0000
      8 C           1.2520    4.3420   -3.9930 C.ar    1  UNK11      -0.0003
      9 C           1.2620    3.4060   -3.0400 C.ar    1  UNK11      -0.0036
     10 C           0.0660    1.4580   -0.4840 C.ar    1  UNK11      -0.0142
     11 C           0.2790    0.6720    0.5920 C.ar    1  UNK11      -0.0024
     12 C          -0.1870    1.0560    1.9530 C.ar    1  UNK11       0.0142
     13 C          -0.8460    2.2300    2.1450 C.ar    1  UNK11       0.0479
     14 C          -1.0840    3.1010    0.9790 C.ar    1  UNK11       0.0142
     15 C          -0.6590    2.7390   -0.2400 C.ar    1  UNK11      -0.0024
     16 C           1.1480   -0.5180   -2.2260 C.ar    1  UNK11      -0.0142
     17 C           0.9040   -1.5860   -1.1960 C.ar    1  UNK11      -0.0024
     18 C           1.3220   -2.8460   -1.3470 C.ar    1  UNK11       0.0142
     19 C           2.0570   -3.2570   -2.5490 C.ar    1  UNK11       0.0479
     20 C           2.3080   -2.3350   -3.5020 C.ar    1  UNK11       0.0142
     21 C           1.8410   -0.9160   -3.3430 C.ar    1  UNK11      -0.0024
     22 C          -1.0590    1.8650    4.6170 C.3     1  UNK11       0.1122
     23 C          -2.0470    3.8530    3.5880 C.3     1  UNK11       0.1122
     24 C           1.9870   -5.6410   -1.8420 C.3     1  UNK11       0.1122
     25 C           3.4390   -4.9830   -3.7330 C.3     1  UNK11       0.1122
@<TRIPOS>BOND
     1     6     7   ar
     2     6     5   ar
     3     7     8   ar
     4     5     4   ar
     5     8     9   ar
     6    25     2    1
     7    20    21   ar
     8    20    19   ar
     9    21    16   ar
    10     4     9   ar
    11     4     3    1
    12     2    19    1
    13     2    24    1
    14    19    18   ar
    15    16     3    1
    16    16    17   ar
    17     3    10    1
    18    18    17   ar
    19    10    15   ar
    20    10    11   ar
    21    15    14   ar
    22    11    12   ar
    23    14    13   ar
    24    12    13   ar
    25    13     1    1
    26     1    23    1
    27     1    22    1
@<TRIPOS>MOLECULE
lig_1qd3.pdb
 42 45 0 0 0
SMALL
GASTEIGER

@<TRIPOS>ATOM
      1 N           6.7630   -6.4530   -2.6170 N.4     1  UNK11       0.5986
      2 N          10.6830   -6.7790   -6.7670 N.4     1  UNK11       0.5997
      3 N           6.6960   -0.8420    3.6140 N.4     1  UNK11       0.5986
      4 N           9.4070    4.8230    1.9610 N.4     1  UNK11       0.5997
      5 N          10.1590   -0.2650   -3.5750 N.4     1  UNK11       0.5936
      6 N          10.5480    1.3680    0.9600 N.4     1  UNK11       0.5934
      7 C          11.0000   -2.6470   -1.4860 C.3     1  UNK11       0.2141
      8 C           9.8520   -3.4020   -0.8160 C.3     1  UNK11       0.1804
      9 C           8.7600   -3.8230   -1.7860 C.3     1  UNK11       0.1829
     10 C           7.6090   -4.0590   -0.8220 C.3     1  UNK11       0.2373
     11 C           7.7830   -2.9030    0.1840 C.3     1  UNK11       0.2694
     12 C           8.4680   -6.2080   -5.9000 C.3     1  UNK11       0.2246
     13 C           8.4600   -5.1080   -3.7870 C.3     1  UNK11       0.3086
     14 C           6.9610   -5.3950   -3.5900 C.3     1  UNK11       0.3372
     15 C           6.2370   -5.7270   -4.9000 C.3     1  UNK11       0.2568
     16 C           7.0320   -6.6970   -5.7700 C.3     1  UNK11       0.2223
     17 C           9.2760   -7.1300   -6.8100 C.3     1  UNK11       0.3475
     18 C           8.2060    3.0020    3.0790 C.3     1  UNK11       0.2246
     19 C           8.4690    0.6210    2.7820 C.3     1  UNK11       0.3087
     20 C           7.4980    0.3250    3.9310 C.3     1  UNK11       0.3372
     21 C           6.5740    1.5060    4.2090 C.3     1  UNK11       0.2568
     22 C           7.3090    2.8350    4.2940 C.3     1  UNK11       0.2223
     23 C           8.9770    4.3080    3.2490 C.3     1  UNK11       0.3475
     24 C           9.4060    0.1920   -2.4220 C.3     1  UNK11       0.2877
     25 C          10.3620    0.5010   -1.2870 C.3     1  UNK11       0.1527
     26 C           9.5990    0.9870   -0.0680 C.3     1  UNK11       0.2845
     27 C           8.6170   -0.0550    0.4680 C.3     1  UNK11       0.2148
     28 C           7.7170   -0.6010   -0.6650 C.3     1  UNK11       0.1878
     29 C           8.4050   -0.8790   -2.0080 C.3     1  UNK11       0.2485
     30 O          11.6760   -3.5060   -2.3940 O.3     1  UNK11      -0.2176
     31 O           9.1980   -2.5880    0.1810 O.3     1  UNK11      -0.3257
     32 O           7.7850   -5.3070   -0.1590 O.3     1  UNK11      -0.2150
     33 O           9.0690   -6.1280   -4.5990 O.3     1  UNK11      -0.3187
     34 O           9.1240   -5.0150   -2.5100 O.3     1  UNK11      -0.3228
     35 O           5.9960   -4.5300   -5.6210 O.3     1  UNK11      -0.2133
     36 O           7.0070   -7.9980   -5.1940 O.3     1  UNK11      -0.2173
     37 O           9.1250    1.8940    2.9850 O.3     1  UNK11      -0.3187
     38 O           7.7980    0.5540    1.5000 O.3     1  UNK11      -0.3190
     39 O           5.8630    1.2830    5.4170 O.3     1  UNK11      -0.2133
     40 O           6.3810    3.9080    4.3650 O.3     1  UNK11      -0.2173
     41 O           6.9730   -1.7680   -0.2380 O.3     1  UNK11      -0.3254
     42 O           7.4250   -1.0400   -3.0280 O.3     1  UNK11      -0.2136
@<TRIPOS>BOND
     1    17     2    1
     2    17    12    1
     3    12    16    1
     4    12    33    1
     5    16    36    1
     6    16    15    1
     7    35    15    1
     8    15    14    1
     9    33    13    1
    10    13    14    1
    11    13    34    1
    12    14     1    1
    13     5    24    1
    14    42    29    1
    15    34     9    1
    16    24    29    1
    17    24    25    1
    18    30     7    1
    19    29    28    1
    20     9    10    1
    21     9     8    1
    22     7     8    1
    23    25    26    1
    24    10    32    1
    25    10    11    1
    26     8    31    1
    27    28    41    1
    28    28    27    1
    29    41    11    1
    30    26    27    1
    31    26     6    1
    32    31    11    1
    33    27    38    1
    34    38    19    1
    35     4    23    1
    36    19    37    1
    37    19    20    1
    38    37    18    1
    39    18    23    1
    40    18    22    1
    41     3    20    1
    42    20    21    1
    43    21    22    1
    44    21    39    1
    45    22    40    1
@<TRIPOS>MOLECULE
lig_1tob.pdb
 32 34 0 0 0
SMALL
GASTEIGER

@<TRIPOS>ATOM
      1 N          -0.3750    2.7880    1.5370 N.4     1  UNK11       0.5963
      2 N          -4.5690    3.9150    1.0150 N.4     1  UNK11       0.5934
      3 N          -8.1000    7.3650    1.0310 N.4     1  UNK11       0.5934
      4 N          -5.9640    9.4630    5.9750 N.4     1  UNK11       0.5960
      5 N          -8.3320   11.1130    0.2140 N.4     1  UNK11       0.5997
      6 C          -2.1940    5.5480    3.4400 C.3     1  UNK11       0.2736
      7 C          -1.3220    4.9260    2.3510 C.3     1  UNK11       0.2771
      8 C          -1.2210    3.4230    2.5710 C.3     1  UNK11       0.3163
      9 C          -0.7000    3.1520    3.9770 C.3     1  UNK11       0.2511
     10 C          -1.5970    3.8380    5.0040 C.3     1  UNK11       0.1873
     11 C          -1.0870    3.6690    6.4210 C.3     1  UNK11       0.2144
     12 C          -5.3520    4.8490    1.8520 C.3     1  UNK11       0.2846
     13 C          -6.3190    5.6570    0.9970 C.3     1  UNK11       0.1525
     14 C          -7.1020    6.6450    1.8630 C.3     1  UNK11       0.2846
     15 C          -6.1330    7.5950    2.5620 C.3     1  UNK11       0.2179
     16 C          -5.1480    6.8000    3.4210 C.3     1  UNK11       0.2186
     17 C          -4.3900    5.7940    2.5550 C.3     1  UNK11       0.2177
     18 C          -6.2860    9.7860    3.5330 C.3     1  UNK11       0.3060
     19 C          -6.5620   10.3330    4.9350 C.3     1  UNK11       0.3071
     20 C          -8.0570   10.5240    5.1420 C.3     1  UNK11       0.1147
     21 C          -8.6060   11.4140    4.0390 C.3     1  UNK11       0.1921
     22 C          -8.2710   10.8120    2.6750 C.3     1  UNK11       0.2220
     23 C          -8.7400   11.6810    1.5220 C.3     1  UNK11       0.3474
     24 O          -1.8910    5.1860    1.0760 O.3     1  UNK11      -0.2107
     25 O          -0.6670    1.7510    4.2160 O.3     1  UNK11      -0.2135
     26 O          -1.6600    5.2560    4.7370 O.3     1  UNK11      -0.3254
     27 O           0.0110    4.5320    6.6840 O.3     1  UNK11      -0.2176
     28 O          -4.2310    7.6860    4.0480 O.3     1  UNK11      -0.2174
     29 O          -3.4770    5.0380    3.3710 O.3     1  UNK11      -0.3216
     30 O          -6.8600    8.5300    3.3860 O.3     1  UNK11      -0.3190
     31 O         -10.0130   11.5470    4.1780 O.3     1  UNK11      -0.2201
     32 O          -6.8430   10.6540    2.5380 O.3     1  UNK11      -0.3188
@<TRIPOS>BOND
     1     5    23    1
     2    13    12    1
     3    13    14    1
     4     2    12    1
     5     3    14    1
     6    24     7    1
     7    23    22    1
     8     1     8    1
     9    12    17    1
    10    14    15    1
    11     7     8    1
    12     7     6    1
    13    32    22    1
    14    32    18    1
    15    17    29    1
    16    17    16    1
    17    15    30    1
    18    15    16    1
    19     8     9    1
    20    22    21    1
    21    29     6    1
    22    30    18    1
    23    16    28    1
    24     6    26    1
    25    18    19    1
    26     9    25    1
    27     9    10    1
    28    21    31    1
    29    21    20    1
    30    26    10    1
    31    19    20    1
    32    19     4    1
    33    10    11    1
    34    11    27    1
@<TRIPOS>MOLECULE
lig_1u8d.pdb
 10 11 0 0 0
SMALL
GASTEIGER

@<TRIPOS>ATOM
      1 N          11.7410   10.5330    9.3390 N.ar    1  UNK11      -0.1841
      2 N          11.0490   12.7200    8.5260 N.ar    1  UNK11      -0.2030
      3 N          11.3840   10.4960    5.6810 N.ar    1  UNK11      -0.2159
      4 N          10.7960   12.6910    6.0880 N.ar    1  UNK11      -0.2031
      5 C          11.3850   11.8780    9.5370 C.ar    1  UNK11       0.2031
      6 C          11.0900   12.1250    7.3140 C.ar    1  UNK11       0.1881
      7 C          11.4720   10.6730    7.0350 C.ar    1  UNK11       0.1763
      8 C          11.8140    9.8440    8.1150 C.ar    1  UNK11       0.3014
      9 C          10.9810   11.6910    5.1370 C.ar    1  UNK11       0.2005
     10 O          12.1420    8.6650    8.1230 O.2     1  UNK11      -0.2634
@<TRIPOS>BOND
     1     9     3   ar
     2     9     4   ar
     3     3     7   ar
     4     4     6   ar
     5     7     6   ar
     6     7     8   ar
     7     6     2   ar
     8     8    10    2
     9     8     1   ar
    10     2     5   ar
    11     1     5   ar
@<TRIPOS>MOLECULE
lig_1uts.pdb
 30 33 0 0 0
SMALL
GASTEIGER

@<TRIPOS>ATOM
      1 N           3.7950    3.1840   20.2250 N.3     1  UNK11      -0.1313
      2 N           2.8210    1.7360   17.5020 N.3     1  UNK11      -0.2117
      3 N           4.1370   -1.6660   18.3150 N.3     1  UNK11      -0.2690
      4 N           5.2590   -3.5630   20.1730 N.3     1  UNK11      -0.2151
      5 N          -5.4380    3.7950   11.8610 N.ar    1  UNK11      -0.2438
      6 C           3.5940    5.5080   19.4530 C.3     1  UNK11       0.0678
      7 C           2.1730    1.9280   16.1840 C.3     1  UNK11       0.1180
      8 C           2.8000    5.2590   18.1680 C.3     1  UNK11       0.2069
      9 C           4.5520    4.3410   19.6970 C.3     1  UNK11       0.1131
     10 C           3.7770    0.5990   17.4290 C.3     1  UNK11       0.1064
     11 C           3.1020   -0.6780   17.9380 C.3     1  UNK11       0.0912
     12 C           3.4940   -2.9920   18.5400 C.3     1  UNK11       0.0912
     13 C           4.8310   -1.2080   19.5510 C.3     1  UNK11       0.0912
     14 C           4.5660   -4.0210   18.9350 C.3     1  UNK11       0.1060
     15 C           5.9020   -2.2390   19.9500 C.3     1  UNK11       0.1060
     16 C          -1.0900    4.8420   16.4520 C.ar    1  UNK11       0.0031
     17 C          -1.0860    3.8710   15.4230 C.ar    1  UNK11      -0.0001
     18 C          -0.0260    2.9290   15.3420 C.ar    1  UNK11       0.0001
     19 C           1.0310    2.9580   16.2920 C.ar    1  UNK11       0.0292
     20 C           1.0340    3.9490   17.3190 C.ar    1  UNK11       0.1359
     21 C          -0.0320    4.8870   17.3980 C.ar    1  UNK11       0.0366
     22 C          -6.4470    3.5560   12.8220 C.ar    1  UNK11       0.0989
     23 C          -5.8920    3.4370   14.1170 C.ar    1  UNK11       0.0221
     24 C          -3.4660    3.6170   14.9180 C.ar    1  UNK11       0.0015
     25 C          -2.1310    3.8490   14.4880 C.ar    1  UNK11       0.0001
     26 C          -1.8590    4.0670   13.1090 C.ar    1  UNK11       0.0015
     27 C          -2.9190    4.0550   12.1640 C.ar    1  UNK11       0.0191
     28 C          -4.2630    3.8340   12.6020 C.ar    1  UNK11       0.0814
     29 C          -4.5340    3.6180   13.9650 C.ar    1  UNK11       0.0192
     30 O           2.1070    4.0060   18.2710 O.3     1  UNK11      -0.4757
@<TRIPOS>BOND
     1     5    28   ar
     2     5    22   ar
     3    27    28   ar
     4    27    26   ar
     5    28    29   ar
     6    22    23   ar
     7    26    25   ar
     8    29    23   ar
     9    29    24   ar
    10    25    24   ar
    11    25    17    1
    12    18    17   ar
    13    18    19   ar
    14    17    16   ar
    15     7    19    1
    16     7     2    1
    17    19    20   ar
    18    16    21   ar
    19    20    21   ar
    20    20    30    1
    21    10     2    1
    22    10    11    1
    23    11     3    1
    24     8    30    1
    25     8     6    1
    26     3    12    1
    27     3    13    1
    28    12    14    1
    29    14     4    1
    30     6     9    1
    31    13    15    1
    32     9     1    1
    33    15     4    1
@<TRIPOS>MOLECULE
lig_1uud.pdb
 25 25 0 0 0
SMALL
GASTEIGER

@<TRIPOS>ATOM
      1 N          -2.9870   -7.6080   -1.9740 N.3     1  UNK11      -0.2132
      2 N          -3.0090  -12.0820   -6.0530 N.pl3   1  UNK11      -0.0824
      3 N          -2.1040  -13.7160   -7.4710 N.pl3   1  UNK11       0.1354
      4 N          -2.7850  -14.2490   -5.2830 N.pl3   1  UNK11       0.1354
      5 N           1.2080  -10.0880    0.9550 N.pl3   1  UNK11      -0.0865
      6 N           2.4960  -11.7420    1.9220 N.pl3   1  UNK11       0.1354
      7 N           0.1650  -11.7650    2.2160 N.pl3   1  UNK11       0.1354
      8 C          -3.8510   -8.7400   -2.3880 C.3     1  UNK11       0.1181
      9 C          -4.8530  -10.6520   -6.1130 C.3     1  UNK11       0.2521
     10 C          -3.7910  -11.4440   -6.8900 C.3     1  UNK11       0.2674
     11 C          -1.7400   -8.1250   -1.3630 C.3     1  UNK11       0.0892
     12 C          -2.0650   -8.7950   -0.0220 C.3     1  UNK11       0.0225
     13 C          -2.6360  -13.3290   -6.2710 C.cat   1  UNK11       0.5347
     14 C          -0.7950   -8.9030    0.8280 C.3     1  UNK11       0.0484
     15 C           0.1900   -9.8660    0.1580 C.3     1  UNK11       0.2205
     16 C           1.2820  -11.1800    1.6910 C.cat   1  UNK11       0.5346
     17 C          -5.0890   -8.8300   -4.6470 C.ar    1  UNK11       0.1362
     18 C          -4.9380   -8.2360   -3.3600 C.ar    1  UNK11       0.0322
     19 C          -5.8030   -7.1820   -2.9610 C.ar    1  UNK11       0.0370
     20 C          -6.8010   -6.7050   -3.8510 C.ar    1  UNK11       0.1387
     21 C          -6.9390   -7.2830   -5.1420 C.ar    1  UNK11       0.0400
     22 C          -6.0790   -8.3410   -5.5440 C.ar    1  UNK11       0.0397
     23 C          -8.9240   -6.1790   -3.0290 C.3     1  UNK11       0.2525
     24 O          -4.2370   -9.9100   -5.0500 O.3     1  UNK11      -0.4718
     25 O          -7.6670   -5.6410   -3.4480 O.3     1  UNK11      -0.4714
@<TRIPOS>BOND
     1     3    13    2
     2    10     9    1
     3    10     2    1
     4    13     2    1
     5    13     4    1
     6     9    24    1
     7    22    21   ar
     8    22    17   ar
     9    21    20   ar
    10    24    17    1
    11    17    18   ar
    12    20    25    1
    13    20    19   ar
    14    25    23    1
    15    18    19   ar
    16    18     8    1
    17     8     1    1
    18     1    11    1
    19    11    12    1
    20    12    14    1
    21    15    14    1
    22    15     5    1
    23     5    16    1
    24    16     6    2
    25    16     7    1
@<TRIPOS>MOLECULE
lig_1uui.pdb
 23 24 0 0 0
SMALL
GASTEIGER

@<TRIPOS>ATOM
      1 N         -13.4230    0.3290    2.4590 N.3     1  UNK11      -0.2633
      2 N          -4.9740   -1.4100    3.1110 N.3     1  UNK11      -0.1313
      3 N         -12.8760    0.5110    5.0770 N.pl3   1  UNK11      -0.1856
      4 N         -11.5180   -0.3960    6.8480 N.pl3   1  UNK11       0.1298
      5 N         -11.7710    1.9250    6.6830 N.pl3   1  UNK11       0.1298
      6 C         -11.9390    0.5330    2.3930 C.3     1  UNK11       0.1024
      7 C          -8.0590   -0.1790    1.2440 C.3     1  UNK11       0.2069
      8 C         -12.0460    3.4800   -2.6930 C.3     1  UNK11       0.2525
      9 C          -7.2350   -0.7540    2.3980 C.3     1  UNK11       0.0678
     10 C         -14.0990    1.4880    3.1050 C.3     1  UNK11       0.1135
     11 C         -13.7570   -0.9150    3.2000 C.3     1  UNK11       0.1135
     12 C          -5.7770   -0.9320    1.9630 C.3     1  UNK11       0.1131
     13 C         -13.6210    1.6980    4.5520 C.3     1  UNK11       0.1851
     14 C         -13.2200   -0.8780    4.6410 C.3     1  UNK11       0.1851
     15 C         -12.0170    0.6820    6.1780 C.cat   1  UNK11       0.4955
     16 C         -10.2550    0.1590    0.4900 C.ar    1  UNK11       0.1360
     17 C         -11.4910    0.7110    0.9240 C.ar    1  UNK11       0.0309
     18 C         -12.3100    1.4210    0.0030 C.ar    1  UNK11       0.0370
     19 C         -11.8920    1.5770   -1.3470 C.ar    1  UNK11       0.1387
     20 C         -10.6560    1.0260   -1.7760 C.ar    1  UNK11       0.0400
     21 C          -9.8390    0.3160   -0.8580 C.ar    1  UNK11       0.0397
     22 O          -9.4300   -0.5600    1.4120 O.3     1  UNK11      -0.4757
     23 O         -12.7170    2.2900   -2.2720 O.3     1  UNK11      -0.4714
@<TRIPOS>BOND
     1     8    23    1
     2    23    19    1
     3    20    19   ar
     4    20    21   ar
     5    19    18   ar
     6    21    16   ar
     7    18    17   ar
     8    16    17   ar
     9    16    22    1
    10    17     6    1
    11     7    22    1
    12     7     9    1
    13    12     9    1
    14    12     2    1
    15     6     1    1
    16     1    10    1
    17     1    11    1
    18    10    13    1
    19    11    14    1
    20    13     3    1
    21    14     3    1
    22     3    15    1
    23    15     5    2
    24    15     4    1
@<TRIPOS>MOLECULE
lig_1xpf.pdb
 14 13 0 0 0
SMALL
GASTEIGER

@<TRIPOS>ATOM
      1 N          21.8910    5.5990   61.4880 N.3     1  UNK11      -0.1313
      2 N          20.8140    2.0800   64.5750 N.3     1  UNK11      -0.2180
      3 N          19.9150   -2.7900   63.1630 N.3     1  UNK11      -0.2180
      4 N          16.7070   -6.0770   64.5610 N.3     1  UNK11      -0.1313
      5 C          20.8620    4.9730   62.2970 C.3     1  UNK11       0.1108
      6 C          21.4030    3.8090   63.0380 C.3     1  UNK11       0.0393
      7 C          20.2730    3.2540   63.8480 C.3     1  UNK11       0.0902
      8 C          19.7040    1.2740   65.1710 C.3     1  UNK11       0.0887
      9 C          20.1630   -0.0930   65.7070 C.3     1  UNK11       0.0203
     10 C          20.6440   -1.0630   64.6140 C.3     1  UNK11       0.0203
     11 C          19.4410   -1.5700   63.8330 C.3     1  UNK11       0.0887
     12 C          18.9130   -3.6300   62.4490 C.3     1  UNK11       0.0902
     13 C          18.3620   -4.4610   63.6280 C.3     1  UNK11       0.0393
     14 C          17.2110   -5.4020   63.3770 C.3     1  UNK11       0.1108
@<TRIPOS>BOND
     1     1     5    1
     2     5     6    1
     3    12     3    1
     4    12    13    1
     5     6     7    1
     6     3    11    1
     7    14    13    1
     8    14     4    1
     9    11    10    1
    10     7     2    1
    11     2     8    1
    12    10     9    1
    13     8     9    1
@<TRIPOS>MOLECULE
lig_1y26.pdb
 10 11 0 0 0
SMALL
GASTEIGER

@<TRIPOS>ATOM
      1 N          19.4980  -17.1420    2.7420 N.ar    1  UNK11      -0.2040
      2 N          18.4490  -19.2250    3.3120 N.ar    1  UNK11      -0.2031
      3 N          20.6620  -15.8590    4.2800 N.pl3   1  UNK11      -0.1054
      4 N          19.9750  -17.9570    6.3100 N.ar    1  UNK11      -0.2179
      5 N          18.7540  -19.7530    5.6790 N.ar    1  UNK11      -0.2032
      6 C          18.7840  -18.2400    2.4810 C.ar    1  UNK11       0.2016
      7 C          18.9150  -18.9830    4.5590 C.ar    1  UNK11       0.1862
      8 C          19.6510  -17.8910    4.9750 C.ar    1  UNK11       0.1534
      9 C          19.9490  -16.9370    3.9970 C.ar    1  UNK11       0.1919
     10 C          19.4000  -19.0810    6.6950 C.ar    1  UNK11       0.2005
@<TRIPOS>BOND
     1     6     1   ar
     2     6     2   ar
     3     1     9   ar
     4     2     7   ar
     5     9     3    1
     6     9     8   ar
     7     7     8   ar
     8     7     5   ar
     9     8     4   ar
    10     5    10   ar
    11     4    10   ar
@<TRIPOS>MOLECULE
lig_1yrj.pdb
 37 40 0 0 0
SMALL
GASTEIGER

@<TRIPOS>ATOM
      1 N          41.2320    7.1780   11.3780 N.3     1  UNK11      -0.1275
      2 N          38.9790   -0.0290    8.5560 N.3     1  UNK11      -0.2103
      3 N          43.0830   -4.4100    9.4960 N.3     1  UNK11      -0.1275
      4 N          37.1320    8.9840    4.2990 N.3     1  UNK11      -0.1301
      5 N          38.2320    5.0310    6.9460 N.3     1  UNK11      -0.1302
      6 C          39.2940    6.0940   10.2360 C.3     1  UNK11       0.2535
      7 C          40.4960    5.9180   11.1850 C.3     1  UNK11       0.1505
      8 C          41.4490    4.8140   10.7020 C.3     1  UNK11       0.0564
      9 C          40.6700    3.4870   10.5050 C.3     1  UNK11       0.1491
     10 C          39.5120    3.6970    9.5120 C.3     1  UNK11       0.1766
     11 C          38.7400    2.3240    9.3200 C.3     1  UNK11       0.2022
     12 C          39.7100    1.2560    8.7880 C.3     1  UNK11       0.1619
     13 C          40.8770    1.1190    9.7950 C.3     1  UNK11       0.2562
     14 C          39.0910   -0.6360    7.1930 C.3     1  UNK11       0.1077
     15 C          42.7990   -0.1960   10.3800 C.3     1  UNK11       0.2712
     16 C          44.1170   -0.7620    9.8270 C.3     1  UNK11       0.2395
     17 C          43.8970   -2.1470    9.1620 C.3     1  UNK11       0.2071
     18 C          43.2850   -3.1050   10.1580 C.3     1  UNK11       0.1545
     19 C          41.9480   -2.5220   10.6730 C.3     1  UNK11       0.1707
     20 C          41.2820   -3.4050   11.7260 C.3     1  UNK11       0.2131
     21 C          38.5940    7.2470    7.9970 C.3     1  UNK11       0.1681
     22 C          38.9570    8.7090    7.6550 C.3     1  UNK11       0.2119
     23 C          38.0000    9.2880    6.5850 C.3     1  UNK11       0.2020
     24 C          38.0570    8.4320    5.3140 C.3     1  UNK11       0.1262
     25 C          37.6590    6.9690    5.6360 C.3     1  UNK11       0.0433
     26 C          38.6280    6.4120    6.6830 C.3     1  UNK11       0.1231
     27 O          39.6260    6.7520    8.9990 O.3     1  UNK11      -0.3277
     28 O          38.6510    4.7820   10.0260 O.3     1  UNK11      -0.3267
     29 O          41.5390    2.3990   10.0020 O.3     1  UNK11      -0.3292
     30 O          38.2640    1.8740   10.5710 O.3     1  UNK11      -0.2188
     31 O          41.8620    0.1870    9.3460 O.3     1  UNK11      -0.3025
     32 O          42.1870   -1.2000   11.2810 O.3     1  UNK11      -0.3267
     33 O          44.6730    0.1950    8.9140 O.3     1  UNK11      -0.2149
     34 O          45.1550   -2.6790    8.7250 O.3     1  UNK11      -0.2186
     35 O          39.9790   -2.9450   11.9640 O.3     1  UNK11      -0.2176
     36 O          38.8530    9.5130    8.8510 O.3     1  UNK11      -0.2177
     37 O          38.3990   10.6430    6.2860 O.3     1  UNK11      -0.2188
@<TRIPOS>BOND
     1     4    24    1
     2    24    25    1
     3    24    23    1
     4    25    26    1
     5    37    23    1
     6    23    22    1
     7    26     5    1
     8    26    21    1
     9    14     2    1
    10    22    21    1
    11    22    36    1
    12    21    27    1
    13     2    12    1
    14    34    17    1
    15    12    11    1
    16    12    13    1
    17    33    16    1
    18    27     6    1
    19    17    16    1
    20    17    18    1
    21    11    10    1
    22    11    30    1
    23    31    13    1
    24    31    15    1
    25     3    18    1
    26    10    28    1
    27    10     9    1
    28    13    29    1
    29    16    15    1
    30    29     9    1
    31    28     6    1
    32    18    19    1
    33     6     7    1
    34    15    32    1
    35     9     8    1
    36    19    32    1
    37    19    20    1
    38     8     7    1
    39     7     1    1
    40    20    35    1
@<TRIPOS>MOLECULE
lig_2au4.pdb
 32 34 0 0 0
SMALL
GASTEIGER

@<TRIPOS>ATOM
      1 N          70.2580    5.4190    1.9770 N.ar    1  UNK11      -0.1709
      2 N          68.4080    6.7730    2.0700 N.pl3   1  UNK11      -0.0859
      3 N          69.1400    6.1230   -0.0110 N.ar    1  UNK11      -0.1918
      4 N          71.9190    4.0530   -1.0080 N.ar    1  UNK11      -0.2173
      5 N          70.2390    5.2230   -1.9830 N.ar    1  UNK11      -0.2693
      6 C          66.4880    6.9080   -1.4300 C.3     1  UNK11       0.1813
      7 C          67.2350    6.7620   -2.7470 C.3     1  UNK11       0.1801
      8 C          67.0070    5.3820   -3.3460 C.3     1  UNK11       0.2161
      9 C          68.3720    4.7610   -3.5240 C.3     1  UNK11       0.2337
     10 C          69.3780    5.7910   -3.0390 C.3     1  UNK11       0.2409
     11 C          69.2670    6.1030    1.3130 C.ar    1  UNK11       0.2606
     12 C          70.0990    5.3940   -0.6270 C.ar    1  UNK11       0.1723
     13 C          71.1290    4.6770   -0.0380 C.ar    1  UNK11       0.1748
     14 C          71.2500    4.6660    1.3730 C.ar    1  UNK11       0.3023
     15 C          71.3300    4.4250   -2.0980 C.ar    1  UNK11       0.1817
     16 O          66.2860    8.2830   -1.0630 O.3     1  UNK11      -0.3112
     17 O          68.6530    6.9400   -2.5490 O.3     1  UNK11      -0.3306
     18 O          66.3160    5.4750   -4.5970 O.3     1  UNK11      -0.2175
     19 O          68.6130    4.4220   -4.8970 O.3     1  UNK11      -0.2155
     20 O          65.4990   10.0120    0.5730 O.2     1  UNK11      -0.5170
     21 O          68.2040   10.4880   -1.0890 O.2     1  UNK11      -0.5169
     22 O          72.2020   11.0530    1.0700 O.3     1  UNK11      -0.5767
     23 O          65.7620    7.5660    1.2840 O.3     1  UNK11      -0.4371
     24 O          67.8620   11.4290    1.2660 O.3     1  UNK11      -0.4370
     25 O          70.1790   12.0340    2.2920 O.3     1  UNK11      -0.5767
     26 O          67.7400    8.9880    0.8340 O.3     1  UNK11      -0.2702
     27 O          69.9170   10.1620    0.6820 O.3     1  UNK11      -0.3141
     28 O          70.5170   12.4380   -0.1560 O.2     1  UNK11      -0.6374
     29 O          72.1010    4.1150    2.0580 O.2     1  UNK11      -0.2633
     30 P          66.2150    8.7230    0.4830 P.3     1  UNK11       0.2189
     31 P          68.3720   10.3680    0.3720 P.3     1  UNK11       0.2206
     32 P          70.7780   11.4430    1.0770 P.3     1  UNK11      -0.0068
@<TRIPOS>BOND
     1    19     9    1
     2    18     8    1
     3     9     8    1
     4     9    10    1
     5     8     7    1
     6    10    17    1
     7    10     5    1
     8     7    17    1
     9     7     6    1
    10    15     5   ar
    11    15     4   ar
    12     5    12   ar
    13     6    16    1
    14    21    31    2
    15    16    30    1
    16     4    13   ar
    17    12    13   ar
    18    12     3   ar
    19    28    32    2
    20    13    14   ar
    21     3    11   ar
    22    31    27    1
    23    31    26    1
    24    31    24    1
    25    30    20    2
    26    30    26    1
    27    30    23    1
    28    27    32    1
    29    22    32    1
    30    32    25    1
    31    11     1   ar
    32    11     2    1
    33    14     1   ar
    34    14    29    2
@<TRIPOS>MOLECULE
lig_2be0.pdb
 52 56 0 0 0
SMALL
GASTEIGER

@<TRIPOS>ATOM
      1 N          49.8730    3.4920   -5.5020 N.3     1  UNK11      -0.1301
      2 N          43.1000    5.9090   -8.4390 N.3     1  UNK11      -0.1248
      3 N          42.0860    4.1200    0.6710 N.3     1  UNK11      -0.1248
      4 N          37.4490   -0.5330   -7.1360 N.ar    1  UNK11      -0.2426
      5 N          48.5290    7.0990   -8.7680 N.3     1  UNK11      -0.1302
      6 N          41.0290    9.3330   -1.3430 N.3     1  UNK11      -0.1286
      7 N          40.9050    0.1640   -4.6180 N.3     1  UNK11      -0.2106
      8 C          44.7520    7.5260   -7.5030 C.3     1  UNK11       0.2561
      9 C          48.7750    4.0030   -6.3700 C.3     1  UNK11       0.1261
     10 C          44.2070    4.4120   -5.4160 C.3     1  UNK11       0.2661
     11 C          43.4340    5.6580   -0.8350 C.3     1  UNK11       0.2561
     12 C          39.8330   -1.0130   -6.7190 C.ar    1  UNK11       0.0144
     13 C          43.4130    7.3350   -8.3260 C.3     1  UNK11       0.1807
     14 C          49.2740    5.3170   -7.1260 C.3     1  UNK11       0.0433
     15 C          44.4140    3.8250   -4.0110 C.3     1  UNK11       0.2008
     16 C          43.3560    4.9130    0.6080 C.3     1  UNK11       0.1807
     17 C          38.6400   -0.2810   -6.4060 C.ar    1  UNK11       0.0960
     18 C          43.5600    8.0300   -9.7580 C.3     1  UNK11       0.2070
     19 C          48.0910    5.9170   -8.0800 C.3     1  UNK11       0.1230
     20 C          43.7480    4.9440   -3.1870 C.3     1  UNK11       0.1795
     21 C          43.3830    6.0100    1.7140 C.3     1  UNK11       0.2070
     22 C          37.3710   -1.4920   -8.1860 C.ar    1  UNK11       0.0989
     23 C          43.8780    9.5390   -9.5460 C.3     1  UNK11       0.2133
     24 C          46.8140    6.2540   -7.2050 C.3     1  UNK11       0.1649
     25 C          42.5500    5.3710   -4.0680 C.3     1  UNK11       0.1803
     26 C          42.1330    7.0320    1.5150 C.3     1  UNK11       0.2122
     27 C          38.5170   -2.2460   -8.5390 C.ar    1  UNK11       0.0204
     28 C          45.2140    9.7080   -8.7240 C.3     1  UNK11       0.1834
     29 C          46.3730    4.9370   -6.4780 C.3     1  UNK11       0.1779
     30 C          42.3170    6.8810   -4.0420 C.3     1  UNK11       0.2141
     31 C          42.2220    7.7040    0.0680 C.3     1  UNK11       0.1696
     32 C          39.7850   -2.0200   -7.8080 C.ar    1  UNK11       0.0003
     33 C          45.4500   11.1490   -8.5380 C.3     1  UNK11       0.2142
     34 C          47.5320    4.3990   -5.5380 C.3     1  UNK11       0.1989
     35 C          42.3390    2.1600   -4.3370 C.3     1  UNK11       0.1611
     36 C          41.0030    8.6560   -0.0700 C.3     1  UNK11       0.1415
     37 C          42.1280    0.6970   -3.9350 C.3     1  UNK11       0.1211
     38 C          41.1660   -0.7090   -5.8760 C.3     1  UNK11       0.1166
     39 O          45.8050    6.7750   -8.0610 O.3     1  UNK11      -0.3278
     40 O          42.9000    5.0230   -5.4230 O.3     1  UNK11      -0.3258
     41 O          43.7660    2.4790   -4.0960 O.3     1  UNK11      -0.3470
     42 O          42.3540    7.8420  -10.4830 O.3     1  UNK11      -0.2186
     43 O          43.3960    4.6350   -1.8470 O.3     1  UNK11      -0.3266
     44 O          44.6700    6.7090    1.5680 O.3     1  UNK11      -0.2186
     45 O          44.0300   10.2390  -10.8450 O.3     1  UNK11      -0.2176
     46 O          40.8430    6.3400    1.6590 O.3     1  UNK11      -0.2177
     47 O          45.0040    9.0010   -7.4710 O.3     1  UNK11      -0.3264
     48 O          45.2270    5.3500   -5.7430 O.3     1  UNK11      -0.3259
     49 O          43.4020    7.6690   -4.4710 O.3     1  UNK11      -0.2176
     50 O          42.2410    6.6030   -0.9730 O.3     1  UNK11      -0.3276
     51 O          46.7580   11.3660   -8.3530 O.3     1  UNK11      -0.2176
     52 O          47.1300    3.2270   -4.9090 O.3     1  UNK11      -0.2189
@<TRIPOS>BOND
     1    45    23    1
     2    42    18    1
     3    18    23    1
     4    18    13    1
     5    23    28    1
     6     5    19    1
     7    28    33    1
     8    28    47    1
     9    27    22   ar
    10    27    32   ar
    11    33    51    1
    12     2    13    1
    13    13     8    1
    14    22     4   ar
    15    19    24    1
    16    19    14    1
    17    39     8    1
    18    39    24    1
    19    32    12   ar
    20     8    47    1
    21    24    29    1
    22     4    17   ar
    23    14     9    1
    24    12    17   ar
    25    12    38    1
    26    29    48    1
    27    29    34    1
    28     9    34    1
    29     9     1    1
    30    38     7    1
    31    48    10    1
    32    34    52    1
    33    40    10    1
    34    40    25    1
    35    10    15    1
    36     7    37    1
    37    49    30    1
    38    35    41    1
    39    35    37    1
    40    41    15    1
    41    25    30    1
    42    25    20    1
    43    15    20    1
    44    20    43    1
    45    43    11    1
    46     6    36    1
    47    50    11    1
    48    50    31    1
    49    11    16    1
    50    36    31    1
    51    31    26    1
    52    16     3    1
    53    16    21    1
    54    26    46    1
    55    26    21    1
    56    44    21    1
@<TRIPOS>MOLECULE
lig_2bee.pdb
 49 52 0 0 0
SMALL
GASTEIGER

@<TRIPOS>ATOM
      1 N          50.7920    4.6420   -5.3690 N.3     1  UNK11      -0.1301
      2 N          43.3290    5.6720   -8.6440 N.3     1  UNK11      -0.1248
      3 N          43.2080    4.4370    0.0450 N.3     1  UNK11      -0.1248
      4 N          39.2770   -1.8800   -4.3660 N.3     1  UNK11      -0.1313
      5 N          48.4770    7.2780   -8.9900 N.3     1  UNK11      -0.1302
      6 N          39.0640    8.1620    0.8930 N.3     1  UNK11      -0.1286
      7 N          42.0600    0.8710   -5.0120 N.3     1  UNK11      -0.2154
      8 C          44.8210    7.2840   -7.4740 C.3     1  UNK11       0.2561
      9 C          49.5520    4.7680   -6.1820 C.3     1  UNK11       0.1261
     10 C          45.0680    4.7270   -4.6310 C.3     1  UNK11       0.2661
     11 C          42.6310    6.5110   -1.2820 C.3     1  UNK11       0.2561
     12 C          41.3990   -1.0710   -3.5020 C.3     1  UNK11       0.0393
     13 C          43.5940    7.0930   -8.4460 C.3     1  UNK11       0.1807
     14 C          49.7000    6.0030   -7.1830 C.3     1  UNK11       0.0433
     15 C          44.6180    4.2440   -3.2900 C.3     1  UNK11       0.2008
     16 C          43.7390    5.7850   -0.3460 C.3     1  UNK11       0.1807
     17 C          39.9860   -1.0220   -3.5290 C.3     1  UNK11       0.1108
     18 C          43.8950    7.8310   -9.8240 C.3     1  UNK11       0.2070
     19 C          48.3510    6.1840   -8.0870 C.3     1  UNK11       0.1230
     20 C          43.3160    5.0090   -3.2590 C.3     1  UNK11       0.1795
     21 C          43.9800    6.6780    0.9230 C.3     1  UNK11       0.2070
     22 C          44.1610    9.3280   -9.5470 C.3     1  UNK11       0.2133
     23 C          47.1040    6.4130   -7.1470 C.3     1  UNK11       0.1649
     24 C          42.8380    4.9610   -4.7940 C.3     1  UNK11       0.1803
     25 C          42.5690    6.8630    1.7230 C.3     1  UNK11       0.2122
     26 C          45.3760    9.5050   -8.5780 C.3     1  UNK11       0.1834
     27 C          47.0060    5.1800   -6.1870 C.3     1  UNK11       0.1779
     28 C          41.8850    6.1030   -5.3060 C.3     1  UNK11       0.2141
     29 C          41.4840    7.5360    0.7700 C.3     1  UNK11       0.1696
     30 C          45.5410   10.9530   -8.3530 C.3     1  UNK11       0.2142
     31 C          48.3160    5.0470   -5.2990 C.3     1  UNK11       0.1989
     32 C          44.0940    1.8270   -4.1370 C.3     1  UNK11       0.1611
     33 C          40.1800    7.6430    1.6310 C.3     1  UNK11       0.1415
     34 C          42.5770    1.7600   -3.9540 C.3     1  UNK11       0.1207
     35 C          42.2000   -0.6410   -4.8170 C.3     1  UNK11       0.0903
     36 O          45.9520    6.5720   -7.9600 O.3     1  UNK11      -0.3278
     37 O          44.6590    2.7770   -3.1650 O.3     1  UNK11      -0.3470
     38 O          42.7830    7.6570  -10.6910 O.3     1  UNK11      -0.2186
     39 O          42.4280    5.6090   -2.3950 O.3     1  UNK11      -0.3266
     40 O          44.5110    7.9680    0.4580 O.3     1  UNK11      -0.2186
     41 O          44.4620   10.0530  -10.8090 O.3     1  UNK11      -0.2176
     42 O          44.0080    5.1180   -5.4570 O.3     1  UNK11      -0.3258
     43 O          42.0430    5.5580    2.1840 O.3     1  UNK11      -0.2177
     44 O          45.0180    8.7680   -7.3810 O.3     1  UNK11      -0.3264
     45 O          45.8630    5.4740   -5.4210 O.3     1  UNK11      -0.3259
     46 O          40.6490    6.0930   -4.5220 O.3     1  UNK11      -0.2176
     47 O          41.3500    6.6440   -0.4460 O.3     1  UNK11      -0.3276
     48 O          46.4360   11.4620   -9.2110 O.3     1  UNK11      -0.2176
     49 O          48.2210    3.9410   -4.4550 O.3     1  UNK11      -0.2189
@<TRIPOS>BOND
     1    41    22    1
     2    38    18    1
     3    18    22    1
     4    18    13    1
     5    22    26    1
     6    48    30    1
     7     5    19    1
     8     2    13    1
     9    26    30    1
    10    26    44    1
    11    13     8    1
    12    19    14    1
    13    19    23    1
    14    36     8    1
    15    36    23    1
    16     8    44    1
    17    14     9    1
    18    23    27    1
    19    27    45    1
    20    27    31    1
    21     9     1    1
    22     9    31    1
    23    42    24    1
    24    42    10    1
    25    45    10    1
    26    28    24    1
    27    28    46    1
    28    31    49    1
    29     7    35    1
    30     7    34    1
    31    35    12    1
    32    24    20    1
    33    10    15    1
    34     4    17    1
    35    32    34    1
    36    32    37    1
    37    17    12    1
    38    15    20    1
    39    15    37    1
    40    20    39    1
    41    39    11    1
    42    11    47    1
    43    11    16    1
    44    47    29    1
    45    16     3    1
    46    16    21    1
    47    40    21    1
    48    29    33    1
    49    29    25    1
    50     6    33    1
    51    21    25    1
    52    25    43    1
@<TRIPOS>MOLECULE
lig_2esj.pdb
 52 56 0 0 0
SMALL
GASTEIGER

@<TRIPOS>ATOM
      1 N          19.7030  -12.0620   16.3520 N.3     1  UNK11      -0.1301
      2 N          18.6890   -5.3190   20.2720 N.3     1  UNK11      -0.1275
      3 N          23.0890   -5.6710   13.3440 N.3     1  UNK11      -0.1248
      4 N          16.8530  -10.3440   20.0990 N.3     1  UNK11      -0.1302
      5 N          23.2910   -1.9330   16.5500 N.3     1  UNK11      -0.1286
      6 C          16.8700   -6.4470   18.9650 C.3     1  UNK11       0.2535
      7 C          19.3950  -10.9100   17.2140 C.3     1  UNK11       0.1261
      8 C          19.1800   -6.5350   15.7440 C.3     1  UNK11       0.2694
      9 C          21.3560   -3.8130   13.3450 C.3     1  UNK11       0.2561
     10 C          26.6860   -3.9440   13.5530 C.3     1  UNK11       0.2695
     11 C          17.2430   -5.4350   20.0880 C.3     1  UNK11       0.1506
     12 C          18.2230  -11.2690   18.2130 C.3     1  UNK11       0.0433
     13 C          18.4730   -5.5240   14.8400 C.3     1  UNK11       0.2373
     14 C          22.4710   -4.5980   12.5200 C.3     1  UNK11       0.1806
     15 C          26.8190   -5.0290   14.6150 C.3     1  UNK11       0.2406
     16 C          16.5670   -5.8300   21.4400 C.3     1  UNK11       0.0597
     17 C          17.9470  -10.0410   19.1700 C.3     1  UNK11       0.1230
     18 C          19.5130   -4.4430   14.7730 C.3     1  UNK11       0.1827
     19 C          23.4960   -3.5460   11.9070 C.3     1  UNK11       0.2038
     20 C          27.0330   -4.5250   16.0370 C.3     1  UNK11       0.2198
     21 C          15.0320   -5.9700   21.2130 C.3     1  UNK11       0.1832
     22 C          17.6160   -8.7730   18.3400 C.3     1  UNK11       0.1649
     23 C          20.1850   -4.4150   16.1610 C.3     1  UNK11       0.1804
     24 C          24.2880   -2.7790   13.0440 C.3     1  UNK11       0.1782
     25 C          28.1360   -3.4720   16.1590 C.3     1  UNK11       0.2144
     26 C          14.7950   -7.0710   20.1500 C.3     1  UNK11       0.1808
     27 C          18.6780   -8.4270   17.2490 C.3     1  UNK11       0.1779
     28 C          19.5440   -3.5070   17.2090 C.3     1  UNK11       0.2141
     29 C          23.2390   -2.3290   14.0420 C.3     1  UNK11       0.1664
     30 C          28.0860   -2.4740   15.0080 C.3     1  UNK11       0.1835
     31 C          13.3540   -7.2600   19.8160 C.3     1  UNK11       0.2141
     32 C          18.9740   -9.6710   16.3450 C.3     1  UNK11       0.1989
     33 C          23.7410   -1.4490   15.2280 C.3     1  UNK11       0.1414
     34 C          29.0730   -1.3180   14.8640 C.3     1  UNK11       0.2142
     35 O          17.4720   -7.7110   19.3030 O.3     1  UNK11      -0.3278
     36 O          18.1180   -6.0870   13.5580 O.3     1  UNK11      -0.2150
     37 O          27.9260   -5.8900   14.2770 O.3     1  UNK11      -0.2149
     38 O          20.5510   -4.8120   13.9000 O.3     1  UNK11      -0.3265
     39 O          22.7610   -2.5430   11.1980 O.3     1  UNK11      -0.2187
     40 O          27.3700   -5.6600   16.8420 O.3     1  UNK11      -0.2174
     41 O          14.3450   -6.2520   22.4190 O.3     1  UNK11      -0.2204
     42 O          20.0630   -5.7670   16.5740 O.3     1  UNK11      -0.3257
     43 O          25.0330   -3.8030   13.7060 O.3     1  UNK11      -0.3258
     44 O          28.0060   -2.8810   17.4620 O.3     1  UNK11      -0.2176
     45 O          15.4360   -6.6300   18.9190 O.3     1  UNK11      -0.3266
     46 O          18.2330   -7.2720   16.4850 O.3     1  UNK11      -0.3258
     47 O          20.4300   -3.4570   18.3370 O.3     1  UNK11      -0.2176
     48 O          21.9910   -2.9510   14.4200 O.3     1  UNK11      -0.3277
     49 O          27.6390   -2.8630   13.7000 O.3     1  UNK11      -0.3256
     50 O          12.9250   -6.1070   19.1340 O.3     1  UNK11      -0.2176
     51 O          20.0990   -9.3270   15.4940 O.3     1  UNK11      -0.2189
     52 O          30.3760   -1.8250   14.4730 O.3     1  UNK11      -0.2176
@<TRIPOS>BOND
     1    39    19    1
     2    19    14    1
     3    19    24    1
     4    14     3    1
     5    14     9    1
     6    24    43    1
     7    24    29    1
     8     9    38    1
     9     9    48    1
    10    10    49    1
    11    10    43    1
    12    10    15    1
    13    36    13    1
    14    49    30    1
    15    38    18    1
    16    29    48    1
    17    29    33    1
    18    37    15    1
    19    52    34    1
    20    15    20    1
    21    18    13    1
    22    18    23    1
    23    13     8    1
    24    34    30    1
    25    30    25    1
    26    33     5    1
    27    51    32    1
    28     8    46    1
    29     8    42    1
    30    20    25    1
    31    20    40    1
    32    25    44    1
    33    23    42    1
    34    23    28    1
    35    32     7    1
    36    32    27    1
    37     1     7    1
    38    46    27    1
    39    28    47    1
    40     7    12    1
    41    27    22    1
    42    12    17    1
    43    22    17    1
    44    22    35    1
    45    45     6    1
    46    45    26    1
    47     6    35    1
    48     6    11    1
    49    50    31    1
    50    17     4    1
    51    31    26    1
    52    11     2    1
    53    11    16    1
    54    26    21    1
    55    21    16    1
    56    21    41    1
@<TRIPOS>MOLECULE
lig_2et3.pdb
 31 33 0 0 0
SMALL
GASTEIGER

@<TRIPOS>ATOM
      1 N          -1.3770  -12.4340   32.8200 N.3     1  UNK11      -0.1302
      2 N          -1.2860   -5.4200   28.9540 N.3     1  UNK11      -0.1276
      3 N           0.3870  -10.6530   28.5640 N.3     1  UNK11      -0.1302
      4 N          -5.7470   -9.4650   35.8600 N.3     1  UNK11      -0.2126
      5 N           4.4900   -7.0940   27.9300 N.3     1  UNK11      -0.1287
      6 C           0.5070   -6.9170   29.5360 C.3     1  UNK11       0.2533
      7 C          -1.4960  -11.3800   31.8610 C.3     1  UNK11       0.1231
      8 C          -2.1500  -10.5190   34.8800 C.3     1  UNK11       0.2683
      9 C           0.0570   -5.7790   28.6140 C.3     1  UNK11       0.1480
     10 C          -0.4650  -11.6050   30.7080 C.3     1  UNK11       0.0432
     11 C          -3.6140  -10.7480   35.3170 C.3     1  UNK11       0.2262
     12 C           0.1830   -6.2080   27.1120 C.3     1  UNK11       0.0267
     13 C          -0.5820  -10.4460   29.6520 C.3     1  UNK11       0.1231
     14 C          -4.3020   -9.3320   35.4810 C.3     1  UNK11       0.1384
     15 C           1.6810   -6.5500   26.8330 C.3     1  UNK11       0.0329
     16 C          -0.3350   -9.0590   30.3610 C.3     1  UNK11       0.1680
     17 C          -3.5160   -8.4530   36.5920 C.3     1  UNK11       0.1710
     18 C           2.1290   -7.7140   27.8230 C.3     1  UNK11       0.1368
     19 C          -1.3880   -8.8630   31.5190 C.3     1  UNK11       0.2088
     20 C          -2.0160   -8.3380   36.1830 C.3     1  UNK11       0.1765
     21 C           3.5620   -8.1570   27.6460 C.3     1  UNK11       0.1388
     22 C          -1.2570  -10.0290   32.5610 C.3     1  UNK11       0.1680
     23 C          -4.0510   -7.0400   36.8620 C.3     1  UNK11       0.0371
     24 C          -6.7180   -9.6130   34.7630 C.3     1  UNK11       0.1076
     25 O          -0.4160   -8.0310   29.4260 O.3     1  UNK11      -0.3277
     26 O          -4.2620  -11.5370   34.3440 O.3     1  UNK11      -0.2161
     27 O          -3.5680   -9.0670   37.8630 O.3     1  UNK11      -0.2215
     28 O           1.8900   -7.3720   29.2240 O.3     1  UNK11      -0.3304
     29 O          -1.1840   -7.6140   32.1710 O.3     1  UNK11      -0.2178
     30 O          -1.4390   -9.6940   35.8990 O.3     1  UNK11      -0.3259
     31 O          -2.2180   -9.8380   33.5920 O.3     1  UNK11      -0.3269
@<TRIPOS>BOND
     1    15    12    1
     2    15    18    1
     3    12     9    1
     4    21    18    1
     5    21     5    1
     6    18    28    1
     7     3    13    1
     8     9     2    1
     9     9     6    1
    10    28     6    1
    11    25     6    1
    12    25    16    1
    13    13    16    1
    14    13    10    1
    15    16    19    1
    16    10     7    1
    17    19    29    1
    18    19    22    1
    19     7    22    1
    20     7     1    1
    21    22    31    1
    22    31     8    1
    23    26    11    1
    24    24     4    1
    25     8    11    1
    26     8    30    1
    27    11    14    1
    28    14     4    1
    29    14    17    1
    30    30    20    1
    31    20    17    1
    32    17    23    1
    33    17    27    1
@<TRIPOS>MOLECULE
lig_2et4.pdb
 42 45 0 0 0
SMALL
GASTEIGER

@<TRIPOS>ATOM
      1 N          12.1700    7.6550    4.6540 N.3     1  UNK11      -0.1248
      2 N          16.3880   12.7440    3.7140 N.3     1  UNK11      -0.1286
      3 N          19.0670    5.5060    7.3390 N.3     1  UNK11      -0.1301
      4 N          17.3690    8.0680    3.3380 N.3     1  UNK11      -0.1302
      5 N           9.1590    3.2850    9.4360 N.3     1  UNK11      -0.1286
      6 N          12.5810    4.7410   12.3820 N.3     1  UNK11      -0.1248
      7 C          13.9140    9.3130    5.2180 C.3     1  UNK11       0.2561
      8 C          12.5820    9.0240    4.4780 C.3     1  UNK11       0.1807
      9 C          12.7480    9.3700    2.9700 C.3     1  UNK11       0.2070
     10 C          13.1920   10.8660    2.8570 C.3     1  UNK11       0.2122
     11 C          14.5270   11.1090    3.6240 C.3     1  UNK11       0.1696
     12 C          14.9810   12.6040    3.5670 C.3     1  UNK11       0.1415
     13 C          17.8720    5.9000    6.5820 C.3     1  UNK11       0.1261
     14 C          18.3110    6.7950    5.3020 C.3     1  UNK11       0.0433
     15 C          17.0180    7.2300    4.4980 C.3     1  UNK11       0.1230
     16 C          16.0580    8.0240    5.4470 C.3     1  UNK11       0.1649
     17 C          15.6660    7.1600    6.6910 C.3     1  UNK11       0.1779
     18 C          16.9510    6.7460    7.4770 C.3     1  UNK11       0.1989
     19 C          13.9890    7.5330    8.4970 C.3     1  UNK11       0.2694
     20 C          13.4440    8.7100    9.3480 C.3     1  UNK11       0.2373
     21 C          12.1020    8.1240    9.7480 C.3     1  UNK11       0.1827
     22 C          11.5880    7.3300    8.5390 C.3     1  UNK11       0.1804
     23 C          10.8360    8.1690    7.4510 C.3     1  UNK11       0.2141
     24 C          11.2090    6.7100   11.5720 C.3     1  UNK11       0.2561
     25 C          11.6300    5.8170   12.8180 C.3     1  UNK11       0.1807
     26 C          10.2680    5.2350   13.4670 C.3     1  UNK11       0.2070
     27 C           9.4980    4.3020   12.3880 C.3     1  UNK11       0.2122
     28 C           9.1160    5.2420   11.1120 C.3     1  UNK11       0.1696
     29 C           8.3820    4.4420    9.9790 C.3     1  UNK11       0.1415
     30 O          14.8850    8.3960    4.7100 O.3     1  UNK11      -0.3278
     31 O          11.5450    9.1240    2.3110 O.3     1  UNK11      -0.2186
     32 O          13.3610   11.2220    1.5010 O.3     1  UNK11      -0.2177
     33 O          14.3390   10.7230    4.9890 O.3     1  UNK11      -0.3276
     34 O          14.7960    7.9840    7.5060 O.3     1  UNK11      -0.3258
     35 O          16.5740    5.9710    8.5650 O.3     1  UNK11      -0.2189
     36 O          14.3270    9.1160   10.3530 O.3     1  UNK11      -0.2150
     37 O          12.8180    6.8000    8.0460 O.3     1  UNK11      -0.3257
     38 O           9.6920    8.7900    8.0940 O.3     1  UNK11      -0.2176
     39 O          12.3310    7.2480   10.9270 O.3     1  UNK11      -0.3265
     40 O           9.3960    6.4090   13.8640 O.3     1  UNK11      -0.2186
     41 O          10.3460    3.1840   12.0320 O.3     1  UNK11      -0.2177
     42 O          10.3670    5.8730   10.5650 O.3     1  UNK11      -0.3276
@<TRIPOS>BOND
     1    32    10    1
     2    31     9    1
     3    10     9    1
     4    10    11    1
     5     9     8    1
     6     4    15    1
     7    12    11    1
     8    12     2    1
     9    11    33    1
    10     8     1    1
    11     8     7    1
    12    15    14    1
    13    15    16    1
    14    30     7    1
    15    30    16    1
    16    33     7    1
    17    14    13    1
    18    16    17    1
    19    13     3    1
    20    13    18    1
    21    17    18    1
    22    17    34    1
    23    23    38    1
    24    23    22    1
    25    18    35    1
    26    34    19    1
    27    37    19    1
    28    37    22    1
    29    19    20    1
    30    22    21    1
    31    20    21    1
    32    20    36    1
    33     5    29    1
    34    21    39    1
    35    29    28    1
    36    42    28    1
    37    42    24    1
    38    39    24    1
    39    28    27    1
    40    24    25    1
    41    41    27    1
    42     6    25    1
    43    27    26    1
    44    25    26    1
    45    26    40    1
@<TRIPOS>MOLECULE
lig_2et8.pdb
 22 23 0 0 0
SMALL
GASTEIGER

@<TRIPOS>ATOM
      1 N          26.1690   17.2080   35.2670 N.3     1  UNK11      -0.1301
      2 N          23.8290   14.9970   39.0400 N.3     1  UNK11      -0.1302
      3 N          22.9750   10.9850   39.2970 N.3     1  UNK11      -0.1286
      4 N          18.6060   15.3520   36.8710 N.3     1  UNK11      -0.1248
      5 C          22.5200   15.9680   35.6030 C.3     1  UNK11       0.2119
      6 C          23.9230   16.2500   34.9420 C.3     1  UNK11       0.2020
      7 C          24.8370   16.9550   35.9150 C.3     1  UNK11       0.1262
      8 C          25.0030   16.0800   37.1790 C.3     1  UNK11       0.0433
      9 C          23.5940   15.8510   37.7990 C.3     1  UNK11       0.1231
     10 C          22.7310   15.0480   36.8710 C.3     1  UNK11       0.1681
     11 C          20.6230   13.8910   36.8760 C.3     1  UNK11       0.2561
     12 C          21.0080   12.4690   38.9240 C.3     1  UNK11       0.1696
     13 C          21.4960   11.0930   39.4230 C.3     1  UNK11       0.1415
     14 C          19.5700   12.6450   39.3110 C.3     1  UNK11       0.2122
     15 C          19.0320   13.9650   38.8400 C.3     1  UNK11       0.2070
     16 C          19.1520   14.0340   37.3570 C.3     1  UNK11       0.1807
     17 O          21.6610   15.3050   34.6430 O.3     1  UNK11      -0.2177
     18 O          23.8020   17.0760   33.7770 O.3     1  UNK11      -0.2188
     19 O          21.4920   14.8300   37.4190 O.3     1  UNK11      -0.3277
     20 O          21.1190   12.5580   37.4360 O.3     1  UNK11      -0.3276
     21 O          19.4720   12.5760   40.6930 O.3     1  UNK11      -0.2177
     22 O          17.6510   14.0970   39.2080 O.3     1  UNK11      -0.2186
@<TRIPOS>BOND
     1    18     6    1
     2    17     5    1
     3     6     5    1
     4     6     7    1
     5     1     7    1
     6     5    10    1
     7     7     8    1
     8     4    16    1
     9    10    19    1
    10    10     9    1
    11    11    16    1
    12    11    19    1
    13    11    20    1
    14     8     9    1
    15    16    15    1
    16    20    12    1
    17     9     2    1
    18    15    22    1
    19    15    14    1
    20    12    14    1
    21    12    13    1
    22     3    13    1
    23    14    21    1
@<TRIPOS>MOLECULE
lig_2f4s.pdb
 22 23 0 0 0
SMALL
GASTEIGER

@<TRIPOS>ATOM
      1 N          26.4130   17.2190   35.6280 N.3     1  UNK11      -0.1301
      2 N          23.7260   15.0080   39.2430 N.3     1  UNK11      -0.1302
      3 N          23.0060   11.0570   39.1550 N.3     1  UNK11      -0.1286
      4 N          18.5890   15.3360   36.8470 N.3     1  UNK11      -0.1248
      5 C          22.7640   15.9190   35.6000 C.3     1  UNK11       0.2119
      6 C          24.2020   16.2220   35.0960 C.3     1  UNK11       0.2020
      7 C          25.0200   16.9510   36.1550 C.3     1  UNK11       0.1262
      8 C          25.0860   16.0840   37.4580 C.3     1  UNK11       0.0433
      9 C          23.6150   15.8270   37.9650 C.3     1  UNK11       0.1231
     10 C          22.8270   15.0340   36.9080 C.3     1  UNK11       0.1681
     11 C          20.6300   13.8540   36.8640 C.3     1  UNK11       0.2561
     12 C          21.0040   12.4460   38.9420 C.3     1  UNK11       0.1696
     13 C          21.5200   11.0620   39.3480 C.3     1  UNK11       0.1415
     14 C          19.5600   12.6030   39.3630 C.3     1  UNK11       0.2122
     15 C          19.0260   13.9480   38.8760 C.3     1  UNK11       0.2070
     16 C          19.1430   14.0220   37.3340 C.3     1  UNK11       0.1807
     17 O          22.0000   15.2470   34.5570 O.3     1  UNK11      -0.2177
     18 O          24.1720   17.0320   33.9150 O.3     1  UNK11      -0.2188
     19 O          21.5130   14.8240   37.4010 O.3     1  UNK11      -0.3277
     20 O          21.0700   12.5550   37.4570 O.3     1  UNK11      -0.3276
     21 O          19.4770   12.5050   40.7650 O.3     1  UNK11      -0.2177
     22 O          17.6550   14.0990   39.2650 O.3     1  UNK11      -0.2186
@<TRIPOS>BOND
     1    18     6    1
     2    17     5    1
     3     6     5    1
     4     6     7    1
     5     5    10    1
     6     1     7    1
     7     7     8    1
     8     4    16    1
     9    11    16    1
    10    11    19    1
    11    11    20    1
    12    10    19    1
    13    10     9    1
    14    16    15    1
    15    20    12    1
    16     8     9    1
    17     9     2    1
    18    15    22    1
    19    15    14    1
    20    12    13    1
    21    12    14    1
    22     3    13    1
    23    14    21    1
@<TRIPOS>MOLECULE
lig_2f4t.pdb
 35 36 0 0 0
SMALL
GASTEIGER

@<TRIPOS>ATOM
      1 N           4.1500  -11.0970   29.8410 N.am    1  UNK11      -0.2024
      2 N           3.3720   -3.7890   27.1330 N.3     1  UNK11      -0.1248
      3 N           4.0680  -15.7120   33.7980 N.3     1  UNK11      -0.1313
      4 N           7.1010   -6.7090   31.9590 N.3     1  UNK11      -0.2138
      5 N           0.7200   -8.5420   27.3530 N.3     1  UNK11      -0.1302
      6 N           7.0160   -3.5030   34.1930 N.3     1  UNK11      -0.1298
      7 N           1.0570   -6.3860   22.3170 N.3     1  UNK11      -0.1286
      8 C           2.9300   -5.7810   25.7400 C.3     1  UNK11       0.2561
      9 C           3.7370   -9.7410   29.4520 C.3     1  UNK11       0.1265
     10 C           2.6870   -4.2560   25.9510 C.3     1  UNK11       0.1807
     11 C           2.4100   -9.8230   28.6120 C.3     1  UNK11       0.0458
     12 C           3.3320  -11.5580   31.3370 C.2     1  UNK11       0.2719
     13 C           4.0710  -12.8710   31.2110 C.3     1  UNK11       0.2305
     14 C           3.7770  -13.6890   32.4710 C.3     1  UNK11       0.0630
     15 C           4.5320  -15.0240   32.5890 C.3     1  UNK11       0.1124
     16 C           6.8900   -8.6730   30.4100 C.3     1  UNK11       0.1610
     17 C           6.9340   -7.1600   30.5600 C.3     1  UNK11       0.1207
     18 C           1.1510   -3.9650   26.0520 C.3     1  UNK11       0.2070
     19 C           1.9290   -8.4360   28.1640 C.3     1  UNK11       0.1234
     20 C           7.3480   -4.9540   33.7170 C.3     1  UNK11       0.1280
     21 C           6.7000   -5.3280   32.3510 C.3     1  UNK11       0.1092
     22 C           0.4870   -4.4630   24.7640 C.3     1  UNK11       0.2122
     23 C           3.0010   -7.7410   27.3620 C.3     1  UNK11       0.1680
     24 C           0.7660   -5.9830   24.5770 C.3     1  UNK11       0.1696
     25 C           4.3360   -7.6260   28.2160 C.3     1  UNK11       0.2090
     26 C           0.1670   -6.5060   23.3270 C.3     1  UNK11       0.1415
     27 C           4.8210   -9.0680   28.5950 C.3     1  UNK11       0.1678
     28 O           2.4830   -6.4310   26.9750 O.3     1  UNK11      -0.3277
     29 O           3.5730  -13.6260   30.1370 O.3     1  UNK11      -0.2131
     30 O           0.9080   -2.5840   26.2390 O.3     1  UNK11      -0.2186
     31 O           2.6370  -11.0770   31.9890 O.2     1  UNK11      -0.2706
     32 O          -0.9100   -4.2180   24.7850 O.3     1  UNK11      -0.2177
     33 O           2.1840   -6.2510   24.5510 O.3     1  UNK11      -0.3276
     34 O           5.3460   -6.9450   27.4130 O.3     1  UNK11      -0.2178
     35 O           6.0060   -9.0030   29.3210 O.3     1  UNK11      -0.3503
@<TRIPOS>BOND
     1     7    26    1
     2    26    24    1
     3    33    24    1
     4    33     8    1
     5    24    22    1
     6    22    32    1
     7    22    18    1
     8     8    10    1
     9     8    28    1
    10    10    18    1
    11    10     2    1
    12    18    30    1
    13    28    23    1
    14     5    19    1
    15    23    19    1
    16    23    25    1
    17    34    25    1
    18    19    11    1
    19    25    27    1
    20    27    35    1
    21    27     9    1
    22    11     9    1
    23    35    16    1
    24     9     1    1
    25     1    12   am
    26    29    13    1
    27    16    17    1
    28    17     4    1
    29    13    12    1
    30    13    14    1
    31    12    31    2
    32     4    21    1
    33    21    20    1
    34    14    15    1
    35    15     3    1
    36    20     6    1
@<TRIPOS>MOLECULE
lig_2f4u.pdb
 36 37 0 0 0
SMALL
GASTEIGER

@<TRIPOS>ATOM
      1 N          43.1780    5.1590    6.8740 N.am    1  UNK11      -0.2024
      2 N          35.8960    7.6300    5.9540 N.3     1  UNK11      -0.1248
      3 N          46.1760    1.0680    6.9380 N.3     1  UNK11      -0.1313
      4 N          38.9280    4.4940   10.2440 N.3     1  UNK11      -0.2154
      5 N          40.7960    7.8920    3.4210 N.3     1  UNK11      -0.1302
      6 N          34.8400    5.6390   11.8580 N.3     1  UNK11      -0.1313
      7 C          37.8170    9.2410    5.6410 C.3     1  UNK11       0.2561
      8 C          41.8590    5.5680    6.3200 C.3     1  UNK11       0.1265
      9 C          36.3120    8.9230    5.3790 C.3     1  UNK11       0.1807
     10 C          42.0180    6.5150    5.0790 C.3     1  UNK11       0.0458
     11 C          44.0370    4.0680    5.7530 C.2     1  UNK11       0.2719
     12 C          45.0320    3.9410    6.8640 C.3     1  UNK11       0.2305
     13 C          44.5970    2.7520    7.7280 C.3     1  UNK11       0.0630
     14 C          44.7490    1.3620    7.0820 C.3     1  UNK11       0.1124
     15 C          41.3700    4.6460    9.6540 C.3     1  UNK11       0.1610
     16 C          40.2000    3.7660   10.0680 C.3     1  UNK11       0.1207
     17 C          36.0550    8.9320    3.8360 C.3     1  UNK11       0.2070
     18 C          40.6460    6.9770    4.5460 C.3     1  UNK11       0.1234
     19 C          36.4620    4.8090   10.1040 C.3     1  UNK11       0.0393
     20 C          35.9460    4.6780   11.5690 C.3     1  UNK11       0.1108
     21 C          37.6570    3.8720    9.7890 C.3     1  UNK11       0.0903
     22 C          36.4600   10.3150    3.2890 C.3     1  UNK11       0.2133
     23 C          39.8690    7.6870    5.6360 C.3     1  UNK11       0.1680
     24 C          37.9290   10.6300    3.6260 C.3     1  UNK11       0.1834
     25 C          39.6670    6.7170    6.8700 C.3     1  UNK11       0.2090
     26 C          38.3240   12.0100    3.1740 C.3     1  UNK11       0.2142
     27 C          41.0720    6.2790    7.4040 C.3     1  UNK11       0.1678
     28 O          38.5930    8.1370    5.0430 O.3     1  UNK11      -0.3277
     29 O          46.3020    3.6500    6.3480 O.3     1  UNK11      -0.2131
     30 O          34.6920    8.6350    3.5430 O.3     1  UNK11      -0.2186
     31 O          43.8560    3.6620    4.7710 O.2     1  UNK11      -0.2706
     32 O          36.2710   10.4210    1.8800 O.3     1  UNK11      -0.2176
     33 O          38.1660   10.5170    5.0340 O.3     1  UNK11      -0.3264
     34 O          38.9310    7.4320    7.9120 O.3     1  UNK11      -0.2178
     35 O          39.6330   12.2710    3.5120 O.3     1  UNK11      -0.2176
     36 O          40.9720    5.4200    8.5030 O.3     1  UNK11      -0.3503
@<TRIPOS>BOND
     1    32    22    1
     2    26    35    1
     3    26    24    1
     4    22    24    1
     5    22    17    1
     6     5    18    1
     7    30    17    1
     8    24    33    1
     9    17     9    1
    10    18    10    1
    11    18    23    1
    12    31    11    2
    13    33     7    1
    14    28    23    1
    15    28     7    1
    16    10     8    1
    17     9     7    1
    18     9     2    1
    19    23    25    1
    20    11    12    1
    21    11     1   am
    22     8     1    1
    23     8    27    1
    24    29    12    1
    25    12    13    1
    26    25    27    1
    27    25    34    1
    28     3    14    1
    29    14    13    1
    30    27    36    1
    31    36    15    1
    32    15    16    1
    33    21    19    1
    34    21     4    1
    35    16     4    1
    36    19    20    1
    37    20     6    1
@<TRIPOS>MOLECULE
lig_2fcx.pdb
 22 23 0 0 0
SMALL
GASTEIGER

@<TRIPOS>ATOM
      1 N          32.1110   13.3170   12.9150 N.3     1  UNK11      -0.1301
      2 N          30.3750   10.7920   16.7470 N.3     1  UNK11      -0.1302
      3 N          30.6600    6.5370   17.0870 N.3     1  UNK11      -0.1286
      4 N          25.4650    9.5640   14.4330 N.3     1  UNK11      -0.1248
      5 C          29.1330   10.9490   13.1550 C.3     1  UNK11       0.2119
      6 C          30.3520   11.6430   12.5420 C.3     1  UNK11       0.2020
      7 C          30.9140   12.6960   13.5000 C.3     1  UNK11       0.1262
      8 C          31.2850   12.0590   14.8440 C.3     1  UNK11       0.0433
      9 C          30.0390   11.4120   15.4570 C.3     1  UNK11       0.1231
     10 C          29.4400   10.3480   14.5320 C.3     1  UNK11       0.1681
     11 C          27.7520    8.6360   14.5840 C.3     1  UNK11       0.2561
     12 C          28.4080    7.3850   16.5450 C.3     1  UNK11       0.1696
     13 C          29.2340    6.1870   17.0190 C.3     1  UNK11       0.1415
     14 C          26.9490    7.1530   16.9480 C.3     1  UNK11       0.2122
     15 C          26.0870    8.3130   16.4440 C.3     1  UNK11       0.2070
     16 C          26.2700    8.4400   14.9290 C.3     1  UNK11       0.1807
     17 O          28.6620    9.9240   12.2750 O.3     1  UNK11      -0.2177
     18 O          29.9390   12.2750   11.3250 O.3     1  UNK11      -0.2188
     19 O          28.2300    9.8720   15.1440 O.3     1  UNK11      -0.3277
     20 O          28.5280    7.5480   15.1180 O.3     1  UNK11      -0.3276
     21 O          26.8320    7.0840   18.3720 O.3     1  UNK11      -0.2177
     22 O          24.7160    8.0670   16.7640 O.3     1  UNK11      -0.2186
@<TRIPOS>BOND
     1    18     6    1
     2    17     5    1
     3     6     5    1
     4     6     7    1
     5     1     7    1
     6     5    10    1
     7     7     8    1
     8     4    16    1
     9    10    19    1
    10    10     9    1
    11    11    16    1
    12    11    20    1
    13    11    19    1
    14     8     9    1
    15    16    15    1
    16    20    12    1
    17     9     2    1
    18    15    22    1
    19    15    14    1
    20    12    14    1
    21    12    13    1
    22    14    21    1
    23    13     3    1
@<TRIPOS>MOLECULE
lig_2fcy.pdb
 42 45 0 0 0
SMALL
GASTEIGER

@<TRIPOS>ATOM
      1 N          -1.6650   92.2380   14.7820 N.3     1  UNK11      -0.1248
      2 N           3.6320   88.7620   16.4380 N.3     1  UNK11      -0.1286
      3 N           4.1150   96.2260   12.3570 N.3     1  UNK11      -0.1301
      4 N           3.4060   93.2760   16.2260 N.3     1  UNK11      -0.1302
      5 N          -6.0450   93.0390    9.0570 N.3     1  UNK11      -0.1286
      6 N          -2.1280   94.2390    7.2000 N.3     1  UNK11      -0.1248
      7 C           0.4700   91.0940   14.5120 C.3     1  UNK11       0.2561
      8 C          -0.9360   91.0050   15.1090 C.3     1  UNK11       0.1807
      9 C          -0.8380   90.8600   16.6300 C.3     1  UNK11       0.2070
     10 C          -0.0140   89.6170   16.9690 C.3     1  UNK11       0.2122
     11 C           1.3680   89.7530   16.3300 C.3     1  UNK11       0.1696
     12 C           2.2000   88.5090   16.6540 C.3     1  UNK11       0.1415
     13 C           3.1700   95.3610   13.0800 C.3     1  UNK11       0.1261
     14 C           3.8350   94.7360   14.3080 C.3     1  UNK11       0.0433
     15 C           2.7710   93.9580   15.0890 C.3     1  UNK11       0.1230
     16 C           2.0790   92.8940   14.2320 C.3     1  UNK11       0.1649
     17 C           1.5940   93.3870   12.8740 C.3     1  UNK11       0.1779
     18 C           2.6510   94.2470   12.1680 C.3     1  UNK11       0.1989
     19 C           0.3200   92.3120   11.1010 C.3     1  UNK11       0.2694
     20 C           0.2230   90.9620   10.3880 C.3     1  UNK11       0.2373
     21 C          -1.1570   91.1280    9.7590 C.3     1  UNK11       0.1827
     22 C          -1.9310   91.6890   10.9410 C.3     1  UNK11       0.1804
     23 C          -2.4340   90.5280   11.8070 C.3     1  UNK11       0.2141
     24 C          -2.1700   91.8680    7.7780 C.3     1  UNK11       0.2561
     25 C          -2.0880   92.8820    6.6330 C.3     1  UNK11       0.1807
     26 C          -3.2820   92.7180    5.6860 C.3     1  UNK11       0.2070
     27 C          -4.5870   92.7730    6.4840 C.3     1  UNK11       0.2122
     28 C          -4.5490   91.7280    7.6040 C.3     1  UNK11       0.1696
     29 C          -5.8440   91.7290    8.4210 C.3     1  UNK11       0.1415
     30 O           1.0270   92.3160   15.0250 O.3     1  UNK11      -0.3278
     31 O          -2.1420   90.7710   17.2110 O.3     1  UNK11      -0.2186
     32 O           0.1570   89.5370   18.3840 O.3     1  UNK11      -0.2177
     33 O           1.2260   89.9330   14.9120 O.3     1  UNK11      -0.3276
     34 O           1.3480   92.2020   12.0990 O.3     1  UNK11      -0.3258
     35 O           2.1090   94.8580   10.9950 O.3     1  UNK11      -0.2189
     36 O           1.2120   90.8910    9.3580 O.3     1  UNK11      -0.2150
     37 O          -0.9950   92.5230   11.6530 O.3     1  UNK11      -0.3257
     38 O          -3.3360   89.7010   11.0640 O.3     1  UNK11      -0.2176
     39 O          -1.0970   92.1010    8.7030 O.3     1  UNK11      -0.3265
     40 O          -3.1930   91.4740    4.9860 O.3     1  UNK11      -0.2186
     41 O          -4.7260   94.0850    7.0420 O.3     1  UNK11      -0.2177
     42 O          -3.4260   91.9780    8.4700 O.3     1  UNK11      -0.3276
@<TRIPOS>BOND
     1    40    26    1
     2    26    27    1
     3    26    25    1
     4    27    41    1
     5    27    28    1
     6    25     6    1
     7    25    24    1
     8    28    29    1
     9    28    42    1
    10    24    42    1
    11    24    39    1
    12    29     5    1
    13    39    21    1
    14    36    20    1
    15    21    20    1
    16    21    22    1
    17    20    19    1
    18    22    37    1
    19    22    23    1
    20    35    18    1
    21    38    23    1
    22    19    37    1
    23    19    34    1
    24    34    17    1
    25    18    17    1
    26    18    13    1
    27     3    13    1
    28    17    16    1
    29    13    14    1
    30    16    30    1
    31    16    15    1
    32    14    15    1
    33     7    33    1
    34     7    30    1
    35     7     8    1
    36     1     8    1
    37    33    11    1
    38    15     4    1
    39     8     9    1
    40    11    12    1
    41    11    10    1
    42     2    12    1
    43     9    10    1
    44     9    31    1
    45    10    32    1
@<TRIPOS>MOLECULE
lig_2fcz.pdb
 31 33 0 0 0
SMALL
GASTEIGER

@<TRIPOS>ATOM
      1 N          13.7320   22.8040   36.1890 N.3     1  UNK11      -0.1301
      2 N          10.7480   23.1360   32.3250 N.3     1  UNK11      -0.1302
      3 N           6.2710   23.3840   32.5080 N.3     1  UNK11      -0.1286
      4 N           9.6330   17.8300   32.4400 N.3     1  UNK11      -0.1248
      5 C           8.6670   16.0170   35.2570 C.3     1  UNK11       0.2142
      6 C           9.8040   16.4420   36.1940 C.3     1  UNK11       0.1836
      7 C          10.1310   18.7460   36.5650 C.3     1  UNK11       0.2695
      8 C          10.9000   20.4870   35.0780 C.3     1  UNK11       0.1779
      9 C          11.7740   21.3160   36.0280 C.3     1  UNK11       0.1989
     10 C          12.8780   22.0490   35.2630 C.3     1  UNK11       0.1261
     11 C          12.2620   23.0050   34.2390 C.3     1  UNK11       0.0433
     12 C          11.4190   22.2040   33.2460 C.3     1  UNK11       0.1230
     13 C          10.3540   21.3480   33.9420 C.3     1  UNK11       0.1649
     14 C           8.5640   19.8700   33.3080 C.3     1  UNK11       0.2561
     15 C           7.1460   21.1770   31.8470 C.3     1  UNK11       0.1696
     16 C           5.9260   22.1030   31.8750 C.3     1  UNK11       0.1415
     17 C           6.8750   19.9680   30.9460 C.3     1  UNK11       0.2122
     18 C           8.0920   19.0410   30.9760 C.3     1  UNK11       0.2070
     19 C           8.4030   18.6340   32.4180 C.3     1  UNK11       0.1807
     20 C           8.9060   18.2690   37.3480 C.3     1  UNK11       0.2404
     21 C           9.2600   16.8010   37.5770 C.3     1  UNK11       0.2168
     22 O           7.7910   17.1250   35.0310 O.3     1  UNK11      -0.2176
     23 O          10.4700   17.6290   35.7190 O.3     1  UNK11      -0.3256
     24 O           9.8000   19.9280   35.8170 O.3     1  UNK11      -0.3258
     25 O          12.3760   20.4520   36.9950 O.3     1  UNK11      -0.2189
     26 O           9.7530   20.5620   32.9010 O.3     1  UNK11      -0.3278
     27 O           7.4150   20.7290   33.1870 O.3     1  UNK11      -0.3276
     28 O           6.6360   20.3970   29.6020 O.3     1  UNK11      -0.2177
     29 O           7.8560   17.8640   30.1960 O.3     1  UNK11      -0.2186
     30 O           8.7090   18.9770   38.5750 O.3     1  UNK11      -0.2149
     31 O          10.2690   16.6710   38.5830 O.3     1  UNK11      -0.2175
@<TRIPOS>BOND
     1    28    17    1
     2    29    18    1
     3    17    18    1
     4    17    15    1
     5    18    19    1
     6    15    16    1
     7    15    27    1
     8    16     3    1
     9     2    12    1
    10    19     4    1
    11    19    14    1
    12    26    14    1
    13    26    13    1
    14    27    14    1
    15    12    13    1
    16    12    11    1
    17    13     8    1
    18    11    10    1
    19    22     5    1
    20     8    24    1
    21     8     9    1
    22     5     6    1
    23    10     9    1
    24    10     1    1
    25    23     6    1
    26    23     7    1
    27    24     7    1
    28     9    25    1
    29     6    21    1
    30     7    20    1
    31    20    21    1
    32    20    30    1
    33    21    31    1
@<TRIPOS>MOLECULE
lig_2fd0.pdb
 52 56 0 0 0
SMALL
GASTEIGER

@<TRIPOS>ATOM
      1 N           9.2530  -44.5350   11.8190 N.3     1  UNK11      -0.1301
      2 N           3.1830  -48.4910   15.5820 N.3     1  UNK11      -0.1275
      3 N           0.0030  -47.8310    7.3760 N.3     1  UNK11      -0.1248
      4 N           8.4790  -47.4390   15.8780 N.3     1  UNK11      -0.1302
      5 N          -0.1440  -52.8540    9.7280 N.3     1  UNK11      -0.1286
      6 C           5.3190  -49.4190   14.6480 C.3     1  UNK11       0.2535
      7 C           8.2440  -45.1600   12.6890 C.3     1  UNK11       0.1261
      8 C           4.3110  -47.4290   11.3330 C.3     1  UNK11       0.2694
      9 C           1.7060  -49.2800    8.5780 C.3     1  UNK11       0.2561
     10 C          -2.2850  -50.6500    5.3290 C.3     1  UNK11       0.2695
     11 C           4.1490  -49.5760   15.6860 C.3     1  UNK11       0.1506
     12 C           8.9510  -45.9920   13.8470 C.3     1  UNK11       0.0433
     13 C           3.8330  -48.6860   10.6270 C.3     1  UNK11       0.2373
     14 C           1.2850  -48.5690    7.2080 C.3     1  UNK11       0.1806
     15 C          -3.2660  -49.6580    5.9920 C.3     1  UNK11       0.2406
     16 C           4.7230  -49.6950   17.1460 C.3     1  UNK11       0.0597
     17 C           7.8500  -46.6620   14.8000 C.3     1  UNK11       0.1230
     18 C           2.3240  -48.6100   10.7830 C.3     1  UNK11       0.1827
     19 C           1.2900  -49.7020    6.0560 C.3     1  UNK11       0.2038
     20 C          -4.7760  -49.8220    5.6710 C.3     1  UNK11       0.2198
     21 C           5.7410  -50.8810   17.1840 C.3     1  UNK11       0.1832
     22 C           6.9290  -47.5790   13.9470 C.3     1  UNK11       0.1649
     23 C           1.9820  -47.4380   11.7340 C.3     1  UNK11       0.1804
     24 C           0.2500  -50.8960    6.3800 C.3     1  UNK11       0.1782
     25 C          -5.2490  -51.2570    5.3430 C.3     1  UNK11       0.2144
     26 C           6.8930  -50.6070   16.1760 C.3     1  UNK11       0.1808
     27 C           6.2560  -46.8230   12.7610 C.3     1  UNK11       0.1779
     28 C           1.1270  -47.8120   12.9400 C.3     1  UNK11       0.2141
     29 C           0.5710  -51.3450    7.7930 C.3     1  UNK11       0.1664
     30 C          -4.2070  -52.2880    5.7680 C.3     1  UNK11       0.1835
     31 C           7.8860  -51.7250   16.1380 C.3     1  UNK11       0.2141
     32 C           7.3530  -46.1610   11.8490 C.3     1  UNK11       0.1989
     33 C          -0.3780  -52.4840    8.3110 C.3     1  UNK11       0.1414
     34 C          -4.4150  -53.7850    5.5500 C.3     1  UNK11       0.2142
     35 O           5.9450  -48.1460   14.8560 O.3     1  UNK11      -0.3278
     36 O           4.3310  -48.7760    9.2630 O.3     1  UNK11      -0.2150
     37 O          -2.8770  -48.3060    5.6440 O.3     1  UNK11      -0.2149
     38 O           1.6980  -48.2950    9.5690 O.3     1  UNK11      -0.3265
     39 O           2.6000  -50.2980    6.0250 O.3     1  UNK11      -0.2187
     40 O          -5.0880  -48.9690    4.5620 O.3     1  UNK11      -0.2174
     41 O           6.2720  -51.0340   18.4970 O.3     1  UNK11      -0.2204
     42 O           3.2620  -47.0380   12.2020 O.3     1  UNK11      -0.3257
     43 O          -1.0420  -50.2590    6.3840 O.3     1  UNK11      -0.3258
     44 O          -6.5210  -51.4120    6.0110 O.3     1  UNK11      -0.2176
     45 O           6.3030  -50.4710   14.8260 O.3     1  UNK11      -0.3266
     46 O           5.4660  -47.7860   12.0230 O.3     1  UNK11      -0.3258
     47 O          -0.0380  -48.4840   12.4380 O.3     1  UNK11      -0.2176
     48 O           0.7700  -50.4560    8.9120 O.3     1  UNK11      -0.3277
     49 O          -2.8600  -52.0270    5.2860 O.3     1  UNK11      -0.3256
     50 O           7.2850  -52.8170   15.4970 O.3     1  UNK11      -0.2176
     51 O           6.6810  -45.4160   10.7750 O.3     1  UNK11      -0.2189
     52 O          -4.4660  -54.0890    4.1220 O.3     1  UNK11      -0.2176
@<TRIPOS>BOND
     1    52    34    1
     2    40    20    1
     3    49    10    1
     4    49    30    1
     5    10    15    1
     6    10    43    1
     7    25    20    1
     8    25    30    1
     9    25    44    1
    10    34    30    1
    11    37    15    1
    12    20    15    1
    13    39    19    1
    14    19    24    1
    15    19    14    1
    16    24    43    1
    17    24    29    1
    18    14     3    1
    19    14     9    1
    20    29    33    1
    21    29    48    1
    22    33     5    1
    23     9    48    1
    24     9    38    1
    25    36    13    1
    26    38    18    1
    27    13    18    1
    28    13     8    1
    29    51    32    1
    30    18    23    1
    31     8    46    1
    32     8    42    1
    33    23    42    1
    34    23    28    1
    35     1     7    1
    36    32     7    1
    37    32    27    1
    38    46    27    1
    39    47    28    1
    40     7    12    1
    41    27    22    1
    42    12    17    1
    43    22    17    1
    44    22    35    1
    45     6    45    1
    46     6    35    1
    47     6    11    1
    48    17     4    1
    49    45    26    1
    50    50    31    1
    51     2    11    1
    52    11    16    1
    53    31    26    1
    54    26    21    1
    55    16    21    1
    56    21    41    1
@<TRIPOS>MOLECULE
lig_2g5q.pdb
 40 42 0 0 0
SMALL
GASTEIGER

@<TRIPOS>ATOM
      1 N           2.4110   -3.4330   20.3990 N.3     1  UNK11      -0.1286
      2 N          -2.3360   -9.6420   16.8130 N.am    1  UNK11      -0.2024
      3 N           0.0440   -6.9250   20.2820 N.3     1  UNK11      -0.1302
      4 N           0.2740  -14.5860   14.0470 N.3     1  UNK11      -0.1272
      5 N          -7.5910  -10.4100   15.2450 N.3     1  UNK11      -0.1313
      6 C           3.7950   -7.4320   18.8500 C.3     1  UNK11       0.2695
      7 C           4.9840   -8.0650   19.6300 C.3     1  UNK11       0.2406
      8 C           4.9700   -7.6650   21.1380 C.3     1  UNK11       0.2198
      9 C           5.0560   -6.1190   21.2190 C.3     1  UNK11       0.2133
     10 C           3.8100   -5.5120   20.4560 C.3     1  UNK11       0.1696
     11 C           3.8010   -3.9870   20.4610 C.3     1  UNK11       0.1415
     12 C          -1.1250   -9.5380   17.6180 C.3     1  UNK11       0.1266
     13 C          -1.1870   -8.2470   18.5380 C.3     1  UNK11       0.0458
     14 C           0.1200   -8.1340   19.4170 C.3     1  UNK11       0.1234
     15 C           1.3880   -8.0890   18.4750 C.3     1  UNK11       0.1680
     16 C           1.4130   -9.3860   17.5740 C.3     1  UNK11       0.2090
     17 C           0.1080   -9.4710   16.6940 C.3     1  UNK11       0.1703
     18 C          -0.4400  -10.7640   14.5900 C.3     1  UNK11       0.2684
     19 C          -0.7540  -12.2750   14.3210 C.3     1  UNK11       0.2279
     20 C           0.5640  -13.1370   14.3090 C.3     1  UNK11       0.1599
     21 C           1.5300  -12.5510   13.2040 C.3     1  UNK11       0.2017
     22 C           1.8060  -11.0450   13.5300 C.3     1  UNK11       0.1824
     23 C           2.6950  -10.4070   12.5020 C.3     1  UNK11       0.2142
     24 C          -3.6170   -9.8250   17.3130 C.2     1  UNK11       0.2719
     25 C          -4.6820   -9.9010   16.1950 C.3     1  UNK11       0.2305
     26 C          -5.5040  -11.1980   16.3360 C.3     1  UNK11       0.0630
     27 C          -6.5570  -11.4430   15.2480 C.3     1  UNK11       0.1124
     28 O           2.5910   -7.9960   19.3200 O.3     1  UNK11      -0.3269
     29 O           5.0690   -5.7110   22.5960 O.3     1  UNK11      -0.2176
     30 O           3.8170   -5.9570   19.0330 O.3     1  UNK11      -0.3268
     31 O           2.5580   -9.3400   16.7170 O.3     1  UNK11      -0.2178
     32 O           0.1280  -10.6740   15.8740 O.3     1  UNK11      -0.3266
     33 O          -1.6450  -12.7420   15.2820 O.3     1  UNK11      -0.2161
     34 O           2.7460  -13.3000   13.1400 O.3     1  UNK11      -0.2188
     35 O           0.5230  -10.2630   13.5930 O.3     1  UNK11      -0.3257
     36 O           2.9740   -9.0360   12.8320 O.3     1  UNK11      -0.2176
     37 O           4.9170   -9.5240   19.4700 O.3     1  UNK11      -0.2149
     38 O           6.0480   -8.2410   21.7740 O.3     1  UNK11      -0.2174
     39 O          -3.8770   -9.9280   18.5070 O.2     1  UNK11      -0.2706
     40 O          -5.5360   -8.7380   16.2740 O.3     1  UNK11      -0.2131
@<TRIPOS>BOND
     1    23    36    1
     2    23    22    1
     3    34    21    1
     4    21    22    1
     5    21    20    1
     6    22    35    1
     7    35    18    1
     8     4    20    1
     9    20    19    1
    10    19    18    1
    11    19    33    1
    12    18    32    1
    13     5    27    1
    14    27    26    1
    15    32    17    1
    16    25    40    1
    17    25    26    1
    18    25    24    1
    19    17    16    1
    20    17    12    1
    21    31    16    1
    22     2    24   am
    23     2    12    1
    24    24    39    2
    25    16    15    1
    26    12    13    1
    27    15    28    1
    28    15    14    1
    29    13    14    1
    30     6    30    1
    31     6    28    1
    32     6     7    1
    33    30    10    1
    34    14     3    1
    35    37     7    1
    36     7     8    1
    37     1    11    1
    38    10    11    1
    39    10     9    1
    40     8     9    1
    41     8    38    1
    42     9    29    1
@<TRIPOS>MOLECULE
lig_2juk.pdb
 60 63 0 0 0
SMALL
GASTEIGER

@<TRIPOS>ATOM
      1 N           1.4990    6.2800    1.5960 N.pl3   1  UNK11      -0.0820
      2 N           1.2380    8.5340    1.9810 N.pl3   1  UNK11       0.1354
      3 N           2.4450    7.8550    0.1740 N.pl3   1  UNK11       0.1354
      4 N           3.8970    0.2790    2.4070 N.pl3   1  UNK11      -0.0837
      5 N           5.8480   -0.9670    2.5760 N.pl3   1  UNK11       0.1354
      6 N           4.1080   -1.3750    3.9840 N.pl3   1  UNK11       0.1354
      7 N          -3.4090    1.5410   -0.1560 N.pl3   1  UNK11      -0.0873
      8 N          -3.0740    0.3880   -2.1130 N.pl3   1  UNK11       0.1354
      9 N          -1.8670   -0.1910   -0.2570 N.pl3   1  UNK11       0.1354
     10 N          -1.3910    5.8240    0.9610 N.pl3   1  UNK11      -0.0874
     11 N          -3.4420    6.8170    0.7030 N.pl3   1  UNK11       0.1354
     12 N          -1.6440    8.1140    1.2460 N.pl3   1  UNK11       0.1354
     13 N           4.3590   -1.0800    7.8930 N.pl3   1  UNK11      -0.0820
     14 N           4.8020   -2.9550    9.1920 N.pl3   1  UNK11       0.1354
     15 N           2.8790   -1.7680    9.4980 N.pl3   1  UNK11       0.1354
     16 N           5.9270    4.9510    5.7910 N.pl3   1  UNK11      -0.0837
     17 N           6.3530    7.0090    4.8780 N.pl3   1  UNK11       0.1354
     18 N           4.1820    6.3670    5.2360 N.pl3   1  UNK11       0.1354
     19 C           1.6980    3.8200    1.7390 C.3     1  UNK11       0.2795
     20 C           2.3210    5.1100    1.2060 C.3     1  UNK11       0.2695
     21 C           3.7420    5.2340    1.7460 C.3     1  UNK11       0.2292
     22 C           4.5390    3.9630    1.4960 C.3     1  UNK11       0.2164
     23 C           3.7790    2.7360    1.9910 C.3     1  UNK11       0.1939
     24 C           4.4430    1.4120    1.6380 C.3     1  UNK11       0.2524
     25 C           1.7300    7.5480    1.2450 C.cat   1  UNK11       0.5347
     26 C           4.6200   -0.6810    2.9810 C.cat   1  UNK11       0.5347
     27 C          -2.8290    2.3180    0.9500 C.3     1  UNK11       0.2173
     28 C          -2.4040    3.6740    0.4140 C.3     1  UNK11       0.0918
     29 C          -1.8010    4.5300    1.5170 C.3     1  UNK11       0.2141
     30 C          -0.6150    3.8460    2.1780 C.3     1  UNK11       0.1871
     31 C          -1.0720    2.4890    2.7100 C.3     1  UNK11       0.1820
     32 C          -1.6370    1.6130    1.5980 C.3     1  UNK11       0.2210
     33 C          -2.7820    0.5810   -0.8330 C.cat   1  UNK11       0.5345
     34 C          -2.1500    6.9190    0.9720 C.cat   1  UNK11       0.5345
     35 C          -0.1570    1.7240    4.7250 C.3     1  UNK11       0.2694
     36 C           0.8450    0.7120    5.2620 C.3     1  UNK11       0.2373
     37 C           1.8960    1.5720    5.9140 C.3     1  UNK11       0.1828
     38 C           1.0500    2.7130    6.4340 C.3     1  UNK11       0.1804
     39 C           1.8240    3.9860    6.7530 C.3     1  UNK11       0.2141
     40 C           3.9030    1.1640    6.9580 C.3     1  UNK11       0.2795
     41 C           4.5680    0.3710    8.0770 C.3     1  UNK11       0.2695
     42 C           6.0550    0.6870    8.1080 C.3     1  UNK11       0.2292
     43 C           6.2660    2.1900    8.1880 C.3     1  UNK11       0.2164
     44 C           5.4920    2.8950    7.0750 C.3     1  UNK11       0.1939
     45 C           5.5890    4.4150    7.1200 C.3     1  UNK11       0.2524
     46 C           4.0220   -1.9360    8.8570 C.cat   1  UNK11       0.5347
     47 C           5.4830    6.1040    5.3030 C.cat   1  UNK11       0.5347
     48 O           2.5100    2.7250    1.3560 O.3     1  UNK11      -0.3239
     49 O           4.3980    6.3000    1.0450 O.3     1  UNK11      -0.2164
     50 O           5.7560    4.0660    2.2490 O.3     1  UNK11      -0.2175
     51 O           0.3970    3.6960    1.1930 O.3     1  UNK11      -0.3241
     52 O          -2.0930    0.4000    2.2140 O.3     1  UNK11      -0.2167
     53 O           0.0120    1.8190    3.3210 O.3     1  UNK11      -0.3257
     54 O           0.1180    2.9590    5.3850 O.3     1  UNK11      -0.3257
     55 O           1.4250   -0.0360    4.1830 O.3     1  UNK11      -0.2150
     56 O           2.1940    3.9490    8.1340 O.3     1  UNK11      -0.2176
     57 O           2.5230    0.8660    6.9660 O.3     1  UNK11      -0.3249
     58 O           4.1230    2.5430    7.1950 O.3     1  UNK11      -0.3239
     59 O           6.6090    0.0900    9.2910 O.3     1  UNK11      -0.2164
     60 O           7.6600    2.4580    7.9800 O.3     1  UNK11      -0.2175
@<TRIPOS>BOND
     1     8    33    2
     2    33     9    1
     3    33     7    1
     4     7    27    1
     5     3    25    2
     6    28    27    1
     7    28    29    1
     8    11    34    2
     9    27    32    1
    10    10    34    1
    11    10    29    1
    12    34    12    1
    13    49    21    1
    14    51    19    1
    15    51    30    1
    16    20     1    1
    17    20    19    1
    18    20    21    1
    19    25     1    1
    20    25     2    1
    21    48    19    1
    22    48    23    1
    23    22    21    1
    24    22    23    1
    25    22    50    1
    26    29    30    1
    27    32    52    1
    28    32    31    1
    29    24    23    1
    30    24     4    1
    31    30    31    1
    32     4    26    1
    33     5    26    2
    34    31    53    1
    35    26     6    1
    36    53    35    1
    37    55    36    1
    38    35    36    1
    39    35    54    1
    40    17    47    2
    41    18    47    1
    42    36    37    1
    43    47    16    1
    44    54    38    1
    45    16    45    1
    46    37    38    1
    47    37    57    1
    48    38    39    1
    49    39    56    1
    50    40    57    1
    51    40    58    1
    52    40    41    1
    53    44    45    1
    54    44    58    1
    55    44    43    1
    56    13    41    1
    57    13    46    1
    58    60    43    1
    59    41    42    1
    60    42    43    1
    61    42    59    1
    62    46    14    2
    63    46    15    1
@<TRIPOS>MOLECULE
lig_2l1v.pdb
 13 14 0 0 0
SMALL
GASTEIGER

@<TRIPOS>ATOM
      1 N           2.3230    3.5870   -4.4030 N.ar    1  UNK11      -0.1723
      2 N           3.8260    1.8230   -4.0590 N.ar    1  UNK11      -0.1918
      3 N          -1.3730    1.0870   -2.2840 N.3     1  UNK11      -0.1262
      4 N           2.9970    0.0610   -2.4820 N.ar    1  UNK11      -0.2251
      5 N           4.4200    3.5520   -5.5140 N.pl3   1  UNK11      -0.0859
      6 C           3.5270    2.9750   -4.6490 C.ar    1  UNK11       0.2606
      7 C           2.9530    1.2130   -3.1980 C.ar    1  UNK11       0.1697
      8 C           1.7020    1.8150   -2.9090 C.ar    1  UNK11       0.0927
      9 C           1.3970    3.0480   -3.5530 C.ar    1  UNK11       0.2843
     10 C           1.0300    0.9440   -1.9450 C.ar    1  UNK11       0.0236
     11 C          -0.3010    1.1830   -1.2840 C.3     1  UNK11       0.1374
     12 C           1.8500   -0.0960   -1.7500 C.ar    1  UNK11       0.0980
     13 O           0.3380    3.6160   -3.3570 O.2     1  UNK11      -0.2650
@<TRIPOS>BOND
     1     5     6    1
     2     6     1   ar
     3     6     2   ar
     4     1     9   ar
     5     2     7   ar
     6     9    13    2
     7     9     8   ar
     8     7     8   ar
     9     7     4   ar
    10     8    10   ar
    11     4    12   ar
    12     3    11    1
    13    10    12   ar
    14    10    11    1
@<TRIPOS>MOLECULE
lig_2l94.pdb
 24 24 0 0 0
SMALL
GASTEIGER

@<TRIPOS>ATOM
      1 N           7.2040   -2.5230   -3.4980 N.2     1  UNK11       0.1971
      2 N           2.5900    2.7800   -2.7940 N.2     1  UNK11       0.1971
      3 N           7.5940   -2.4990   -1.2510 N.pl3   1  UNK11      -0.0276
      4 N           2.9410    2.8020   -0.5530 N.pl3   1  UNK11      -0.0276
      5 N          12.2400   -1.2290   -0.4220 N.3     1  UNK11      -0.2702
      6 N          -0.2630    3.1360    2.0700 N.3     1  UNK11      -0.2702
      7 C           6.0690   -0.9070   -2.1610 C.ar    1  UNK11       0.0905
      8 C           5.7490   -0.3460   -0.8790 C.ar    1  UNK11       0.0079
      9 C           4.8520    0.6860   -0.7440 C.ar    1  UNK11       0.0079
     10 C           4.1790    1.2510   -1.8750 C.ar    1  UNK11       0.0905
     11 C           4.5240    0.7130   -3.1580 C.ar    1  UNK11       0.0079
     12 C           5.4260   -0.3120   -3.2940 C.ar    1  UNK11       0.0079
     13 C           6.9350   -1.9540   -2.3030 C.2     1  UNK11       0.4130
     14 C           3.2600    2.2510   -1.7490 C.2     1  UNK11       0.4130
     15 C           8.9530   -3.0360   -1.2560 C.3     1  UNK11       0.2528
     16 C           1.7120    3.5240   -0.2380 C.3     1  UNK11       0.2528
     17 C           9.8840   -1.9760   -0.6450 C.3     1  UNK11       0.0727
     18 C           0.5560    2.5070   -0.2280 C.3     1  UNK11       0.0727
     19 C          11.3550   -2.3970   -0.7730 C.3     1  UNK11       0.0766
     20 C           0.2150    2.0100    1.1890 C.3     1  UNK11       0.0766
     21 C          13.6520   -1.5050   -0.8610 C.3     1  UNK11       0.0897
     22 C           0.5340    3.1260    3.3470 C.3     1  UNK11       0.0897
     23 C          12.2150   -0.9610    1.0620 C.3     1  UNK11       0.0897
     24 C          -1.7240    3.0140    2.4060 C.3     1  UNK11       0.0897
@<TRIPOS>BOND
     1     1    13    2
     2    12    11   ar
     3    12     7   ar
     4    11    10   ar
     5     2    14    2
     6    13     7    1
     7    13     3    1
     8     7     8   ar
     9    10    14    1
    10    10     9   ar
    11    14     4    1
    12    15     3    1
    13    15    17    1
    14     8     9   ar
    15    21     5    1
    16    19    17    1
    17    19     5    1
    18     4    16    1
    19     5    23    1
    20    16    18    1
    21    18    20    1
    22    20     6    1
    23     6    24    1
    24     6    22    1
@<TRIPOS>MOLECULE
lig_2lwk.pdb
 21 23 0 0 0
SMALL
GASTEIGER

@<TRIPOS>ATOM
      1 N          -7.5790   -0.2920    4.5290 N.ar    1  UNK11      -0.2134
      2 N          -6.7870   -2.8300    1.5320 N.pl3   1  UNK11      -0.1071
      3 N          -6.1110   -1.1530    2.9640 N.ar    1  UNK11      -0.1954
      4 N          -5.4600    0.5560    4.3570 N.pl3   1  UNK11      -0.2752
      5 N          -5.6370    3.1590    3.4440 N.3     1  UNK11      -0.2144
      6 C          -6.3820   -0.3010    3.9540 C.ar    1  UNK11       0.2215
      7 C          -8.5030   -1.1540    4.1450 C.ar    1  UNK11       0.0902
      8 C          -8.2520   -1.9970    3.1220 C.ar    1  UNK11       0.0558
      9 C          -7.0420   -2.0050    2.5470 C.ar    1  UNK11       0.1740
     10 C          -9.7030   -1.1540    4.7480 C.ar    1  UNK11       0.0593
     11 C         -10.7090   -1.9230    4.2280 C.ar    1  UNK11       0.1739
     12 C         -10.3880   -2.8840    3.3470 C.ar    1  UNK11       0.1726
     13 C          -9.1970   -2.8570    2.7180 C.ar    1  UNK11       0.0444
     14 C          -5.8730    1.5400    5.1610 C.3     1  UNK11       0.1124
     15 C          -6.5420    2.6360    4.3440 C.3     1  UNK11       0.1102
     16 C          -5.2590    2.1350    2.6040 C.3     1  UNK11       0.1102
     17 C          -4.5870    1.0410    3.4170 C.3     1  UNK11       0.1124
     18 C         -12.6060   -1.6180    5.4610 C.3     1  UNK11       0.2526
     19 C         -10.9480   -4.9970    4.0480 C.3     1  UNK11       0.2526
     20 O         -12.0140   -1.3750    4.2110 O.3     1  UNK11      -0.4683
     21 O         -11.2740   -3.9760    3.1420 O.3     1  UNK11      -0.4684
@<TRIPOS>BOND
     1     2     9    1
     2     9     3   ar
     3     9     8   ar
     4    16    17    1
     5    16     5    1
     6    13     8   ar
     7    13    12   ar
     8     3     6   ar
     9     8     7   ar
    10    21    12    1
    11    21    19    1
    12    12    11   ar
    13    17     4    1
    14     5    15    1
    15     6     4    1
    16     6     1   ar
    17     7     1   ar
    18     7    10   ar
    19    20    11    1
    20    20    18    1
    21    11    10   ar
    22    15    14    1
    23     4    14    1
@<TRIPOS>MOLECULE
lig_2m4q.pdb
 37 40 0 0 0
SMALL
GASTEIGER

@<TRIPOS>ATOM
      1 N          -3.4100    7.9150   11.1200 N.3     1  UNK11      -0.1275
      2 N           3.3870    4.7090    8.3890 N.3     1  UNK11      -0.2103
      3 N           8.0590    4.5400   11.4310 N.3     1  UNK11      -0.1275
      4 N          -5.2280   12.8190    6.1760 N.3     1  UNK11      -0.1301
      5 N          -2.2270    8.8540    6.0170 N.3     1  UNK11      -0.1302
      6 C          -2.2600    7.4510    8.9620 C.3     1  UNK11       0.2535
      7 C          -2.5320    6.9530   10.4190 C.3     1  UNK11       0.1505
      8 C          -1.2330    6.7330   11.2470 C.3     1  UNK11       0.0564
      9 C          -0.2010    5.8940   10.4520 C.3     1  UNK11       0.1491
     10 C           0.0870    6.5670    9.0910 C.3     1  UNK11       0.1766
     11 C           1.1550    5.7720    8.2920 C.3     1  UNK11       0.2022
     12 C           2.4380    5.5520    9.1470 C.3     1  UNK11       0.1619
     13 C           2.1120    4.9500   10.5460 C.3     1  UNK11       0.2562
     14 C           4.4270    5.5140    7.7120 C.3     1  UNK11       0.1077
     15 C           3.8260    3.6190   11.8040 C.3     1  UNK11       0.2712
     16 C           4.6520    3.7520   13.1140 C.3     1  UNK11       0.2395
     17 C           6.0050    4.4800   12.8710 C.3     1  UNK11       0.2071
     18 C           6.8030    3.8110   11.7140 C.3     1  UNK11       0.1545
     19 C           5.9300    3.6670   10.4370 C.3     1  UNK11       0.1707
     20 C           6.6650    2.8790    9.3200 C.3     1  UNK11       0.2131
     21 C          -2.9940    9.7290    8.2490 C.3     1  UNK11       0.1681
     22 C          -3.2960   11.0340    9.0380 C.3     1  UNK11       0.2119
     23 C          -4.4090   11.8660    8.3420 C.3     1  UNK11       0.2020
     24 C          -4.0850   12.1560    6.8400 C.3     1  UNK11       0.1262
     25 C          -3.6490   10.8830    6.0560 C.3     1  UNK11       0.0433
     26 C          -2.5470   10.0680    6.7990 C.3     1  UNK11       0.1231
     27 O          -1.1480    6.7320    8.3370 O.3     1  UNK11      -0.3267
     28 O           1.0290    5.6780   11.2020 O.3     1  UNK11      -0.3292
     29 O           0.6320    4.5360    7.8200 O.3     1  UNK11      -0.2188
     30 O           3.3090    4.9170   11.3770 O.3     1  UNK11      -0.3025
     31 O          -2.0170    8.8910    8.9330 O.3     1  UNK11      -0.3277
     32 O           4.6570    3.0300   10.7600 O.3     1  UNK11      -0.3267
     33 O           3.8820    4.3930   14.1300 O.3     1  UNK11      -0.2149
     34 O           6.7820    4.5380   14.0650 O.3     1  UNK11      -0.2186
     35 O           5.8330    2.7270    8.1750 O.3     1  UNK11      -0.2176
     36 O          -3.6510   10.7400   10.3850 O.3     1  UNK11      -0.2177
     37 O          -4.6360   13.0830    9.0480 O.3     1  UNK11      -0.2188
@<TRIPOS>BOND
     1     5    26    1
     2    25    26    1
     3    25    24    1
     4     4    24    1
     5    26    21    1
     6    24    23    1
     7    14     2    1
     8    29    11    1
     9    35    20    1
    10    21    31    1
    11    21    22    1
    12    11    10    1
    13    11    12    1
    14    27     6    1
    15    27    10    1
    16    23    22    1
    17    23    37    1
    18     2    12    1
    19    31     6    1
    20     6     7    1
    21    22    36    1
    22    10     9    1
    23    12    13    1
    24    20    19    1
    25     7     1    1
    26     7     8    1
    27    19    32    1
    28    19    18    1
    29     9    28    1
    30     9     8    1
    31    13    28    1
    32    13    30    1
    33    32    15    1
    34    30    15    1
    35     3    18    1
    36    18    17    1
    37    15    16    1
    38    17    16    1
    39    17    34    1
    40    16    33    1
@<TRIPOS>MOLECULE
lig_2miy.pdb
 17 16 0 0 0
SMALL
GASTEIGER

@<TRIPOS>ATOM
      1 H         -14.1720    9.9930   -4.7930 H       1  UNK11       0.2528
      2 H         -10.1410   -0.4710  -16.4230 H       1  UNK11       0.2528
      3 N         -11.0500    4.0450   -7.0490 N.ar    1  UNK11      -0.1723
      4 N         -10.0030    3.3240   -9.0020 N.ar    1  UNK11      -0.1918
      5 N          -6.4870    6.2130   -5.7090 N.3     1  UNK11      -0.1262
      6 N          -7.4990    3.4070   -8.9500 N.ar    1  UNK11      -0.2251
      7 N         -12.3320    3.3060   -8.8970 N.pl3   1  UNK11      -0.0859
      8 C         -11.1120    3.5560   -8.3230 C.ar    1  UNK11       0.2606
      9 C          -8.7640    3.5600   -8.4730 C.ar    1  UNK11       0.1697
     10 C          -8.6410    4.0730   -7.1590 C.ar    1  UNK11       0.0927
     11 C          -9.8450    4.3190   -6.4330 C.ar    1  UNK11       0.2843
     12 C          -7.2040    4.2200   -6.9010 C.ar    1  UNK11       0.0236
     13 C          -6.5420    4.7460   -5.6550 C.3     1  UNK11       0.1374
     14 C          -6.5830    3.7950   -8.0090 C.ar    1  UNK11       0.0980
     15 O          -9.8100    4.7620   -5.2980 O.2     1  UNK11      -0.2650
     16 O         -13.5730    9.5280   -4.2030 O.3     1  UNK11      -0.2528
     17 O         -10.8800   -0.3220  -15.8270 O.3     1  UNK11      -0.2528
@<TRIPOS>BOND
     1     2    17    1
     2     4     9   ar
     3     4     8   ar
     4     6     9   ar
     5     6    14   ar
     6     7     8    1
     7     9    10   ar
     8     8     3   ar
     9    14    12   ar
    10    10    12   ar
    11    10    11   ar
    12     3    11   ar
    13    12    13    1
    14    11    15    2
    15     5    13    1
    16     1    16    1
@<TRIPOS>MOLECULE
lig_2mxs.pdb
 42 45 0 0 0
SMALL
GASTEIGER

@<TRIPOS>ATOM
      1 N          -1.3160    5.5180    0.6550 N.3     1  UNK11      -0.1248
      2 N          -1.3420   -2.4550    0.1880 N.3     1  UNK11      -0.1301
      3 N          -0.0800    1.3570   -2.6600 N.3     1  UNK11      -0.1302
      4 N          -1.3670    0.5770    7.9720 N.3     1  UNK11      -0.1248
      5 N           1.8700    5.4190    6.7570 N.3     1  UNK11      -0.1286
      6 C           0.5040    3.8540    0.3760 C.3     1  UNK11       0.2561
      7 C           0.1100    5.3380    0.3270 C.3     1  UNK11       0.1807
      8 C           0.4420    5.9500   -1.0400 C.3     1  UNK11       0.2070
      9 C           1.9130    5.6900   -1.3970 C.3     1  UNK11       0.2133
     10 C           2.2730    4.1970   -1.2580 C.3     1  UNK11       0.1834
     11 C           3.7990    4.0550   -1.4180 C.3     1  UNK11       0.2142
     12 C          -1.5920   -1.0300   -0.1080 C.3     1  UNK11       0.1261
     13 C          -0.7070   -0.5640   -1.2670 C.3     1  UNK11       0.0433
     14 C          -0.8550    0.9370   -1.4860 C.3     1  UNK11       0.1230
     15 C          -0.4010    1.6660   -0.2000 C.3     1  UNK11       0.1649
     16 C          -1.3620    1.3350    0.8960 C.3     1  UNK11       0.1779
     17 C          -1.3600   -0.1610    1.1430 C.3     1  UNK11       0.1989
     18 C          -1.9150    2.2500    3.0800 C.3     1  UNK11       0.2694
     19 C          -1.3220    1.7200    4.3870 C.3     1  UNK11       0.2373
     20 C          -0.7350    2.9880    5.0220 C.3     1  UNK11       0.1827
     21 C          -1.7920    4.0140    4.5920 C.3     1  UNK11       0.1804
     22 C          -1.3020    5.4660    4.5950 C.3     1  UNK11       0.2141
     23 C           0.4000    1.8850    6.8280 C.3     1  UNK11       0.2561
     24 C          -0.0240    1.1630    8.1160 C.3     1  UNK11       0.1807
     25 C           0.0520    2.1020    9.3290 C.3     1  UNK11       0.2070
     26 C           1.4840    2.6550    9.4260 C.3     1  UNK11       0.2122
     27 C           1.9050    3.3330    8.1060 C.3     1  UNK11       0.1696
     28 C           1.2670    4.7150    7.9000 C.3     1  UNK11       0.1415
     29 O          -0.3440    3.0740   -0.4690 O.3     1  UNK11      -0.3278
     30 O           0.2090    7.3450   -0.9990 O.3     1  UNK11      -0.2186
     31 O           2.1570    6.1210   -2.7220 O.3     1  UNK11      -0.2176
     32 O           1.8720    3.6850    0.0120 O.3     1  UNK11      -0.3264
     33 O           4.2340    2.6730   -1.3190 O.3     1  UNK11      -0.2176
     34 O          -0.9530    2.0450    2.0510 O.3     1  UNK11      -0.3258
     35 O          -2.3160   -0.5410    2.1150 O.3     1  UNK11      -0.2189
     36 O          -2.3510    1.1400    5.1670 O.3     1  UNK11      -0.2150
     37 O          -0.5550    2.8680    6.4330 O.3     1  UNK11      -0.3265
     38 O          -2.1300    3.6430    3.2630 O.3     1  UNK11      -0.3257
     39 O          -1.9920    6.2490    3.6440 O.3     1  UNK11      -0.2176
     40 O          -0.2640    1.3630   10.4930 O.3     1  UNK11      -0.2186
     41 O           1.5990    3.5630   10.5060 O.3     1  UNK11      -0.2177
     42 O           1.6900    2.4730    6.9840 O.3     1  UNK11      -0.3276
@<TRIPOS>BOND
     1    31     9    1
     2     3    14    1
     3    14    13    1
     4    14    15    1
     5    11    33    1
     6    11    10    1
     7     9    10    1
     8     9     8    1
     9    13    12    1
    10    10    32    1
    11     8    30    1
    12     8     7    1
    13    29    15    1
    14    29     6    1
    15    15    16    1
    16    12     2    1
    17    12    17    1
    18    32     6    1
    19     7     6    1
    20     7     1    1
    21    16    17    1
    22    16    34    1
    23    17    35    1
    24    34    18    1
    25    18    38    1
    26    18    19    1
    27    38    21    1
    28    39    22    1
    29    19    20    1
    30    19    36    1
    31    21    22    1
    32    21    20    1
    33    20    37    1
    34    37    23    1
    35     5    28    1
    36    23    42    1
    37    23    24    1
    38    42    27    1
    39    28    27    1
    40     4    24    1
    41    27    26    1
    42    24    25    1
    43    25    26    1
    44    25    40    1
    45    26    41    1
@<TRIPOS>MOLECULE
lig_2n0j.pdb
 31 33 0 0 0
SMALL
GASTEIGER

@<TRIPOS>ATOM
      1 N          -2.8590   -2.2620    0.9040 N.3     1  UNK11      -0.1301
      2 N           0.4840    1.0880   -0.2510 N.3     1  UNK11      -0.1302
      3 N           4.0900    1.6330    2.2380 N.3     1  UNK11      -0.1286
      4 N          -1.2840    4.9670    3.1320 N.3     1  UNK11      -0.1248
      5 C          -2.6840    4.9470    6.4040 C.3     1  UNK11       0.2142
      6 C          -3.1710    3.5060    6.2020 C.3     1  UNK11       0.1836
      7 C          -2.8670    1.6520    4.8340 C.3     1  UNK11       0.2695
      8 C          -1.9880    1.0750    2.6500 C.3     1  UNK11       0.1779
      9 C          -2.4430   -0.3820    2.4660 C.3     1  UNK11       0.1989
     10 C          -2.5120   -0.8360    1.0000 C.3     1  UNK11       0.1261
     11 C          -1.1680   -0.5940    0.3220 C.3     1  UNK11       0.0433
     12 C          -0.7840    0.8740    0.4550 C.3     1  UNK11       0.1230
     13 C          -0.6850    1.2720    1.9430 C.3     1  UNK11       0.1649
     14 C           0.3770    3.1400    3.0980 C.3     1  UNK11       0.2561
     15 C           2.5150    3.5310    2.0320 C.3     1  UNK11       0.1696
     16 C           3.9790    3.0780    2.1040 C.3     1  UNK11       0.1415
     17 C           2.4280    5.0530    2.2470 C.3     1  UNK11       0.2122
     18 C           0.9520    5.4700    2.2310 C.3     1  UNK11       0.2070
     19 C           0.1470    4.6480    3.2470 C.3     1  UNK11       0.1807
     20 C          -2.6340    1.1960    6.2820 C.3     1  UNK11       0.2404
     21 C          -2.3480    2.5090    7.0100 C.3     1  UNK11       0.2168
     22 O          -3.5150    5.8740    5.7320 O.3     1  UNK11      -0.2176
     23 O          -2.9900    3.0710    4.8630 O.3     1  UNK11      -0.3256
     24 O          -1.7510    1.2820    4.0330 O.3     1  UNK11      -0.3258
     25 O          -3.7370   -0.5520    3.0220 O.3     1  UNK11      -0.2189
     26 O          -0.3050    2.6570    1.9460 O.3     1  UNK11      -0.3278
     27 O           1.7670    2.8340    3.0260 O.3     1  UNK11      -0.3276
     28 O           3.1290    5.7230    1.2140 O.3     1  UNK11      -0.2177
     29 O           0.8340    6.8520    2.5140 O.3     1  UNK11      -0.2186
     30 O          -3.7840    0.5290    6.7660 O.3     1  UNK11      -0.2149
     31 O          -2.6770    2.4800    8.3850 O.3     1  UNK11      -0.2175
@<TRIPOS>BOND
     1     2    12    1
     2    11    12    1
     3    11    10    1
     4    12    13    1
     5     1    10    1
     6    10     9    1
     7    28    17    1
     8    13    26    1
     9    13     8    1
    10    26    14    1
    11    15    16    1
    12    15    17    1
    13    15    27    1
    14    16     3    1
    15    18    17    1
    16    18    29    1
    17    18    19    1
    18     9     8    1
    19     9    25    1
    20     8    24    1
    21    27    14    1
    22    14    19    1
    23     4    19    1
    24    24     7    1
    25     7    23    1
    26     7    20    1
    27    23     6    1
    28    22     5    1
    29     6     5    1
    30     6    21    1
    31    20    30    1
    32    20    21    1
    33    21    31    1
@<TRIPOS>MOLECULE
lig_2o3v.pdb
 35 37 0 0 0
SMALL
GASTEIGER

@<TRIPOS>ATOM
      1 N           7.6050   -5.8830   42.1000 N.3     1  UNK11      -0.1301
      2 N           0.1570   -8.9220   43.3050 N.3     1  UNK11      -0.1249
      3 N          -3.3250  -10.1830   47.9990 N.3     1  UNK11      -0.1248
      4 N           3.1090   -4.9450   44.1740 N.3     1  UNK11      -0.1302
      5 C           2.1410   -8.9990   44.8440 C.3     1  UNK11       0.2560
      6 C           6.2030   -6.3690   42.2780 C.3     1  UNK11       0.1262
      7 C          -5.3520   -8.9810   48.8820 C.3     1  UNK11       0.2892
      8 C           0.5850   -8.9740   44.7230 C.3     1  UNK11       0.1776
      9 C           5.3760   -5.3390   43.1610 C.3     1  UNK11       0.0433
     10 C          -4.5880   -9.5030   47.6160 C.3     1  UNK11       0.1805
     11 C          -0.0420   -7.7470   45.5190 C.3     1  UNK11       0.1731
     12 C           3.8940   -5.8840   43.3450 C.3     1  UNK11       0.1231
     13 C          -4.2930   -8.3270   46.5840 C.3     1  UNK11       0.1732
     14 C           0.4440   -7.8610   47.0300 C.3     1  UNK11       0.2101
     15 C           3.9250   -7.3120   44.0290 C.3     1  UNK11       0.1681
     16 C          -5.6480   -7.6530   46.2010 C.3     1  UNK11       0.2101
     17 C           2.0180   -7.8980   47.1030 C.3     1  UNK11       0.1833
     18 C           4.7410   -8.3120   43.1630 C.3     1  UNK11       0.2119
     19 C          -6.3860   -7.1450   47.5030 C.3     1  UNK11       0.1834
     20 C           2.5110   -8.0450   48.5420 C.3     1  UNK11       0.2142
     21 C           6.1830   -7.7840   42.9780 C.3     1  UNK11       0.2020
     22 C          -7.7340   -6.5180   47.1830 C.3     1  UNK11       0.2142
     23 C          -2.2050   -9.0260   45.6650 C.3     1  UNK11       0.2941
     24 O           2.5460   -7.7660   44.1740 O.3     1  UNK11      -0.3277
     25 O          -4.4600   -8.0920   49.5900 O.3     1  UNK11      -0.1882
     26 O          -1.5190   -7.7150   45.3550 O.3     1  UNK11      -0.3249
     27 O          -3.6160   -8.7880   45.3860 O.3     1  UNK11      -0.3249
     28 O          -0.0480   -6.7890   47.8150 O.3     1  UNK11      -0.2178
     29 O          -5.4450   -6.5890   45.2900 O.3     1  UNK11      -0.2178
     30 O           2.5300   -9.0140   46.2810 O.3     1  UNK11      -0.3264
     31 O           4.7610   -9.5850   43.8700 O.3     1  UNK11      -0.2177
     32 O          -6.5840   -8.2660   48.4510 O.3     1  UNK11      -0.3244
     33 O           3.9160   -8.0050   48.6030 O.3     1  UNK11      -0.2176
     34 O           6.9000   -8.7050   42.1850 O.3     1  UNK11      -0.2188
     35 O          -8.3770   -6.1070   48.3650 O.3     1  UNK11      -0.2176
@<TRIPOS>BOND
     1     1     6    1
     2    34    21    1
     3     6    21    1
     4     6     9    1
     5    21    18    1
     6     9    12    1
     7    18    31    1
     8    18    15    1
     9     2     8    1
    10    12    15    1
    11    12     4    1
    12    15    24    1
    13    24     5    1
    14     8     5    1
    15     8    11    1
    16     5    30    1
    17    29    16    1
    18    26    11    1
    19    26    23    1
    20    27    23    1
    21    27    13    1
    22    11    14    1
    23    16    13    1
    24    16    19    1
    25    30    17    1
    26    13    10    1
    27    14    17    1
    28    14    28    1
    29    17    20    1
    30    22    19    1
    31    22    35    1
    32    19    32    1
    33    10     3    1
    34    10     7    1
    35    32     7    1
    36    20    33    1
    37     7    25    1
@<TRIPOS>MOLECULE
lig_2o3w.pdb
 42 45 0 0 0
SMALL
GASTEIGER

@<TRIPOS>ATOM
      1 N          12.4790    2.6860    7.3750 N.3     1  UNK11      -0.1301
      2 N           5.1810    0.7920    4.3530 N.3     1  UNK11      -0.1248
      3 N           5.9590    8.5560    3.0770 N.3     1  UNK11      -0.1248
      4 N           9.6220   -1.3620    6.3950 N.3     1  UNK11      -0.1302
      5 N           2.9590    5.9850   -0.1410 N.3     1  UNK11      -0.1286
      6 C           7.4690    0.3350    3.3970 C.3     1  UNK11       0.2561
      7 C          11.1340    2.1780    6.9710 C.3     1  UNK11       0.1261
      8 C           8.5310    3.9620    3.3700 C.3     1  UNK11       0.2694
      9 C           7.0820    7.4930    1.0810 C.3     1  UNK11       0.2561
     10 C           5.9510   -0.0160    3.3900 C.3     1  UNK11       0.1807
     11 C          11.1200    0.5990    6.8810 C.3     1  UNK11       0.0433
     12 C           9.2500    4.5820    2.1330 C.3     1  UNK11       0.2373
     13 C           6.6350    8.8310    1.7740 C.3     1  UNK11       0.1807
     14 C           5.6910   -1.4920    3.7400 C.3     1  UNK11       0.2070
     15 C           9.6740    0.1230    6.4750 C.3     1  UNK11       0.1230
     16 C           8.0830    5.2750    1.4270 C.3     1  UNK11       0.1827
     17 C           5.6690    9.6410    0.7850 C.3     1  UNK11       0.2070
     18 C           6.4920   -2.3990    2.7780 C.3     1  UNK11       0.2133
     19 C           9.2530    0.7450    5.0850 C.3     1  UNK11       0.1649
     20 C           6.8350    4.4320    1.7430 C.3     1  UNK11       0.1804
     21 C           4.5080    8.7290    0.1630 C.3     1  UNK11       0.2122
     22 C           8.0150   -2.0650    2.9120 C.3     1  UNK11       0.1834
     23 C           9.2970    2.2890    5.0810 C.3     1  UNK11       0.1779
     24 C           6.5340    3.2940    0.7190 C.3     1  UNK11       0.2141
     25 C           5.1100    7.4180   -0.4700 C.3     1  UNK11       0.1696
     26 C           8.8770   -2.9050    1.9970 C.3     1  UNK11       0.2142
     27 C          10.7150    2.7980    5.5790 C.3     1  UNK11       0.1989
     28 C           4.0200    6.4360   -1.0830 C.3     1  UNK11       0.1415
     29 O           7.8990    0.3130    4.7680 O.3     1  UNK11      -0.3278
     30 O          10.3730    5.4320    2.4690 O.3     1  UNK11      -0.2150
     31 O           4.2930   -1.7790    3.6840 O.3     1  UNK11      -0.2186
     32 O           7.9200    6.6550    1.8860 O.3     1  UNK11      -0.3265
     33 O           6.4630   10.2080   -0.2820 O.3     1  UNK11      -0.2186
     34 O           6.2520   -3.7550    3.0750 O.3     1  UNK11      -0.2176
     35 O           7.1260    3.8980    3.0330 O.3     1  UNK11      -0.3257
     36 O           3.6070    8.3990    1.2190 O.3     1  UNK11      -0.2177
     37 O           8.2370   -0.6510    2.6080 O.3     1  UNK11      -0.3264
     38 O           9.0670    2.6740    3.6980 O.3     1  UNK11      -0.3258
     39 O           5.3450    2.6130    1.1090 O.3     1  UNK11      -0.2176
     40 O           5.8520    6.7450    0.6100 O.3     1  UNK11      -0.3276
     41 O           8.7940   -4.2610    2.3630 O.3     1  UNK11      -0.2176
     42 O          10.7060    4.2210    5.7200 O.3     1  UNK11      -0.2189
@<TRIPOS>BOND
     1    28    25    1
     2    28     5    1
     3    25    21    1
     4    25    40    1
     5    33    17    1
     6    21    17    1
     7    21    36    1
     8    40     9    1
     9    24    39    1
    10    24    20    1
    11    17    13    1
    12     9    13    1
    13     9    32    1
    14    16    20    1
    15    16    32    1
    16    16    12    1
    17    20    35    1
    18    13     3    1
    19    26    41    1
    20    26    22    1
    21    12    30    1
    22    12     8    1
    23    37    22    1
    24    37     6    1
    25    18    22    1
    26    18    34    1
    27    18    14    1
    28    35     8    1
    29     8    38    1
    30    10     6    1
    31    10    14    1
    32    10     2    1
    33     6    29    1
    34    31    14    1
    35    38    23    1
    36    29    19    1
    37    23    19    1
    38    23    27    1
    39    19    15    1
    40    27    42    1
    41    27     7    1
    42     4    15    1
    43    15    11    1
    44    11     7    1
    45     7     1    1
@<TRIPOS>MOLECULE
lig_2o3x.pdb
 31 33 0 0 0
SMALL
GASTEIGER

@<TRIPOS>ATOM
      1 N          25.7560    6.1980    7.3890 N.3     1  UNK11      -0.1301
      2 N          18.3120    7.8300    5.1390 N.3     1  UNK11      -0.1248
      3 N          23.4750    8.6930    3.6300 N.3     1  UNK11      -0.1302
      4 N          16.9470    6.9810    7.4760 N.3     1  UNK11      -0.1286
      5 C          20.1860    9.5030    5.4260 C.3     1  UNK11       0.2561
      6 C          24.5030    6.4880    6.6580 C.3     1  UNK11       0.1261
      7 C          20.7190    7.5440    9.0940 C.3     1  UNK11       0.2695
      8 C          18.7600    9.2180    4.8570 C.3     1  UNK11       0.1807
      9 C          24.7220    7.5170    5.4990 C.3     1  UNK11       0.0433
     10 C          20.0980    8.5700   10.0980 C.3     1  UNK11       0.2404
     11 C          18.7030    9.4360    3.3330 C.3     1  UNK11       0.2070
     12 C          23.3470    7.7340    4.7680 C.3     1  UNK11       0.1230
     13 C          18.9790    7.6960   10.6400 C.3     1  UNK11       0.2156
     14 C          19.1710   10.8420    2.9990 C.3     1  UNK11       0.2133
     15 C          22.2830    8.2850    5.7600 C.3     1  UNK11       0.1649
     16 C          18.4460    6.9580    9.4170 C.3     1  UNK11       0.1697
     17 C          20.6300   11.0470    3.4970 C.3     1  UNK11       0.1834
     18 C          22.0690    7.3790    6.9890 C.3     1  UNK11       0.1779
     19 C          17.5160    7.8080    8.4870 C.3     1  UNK11       0.1415
     20 C          21.1490   12.4370    3.2110 C.3     1  UNK11       0.2142
     21 C          23.4670    7.0230    7.6630 C.3     1  UNK11       0.1989
     22 O          21.0510    8.4280    5.0390 O.3     1  UNK11      -0.3278
     23 O          21.0090    9.1280   11.0850 O.3     1  UNK11      -0.2149
     24 O          17.4000    9.2230    2.8510 O.3     1  UNK11      -0.2186
     25 O          19.4850    6.7520   11.6450 O.3     1  UNK11      -0.2176
     26 O          19.0990   11.0500    1.6250 O.3     1  UNK11      -0.2176
     27 O          19.6640    6.6370    8.7510 O.3     1  UNK11      -0.3268
     28 O          20.6940   10.8140    4.9210 O.3     1  UNK11      -0.3264
     29 O          21.2390    8.1700    7.9110 O.3     1  UNK11      -0.3258
     30 O          22.5120   12.5240    3.4190 O.3     1  UNK11      -0.2176
     31 O          23.3210    6.0100    8.6700 O.3     1  UNK11      -0.2189
@<TRIPOS>BOND
     1    26    14    1
     2    24    11    1
     3    14    11    1
     4    14    17    1
     5    20    30    1
     6    20    17    1
     7    11     8    1
     8    17    28    1
     9     3    12    1
    10    12     9    1
    11    12    15    1
    12     8     2    1
    13     8     5    1
    14    28     5    1
    15    22     5    1
    16    22    15    1
    17     9     6    1
    18    15    18    1
    19     6     1    1
    20     6    21    1
    21    18    21    1
    22    18    29    1
    23     4    19    1
    24    21    31    1
    25    29     7    1
    26    19    16    1
    27    27     7    1
    28    27    16    1
    29     7    10    1
    30    16    13    1
    31    10    13    1
    32    10    23    1
    33    13    25    1
@<TRIPOS>MOLECULE
lig_2oe5.pdb
 37 40 0 0 0
SMALL
GASTEIGER

@<TRIPOS>ATOM
      1 N          18.5540    2.9170   53.4970 N.3     1  UNK11      -0.1275
      2 N          23.1520   -2.8140   50.2470 N.3     1  UNK11      -0.2103
      3 N          20.2650   -6.0190   46.0230 N.3     1  UNK11      -0.1275
      4 N          22.2810    0.5230   60.1050 N.3     1  UNK11      -0.1301
      5 N          21.5800   -1.3800   55.5480 N.3     1  UNK11      -0.1302
      6 C          20.7500    1.7980   53.7590 C.3     1  UNK11       0.2535
      7 C          19.6310    2.2030   52.7730 C.3     1  UNK11       0.1505
      8 C          19.0410    0.9100   52.0970 C.3     1  UNK11       0.0564
      9 C          20.2360    0.2420   51.3820 C.3     1  UNK11       0.1491
     10 C          21.3810   -0.1650   52.4120 C.3     1  UNK11       0.1766
     11 C          22.5900   -0.8460   51.7150 C.3     1  UNK11       0.2022
     12 C          22.0430   -2.1140   50.9990 C.3     1  UNK11       0.1619
     13 C          20.8850   -1.6720   50.0250 C.3     1  UNK11       0.2562
     14 C          24.1100   -3.7230   50.9680 C.3     1  UNK11       0.1077
     15 C          19.5350   -2.4160   48.2910 C.3     1  UNK11       0.2712
     16 C          18.3640   -3.3660   48.0410 C.3     1  UNK11       0.2395
     17 C          18.8660   -4.7860   47.6600 C.3     1  UNK11       0.2071
     18 C          19.7750   -4.6410   46.4030 C.3     1  UNK11       0.1545
     19 C          20.9630   -3.6920   46.7690 C.3     1  UNK11       0.1707
     20 C          21.8890   -3.4370   45.6000 C.3     1  UNK11       0.2131
     21 C          21.0840    0.9690   55.9920 C.3     1  UNK11       0.1681
     22 C          20.5440    1.9990   57.0480 C.3     1  UNK11       0.2119
     23 C          21.4680    1.9570   58.3190 C.3     1  UNK11       0.2020
     24 C          21.4380    0.5440   58.9210 C.3     1  UNK11       0.1262
     25 C          21.9930   -0.4870   57.8650 C.3     1  UNK11       0.0433
     26 C          21.0760   -0.4350   56.5800 C.3     1  UNK11       0.1231
     27 O          20.2510    0.9820   54.8320 O.3     1  UNK11      -0.3277
     28 O          21.8290    1.0490   53.0970 O.3     1  UNK11      -0.3267
     29 O          19.7880   -0.9710   50.7190 O.3     1  UNK11      -0.3292
     30 O          23.1470    0.0890   50.7860 O.3     1  UNK11      -0.2188
     31 O          20.3190   -2.8080   49.4020 O.3     1  UNK11      -0.3025
     32 O          20.4010   -2.3810   47.1130 O.3     1  UNK11      -0.3267
     33 O          17.5750   -3.4070   49.2460 O.3     1  UNK11      -0.2149
     34 O          17.7180   -5.5910   47.3350 O.3     1  UNK11      -0.2186
     35 O          21.2020   -2.9890   44.4820 O.3     1  UNK11      -0.2176
     36 O          20.5700    3.3400   56.4800 O.3     1  UNK11      -0.2177
     37 O          20.9790    2.8620   59.2720 O.3     1  UNK11      -0.2188
@<TRIPOS>BOND
     1    35    20    1
     2    20    19    1
     3     3    18    1
     4    18    19    1
     5    18    17    1
     6    19    32    1
     7    32    15    1
     8    34    17    1
     9    17    16    1
    10    16    15    1
    11    16    33    1
    12    15    31    1
    13    31    13    1
    14    13    29    1
    15    13    12    1
    16     2    14    1
    17     2    12    1
    18    29     9    1
    19    30    11    1
    20    12    11    1
    21     9     8    1
    22     9    10    1
    23    11    10    1
    24     8     7    1
    25    10    28    1
    26     7     1    1
    27     7     6    1
    28    28     6    1
    29     6    27    1
    30    27    21    1
    31     5    26    1
    32    21    26    1
    33    21    22    1
    34    36    22    1
    35    26    25    1
    36    22    23    1
    37    25    24    1
    38    23    24    1
    39    23    37    1
    40    24     4    1
@<TRIPOS>MOLECULE
lig_2oe8.pdb
 37 40 0 0 0
SMALL
GASTEIGER

@<TRIPOS>ATOM
      1 N          18.0970    2.8350   52.7630 N.3     1  UNK11      -0.1275
      2 N          22.7010   -3.0450   49.5920 N.3     1  UNK11      -0.2103
      3 N          19.5260   -6.2320   45.3000 N.3     1  UNK11      -0.1275
      4 N          21.2170   -0.1750   59.5730 N.3     1  UNK11      -0.1301
      5 N          21.5160   -1.4220   54.7570 N.3     1  UNK11      -0.1302
      6 C          20.2290    1.5540   53.2070 C.3     1  UNK11       0.2535
      7 C          19.2060    2.0600   52.1200 C.3     1  UNK11       0.1505
      8 C          18.6220    0.8480   51.3650 C.3     1  UNK11       0.0564
      9 C          19.8360    0.1210   50.7070 C.3     1  UNK11       0.1491
     10 C          20.9030   -0.3850   51.8070 C.3     1  UNK11       0.1766
     11 C          22.1270   -1.0940   51.1570 C.3     1  UNK11       0.2022
     12 C          21.5720   -2.3110   50.3100 C.3     1  UNK11       0.1619
     13 C          20.5080   -1.7740   49.2900 C.3     1  UNK11       0.2562
     14 C          23.5120   -4.0810   50.3290 C.3     1  UNK11       0.1077
     15 C          19.1780   -2.4440   47.4660 C.3     1  UNK11       0.2712
     16 C          17.9400   -3.3640   47.3350 C.3     1  UNK11       0.2395
     17 C          18.3410   -4.8290   46.9790 C.3     1  UNK11       0.2071
     18 C          19.1420   -4.8330   45.6430 C.3     1  UNK11       0.1545
     19 C          20.4310   -3.9400   45.8750 C.3     1  UNK11       0.1707
     20 C          21.2980   -3.8510   44.6230 C.3     1  UNK11       0.2131
     21 C          20.2780    0.6670   55.4170 C.3     1  UNK11       0.1681
     22 C          19.3540    1.2930   56.5100 C.3     1  UNK11       0.2119
     23 C          20.1080    1.2730   57.8720 C.3     1  UNK11       0.2020
     24 C          20.4930   -0.1840   58.2720 C.3     1  UNK11       0.1262
     25 C          21.4170   -0.8280   57.1690 C.3     1  UNK11       0.0433
     26 C          20.6430   -0.8120   55.7850 C.3     1  UNK11       0.1231
     27 O          19.5940    0.7160   54.1820 O.3     1  UNK11      -0.3277
     28 O          21.3440    0.7770   52.5920 O.3     1  UNK11      -0.3267
     29 O          19.3870   -1.0390   49.9450 O.3     1  UNK11      -0.3292
     30 O          22.7930   -0.1240   50.3470 O.3     1  UNK11      -0.2188
     31 O          19.9780   -2.8420   48.5920 O.3     1  UNK11      -0.3025
     32 O          19.9940   -2.5420   46.2280 O.3     1  UNK11      -0.3267
     33 O          17.2200   -3.2900   48.5810 O.3     1  UNK11      -0.2149
     34 O          17.1620   -5.5900   46.8300 O.3     1  UNK11      -0.2186
     35 O          20.5140   -3.4170   43.5420 O.3     1  UNK11      -0.2176
     36 O          19.0290    2.6540   56.1710 O.3     1  UNK11      -0.2177
     37 O          19.2460    1.8390   58.8450 O.3     1  UNK11      -0.2188
@<TRIPOS>BOND
     1    35    20    1
     2    20    19    1
     3     3    18    1
     4    18    19    1
     5    18    17    1
     6    19    32    1
     7    32    15    1
     8    34    17    1
     9    17    16    1
    10    16    15    1
    11    16    33    1
    12    15    31    1
    13    31    13    1
    14    13    29    1
    15    13    12    1
    16     2    12    1
    17     2    14    1
    18    29     9    1
    19    12    11    1
    20    30    11    1
    21     9     8    1
    22     9    10    1
    23    11    10    1
    24     8     7    1
    25    10    28    1
    26     7     1    1
    27     7     6    1
    28    28     6    1
    29     6    27    1
    30    27    21    1
    31     5    26    1
    32    21    26    1
    33    21    22    1
    34    26    25    1
    35    36    22    1
    36    22    23    1
    37    25    24    1
    38    23    24    1
    39    23    37    1
    40    24     4    1
@<TRIPOS>MOLECULE
lig_2tob.pdb
 32 34 0 0 0
SMALL
GASTEIGER

@<TRIPOS>ATOM
      1 N          -6.1170    2.6320  -10.3240 N.4     1  UNK11       0.5963
      2 N         -11.7980    1.3800   -8.7430 N.4     1  UNK11       0.5934
      3 N         -13.7520   -3.2030   -8.5250 N.4     1  UNK11       0.5934
      4 N          -8.5770   -4.8530   -7.9940 N.4     1  UNK11       0.5960
      5 N         -13.5550   -8.2230   -5.5100 N.4     1  UNK11       0.5997
      6 C          -8.1400    0.5390   -7.7600 C.3     1  UNK11       0.2736
      7 C          -7.4810    1.8100   -8.2850 C.3     1  UNK11       0.2771
      8 C          -6.8380    1.5130   -9.6400 C.3     1  UNK11       0.3163
      9 C          -5.8660    0.3300   -9.5360 C.3     1  UNK11       0.2511
     10 C          -6.5660   -0.8670   -8.8830 C.3     1  UNK11       0.1873
     11 C          -5.6520   -2.0480   -8.5990 C.3     1  UNK11       0.2144
     12 C         -11.5220   -0.0770   -8.9770 C.3     1  UNK11       0.2846
     13 C         -12.7840   -0.9130   -8.7240 C.3     1  UNK11       0.1525
     14 C         -12.5040   -2.4130   -8.7810 C.3     1  UNK11       0.2846
     15 C         -11.4200   -2.7390   -7.7620 C.3     1  UNK11       0.2179
     16 C         -10.1230   -2.0260   -8.1530 C.3     1  UNK11       0.2186
     17 C         -10.3150   -0.5000   -8.1250 C.3     1  UNK11       0.2177
     18 C         -10.5480   -4.5690   -6.5260 C.3     1  UNK11       0.3060
     19 C          -9.3630   -5.4730   -6.8800 C.3     1  UNK11       0.3071
     20 C          -9.8400   -6.8610   -7.3100 C.3     1  UNK11       0.1147
     21 C         -10.7590   -7.4220   -6.2370 C.3     1  UNK11       0.1921
     22 C         -11.9290   -6.4740   -6.0360 C.3     1  UNK11       0.2220
     23 C         -12.8890   -6.9840   -4.9770 C.3     1  UNK11       0.3474
     24 O          -8.4540    2.8410   -8.4270 O.3     1  UNK11      -0.2107
     25 O          -5.4230   -0.0210  -10.8410 O.3     1  UNK11      -0.2135
     26 O          -7.1540   -0.4680   -7.6290 O.3     1  UNK11      -0.3254
     27 O          -6.3980   -3.2580   -8.5140 O.3     1  UNK11      -0.2176
     28 O          -9.0870   -2.4090   -7.2560 O.3     1  UNK11      -0.2174
     29 O         -11.2010   -4.1590   -7.6960 O.3     1  UNK11      -0.3190
     30 O          -9.1430    0.1490   -8.6600 O.3     1  UNK11      -0.3216
     31 O         -11.2340   -8.7060   -6.6150 O.3     1  UNK11      -0.2201
     32 O         -11.4350   -5.1940   -5.6050 O.3     1  UNK11      -0.3188
@<TRIPOS>BOND
     1    25     9    1
     2     1     8    1
     3     8     9    1
     4     8     7    1
     5     9    10    1
     6    12     2    1
     7    12    13    1
     8    12    17    1
     9    10    11    1
    10    10    26    1
    11    14    13    1
    12    14     3    1
    13    14    15    1
    14    30    17    1
    15    30     6    1
    16    11    27    1
    17    24     7    1
    18     7     6    1
    19    16    17    1
    20    16    15    1
    21    16    28    1
    22     4    19    1
    23    15    29    1
    24     6    26    1
    25    29    18    1
    26    20    19    1
    27    20    21    1
    28    19    18    1
    29    31    21    1
    30    18    32    1
    31    21    22    1
    32    22    32    1
    33    22    23    1
    34     5    23    1
@<TRIPOS>MOLECULE
lig_3c44.pdb
 42 45 0 0 0
SMALL
GASTEIGER

@<TRIPOS>ATOM
      1 N          31.7400   36.7990  -15.7060 N.3     1  UNK11      -0.1301
      2 N          39.0650   34.4210  -13.8740 N.3     1  UNK11      -0.1248
      3 N          37.1020   42.4950  -15.4170 N.3     1  UNK11      -0.1248
      4 N          33.8460   32.6440  -14.1390 N.3     1  UNK11      -0.1302
      5 N          42.0550   41.4840  -12.9010 N.3     1  UNK11      -0.1286
      6 C          37.0050   34.1670  -12.5300 C.3     1  UNK11       0.2561
      7 C          32.9930   36.1250  -15.3370 C.3     1  UNK11       0.1261
      8 C          36.3820   38.1390  -13.1470 C.3     1  UNK11       0.2694
      9 C          37.9850   42.0630  -13.1910 C.3     1  UNK11       0.2561
     10 C          38.4290   33.6640  -12.7850 C.3     1  UNK11       0.1807
     11 C          32.7180   34.6930  -14.8670 C.3     1  UNK11       0.0433
     12 C          36.7320   38.8670  -11.8490 C.3     1  UNK11       0.2373
     13 C          37.3440   43.1120  -14.1060 C.3     1  UNK11       0.1807
     14 C          38.4380   32.1750  -13.1390 C.3     1  UNK11       0.2070
     15 C          34.0690   34.0050  -14.6500 C.3     1  UNK11       0.1230
     16 C          37.7780   39.8470  -12.3780 C.3     1  UNK11       0.1827
     17 C          38.2680   44.3230  -14.2910 C.3     1  UNK11       0.2070
     18 C          37.6870   31.3820  -12.0690 C.3     1  UNK11       0.2133
     19 C          34.9770   34.7590  -13.6700 C.3     1  UNK11       0.1649
     20 C          38.5730   38.9330  -13.2970 C.3     1  UNK11       0.1804
     21 C          39.6790   43.8830  -14.6830 C.3     1  UNK11       0.2122
     22 C          36.2790   31.9560  -11.8990 C.3     1  UNK11       0.1834
     23 C          35.0980   36.2550  -13.9520 C.3     1  UNK11       0.1779
     24 C          39.7280   38.3040  -12.5150 C.3     1  UNK11       0.2141
     25 C          40.1770   42.8490  -13.6700 C.3     1  UNK11       0.1696
     26 C          35.5850   31.1650  -10.7880 C.3     1  UNK11       0.2142
     27 C          33.7220   36.8760  -14.2200 C.3     1  UNK11       0.1989
     28 C          41.5960   42.3710  -13.9790 C.3     1  UNK11       0.1415
     29 O          36.2640   34.1240  -13.7590 O.3     1  UNK11      -0.3278
     30 O          35.6020   39.6070  -11.3830 O.3     1  UNK11      -0.2150
     31 O          39.7920   31.7160  -13.2120 O.3     1  UNK11      -0.2186
     32 O          37.1580   40.8870  -13.1520 O.3     1  UNK11      -0.3265
     33 O          38.3420   45.0840  -13.0830 O.3     1  UNK11      -0.2186
     34 O          37.6030   30.0090  -12.4590 O.3     1  UNK11      -0.2176
     35 O          37.6590   37.9240  -13.7760 O.3     1  UNK11      -0.3257
     36 O          39.6400   43.3170  -15.9960 O.3     1  UNK11      -0.2177
     37 O          36.3520   33.3500  -11.5400 O.3     1  UNK11      -0.3264
     38 O          35.7180   36.9030  -12.8290 O.3     1  UNK11      -0.3258
     39 O          40.5000   37.4880  -13.3990 O.3     1  UNK11      -0.2176
     40 O          39.2850   41.7210  -13.6960 O.3     1  UNK11      -0.3276
     41 O          36.2200   31.4500   -9.4940 O.3     1  UNK11      -0.2176
     42 O          33.8670   38.2550  -14.5690 O.3     1  UNK11      -0.2189
@<TRIPOS>BOND
     1    36    21    1
     2     1     7    1
     3     3    13    1
     4     7    11    1
     5     7    27    1
     6    11    15    1
     7    21    17    1
     8    21    25    1
     9    15     4    1
    10    15    19    1
    11    42    27    1
    12    17    13    1
    13    17    33    1
    14    27    23    1
    15    13     9    1
    16    28    25    1
    17    28     5    1
    18    23    19    1
    19    23    38    1
    20     2    10    1
    21    35    20    1
    22    35     8    1
    23    29    19    1
    24    29     6    1
    25    40    25    1
    26    40     9    1
    27    39    24    1
    28    20    24    1
    29    20    16    1
    30    31    14    1
    31     9    32    1
    32    32    16    1
    33     8    38    1
    34     8    12    1
    35    14    10    1
    36    14    18    1
    37    10     6    1
    38     6    37    1
    39    34    18    1
    40    16    12    1
    41    18    22    1
    42    22    37    1
    43    22    26    1
    44    12    30    1
    45    26    41    1
@<TRIPOS>MOLECULE
lig_3wru.pdb
 46 49 0 0 0
SMALL
GASTEIGER

@<TRIPOS>ATOM
      1 N           7.9740  -18.8510    8.1840 N.3     1  UNK11      -0.1287
      2 N          10.0560  -12.8340    3.8970 N.3     1  UNK11      -0.1276
      3 N          11.2480  -17.3160   10.9760 N.3     1  UNK11      -0.1276
      4 N          21.8090  -14.4450    9.2080 N.3     1  UNK11      -0.1283
      5 N          12.1670   -6.6530    4.9290 N.3     1  UNK11      -0.1287
      6 N          17.0380  -12.7080    7.5160 N.am    1  UNK11      -0.2022
      7 N          14.6900  -10.1250    3.8950 N.3     1  UNK11      -0.1302
      8 C          10.9300  -10.8340    5.0640 C.3     1  UNK11       0.2533
      9 C          13.3610  -11.2540    5.6320 C.3     1  UNK11       0.1649
     10 C          13.2520  -12.4760    6.5940 C.3     1  UNK11       0.1782
     11 C          14.5390  -12.4900    7.5660 C.3     1  UNK11       0.2012
     12 C          11.3940  -13.1450    8.1870 C.3     1  UNK11       0.2694
     13 C          10.4420  -12.4500    9.2020 C.3     1  UNK11       0.2373
     14 C           9.5310  -13.6240    9.4690 C.3     1  UNK11       0.1827
     15 C           9.2150  -14.2110    8.0570 C.3     1  UNK11       0.1804
     16 C           8.0790  -13.5070    7.2340 C.3     1  UNK11       0.2141
     17 C           9.4960  -15.6300   10.9040 C.3     1  UNK11       0.2533
     18 C          10.2800  -16.6240   11.7080 C.3     1  UNK11       0.1480
     19 C           9.9220  -11.3340    4.0030 C.3     1  UNK11       0.1480
     20 C           9.2940  -17.7240   12.2390 C.3     1  UNK11       0.0267
     21 C           8.6070  -18.4580   11.2160 C.3     1  UNK11       0.0329
     22 C           7.8090  -17.5340   10.4380 C.3     1  UNK11       0.1368
     23 C           7.0330  -18.2860    9.2860 C.3     1  UNK11       0.1388
     24 C          19.3240  -14.1800    8.7010 C.3     1  UNK11       0.2190
     25 C          18.3110  -13.0670    6.8880 C.2     1  UNK11       0.2747
     26 C          20.4300  -14.3520    9.5120 C.3     1  UNK11       0.1476
     27 C          19.4730  -13.0290    7.9980 C.3     1  UNK11       0.2626
     28 C          10.1580  -10.6080    2.6010 C.3     1  UNK11       0.0267
     29 C          10.0130   -9.0270    2.8250 C.3     1  UNK11       0.0329
     30 C          11.1020   -8.5820    3.9070 C.3     1  UNK11       0.1368
     31 C          11.0350   -7.0780    4.2010 C.3     1  UNK11       0.1388
     32 C          15.8360  -12.6760    6.6630 C.3     1  UNK11       0.1297
     33 C          15.9090  -11.3700    5.7060 C.3     1  UNK11       0.0459
     34 C          14.6430  -11.3200    4.7660 C.3     1  UNK11       0.1232
     35 O          12.2610  -11.2300    4.7320 O.3     1  UNK11      -0.3278
     36 O          11.9800  -12.3000    7.3720 O.3     1  UNK11      -0.3258
     37 O          14.4200  -13.5770    8.4030 O.3     1  UNK11      -0.2186
     38 O          11.1950  -12.0500   10.3060 O.3     1  UNK11      -0.2150
     39 O          10.5570  -14.1710    7.5450 O.3     1  UNK11      -0.3257
     40 O           7.8560  -14.2940    6.0480 O.3     1  UNK11      -0.2176
     41 O          10.2600  -14.6320   10.3390 O.3     1  UNK11      -0.3265
     42 O          19.3280  -11.8460    8.8140 O.3     1  UNK11      -0.2101
     43 O          18.4870  -13.3430    5.6900 O.2     1  UNK11      -0.2705
     44 O           8.6790  -16.4400    9.8680 O.3     1  UNK11      -0.3304
     45 O          10.8770   -9.3400    5.2050 O.3     1  UNK11      -0.3304
     46 F          18.1250  -14.2000    9.5090 F       1  UNK11      -0.2324
@<TRIPOS>BOND
     1    28    29    1
     2    28    19    1
     3    29    30    1
     4     7    34    1
     5     2    19    1
     6    30    31    1
     7    30    45    1
     8    19     8    1
     9    31     5    1
    10    35     8    1
    11    35     9    1
    12    34     9    1
    13    34    33    1
    14     8    45    1
    15     9    10    1
    16    43    25    2
    17    33    32    1
    18    40    16    1
    19    10    36    1
    20    10    11    1
    21    32     6    1
    22    32    11    1
    23    25     6   am
    24    25    27    1
    25    16    15    1
    26    36    12    1
    27    39    15    1
    28    39    12    1
    29    11    37    1
    30    27    24    1
    31    27    42    1
    32    15    14    1
    33     1    23    1
    34    12    13    1
    35    24    46    1
    36    24    26    1
    37    13    14    1
    38    13    38    1
    39     4    26    1
    40    23    22    1
    41    14    41    1
    42    44    22    1
    43    44    17    1
    44    41    17    1
    45    22    21    1
    46    17    18    1
    47     3    18    1
    48    21    20    1
    49    18    20    1
@<TRIPOS>MOLECULE
lig_4b5r.pdb
 27 29 0 0 0
SMALL
GASTEIGER

@<TRIPOS>ATOM
      1 N           1.3740  -14.7110  -11.3510 N.3     1  UNK11      -0.1159
      2 N           2.1900  -14.2790   -7.4660 N.ar    1  UNK11      -0.2693
      3 N           0.0240  -14.2330   -7.9510 N.ar    1  UNK11      -0.2193
      4 N          -1.5640  -16.6460   -8.6040 N.pl3   1  UNK11      -0.1054
      5 N           0.4080  -17.8870   -8.2960 N.ar    1  UNK11      -0.2040
      6 N           2.4310  -16.7680   -7.7100 N.ar    1  UNK11      -0.2048
      7 C           2.6880  -14.6420  -12.0600 C.3     1  UNK11       0.2168
      8 C           2.7920  -15.8120  -13.0340 C.2     1  UNK11       0.3860
      9 C           3.9010  -14.5800  -11.1100 C.2     1  UNK11       0.0097
     10 C           5.0610  -13.6340  -11.5200 C.2     1  UNK11       0.0191
     11 C           7.8190  -14.2450  -11.4830 C.3     1  UNK11       0.0636
     12 C           6.3150  -14.8670   -9.2530 C.3     1  UNK11       0.0846
     13 C           5.6530  -14.3370   -7.9890 C.3     1  UNK11       0.1605
     14 C           5.3300  -15.4180   -6.9920 C.3     1  UNK11       0.2144
     15 C           4.3110  -14.7070   -6.1300 C.3     1  UNK11       0.2337
     16 C           3.5570  -13.8110   -7.1070 C.3     1  UNK11       0.2409
     17 C           1.0930  -13.4710   -7.6260 C.ar    1  UNK11       0.1816
     18 C           0.4140  -15.5170   -8.0120 C.ar    1  UNK11       0.1518
     19 C          -0.2710  -16.6850   -8.3080 C.ar    1  UNK11       0.1919
     20 C           1.7640  -17.9410   -7.9960 C.ar    1  UNK11       0.2016
     21 C           1.7730  -15.5720   -7.7090 C.ar    1  UNK11       0.1692
     22 O           3.5700  -15.7460  -13.9780 O.co2   1  UNK11      -0.2437
     23 O           2.1130  -16.8410  -12.9200 O.co2   1  UNK11      -0.2437
     24 O           4.3970  -13.7260   -8.2450 O.3     1  UNK11      -0.3324
     25 O           6.4830  -15.7850   -6.2900 O.3     1  UNK11      -0.2176
     26 O           4.9620  -13.8970   -5.1730 O.3     1  UNK11      -0.2155
     27 S           6.5450  -13.5170  -10.4310 S.3     1  UNK11      -0.1536
@<TRIPOS>BOND
     1    22     8   ar
     2     8    23   ar
     3     8     7    1
     4     7     1    1
     5     7     9    1
     6    10     9    2
     7    10    27    1
     8    11    27    1
     9    27    12    1
    10    12    13    1
    11     4    19    1
    12    19     5   ar
    13    19    18   ar
    14     5    20   ar
    15    24    13    1
    16    24    16    1
    17    18     3   ar
    18    18    21   ar
    19    20     6   ar
    20    13    14    1
    21     3    17   ar
    22     6    21   ar
    23    21     2   ar
    24    17     2   ar
    25     2    16    1
    26    16    15    1
    27    14    25    1
    28    14    15    1
    29    15    26    1
@<TRIPOS>MOLECULE
lig_4k32.pdb
 34 36 0 0 0
SMALL
GASTEIGER

@<TRIPOS>ATOM
      1 N           0.3300   15.3700   36.2500 N.3     1  UNK11      -0.1248
      2 N          -7.0040   16.2780   38.8020 N.3     1  UNK11      -0.1302
      3 N          -3.3980   19.3690   37.5740 N.3     1  UNK11      -0.1302
      4 N          -6.5200   10.5620   39.7350 N.3     1  UNK11      -0.2126
      5 C          -1.3980   16.8940   35.1760 C.3     1  UNK11       0.2561
      6 C           0.1360   16.5170   35.3320 C.3     1  UNK11       0.1807
      7 C           0.9190   17.7480   35.8540 C.3     1  UNK11       0.2070
      8 C           0.7090   18.9140   34.8710 C.3     1  UNK11       0.2132
      9 C          -0.8300   19.2320   34.7450 C.3     1  UNK11       0.1807
     10 C          -1.0930   20.3910   33.7510 C.3     1  UNK11       0.1817
     11 C          -0.8440   19.9520   32.3170 C.3     1  UNK11       0.0382
     12 C          -5.5750   16.3650   38.4930 C.3     1  UNK11       0.1231
     13 C          -5.2610   17.8540   38.1790 C.3     1  UNK11       0.0432
     14 C          -3.7430   17.9700   37.8720 C.3     1  UNK11       0.1231
     15 C          -3.3510   17.0790   36.6630 C.3     1  UNK11       0.1680
     16 C          -3.7180   15.5960   36.9820 C.3     1  UNK11       0.2088
     17 C          -5.2370   15.4480   37.2420 C.3     1  UNK11       0.1680
     18 C          -6.8390   13.5860   37.2980 C.3     1  UNK11       0.2683
     19 C          -7.2120   12.6700   38.5220 C.3     1  UNK11       0.2262
     20 C          -6.2090   11.4550   38.5780 C.3     1  UNK11       0.1384
     21 C          -5.8510   11.0910   40.9420 C.3     1  UNK11       0.1076
     22 C          -6.3170   10.6640   37.2390 C.3     1  UNK11       0.1710
     23 C          -5.3670    9.4700   37.2080 C.3     1  UNK11       0.0371
     24 C          -5.9900   11.6230   36.0490 C.3     1  UNK11       0.1765
     25 O          -1.9120   17.2510   36.4650 O.3     1  UNK11      -0.3277
     26 O           2.3050   17.4290   35.9940 O.3     1  UNK11      -0.2186
     27 O           1.4300   20.0550   35.3380 O.3     1  UNK11      -0.2176
     28 O          -1.5740   18.0420   34.2810 O.3     1  UNK11      -0.3265
     29 O          -2.4480   20.8290   33.8660 O.3     1  UNK11      -0.2204
     30 O          -3.3670   14.7760   35.8600 O.3     1  UNK11      -0.2178
     31 O          -5.4910   14.0530   37.5410 O.3     1  UNK11      -0.3269
     32 O          -7.1610   13.4250   39.7220 O.3     1  UNK11      -0.2161
     33 O          -7.6520   10.1790   37.1010 O.3     1  UNK11      -0.2215
     34 O          -6.8910   12.7940   36.0520 O.3     1  UNK11      -0.3259
@<TRIPOS>BOND
     1    11    10    1
     2    10    29    1
     3    10     9    1
     4    28     9    1
     5    28     5    1
     6     9     8    1
     7     8    27    1
     8     8     7    1
     9     5     6    1
    10     5    25    1
    11     6     7    1
    12     6     1    1
    13     7    26    1
    14    30    16    1
    15    24    34    1
    16    24    22    1
    17    34    18    1
    18    25    15    1
    19    15    16    1
    20    15    14    1
    21    16    17    1
    22    33    22    1
    23    23    22    1
    24    22    20    1
    25    17    31    1
    26    17    12    1
    27    18    31    1
    28    18    19    1
    29     3    14    1
    30    14    13    1
    31    13    12    1
    32    12     2    1
    33    19    20    1
    34    19    32    1
    35    20     4    1
    36     4    21    1
@<TRIPOS>MOLECULE
lig_4nyg.pdb
 18 19 0 0 0
SMALL
GASTEIGER

@<TRIPOS>ATOM
      1 N          -9.6530   12.1400    1.7220 N.pl3   1  UNK11      -0.1074
      2 N          -6.9440   15.2310    1.3790 N.ar    1  UNK11      -0.3197
      3 N         -11.4160   13.5510    2.5060 N.ar    1  UNK11      -0.2130
      4 N         -11.3010   15.8620    2.3200 N.ar    1  UNK11      -0.2293
      5 C         -13.2990   14.8810    3.3730 C.3     1  UNK11       0.0737
      6 C          -5.6420   13.1480    2.0260 C.3     1  UNK11       0.0502
      7 C          -2.3900   15.5570    1.9500 C.3     1  UNK11       0.1873
      8 C          -3.4780   15.1800    2.9740 C.3     1  UNK11       0.0696
      9 C          -7.0190   16.5530    1.3070 C.ar    1  UNK11       0.1125
     10 C          -4.8240   15.4820    2.3530 C.ar    1  UNK11       0.0229
     11 C          -5.8240   14.6520    1.9110 C.ar    1  UNK11       0.0403
     12 C          -8.0820   14.3980    0.8500 C.3     1  UNK11       0.1374
     13 C         -10.1910   13.4130    1.9130 C.ar    1  UNK11       0.1703
     14 C         -11.9510   14.7590    2.7020 C.ar    1  UNK11       0.1411
     15 C         -10.0790   15.8030    1.7290 C.ar    1  UNK11       0.1007
     16 C          -9.4640   14.5670    1.5020 C.ar    1  UNK11       0.0544
     17 O          -2.4230   16.9540    1.6900 O.3     1  UNK11      -0.2200
     18 S          -5.5190   17.0790    1.9970 S.2     1  UNK11      -0.0710
@<TRIPOS>BOND
     1    12     2    1
     2    12    16    1
     3     9     2   ar
     4     9    18   ar
     5     2    11   ar
     6    16    15   ar
     7    16    13   ar
     8    17     7    1
     9     1    13    1
    10    15     4   ar
    11    11     6    1
    12    11    10   ar
    13    13     3   ar
    14     7     8    1
    15    18    10   ar
    16     4    14   ar
    17    10     8    1
    18     3    14   ar
    19    14     5    1
@<TRIPOS>MOLECULE
lig_4wcr.pdb
 42 45 0 0 0
SMALL
GASTEIGER

@<TRIPOS>ATOM
      1 N           0.2850   14.9470   37.3850 N.3     1  UNK11      -0.1248
      2 N          -7.4470   16.4610   38.8540 N.3     1  UNK11      -0.1301
      3 N          -3.3200   19.0730   38.0200 N.3     1  UNK11      -0.1302
      4 N          -4.9250    7.6980   36.5240 N.3     1  UNK11      -0.1248
      5 N          -2.1050    6.9750   40.0510 N.3     1  UNK11      -0.1286
      6 C          -1.2350   16.2060   35.8320 C.3     1  UNK11       0.2561
      7 C           0.2640   15.9310   36.3000 C.3     1  UNK11       0.1807
      8 C           0.9350   17.3250   36.7310 C.3     1  UNK11       0.2070
      9 C           0.8430   18.2680   35.5190 C.3     1  UNK11       0.2133
     10 C          -0.6830   18.4520   35.0880 C.3     1  UNK11       0.1834
     11 C          -0.8270   19.3520   33.8930 C.3     1  UNK11       0.2142
     12 C          -6.0110   16.3720   38.7070 C.3     1  UNK11       0.1261
     13 C          -5.4010   17.8020   38.4400 C.3     1  UNK11       0.0433
     14 C          -3.8430   17.7320   38.2720 C.3     1  UNK11       0.1230
     15 C          -3.4020   16.7770   37.0750 C.3     1  UNK11       0.1649
     16 C          -3.9780   15.3630   37.3720 C.3     1  UNK11       0.1779
     17 C          -5.6000   15.4310   37.4780 C.3     1  UNK11       0.1989
     18 C          -3.3380   13.2140   36.5690 C.3     1  UNK11       0.2694
     19 C          -3.0350   12.3370   35.4330 C.3     1  UNK11       0.2373
     20 C          -2.4140   11.1200   36.1530 C.3     1  UNK11       0.1827
     21 C          -2.4330   11.4810   37.6020 C.3     1  UNK11       0.1804
     22 C          -1.2100   10.8620   38.3750 C.3     1  UNK11       0.2141
     23 C          -2.6440    8.6630   35.9600 C.3     1  UNK11       0.2561
     24 C          -3.7590    7.5500   35.5940 C.3     1  UNK11       0.1807
     25 C          -3.0760    6.0990   35.7110 C.3     1  UNK11       0.2070
     26 C          -2.5800    5.8650   37.2090 C.3     1  UNK11       0.2122
     27 C          -1.5000    7.0320   37.5750 C.3     1  UNK11       0.1696
     28 C          -1.0040    6.8430   39.0470 C.3     1  UNK11       0.1415
     29 O          -1.9270   16.7640   36.9920 O.3     1  UNK11      -0.3278
     30 O           2.3010   17.1360   37.1550 O.3     1  UNK11      -0.2186
     31 O           1.4130   19.4860   35.8560 O.3     1  UNK11      -0.2176
     32 O          -1.2810   17.1980   34.7370 O.3     1  UNK11      -0.3264
     33 O          -2.2210   19.4790   33.6130 O.3     1  UNK11      -0.2176
     34 O          -3.5100   14.5240   36.2060 O.3     1  UNK11      -0.3258
     35 O          -6.2510   14.1630   37.8100 O.3     1  UNK11      -0.2189
     36 O          -4.2070   12.1880   34.6990 O.3     1  UNK11      -0.2150
     37 O          -3.2550    9.9840   35.8530 O.3     1  UNK11      -0.3265
     38 O          -2.2520   12.9320   37.4360 O.3     1  UNK11      -0.3257
     39 O          -1.1780   11.2080   39.7920 O.3     1  UNK11      -0.2176
     40 O          -1.9560    6.0700   34.7750 O.3     1  UNK11      -0.2186
     41 O          -3.7690    5.8940   38.0900 O.3     1  UNK11      -0.2177
     42 O          -2.1370    8.3870   37.3900 O.3     1  UNK11      -0.3276
@<TRIPOS>BOND
     1    33    11    1
     2    11    10    1
     3    36    19    1
     4    32    10    1
     5    32     6    1
     6    40    25    1
     7    10     9    1
     8    19    20    1
     9    19    18    1
    10     9    31    1
    11     9     8    1
    12    24    25    1
    13    24    23    1
    14    24     4    1
    15    25    26    1
    16     6     7    1
    17     6    29    1
    18    37    23    1
    19    37    20    1
    20    23    42    1
    21    20    21    1
    22    34    18    1
    23    34    16    1
    24     7     8    1
    25     7     1    1
    26    18    38    1
    27     8    30    1
    28    29    15    1
    29    15    16    1
    30    15    14    1
    31    26    27    1
    32    26    41    1
    33    16    17    1
    34    42    27    1
    35    38    21    1
    36    17    35    1
    37    17    12    1
    38    27    28    1
    39    21    22    1
    40     3    14    1
    41    14    13    1
    42    22    39    1
    43    13    12    1
    44    12     2    1
    45    28     5    1
@<TRIPOS>MOLECULE
lig_4yb0.pdb
 46 52 0 0 0
SMALL
GASTEIGER

@<TRIPOS>ATOM
      1 N         154.8360   45.7610  145.1210 N.ar    1  UNK11      -0.2693
      2 N         154.5910   46.1820  142.9560 N.ar    1  UNK11      -0.2173
      3 N         151.2270   44.6510  143.5260 N.ar    1  UNK11      -0.1709
      4 N         150.4800   43.8360  145.5720 N.pl3   1  UNK11      -0.0859
      5 N         152.6000   44.7480  145.4640 N.ar    1  UNK11      -0.1918
      6 N         159.4320   40.7910  142.2230 N.ar    1  UNK11      -0.2693
      7 N         157.6290   39.5580  142.7420 N.ar    1  UNK11      -0.2173
      8 N         156.3900   40.8770  139.4850 N.ar    1  UNK11      -0.1709
      9 N         157.5360   42.2900  138.0890 N.pl3   1  UNK11      -0.0859
     10 N         158.5630   41.6410  140.0680 N.ar    1  UNK11      -0.1918
     11 C         158.7280   46.6300  145.6280 C.3     1  UNK11       0.1812
     12 C         157.7810   45.9630  146.6130 C.3     1  UNK11       0.1773
     13 C         157.5090   44.4840  146.3690 C.3     1  UNK11       0.1860
     14 C         156.0370   44.3400  146.6860 C.3     1  UNK11       0.2309
     15 C         155.4420   45.7010  146.4720 C.3     1  UNK11       0.2408
     16 C         155.4220   46.2680  144.0220 C.ar    1  UNK11       0.1817
     17 C         153.4440   45.6110  143.3660 C.ar    1  UNK11       0.1748
     18 C         152.1550   45.2280  142.7430 C.ar    1  UNK11       0.3023
     19 C         151.4490   44.4230  144.8340 C.ar    1  UNK11       0.2606
     20 C         153.6160   45.3350  144.7950 C.ar    1  UNK11       0.1723
     21 C         160.6730   42.1500  145.8180 C.3     1  UNK11       0.1812
     22 C         161.2490   42.4290  144.4260 C.3     1  UNK11       0.1773
     23 C         160.4790   43.4580  143.6010 C.3     1  UNK11       0.1860
     24 C         160.6370   42.9240  142.1900 C.3     1  UNK11       0.2309
     25 C         160.7700   41.4230  142.3410 C.3     1  UNK11       0.2408
     26 C         158.8710   39.9640  143.1280 C.ar    1  UNK11       0.1817
     27 C         157.3720   40.1410  141.5600 C.ar    1  UNK11       0.1748
     28 C         156.2510   40.1370  140.5860 C.ar    1  UNK11       0.3023
     29 C         157.4970   41.5930  139.2340 C.ar    1  UNK11       0.2606
     30 C         158.5620   40.9480  141.2260 C.ar    1  UNK11       0.1723
     31 O         160.8260   47.3310  143.7280 O.3     1  UNK11      -0.4373
     32 O         159.5400   45.8830  142.0370 O.2     1  UNK11      -0.5172
     33 O         158.8800   45.8150  144.4730 O.3     1  UNK11      -0.3114
     34 O         156.5240   46.6180  146.5260 O.3     1  UNK11      -0.3307
     35 O         158.2400   43.7030  147.3030 O.3     1  UNK11      -0.3112
     36 O         155.8730   44.0280  148.0700 O.3     1  UNK11      -0.2156
     37 O         151.9530   45.4430  141.5240 O.2     1  UNK11      -0.2633
     38 O         157.0610   41.4660  146.9410 O.2     1  UNK11      -0.5172
     39 O         159.2750   41.6710  148.3520 O.3     1  UNK11      -0.4373
     40 O         159.2620   41.9430  145.8100 O.3     1  UNK11      -0.3114
     41 O         161.2610   41.2170  143.6680 O.3     1  UNK11      -0.3307
     42 O         161.0240   44.7710  143.7290 O.3     1  UNK11      -0.3112
     43 O         161.8460   43.4040  141.5960 O.3     1  UNK11      -0.2156
     44 O         155.1990   39.4910  140.7790 O.2     1  UNK11      -0.2633
     45 P         160.0840   46.0460  143.4330 P.3     1  UNK11       0.2141
     46 P         158.4130   42.0940  147.1770 P.3     1  UNK11       0.2141
@<TRIPOS>BOND
     1     9    29    1
     2    29     8   ar
     3    29    10   ar
     4     8    28   ar
     5    10    30   ar
     6    28    44    2
     7    28    27   ar
     8    30    27   ar
     9    30     6   ar
    10    37    18    2
    11    27     7   ar
    12    43    24    1
    13    32    45    2
    14    24    25    1
    15    24    23    1
    16     6    25    1
    17     6    26   ar
    18    25    41    1
    19     7    26   ar
    20    18    17   ar
    21    18     3   ar
    22     2    17   ar
    23     2    16   ar
    24    17    20   ar
    25    45    31    1
    26    45    42    1
    27    45    33    1
    28     3    19   ar
    29    23    42    1
    30    23    22    1
    31    41    22    1
    32    16     1   ar
    33    22    21    1
    34    33    11    1
    35    20     1   ar
    36    20     5   ar
    37    19     5   ar
    38    19     4    1
    39     1    15    1
    40    11    12    1
    41    40    21    1
    42    40    46    1
    43    13    12    1
    44    13    14    1
    45    13    35    1
    46    15    34    1
    47    15    14    1
    48    34    12    1
    49    14    36    1
    50    38    46    2
    51    46    35    1
    52    46    39    1
@<TRIPOS>MOLECULE
lig_4znp.pdb
 22 23 0 0 0
SMALL
GASTEIGER

@<TRIPOS>ATOM
      1 N          55.6290  -17.2250    7.8370 N.am    1  UNK11      -0.0823
      2 N          59.7190  -17.2480    9.4470 N.pl3   1  UNK11      -0.1071
      3 N          57.1930  -14.8820    8.7750 N.ar    1  UNK11      -0.2177
      4 N          59.2640  -14.9270    9.6420 N.ar    1  UNK11      -0.2702
      5 C          56.9030  -17.3470    8.1660 C.2     1  UNK11       0.3048
      6 C          57.5900  -16.1620    8.6990 C.ar    1  UNK11       0.1724
      7 C          58.9300  -16.1630    9.2890 C.ar    1  UNK11       0.1766
      8 C          58.1980  -14.1510    9.3320 C.ar    1  UNK11       0.1815
      9 C          60.5320  -14.4570   10.2640 C.3     1  UNK11       0.2408
     10 C          61.2930  -13.6080    9.2690 C.3     1  UNK11       0.2337
     11 C          61.8780  -12.5030   10.1110 C.3     1  UNK11       0.2161
     12 C          60.9580  -12.3910   11.2980 C.3     1  UNK11       0.1802
     13 C          59.9060  -11.3020   11.2250 C.3     1  UNK11       0.1825
     14 O          57.5100  -18.3800    8.0070 O.2     1  UNK11      -0.2649
     15 O          63.1790  -12.8840   10.5750 O.3     1  UNK11      -0.2175
     16 O          62.3040  -14.3780    8.6000 O.3     1  UNK11      -0.2155
     17 O          60.2530  -13.6060   11.3740 O.3     1  UNK11      -0.3306
     18 O          60.4890  -10.0170   11.1520 O.3     1  UNK11      -0.3001
     19 O          60.4530   -7.5520   10.9940 O.3     1  UNK11      -0.1534
     20 O          58.8530   -8.8510   12.4940 O.3     1  UNK11      -0.7578
     21 O          58.5840   -9.0190   10.0120 O.2     1  UNK11      -0.2722
     22 P          59.5270   -8.7420   11.1510 P.3     1  UNK11       0.3006
@<TRIPOS>BOND
     1     1     5   am
     2    14     5    2
     3     5     6    1
     4    16    10    1
     5     6     3   ar
     6     6     7   ar
     7     3     8   ar
     8    10    11    1
     9    10     9    1
    10     7     2    1
    11     7     4   ar
    12     8     4   ar
    13     4     9    1
    14    21    22    2
    15    11    15    1
    16    11    12    1
    17     9    17    1
    18    19    22    1
    19    22    18    1
    20    22    20    1
    21    18    13    1
    22    13    12    1
    23    12    17    1
@<TRIPOS>MOLECULE
lig_5btp.pdb
 22 23 0 0 0
SMALL
GASTEIGER

@<TRIPOS>ATOM
      1 N          12.9770  -59.7380  -36.8110 N.am    1  UNK11      -0.0823
      2 N          16.1210  -57.7300  -39.2880 N.pl3   1  UNK11      -0.1071
      3 N          15.9260  -59.4670  -36.1070 N.ar    1  UNK11      -0.2177
      4 N          17.4890  -58.4560  -37.3820 N.ar    1  UNK11      -0.2702
      5 C          13.8360  -59.1060  -37.6100 C.2     1  UNK11       0.3048
      6 C          15.2680  -59.0270  -37.2020 C.ar    1  UNK11       0.1724
      7 C          16.3200  -58.3780  -37.9990 C.ar    1  UNK11       0.1766
      8 C          17.2450  -59.1200  -36.2310 C.ar    1  UNK11       0.1815
      9 C          18.7870  -57.9240  -37.8580 C.3     1  UNK11       0.2408
     10 C          19.1950  -56.7080  -37.0420 C.3     1  UNK11       0.2337
     11 C          20.7000  -56.8010  -37.0270 C.3     1  UNK11       0.2161
     12 C          20.9620  -58.2940  -37.0630 C.3     1  UNK11       0.1802
     13 C          21.1150  -58.8310  -35.6480 C.3     1  UNK11       0.1825
     14 O          13.4790  -58.5830  -38.6540 O.2     1  UNK11      -0.2649
     15 O          21.2240  -56.2060  -38.2150 O.3     1  UNK11      -0.2175
     16 O          18.7820  -55.4980  -37.6780 O.3     1  UNK11      -0.2155
     17 O          19.8320  -58.8910  -37.7010 O.3     1  UNK11      -0.3306
     18 O          22.2110  -58.1610  -35.0280 O.3     1  UNK11      -0.3001
     19 O          21.4250  -58.2750  -32.6810 O.3     1  UNK11      -0.1534
     20 O          23.7750  -57.5140  -33.2620 O.3     1  UNK11      -0.7578
     21 O          23.1000  -59.9450  -33.6020 O.2     1  UNK11      -0.2722
     22 P          22.6620  -58.5020  -33.5190 P.3     1  UNK11       0.3006
@<TRIPOS>BOND
     1     2     7    1
     2    14     5    2
     3    15    11    1
     4     7     4   ar
     5     7     6   ar
     6     9    17    1
     7     9     4    1
     8     9    10    1
     9    17    12    1
    10    16    10    1
    11     5     6    1
    12     5     1   am
    13     4     8   ar
    14     6     3   ar
    15    12    11    1
    16    12    13    1
    17    10    11    1
    18     8     3   ar
    19    13    18    1
    20    18    22    1
    21    21    22    2
    22    22    20    1
    23    22    19    1
@<TRIPOS>MOLECULE
lig_5bws.pdb
 22 23 0 0 0
SMALL
GASTEIGER

@<TRIPOS>ATOM
      1 N          -8.7410   -0.3150    1.0850 N.3     1  UNK11      -0.1248
      2 N          -4.3990   -3.9570   -2.6100 N.3     1  UNK11      -0.1286
      3 N          -1.6340    2.2730    2.9730 N.3     1  UNK11      -0.1301
      4 N          -3.4880   -2.0880    1.3240 N.3     1  UNK11      -0.1302
      5 C          -6.7970   -0.8240   -0.4000 C.3     1  UNK11       0.2561
      6 C          -4.7790   -0.0120    0.8890 C.3     1  UNK11       0.1681
      7 C          -5.1880    1.4160    1.4660 C.3     1  UNK11       0.2119
      8 C          -3.8510    2.2620    1.6710 C.3     1  UNK11       0.2020
      9 C          -8.2470   -1.2780    0.0260 C.3     1  UNK11       0.1809
     10 C          -8.1560   -2.7220    0.5590 C.3     1  UNK11       0.2092
     11 C          -7.6490   -3.6790   -0.5340 C.3     1  UNK11       0.2211
     12 C          -6.2160   -3.2670   -1.0320 C.3     1  UNK11       0.1717
     13 C          -5.7230   -4.1990   -2.1760 C.3     1  UNK11       0.1417
     14 C          -2.9170    1.5200    2.7570 C.3     1  UNK11       0.1262
     15 C          -2.5270    0.0830    2.1420 C.3     1  UNK11       0.0433
     16 C          -3.8520   -0.7720    1.8900 C.3     1  UNK11       0.1231
     17 O          -5.9370   -0.8110    0.6960 O.3     1  UNK11      -0.3277
     18 O          -6.0510    2.0830    0.4630 O.3     1  UNK11      -0.2177
     19 O          -4.2360    3.5090    2.1680 O.3     1  UNK11      -0.2188
     20 O          -9.2150   -3.0510    0.8670 O.3     1  UNK11      -0.2184
     21 O          -6.3080   -1.7940   -1.4720 O.3     1  UNK11      -0.3274
     22 F          -8.5720   -3.6730   -1.6750 F       1  UNK11      -0.2318
@<TRIPOS>BOND
     1     2    13    1
     2    13    12    1
     3    22    11    1
     4    21    12    1
     5    21     5    1
     6    12    11    1
     7    11    10    1
     8     5     9    1
     9     5    17    1
    10     9    10    1
    11     9     1    1
    12    18     7    1
    13    10    20    1
    14    17     6    1
    15     6     7    1
    16     6    16    1
    17     4    16    1
    18     7     8    1
    19     8    19    1
    20     8    14    1
    21    16    15    1
    22    15    14    1
    23    14     3    1
@<TRIPOS>MOLECULE
lig_5bxk.pdb
 22 23 0 0 0
SMALL
GASTEIGER

@<TRIPOS>ATOM
      1 N          15.1790   -8.0680   26.8120 N.3     1  UNK11      -0.1248
      2 N          19.2010  -12.3640   23.3590 N.3     1  UNK11      -0.1286
      3 N          22.5140   -6.5870   29.1290 N.3     1  UNK11      -0.1301
      4 N          19.9860  -10.5770   27.4490 N.3     1  UNK11      -0.1302
      5 C          17.1460   -8.8830   25.5100 C.3     1  UNK11       0.2561
      6 C          19.1810   -8.3570   26.8630 C.3     1  UNK11       0.1681
      7 C          18.9960   -6.8130   27.3850 C.3     1  UNK11       0.2119
      8 C          20.4660   -6.2140   27.6570 C.3     1  UNK11       0.2020
      9 C          15.5680   -9.0370   25.6850 C.3     1  UNK11       0.1809
     10 C          15.1910  -10.5360   26.0040 C.3     1  UNK11       0.2092
     11 C          15.6470  -11.4480   24.7620 C.3     1  UNK11       0.2211
     12 C          17.2560  -11.3840   24.5830 C.3     1  UNK11       0.1717
     13 C          17.7900  -12.2480   23.4070 C.3     1  UNK11       0.1417
     14 C          21.1330   -7.0830   28.8330 C.3     1  UNK11       0.1262
     15 C          21.2850   -8.5940   28.2910 C.3     1  UNK11       0.0433
     16 C          19.8620   -9.2140   27.9570 C.3     1  UNK11       0.1231
     17 O          17.9480   -8.9950   26.6170 O.3     1  UNK11      -0.3277
     18 O          18.3450   -6.0280   26.2910 O.3     1  UNK11      -0.2177
     19 O          20.3190   -4.9080   28.1010 O.3     1  UNK11      -0.2188
     20 O          14.0210  -10.5930   26.1170 O.3     1  UNK11      -0.2184
     21 O          17.6300   -9.8660   24.3960 O.3     1  UNK11      -0.3274
     22 F          15.3110  -12.8600   24.9710 F       1  UNK11      -0.2318
@<TRIPOS>BOND
     1     2    13    1
     2    13    12    1
     3    21    12    1
     4    21     5    1
     5    12    11    1
     6    11    22    1
     7    11    10    1
     8     5     9    1
     9     5    17    1
    10     9    10    1
    11     9     1    1
    12    10    20    1
    13    18     7    1
    14    17     6    1
    15     6     7    1
    16     6    16    1
    17     7     8    1
    18     4    16    1
    19     8    19    1
    20     8    14    1
    21    16    15    1
    22    15    14    1
    23    14     3    1
@<TRIPOS>MOLECULE
lig_5c45.pdb
 27 30 0 0 0
SMALL
GASTEIGER

@<TRIPOS>ATOM
      1 N          27.9100   35.6300   20.1000 N.am    1  UNK11       0.0281
      2 N          27.6510   37.3750   21.6770 N.2     1  UNK11      -0.0437
      3 N          27.9700   40.3170   19.0220 N.3     1  UNK11      -0.2683
      4 N          27.3100   42.6520   23.1770 N.ar    1  UNK11      -0.2112
      5 N          29.5440   43.0060   22.3800 N.ar    1  UNK11      -0.2112
      6 N          28.9190   43.5470   24.5210 N.pl3   1  UNK11      -0.2020
      7 C          28.0290   36.8810   20.4670 C.2     1  UNK11       0.3456
      8 C          27.1690   36.5090   22.6170 C.2     1  UNK11       0.1881
      9 C          27.0480   35.1790   22.3380 C.3     1  UNK11       0.1905
     10 C          27.4060   34.7050   21.0150 C.2     1  UNK11       0.3604
     11 C          28.4740   37.9400   19.4700 C.3     1  UNK11       0.1259
     12 C          27.7700   39.2150   19.9590 C.3     1  UNK11       0.0846
     13 C          27.3650   39.9710   17.7160 C.3     1  UNK11       0.0724
     14 C          28.0300   38.7330   17.1220 C.3     1  UNK11       0.0180
     15 C          27.9450   37.5580   18.0830 C.3     1  UNK11       0.0151
     16 C          26.8370   37.2000   23.8570 C.ar    1  UNK11       0.0687
     17 C          26.5600   38.8440   25.6620 C.ar    1  UNK11       0.0356
     18 C          26.0030   37.6600   25.9330 C.ar    1  UNK11       0.0076
     19 C          26.1570   36.7120   24.9030 C.ar    1  UNK11       0.0104
     20 C          27.4570   41.6020   19.5320 C.3     1  UNK11       0.1023
     21 C          27.8940   42.0290   20.9200 C.ar    1  UNK11       0.0323
     22 C          26.9930   42.1720   21.9630 C.ar    1  UNK11       0.1005
     23 C          28.5870   43.0360   23.3270 C.ar    1  UNK11       0.2366
     24 C          29.1600   42.5260   21.1850 C.ar    1  UNK11       0.1005
     25 C          28.1550   43.3830   25.7410 C.3     1  UNK11       0.1387
     26 O          27.2790   33.5230   20.6730 O.2     1  UNK11      -0.2424
     27 S          27.2580   38.8480   24.1350 S.2     1  UNK11      -0.0830
@<TRIPOS>BOND
     1    14    13    1
     2    14    15    1
     3    13     3    1
     4    15    11    1
     5     3    20    1
     6     3    12    1
     7    11    12    1
     8    11     7    1
     9    20    21    1
    10     1     7    2
    11     1    10    1
    12     7     2    1
    13    26    10    2
    14    21    24   ar
    15    21    22   ar
    16    10     9    1
    17    24     5   ar
    18     2     8    2
    19    22     4   ar
    20     9     8    1
    21     5    23   ar
    22     8    16    1
    23     4    23   ar
    24    23     6    1
    25    16    27   ar
    26    16    19   ar
    27    27    17   ar
    28     6    25    1
    29    19    18   ar
    30    17    18   ar
@<TRIPOS>MOLECULE
lig_5kx9.pdb
 27 30 0 0 0
SMALL
GASTEIGER

@<TRIPOS>ATOM
      1 N          27.8470   35.6860   19.9580 N.am    1  UNK11       0.0281
      2 N          27.8470   37.4160   21.5700 N.2     1  UNK11      -0.0437
      3 N          27.9870   40.4050   19.0160 N.3     1  UNK11      -0.2683
      4 N          26.8100   42.3540   23.2610 N.ar    1  UNK11      -0.1930
      5 N          29.0580   42.9610   22.7480 N.ar    1  UNK11      -0.1930
      6 C          28.1010   36.9150   20.3350 C.2     1  UNK11       0.3456
      7 C          27.3310   36.5810   22.5210 C.2     1  UNK11       0.1881
      8 C          27.0610   35.2760   22.2240 C.3     1  UNK11       0.1905
      9 C          27.3090   34.7950   20.8860 C.2     1  UNK11       0.3604
     10 C          28.5610   38.0100   19.3480 C.3     1  UNK11       0.1259
     11 C          27.8930   39.2660   19.9310 C.3     1  UNK11       0.0846
     12 C          27.2650   40.0850   17.7740 C.3     1  UNK11       0.0724
     13 C          27.9080   38.9100   17.0650 C.3     1  UNK11       0.0180
     14 C          27.9580   37.6870   17.9710 C.3     1  UNK11       0.0151
     15 C          27.1510   37.2440   23.8060 C.ar    1  UNK11       0.0687
     16 C          27.0880   38.8690   25.6370 C.ar    1  UNK11       0.0356
     17 C          26.6630   37.6550   26.0070 C.ar    1  UNK11       0.0076
     18 C          26.6990   36.7040   24.9690 C.ar    1  UNK11       0.0104
     19 C          27.4520   41.6400   19.6170 C.3     1  UNK11       0.1023
     20 C          27.7320   41.8260   21.0910 C.ar    1  UNK11       0.0324
     21 C          26.7010   41.8510   22.0180 C.ar    1  UNK11       0.1022
     22 C          27.9970   42.8750   23.5340 C.ar    1  UNK11       0.3201
     23 C          28.8860   42.4490   21.5200 C.ar    1  UNK11       0.1022
     24 C          29.2420   43.0050   25.5450 C.3     1  UNK11       0.2559
     25 O          27.0410   33.6410   20.5280 O.2     1  UNK11      -0.2424
     26 O          28.0990   43.3820   24.7680 O.3     1  UNK11      -0.4426
     27 S          27.4950   38.9220   24.0110 S.2     1  UNK11      -0.0830
@<TRIPOS>BOND
     1    13    12    1
     2    13    14    1
     3    12     3    1
     4    14    10    1
     5     3    19    1
     6     3    11    1
     7    10    11    1
     8    10     6    1
     9    19    20    1
    10     1     6    2
    11     1     9    1
    12     6     2    1
    13    25     9    2
    14     9     8    1
    15    20    23   ar
    16    20    21   ar
    17    23     5   ar
    18     2     7    2
    19    21     4   ar
    20     8     7    1
    21     7    15    1
    22     5    22   ar
    23     4    22   ar
    24    22    26    1
    25    15    27   ar
    26    15    18   ar
    27    27    16   ar
    28    26    24    1
    29    18    17   ar
    30    16    17   ar
@<TRIPOS>MOLECULE
lig_5lwj.pdb
 32 34 0 0 0
SMALL
GASTEIGER

@<TRIPOS>ATOM
      1 N           0.3800   13.1560    2.6680 N.ar    1  UNK11      -0.2693
      2 N          -1.7310   12.6770    3.2760 N.ar    1  UNK11      -0.2173
      3 N           0.0730   11.4850    6.2990 N.ar    1  UNK11      -0.1709
      4 N           2.3900   11.2990    6.5270 N.pl3   1  UNK11      -0.0859
      5 N           1.5750   12.2560    4.5920 N.ar    1  UNK11      -0.1918
      6 C           2.2240   17.1390    1.0080 C.3     1  UNK11       0.1813
      7 C           2.3950   15.6150    1.0590 C.3     1  UNK11       0.1801
      8 C           1.7120   14.8740   -0.1040 C.3     1  UNK11       0.2161
      9 C           1.5490   13.4510    0.4310 C.3     1  UNK11       0.2337
     10 C           1.5490   13.6930    1.9400 C.3     1  UNK11       0.2409
     11 C          -0.9520   13.1580    2.3410 C.ar    1  UNK11       0.1817
     12 C          -0.8540   12.3040    4.2900 C.ar    1  UNK11       0.1748
     13 C          -1.1040   11.7530    5.5870 C.ar    1  UNK11       0.3023
     14 C           1.3450   11.6950    5.7910 C.ar    1  UNK11       0.2606
     15 C           0.4410   12.5430    3.8960 C.ar    1  UNK11       0.1723
     16 O           4.7030   20.7060    3.0390 O.2     1  UNK11      -0.2719
     17 O           6.2880   22.3290    3.9750 O.3     1  UNK11      -0.7576
     18 O           7.0320   19.9890    3.9250 O.3     1  UNK11      -0.1531
     19 O           6.6870   20.8840    1.7640 O.3     1  UNK11      -0.2585
     20 O           6.9480   19.4300   -0.1280 O.2     1  UNK11      -0.5168
     21 O           7.9810   18.8400    1.9720 O.3     1  UNK11      -0.4369
     22 O           5.5660   18.7370    1.7540 O.3     1  UNK11      -0.2701
     23 O           4.3760   18.6780   -0.4360 O.2     1  UNK11      -0.5170
     24 O           5.1860   16.5570    0.5920 O.3     1  UNK11      -0.4371
     25 O           3.3270   17.8290    1.5640 O.3     1  UNK11      -0.3112
     26 O           1.7080   15.0810    2.1720 O.3     1  UNK11      -0.3306
     27 O           2.4000   14.9180   -1.3430 O.3     1  UNK11      -0.2175
     28 O           2.6530   12.6270    0.1030 O.3     1  UNK11      -0.2155
     29 O          -2.1930   11.5220    6.1090 O.2     1  UNK11      -0.2633
     30 P           6.1900   20.9510    3.1240 P.3     1  UNK11       0.3052
     31 P           6.7930   19.4660    1.3450 P.3     1  UNK11       0.2246
     32 P           4.7470   17.9560    0.7980 P.3     1  UNK11       0.2189
@<TRIPOS>BOND
     1    27     8    1
     2    23    32    2
     3    20    31    2
     4     8     9    1
     5     8     7    1
     6    28     9    1
     7     9    10    1
     8    24    32    1
     9    32    25    1
    10    32    22    1
    11     6     7    1
    12     6    25    1
    13     7    26    1
    14    31    22    1
    15    31    19    1
    16    31    21    1
    17    19    30    1
    18    10    26    1
    19    10     1    1
    20    11     1   ar
    21    11     2   ar
    22     1    15   ar
    23    16    30    2
    24    30    18    1
    25    30    17    1
    26     2    12   ar
    27    15    12   ar
    28    15     5   ar
    29    12    13   ar
    30     5    14   ar
    31    13    29    2
    32    13     3   ar
    33    14     3   ar
    34    14     4    1
@<TRIPOS>MOLECULE
lig_5uza.pdb
 10 11 0 0 0
SMALL
GASTEIGER

@<TRIPOS>ATOM
      1 N         -30.9490   18.8720  -17.6800 N.ar    1  UNK11      -0.2032
      2 N         -29.7760   17.0370  -18.2280 N.ar    1  UNK11      -0.2179
      3 N         -29.3090   14.8560  -16.1130 N.pl3   1  UNK11      -0.1054
      4 N         -30.5260   16.2230  -14.6920 N.ar    1  UNK11      -0.2040
      5 N         -31.4480   18.3490  -15.3520 N.ar    1  UNK11      -0.2031
      6 C         -30.2570   18.1860  -18.6400 C.ar    1  UNK11       0.2005
      7 C         -30.1790   16.9640  -16.9050 C.ar    1  UNK11       0.1534
      8 C         -29.9900   15.9880  -15.9090 C.ar    1  UNK11       0.1919
      9 C         -31.2040   17.3590  -14.4940 C.ar    1  UNK11       0.2016
     10 C         -30.9030   18.0870  -16.5500 C.ar    1  UNK11       0.1862
@<TRIPOS>BOND
     1     6     2   ar
     2     6     1   ar
     3     2     7   ar
     4     1    10   ar
     5     7    10   ar
     6     7     8   ar
     7    10     5   ar
     8     3     8    1
     9     8     4   ar
    10     5     9   ar
    11     4     9   ar
@<TRIPOS>MOLECULE
lig_6bfb.pdb
 30 34 0 0 0
SMALL
GASTEIGER

@<TRIPOS>ATOM
      1 N          25.7500   38.3150   21.0110 N.pl3   1  UNK11      -0.3009
      2 N          27.0400   41.9010   24.1710 N.ar    1  UNK11      -0.3039
      3 N          27.5530   40.3860   21.8440 N.pl3   1  UNK11      -0.2985
      4 N          24.8790   36.3740   18.0690 N.3     1  UNK11      -0.2679
      5 C          26.8810   37.3820   21.0100 C.3     1  UNK11       0.1254
      6 C          26.6620   36.6330   19.7040 C.3     1  UNK11       0.1877
      7 C          25.4690   39.1330   22.1860 C.ar    1  UNK11       0.0907
      8 C          24.3010   39.0060   22.9650 C.ar    1  UNK11       0.1547
      9 C          24.0210   39.7940   24.0530 C.ar    1  UNK11       0.0353
     10 C          24.5870   41.6790   25.5900 C.2     1  UNK11       0.1911
     11 C          29.0720   42.8970   24.2160 C.ar    1  UNK11       0.0513
     12 C          28.6520   40.8630   22.6650 C.3     1  UNK11       0.1361
     13 C          26.3950   40.1340   22.5960 C.ar    1  UNK11       0.0803
     14 C          25.3070   43.6870   27.0090 C.2     1  UNK11       0.3778
     15 C          25.5920   42.7240   25.9120 C.3     1  UNK11       0.2092
     16 C          26.8060   42.8010   25.2080 C.ar    1  UNK11       0.0890
     17 C          28.3350   41.9460   23.6350 C.ar    1  UNK11       0.0681
     18 C          26.1170   40.9310   23.7290 C.ar    1  UNK11       0.0813
     19 C          24.9190   40.7860   24.4450 C.ar    1  UNK11       0.0553
     20 C          27.2510   41.1860   20.6760 C.3     1  UNK11       0.1126
     21 C          24.6820   37.8610   20.1270 C.3     1  UNK11       0.1095
     22 C          25.5250   37.3440   18.9740 C.3     1  UNK11       0.1098
     23 C          25.5950   36.1180   16.8060 C.3     1  UNK11       0.0897
     24 C          24.4740   35.1320   18.7450 C.3     1  UNK11       0.0897
     25 O          26.0600   43.7780   27.9800 O.co2   1  UNK11      -0.2447
     26 O          24.2040   44.4170   26.8890 O.co2   1  UNK11      -0.2447
     27 O          23.5540   41.5200   26.2500 O.2     1  UNK11      -0.2903
     28 O          27.7960   36.7370   18.8420 O.3     1  UNK11      -0.2198
     29 F          23.4120   38.0430   22.6500 F       1  UNK11      -0.2028
     30 S          28.2220   43.7380   25.4460 S.2     1  UNK11      -0.0711
@<TRIPOS>BOND
     1    23     4    1
     2     4    24    1
     3     4    22    1
     4    28     6    1
     5    22     6    1
     6    22    21    1
     7     6     5    1
     8    21     1    1
     9    20     3    1
    10     5     1    1
    11     1     7    1
    12     3    13    1
    13     3    12    1
    14     7    13   ar
    15     7     8   ar
    16    13    18   ar
    17    29     8    1
    18    12    17    1
    19     8     9   ar
    20    17     2   ar
    21    17    11   ar
    22    18     2    1
    23    18    19   ar
    24     9    19   ar
    25     2    16   ar
    26    11    30   ar
    27    19    10    1
    28    16    30   ar
    29    16    15    1
    30    10    15    1
    31    10    27    2
    32    15    14    1
    33    26    14   ar
    34    14    25   ar
