ligand
 OpenBabel01301917033D
libRbt.so/2013.1/901 2013/11/27
 11 12  0  0  0  0  0  0  0  0999 V2000
  -11.9292  -12.6353    8.9916 N   0  0  0  0  0  0  0  0  0  0  0  0
  -11.5565  -13.9191    9.1168 C   0  0  0  0  0  0  0  0  0  0  0  0
  -11.5885  -14.5025   10.3116 N   0  0  0  0  0  0  0  0  0  0  0  0
  -11.1417  -14.6168    8.0481 N   0  0  0  0  0  0  0  0  0  0  0  0
  -11.0885  -14.0452    6.8359 C   0  0  0  0  0  0  0  0  0  0  0  0
  -11.4683  -12.7183    6.6786 C   0  0  0  0  0  0  0  0  0  0  0  0
  -11.8969  -12.0168    7.8006 C   0  0  0  0  0  0  0  0  0  0  0  0
  -12.2788  -10.7476    7.6936 N   0  0  0  0  0  0  0  0  0  0  0  0
  -11.3061  -12.4050    5.3966 N   0  0  0  0  0  0  0  0  0  0  0  0
  -10.8439  -13.4840    4.7689 C   0  0  0  0  0  0  0  0  0  0  0  0
  -10.7103  -14.4832    5.6385 N   0  0  0  0  0  0  0  0  0  0  0  0
  1  7  2  0  0  0  0
  1  2  1  0  0  0  0
  2  3  1  0  0  0  0
  2  4  2  0  0  0  0
  4  5  1  0  0  0  0
  5  6  2  0  0  0  0
  5 11  1  0  0  0  0
  6  7  1  0  0  0  0
  6  9  1  0  0  0  0
  7  8  1  0  0  0  0
  9 10  1  0  0  0  0
 10 11  2  0  0  0  0
M  END
>  <CHROM.1>
-11.44174662,-13.23377584,7.41332784,2.02804518,-1.21878557,2.12115826

>  <Name>
ligand

>  <RI>
0

>  <Rbt.Current_Directory>
/home/itssahil/PROJECTS/Mol_Feturizer/New_Systems/rnas/2b57

>  <Rbt.Executable>
rbdock ($Id: //depot/dev/client3/rdock/2013.1/src/exe/rbdock.cxx#4 $)

>  <Rbt.Library>
libRbt.so (2013.1, Build901 2013/11/27)

>  <Rbt.Parameter_File>
/export/apps/rDock/src/rDock_2013.1_src/data/scripts/dock_solv.prm

>  <Rbt.Receptor>
prm/pocket_docking_8.prm

>  <SCORE>
-11.47

>  <SCORE.INTER>
-11.47

>  <SCORE.INTER.CONST>
1

>  <SCORE.INTER.POLAR>
0

>  <SCORE.INTER.ROT>
0

>  <SCORE.INTER.SOLV>
21.1111

>  <SCORE.INTER.VDW>
-18.2837

>  <SCORE.INTER.norm>
-1.04273

>  <SCORE.INTRA>
0

>  <SCORE.INTRA.DIHEDRAL>
0

>  <SCORE.INTRA.DIHEDRAL.0>
0

>  <SCORE.INTRA.POLAR>
0

>  <SCORE.INTRA.POLAR.0>
0

>  <SCORE.INTRA.REPUL>
0

>  <SCORE.INTRA.REPUL.0>
0

>  <SCORE.INTRA.SOLV>
0

>  <SCORE.INTRA.SOLV.lig_0>
-48.3454

>  <SCORE.INTRA.VDW>
0

>  <SCORE.INTRA.VDW.0>
0

>  <SCORE.INTRA.norm>
0

>  <SCORE.RESTR>
0

>  <SCORE.RESTR.CAVITY>
0

>  <SCORE.RESTR.norm>
0

>  <SCORE.SYSTEM>
0

>  <SCORE.SYSTEM.CONST>
0

>  <SCORE.SYSTEM.DIHEDRAL>
0

>  <SCORE.SYSTEM.SOLV>
0

>  <SCORE.SYSTEM.norm>
0

>  <SCORE.heavy>
11

>  <SCORE.norm>
-1.04273

>  <RMSD>
0.424

$$$$
ligand
 OpenBabel01301917033D
libRbt.so/2013.1/901 2013/11/27
 11 12  0  0  0  0  0  0  0  0999 V2000
  -11.9047  -12.6171    8.9371 N   0  0  0  0  0  0  0  0  0  0  0  0
  -11.5270  -13.8972    9.0832 C   0  0  0  0  0  0  0  0  0  0  0  0
  -11.5392  -14.4558   10.2903 N   0  0  0  0  0  0  0  0  0  0  0  0
  -11.1269  -14.6161    8.0229 N   0  0  0  0  0  0  0  0  0  0  0  0
  -11.0936  -14.0697    6.7985 C   0  0  0  0  0  0  0  0  0  0  0  0
  -11.4791  -12.7472    6.6195 C   0  0  0  0  0  0  0  0  0  0  0  0
  -11.8922  -12.0235    7.7332 C   0  0  0  0  0  0  0  0  0  0  0  0
  -12.2788  -10.7576    7.6057 N   0  0  0  0  0  0  0  0  0  0  0  0
  -11.3374  -12.4603    5.3289 N   0  0  0  0  0  0  0  0  0  0  0  0
  -10.8821  -13.5511    4.7168 C   0  0  0  0  0  0  0  0  0  0  0  0
  -10.7327  -14.5317    5.6048 N   0  0  0  0  0  0  0  0  0  0  0  0
  1  7  2  0  0  0  0
  1  2  1  0  0  0  0
  2  3  1  0  0  0  0
  2  4  2  0  0  0  0
  4  5  1  0  0  0  0
  5  6  2  0  0  0  0
  5 11  1  0  0  0  0
  6  7  1  0  0  0  0
  6  9  1  0  0  0  0
  7  8  1  0  0  0  0
  9 10  1  0  0  0  0
 10 11  2  0  0  0  0
M  END
>  <CHROM.1>
-11.44002135,-13.24727431,7.36432050,1.98577591,-1.22438964,2.06066075

>  <Name>
ligand

>  <RI>
0

>  <Rbt.Current_Directory>
/home/itssahil/PROJECTS/Mol_Feturizer/New_Systems/rnas/2b57

>  <Rbt.Executable>
rbdock ($Id: //depot/dev/client3/rdock/2013.1/src/exe/rbdock.cxx#4 $)

>  <Rbt.Library>
libRbt.so (2013.1, Build901 2013/11/27)

>  <Rbt.Parameter_File>
/export/apps/rDock/src/rDock_2013.1_src/data/scripts/dock_solv.prm

>  <Rbt.Receptor>
prm/blind_docking_40.prm

>  <SCORE>
-11.4175

>  <SCORE.INTER>
-11.4175

>  <SCORE.INTER.CONST>
1

>  <SCORE.INTER.POLAR>
0

>  <SCORE.INTER.ROT>
0

>  <SCORE.INTER.SOLV>
21.0182

>  <SCORE.INTER.VDW>
-18.2177

>  <SCORE.INTER.norm>
-1.03795

>  <SCORE.INTRA>
0

>  <SCORE.INTRA.DIHEDRAL>
0

>  <SCORE.INTRA.DIHEDRAL.0>
0

>  <SCORE.INTRA.POLAR>
0

>  <SCORE.INTRA.POLAR.0>
0

>  <SCORE.INTRA.REPUL>
0

>  <SCORE.INTRA.REPUL.0>
0

>  <SCORE.INTRA.SOLV>
0

>  <SCORE.INTRA.SOLV.lig_0>
-48.3454

>  <SCORE.INTRA.VDW>
0

>  <SCORE.INTRA.VDW.0>
0

>  <SCORE.INTRA.norm>
0

>  <SCORE.RESTR>
0

>  <SCORE.RESTR.CAVITY>
0

>  <SCORE.RESTR.norm>
0

>  <SCORE.SYSTEM>
0

>  <SCORE.SYSTEM.CONST>
0

>  <SCORE.SYSTEM.DIHEDRAL>
0

>  <SCORE.SYSTEM.SOLV>
0

>  <SCORE.SYSTEM.norm>
0

>  <SCORE.heavy>
11

>  <SCORE.norm>
-1.03795

>  <RMSD>
0.477

$$$$
ligand
 OpenBabel01301917033D
libRbt.so/2013.1/901 2013/11/27
 11 12  0  0  0  0  0  0  0  0999 V2000
  -11.8949  -12.6153    8.9284 N   0  0  0  0  0  0  0  0  0  0  0  0
  -11.5336  -13.8995    9.0798 C   0  0  0  0  0  0  0  0  0  0  0  0
  -11.5529  -14.4528   10.2891 N   0  0  0  0  0  0  0  0  0  0  0  0
  -11.1428  -14.6278    8.0224 N   0  0  0  0  0  0  0  0  0  0  0  0
  -11.1026  -14.0869    6.7958 C   0  0  0  0  0  0  0  0  0  0  0  0
  -11.4711  -12.7603    6.6113 C   0  0  0  0  0  0  0  0  0  0  0  0
  -11.8749  -12.0268    7.7220 C   0  0  0  0  0  0  0  0  0  0  0  0
  -12.2452  -10.7566    7.5894 N   0  0  0  0  0  0  0  0  0  0  0  0
  -11.3258  -12.4805    5.3196 N   0  0  0  0  0  0  0  0  0  0  0  0
  -10.8846  -13.5796    4.7119 C   0  0  0  0  0  0  0  0  0  0  0  0
  -10.7477  -14.5584    5.6040 N   0  0  0  0  0  0  0  0  0  0  0  0
  1  7  2  0  0  0  0
  1  2  1  0  0  0  0
  2  3  1  0  0  0  0
  2  4  2  0  0  0  0
  4  5  1  0  0  0  0
  5  6  2  0  0  0  0
  5 11  1  0  0  0  0
  6  7  1  0  0  0  0
  6  9  1  0  0  0  0
  7  8  1  0  0  0  0
  9 10  1  0  0  0  0
 10 11  2  0  0  0  0
M  END
>  <CHROM.1>
-11.43838899,-13.25776710,7.35819598,2.00395098,-1.23567322,2.07367407

>  <Name>
ligand

>  <RI>
0

>  <Rbt.Current_Directory>
/home/itssahil/PROJECTS/Mol_Feturizer/New_Systems/rnas/2b57

>  <Rbt.Executable>
rbdock ($Id: //depot/dev/client3/rdock/2013.1/src/exe/rbdock.cxx#4 $)

>  <Rbt.Library>
libRbt.so (2013.1, Build901 2013/11/27)

>  <Rbt.Parameter_File>
/export/apps/rDock/src/rDock_2013.1_src/data/scripts/dock_solv.prm

>  <Rbt.Receptor>
prm/pocket_docking_6.prm

>  <SCORE>
-11.368

>  <SCORE.INTER>
-11.368

>  <SCORE.INTER.CONST>
1

>  <SCORE.INTER.POLAR>
0

>  <SCORE.INTER.ROT>
0

>  <SCORE.INTER.SOLV>
21.1198

>  <SCORE.INTER.VDW>
-18.2186

>  <SCORE.INTER.norm>
-1.03345

>  <SCORE.INTRA>
0

>  <SCORE.INTRA.DIHEDRAL>
0

>  <SCORE.INTRA.DIHEDRAL.0>
0

>  <SCORE.INTRA.POLAR>
0

>  <SCORE.INTRA.POLAR.0>
0

>  <SCORE.INTRA.REPUL>
0

>  <SCORE.INTRA.REPUL.0>
0

>  <SCORE.INTRA.SOLV>
0

>  <SCORE.INTRA.SOLV.lig_0>
-48.3454

>  <SCORE.INTRA.VDW>
0

>  <SCORE.INTRA.VDW.0>
0

>  <SCORE.INTRA.norm>
0

>  <SCORE.RESTR>
0

>  <SCORE.RESTR.CAVITY>
0

>  <SCORE.RESTR.norm>
0

>  <SCORE.SYSTEM>
0

>  <SCORE.SYSTEM.CONST>
0

>  <SCORE.SYSTEM.DIHEDRAL>
0

>  <SCORE.SYSTEM.SOLV>
0

>  <SCORE.SYSTEM.norm>
0

>  <SCORE.heavy>
11

>  <SCORE.norm>
-1.03345

>  <RMSD>
0.488

$$$$
ligand
 OpenBabel01301917033D
libRbt.so/2013.1/901 2013/11/27
 11 12  0  0  0  0  0  0  0  0999 V2000
  -11.8973  -12.6556    8.9297 N   0  0  0  0  0  0  0  0  0  0  0  0
  -11.5413  -13.9438    9.0587 C   0  0  0  0  0  0  0  0  0  0  0  0
  -11.5753  -14.5217   10.2561 N   0  0  0  0  0  0  0  0  0  0  0  0
  -11.1412  -14.6515    7.9909 N   0  0  0  0  0  0  0  0  0  0  0  0
  -11.0862  -14.0858    6.7761 C   0  0  0  0  0  0  0  0  0  0  0  0
  -11.4489  -12.7546    6.6149 C   0  0  0  0  0  0  0  0  0  0  0  0
  -11.8625  -12.0427    7.7360 C   0  0  0  0  0  0  0  0  0  0  0  0
  -12.2277  -10.7689    7.6254 N   0  0  0  0  0  0  0  0  0  0  0  0
  -11.2888  -12.4489    5.3308 N   0  0  0  0  0  0  0  0  0  0  0  0
  -10.8442  -13.5368    4.7055 C   0  0  0  0  0  0  0  0  0  0  0  0
  -10.7198  -14.5340    5.5787 N   0  0  0  0  0  0  0  0  0  0  0  0
  1  7  2  0  0  0  0
  1  2  1  0  0  0  0
  2  3  1  0  0  0  0
  2  4  2  0  0  0  0
  4  5  1  0  0  0  0
  5  6  2  0  0  0  0
  5 11  1  0  0  0  0
  6  7  1  0  0  0  0
  6  9  1  0  0  0  0
  7  8  1  0  0  0  0
  9 10  1  0  0  0  0
 10 11  2  0  0  0  0
M  END
>  <CHROM.1>
-11.42567255,-13.26732397,7.35171915,2.03668019,-1.23282441,2.12502627

>  <Name>
ligand

>  <RI>
0

>  <Rbt.Current_Directory>
/home/itssahil/PROJECTS/Mol_Feturizer/New_Systems/rnas/2b57

>  <Rbt.Executable>
rbdock ($Id: //depot/dev/client3/rdock/2013.1/src/exe/rbdock.cxx#4 $)

>  <Rbt.Library>
libRbt.so (2013.1, Build901 2013/11/27)

>  <Rbt.Parameter_File>
/export/apps/rDock/src/rDock_2013.1_src/data/scripts/dock_solv.prm

>  <Rbt.Receptor>
prm/pocket_docking_8.prm

>  <SCORE>
-11.4362

>  <SCORE.INTER>
-11.4362

>  <SCORE.INTER.CONST>
1

>  <SCORE.INTER.POLAR>
0

>  <SCORE.INTER.ROT>
0

>  <SCORE.INTER.SOLV>
21.2625

>  <SCORE.INTER.VDW>
-18.3116

>  <SCORE.INTER.norm>
-1.03965

>  <SCORE.INTRA>
0

>  <SCORE.INTRA.DIHEDRAL>
0

>  <SCORE.INTRA.DIHEDRAL.0>
0

>  <SCORE.INTRA.POLAR>
0

>  <SCORE.INTRA.POLAR.0>
0

>  <SCORE.INTRA.REPUL>
0

>  <SCORE.INTRA.REPUL.0>
0

>  <SCORE.INTRA.SOLV>
0

>  <SCORE.INTRA.SOLV.lig_0>
-48.3454

>  <SCORE.INTRA.VDW>
0

>  <SCORE.INTRA.VDW.0>
0

>  <SCORE.INTRA.norm>
0

>  <SCORE.RESTR>
0

>  <SCORE.RESTR.CAVITY>
0

>  <SCORE.RESTR.norm>
0

>  <SCORE.SYSTEM>
0

>  <SCORE.SYSTEM.CONST>
0

>  <SCORE.SYSTEM.DIHEDRAL>
0

>  <SCORE.SYSTEM.SOLV>
0

>  <SCORE.SYSTEM.norm>
0

>  <SCORE.heavy>
11

>  <SCORE.norm>
-1.03965

>  <RMSD>
0.494

$$$$
ligand
 OpenBabel01301917033D
libRbt.so/2013.1/901 2013/11/27
 11 12  0  0  0  0  0  0  0  0999 V2000
  -11.9074  -12.6683    8.9204 N   0  0  0  0  0  0  0  0  0  0  0  0
  -11.5600  -13.9598    9.0386 C   0  0  0  0  0  0  0  0  0  0  0  0
  -11.5962  -14.5470   10.2314 N   0  0  0  0  0  0  0  0  0  0  0  0
  -11.1662  -14.6618    7.9646 N   0  0  0  0  0  0  0  0  0  0  0  0
  -11.1091  -14.0868    6.7542 C   0  0  0  0  0  0  0  0  0  0  0  0
  -11.4630  -12.7519    6.6041 C   0  0  0  0  0  0  0  0  0  0  0  0
  -11.8702  -12.0461    7.7315 C   0  0  0  0  0  0  0  0  0  0  0  0
  -12.2269  -10.7691    7.6315 N   0  0  0  0  0  0  0  0  0  0  0  0
  -11.3027  -12.4372    5.3223 N   0  0  0  0  0  0  0  0  0  0  0  0
  -10.8664  -13.5230    4.6877 C   0  0  0  0  0  0  0  0  0  0  0  0
  -10.7476  -14.5279    5.5528 N   0  0  0  0  0  0  0  0  0  0  0  0
  1  7  2  0  0  0  0
  1  2  1  0  0  0  0
  2  3  1  0  0  0  0
  2  4  2  0  0  0  0
  4  5  1  0  0  0  0
  5  6  2  0  0  0  0
  5 11  1  0  0  0  0
  6  7  1  0  0  0  0
  6  9  1  0  0  0  0
  7  8  1  0  0  0  0
  9 10  1  0  0  0  0
 10 11  2  0  0  0  0
M  END
>  <CHROM.1>
-11.44222340,-13.27061562,7.33685268,2.04390662,-1.23935640,2.13979224

>  <Name>
ligand

>  <RI>
0

>  <Rbt.Current_Directory>
/home/itssahil/PROJECTS/Mol_Feturizer/New_Systems/rnas/2b57

>  <Rbt.Executable>
rbdock ($Id: //depot/dev/client3/rdock/2013.1/src/exe/rbdock.cxx#4 $)

>  <Rbt.Library>
libRbt.so (2013.1, Build901 2013/11/27)

>  <Rbt.Parameter_File>
/export/apps/rDock/src/rDock_2013.1_src/data/scripts/dock_solv.prm

>  <Rbt.Receptor>
prm/pocket_docking_3.prm

>  <SCORE>
-11.4094

>  <SCORE.INTER>
-11.4094

>  <SCORE.INTER.CONST>
1

>  <SCORE.INTER.POLAR>
0

>  <SCORE.INTER.ROT>
0

>  <SCORE.INTER.SOLV>
21.3087

>  <SCORE.INTER.VDW>
-18.3092

>  <SCORE.INTER.norm>
-1.03722

>  <SCORE.INTRA>
0

>  <SCORE.INTRA.DIHEDRAL>
0

>  <SCORE.INTRA.DIHEDRAL.0>
0

>  <SCORE.INTRA.POLAR>
0

>  <SCORE.INTRA.POLAR.0>
0

>  <SCORE.INTRA.REPUL>
0

>  <SCORE.INTRA.REPUL.0>
0

>  <SCORE.INTRA.SOLV>
0

>  <SCORE.INTRA.SOLV.lig_0>
-48.3454

>  <SCORE.INTRA.VDW>
0

>  <SCORE.INTRA.VDW.0>
0

>  <SCORE.INTRA.norm>
0

>  <SCORE.RESTR>
0

>  <SCORE.RESTR.CAVITY>
0

>  <SCORE.RESTR.norm>
0

>  <SCORE.SYSTEM>
0

>  <SCORE.SYSTEM.CONST>
0

>  <SCORE.SYSTEM.DIHEDRAL>
0

>  <SCORE.SYSTEM.SOLV>
0

>  <SCORE.SYSTEM.norm>
0

>  <SCORE.heavy>
11

>  <SCORE.norm>
-1.03722

>  <RMSD>
0.505

$$$$
ligand
 OpenBabel01301917033D
libRbt.so/2013.1/901 2013/11/27
 11 12  0  0  0  0  0  0  0  0999 V2000
  -11.8959  -12.6701    8.9097 N   0  0  0  0  0  0  0  0  0  0  0  0
  -11.5460  -13.9611    9.0266 C   0  0  0  0  0  0  0  0  0  0  0  0
  -11.5762  -14.5481   10.2197 N   0  0  0  0  0  0  0  0  0  0  0  0
  -11.1557  -14.6626    7.9511 N   0  0  0  0  0  0  0  0  0  0  0  0
  -11.1046  -14.0877    6.7404 C   0  0  0  0  0  0  0  0  0  0  0  0
  -11.4611  -12.7534    6.5916 C   0  0  0  0  0  0  0  0  0  0  0  0
  -11.8647  -12.0481    7.7206 C   0  0  0  0  0  0  0  0  0  0  0  0
  -12.2238  -10.7716    7.6220 N   0  0  0  0  0  0  0  0  0  0  0  0
  -11.3067  -12.4385    5.3091 N   0  0  0  0  0  0  0  0  0  0  0  0
  -10.8714  -13.5237    4.6728 C   0  0  0  0  0  0  0  0  0  0  0  0
  -10.7474  -14.5284    5.5375 N   0  0  0  0  0  0  0  0  0  0  0  0
  1  7  2  0  0  0  0
  1  2  1  0  0  0  0
  2  3  1  0  0  0  0
  2  4  2  0  0  0  0
  4  5  1  0  0  0  0
  5  6  2  0  0  0  0
  5 11  1  0  0  0  0
  6  7  1  0  0  0  0
  6  9  1  0  0  0  0
  7  8  1  0  0  0  0
  9 10  1  0  0  0  0
 10 11  2  0  0  0  0
M  END
>  <CHROM.1>
-11.43647255,-13.27192792,7.32432015,2.03039745,-1.24028124,2.12688743

>  <Name>
ligand

>  <RI>
0

>  <Rbt.Current_Directory>
/home/itssahil/PROJECTS/Mol_Feturizer/New_Systems/rnas/2b57

>  <Rbt.Executable>
rbdock ($Id: //depot/dev/client3/rdock/2013.1/src/exe/rbdock.cxx#4 $)

>  <Rbt.Library>
libRbt.so (2013.1, Build901 2013/11/27)

>  <Rbt.Parameter_File>
/export/apps/rDock/src/rDock_2013.1_src/data/scripts/dock_solv.prm

>  <Rbt.Receptor>
prm/pocket_docking_4.prm

>  <SCORE>
-11.4449

>  <SCORE.INTER>
-11.4449

>  <SCORE.INTER.CONST>
1

>  <SCORE.INTER.POLAR>
0

>  <SCORE.INTER.ROT>
0

>  <SCORE.INTER.SOLV>
21.3198

>  <SCORE.INTER.VDW>
-18.3365

>  <SCORE.INTER.norm>
-1.04044

>  <SCORE.INTRA>
0

>  <SCORE.INTRA.DIHEDRAL>
0

>  <SCORE.INTRA.DIHEDRAL.0>
0

>  <SCORE.INTRA.POLAR>
0

>  <SCORE.INTRA.POLAR.0>
0

>  <SCORE.INTRA.REPUL>
0

>  <SCORE.INTRA.REPUL.0>
0

>  <SCORE.INTRA.SOLV>
0

>  <SCORE.INTRA.SOLV.lig_0>
-48.3454

>  <SCORE.INTRA.VDW>
0

>  <SCORE.INTRA.VDW.0>
0

>  <SCORE.INTRA.norm>
0

>  <SCORE.RESTR>
0

>  <SCORE.RESTR.CAVITY>
0

>  <SCORE.RESTR.norm>
0

>  <SCORE.SYSTEM>
0

>  <SCORE.SYSTEM.CONST>
0

>  <SCORE.SYSTEM.DIHEDRAL>
0

>  <SCORE.SYSTEM.SOLV>
0

>  <SCORE.SYSTEM.norm>
0

>  <SCORE.heavy>
11

>  <SCORE.norm>
-1.04044

>  <RMSD>
0.519

$$$$
ligand
 OpenBabel01301917033D
libRbt.so/2013.1/901 2013/11/27
 11 12  0  0  0  0  0  0  0  0999 V2000
  -11.8927  -12.6821    8.9107 N   0  0  0  0  0  0  0  0  0  0  0  0
  -11.5424  -13.9725    9.0327 C   0  0  0  0  0  0  0  0  0  0  0  0
  -11.5802  -14.5570   10.2268 N   0  0  0  0  0  0  0  0  0  0  0  0
  -11.1442  -14.6759    7.9614 N   0  0  0  0  0  0  0  0  0  0  0  0
  -11.0854  -14.1035    6.7498 C   0  0  0  0  0  0  0  0  0  0  0  0
  -11.4422  -12.7698    6.5958 C   0  0  0  0  0  0  0  0  0  0  0  0
  -11.8540  -12.0625    7.7205 C   0  0  0  0  0  0  0  0  0  0  0  0
  -12.2137  -10.7866    7.6167 N   0  0  0  0  0  0  0  0  0  0  0  0
  -11.2794  -12.4575    5.3136 N   0  0  0  0  0  0  0  0  0  0  0  0
  -10.8388  -13.5437    4.6827 C   0  0  0  0  0  0  0  0  0  0  0  0
  -10.7196  -14.5464    5.5504 N   0  0  0  0  0  0  0  0  0  0  0  0
  1  7  2  0  0  0  0
  1  2  1  0  0  0  0
  2  3  1  0  0  0  0
  2  4  2  0  0  0  0
  4  5  1  0  0  0  0
  5  6  2  0  0  0  0
  5 11  1  0  0  0  0
  6  7  1  0  0  0  0
  6  9  1  0  0  0  0
  7  8  1  0  0  0  0
  9 10  1  0  0  0  0
 10 11  2  0  0  0  0
M  END
>  <CHROM.1>
-11.42200469,-13.28681247,7.32973700,2.04644931,-1.23586633,2.13993712

>  <Name>
ligand

>  <RI>
0

>  <Rbt.Current_Directory>
/home/itssahil/PROJECTS/Mol_Feturizer/New_Systems/rnas/2b57

>  <Rbt.Executable>
rbdock ($Id: //depot/dev/client3/rdock/2013.1/src/exe/rbdock.cxx#4 $)

>  <Rbt.Library>
libRbt.so (2013.1, Build901 2013/11/27)

>  <Rbt.Parameter_File>
/export/apps/rDock/src/rDock_2013.1_src/data/scripts/dock_solv.prm

>  <Rbt.Receptor>
prm/pocket_docking_5.prm

>  <SCORE>
-11.4642

>  <SCORE.INTER>
-11.4642

>  <SCORE.INTER.CONST>
1

>  <SCORE.INTER.POLAR>
0

>  <SCORE.INTER.ROT>
0

>  <SCORE.INTER.SOLV>
21.3345

>  <SCORE.INTER.VDW>
-18.3543

>  <SCORE.INTER.norm>
-1.0422

>  <SCORE.INTRA>
0

>  <SCORE.INTRA.DIHEDRAL>
0

>  <SCORE.INTRA.DIHEDRAL.0>
0

>  <SCORE.INTRA.POLAR>
0

>  <SCORE.INTRA.POLAR.0>
0

>  <SCORE.INTRA.REPUL>
0

>  <SCORE.INTRA.REPUL.0>
0

>  <SCORE.INTRA.SOLV>
0

>  <SCORE.INTRA.SOLV.lig_0>
-48.3454

>  <SCORE.INTRA.VDW>
0

>  <SCORE.INTRA.VDW.0>
0

>  <SCORE.INTRA.norm>
0

>  <SCORE.RESTR>
0

>  <SCORE.RESTR.CAVITY>
0

>  <SCORE.RESTR.norm>
0

>  <SCORE.SYSTEM>
0

>  <SCORE.SYSTEM.CONST>
0

>  <SCORE.SYSTEM.DIHEDRAL>
0

>  <SCORE.SYSTEM.SOLV>
0

>  <SCORE.SYSTEM.norm>
0

>  <SCORE.heavy>
11

>  <SCORE.norm>
-1.0422

>  <RMSD>
0.519

$$$$
ligand
 OpenBabel01301917033D
libRbt.so/2013.1/901 2013/11/27
 11 12  0  0  0  0  0  0  0  0999 V2000
  -11.8946  -12.6719    8.9074 N   0  0  0  0  0  0  0  0  0  0  0  0
  -11.5526  -13.9649    9.0252 C   0  0  0  0  0  0  0  0  0  0  0  0
  -11.5866  -14.5509   10.2187 N   0  0  0  0  0  0  0  0  0  0  0  0
  -11.1664  -14.6694    7.9502 N   0  0  0  0  0  0  0  0  0  0  0  0
  -11.1116  -14.0956    6.7391 C   0  0  0  0  0  0  0  0  0  0  0  0
  -11.4601  -12.7593    6.5894 C   0  0  0  0  0  0  0  0  0  0  0  0
  -11.8595  -12.0508    7.7178 C   0  0  0  0  0  0  0  0  0  0  0  0
  -12.2109  -10.7722    7.6184 N   0  0  0  0  0  0  0  0  0  0  0  0
  -11.3036  -12.4462    5.3067 N   0  0  0  0  0  0  0  0  0  0  0  0
  -10.8748  -13.5345    4.6712 C   0  0  0  0  0  0  0  0  0  0  0  0
  -10.7569  -14.5393    5.5366 N   0  0  0  0  0  0  0  0  0  0  0  0
  1  7  2  0  0  0  0
  1  2  1  0  0  0  0
  2  3  1  0  0  0  0
  2  4  2  0  0  0  0
  4  5  1  0  0  0  0
  5  6  2  0  0  0  0
  5 11  1  0  0  0  0
  6  7  1  0  0  0  0
  6  9  1  0  0  0  0
  7  8  1  0  0  0  0
  9 10  1  0  0  0  0
 10 11  2  0  0  0  0
M  END
>  <CHROM.1>
-11.43865111,-13.27749870,7.32247371,2.04077702,-1.24533258,2.13604917

>  <Name>
ligand

>  <RI>
0

>  <Rbt.Current_Directory>
/home/itssahil/PROJECTS/Mol_Feturizer/New_Systems/rnas/2b57

>  <Rbt.Executable>
rbdock ($Id: //depot/dev/client3/rdock/2013.1/src/exe/rbdock.cxx#4 $)

>  <Rbt.Library>
libRbt.so (2013.1, Build901 2013/11/27)

>  <Rbt.Parameter_File>
/export/apps/rDock/src/rDock_2013.1_src/data/scripts/dock_solv.prm

>  <Rbt.Receptor>
prm/pocket_docking_3.prm

>  <SCORE>
-11.442

>  <SCORE.INTER>
-11.442

>  <SCORE.INTER.CONST>
1

>  <SCORE.INTER.POLAR>
0

>  <SCORE.INTER.ROT>
0

>  <SCORE.INTER.SOLV>
21.3636

>  <SCORE.INTER.VDW>
-18.3492

>  <SCORE.INTER.norm>
-1.04018

>  <SCORE.INTRA>
0

>  <SCORE.INTRA.DIHEDRAL>
0

>  <SCORE.INTRA.DIHEDRAL.0>
0

>  <SCORE.INTRA.POLAR>
0

>  <SCORE.INTRA.POLAR.0>
0

>  <SCORE.INTRA.REPUL>
0

>  <SCORE.INTRA.REPUL.0>
0

>  <SCORE.INTRA.SOLV>
0

>  <SCORE.INTRA.SOLV.lig_0>
-48.3454

>  <SCORE.INTRA.VDW>
0

>  <SCORE.INTRA.VDW.0>
0

>  <SCORE.INTRA.norm>
0

>  <SCORE.RESTR>
0

>  <SCORE.RESTR.CAVITY>
0

>  <SCORE.RESTR.norm>
0

>  <SCORE.SYSTEM>
0

>  <SCORE.SYSTEM.CONST>
0

>  <SCORE.SYSTEM.DIHEDRAL>
0

>  <SCORE.SYSTEM.SOLV>
0

>  <SCORE.SYSTEM.norm>
0

>  <SCORE.heavy>
11

>  <SCORE.norm>
-1.04018

>  <RMSD>
0.522

$$$$
ligand
 OpenBabel01301917033D
libRbt.so/2013.1/901 2013/11/27
 11 12  0  0  0  0  0  0  0  0999 V2000
  -11.8785  -12.6820    8.9110 N   0  0  0  0  0  0  0  0  0  0  0  0
  -11.5270  -13.9720    9.0340 C   0  0  0  0  0  0  0  0  0  0  0  0
  -11.5554  -14.5531   10.2300 N   0  0  0  0  0  0  0  0  0  0  0  0
  -11.1371  -14.6785    7.9616 N   0  0  0  0  0  0  0  0  0  0  0  0
  -11.0879  -14.1096    6.7480 C   0  0  0  0  0  0  0  0  0  0  0  0
  -11.4460  -12.7765    6.5929 C   0  0  0  0  0  0  0  0  0  0  0  0
  -11.8492  -12.0659    7.7187 C   0  0  0  0  0  0  0  0  0  0  0  0
  -12.2098  -10.7904    7.6141 N   0  0  0  0  0  0  0  0  0  0  0  0
  -11.2933  -12.4679    5.3086 N   0  0  0  0  0  0  0  0  0  0  0  0
  -10.8575  -13.5558    4.6774 C   0  0  0  0  0  0  0  0  0  0  0  0
  -10.7314  -14.5560    5.5470 N   0  0  0  0  0  0  0  0  0  0  0  0
  1  7  2  0  0  0  0
  1  2  1  0  0  0  0
  2  3  1  0  0  0  0
  2  4  2  0  0  0  0
  4  5  1  0  0  0  0
  5  6  2  0  0  0  0
  5 11  1  0  0  0  0
  6  7  1  0  0  0  0
  6  9  1  0  0  0  0
  7  8  1  0  0  0  0
  9 10  1  0  0  0  0
 10 11  2  0  0  0  0
M  END
>  <CHROM.1>
-11.42004852,-13.29131520,7.32815268,2.02590528,-1.23989263,2.11761278

>  <Name>
ligand

>  <RI>
0

>  <Rbt.Current_Directory>
/home/itssahil/PROJECTS/Mol_Feturizer/New_Systems/rnas/2b57

>  <Rbt.Executable>
rbdock ($Id: //depot/dev/client3/rdock/2013.1/src/exe/rbdock.cxx#4 $)

>  <Rbt.Library>
libRbt.so (2013.1, Build901 2013/11/27)

>  <Rbt.Parameter_File>
/export/apps/rDock/src/rDock_2013.1_src/data/scripts/dock_solv.prm

>  <Rbt.Receptor>
prm/pocket_docking_8.prm

>  <SCORE>
-11.4567

>  <SCORE.INTER>
-11.4567

>  <SCORE.INTER.CONST>
1

>  <SCORE.INTER.POLAR>
0

>  <SCORE.INTER.ROT>
0

>  <SCORE.INTER.SOLV>
21.3487

>  <SCORE.INTER.VDW>
-18.354

>  <SCORE.INTER.norm>
-1.04152

>  <SCORE.INTRA>
0

>  <SCORE.INTRA.DIHEDRAL>
0

>  <SCORE.INTRA.DIHEDRAL.0>
0

>  <SCORE.INTRA.POLAR>
0

>  <SCORE.INTRA.POLAR.0>
0

>  <SCORE.INTRA.REPUL>
0

>  <SCORE.INTRA.REPUL.0>
0

>  <SCORE.INTRA.SOLV>
0

>  <SCORE.INTRA.SOLV.lig_0>
-48.3454

>  <SCORE.INTRA.VDW>
0

>  <SCORE.INTRA.VDW.0>
0

>  <SCORE.INTRA.norm>
0

>  <SCORE.RESTR>
0

>  <SCORE.RESTR.CAVITY>
0

>  <SCORE.RESTR.norm>
0

>  <SCORE.SYSTEM>
0

>  <SCORE.SYSTEM.CONST>
0

>  <SCORE.SYSTEM.DIHEDRAL>
0

>  <SCORE.SYSTEM.SOLV>
0

>  <SCORE.SYSTEM.norm>
0

>  <SCORE.heavy>
11

>  <SCORE.norm>
-1.04152

>  <RMSD>
0.523

$$$$
ligand
 OpenBabel01301917033D
libRbt.so/2013.1/901 2013/11/27
 11 12  0  0  0  0  0  0  0  0999 V2000
  -11.8784  -12.6651    8.9063 N   0  0  0  0  0  0  0  0  0  0  0  0
  -11.5291  -13.9553    9.0329 C   0  0  0  0  0  0  0  0  0  0  0  0
  -11.5623  -14.5341   10.2300 N   0  0  0  0  0  0  0  0  0  0  0  0
  -11.1365  -14.6643    7.9633 N   0  0  0  0  0  0  0  0  0  0  0  0
  -11.0823  -14.0979    6.7487 C   0  0  0  0  0  0  0  0  0  0  0  0
  -11.4382  -12.7645    6.5899 C   0  0  0  0  0  0  0  0  0  0  0  0
  -11.8442  -12.0513    7.7129 C   0  0  0  0  0  0  0  0  0  0  0  0
  -12.2027  -10.7754    7.6047 N   0  0  0  0  0  0  0  0  0  0  0  0
  -11.2807  -12.4586    5.3055 N   0  0  0  0  0  0  0  0  0  0  0  0
  -10.8442  -13.5483    4.6778 C   0  0  0  0  0  0  0  0  0  0  0  0
  -10.7224  -14.5470    5.5498 N   0  0  0  0  0  0  0  0  0  0  0  0
  1  7  2  0  0  0  0
  1  2  1  0  0  0  0
  2  3  1  0  0  0  0
  2  4  2  0  0  0  0
  4  5  1  0  0  0  0
  5  6  2  0  0  0  0
  5 11  1  0  0  0  0
  6  7  1  0  0  0  0
  6  9  1  0  0  0  0
  7  8  1  0  0  0  0
  9 10  1  0  0  0  0
 10 11  2  0  0  0  0
M  END
>  <CHROM.1>
-11.41540535,-13.27800356,7.32619842,2.03699400,-1.23926274,2.12620346

>  <Name>
ligand

>  <RI>
0

>  <Rbt.Current_Directory>
/home/itssahil/PROJECTS/Mol_Feturizer/New_Systems/rnas/2b57

>  <Rbt.Executable>
rbdock ($Id: //depot/dev/client3/rdock/2013.1/src/exe/rbdock.cxx#4 $)

>  <Rbt.Library>
libRbt.so (2013.1, Build901 2013/11/27)

>  <Rbt.Parameter_File>
/export/apps/rDock/src/rDock_2013.1_src/data/scripts/dock_solv.prm

>  <Rbt.Receptor>
prm/blind_docking_80.prm

>  <SCORE>
-11.4668

>  <SCORE.INTER>
-11.4668

>  <SCORE.INTER.CONST>
1

>  <SCORE.INTER.POLAR>
0

>  <SCORE.INTER.ROT>
0

>  <SCORE.INTER.SOLV>
21.3513

>  <SCORE.INTER.VDW>
-18.3617

>  <SCORE.INTER.norm>
-1.04244

>  <SCORE.INTRA>
0

>  <SCORE.INTRA.DIHEDRAL>
0

>  <SCORE.INTRA.DIHEDRAL.0>
0

>  <SCORE.INTRA.POLAR>
0

>  <SCORE.INTRA.POLAR.0>
0

>  <SCORE.INTRA.REPUL>
0

>  <SCORE.INTRA.REPUL.0>
0

>  <SCORE.INTRA.SOLV>
0

>  <SCORE.INTRA.SOLV.lig_0>
-48.3454

>  <SCORE.INTRA.VDW>
0

>  <SCORE.INTRA.VDW.0>
0

>  <SCORE.INTRA.norm>
0

>  <SCORE.RESTR>
0

>  <SCORE.RESTR.CAVITY>
0

>  <SCORE.RESTR.norm>
0

>  <SCORE.SYSTEM>
0

>  <SCORE.SYSTEM.CONST>
0

>  <SCORE.SYSTEM.DIHEDRAL>
0

>  <SCORE.SYSTEM.SOLV>
0

>  <SCORE.SYSTEM.norm>
0

>  <SCORE.heavy>
11

>  <SCORE.norm>
-1.04244

>  <RMSD>
0.524

$$$$
ligand
 OpenBabel01301917033D
libRbt.so/2013.1/901 2013/11/27
 11 12  0  0  0  0  0  0  0  0999 V2000
  -11.8879  -12.6952    8.9071 N   0  0  0  0  0  0  0  0  0  0  0  0
  -11.5351  -13.9854    9.0236 C   0  0  0  0  0  0  0  0  0  0  0  0
  -11.5692  -14.5744   10.2156 N   0  0  0  0  0  0  0  0  0  0  0  0
  -11.1382  -14.6842    7.9487 N   0  0  0  0  0  0  0  0  0  0  0  0
  -11.0832  -14.1074    6.7391 C   0  0  0  0  0  0  0  0  0  0  0  0
  -11.4426  -12.7738    6.5908 C   0  0  0  0  0  0  0  0  0  0  0  0
  -11.8530  -12.0712    7.7190 C   0  0  0  0  0  0  0  0  0  0  0  0
  -12.2150  -10.7955    7.6208 N   0  0  0  0  0  0  0  0  0  0  0  0
  -11.2834  -12.4565    5.3094 N   0  0  0  0  0  0  0  0  0  0  0  0
  -10.8424  -13.5396    4.6735 C   0  0  0  0  0  0  0  0  0  0  0  0
  -10.7195  -14.5453    5.5372 N   0  0  0  0  0  0  0  0  0  0  0  0
  1  7  2  0  0  0  0
  1  2  1  0  0  0  0
  2  3  1  0  0  0  0
  2  4  2  0  0  0  0
  4  5  1  0  0  0  0
  5  6  2  0  0  0  0
  5 11  1  0  0  0  0
  6  7  1  0  0  0  0
  6  9  1  0  0  0  0
  7  8  1  0  0  0  0
  9 10  1  0  0  0  0
 10 11  2  0  0  0  0
M  END
>  <CHROM.1>
-11.41986101,-13.29337389,7.32283200,2.03768463,-1.23570650,2.13530761

>  <Name>
ligand

>  <RI>
0

>  <Rbt.Current_Directory>
/home/itssahil/PROJECTS/Mol_Feturizer/New_Systems/rnas/2b57

>  <Rbt.Executable>
rbdock ($Id: //depot/dev/client3/rdock/2013.1/src/exe/rbdock.cxx#4 $)

>  <Rbt.Library>
libRbt.so (2013.1, Build901 2013/11/27)

>  <Rbt.Parameter_File>
/export/apps/rDock/src/rDock_2013.1_src/data/scripts/dock_solv.prm

>  <Rbt.Receptor>
prm/pocket_docking_4.prm

>  <SCORE>
-11.4574

>  <SCORE.INTER>
-11.4574

>  <SCORE.INTER.CONST>
1

>  <SCORE.INTER.POLAR>
0

>  <SCORE.INTER.ROT>
0

>  <SCORE.INTER.SOLV>
21.3497

>  <SCORE.INTER.VDW>
-18.3548

>  <SCORE.INTER.norm>
-1.04158

>  <SCORE.INTRA>
0

>  <SCORE.INTRA.DIHEDRAL>
0

>  <SCORE.INTRA.DIHEDRAL.0>
0

>  <SCORE.INTRA.POLAR>
0

>  <SCORE.INTRA.POLAR.0>
0

>  <SCORE.INTRA.REPUL>
0

>  <SCORE.INTRA.REPUL.0>
0

>  <SCORE.INTRA.SOLV>
0

>  <SCORE.INTRA.SOLV.lig_0>
-48.3454

>  <SCORE.INTRA.VDW>
0

>  <SCORE.INTRA.VDW.0>
0

>  <SCORE.INTRA.norm>
0

>  <SCORE.RESTR>
0

>  <SCORE.RESTR.CAVITY>
0

>  <SCORE.RESTR.norm>
0

>  <SCORE.SYSTEM>
0

>  <SCORE.SYSTEM.CONST>
0

>  <SCORE.SYSTEM.DIHEDRAL>
0

>  <SCORE.SYSTEM.SOLV>
0

>  <SCORE.SYSTEM.norm>
0

>  <SCORE.heavy>
11

>  <SCORE.norm>
-1.04158

>  <RMSD>
0.528

$$$$
ligand
 OpenBabel01301917033D
libRbt.so/2013.1/901 2013/11/27
 11 12  0  0  0  0  0  0  0  0999 V2000
  -11.8818  -12.6704    8.9020 N   0  0  0  0  0  0  0  0  0  0  0  0
  -11.5401  -13.9624    9.0313 C   0  0  0  0  0  0  0  0  0  0  0  0
  -11.5796  -14.5393   10.2291 N   0  0  0  0  0  0  0  0  0  0  0  0
  -11.1486  -14.6750    7.9636 N   0  0  0  0  0  0  0  0  0  0  0  0
  -11.0882  -14.1105    6.7485 C   0  0  0  0  0  0  0  0  0  0  0  0
  -11.4362  -12.7754    6.5869 C   0  0  0  0  0  0  0  0  0  0  0  0
  -11.8411  -12.0584    7.7080 C   0  0  0  0  0  0  0  0  0  0  0  0
  -12.1923  -10.7807    7.5970 N   0  0  0  0  0  0  0  0  0  0  0  0
  -11.2737  -12.4721    5.3026 N   0  0  0  0  0  0  0  0  0  0  0  0
  -10.8417  -13.5651    4.6775 C   0  0  0  0  0  0  0  0  0  0  0  0
  -10.7277  -14.5633    5.5511 N   0  0  0  0  0  0  0  0  0  0  0  0
  1  7  2  0  0  0  0
  1  2  1  0  0  0  0
  2  3  1  0  0  0  0
  2  4  2  0  0  0  0
  4  5  1  0  0  0  0
  5  6  2  0  0  0  0
  5 11  1  0  0  0  0
  6  7  1  0  0  0  0
  6  9  1  0  0  0  0
  7  8  1  0  0  0  0
  9 10  1  0  0  0  0
 10 11  2  0  0  0  0
M  END
>  <CHROM.1>
-11.41819302,-13.28802340,7.32397548,2.05289779,-1.24260251,2.13988645

>  <Name>
ligand

>  <RI>
0

>  <Rbt.Current_Directory>
/home/itssahil/PROJECTS/Mol_Feturizer/New_Systems/rnas/2b57

>  <Rbt.Executable>
rbdock ($Id: //depot/dev/client3/rdock/2013.1/src/exe/rbdock.cxx#4 $)

>  <Rbt.Library>
libRbt.so (2013.1, Build901 2013/11/27)

>  <Rbt.Parameter_File>
/export/apps/rDock/src/rDock_2013.1_src/data/scripts/dock_solv.prm

>  <Rbt.Receptor>
prm/pocket_docking_5.prm

>  <SCORE>
-11.4624

>  <SCORE.INTER>
-11.4624

>  <SCORE.INTER.CONST>
1

>  <SCORE.INTER.POLAR>
0

>  <SCORE.INTER.ROT>
0

>  <SCORE.INTER.SOLV>
21.3783

>  <SCORE.INTER.VDW>
-18.3677

>  <SCORE.INTER.norm>
-1.04204

>  <SCORE.INTRA>
0

>  <SCORE.INTRA.DIHEDRAL>
0

>  <SCORE.INTRA.DIHEDRAL.0>
0

>  <SCORE.INTRA.POLAR>
0

>  <SCORE.INTRA.POLAR.0>
0

>  <SCORE.INTRA.REPUL>
0

>  <SCORE.INTRA.REPUL.0>
0

>  <SCORE.INTRA.SOLV>
0

>  <SCORE.INTRA.SOLV.lig_0>
-48.3454

>  <SCORE.INTRA.VDW>
0

>  <SCORE.INTRA.VDW.0>
0

>  <SCORE.INTRA.norm>
0

>  <SCORE.RESTR>
0

>  <SCORE.RESTR.CAVITY>
0

>  <SCORE.RESTR.norm>
0

>  <SCORE.SYSTEM>
0

>  <SCORE.SYSTEM.CONST>
0

>  <SCORE.SYSTEM.DIHEDRAL>
0

>  <SCORE.SYSTEM.SOLV>
0

>  <SCORE.SYSTEM.norm>
0

>  <SCORE.heavy>
11

>  <SCORE.norm>
-1.04204

>  <RMSD>
0.528

$$$$
ligand
 OpenBabel01301917033D
libRbt.so/2013.1/901 2013/11/27
 11 12  0  0  0  0  0  0  0  0999 V2000
  -11.8907  -12.6792    8.9023 N   0  0  0  0  0  0  0  0  0  0  0  0
  -11.5505  -13.9727    9.0196 C   0  0  0  0  0  0  0  0  0  0  0  0
  -11.5845  -14.5589   10.2130 N   0  0  0  0  0  0  0  0  0  0  0  0
  -11.1661  -14.6776    7.9442 N   0  0  0  0  0  0  0  0  0  0  0  0
  -11.1114  -14.1038    6.7332 C   0  0  0  0  0  0  0  0  0  0  0  0
  -11.4580  -12.7669    6.5840 C   0  0  0  0  0  0  0  0  0  0  0  0
  -11.8555  -12.0580    7.7128 C   0  0  0  0  0  0  0  0  0  0  0  0
  -12.2051  -10.7789    7.6138 N   0  0  0  0  0  0  0  0  0  0  0  0
  -11.3020  -12.4538    5.3012 N   0  0  0  0  0  0  0  0  0  0  0  0
  -10.8753  -13.5426    4.6652 C   0  0  0  0  0  0  0  0  0  0  0  0
  -10.7583  -14.5477    5.5304 N   0  0  0  0  0  0  0  0  0  0  0  0
  1  7  2  0  0  0  0
  1  2  1  0  0  0  0
  2  3  1  0  0  0  0
  2  4  2  0  0  0  0
  4  5  1  0  0  0  0
  5  6  2  0  0  0  0
  5 11  1  0  0  0  0
  6  7  1  0  0  0  0
  6  9  1  0  0  0  0
  7  8  1  0  0  0  0
  9 10  1  0  0  0  0
 10 11  2  0  0  0  0
M  END
>  <CHROM.1>
-11.43680109,-13.28523239,7.31690349,2.04132303,-1.24698963,2.13673121

>  <Name>
ligand

>  <RI>
0

>  <Rbt.Current_Directory>
/home/itssahil/PROJECTS/Mol_Feturizer/New_Systems/rnas/2b57

>  <Rbt.Executable>
rbdock ($Id: //depot/dev/client3/rdock/2013.1/src/exe/rbdock.cxx#4 $)

>  <Rbt.Library>
libRbt.so (2013.1, Build901 2013/11/27)

>  <Rbt.Parameter_File>
/export/apps/rDock/src/rDock_2013.1_src/data/scripts/dock_solv.prm

>  <Rbt.Receptor>
prm/pocket_docking_5.prm

>  <SCORE>
-11.4375

>  <SCORE.INTER>
-11.4375

>  <SCORE.INTER.CONST>
1

>  <SCORE.INTER.POLAR>
0

>  <SCORE.INTER.ROT>
0

>  <SCORE.INTER.SOLV>
21.3852

>  <SCORE.INTER.VDW>
-18.3534

>  <SCORE.INTER.norm>
-1.03978

>  <SCORE.INTRA>
0

>  <SCORE.INTRA.DIHEDRAL>
0

>  <SCORE.INTRA.DIHEDRAL.0>
0

>  <SCORE.INTRA.POLAR>
0

>  <SCORE.INTRA.POLAR.0>
0

>  <SCORE.INTRA.REPUL>
0

>  <SCORE.INTRA.REPUL.0>
0

>  <SCORE.INTRA.SOLV>
0

>  <SCORE.INTRA.SOLV.lig_0>
-48.3454

>  <SCORE.INTRA.VDW>
0

>  <SCORE.INTRA.VDW.0>
0

>  <SCORE.INTRA.norm>
0

>  <SCORE.RESTR>
0

>  <SCORE.RESTR.CAVITY>
0

>  <SCORE.RESTR.norm>
0

>  <SCORE.SYSTEM>
0

>  <SCORE.SYSTEM.CONST>
0

>  <SCORE.SYSTEM.DIHEDRAL>
0

>  <SCORE.SYSTEM.SOLV>
0

>  <SCORE.SYSTEM.norm>
0

>  <SCORE.heavy>
11

>  <SCORE.norm>
-1.03978

>  <RMSD>
0.530

$$$$
ligand
 OpenBabel01301917033D
libRbt.so/2013.1/901 2013/11/27
 11 12  0  0  0  0  0  0  0  0999 V2000
  -11.8775  -12.6800    8.8994 N   0  0  0  0  0  0  0  0  0  0  0  0
  -11.5384  -13.9728    9.0282 C   0  0  0  0  0  0  0  0  0  0  0  0
  -11.5764  -14.5493   10.2262 N   0  0  0  0  0  0  0  0  0  0  0  0
  -11.1513  -14.6866    7.9597 N   0  0  0  0  0  0  0  0  0  0  0  0
  -11.0925  -14.1226    6.7443 C   0  0  0  0  0  0  0  0  0  0  0  0
  -11.4378  -12.7868    6.5832 C   0  0  0  0  0  0  0  0  0  0  0  0
  -11.8383  -12.0685    7.7051 C   0  0  0  0  0  0  0  0  0  0  0  0
  -12.1867  -10.7900    7.5946 N   0  0  0  0  0  0  0  0  0  0  0  0
  -11.2777  -12.4842    5.2984 N   0  0  0  0  0  0  0  0  0  0  0  0
  -10.8498  -13.5783    4.6725 C   0  0  0  0  0  0  0  0  0  0  0  0
  -10.7360  -14.5765    5.5462 N   0  0  0  0  0  0  0  0  0  0  0  0
  1  7  2  0  0  0  0
  1  2  1  0  0  0  0
  2  3  1  0  0  0  0
  2  4  2  0  0  0  0
  4  5  1  0  0  0  0
  5  6  2  0  0  0  0
  5 11  1  0  0  0  0
  6  7  1  0  0  0  0
  6  9  1  0  0  0  0
  7  8  1  0  0  0  0
  9 10  1  0  0  0  0
 10 11  2  0  0  0  0
M  END
>  <CHROM.1>
-11.41915317,-13.29917512,7.32037936,2.05039001,-1.24589961,2.13723810

>  <Name>
ligand

>  <RI>
0

>  <Rbt.Current_Directory>
/home/itssahil/PROJECTS/Mol_Feturizer/New_Systems/rnas/2b57

>  <Rbt.Executable>
rbdock ($Id: //depot/dev/client3/rdock/2013.1/src/exe/rbdock.cxx#4 $)

>  <Rbt.Library>
libRbt.so (2013.1, Build901 2013/11/27)

>  <Rbt.Parameter_File>
/export/apps/rDock/src/rDock_2013.1_src/data/scripts/dock_solv.prm

>  <Rbt.Receptor>
prm/blind_docking_40.prm

>  <SCORE>
-11.4525

>  <SCORE.INTER>
-11.4525

>  <SCORE.INTER.CONST>
1

>  <SCORE.INTER.POLAR>
0

>  <SCORE.INTER.ROT>
0

>  <SCORE.INTER.SOLV>
21.4032

>  <SCORE.INTER.VDW>
-18.3694

>  <SCORE.INTER.norm>
-1.04114

>  <SCORE.INTRA>
0

>  <SCORE.INTRA.DIHEDRAL>
0

>  <SCORE.INTRA.DIHEDRAL.0>
0

>  <SCORE.INTRA.POLAR>
0

>  <SCORE.INTRA.POLAR.0>
0

>  <SCORE.INTRA.REPUL>
0

>  <SCORE.INTRA.REPUL.0>
0

>  <SCORE.INTRA.SOLV>
0

>  <SCORE.INTRA.SOLV.lig_0>
-48.3454

>  <SCORE.INTRA.VDW>
0

>  <SCORE.INTRA.VDW.0>
0

>  <SCORE.INTRA.norm>
0

>  <SCORE.RESTR>
0

>  <SCORE.RESTR.CAVITY>
0

>  <SCORE.RESTR.norm>
0

>  <SCORE.SYSTEM>
0

>  <SCORE.SYSTEM.CONST>
0

>  <SCORE.SYSTEM.DIHEDRAL>
0

>  <SCORE.SYSTEM.SOLV>
0

>  <SCORE.SYSTEM.norm>
0

>  <SCORE.heavy>
11

>  <SCORE.norm>
-1.04114

>  <RMSD>
0.534

$$$$
ligand
 OpenBabel01301917033D
libRbt.so/2013.1/901 2013/11/27
 11 12  0  0  0  0  0  0  0  0999 V2000
  -11.9111  -12.7537    8.8688 N   0  0  0  0  0  0  0  0  0  0  0  0
  -11.5881  -14.0529    8.9710 C   0  0  0  0  0  0  0  0  0  0  0  0
  -11.6463  -14.6569   10.1546 N   0  0  0  0  0  0  0  0  0  0  0  0
  -11.1967  -14.7459    7.8904 N   0  0  0  0  0  0  0  0  0  0  0  0
  -11.1176  -14.1543    6.6893 C   0  0  0  0  0  0  0  0  0  0  0  0
  -11.4460  -12.8112    6.5559 C   0  0  0  0  0  0  0  0  0  0  0  0
  -11.8513  -12.1149    7.6897 C   0  0  0  0  0  0  0  0  0  0  0  0
  -12.1841  -10.8302    7.6055 N   0  0  0  0  0  0  0  0  0  0  0  0
  -11.2678  -12.4805    5.2804 N   0  0  0  0  0  0  0  0  0  0  0  0
  -10.8450  -13.5645    4.6338 C   0  0  0  0  0  0  0  0  0  0  0  0
  -10.7525  -14.5841    5.4849 N   0  0  0  0  0  0  0  0  0  0  0  0
  1  7  2  0  0  0  0
  1  2  1  0  0  0  0
  2  3  1  0  0  0  0
  2  4  2  0  0  0  0
  4  5  1  0  0  0  0
  5  6  2  0  0  0  0
  5 11  1  0  0  0  0
  6  7  1  0  0  0  0
  6  9  1  0  0  0  0
  7  8  1  0  0  0  0
  9 10  1  0  0  0  0
 10 11  2  0  0  0  0
M  END
>  <CHROM.1>
-11.44163381,-13.34091840,7.28092479,2.10013522,-1.24880280,2.20789463

>  <Name>
ligand

>  <RI>
0

>  <Rbt.Current_Directory>
/home/itssahil/PROJECTS/Mol_Feturizer/New_Systems/rnas/2b57

>  <Rbt.Executable>
rbdock ($Id: //depot/dev/client3/rdock/2013.1/src/exe/rbdock.cxx#4 $)

>  <Rbt.Library>
libRbt.so (2013.1, Build901 2013/11/27)

>  <Rbt.Parameter_File>
/export/apps/rDock/src/rDock_2013.1_src/data/scripts/dock_solv.prm

>  <Rbt.Receptor>
prm/pocket_docking_7.prm

>  <SCORE>
-11.4405

>  <SCORE.INTER>
-11.4405

>  <SCORE.INTER.CONST>
1

>  <SCORE.INTER.POLAR>
0

>  <SCORE.INTER.ROT>
0

>  <SCORE.INTER.SOLV>
21.5072

>  <SCORE.INTER.VDW>
-18.3961

>  <SCORE.INTER.norm>
-1.04005

>  <SCORE.INTRA>
0

>  <SCORE.INTRA.DIHEDRAL>
0

>  <SCORE.INTRA.DIHEDRAL.0>
0

>  <SCORE.INTRA.POLAR>
0

>  <SCORE.INTRA.POLAR.0>
0

>  <SCORE.INTRA.REPUL>
0

>  <SCORE.INTRA.REPUL.0>
0

>  <SCORE.INTRA.SOLV>
0

>  <SCORE.INTRA.SOLV.lig_0>
-48.3454

>  <SCORE.INTRA.VDW>
0

>  <SCORE.INTRA.VDW.0>
0

>  <SCORE.INTRA.norm>
0

>  <SCORE.RESTR>
0

>  <SCORE.RESTR.CAVITY>
0

>  <SCORE.RESTR.norm>
0

>  <SCORE.SYSTEM>
0

>  <SCORE.SYSTEM.CONST>
0

>  <SCORE.SYSTEM.DIHEDRAL>
0

>  <SCORE.SYSTEM.SOLV>
0

>  <SCORE.SYSTEM.norm>
0

>  <SCORE.heavy>
11

>  <SCORE.norm>
-1.04005

>  <RMSD>
0.577

$$$$
ligand
 OpenBabel01301917033D
libRbt.so/2013.1/901 2013/11/27
 11 12  0  0  0  0  0  0  0  0999 V2000
  -11.8681  -12.7154    8.8681 N   0  0  0  0  0  0  0  0  0  0  0  0
  -11.5349  -14.0120    8.9704 C   0  0  0  0  0  0  0  0  0  0  0  0
  -11.5639  -14.6097   10.1583 N   0  0  0  0  0  0  0  0  0  0  0  0
  -11.1624  -14.7087    7.8855 N   0  0  0  0  0  0  0  0  0  0  0  0
  -11.1129  -14.1234    6.6798 C   0  0  0  0  0  0  0  0  0  0  0  0
  -11.4525  -12.7830    6.5461 C   0  0  0  0  0  0  0  0  0  0  0  0
  -11.8377  -12.0829    7.6845 C   0  0  0  0  0  0  0  0  0  0  0  0
  -12.1802  -10.8008    7.6005 N   0  0  0  0  0  0  0  0  0  0  0  0
  -11.3037  -12.4584    5.2653 N   0  0  0  0  0  0  0  0  0  0  0  0
  -10.8881  -13.5434    4.6157 C   0  0  0  0  0  0  0  0  0  0  0  0
  -10.7710  -14.5576    5.4702 N   0  0  0  0  0  0  0  0  0  0  0  0
  1  7  2  0  0  0  0
  1  2  1  0  0  0  0
  2  3  1  0  0  0  0
  2  4  2  0  0  0  0
  4  5  1  0  0  0  0
  5  6  2  0  0  0  0
  5 11  1  0  0  0  0
  6  7  1  0  0  0  0
  6  9  1  0  0  0  0
  7  8  1  0  0  0  0
  9 10  1  0  0  0  0
 10 11  2  0  0  0  0
M  END
>  <CHROM.1>
-11.42917666,-13.30864547,7.27373668,2.03233381,-1.25586690,2.13794915

>  <Name>
ligand

>  <RI>
0

>  <Rbt.Current_Directory>
/home/itssahil/PROJECTS/Mol_Feturizer/New_Systems/rnas/2b57

>  <Rbt.Executable>
rbdock ($Id: //depot/dev/client3/rdock/2013.1/src/exe/rbdock.cxx#4 $)

>  <Rbt.Library>
libRbt.so (2013.1, Build901 2013/11/27)

>  <Rbt.Parameter_File>
/export/apps/rDock/src/rDock_2013.1_src/data/scripts/dock_solv.prm

>  <Rbt.Receptor>
prm/pocket_docking_7.prm

>  <SCORE>
-11.48

>  <SCORE.INTER>
-11.48

>  <SCORE.INTER.CONST>
1

>  <SCORE.INTER.POLAR>
0

>  <SCORE.INTER.ROT>
0

>  <SCORE.INTER.SOLV>
21.508

>  <SCORE.INTER.VDW>
-18.4226

>  <SCORE.INTER.norm>
-1.04363

>  <SCORE.INTRA>
0

>  <SCORE.INTRA.DIHEDRAL>
0

>  <SCORE.INTRA.DIHEDRAL.0>
0

>  <SCORE.INTRA.POLAR>
0

>  <SCORE.INTRA.POLAR.0>
0

>  <SCORE.INTRA.REPUL>
0

>  <SCORE.INTRA.REPUL.0>
0

>  <SCORE.INTRA.SOLV>
0

>  <SCORE.INTRA.SOLV.lig_0>
-48.3454

>  <SCORE.INTRA.VDW>
0

>  <SCORE.INTRA.VDW.0>
0

>  <SCORE.INTRA.norm>
0

>  <SCORE.RESTR>
0

>  <SCORE.RESTR.CAVITY>
0

>  <SCORE.RESTR.norm>
0

>  <SCORE.SYSTEM>
0

>  <SCORE.SYSTEM.CONST>
0

>  <SCORE.SYSTEM.DIHEDRAL>
0

>  <SCORE.SYSTEM.SOLV>
0

>  <SCORE.SYSTEM.norm>
0

>  <SCORE.heavy>
11

>  <SCORE.norm>
-1.04363

>  <RMSD>
0.579

$$$$
ligand
 OpenBabel01301917033D
libRbt.so/2013.1/901 2013/11/27
 11 12  0  0  0  0  0  0  0  0999 V2000
  -11.8598  -12.7037    8.8644 N   0  0  0  0  0  0  0  0  0  0  0  0
  -11.5255  -13.9999    8.9687 C   0  0  0  0  0  0  0  0  0  0  0  0
  -11.5498  -14.5945   10.1581 N   0  0  0  0  0  0  0  0  0  0  0  0
  -11.1567  -14.6991    7.8841 N   0  0  0  0  0  0  0  0  0  0  0  0
  -11.1119  -14.1168    6.6767 C   0  0  0  0  0  0  0  0  0  0  0  0
  -11.4527  -12.7770    6.5409 C   0  0  0  0  0  0  0  0  0  0  0  0
  -11.8340  -12.0741    7.6791 C   0  0  0  0  0  0  0  0  0  0  0  0
  -12.1775  -10.7924    7.5931 N   0  0  0  0  0  0  0  0  0  0  0  0
  -11.3088  -12.4555    5.2588 N   0  0  0  0  0  0  0  0  0  0  0  0
  -10.8951  -13.5419    4.6104 C   0  0  0  0  0  0  0  0  0  0  0  0
  -10.7743  -14.5539    5.4670 N   0  0  0  0  0  0  0  0  0  0  0  0
  1  7  2  0  0  0  0
  1  2  1  0  0  0  0
  2  3  1  0  0  0  0
  2  4  2  0  0  0  0
  4  5  1  0  0  0  0
  5  6  2  0  0  0  0
  5 11  1  0  0  0  0
  6  7  1  0  0  0  0
  6  9  1  0  0  0  0
  7  8  1  0  0  0  0
  9 10  1  0  0  0  0
 10 11  2  0  0  0  0
M  END
>  <CHROM.1>
-11.42641976,-13.30071867,7.26983904,2.02133060,-1.25742723,2.12496994

>  <Name>
ligand

>  <RI>
0

>  <Rbt.Current_Directory>
/home/itssahil/PROJECTS/Mol_Feturizer/New_Systems/rnas/2b57

>  <Rbt.Executable>
rbdock ($Id: //depot/dev/client3/rdock/2013.1/src/exe/rbdock.cxx#4 $)

>  <Rbt.Library>
libRbt.so (2013.1, Build901 2013/11/27)

>  <Rbt.Parameter_File>
/export/apps/rDock/src/rDock_2013.1_src/data/scripts/dock_solv.prm

>  <Rbt.Receptor>
prm/pocket_docking_4.prm

>  <SCORE>
-11.4797

>  <SCORE.INTER>
-11.4797

>  <SCORE.INTER.CONST>
1

>  <SCORE.INTER.POLAR>
0

>  <SCORE.INTER.ROT>
0

>  <SCORE.INTER.SOLV>
21.5077

>  <SCORE.INTER.VDW>
-18.4223

>  <SCORE.INTER.norm>
-1.04361

>  <SCORE.INTRA>
0

>  <SCORE.INTRA.DIHEDRAL>
0

>  <SCORE.INTRA.DIHEDRAL.0>
0

>  <SCORE.INTRA.POLAR>
0

>  <SCORE.INTRA.POLAR.0>
0

>  <SCORE.INTRA.REPUL>
0

>  <SCORE.INTRA.REPUL.0>
0

>  <SCORE.INTRA.SOLV>
0

>  <SCORE.INTRA.SOLV.lig_0>
-48.3454

>  <SCORE.INTRA.VDW>
0

>  <SCORE.INTRA.VDW.0>
0

>  <SCORE.INTRA.norm>
0

>  <SCORE.RESTR>
0

>  <SCORE.RESTR.CAVITY>
0

>  <SCORE.RESTR.norm>
0

>  <SCORE.SYSTEM>
0

>  <SCORE.SYSTEM.CONST>
0

>  <SCORE.SYSTEM.DIHEDRAL>
0

>  <SCORE.SYSTEM.SOLV>
0

>  <SCORE.SYSTEM.norm>
0

>  <SCORE.heavy>
11

>  <SCORE.norm>
-1.04361

>  <RMSD>
0.582

$$$$
ligand
 OpenBabel01301917033D
libRbt.so/2013.1/901 2013/11/27
 11 12  0  0  0  0  0  0  0  0999 V2000
  -11.8556  -12.7806    8.8849 N   0  0  0  0  0  0  0  0  0  0  0  0
  -11.5158  -14.0754    8.9885 C   0  0  0  0  0  0  0  0  0  0  0  0
  -11.5586  -14.6765   10.1742 N   0  0  0  0  0  0  0  0  0  0  0  0
  -11.1232  -14.7667    7.9073 N   0  0  0  0  0  0  0  0  0  0  0  0
  -11.0596  -14.1776    6.7040 C   0  0  0  0  0  0  0  0  0  0  0  0
  -11.4054  -12.8391    6.5690 C   0  0  0  0  0  0  0  0  0  0  0  0
  -11.8116  -12.1445    7.7036 C   0  0  0  0  0  0  0  0  0  0  0  0
  -12.1608  -10.8643    7.6180 N   0  0  0  0  0  0  0  0  0  0  0  0
  -11.2399  -12.5099    5.2914 N   0  0  0  0  0  0  0  0  0  0  0  0
  -10.8081  -13.5905    4.6451 C   0  0  0  0  0  0  0  0  0  0  0  0
  -10.6972  -14.6064    5.4984 N   0  0  0  0  0  0  0  0  0  0  0  0
  1  7  2  0  0  0  0
  1  2  1  0  0  0  0
  2  3  1  0  0  0  0
  2  4  2  0  0  0  0
  4  5  1  0  0  0  0
  5  6  2  0  0  0  0
  5 11  1  0  0  0  0
  6  7  1  0  0  0  0
  6  9  1  0  0  0  0
  7  8  1  0  0  0  0
  9 10  1  0  0  0  0
 10 11  2  0  0  0  0
M  END
>  <CHROM.1>
-11.38957774,-13.36656043,7.29551040,2.06045775,-1.24264234,2.16741339

>  <Name>
ligand

>  <RI>
0

>  <Rbt.Current_Directory>
/home/itssahil/PROJECTS/Mol_Feturizer/New_Systems/rnas/2b57

>  <Rbt.Executable>
rbdock ($Id: //depot/dev/client3/rdock/2013.1/src/exe/rbdock.cxx#4 $)

>  <Rbt.Library>
libRbt.so (2013.1, Build901 2013/11/27)

>  <Rbt.Parameter_File>
/export/apps/rDock/src/rDock_2013.1_src/data/scripts/dock_solv.prm

>  <Rbt.Receptor>
prm/pocket_docking_6.prm

>  <SCORE>
-11.4547

>  <SCORE.INTER>
-11.4547

>  <SCORE.INTER.CONST>
1

>  <SCORE.INTER.POLAR>
0

>  <SCORE.INTER.ROT>
0

>  <SCORE.INTER.SOLV>
21.5726

>  <SCORE.INTER.VDW>
-18.4273

>  <SCORE.INTER.norm>
-1.04134

>  <SCORE.INTRA>
0

>  <SCORE.INTRA.DIHEDRAL>
0

>  <SCORE.INTRA.DIHEDRAL.0>
0

>  <SCORE.INTRA.POLAR>
0

>  <SCORE.INTRA.POLAR.0>
0

>  <SCORE.INTRA.REPUL>
0

>  <SCORE.INTRA.REPUL.0>
0

>  <SCORE.INTRA.SOLV>
0

>  <SCORE.INTRA.SOLV.lig_0>
-48.3454

>  <SCORE.INTRA.VDW>
0

>  <SCORE.INTRA.VDW.0>
0

>  <SCORE.INTRA.norm>
0

>  <SCORE.RESTR>
0

>  <SCORE.RESTR.CAVITY>
0

>  <SCORE.RESTR.norm>
0

>  <SCORE.SYSTEM>
0

>  <SCORE.SYSTEM.CONST>
0

>  <SCORE.SYSTEM.DIHEDRAL>
0

>  <SCORE.SYSTEM.SOLV>
0

>  <SCORE.SYSTEM.norm>
0

>  <SCORE.heavy>
11

>  <SCORE.norm>
-1.04134

>  <RMSD>
0.582

$$$$
ligand
 OpenBabel01301917033D
libRbt.so/2013.1/901 2013/11/27
 11 12  0  0  0  0  0  0  0  0999 V2000
  -11.8576  -12.7061    8.8616 N   0  0  0  0  0  0  0  0  0  0  0  0
  -11.5249  -14.0020    8.9742 C   0  0  0  0  0  0  0  0  0  0  0  0
  -11.5577  -14.5911   10.1662 N   0  0  0  0  0  0  0  0  0  0  0  0
  -11.1493  -14.7065    7.8954 N   0  0  0  0  0  0  0  0  0  0  0  0
  -11.0959  -14.1298    6.6857 C   0  0  0  0  0  0  0  0  0  0  0  0
  -11.4348  -12.7905    6.5413 C   0  0  0  0  0  0  0  0  0  0  0  0
  -11.8233  -12.0820    7.6736 C   0  0  0  0  0  0  0  0  0  0  0  0
  -12.1653  -10.8005    7.5793 N   0  0  0  0  0  0  0  0  0  0  0  0
  -11.2820  -12.4750    5.2587 N   0  0  0  0  0  0  0  0  0  0  0  0
  -10.8646  -13.5648    4.6182 C   0  0  0  0  0  0  0  0  0  0  0  0
  -10.7504  -14.5729    5.4803 N   0  0  0  0  0  0  0  0  0  0  0  0
  1  7  2  0  0  0  0
  1  2  1  0  0  0  0
  2  3  1  0  0  0  0
  2  4  2  0  0  0  0
  4  5  1  0  0  0  0
  5  6  2  0  0  0  0
  5 11  1  0  0  0  0
  6  7  1  0  0  0  0
  6  9  1  0  0  0  0
  7  8  1  0  0  0  0
  9 10  1  0  0  0  0
 10 11  2  0  0  0  0
M  END
>  <CHROM.1>
-11.41382423,-13.31083739,7.27283819,2.04108031,-1.25439833,2.13910020

>  <Name>
ligand

>  <RI>
0

>  <Rbt.Current_Directory>
/home/itssahil/PROJECTS/Mol_Feturizer/New_Systems/rnas/2b57

>  <Rbt.Executable>
rbdock ($Id: //depot/dev/client3/rdock/2013.1/src/exe/rbdock.cxx#4 $)

>  <Rbt.Library>
libRbt.so (2013.1, Build901 2013/11/27)

>  <Rbt.Parameter_File>
/export/apps/rDock/src/rDock_2013.1_src/data/scripts/dock_solv.prm

>  <Rbt.Receptor>
prm/pocket_docking_4.prm

>  <SCORE>
-11.5069

>  <SCORE.INTER>
-11.5069

>  <SCORE.INTER.CONST>
1

>  <SCORE.INTER.POLAR>
0

>  <SCORE.INTER.ROT>
0

>  <SCORE.INTER.SOLV>
21.5183

>  <SCORE.INTER.VDW>
-18.444

>  <SCORE.INTER.norm>
-1.04608

>  <SCORE.INTRA>
0

>  <SCORE.INTRA.DIHEDRAL>
0

>  <SCORE.INTRA.DIHEDRAL.0>
0

>  <SCORE.INTRA.POLAR>
0

>  <SCORE.INTRA.POLAR.0>
0

>  <SCORE.INTRA.REPUL>
0

>  <SCORE.INTRA.REPUL.0>
0

>  <SCORE.INTRA.SOLV>
0

>  <SCORE.INTRA.SOLV.lig_0>
-48.3454

>  <SCORE.INTRA.VDW>
0

>  <SCORE.INTRA.VDW.0>
0

>  <SCORE.INTRA.norm>
0

>  <SCORE.RESTR>
0

>  <SCORE.RESTR.CAVITY>
0

>  <SCORE.RESTR.norm>
0

>  <SCORE.SYSTEM>
0

>  <SCORE.SYSTEM.CONST>
0

>  <SCORE.SYSTEM.DIHEDRAL>
0

>  <SCORE.SYSTEM.SOLV>
0

>  <SCORE.SYSTEM.norm>
0

>  <SCORE.heavy>
11

>  <SCORE.norm>
-1.04608

>  <RMSD>
0.583

$$$$
ligand
 OpenBabel01301917033D
libRbt.so/2013.1/901 2013/11/27
 11 12  0  0  0  0  0  0  0  0999 V2000
  -11.8590  -12.7092    8.8624 N   0  0  0  0  0  0  0  0  0  0  0  0
  -11.5276  -14.0056    8.9734 C   0  0  0  0  0  0  0  0  0  0  0  0
  -11.5613  -14.5961   10.1647 N   0  0  0  0  0  0  0  0  0  0  0  0
  -11.1523  -14.7090    7.8939 N   0  0  0  0  0  0  0  0  0  0  0  0
  -11.0980  -14.1309    6.6849 C   0  0  0  0  0  0  0  0  0  0  0  0
  -11.4356  -12.7910    6.5421 C   0  0  0  0  0  0  0  0  0  0  0  0
  -11.8238  -12.0836    7.6752 C   0  0  0  0  0  0  0  0  0  0  0  0
  -12.1645  -10.8017    7.5824 N   0  0  0  0  0  0  0  0  0  0  0  0
  -11.2822  -12.4741    5.2599 N   0  0  0  0  0  0  0  0  0  0  0  0
  -10.8657  -13.5634    4.6182 C   0  0  0  0  0  0  0  0  0  0  0  0
  -10.7526  -14.5727    5.4790 N   0  0  0  0  0  0  0  0  0  0  0  0
  1  7  2  0  0  0  0
  1  2  1  0  0  0  0
  2  3  1  0  0  0  0
  2  4  2  0  0  0  0
  4  5  1  0  0  0  0
  5  6  2  0  0  0  0
  5 11  1  0  0  0  0
  6  7  1  0  0  0  0
  6  9  1  0  0  0  0
  7  8  1  0  0  0  0
  9 10  1  0  0  0  0
 10 11  2  0  0  0  0
M  END
>  <CHROM.1>
-11.41536831,-13.31231507,7.27297421,2.04346571,-1.25504295,2.14263746

>  <Name>
ligand

>  <RI>
0

>  <Rbt.Current_Directory>
/home/itssahil/PROJECTS/Mol_Feturizer/New_Systems/rnas/2b57

>  <Rbt.Executable>
rbdock ($Id: //depot/dev/client3/rdock/2013.1/src/exe/rbdock.cxx#4 $)

>  <Rbt.Library>
libRbt.so (2013.1, Build901 2013/11/27)

>  <Rbt.Parameter_File>
/export/apps/rDock/src/rDock_2013.1_src/data/scripts/dock_solv.prm

>  <Rbt.Receptor>
prm/pocket_docking_5.prm

>  <SCORE>
-11.5061

>  <SCORE.INTER>
-11.5061

>  <SCORE.INTER.CONST>
1

>  <SCORE.INTER.POLAR>
0

>  <SCORE.INTER.ROT>
0

>  <SCORE.INTER.SOLV>
21.5267

>  <SCORE.INTER.VDW>
-18.4463

>  <SCORE.INTER.norm>
-1.04601

>  <SCORE.INTRA>
0

>  <SCORE.INTRA.DIHEDRAL>
0

>  <SCORE.INTRA.DIHEDRAL.0>
0

>  <SCORE.INTRA.POLAR>
0

>  <SCORE.INTRA.POLAR.0>
0

>  <SCORE.INTRA.REPUL>
0

>  <SCORE.INTRA.REPUL.0>
0

>  <SCORE.INTRA.SOLV>
0

>  <SCORE.INTRA.SOLV.lig_0>
-48.3454

>  <SCORE.INTRA.VDW>
0

>  <SCORE.INTRA.VDW.0>
0

>  <SCORE.INTRA.norm>
0

>  <SCORE.RESTR>
0

>  <SCORE.RESTR.CAVITY>
0

>  <SCORE.RESTR.norm>
0

>  <SCORE.SYSTEM>
0

>  <SCORE.SYSTEM.CONST>
0

>  <SCORE.SYSTEM.DIHEDRAL>
0

>  <SCORE.SYSTEM.SOLV>
0

>  <SCORE.SYSTEM.norm>
0

>  <SCORE.heavy>
11

>  <SCORE.norm>
-1.04601

>  <RMSD>
0.583

$$$$
ligand
 OpenBabel01301917033D
libRbt.so/2013.1/901 2013/11/27
 11 12  0  0  0  0  0  0  0  0999 V2000
  -11.8599  -12.7105    8.8624 N   0  0  0  0  0  0  0  0  0  0  0  0
  -11.5302  -14.0074    8.9728 C   0  0  0  0  0  0  0  0  0  0  0  0
  -11.5647  -14.5985   10.1637 N   0  0  0  0  0  0  0  0  0  0  0  0
  -11.1557  -14.7107    7.8929 N   0  0  0  0  0  0  0  0  0  0  0  0
  -11.1006  -14.1320    6.6842 C   0  0  0  0  0  0  0  0  0  0  0  0
  -11.4365  -12.7916    6.5422 C   0  0  0  0  0  0  0  0  0  0  0  0
  -11.8239  -12.0844    7.6756 C   0  0  0  0  0  0  0  0  0  0  0  0
  -12.1630  -10.8019    7.5835 N   0  0  0  0  0  0  0  0  0  0  0  0
  -11.2826  -12.4742    5.2602 N   0  0  0  0  0  0  0  0  0  0  0  0
  -10.8673  -13.5637    4.6179 C   0  0  0  0  0  0  0  0  0  0  0  0
  -10.7556  -14.5736    5.4782 N   0  0  0  0  0  0  0  0  0  0  0  0
  1  7  2  0  0  0  0
  1  2  1  0  0  0  0
  2  3  1  0  0  0  0
  2  4  2  0  0  0  0
  4  5  1  0  0  0  0
  5  6  2  0  0  0  0
  5 11  1  0  0  0  0
  6  7  1  0  0  0  0
  6  9  1  0  0  0  0
  7  8  1  0  0  0  0
  9 10  1  0  0  0  0
 10 11  2  0  0  0  0
M  END
>  <CHROM.1>
-11.41694658,-13.31332157,7.27274518,2.04588701,-1.25605771,2.14548051

>  <Name>
ligand

>  <RI>
0

>  <Rbt.Current_Directory>
/home/itssahil/PROJECTS/Mol_Feturizer/New_Systems/rnas/2b57

>  <Rbt.Executable>
rbdock ($Id: //depot/dev/client3/rdock/2013.1/src/exe/rbdock.cxx#4 $)

>  <Rbt.Library>
libRbt.so (2013.1, Build901 2013/11/27)

>  <Rbt.Parameter_File>
/export/apps/rDock/src/rDock_2013.1_src/data/scripts/dock_solv.prm

>  <Rbt.Receptor>
prm/pocket_docking_8.prm

>  <SCORE>
-11.5052

>  <SCORE.INTER>
-11.5052

>  <SCORE.INTER.CONST>
1

>  <SCORE.INTER.POLAR>
0

>  <SCORE.INTER.ROT>
0

>  <SCORE.INTER.SOLV>
21.5359

>  <SCORE.INTER.VDW>
-18.4488

>  <SCORE.INTER.norm>
-1.04593

>  <SCORE.INTRA>
0

>  <SCORE.INTRA.DIHEDRAL>
0

>  <SCORE.INTRA.DIHEDRAL.0>
0

>  <SCORE.INTRA.POLAR>
0

>  <SCORE.INTRA.POLAR.0>
0

>  <SCORE.INTRA.REPUL>
0

>  <SCORE.INTRA.REPUL.0>
0

>  <SCORE.INTRA.SOLV>
0

>  <SCORE.INTRA.SOLV.lig_0>
-48.3454

>  <SCORE.INTRA.VDW>
0

>  <SCORE.INTRA.VDW.0>
0

>  <SCORE.INTRA.norm>
0

>  <SCORE.RESTR>
0

>  <SCORE.RESTR.CAVITY>
0

>  <SCORE.RESTR.norm>
0

>  <SCORE.SYSTEM>
0

>  <SCORE.SYSTEM.CONST>
0

>  <SCORE.SYSTEM.DIHEDRAL>
0

>  <SCORE.SYSTEM.SOLV>
0

>  <SCORE.SYSTEM.norm>
0

>  <SCORE.heavy>
11

>  <SCORE.norm>
-1.04593

>  <RMSD>
0.583

$$$$
ligand
 OpenBabel01301917033D
libRbt.so/2013.1/901 2013/11/27
 11 12  0  0  0  0  0  0  0  0999 V2000
  -11.8618  -12.7150    8.8624 N   0  0  0  0  0  0  0  0  0  0  0  0
  -11.5311  -14.0118    8.9713 C   0  0  0  0  0  0  0  0  0  0  0  0
  -11.5661  -14.6045   10.1615 N   0  0  0  0  0  0  0  0  0  0  0  0
  -11.1553  -14.7134    7.8908 N   0  0  0  0  0  0  0  0  0  0  0  0
  -11.0998  -14.1331    6.6829 C   0  0  0  0  0  0  0  0  0  0  0  0
  -11.4365  -12.7928    6.5424 C   0  0  0  0  0  0  0  0  0  0  0  0
  -11.8253  -12.0873    7.6764 C   0  0  0  0  0  0  0  0  0  0  0  0
  -12.1653  -10.8050    7.5857 N   0  0  0  0  0  0  0  0  0  0  0  0
  -11.2819  -12.4736    5.2609 N   0  0  0  0  0  0  0  0  0  0  0  0
  -10.8654  -13.5619    4.6175 C   0  0  0  0  0  0  0  0  0  0  0  0
  -10.7535  -14.5728    5.4765 N   0  0  0  0  0  0  0  0  0  0  0  0
  1  7  2  0  0  0  0
  1  2  1  0  0  0  0
  2  3  1  0  0  0  0
  2  4  2  0  0  0  0
  4  5  1  0  0  0  0
  5  6  2  0  0  0  0
  5 11  1  0  0  0  0
  6  7  1  0  0  0  0
  6  9  1  0  0  0  0
  7  8  1  0  0  0  0
  9 10  1  0  0  0  0
 10 11  2  0  0  0  0
M  END
>  <CHROM.1>
-11.41716937,-13.31544347,7.27225021,2.04658567,-1.25501857,2.14744729

>  <Name>
ligand

>  <RI>
0

>  <Rbt.Current_Directory>
/home/itssahil/PROJECTS/Mol_Feturizer/New_Systems/rnas/2b57

>  <Rbt.Executable>
rbdock ($Id: //depot/dev/client3/rdock/2013.1/src/exe/rbdock.cxx#4 $)

>  <Rbt.Library>
libRbt.so (2013.1, Build901 2013/11/27)

>  <Rbt.Parameter_File>
/export/apps/rDock/src/rDock_2013.1_src/data/scripts/dock_solv.prm

>  <Rbt.Receptor>
prm/blind_docking_40.prm

>  <SCORE>
-11.5047

>  <SCORE.INTER>
-11.5047

>  <SCORE.INTER.CONST>
1

>  <SCORE.INTER.POLAR>
0

>  <SCORE.INTER.ROT>
0

>  <SCORE.INTER.SOLV>
21.5301

>  <SCORE.INTER.VDW>
-18.4465

>  <SCORE.INTER.norm>
-1.04589

>  <SCORE.INTRA>
0

>  <SCORE.INTRA.DIHEDRAL>
0

>  <SCORE.INTRA.DIHEDRAL.0>
0

>  <SCORE.INTRA.POLAR>
0

>  <SCORE.INTRA.POLAR.0>
0

>  <SCORE.INTRA.REPUL>
0

>  <SCORE.INTRA.REPUL.0>
0

>  <SCORE.INTRA.SOLV>
0

>  <SCORE.INTRA.SOLV.lig_0>
-48.3454

>  <SCORE.INTRA.VDW>
0

>  <SCORE.INTRA.VDW.0>
0

>  <SCORE.INTRA.norm>
0

>  <SCORE.RESTR>
0

>  <SCORE.RESTR.CAVITY>
0

>  <SCORE.RESTR.norm>
0

>  <SCORE.SYSTEM>
0

>  <SCORE.SYSTEM.CONST>
0

>  <SCORE.SYSTEM.DIHEDRAL>
0

>  <SCORE.SYSTEM.SOLV>
0

>  <SCORE.SYSTEM.norm>
0

>  <SCORE.heavy>
11

>  <SCORE.norm>
-1.04589

>  <RMSD>
0.584

$$$$
ligand
 OpenBabel01301917033D
libRbt.so/2013.1/901 2013/11/27
 11 12  0  0  0  0  0  0  0  0999 V2000
  -11.8539  -12.6992    8.8605 N   0  0  0  0  0  0  0  0  0  0  0  0
  -11.5239  -13.9956    8.9748 C   0  0  0  0  0  0  0  0  0  0  0  0
  -11.5561  -14.5826   10.1679 N   0  0  0  0  0  0  0  0  0  0  0  0
  -11.1514  -14.7028    7.8967 N   0  0  0  0  0  0  0  0  0  0  0  0
  -11.0986  -14.1283    6.6859 C   0  0  0  0  0  0  0  0  0  0  0  0
  -11.4349  -12.7885    6.5397 C   0  0  0  0  0  0  0  0  0  0  0  0
  -11.8201  -12.0773    7.6713 C   0  0  0  0  0  0  0  0  0  0  0  0
  -12.1595  -10.7952    7.5753 N   0  0  0  0  0  0  0  0  0  0  0  0
  -11.2834  -12.4756    5.2563 N   0  0  0  0  0  0  0  0  0  0  0  0
  -10.8693  -13.5673    4.6171 C   0  0  0  0  0  0  0  0  0  0  0  0
  -10.7559  -14.5742    5.4807 N   0  0  0  0  0  0  0  0  0  0  0  0
  1  7  2  0  0  0  0
  1  2  1  0  0  0  0
  2  3  1  0  0  0  0
  2  4  2  0  0  0  0
  4  5  1  0  0  0  0
  5  6  2  0  0  0  0
  5 11  1  0  0  0  0
  6  7  1  0  0  0  0
  6  9  1  0  0  0  0
  7  8  1  0  0  0  0
  9 10  1  0  0  0  0
 10 11  2  0  0  0  0
M  END
>  <CHROM.1>
-11.41390915,-13.30763882,7.27207768,2.04060880,-1.25702688,2.13691575

>  <Name>
ligand

>  <RI>
0

>  <Rbt.Current_Directory>
/home/itssahil/PROJECTS/Mol_Feturizer/New_Systems/rnas/2b57

>  <Rbt.Executable>
rbdock ($Id: //depot/dev/client3/rdock/2013.1/src/exe/rbdock.cxx#4 $)

>  <Rbt.Library>
libRbt.so (2013.1, Build901 2013/11/27)

>  <Rbt.Parameter_File>
/export/apps/rDock/src/rDock_2013.1_src/data/scripts/dock_solv.prm

>  <Rbt.Receptor>
prm/pocket_docking_4.prm

>  <SCORE>
-11.5058

>  <SCORE.INTER>
-11.5058

>  <SCORE.INTER.CONST>
1

>  <SCORE.INTER.POLAR>
0

>  <SCORE.INTER.ROT>
0

>  <SCORE.INTER.SOLV>
21.537

>  <SCORE.INTER.VDW>
-18.4496

>  <SCORE.INTER.norm>
-1.04598

>  <SCORE.INTRA>
0

>  <SCORE.INTRA.DIHEDRAL>
0

>  <SCORE.INTRA.DIHEDRAL.0>
0

>  <SCORE.INTRA.POLAR>
0

>  <SCORE.INTRA.POLAR.0>
0

>  <SCORE.INTRA.REPUL>
0

>  <SCORE.INTRA.REPUL.0>
0

>  <SCORE.INTRA.SOLV>
0

>  <SCORE.INTRA.SOLV.lig_0>
-48.3454

>  <SCORE.INTRA.VDW>
0

>  <SCORE.INTRA.VDW.0>
0

>  <SCORE.INTRA.norm>
0

>  <SCORE.RESTR>
0

>  <SCORE.RESTR.CAVITY>
0

>  <SCORE.RESTR.norm>
0

>  <SCORE.SYSTEM>
0

>  <SCORE.SYSTEM.CONST>
0

>  <SCORE.SYSTEM.DIHEDRAL>
0

>  <SCORE.SYSTEM.SOLV>
0

>  <SCORE.SYSTEM.norm>
0

>  <SCORE.heavy>
11

>  <SCORE.norm>
-1.04598

>  <RMSD>
0.584

$$$$
ligand
 OpenBabel01301917033D
libRbt.so/2013.1/901 2013/11/27
 11 12  0  0  0  0  0  0  0  0999 V2000
  -11.8753  -12.7805    8.8789 N   0  0  0  0  0  0  0  0  0  0  0  0
  -11.5295  -14.0749    8.9667 C   0  0  0  0  0  0  0  0  0  0  0  0
  -11.5570  -14.6872   10.1471 N   0  0  0  0  0  0  0  0  0  0  0  0
  -11.1459  -14.7545    7.8748 N   0  0  0  0  0  0  0  0  0  0  0  0
  -11.0977  -14.1540    6.6765 C   0  0  0  0  0  0  0  0  0  0  0  0
  -11.4502  -12.8156    6.5578 C   0  0  0  0  0  0  0  0  0  0  0  0
  -11.8468  -12.1333    7.7032 C   0  0  0  0  0  0  0  0  0  0  0  0
  -12.2018  -10.8538    7.6334 N   0  0  0  0  0  0  0  0  0  0  0  0
  -11.2999  -12.4739    5.2816 N   0  0  0  0  0  0  0  0  0  0  0  0
  -10.8709  -13.5468    4.6205 C   0  0  0  0  0  0  0  0  0  0  0  0
  -10.7469  -14.5701    5.4631 N   0  0  0  0  0  0  0  0  0  0  0  0
  1  7  2  0  0  0  0
  1  2  1  0  0  0  0
  2  3  1  0  0  0  0
  2  4  2  0  0  0  0
  4  5  1  0  0  0  0
  5  6  2  0  0  0  0
  5 11  1  0  0  0  0
  6  7  1  0  0  0  0
  6  9  1  0  0  0  0
  7  8  1  0  0  0  0
  9 10  1  0  0  0  0
 10 11  2  0  0  0  0
M  END
>  <CHROM.1>
-11.42441399,-13.34983070,7.27908588,2.02544177,-1.24535784,2.14358213

>  <Name>
ligand

>  <RI>
0

>  <Rbt.Current_Directory>
/home/itssahil/PROJECTS/Mol_Feturizer/New_Systems/rnas/2b57

>  <Rbt.Executable>
rbdock ($Id: //depot/dev/client3/rdock/2013.1/src/exe/rbdock.cxx#4 $)

>  <Rbt.Library>
libRbt.so (2013.1, Build901 2013/11/27)

>  <Rbt.Parameter_File>
/export/apps/rDock/src/rDock_2013.1_src/data/scripts/dock_solv.prm

>  <Rbt.Receptor>
prm/pocket_docking_4.prm

>  <SCORE>
-11.552

>  <SCORE.INTER>
-11.552

>  <SCORE.INTER.CONST>
1

>  <SCORE.INTER.POLAR>
0

>  <SCORE.INTER.ROT>
0

>  <SCORE.INTER.SOLV>
21.4962

>  <SCORE.INTER.VDW>
-18.4667

>  <SCORE.INTER.norm>
-1.05018

>  <SCORE.INTRA>
0

>  <SCORE.INTRA.DIHEDRAL>
0

>  <SCORE.INTRA.DIHEDRAL.0>
0

>  <SCORE.INTRA.POLAR>
0

>  <SCORE.INTRA.POLAR.0>
0

>  <SCORE.INTRA.REPUL>
0

>  <SCORE.INTRA.REPUL.0>
0

>  <SCORE.INTRA.SOLV>
0

>  <SCORE.INTRA.SOLV.lig_0>
-48.3454

>  <SCORE.INTRA.VDW>
0

>  <SCORE.INTRA.VDW.0>
0

>  <SCORE.INTRA.norm>
0

>  <SCORE.RESTR>
0

>  <SCORE.RESTR.CAVITY>
0

>  <SCORE.RESTR.norm>
0

>  <SCORE.SYSTEM>
0

>  <SCORE.SYSTEM.CONST>
0

>  <SCORE.SYSTEM.DIHEDRAL>
0

>  <SCORE.SYSTEM.SOLV>
0

>  <SCORE.SYSTEM.norm>
0

>  <SCORE.heavy>
11

>  <SCORE.norm>
-1.05018

>  <RMSD>
0.584

$$$$
ligand
 OpenBabel01301917033D
libRbt.so/2013.1/901 2013/11/27
 11 12  0  0  0  0  0  0  0  0999 V2000
  -11.8657  -12.7780    8.8824 N   0  0  0  0  0  0  0  0  0  0  0  0
  -11.5274  -14.0744    8.9684 C   0  0  0  0  0  0  0  0  0  0  0  0
  -11.5577  -14.6880   10.1481 N   0  0  0  0  0  0  0  0  0  0  0  0
  -11.1487  -14.7550    7.8755 N   0  0  0  0  0  0  0  0  0  0  0  0
  -11.0978  -14.1534    6.6778 C   0  0  0  0  0  0  0  0  0  0  0  0
  -11.4425  -12.8128    6.5609 C   0  0  0  0  0  0  0  0  0  0  0  0
  -11.8342  -12.1295    7.7074 C   0  0  0  0  0  0  0  0  0  0  0  0
  -12.1817  -10.8478    7.6394 N   0  0  0  0  0  0  0  0  0  0  0  0
  -11.2911  -12.4705    5.2850 N   0  0  0  0  0  0  0  0  0  0  0  0
  -10.8689  -13.5451    4.6224 C   0  0  0  0  0  0  0  0  0  0  0  0
  -10.7503  -14.5701    5.4636 N   0  0  0  0  0  0  0  0  0  0  0  0
  1  7  2  0  0  0  0
  1  2  1  0  0  0  0
  2  3  1  0  0  0  0
  2  4  2  0  0  0  0
  4  5  1  0  0  0  0
  5  6  2  0  0  0  0
  5 11  1  0  0  0  0
  6  7  1  0  0  0  0
  6  9  1  0  0  0  0
  7  8  1  0  0  0  0
  9 10  1  0  0  0  0
 10 11  2  0  0  0  0
M  END
>  <CHROM.1>
-11.41930741,-13.34802695,7.28159645,2.03371343,-1.25068885,2.15260868

>  <Name>
ligand

>  <RI>
0

>  <Rbt.Current_Directory>
/home/itssahil/PROJECTS/Mol_Feturizer/New_Systems/rnas/2b57

>  <Rbt.Executable>
rbdock ($Id: //depot/dev/client3/rdock/2013.1/src/exe/rbdock.cxx#4 $)

>  <Rbt.Library>
libRbt.so (2013.1, Build901 2013/11/27)

>  <Rbt.Parameter_File>
/export/apps/rDock/src/rDock_2013.1_src/data/scripts/dock_solv.prm

>  <Rbt.Receptor>
prm/pocket_docking_7.prm

>  <SCORE>
-11.5447

>  <SCORE.INTER>
-11.5447

>  <SCORE.INTER.CONST>
1

>  <SCORE.INTER.POLAR>
0

>  <SCORE.INTER.ROT>
0

>  <SCORE.INTER.SOLV>
21.5743

>  <SCORE.INTER.VDW>
-18.4879

>  <SCORE.INTER.norm>
-1.04952

>  <SCORE.INTRA>
0

>  <SCORE.INTRA.DIHEDRAL>
0

>  <SCORE.INTRA.DIHEDRAL.0>
0

>  <SCORE.INTRA.POLAR>
0

>  <SCORE.INTRA.POLAR.0>
0

>  <SCORE.INTRA.REPUL>
0

>  <SCORE.INTRA.REPUL.0>
0

>  <SCORE.INTRA.SOLV>
0

>  <SCORE.INTRA.SOLV.lig_0>
-48.3454

>  <SCORE.INTRA.VDW>
0

>  <SCORE.INTRA.VDW.0>
0

>  <SCORE.INTRA.norm>
0

>  <SCORE.RESTR>
0

>  <SCORE.RESTR.CAVITY>
0

>  <SCORE.RESTR.norm>
0

>  <SCORE.SYSTEM>
0

>  <SCORE.SYSTEM.CONST>
0

>  <SCORE.SYSTEM.DIHEDRAL>
0

>  <SCORE.SYSTEM.SOLV>
0

>  <SCORE.SYSTEM.norm>
0

>  <SCORE.heavy>
11

>  <SCORE.norm>
-1.04952

>  <RMSD>
0.584

$$$$
ligand
 OpenBabel01301917033D
libRbt.so/2013.1/901 2013/11/27
 11 12  0  0  0  0  0  0  0  0999 V2000
  -11.8573  -12.7764    8.8837 N   0  0  0  0  0  0  0  0  0  0  0  0
  -11.5259  -14.0747    8.9698 C   0  0  0  0  0  0  0  0  0  0  0  0
  -11.5583  -14.6877   10.1497 N   0  0  0  0  0  0  0  0  0  0  0  0
  -11.1517  -14.7576    7.8768 N   0  0  0  0  0  0  0  0  0  0  0  0
  -11.0987  -14.1567    6.6789 C   0  0  0  0  0  0  0  0  0  0  0  0
  -11.4364  -12.8143    6.5619 C   0  0  0  0  0  0  0  0  0  0  0  0
  -11.8233  -12.1285    7.7085 C   0  0  0  0  0  0  0  0  0  0  0  0
  -12.1641  -10.8451    7.6403 N   0  0  0  0  0  0  0  0  0  0  0  0
  -11.2843  -12.4732    5.2857 N   0  0  0  0  0  0  0  0  0  0  0  0
  -10.8685  -13.5502    4.6230 C   0  0  0  0  0  0  0  0  0  0  0  0
  -10.7545  -14.5756    5.4645 N   0  0  0  0  0  0  0  0  0  0  0  0
  1  7  2  0  0  0  0
  1  2  1  0  0  0  0
  2  3  1  0  0  0  0
  2  4  2  0  0  0  0
  4  5  1  0  0  0  0
  5  6  2  0  0  0  0
  5 11  1  0  0  0  0
  6  7  1  0  0  0  0
  6  9  1  0  0  0  0
  7  8  1  0  0  0  0
  9 10  1  0  0  0  0
 10 11  2  0  0  0  0
M  END
>  <CHROM.1>
-11.41538496,-13.34939141,7.28268036,2.04070229,-1.25563836,2.15891511

>  <Name>
ligand

>  <RI>
0

>  <Rbt.Current_Directory>
/home/itssahil/PROJECTS/Mol_Feturizer/New_Systems/rnas/2b57

>  <Rbt.Executable>
rbdock ($Id: //depot/dev/client3/rdock/2013.1/src/exe/rbdock.cxx#4 $)

>  <Rbt.Library>
libRbt.so (2013.1, Build901 2013/11/27)

>  <Rbt.Parameter_File>
/export/apps/rDock/src/rDock_2013.1_src/data/scripts/dock_solv.prm

>  <Rbt.Receptor>
prm/blind_docking_100.prm

>  <SCORE>
-11.5346

>  <SCORE.INTER>
-11.5346

>  <SCORE.INTER.CONST>
1

>  <SCORE.INTER.POLAR>
0

>  <SCORE.INTER.ROT>
0

>  <SCORE.INTER.SOLV>
21.6352

>  <SCORE.INTER.VDW>
-18.5015

>  <SCORE.INTER.norm>
-1.0486

>  <SCORE.INTRA>
0

>  <SCORE.INTRA.DIHEDRAL>
0

>  <SCORE.INTRA.DIHEDRAL.0>
0

>  <SCORE.INTRA.POLAR>
0

>  <SCORE.INTRA.POLAR.0>
0

>  <SCORE.INTRA.REPUL>
0

>  <SCORE.INTRA.REPUL.0>
0

>  <SCORE.INTRA.SOLV>
0

>  <SCORE.INTRA.SOLV.lig_0>
-48.3454

>  <SCORE.INTRA.VDW>
0

>  <SCORE.INTRA.VDW.0>
0

>  <SCORE.INTRA.norm>
0

>  <SCORE.RESTR>
0

>  <SCORE.RESTR.CAVITY>
0

>  <SCORE.RESTR.norm>
0

>  <SCORE.SYSTEM>
0

>  <SCORE.SYSTEM.CONST>
0

>  <SCORE.SYSTEM.DIHEDRAL>
0

>  <SCORE.SYSTEM.SOLV>
0

>  <SCORE.SYSTEM.norm>
0

>  <SCORE.heavy>
11

>  <SCORE.norm>
-1.0486

>  <RMSD>
0.585

$$$$
ligand
 OpenBabel01301917033D
libRbt.so/2013.1/901 2013/11/27
 11 12  0  0  0  0  0  0  0  0999 V2000
  -11.8484  -12.7676    8.8798 N   0  0  0  0  0  0  0  0  0  0  0  0
  -11.4908  -14.0584    8.9728 C   0  0  0  0  0  0  0  0  0  0  0  0
  -11.5050  -14.6640   10.1568 N   0  0  0  0  0  0  0  0  0  0  0  0
  -11.1089  -14.7411    7.8823 N   0  0  0  0  0  0  0  0  0  0  0  0
  -11.0740  -14.1472    6.6802 C   0  0  0  0  0  0  0  0  0  0  0  0
  -11.4388  -12.8126    6.5561 C   0  0  0  0  0  0  0  0  0  0  0  0
  -11.8334  -12.1270    7.7002 C   0  0  0  0  0  0  0  0  0  0  0  0
  -12.2000  -10.8510    7.6255 N   0  0  0  0  0  0  0  0  0  0  0  0
  -11.3001  -12.4771    5.2770 N   0  0  0  0  0  0  0  0  0  0  0  0
  -10.8665  -13.5501    4.6192 C   0  0  0  0  0  0  0  0  0  0  0  0
  -10.7278  -14.5674    5.4668 N   0  0  0  0  0  0  0  0  0  0  0  0
  1  7  2  0  0  0  0
  1  2  1  0  0  0  0
  2  3  1  0  0  0  0
  2  4  2  0  0  0  0
  4  5  1  0  0  0  0
  5  6  2  0  0  0  0
  5 11  1  0  0  0  0
  6  7  1  0  0  0  0
  6  9  1  0  0  0  0
  7  8  1  0  0  0  0
  9 10  1  0  0  0  0
 10 11  2  0  0  0  0
M  END
>  <CHROM.1>
-11.40349191,-13.34235384,7.28031615,1.99328946,-1.24165127,2.10732369

>  <Name>
ligand

>  <RI>
0

>  <Rbt.Current_Directory>
/home/itssahil/PROJECTS/Mol_Feturizer/New_Systems/rnas/2b57

>  <Rbt.Executable>
rbdock ($Id: //depot/dev/client3/rdock/2013.1/src/exe/rbdock.cxx#4 $)

>  <Rbt.Library>
libRbt.so (2013.1, Build901 2013/11/27)

>  <Rbt.Parameter_File>
/export/apps/rDock/src/rDock_2013.1_src/data/scripts/dock_solv.prm

>  <Rbt.Receptor>
prm/pocket_docking_7.prm

>  <SCORE>
-11.5286

>  <SCORE.INTER>
-11.5286

>  <SCORE.INTER.CONST>
1

>  <SCORE.INTER.POLAR>
0

>  <SCORE.INTER.ROT>
0

>  <SCORE.INTER.SOLV>
21.4601

>  <SCORE.INTER.VDW>
-18.4391

>  <SCORE.INTER.norm>
-1.04805

>  <SCORE.INTRA>
0

>  <SCORE.INTRA.DIHEDRAL>
0

>  <SCORE.INTRA.DIHEDRAL.0>
0

>  <SCORE.INTRA.POLAR>
0

>  <SCORE.INTRA.POLAR.0>
0

>  <SCORE.INTRA.REPUL>
0

>  <SCORE.INTRA.REPUL.0>
0

>  <SCORE.INTRA.SOLV>
0

>  <SCORE.INTRA.SOLV.lig_0>
-48.3454

>  <SCORE.INTRA.VDW>
0

>  <SCORE.INTRA.VDW.0>
0

>  <SCORE.INTRA.norm>
0

>  <SCORE.RESTR>
0

>  <SCORE.RESTR.CAVITY>
0

>  <SCORE.RESTR.norm>
0

>  <SCORE.SYSTEM>
0

>  <SCORE.SYSTEM.CONST>
0

>  <SCORE.SYSTEM.DIHEDRAL>
0

>  <SCORE.SYSTEM.SOLV>
0

>  <SCORE.SYSTEM.norm>
0

>  <SCORE.heavy>
11

>  <SCORE.norm>
-1.04805

>  <RMSD>
0.586

$$$$
ligand
 OpenBabel01301917033D
libRbt.so/2013.1/901 2013/11/27
 11 12  0  0  0  0  0  0  0  0999 V2000
  -11.9238  -12.6960    8.8355 N   0  0  0  0  0  0  0  0  0  0  0  0
  -11.5896  -13.9904    8.9600 C   0  0  0  0  0  0  0  0  0  0  0  0
  -11.6423  -14.5743   10.1539 N   0  0  0  0  0  0  0  0  0  0  0  0
  -11.1925  -14.6987    7.8915 N   0  0  0  0  0  0  0  0  0  0  0  0
  -11.1188  -14.1273    6.6803 C   0  0  0  0  0  0  0  0  0  0  0  0
  -11.4588  -12.7896    6.5237 C   0  0  0  0  0  0  0  0  0  0  0  0
  -11.8698  -12.0772    7.6455 C   0  0  0  0  0  0  0  0  0  0  0  0
  -12.2137  -10.7971    7.5392 N   0  0  0  0  0  0  0  0  0  0  0  0
  -11.2837  -12.4794    5.2426 N   0  0  0  0  0  0  0  0  0  0  0  0
  -10.8517  -13.5708    4.6148 C   0  0  0  0  0  0  0  0  0  0  0  0
  -10.7502  -14.5747    5.4834 N   0  0  0  0  0  0  0  0  0  0  0  0
  1  7  2  0  0  0  0
  1  2  1  0  0  0  0
  2  3  1  0  0  0  0
  2  4  2  0  0  0  0
  4  5  1  0  0  0  0
  5  6  2  0  0  0  0
  5 11  1  0  0  0  0
  6  7  1  0  0  0  0
  6  9  1  0  0  0  0
  7  8  1  0  0  0  0
  9 10  1  0  0  0  0
 10 11  2  0  0  0  0
M  END
>  <CHROM.1>
-11.44965202,-13.30658198,7.25783190,2.08362502,-1.24195559,2.17492813

>  <Name>
ligand

>  <RI>
0

>  <Rbt.Current_Directory>
/home/itssahil/PROJECTS/Mol_Feturizer/New_Systems/rnas/2b57

>  <Rbt.Executable>
rbdock ($Id: //depot/dev/client3/rdock/2013.1/src/exe/rbdock.cxx#4 $)

>  <Rbt.Library>
libRbt.so (2013.1, Build901 2013/11/27)

>  <Rbt.Parameter_File>
/export/apps/rDock/src/rDock_2013.1_src/data/scripts/dock_solv.prm

>  <Rbt.Receptor>
prm/pocket_docking_4.prm

>  <SCORE>
-11.4505

>  <SCORE.INTER>
-11.4505

>  <SCORE.INTER.CONST>
1

>  <SCORE.INTER.POLAR>
0

>  <SCORE.INTER.ROT>
0

>  <SCORE.INTER.SOLV>
21.3016

>  <SCORE.INTER.VDW>
-18.3342

>  <SCORE.INTER.norm>
-1.04096

>  <SCORE.INTRA>
0

>  <SCORE.INTRA.DIHEDRAL>
0

>  <SCORE.INTRA.DIHEDRAL.0>
0

>  <SCORE.INTRA.POLAR>
0

>  <SCORE.INTRA.POLAR.0>
0

>  <SCORE.INTRA.REPUL>
0

>  <SCORE.INTRA.REPUL.0>
0

>  <SCORE.INTRA.SOLV>
0

>  <SCORE.INTRA.SOLV.lig_0>
-48.3454

>  <SCORE.INTRA.VDW>
0

>  <SCORE.INTRA.VDW.0>
0

>  <SCORE.INTRA.norm>
0

>  <SCORE.RESTR>
0

>  <SCORE.RESTR.CAVITY>
0

>  <SCORE.RESTR.norm>
0

>  <SCORE.SYSTEM>
0

>  <SCORE.SYSTEM.CONST>
0

>  <SCORE.SYSTEM.DIHEDRAL>
0

>  <SCORE.SYSTEM.SOLV>
0

>  <SCORE.SYSTEM.norm>
0

>  <SCORE.heavy>
11

>  <SCORE.norm>
-1.04096

>  <RMSD>
0.587

$$$$
ligand
 OpenBabel01301917033D
libRbt.so/2013.1/901 2013/11/27
 11 12  0  0  0  0  0  0  0  0999 V2000
  -11.8907  -12.6839    8.8405 N   0  0  0  0  0  0  0  0  0  0  0  0
  -11.5438  -13.9746    8.9689 C   0  0  0  0  0  0  0  0  0  0  0  0
  -11.5752  -14.5508   10.1672 N   0  0  0  0  0  0  0  0  0  0  0  0
  -11.1554  -14.6866    7.8997 N   0  0  0  0  0  0  0  0  0  0  0  0
  -11.1032  -14.1228    6.6838 C   0  0  0  0  0  0  0  0  0  0  0  0
  -11.4567  -12.7890    6.5232 C   0  0  0  0  0  0  0  0  0  0  0  0
  -11.8583  -12.0727    7.6458 C   0  0  0  0  0  0  0  0  0  0  0  0
  -12.2145  -10.7963    7.5358 N   0  0  0  0  0  0  0  0  0  0  0  0
  -11.3019  -12.4861    5.2378 N   0  0  0  0  0  0  0  0  0  0  0  0
  -10.8693  -13.5780    4.6112 C   0  0  0  0  0  0  0  0  0  0  0  0
  -10.7473  -14.5751    5.4849 N   0  0  0  0  0  0  0  0  0  0  0  0
  1  7  2  0  0  0  0
  1  2  1  0  0  0  0
  2  3  1  0  0  0  0
  2  4  2  0  0  0  0
  4  5  1  0  0  0  0
  5  6  2  0  0  0  0
  5 11  1  0  0  0  0
  6  7  1  0  0  0  0
  6  9  1  0  0  0  0
  7  8  1  0  0  0  0
  9 10  1  0  0  0  0
 10 11  2  0  0  0  0
M  END
>  <CHROM.1>
-11.43309035,-13.30103348,7.26048335,2.03362300,-1.24239641,2.12094452

>  <Name>
ligand

>  <RI>
0

>  <Rbt.Current_Directory>
/home/itssahil/PROJECTS/Mol_Feturizer/New_Systems/rnas/2b57

>  <Rbt.Executable>
rbdock ($Id: //depot/dev/client3/rdock/2013.1/src/exe/rbdock.cxx#4 $)

>  <Rbt.Library>
libRbt.so (2013.1, Build901 2013/11/27)

>  <Rbt.Parameter_File>
/export/apps/rDock/src/rDock_2013.1_src/data/scripts/dock_solv.prm

>  <Rbt.Receptor>
prm/pocket_docking_4.prm

>  <SCORE>
-11.4725

>  <SCORE.INTER>
-11.4725

>  <SCORE.INTER.CONST>
1

>  <SCORE.INTER.POLAR>
0

>  <SCORE.INTER.ROT>
0

>  <SCORE.INTER.SOLV>
21.2972

>  <SCORE.INTER.VDW>
-18.3474

>  <SCORE.INTER.norm>
-1.04296

>  <SCORE.INTRA>
0

>  <SCORE.INTRA.DIHEDRAL>
0

>  <SCORE.INTRA.DIHEDRAL.0>
0

>  <SCORE.INTRA.POLAR>
0

>  <SCORE.INTRA.POLAR.0>
0

>  <SCORE.INTRA.REPUL>
0

>  <SCORE.INTRA.REPUL.0>
0

>  <SCORE.INTRA.SOLV>
0

>  <SCORE.INTRA.SOLV.lig_0>
-48.3454

>  <SCORE.INTRA.VDW>
0

>  <SCORE.INTRA.VDW.0>
0

>  <SCORE.INTRA.norm>
0

>  <SCORE.RESTR>
0

>  <SCORE.RESTR.CAVITY>
0

>  <SCORE.RESTR.norm>
0

>  <SCORE.SYSTEM>
0

>  <SCORE.SYSTEM.CONST>
0

>  <SCORE.SYSTEM.DIHEDRAL>
0

>  <SCORE.SYSTEM.SOLV>
0

>  <SCORE.SYSTEM.norm>
0

>  <SCORE.heavy>
11

>  <SCORE.norm>
-1.04296

>  <RMSD>
0.587

$$$$
ligand
 OpenBabel01301917033D
libRbt.so/2013.1/901 2013/11/27
 11 12  0  0  0  0  0  0  0  0999 V2000
  -11.8588  -12.7140    8.8599 N   0  0  0  0  0  0  0  0  0  0  0  0
  -11.5270  -14.0106    8.9676 C   0  0  0  0  0  0  0  0  0  0  0  0
  -11.5586  -14.6037   10.1577 N   0  0  0  0  0  0  0  0  0  0  0  0
  -11.1534  -14.7116    7.8860 N   0  0  0  0  0  0  0  0  0  0  0  0
  -11.1012  -14.1309    6.6781 C   0  0  0  0  0  0  0  0  0  0  0  0
  -11.4392  -12.7907    6.5388 C   0  0  0  0  0  0  0  0  0  0  0  0
  -11.8256  -12.0859    7.6740 C   0  0  0  0  0  0  0  0  0  0  0  0
  -12.1667  -10.8038    7.5846 N   0  0  0  0  0  0  0  0  0  0  0  0
  -11.2879  -12.4710    5.2571 N   0  0  0  0  0  0  0  0  0  0  0  0
  -10.8723  -13.5589    4.6123 C   0  0  0  0  0  0  0  0  0  0  0  0
  -10.7576  -14.5700    5.4707 N   0  0  0  0  0  0  0  0  0  0  0  0
  1  7  2  0  0  0  0
  1  2  1  0  0  0  0
  2  3  1  0  0  0  0
  2  4  2  0  0  0  0
  4  5  1  0  0  0  0
  5  6  2  0  0  0  0
  5 11  1  0  0  0  0
  6  7  1  0  0  0  0
  6  9  1  0  0  0  0
  7  8  1  0  0  0  0
  9 10  1  0  0  0  0
 10 11  2  0  0  0  0
M  END
>  <CHROM.1>
-11.41767402,-13.31361946,7.26849217,2.03871391,-1.25579580,2.14027576

>  <Name>
ligand

>  <RI>
0

>  <Rbt.Current_Directory>
/home/itssahil/PROJECTS/Mol_Feturizer/New_Systems/rnas/2b57

>  <Rbt.Executable>
rbdock ($Id: //depot/dev/client3/rdock/2013.1/src/exe/rbdock.cxx#4 $)

>  <Rbt.Library>
libRbt.so (2013.1, Build901 2013/11/27)

>  <Rbt.Parameter_File>
/export/apps/rDock/src/rDock_2013.1_src/data/scripts/dock_solv.prm

>  <Rbt.Receptor>
prm/pocket_docking_4.prm

>  <SCORE>
-11.5051

>  <SCORE.INTER>
-11.5051

>  <SCORE.INTER.CONST>
1

>  <SCORE.INTER.POLAR>
0

>  <SCORE.INTER.ROT>
0

>  <SCORE.INTER.SOLV>
21.5278

>  <SCORE.INTER.VDW>
-18.446

>  <SCORE.INTER.norm>
-1.04592

>  <SCORE.INTRA>
0

>  <SCORE.INTRA.DIHEDRAL>
0

>  <SCORE.INTRA.DIHEDRAL.0>
0

>  <SCORE.INTRA.POLAR>
0

>  <SCORE.INTRA.POLAR.0>
0

>  <SCORE.INTRA.REPUL>
0

>  <SCORE.INTRA.REPUL.0>
0

>  <SCORE.INTRA.SOLV>
0

>  <SCORE.INTRA.SOLV.lig_0>
-48.3454

>  <SCORE.INTRA.VDW>
0

>  <SCORE.INTRA.VDW.0>
0

>  <SCORE.INTRA.norm>
0

>  <SCORE.RESTR>
0

>  <SCORE.RESTR.CAVITY>
0

>  <SCORE.RESTR.norm>
0

>  <SCORE.SYSTEM>
0

>  <SCORE.SYSTEM.CONST>
0

>  <SCORE.SYSTEM.DIHEDRAL>
0

>  <SCORE.SYSTEM.SOLV>
0

>  <SCORE.SYSTEM.norm>
0

>  <SCORE.heavy>
11

>  <SCORE.norm>
-1.04592

>  <RMSD>
0.587

$$$$
ligand
 OpenBabel01301917033D
libRbt.so/2013.1/901 2013/11/27
 11 12  0  0  0  0  0  0  0  0999 V2000
  -11.8653  -12.7937    8.8815 N   0  0  0  0  0  0  0  0  0  0  0  0
  -11.5031  -14.0839    8.9642 C   0  0  0  0  0  0  0  0  0  0  0  0
  -11.5193  -14.7001   10.1428 N   0  0  0  0  0  0  0  0  0  0  0  0
  -11.1146  -14.7554    7.8691 N   0  0  0  0  0  0  0  0  0  0  0  0
  -11.0777  -14.1507    6.6725 C   0  0  0  0  0  0  0  0  0  0  0  0
  -11.4472  -12.8165    6.5590 C   0  0  0  0  0  0  0  0  0  0  0  0
  -11.8485  -12.1426    7.7077 C   0  0  0  0  0  0  0  0  0  0  0  0
  -12.2197  -10.8673    7.6429 N   0  0  0  0  0  0  0  0  0  0  0  0
  -11.3052  -12.4691    5.2834 N   0  0  0  0  0  0  0  0  0  0  0  0
  -10.8650  -13.5344    4.6177 C   0  0  0  0  0  0  0  0  0  0  0  0
  -10.7256  -14.5587    5.4567 N   0  0  0  0  0  0  0  0  0  0  0  0
  1  7  2  0  0  0  0
  1  2  1  0  0  0  0
  2  3  1  0  0  0  0
  2  4  2  0  0  0  0
  4  5  1  0  0  0  0
  5  6  2  0  0  0  0
  5 11  1  0  0  0  0
  6  7  1  0  0  0  0
  6  9  1  0  0  0  0
  7  8  1  0  0  0  0
  9 10  1  0  0  0  0
 10 11  2  0  0  0  0
M  END
>  <CHROM.1>
-11.41245174,-13.35246222,7.27854814,1.99678005,-1.23650208,2.11951230

>  <Name>
ligand

>  <RI>
0

>  <Rbt.Current_Directory>
/home/itssahil/PROJECTS/Mol_Feturizer/New_Systems/rnas/2b57

>  <Rbt.Executable>
rbdock ($Id: //depot/dev/client3/rdock/2013.1/src/exe/rbdock.cxx#4 $)

>  <Rbt.Library>
libRbt.so (2013.1, Build901 2013/11/27)

>  <Rbt.Parameter_File>
/export/apps/rDock/src/rDock_2013.1_src/data/scripts/dock_solv.prm

>  <Rbt.Receptor>
prm/blind_docking_80.prm

>  <SCORE>
-11.5441

>  <SCORE.INTER>
-11.5441

>  <SCORE.INTER.CONST>
1

>  <SCORE.INTER.POLAR>
0

>  <SCORE.INTER.ROT>
0

>  <SCORE.INTER.SOLV>
21.4366

>  <SCORE.INTER.VDW>
-18.4416

>  <SCORE.INTER.norm>
-1.04947

>  <SCORE.INTRA>
0

>  <SCORE.INTRA.DIHEDRAL>
0

>  <SCORE.INTRA.DIHEDRAL.0>
0

>  <SCORE.INTRA.POLAR>
0

>  <SCORE.INTRA.POLAR.0>
0

>  <SCORE.INTRA.REPUL>
0

>  <SCORE.INTRA.REPUL.0>
0

>  <SCORE.INTRA.SOLV>
0

>  <SCORE.INTRA.SOLV.lig_0>
-48.3454

>  <SCORE.INTRA.VDW>
0

>  <SCORE.INTRA.VDW.0>
0

>  <SCORE.INTRA.norm>
0

>  <SCORE.RESTR>
0

>  <SCORE.RESTR.CAVITY>
0

>  <SCORE.RESTR.norm>
0

>  <SCORE.SYSTEM>
0

>  <SCORE.SYSTEM.CONST>
0

>  <SCORE.SYSTEM.DIHEDRAL>
0

>  <SCORE.SYSTEM.SOLV>
0

>  <SCORE.SYSTEM.norm>
0

>  <SCORE.heavy>
11

>  <SCORE.norm>
-1.04947

>  <RMSD>
0.588

$$$$
ligand
 OpenBabel01301917033D
libRbt.so/2013.1/901 2013/11/27
 11 12  0  0  0  0  0  0  0  0999 V2000
  -11.9131  -12.6913    8.8355 N   0  0  0  0  0  0  0  0  0  0  0  0
  -11.5755  -13.9849    8.9602 C   0  0  0  0  0  0  0  0  0  0  0  0
  -11.6219  -14.5673   10.1550 N   0  0  0  0  0  0  0  0  0  0  0  0
  -11.1814  -14.6936    7.8908 N   0  0  0  0  0  0  0  0  0  0  0  0
  -11.1141  -14.1235    6.6786 C   0  0  0  0  0  0  0  0  0  0  0  0
  -11.4577  -12.7867    6.5218 C   0  0  0  0  0  0  0  0  0  0  0  0
  -11.8655  -12.0739    7.6445 C   0  0  0  0  0  0  0  0  0  0  0  0
  -12.2126  -10.7947    7.5381 N   0  0  0  0  0  0  0  0  0  0  0  0
  -11.2887  -12.4778    5.2396 N   0  0  0  0  0  0  0  0  0  0  0  0
  -10.8570  -13.5691    4.6113 C   0  0  0  0  0  0  0  0  0  0  0  0
  -10.7496  -14.5716    5.4807 N   0  0  0  0  0  0  0  0  0  0  0  0
  1  7  2  0  0  0  0
  1  2  1  0  0  0  0
  2  3  1  0  0  0  0
  2  4  2  0  0  0  0
  4  5  1  0  0  0  0
  5  6  2  0  0  0  0
  5 11  1  0  0  0  0
  6  7  1  0  0  0  0
  6  9  1  0  0  0  0
  7  8  1  0  0  0  0
  9 10  1  0  0  0  0
 10 11  2  0  0  0  0
M  END
>  <CHROM.1>
-11.44428590,-13.30282265,7.25653659,2.06897311,-1.24255477,2.15982077

>  <Name>
ligand

>  <RI>
0

>  <Rbt.Current_Directory>
/home/itssahil/PROJECTS/Mol_Feturizer/New_Systems/rnas/2b57

>  <Rbt.Executable>
rbdock ($Id: //depot/dev/client3/rdock/2013.1/src/exe/rbdock.cxx#4 $)

>  <Rbt.Library>
libRbt.so (2013.1, Build901 2013/11/27)

>  <Rbt.Parameter_File>
/export/apps/rDock/src/rDock_2013.1_src/data/scripts/dock_solv.prm

>  <Rbt.Receptor>
prm/pocket_docking_7.prm

>  <SCORE>
-11.4545

>  <SCORE.INTER>
-11.4545

>  <SCORE.INTER.CONST>
1

>  <SCORE.INTER.POLAR>
0

>  <SCORE.INTER.ROT>
0

>  <SCORE.INTER.SOLV>
21.3055

>  <SCORE.INTER.VDW>
-18.3382

>  <SCORE.INTER.norm>
-1.04132

>  <SCORE.INTRA>
0

>  <SCORE.INTRA.DIHEDRAL>
0

>  <SCORE.INTRA.DIHEDRAL.0>
0

>  <SCORE.INTRA.POLAR>
0

>  <SCORE.INTRA.POLAR.0>
0

>  <SCORE.INTRA.REPUL>
0

>  <SCORE.INTRA.REPUL.0>
0

>  <SCORE.INTRA.SOLV>
0

>  <SCORE.INTRA.SOLV.lig_0>
-48.3454

>  <SCORE.INTRA.VDW>
0

>  <SCORE.INTRA.VDW.0>
0

>  <SCORE.INTRA.norm>
0

>  <SCORE.RESTR>
0

>  <SCORE.RESTR.CAVITY>
0

>  <SCORE.RESTR.norm>
0

>  <SCORE.SYSTEM>
0

>  <SCORE.SYSTEM.CONST>
0

>  <SCORE.SYSTEM.DIHEDRAL>
0

>  <SCORE.SYSTEM.SOLV>
0

>  <SCORE.SYSTEM.norm>
0

>  <SCORE.heavy>
11

>  <SCORE.norm>
-1.04132

>  <RMSD>
0.588

$$$$
ligand
 OpenBabel01301917033D
libRbt.so/2013.1/901 2013/11/27
 11 12  0  0  0  0  0  0  0  0999 V2000
  -11.8660  -12.7917    8.8806 N   0  0  0  0  0  0  0  0  0  0  0  0
  -11.5076  -14.0831    8.9622 C   0  0  0  0  0  0  0  0  0  0  0  0
  -11.5285  -14.7012   10.1397 N   0  0  0  0  0  0  0  0  0  0  0  0
  -11.1179  -14.7537    7.8670 N   0  0  0  0  0  0  0  0  0  0  0  0
  -11.0761  -14.1472    6.6715 C   0  0  0  0  0  0  0  0  0  0  0  0
  -11.4417  -12.8117    6.5592 C   0  0  0  0  0  0  0  0  0  0  0  0
  -11.8443  -12.1387    7.7080 C   0  0  0  0  0  0  0  0  0  0  0  0
  -12.2119  -10.8624    7.6444 N   0  0  0  0  0  0  0  0  0  0  0  0
  -11.2953  -12.4626    5.2846 N   0  0  0  0  0  0  0  0  0  0  0  0
  -10.8563  -13.5280    4.6183 C   0  0  0  0  0  0  0  0  0  0  0  0
  -10.7218  -14.5541    5.4559 N   0  0  0  0  0  0  0  0  0  0  0  0
  1  7  2  0  0  0  0
  1  2  1  0  0  0  0
  2  3  1  0  0  0  0
  2  4  2  0  0  0  0
  4  5  1  0  0  0  0
  5  6  2  0  0  0  0
  5 11  1  0  0  0  0
  6  7  1  0  0  0  0
  6  9  1  0  0  0  0
  7  8  1  0  0  0  0
  9 10  1  0  0  0  0
 10 11  2  0  0  0  0
M  END
>  <CHROM.1>
-11.41035783,-13.34905172,7.27799851,2.00810483,-1.23739487,2.13191103

>  <Name>
ligand

>  <RI>
0

>  <Rbt.Current_Directory>
/home/itssahil/PROJECTS/Mol_Feturizer/New_Systems/rnas/2b57

>  <Rbt.Executable>
rbdock ($Id: //depot/dev/client3/rdock/2013.1/src/exe/rbdock.cxx#4 $)

>  <Rbt.Library>
libRbt.so (2013.1, Build901 2013/11/27)

>  <Rbt.Parameter_File>
/export/apps/rDock/src/rDock_2013.1_src/data/scripts/dock_solv.prm

>  <Rbt.Receptor>
prm/pocket_docking_8.prm

>  <SCORE>
-11.5539

>  <SCORE.INTER>
-11.5539

>  <SCORE.INTER.CONST>
1

>  <SCORE.INTER.POLAR>
0

>  <SCORE.INTER.ROT>
0

>  <SCORE.INTER.SOLV>
21.4705

>  <SCORE.INTER.VDW>
-18.4594

>  <SCORE.INTER.norm>
-1.05035

>  <SCORE.INTRA>
0

>  <SCORE.INTRA.DIHEDRAL>
0

>  <SCORE.INTRA.DIHEDRAL.0>
0

>  <SCORE.INTRA.POLAR>
0

>  <SCORE.INTRA.POLAR.0>
0

>  <SCORE.INTRA.REPUL>
0

>  <SCORE.INTRA.REPUL.0>
0

>  <SCORE.INTRA.SOLV>
0

>  <SCORE.INTRA.SOLV.lig_0>
-48.3454

>  <SCORE.INTRA.VDW>
0

>  <SCORE.INTRA.VDW.0>
0

>  <SCORE.INTRA.norm>
0

>  <SCORE.RESTR>
0

>  <SCORE.RESTR.CAVITY>
0

>  <SCORE.RESTR.norm>
0

>  <SCORE.SYSTEM>
0

>  <SCORE.SYSTEM.CONST>
0

>  <SCORE.SYSTEM.DIHEDRAL>
0

>  <SCORE.SYSTEM.SOLV>
0

>  <SCORE.SYSTEM.norm>
0

>  <SCORE.heavy>
11

>  <SCORE.norm>
-1.05035

>  <RMSD>
0.588

$$$$
ligand
 OpenBabel01301917033D
libRbt.so/2013.1/901 2013/11/27
 11 12  0  0  0  0  0  0  0  0999 V2000
  -11.8565  -12.7717    8.8759 N   0  0  0  0  0  0  0  0  0  0  0  0
  -11.5044  -14.0642    8.9669 C   0  0  0  0  0  0  0  0  0  0  0  0
  -11.5192  -14.6710   10.1504 N   0  0  0  0  0  0  0  0  0  0  0  0
  -11.1273  -14.7474    7.8750 N   0  0  0  0  0  0  0  0  0  0  0  0
  -11.0919  -14.1524    6.6735 C   0  0  0  0  0  0  0  0  0  0  0  0
  -11.4511  -12.8161    6.5515 C   0  0  0  0  0  0  0  0  0  0  0  0
  -11.8407  -12.1300    7.6970 C   0  0  0  0  0  0  0  0  0  0  0  0
  -12.2018  -10.8523    7.6242 N   0  0  0  0  0  0  0  0  0  0  0  0
  -11.3132  -12.4798    5.2725 N   0  0  0  0  0  0  0  0  0  0  0  0
  -10.8853  -13.5540    4.6128 C   0  0  0  0  0  0  0  0  0  0  0  0
  -10.7497  -14.5728    5.4591 N   0  0  0  0  0  0  0  0  0  0  0  0
  1  7  2  0  0  0  0
  1  2  1  0  0  0  0
  2  3  1  0  0  0  0
  2  4  2  0  0  0  0
  4  5  1  0  0  0  0
  5  6  2  0  0  0  0
  5 11  1  0  0  0  0
  6  7  1  0  0  0  0
  6  9  1  0  0  0  0
  7  8  1  0  0  0  0
  9 10  1  0  0  0  0
 10 11  2  0  0  0  0
M  END
>  <CHROM.1>
-11.41686144,-13.34674015,7.27507147,1.99564318,-1.24628687,2.11060813

>  <Name>
ligand

>  <RI>
0

>  <Rbt.Current_Directory>
/home/itssahil/PROJECTS/Mol_Feturizer/New_Systems/rnas/2b57

>  <Rbt.Executable>
rbdock ($Id: //depot/dev/client3/rdock/2013.1/src/exe/rbdock.cxx#4 $)

>  <Rbt.Library>
libRbt.so (2013.1, Build901 2013/11/27)

>  <Rbt.Parameter_File>
/export/apps/rDock/src/rDock_2013.1_src/data/scripts/dock_solv.prm

>  <Rbt.Receptor>
prm/blind_docking_60.prm

>  <SCORE>
-11.5329

>  <SCORE.INTER>
-11.5329

>  <SCORE.INTER.CONST>
1

>  <SCORE.INTER.POLAR>
0

>  <SCORE.INTER.ROT>
0

>  <SCORE.INTER.SOLV>
21.4648

>  <SCORE.INTER.VDW>
-18.4435

>  <SCORE.INTER.norm>
-1.04844

>  <SCORE.INTRA>
0

>  <SCORE.INTRA.DIHEDRAL>
0

>  <SCORE.INTRA.DIHEDRAL.0>
0

>  <SCORE.INTRA.POLAR>
0

>  <SCORE.INTRA.POLAR.0>
0

>  <SCORE.INTRA.REPUL>
0

>  <SCORE.INTRA.REPUL.0>
0

>  <SCORE.INTRA.SOLV>
0

>  <SCORE.INTRA.SOLV.lig_0>
-48.3454

>  <SCORE.INTRA.VDW>
0

>  <SCORE.INTRA.VDW.0>
0

>  <SCORE.INTRA.norm>
0

>  <SCORE.RESTR>
0

>  <SCORE.RESTR.CAVITY>
0

>  <SCORE.RESTR.norm>
0

>  <SCORE.SYSTEM>
0

>  <SCORE.SYSTEM.CONST>
0

>  <SCORE.SYSTEM.DIHEDRAL>
0

>  <SCORE.SYSTEM.SOLV>
0

>  <SCORE.SYSTEM.norm>
0

>  <SCORE.heavy>
11

>  <SCORE.norm>
-1.04844

>  <RMSD>
0.589

$$$$
ligand
 OpenBabel01301917033D
libRbt.so/2013.1/901 2013/11/27
 11 12  0  0  0  0  0  0  0  0999 V2000
  -11.8622  -12.7927    8.8808 N   0  0  0  0  0  0  0  0  0  0  0  0
  -11.5029  -14.0836    8.9659 C   0  0  0  0  0  0  0  0  0  0  0  0
  -11.5184  -14.6971   10.1459 N   0  0  0  0  0  0  0  0  0  0  0  0
  -11.1178  -14.7585    7.8717 N   0  0  0  0  0  0  0  0  0  0  0  0
  -11.0815  -14.1567    6.6736 C   0  0  0  0  0  0  0  0  0  0  0  0
  -11.4481  -12.8218    6.5576 C   0  0  0  0  0  0  0  0  0  0  0  0
  -11.8459  -12.1444    7.7055 C   0  0  0  0  0  0  0  0  0  0  0  0
  -12.2143  -10.8684    7.6384 N   0  0  0  0  0  0  0  0  0  0  0  0
  -11.3074  -12.4776    5.2810 N   0  0  0  0  0  0  0  0  0  0  0  0
  -10.8709  -13.5456    4.6170 C   0  0  0  0  0  0  0  0  0  0  0  0
  -10.7324  -14.5682    5.4581 N   0  0  0  0  0  0  0  0  0  0  0  0
  1  7  2  0  0  0  0
  1  2  1  0  0  0  0
  2  3  1  0  0  0  0
  2  4  2  0  0  0  0
  4  5  1  0  0  0  0
  5  6  2  0  0  0  0
  5 11  1  0  0  0  0
  6  7  1  0  0  0  0
  6  9  1  0  0  0  0
  7  8  1  0  0  0  0
  9 10  1  0  0  0  0
 10 11  2  0  0  0  0
M  END
>  <CHROM.1>
-11.41336403,-13.35625701,7.27840304,1.99603676,-1.23936247,2.11652985

>  <Name>
ligand

>  <RI>
0

>  <Rbt.Current_Directory>
/home/itssahil/PROJECTS/Mol_Feturizer/New_Systems/rnas/2b57

>  <Rbt.Executable>
rbdock ($Id: //depot/dev/client3/rdock/2013.1/src/exe/rbdock.cxx#4 $)

>  <Rbt.Library>
libRbt.so (2013.1, Build901 2013/11/27)

>  <Rbt.Parameter_File>
/export/apps/rDock/src/rDock_2013.1_src/data/scripts/dock_solv.prm

>  <Rbt.Receptor>
prm/pocket_docking_3.prm

>  <SCORE>
-11.5774

>  <SCORE.INTER>
-11.5774

>  <SCORE.INTER.CONST>
1

>  <SCORE.INTER.POLAR>
0

>  <SCORE.INTER.ROT>
0

>  <SCORE.INTER.SOLV>
21.4486

>  <SCORE.INTER.VDW>
-18.4678

>  <SCORE.INTER.norm>
-1.05249

>  <SCORE.INTRA>
0

>  <SCORE.INTRA.DIHEDRAL>
0

>  <SCORE.INTRA.DIHEDRAL.0>
0

>  <SCORE.INTRA.POLAR>
0

>  <SCORE.INTRA.POLAR.0>
0

>  <SCORE.INTRA.REPUL>
0

>  <SCORE.INTRA.REPUL.0>
0

>  <SCORE.INTRA.SOLV>
0

>  <SCORE.INTRA.SOLV.lig_0>
-48.3454

>  <SCORE.INTRA.VDW>
0

>  <SCORE.INTRA.VDW.0>
0

>  <SCORE.INTRA.norm>
0

>  <SCORE.RESTR>
0

>  <SCORE.RESTR.CAVITY>
0

>  <SCORE.RESTR.norm>
0

>  <SCORE.SYSTEM>
0

>  <SCORE.SYSTEM.CONST>
0

>  <SCORE.SYSTEM.DIHEDRAL>
0

>  <SCORE.SYSTEM.SOLV>
0

>  <SCORE.SYSTEM.norm>
0

>  <SCORE.heavy>
11

>  <SCORE.norm>
-1.05249

>  <RMSD>
0.589

$$$$
ligand
 OpenBabel01301917033D
libRbt.so/2013.1/901 2013/11/27
 11 12  0  0  0  0  0  0  0  0999 V2000
  -11.8712  -12.7926    8.8775 N   0  0  0  0  0  0  0  0  0  0  0  0
  -11.5097  -14.0831    8.9583 C   0  0  0  0  0  0  0  0  0  0  0  0
  -11.5315  -14.7026   10.1351 N   0  0  0  0  0  0  0  0  0  0  0  0
  -11.1162  -14.7516    7.8632 N   0  0  0  0  0  0  0  0  0  0  0  0
  -11.0734  -14.1436    6.6684 C   0  0  0  0  0  0  0  0  0  0  0  0
  -11.4420  -12.8090    6.5569 C   0  0  0  0  0  0  0  0  0  0  0  0
  -11.8486  -12.1382    7.7056 C   0  0  0  0  0  0  0  0  0  0  0  0
  -12.2192  -10.8627    7.6426 N   0  0  0  0  0  0  0  0  0  0  0  0
  -11.2939  -12.4581    5.2830 N   0  0  0  0  0  0  0  0  0  0  0  0
  -10.8509  -13.5217    4.6164 C   0  0  0  0  0  0  0  0  0  0  0  0
  -10.7156  -14.5483    5.4532 N   0  0  0  0  0  0  0  0  0  0  0  0
  1  7  2  0  0  0  0
  1  2  1  0  0  0  0
  2  3  1  0  0  0  0
  2  4  2  0  0  0  0
  4  5  1  0  0  0  0
  5  6  2  0  0  0  0
  5 11  1  0  0  0  0
  6  7  1  0  0  0  0
  6  9  1  0  0  0  0
  7  8  1  0  0  0  0
  9 10  1  0  0  0  0
 10 11  2  0  0  0  0
M  END
>  <CHROM.1>
-11.41082367,-13.34700751,7.27515344,2.00939231,-1.23422298,2.13421650

>  <Name>
ligand

>  <RI>
0

>  <Rbt.Current_Directory>
/home/itssahil/PROJECTS/Mol_Feturizer/New_Systems/rnas/2b57

>  <Rbt.Executable>
rbdock ($Id: //depot/dev/client3/rdock/2013.1/src/exe/rbdock.cxx#4 $)

>  <Rbt.Library>
libRbt.so (2013.1, Build901 2013/11/27)

>  <Rbt.Parameter_File>
/export/apps/rDock/src/rDock_2013.1_src/data/scripts/dock_solv.prm

>  <Rbt.Receptor>
prm/pocket_docking_4.prm

>  <SCORE>
-11.5629

>  <SCORE.INTER>
-11.5629

>  <SCORE.INTER.CONST>
1

>  <SCORE.INTER.POLAR>
0

>  <SCORE.INTER.ROT>
0

>  <SCORE.INTER.SOLV>
21.4445

>  <SCORE.INTER.VDW>
-18.4568

>  <SCORE.INTER.norm>
-1.05117

>  <SCORE.INTRA>
0

>  <SCORE.INTRA.DIHEDRAL>
0

>  <SCORE.INTRA.DIHEDRAL.0>
0

>  <SCORE.INTRA.POLAR>
0

>  <SCORE.INTRA.POLAR.0>
0

>  <SCORE.INTRA.REPUL>
0

>  <SCORE.INTRA.REPUL.0>
0

>  <SCORE.INTRA.SOLV>
0

>  <SCORE.INTRA.SOLV.lig_0>
-48.3454

>  <SCORE.INTRA.VDW>
0

>  <SCORE.INTRA.VDW.0>
0

>  <SCORE.INTRA.norm>
0

>  <SCORE.RESTR>
0

>  <SCORE.RESTR.CAVITY>
0

>  <SCORE.RESTR.norm>
0

>  <SCORE.SYSTEM>
0

>  <SCORE.SYSTEM.CONST>
0

>  <SCORE.SYSTEM.DIHEDRAL>
0

>  <SCORE.SYSTEM.SOLV>
0

>  <SCORE.SYSTEM.norm>
0

>  <SCORE.heavy>
11

>  <SCORE.norm>
-1.05117

>  <RMSD>
0.589

$$$$
ligand
 OpenBabel01301917033D
libRbt.so/2013.1/901 2013/11/27
 11 12  0  0  0  0  0  0  0  0999 V2000
  -11.8572  -12.7134    8.8587 N   0  0  0  0  0  0  0  0  0  0  0  0
  -11.5243  -14.0098    8.9659 C   0  0  0  0  0  0  0  0  0  0  0  0
  -11.5539  -14.6030   10.1560 N   0  0  0  0  0  0  0  0  0  0  0  0
  -11.1517  -14.7105    7.8837 N   0  0  0  0  0  0  0  0  0  0  0  0
  -11.1015  -14.1297    6.6758 C   0  0  0  0  0  0  0  0  0  0  0  0
  -11.4407  -12.7898    6.5370 C   0  0  0  0  0  0  0  0  0  0  0  0
  -11.8261  -12.0853    7.6728 C   0  0  0  0  0  0  0  0  0  0  0  0
  -12.1683  -10.8034    7.5838 N   0  0  0  0  0  0  0  0  0  0  0  0
  -11.2914  -12.4700    5.2551 N   0  0  0  0  0  0  0  0  0  0  0  0
  -10.8758  -13.5575    4.6097 C   0  0  0  0  0  0  0  0  0  0  0  0
  -10.7593  -14.5686    5.4680 N   0  0  0  0  0  0  0  0  0  0  0  0
  1  7  2  0  0  0  0
  1  2  1  0  0  0  0
  2  3  1  0  0  0  0
  2  4  2  0  0  0  0
  4  5  1  0  0  0  0
  5  6  2  0  0  0  0
  5 11  1  0  0  0  0
  6  7  1  0  0  0  0
  6  9  1  0  0  0  0
  7  8  1  0  0  0  0
  9 10  1  0  0  0  0
 10 11  2  0  0  0  0
M  END
>  <CHROM.1>
-11.41782510,-13.31269962,7.26665940,2.03381776,-1.25591466,2.13564624

>  <Name>
ligand

>  <RI>
0

>  <Rbt.Current_Directory>
/home/itssahil/PROJECTS/Mol_Feturizer/New_Systems/rnas/2b57

>  <Rbt.Executable>
rbdock ($Id: //depot/dev/client3/rdock/2013.1/src/exe/rbdock.cxx#4 $)

>  <Rbt.Library>
libRbt.so (2013.1, Build901 2013/11/27)

>  <Rbt.Parameter_File>
/export/apps/rDock/src/rDock_2013.1_src/data/scripts/dock_solv.prm

>  <Rbt.Receptor>
prm/pocket_docking_6.prm

>  <SCORE>
-11.5046

>  <SCORE.INTER>
-11.5046

>  <SCORE.INTER.CONST>
1

>  <SCORE.INTER.POLAR>
0

>  <SCORE.INTER.ROT>
0

>  <SCORE.INTER.SOLV>
21.5229

>  <SCORE.INTER.VDW>
-18.4441

>  <SCORE.INTER.norm>
-1.04587

>  <SCORE.INTRA>
0

>  <SCORE.INTRA.DIHEDRAL>
0

>  <SCORE.INTRA.DIHEDRAL.0>
0

>  <SCORE.INTRA.POLAR>
0

>  <SCORE.INTRA.POLAR.0>
0

>  <SCORE.INTRA.REPUL>
0

>  <SCORE.INTRA.REPUL.0>
0

>  <SCORE.INTRA.SOLV>
0

>  <SCORE.INTRA.SOLV.lig_0>
-48.3454

>  <SCORE.INTRA.VDW>
0

>  <SCORE.INTRA.VDW.0>
0

>  <SCORE.INTRA.norm>
0

>  <SCORE.RESTR>
0

>  <SCORE.RESTR.CAVITY>
0

>  <SCORE.RESTR.norm>
0

>  <SCORE.SYSTEM>
0

>  <SCORE.SYSTEM.CONST>
0

>  <SCORE.SYSTEM.DIHEDRAL>
0

>  <SCORE.SYSTEM.SOLV>
0

>  <SCORE.SYSTEM.norm>
0

>  <SCORE.heavy>
11

>  <SCORE.norm>
-1.04587

>  <RMSD>
0.589

$$$$
ligand
 OpenBabel01301917033D
libRbt.so/2013.1/901 2013/11/27
 11 12  0  0  0  0  0  0  0  0999 V2000
  -11.8907  -12.6901    8.8402 N   0  0  0  0  0  0  0  0  0  0  0  0
  -11.5437  -13.9810    8.9658 C   0  0  0  0  0  0  0  0  0  0  0  0
  -11.5747  -14.5597   10.1630 N   0  0  0  0  0  0  0  0  0  0  0  0
  -11.1555  -14.6908    7.8950 N   0  0  0  0  0  0  0  0  0  0  0  0
  -11.1036  -14.1244    6.6804 C   0  0  0  0  0  0  0  0  0  0  0  0
  -11.4573  -12.7904    6.5225 C   0  0  0  0  0  0  0  0  0  0  0  0
  -11.8587  -12.0764    7.6467 C   0  0  0  0  0  0  0  0  0  0  0  0
  -12.2150  -10.7998    7.5394 N   0  0  0  0  0  0  0  0  0  0  0  0
  -11.3028  -12.4848    5.2377 N   0  0  0  0  0  0  0  0  0  0  0  0
  -10.8702  -13.5754    4.6088 C   0  0  0  0  0  0  0  0  0  0  0  0
  -10.7480  -14.5743    5.4804 N   0  0  0  0  0  0  0  0  0  0  0  0
  1  7  2  0  0  0  0
  1  2  1  0  0  0  0
  2  3  1  0  0  0  0
  2  4  2  0  0  0  0
  4  5  1  0  0  0  0
  5  6  2  0  0  0  0
  5 11  1  0  0  0  0
  6  7  1  0  0  0  0
  6  9  1  0  0  0  0
  7  8  1  0  0  0  0
  9 10  1  0  0  0  0
 10 11  2  0  0  0  0
M  END
>  <CHROM.1>
-11.43342647,-13.30391695,7.25876016,2.03284443,-1.24244074,2.12226963

>  <Name>
ligand

>  <RI>
0

>  <Rbt.Current_Directory>
/home/itssahil/PROJECTS/Mol_Feturizer/New_Systems/rnas/2b57

>  <Rbt.Executable>
rbdock ($Id: //depot/dev/client3/rdock/2013.1/src/exe/rbdock.cxx#4 $)

>  <Rbt.Library>
libRbt.so (2013.1, Build901 2013/11/27)

>  <Rbt.Parameter_File>
/export/apps/rDock/src/rDock_2013.1_src/data/scripts/dock_solv.prm

>  <Rbt.Receptor>
prm/pocket_docking_6.prm

>  <SCORE>
-11.4713

>  <SCORE.INTER>
-11.4713

>  <SCORE.INTER.CONST>
1

>  <SCORE.INTER.POLAR>
0

>  <SCORE.INTER.ROT>
0

>  <SCORE.INTER.SOLV>
21.3029

>  <SCORE.INTER.VDW>
-18.3485

>  <SCORE.INTER.norm>
-1.04285

>  <SCORE.INTRA>
0

>  <SCORE.INTRA.DIHEDRAL>
0

>  <SCORE.INTRA.DIHEDRAL.0>
0

>  <SCORE.INTRA.POLAR>
0

>  <SCORE.INTRA.POLAR.0>
0

>  <SCORE.INTRA.REPUL>
0

>  <SCORE.INTRA.REPUL.0>
0

>  <SCORE.INTRA.SOLV>
0

>  <SCORE.INTRA.SOLV.lig_0>
-48.3454

>  <SCORE.INTRA.VDW>
0

>  <SCORE.INTRA.VDW.0>
0

>  <SCORE.INTRA.norm>
0

>  <SCORE.RESTR>
0

>  <SCORE.RESTR.CAVITY>
0

>  <SCORE.RESTR.norm>
0

>  <SCORE.SYSTEM>
0

>  <SCORE.SYSTEM.CONST>
0

>  <SCORE.SYSTEM.DIHEDRAL>
0

>  <SCORE.SYSTEM.SOLV>
0

>  <SCORE.SYSTEM.norm>
0

>  <SCORE.heavy>
11

>  <SCORE.norm>
-1.04285

>  <RMSD>
0.589

$$$$
ligand
 OpenBabel01301917033D
libRbt.so/2013.1/901 2013/11/27
 11 12  0  0  0  0  0  0  0  0999 V2000
  -11.8586  -12.7168    8.8590 N   0  0  0  0  0  0  0  0  0  0  0  0
  -11.5254  -14.0132    8.9650 C   0  0  0  0  0  0  0  0  0  0  0  0
  -11.5551  -14.6076   10.1544 N   0  0  0  0  0  0  0  0  0  0  0  0
  -11.1523  -14.7128    7.8822 N   0  0  0  0  0  0  0  0  0  0  0  0
  -11.1020  -14.1307    6.6749 C   0  0  0  0  0  0  0  0  0  0  0  0
  -11.4416  -12.7908    6.5373 C   0  0  0  0  0  0  0  0  0  0  0  0
  -11.8275  -12.0875    7.6737 C   0  0  0  0  0  0  0  0  0  0  0  0
  -12.1700  -10.8056    7.5859 N   0  0  0  0  0  0  0  0  0  0  0  0
  -11.2921  -12.4696    5.2557 N   0  0  0  0  0  0  0  0  0  0  0  0
  -10.8761  -13.5564    4.6094 C   0  0  0  0  0  0  0  0  0  0  0  0
  -10.7594  -14.5683    5.4667 N   0  0  0  0  0  0  0  0  0  0  0  0
  1  7  2  0  0  0  0
  1  2  1  0  0  0  0
  2  3  1  0  0  0  0
  2  4  2  0  0  0  0
  4  5  1  0  0  0  0
  5  6  2  0  0  0  0
  5 11  1  0  0  0  0
  6  7  1  0  0  0  0
  6  9  1  0  0  0  0
  7  8  1  0  0  0  0
  9 10  1  0  0  0  0
 10 11  2  0  0  0  0
M  END
>  <CHROM.1>
-11.41869672,-13.31438141,7.26643654,2.03389318,-1.25553408,2.13671275

>  <Name>
ligand

>  <RI>
0

>  <Rbt.Current_Directory>
/home/itssahil/PROJECTS/Mol_Feturizer/New_Systems/rnas/2b57

>  <Rbt.Executable>
rbdock ($Id: //depot/dev/client3/rdock/2013.1/src/exe/rbdock.cxx#4 $)

>  <Rbt.Library>
libRbt.so (2013.1, Build901 2013/11/27)

>  <Rbt.Parameter_File>
/export/apps/rDock/src/rDock_2013.1_src/data/scripts/dock_solv.prm

>  <Rbt.Receptor>
prm/pocket_docking_8.prm

>  <SCORE>
-11.503

>  <SCORE.INTER>
-11.503

>  <SCORE.INTER.CONST>
1

>  <SCORE.INTER.POLAR>
0

>  <SCORE.INTER.ROT>
0

>  <SCORE.INTER.SOLV>
21.5215

>  <SCORE.INTER.VDW>
-18.4425

>  <SCORE.INTER.norm>
-1.04572

>  <SCORE.INTRA>
0

>  <SCORE.INTRA.DIHEDRAL>
0

>  <SCORE.INTRA.DIHEDRAL.0>
0

>  <SCORE.INTRA.POLAR>
0

>  <SCORE.INTRA.POLAR.0>
0

>  <SCORE.INTRA.REPUL>
0

>  <SCORE.INTRA.REPUL.0>
0

>  <SCORE.INTRA.SOLV>
0

>  <SCORE.INTRA.SOLV.lig_0>
-48.3454

>  <SCORE.INTRA.VDW>
0

>  <SCORE.INTRA.VDW.0>
0

>  <SCORE.INTRA.norm>
0

>  <SCORE.RESTR>
0

>  <SCORE.RESTR.CAVITY>
0

>  <SCORE.RESTR.norm>
0

>  <SCORE.SYSTEM>
0

>  <SCORE.SYSTEM.CONST>
0

>  <SCORE.SYSTEM.DIHEDRAL>
0

>  <SCORE.SYSTEM.SOLV>
0

>  <SCORE.SYSTEM.norm>
0

>  <SCORE.heavy>
11

>  <SCORE.norm>
-1.04572

>  <RMSD>
0.589

$$$$
ligand
 OpenBabel01301917033D
libRbt.so/2013.1/901 2013/11/27
 11 12  0  0  0  0  0  0  0  0999 V2000
  -11.8550  -12.7111    8.8576 N   0  0  0  0  0  0  0  0  0  0  0  0
  -11.5232  -14.0076    8.9650 C   0  0  0  0  0  0  0  0  0  0  0  0
  -11.5520  -14.6003   10.1553 N   0  0  0  0  0  0  0  0  0  0  0  0
  -11.1523  -14.7092    7.8827 N   0  0  0  0  0  0  0  0  0  0  0  0
  -11.1029  -14.1289    6.6745 C   0  0  0  0  0  0  0  0  0  0  0  0
  -11.4411  -12.7888    6.5355 C   0  0  0  0  0  0  0  0  0  0  0  0
  -11.8247  -12.0834    7.6713 C   0  0  0  0  0  0  0  0  0  0  0  0
  -12.1658  -10.8013    7.5822 N   0  0  0  0  0  0  0  0  0  0  0  0
  -11.2928  -12.4696    5.2533 N   0  0  0  0  0  0  0  0  0  0  0  0
  -10.8789  -13.5577    4.6079 C   0  0  0  0  0  0  0  0  0  0  0  0
  -10.7623  -14.5686    5.4665 N   0  0  0  0  0  0  0  0  0  0  0  0
  1  7  2  0  0  0  0
  1  2  1  0  0  0  0
  2  3  1  0  0  0  0
  2  4  2  0  0  0  0
  4  5  1  0  0  0  0
  5  6  2  0  0  0  0
  5 11  1  0  0  0  0
  6  7  1  0  0  0  0
  6  9  1  0  0  0  0
  7  8  1  0  0  0  0
  9 10  1  0  0  0  0
 10 11  2  0  0  0  0
M  END
>  <CHROM.1>
-11.41784661,-13.31137288,7.26532545,2.03238595,-1.25719652,2.13386591

>  <Name>
ligand

>  <RI>
0

>  <Rbt.Current_Directory>
/home/itssahil/PROJECTS/Mol_Feturizer/New_Systems/rnas/2b57

>  <Rbt.Executable>
rbdock ($Id: //depot/dev/client3/rdock/2013.1/src/exe/rbdock.cxx#4 $)

>  <Rbt.Library>
libRbt.so (2013.1, Build901 2013/11/27)

>  <Rbt.Parameter_File>
/export/apps/rDock/src/rDock_2013.1_src/data/scripts/dock_solv.prm

>  <Rbt.Receptor>
prm/pocket_docking_3.prm

>  <SCORE>
-11.5031

>  <SCORE.INTER>
-11.5031

>  <SCORE.INTER.CONST>
1

>  <SCORE.INTER.POLAR>
0

>  <SCORE.INTER.ROT>
0

>  <SCORE.INTER.SOLV>
21.5323

>  <SCORE.INTER.VDW>
-18.4462

>  <SCORE.INTER.norm>
-1.04574

>  <SCORE.INTRA>
0

>  <SCORE.INTRA.DIHEDRAL>
0

>  <SCORE.INTRA.DIHEDRAL.0>
0

>  <SCORE.INTRA.POLAR>
0

>  <SCORE.INTRA.POLAR.0>
0

>  <SCORE.INTRA.REPUL>
0

>  <SCORE.INTRA.REPUL.0>
0

>  <SCORE.INTRA.SOLV>
0

>  <SCORE.INTRA.SOLV.lig_0>
-48.3454

>  <SCORE.INTRA.VDW>
0

>  <SCORE.INTRA.VDW.0>
0

>  <SCORE.INTRA.norm>
0

>  <SCORE.RESTR>
0

>  <SCORE.RESTR.CAVITY>
0

>  <SCORE.RESTR.norm>
0

>  <SCORE.SYSTEM>
0

>  <SCORE.SYSTEM.CONST>
0

>  <SCORE.SYSTEM.DIHEDRAL>
0

>  <SCORE.SYSTEM.SOLV>
0

>  <SCORE.SYSTEM.norm>
0

>  <SCORE.heavy>
11

>  <SCORE.norm>
-1.04574

>  <RMSD>
0.590

$$$$
ligand
 OpenBabel01301917033D
libRbt.so/2013.1/901 2013/11/27
 11 12  0  0  0  0  0  0  0  0999 V2000
  -11.8905  -12.6879    8.8369 N   0  0  0  0  0  0  0  0  0  0  0  0
  -11.5391  -13.9778    8.9611 C   0  0  0  0  0  0  0  0  0  0  0  0
  -11.5708  -14.5587   10.1571 N   0  0  0  0  0  0  0  0  0  0  0  0
  -11.1460  -14.6843    7.8899 N   0  0  0  0  0  0  0  0  0  0  0  0
  -11.0935  -14.1156    6.6763 C   0  0  0  0  0  0  0  0  0  0  0  0
  -11.4515  -12.7826    6.5201 C   0  0  0  0  0  0  0  0  0  0  0  0
  -11.8579  -12.0720    7.6446 C   0  0  0  0  0  0  0  0  0  0  0  0
  -12.2185  -10.7965    7.5388 N   0  0  0  0  0  0  0  0  0  0  0  0
  -11.2952  -12.4741    5.2362 N   0  0  0  0  0  0  0  0  0  0  0  0
  -10.8574  -13.5620    4.6063 C   0  0  0  0  0  0  0  0  0  0  0  0
  -10.7336  -14.5621    5.4764 N   0  0  0  0  0  0  0  0  0  0  0  0
  1  7  2  0  0  0  0
  1  2  1  0  0  0  0
  2  3  1  0  0  0  0
  2  4  2  0  0  0  0
  4  5  1  0  0  0  0
  5  6  2  0  0  0  0
  5 11  1  0  0  0  0
  6  7  1  0  0  0  0
  6  9  1  0  0  0  0
  7  8  1  0  0  0  0
  9 10  1  0  0  0  0
 10 11  2  0  0  0  0
M  END
>  <CHROM.1>
-11.42747833,-13.29729177,7.25545277,2.03295179,-1.23825361,2.12414060

>  <Name>
ligand

>  <RI>
0

>  <Rbt.Current_Directory>
/home/itssahil/PROJECTS/Mol_Feturizer/New_Systems/rnas/2b57

>  <Rbt.Executable>
rbdock ($Id: //depot/dev/client3/rdock/2013.1/src/exe/rbdock.cxx#4 $)

>  <Rbt.Library>
libRbt.so (2013.1, Build901 2013/11/27)

>  <Rbt.Parameter_File>
/export/apps/rDock/src/rDock_2013.1_src/data/scripts/dock_solv.prm

>  <Rbt.Receptor>
prm/pocket_docking_3.prm

>  <SCORE>
-11.4484

>  <SCORE.INTER>
-11.4484

>  <SCORE.INTER.CONST>
1

>  <SCORE.INTER.POLAR>
0

>  <SCORE.INTER.ROT>
0

>  <SCORE.INTER.SOLV>
21.2914

>  <SCORE.INTER.VDW>
-18.3294

>  <SCORE.INTER.norm>
-1.04077

>  <SCORE.INTRA>
0

>  <SCORE.INTRA.DIHEDRAL>
0

>  <SCORE.INTRA.DIHEDRAL.0>
0

>  <SCORE.INTRA.POLAR>
0

>  <SCORE.INTRA.POLAR.0>
0

>  <SCORE.INTRA.REPUL>
0

>  <SCORE.INTRA.REPUL.0>
0

>  <SCORE.INTRA.SOLV>
0

>  <SCORE.INTRA.SOLV.lig_0>
-48.3454

>  <SCORE.INTRA.VDW>
0

>  <SCORE.INTRA.VDW.0>
0

>  <SCORE.INTRA.norm>
0

>  <SCORE.RESTR>
0

>  <SCORE.RESTR.CAVITY>
0

>  <SCORE.RESTR.norm>
0

>  <SCORE.SYSTEM>
0

>  <SCORE.SYSTEM.CONST>
0

>  <SCORE.SYSTEM.DIHEDRAL>
0

>  <SCORE.SYSTEM.SOLV>
0

>  <SCORE.SYSTEM.norm>
0

>  <SCORE.heavy>
11

>  <SCORE.norm>
-1.04077

>  <RMSD>
0.591

$$$$
ligand
 OpenBabel01301917033D
libRbt.so/2013.1/901 2013/11/27
 11 12  0  0  0  0  0  0  0  0999 V2000
  -11.8425  -12.7730    8.8790 N   0  0  0  0  0  0  0  0  0  0  0  0
  -11.4873  -14.0647    8.9681 C   0  0  0  0  0  0  0  0  0  0  0  0
  -11.4987  -14.6727   10.1510 N   0  0  0  0  0  0  0  0  0  0  0  0
  -11.1104  -14.7460    7.8750 N   0  0  0  0  0  0  0  0  0  0  0  0
  -11.0784  -14.1498    6.6739 C   0  0  0  0  0  0  0  0  0  0  0  0
  -11.4409  -12.8142    6.5538 C   0  0  0  0  0  0  0  0  0  0  0  0
  -11.8301  -12.1301    7.7006 C   0  0  0  0  0  0  0  0  0  0  0  0
  -12.1943  -10.8532    7.6296 N   0  0  0  0  0  0  0  0  0  0  0  0
  -11.3058  -12.4764    5.2749 N   0  0  0  0  0  0  0  0  0  0  0  0
  -10.8766  -13.5489    4.6135 C   0  0  0  0  0  0  0  0  0  0  0  0
  -10.7372  -14.5682    5.4585 N   0  0  0  0  0  0  0  0  0  0  0  0
  1  7  2  0  0  0  0
  1  2  1  0  0  0  0
  2  3  1  0  0  0  0
  2  4  2  0  0  0  0
  4  5  1  0  0  0  0
  5  6  2  0  0  0  0
  5 11  1  0  0  0  0
  6  7  1  0  0  0  0
  6  9  1  0  0  0  0
  7  8  1  0  0  0  0
  9 10  1  0  0  0  0
 10 11  2  0  0  0  0
M  END
>  <CHROM.1>
-11.40418754,-13.34544593,7.27681057,1.98750302,-1.24515955,2.10383919

>  <Name>
ligand

>  <RI>
0

>  <Rbt.Current_Directory>
/home/itssahil/PROJECTS/Mol_Feturizer/New_Systems/rnas/2b57

>  <Rbt.Executable>
rbdock ($Id: //depot/dev/client3/rdock/2013.1/src/exe/rbdock.cxx#4 $)

>  <Rbt.Library>
libRbt.so (2013.1, Build901 2013/11/27)

>  <Rbt.Parameter_File>
/export/apps/rDock/src/rDock_2013.1_src/data/scripts/dock_solv.prm

>  <Rbt.Receptor>
prm/pocket_docking_5.prm

>  <SCORE>
-11.5507

>  <SCORE.INTER>
-11.5507

>  <SCORE.INTER.CONST>
1

>  <SCORE.INTER.POLAR>
0

>  <SCORE.INTER.ROT>
0

>  <SCORE.INTER.SOLV>
21.4912

>  <SCORE.INTER.VDW>
-18.4642

>  <SCORE.INTER.norm>
-1.05007

>  <SCORE.INTRA>
0

>  <SCORE.INTRA.DIHEDRAL>
0

>  <SCORE.INTRA.DIHEDRAL.0>
0

>  <SCORE.INTRA.POLAR>
0

>  <SCORE.INTRA.POLAR.0>
0

>  <SCORE.INTRA.REPUL>
0

>  <SCORE.INTRA.REPUL.0>
0

>  <SCORE.INTRA.SOLV>
0

>  <SCORE.INTRA.SOLV.lig_0>
-48.3454

>  <SCORE.INTRA.VDW>
0

>  <SCORE.INTRA.VDW.0>
0

>  <SCORE.INTRA.norm>
0

>  <SCORE.RESTR>
0

>  <SCORE.RESTR.CAVITY>
0

>  <SCORE.RESTR.norm>
0

>  <SCORE.SYSTEM>
0

>  <SCORE.SYSTEM.CONST>
0

>  <SCORE.SYSTEM.DIHEDRAL>
0

>  <SCORE.SYSTEM.SOLV>
0

>  <SCORE.SYSTEM.norm>
0

>  <SCORE.heavy>
11

>  <SCORE.norm>
-1.05007

>  <RMSD>
0.591

$$$$
ligand
 OpenBabel01301917033D
libRbt.so/2013.1/901 2013/11/27
 11 12  0  0  0  0  0  0  0  0999 V2000
  -11.8514  -12.7690    8.8741 N   0  0  0  0  0  0  0  0  0  0  0  0
  -11.5058  -14.0635    8.9615 C   0  0  0  0  0  0  0  0  0  0  0  0
  -11.5250  -14.6738   10.1431 N   0  0  0  0  0  0  0  0  0  0  0  0
  -11.1307  -14.7451    7.8680 N   0  0  0  0  0  0  0  0  0  0  0  0
  -11.0909  -14.1466    6.6684 C   0  0  0  0  0  0  0  0  0  0  0  0
  -11.4433  -12.8082    6.5500 C   0  0  0  0  0  0  0  0  0  0  0  0
  -11.8309  -12.1237    7.6972 C   0  0  0  0  0  0  0  0  0  0  0  0
  -12.1856  -10.8440    7.6279 N   0  0  0  0  0  0  0  0  0  0  0  0
  -11.3021  -12.4686    5.2723 N   0  0  0  0  0  0  0  0  0  0  0  0
  -10.8788  -13.5428    4.6098 C   0  0  0  0  0  0  0  0  0  0  0  0
  -10.7492  -14.5649    5.4531 N   0  0  0  0  0  0  0  0  0  0  0  0
  1  7  2  0  0  0  0
  1  2  1  0  0  0  0
  2  3  1  0  0  0  0
  2  4  2  0  0  0  0
  4  5  1  0  0  0  0
  5  6  2  0  0  0  0
  5 11  1  0  0  0  0
  6  7  1  0  0  0  0
  6  9  1  0  0  0  0
  7  8  1  0  0  0  0
  9 10  1  0  0  0  0
 10 11  2  0  0  0  0
M  END
>  <CHROM.1>
-11.41257075,-13.34120983,7.27202227,2.00713887,-1.24988237,2.12460632

>  <Name>
ligand

>  <RI>
0

>  <Rbt.Current_Directory>
/home/itssahil/PROJECTS/Mol_Feturizer/New_Systems/rnas/2b57

>  <Rbt.Executable>
rbdock ($Id: //depot/dev/client3/rdock/2013.1/src/exe/rbdock.cxx#4 $)

>  <Rbt.Library>
libRbt.so (2013.1, Build901 2013/11/27)

>  <Rbt.Parameter_File>
/export/apps/rDock/src/rDock_2013.1_src/data/scripts/dock_solv.prm

>  <Rbt.Receptor>
prm/pocket_docking_3.prm

>  <SCORE>
-11.5437

>  <SCORE.INTER>
-11.5437

>  <SCORE.INTER.CONST>
1

>  <SCORE.INTER.POLAR>
0

>  <SCORE.INTER.ROT>
0

>  <SCORE.INTER.SOLV>
21.5341

>  <SCORE.INTER.VDW>
-18.4739

>  <SCORE.INTER.norm>
-1.04943

>  <SCORE.INTRA>
0

>  <SCORE.INTRA.DIHEDRAL>
0

>  <SCORE.INTRA.DIHEDRAL.0>
0

>  <SCORE.INTRA.POLAR>
0

>  <SCORE.INTRA.POLAR.0>
0

>  <SCORE.INTRA.REPUL>
0

>  <SCORE.INTRA.REPUL.0>
0

>  <SCORE.INTRA.SOLV>
0

>  <SCORE.INTRA.SOLV.lig_0>
-48.3454

>  <SCORE.INTRA.VDW>
0

>  <SCORE.INTRA.VDW.0>
0

>  <SCORE.INTRA.norm>
0

>  <SCORE.RESTR>
0

>  <SCORE.RESTR.CAVITY>
0

>  <SCORE.RESTR.norm>
0

>  <SCORE.SYSTEM>
0

>  <SCORE.SYSTEM.CONST>
0

>  <SCORE.SYSTEM.DIHEDRAL>
0

>  <SCORE.SYSTEM.SOLV>
0

>  <SCORE.SYSTEM.norm>
0

>  <SCORE.heavy>
11

>  <SCORE.norm>
-1.04943

>  <RMSD>
0.592

$$$$
ligand
 OpenBabel01301917033D
libRbt.so/2013.1/901 2013/11/27
 11 12  0  0  0  0  0  0  0  0999 V2000
  -11.8699  -12.7925    8.8746 N   0  0  0  0  0  0  0  0  0  0  0  0
  -11.5096  -14.0833    8.9565 C   0  0  0  0  0  0  0  0  0  0  0  0
  -11.5323  -14.7019   10.1337 N   0  0  0  0  0  0  0  0  0  0  0  0
  -11.1166  -14.7530    7.8619 N   0  0  0  0  0  0  0  0  0  0  0  0
  -11.0730  -14.1459    6.6667 C   0  0  0  0  0  0  0  0  0  0  0  0
  -11.4403  -12.8110    6.5542 C   0  0  0  0  0  0  0  0  0  0  0  0
  -11.8465  -12.1389    7.7023 C   0  0  0  0  0  0  0  0  0  0  0  0
  -12.2158  -10.8631    7.6384 N   0  0  0  0  0  0  0  0  0  0  0  0
  -11.2917  -12.4611    5.2800 N   0  0  0  0  0  0  0  0  0  0  0  0
  -10.8495  -13.5256    4.6143 C   0  0  0  0  0  0  0  0  0  0  0  0
  -10.7155  -14.5518    5.4518 N   0  0  0  0  0  0  0  0  0  0  0  0
  1  7  2  0  0  0  0
  1  2  1  0  0  0  0
  2  3  1  0  0  0  0
  2  4  2  0  0  0  0
  4  5  1  0  0  0  0
  5  6  2  0  0  0  0
  5 11  1  0  0  0  0
  6  7  1  0  0  0  0
  6  9  1  0  0  0  0
  7  8  1  0  0  0  0
  9 10  1  0  0  0  0
 10 11  2  0  0  0  0
M  END
>  <CHROM.1>
-11.40979520,-13.34849564,7.27281484,2.01142396,-1.23495734,2.13542256

>  <Name>
ligand

>  <RI>
0

>  <Rbt.Current_Directory>
/home/itssahil/PROJECTS/Mol_Feturizer/New_Systems/rnas/2b57

>  <Rbt.Executable>
rbdock ($Id: //depot/dev/client3/rdock/2013.1/src/exe/rbdock.cxx#4 $)

>  <Rbt.Library>
libRbt.so (2013.1, Build901 2013/11/27)

>  <Rbt.Parameter_File>
/export/apps/rDock/src/rDock_2013.1_src/data/scripts/dock_solv.prm

>  <Rbt.Receptor>
prm/pocket_docking_4.prm

>  <SCORE>
-11.5626

>  <SCORE.INTER>
-11.5626

>  <SCORE.INTER.CONST>
1

>  <SCORE.INTER.POLAR>
0

>  <SCORE.INTER.ROT>
0

>  <SCORE.INTER.SOLV>
21.4514

>  <SCORE.INTER.VDW>
-18.4589

>  <SCORE.INTER.norm>
-1.05114

>  <SCORE.INTRA>
0

>  <SCORE.INTRA.DIHEDRAL>
0

>  <SCORE.INTRA.DIHEDRAL.0>
0

>  <SCORE.INTRA.POLAR>
0

>  <SCORE.INTRA.POLAR.0>
0

>  <SCORE.INTRA.REPUL>
0

>  <SCORE.INTRA.REPUL.0>
0

>  <SCORE.INTRA.SOLV>
0

>  <SCORE.INTRA.SOLV.lig_0>
-48.3454

>  <SCORE.INTRA.VDW>
0

>  <SCORE.INTRA.VDW.0>
0

>  <SCORE.INTRA.norm>
0

>  <SCORE.RESTR>
0

>  <SCORE.RESTR.CAVITY>
0

>  <SCORE.RESTR.norm>
0

>  <SCORE.SYSTEM>
0

>  <SCORE.SYSTEM.CONST>
0

>  <SCORE.SYSTEM.DIHEDRAL>
0

>  <SCORE.SYSTEM.SOLV>
0

>  <SCORE.SYSTEM.norm>
0

>  <SCORE.heavy>
11

>  <SCORE.norm>
-1.05114

>  <RMSD>
0.592

$$$$
ligand
 OpenBabel01301917033D
libRbt.so/2013.1/901 2013/11/27
 11 12  0  0  0  0  0  0  0  0999 V2000
  -11.8455  -12.7662    8.8733 N   0  0  0  0  0  0  0  0  0  0  0  0
  -11.4923  -14.0582    8.9665 C   0  0  0  0  0  0  0  0  0  0  0  0
  -11.5075  -14.6633   10.1508 N   0  0  0  0  0  0  0  0  0  0  0  0
  -11.1138  -14.7427    7.8759 N   0  0  0  0  0  0  0  0  0  0  0  0
  -11.0779  -14.1495    6.6735 C   0  0  0  0  0  0  0  0  0  0  0  0
  -11.4382  -12.8137    6.5492 C   0  0  0  0  0  0  0  0  0  0  0  0
  -11.8293  -12.1262    7.6934 C   0  0  0  0  0  0  0  0  0  0  0  0
  -12.1915  -10.8490    7.6184 N   0  0  0  0  0  0  0  0  0  0  0  0
  -11.2996  -12.4793    5.2698 N   0  0  0  0  0  0  0  0  0  0  0  0
  -10.8703  -13.5540    4.6121 C   0  0  0  0  0  0  0  0  0  0  0  0
  -10.7344  -14.5714    5.4600 N   0  0  0  0  0  0  0  0  0  0  0  0
  1  7  2  0  0  0  0
  1  2  1  0  0  0  0
  2  3  1  0  0  0  0
  2  4  2  0  0  0  0
  4  5  1  0  0  0  0
  5  6  2  0  0  0  0
  5 11  1  0  0  0  0
  6  7  1  0  0  0  0
  6  9  1  0  0  0  0
  7  8  1  0  0  0  0
  9 10  1  0  0  0  0
 10 11  2  0  0  0  0
M  END
>  <CHROM.1>
-11.40406660,-13.34323729,7.27363833,1.99635608,-1.24514443,2.10977891

>  <Name>
ligand

>  <RI>
0

>  <Rbt.Current_Directory>
/home/itssahil/PROJECTS/Mol_Feturizer/New_Systems/rnas/2b57

>  <Rbt.Executable>
rbdock ($Id: //depot/dev/client3/rdock/2013.1/src/exe/rbdock.cxx#4 $)

>  <Rbt.Library>
libRbt.so (2013.1, Build901 2013/11/27)

>  <Rbt.Parameter_File>
/export/apps/rDock/src/rDock_2013.1_src/data/scripts/dock_solv.prm

>  <Rbt.Receptor>
prm/pocket_docking_4.prm

>  <SCORE>
-11.5725

>  <SCORE.INTER>
-11.5725

>  <SCORE.INTER.CONST>
1

>  <SCORE.INTER.POLAR>
0

>  <SCORE.INTER.ROT>
0

>  <SCORE.INTER.SOLV>
21.4863

>  <SCORE.INTER.VDW>
-18.4771

>  <SCORE.INTER.norm>
-1.05205

>  <SCORE.INTRA>
0

>  <SCORE.INTRA.DIHEDRAL>
0

>  <SCORE.INTRA.DIHEDRAL.0>
0

>  <SCORE.INTRA.POLAR>
0

>  <SCORE.INTRA.POLAR.0>
0

>  <SCORE.INTRA.REPUL>
0

>  <SCORE.INTRA.REPUL.0>
0

>  <SCORE.INTRA.SOLV>
0

>  <SCORE.INTRA.SOLV.lig_0>
-48.3454

>  <SCORE.INTRA.VDW>
0

>  <SCORE.INTRA.VDW.0>
0

>  <SCORE.INTRA.norm>
0

>  <SCORE.RESTR>
0

>  <SCORE.RESTR.CAVITY>
0

>  <SCORE.RESTR.norm>
0

>  <SCORE.SYSTEM>
0

>  <SCORE.SYSTEM.CONST>
0

>  <SCORE.SYSTEM.DIHEDRAL>
0

>  <SCORE.SYSTEM.SOLV>
0

>  <SCORE.SYSTEM.norm>
0

>  <SCORE.heavy>
11

>  <SCORE.norm>
-1.05205

>  <RMSD>
0.592

$$$$
ligand
 OpenBabel01301917033D
libRbt.so/2013.1/901 2013/11/27
 11 12  0  0  0  0  0  0  0  0999 V2000
  -11.8819  -12.7952    8.8720 N   0  0  0  0  0  0  0  0  0  0  0  0
  -11.5091  -14.0817    8.9651 C   0  0  0  0  0  0  0  0  0  0  0  0
  -11.5196  -14.6883   10.1487 N   0  0  0  0  0  0  0  0  0  0  0  0
  -11.1156  -14.7589    7.8753 N   0  0  0  0  0  0  0  0  0  0  0  0
  -11.0841  -14.1637    6.6738 C   0  0  0  0  0  0  0  0  0  0  0  0
  -11.4647  -12.8335    6.5496 C   0  0  0  0  0  0  0  0  0  0  0  0
  -11.8710  -12.1536    7.6929 C   0  0  0  0  0  0  0  0  0  0  0  0
  -12.2527  -10.8820    7.6180 N   0  0  0  0  0  0  0  0  0  0  0  0
  -11.3261  -12.4954    5.2711 N   0  0  0  0  0  0  0  0  0  0  0  0
  -10.8775  -13.5625    4.6139 C   0  0  0  0  0  0  0  0  0  0  0  0
  -10.7292  -14.5787    5.4612 N   0  0  0  0  0  0  0  0  0  0  0  0
  1  7  2  0  0  0  0
  1  2  1  0  0  0  0
  2  3  1  0  0  0  0
  2  4  2  0  0  0  0
  4  5  1  0  0  0  0
  5  6  2  0  0  0  0
  5 11  1  0  0  0  0
  6  7  1  0  0  0  0
  6  9  1  0  0  0  0
  7  8  1  0  0  0  0
  9 10  1  0  0  0  0
 10 11  2  0  0  0  0
M  END
>  <CHROM.1>
-11.42518246,-13.36332639,7.27349030,1.98280624,-1.22969455,2.09815772

>  <Name>
ligand

>  <RI>
0

>  <Rbt.Current_Directory>
/home/itssahil/PROJECTS/Mol_Feturizer/New_Systems/rnas/2b57

>  <Rbt.Executable>
rbdock ($Id: //depot/dev/client3/rdock/2013.1/src/exe/rbdock.cxx#4 $)

>  <Rbt.Library>
libRbt.so (2013.1, Build901 2013/11/27)

>  <Rbt.Parameter_File>
/export/apps/rDock/src/rDock_2013.1_src/data/scripts/dock_solv.prm

>  <Rbt.Receptor>
prm/pocket_docking_5.prm

>  <SCORE>
-11.5384

>  <SCORE.INTER>
-11.5384

>  <SCORE.INTER.CONST>
1

>  <SCORE.INTER.POLAR>
0

>  <SCORE.INTER.ROT>
0

>  <SCORE.INTER.SOLV>
21.3031

>  <SCORE.INTER.VDW>
-18.3933

>  <SCORE.INTER.norm>
-1.04895

>  <SCORE.INTRA>
0

>  <SCORE.INTRA.DIHEDRAL>
0

>  <SCORE.INTRA.DIHEDRAL.0>
0

>  <SCORE.INTRA.POLAR>
0

>  <SCORE.INTRA.POLAR.0>
0

>  <SCORE.INTRA.REPUL>
0

>  <SCORE.INTRA.REPUL.0>
0

>  <SCORE.INTRA.SOLV>
0

>  <SCORE.INTRA.SOLV.lig_0>
-48.3454

>  <SCORE.INTRA.VDW>
0

>  <SCORE.INTRA.VDW.0>
0

>  <SCORE.INTRA.norm>
0

>  <SCORE.RESTR>
0

>  <SCORE.RESTR.CAVITY>
0

>  <SCORE.RESTR.norm>
0

>  <SCORE.SYSTEM>
0

>  <SCORE.SYSTEM.CONST>
0

>  <SCORE.SYSTEM.DIHEDRAL>
0

>  <SCORE.SYSTEM.SOLV>
0

>  <SCORE.SYSTEM.norm>
0

>  <SCORE.heavy>
11

>  <SCORE.norm>
-1.04895

>  <RMSD>
0.592

$$$$
ligand
 OpenBabel01301917033D
libRbt.so/2013.1/901 2013/11/27
 11 12  0  0  0  0  0  0  0  0999 V2000
  -11.8516  -12.7692    8.8746 N   0  0  0  0  0  0  0  0  0  0  0  0
  -11.4962  -14.0609    8.9628 C   0  0  0  0  0  0  0  0  0  0  0  0
  -11.5053  -14.6691   10.1456 N   0  0  0  0  0  0  0  0  0  0  0  0
  -11.1216  -14.7420    7.8688 N   0  0  0  0  0  0  0  0  0  0  0  0
  -11.0920  -14.1457    6.6678 C   0  0  0  0  0  0  0  0  0  0  0  0
  -11.4547  -12.8100    6.5486 C   0  0  0  0  0  0  0  0  0  0  0  0
  -11.8417  -12.1261    7.6963 C   0  0  0  0  0  0  0  0  0  0  0  0
  -12.2060  -10.8492    7.6262 N   0  0  0  0  0  0  0  0  0  0  0  0
  -11.3223  -12.4721    5.2694 N   0  0  0  0  0  0  0  0  0  0  0  0
  -10.8944  -13.5445    4.6070 C   0  0  0  0  0  0  0  0  0  0  0  0
  -10.7533  -14.5639    5.4516 N   0  0  0  0  0  0  0  0  0  0  0  0
  1  7  2  0  0  0  0
  1  2  1  0  0  0  0
  2  3  1  0  0  0  0
  2  4  2  0  0  0  0
  4  5  1  0  0  0  0
  5  6  2  0  0  0  0
  5 11  1  0  0  0  0
  6  7  1  0  0  0  0
  6  9  1  0  0  0  0
  7  8  1  0  0  0  0
  9 10  1  0  0  0  0
 10 11  2  0  0  0  0
M  END
>  <CHROM.1>
-11.41658270,-13.34139349,7.27144317,1.98207188,-1.24619289,2.09884992

>  <Name>
ligand

>  <RI>
0

>  <Rbt.Current_Directory>
/home/itssahil/PROJECTS/Mol_Feturizer/New_Systems/rnas/2b57

>  <Rbt.Executable>
rbdock ($Id: //depot/dev/client3/rdock/2013.1/src/exe/rbdock.cxx#4 $)

>  <Rbt.Library>
libRbt.so (2013.1, Build901 2013/11/27)

>  <Rbt.Parameter_File>
/export/apps/rDock/src/rDock_2013.1_src/data/scripts/dock_solv.prm

>  <Rbt.Receptor>
prm/pocket_docking_7.prm

>  <SCORE>
-11.5275

>  <SCORE.INTER>
-11.5275

>  <SCORE.INTER.CONST>
1

>  <SCORE.INTER.POLAR>
0

>  <SCORE.INTER.ROT>
0

>  <SCORE.INTER.SOLV>
21.4567

>  <SCORE.INTER.VDW>
-18.4372

>  <SCORE.INTER.norm>
-1.04796

>  <SCORE.INTRA>
0

>  <SCORE.INTRA.DIHEDRAL>
0

>  <SCORE.INTRA.DIHEDRAL.0>
0

>  <SCORE.INTRA.POLAR>
0

>  <SCORE.INTRA.POLAR.0>
0

>  <SCORE.INTRA.REPUL>
0

>  <SCORE.INTRA.REPUL.0>
0

>  <SCORE.INTRA.SOLV>
0

>  <SCORE.INTRA.SOLV.lig_0>
-48.3454

>  <SCORE.INTRA.VDW>
0

>  <SCORE.INTRA.VDW.0>
0

>  <SCORE.INTRA.norm>
0

>  <SCORE.RESTR>
0

>  <SCORE.RESTR.CAVITY>
0

>  <SCORE.RESTR.norm>
0

>  <SCORE.SYSTEM>
0

>  <SCORE.SYSTEM.CONST>
0

>  <SCORE.SYSTEM.DIHEDRAL>
0

>  <SCORE.SYSTEM.SOLV>
0

>  <SCORE.SYSTEM.norm>
0

>  <SCORE.heavy>
11

>  <SCORE.norm>
-1.04796

>  <RMSD>
0.592

$$$$
ligand
 OpenBabel01301917033D
libRbt.so/2013.1/901 2013/11/27
 11 12  0  0  0  0  0  0  0  0999 V2000
  -11.8216  -12.7001    8.8613 N   0  0  0  0  0  0  0  0  0  0  0  0
  -11.4754  -13.9928    8.9705 C   0  0  0  0  0  0  0  0  0  0  0  0
  -11.4832  -14.5800   10.1639 N   0  0  0  0  0  0  0  0  0  0  0  0
  -11.1111  -14.6957    7.8869 N   0  0  0  0  0  0  0  0  0  0  0  0
  -11.0829  -14.1208    6.6755 C   0  0  0  0  0  0  0  0  0  0  0  0
  -11.4362  -12.7847    6.5345 C   0  0  0  0  0  0  0  0  0  0  0  0
  -11.8125  -12.0779    7.6718 C   0  0  0  0  0  0  0  0  0  0  0  0
  -12.1677  -10.7997    7.5811 N   0  0  0  0  0  0  0  0  0  0  0  0
  -11.3074  -12.4702    5.2490 N   0  0  0  0  0  0  0  0  0  0  0  0
  -10.8907  -13.5573    4.6036 C   0  0  0  0  0  0  0  0  0  0  0  0
  -10.7532  -14.5628    5.4653 N   0  0  0  0  0  0  0  0  0  0  0  0
  1  7  2  0  0  0  0
  1  2  1  0  0  0  0
  2  3  1  0  0  0  0
  2  4  2  0  0  0  0
  4  5  1  0  0  0  0
  5  6  2  0  0  0  0
  5 11  1  0  0  0  0
  6  7  1  0  0  0  0
  6  9  1  0  0  0  0
  7  8  1  0  0  0  0
  9 10  1  0  0  0  0
 10 11  2  0  0  0  0
M  END
>  <CHROM.1>
-11.39854493,-13.30362044,7.26643015,1.98070264,-1.25503471,2.08000440

>  <Name>
ligand

>  <RI>
0

>  <Rbt.Current_Directory>
/home/itssahil/PROJECTS/Mol_Feturizer/New_Systems/rnas/2b57

>  <Rbt.Executable>
rbdock ($Id: //depot/dev/client3/rdock/2013.1/src/exe/rbdock.cxx#4 $)

>  <Rbt.Library>
libRbt.so (2013.1, Build901 2013/11/27)

>  <Rbt.Parameter_File>
/export/apps/rDock/src/rDock_2013.1_src/data/scripts/dock_solv.prm

>  <Rbt.Receptor>
prm/blind_docking_40.prm

>  <SCORE>
-11.4571

>  <SCORE.INTER>
-11.4571

>  <SCORE.INTER.CONST>
1

>  <SCORE.INTER.POLAR>
0

>  <SCORE.INTER.ROT>
0

>  <SCORE.INTER.SOLV>
21.5126

>  <SCORE.INTER.VDW>
-18.4089

>  <SCORE.INTER.norm>
-1.04156

>  <SCORE.INTRA>
0

>  <SCORE.INTRA.DIHEDRAL>
0

>  <SCORE.INTRA.DIHEDRAL.0>
0

>  <SCORE.INTRA.POLAR>
0

>  <SCORE.INTRA.POLAR.0>
0

>  <SCORE.INTRA.REPUL>
0

>  <SCORE.INTRA.REPUL.0>
0

>  <SCORE.INTRA.SOLV>
0

>  <SCORE.INTRA.SOLV.lig_0>
-48.3454

>  <SCORE.INTRA.VDW>
0

>  <SCORE.INTRA.VDW.0>
0

>  <SCORE.INTRA.norm>
0

>  <SCORE.RESTR>
0

>  <SCORE.RESTR.CAVITY>
0

>  <SCORE.RESTR.norm>
0

>  <SCORE.SYSTEM>
0

>  <SCORE.SYSTEM.CONST>
0

>  <SCORE.SYSTEM.DIHEDRAL>
0

>  <SCORE.SYSTEM.SOLV>
0

>  <SCORE.SYSTEM.norm>
0

>  <SCORE.heavy>
11

>  <SCORE.norm>
-1.04156

>  <RMSD>
0.593

$$$$
ligand
 OpenBabel01301917033D
libRbt.so/2013.1/901 2013/11/27
 11 12  0  0  0  0  0  0  0  0999 V2000
  -11.8566  -12.7903    8.8777 N   0  0  0  0  0  0  0  0  0  0  0  0
  -11.5059  -14.0835    8.9630 C   0  0  0  0  0  0  0  0  0  0  0  0
  -11.5274  -14.6973   10.1427 N   0  0  0  0  0  0  0  0  0  0  0  0
  -11.1234  -14.7605    7.8691 N   0  0  0  0  0  0  0  0  0  0  0  0
  -11.0812  -14.1585    6.6713 C   0  0  0  0  0  0  0  0  0  0  0  0
  -11.4388  -12.8213    6.5553 C   0  0  0  0  0  0  0  0  0  0  0  0
  -11.8341  -12.1416    7.7027 C   0  0  0  0  0  0  0  0  0  0  0  0
  -12.1939  -10.8633    7.6355 N   0  0  0  0  0  0  0  0  0  0  0  0
  -11.2938  -12.4776    5.2790 N   0  0  0  0  0  0  0  0  0  0  0  0
  -10.8632  -13.5481    4.6153 C   0  0  0  0  0  0  0  0  0  0  0  0
  -10.7327  -14.5720    5.4563 N   0  0  0  0  0  0  0  0  0  0  0  0
  1  7  2  0  0  0  0
  1  2  1  0  0  0  0
  2  3  1  0  0  0  0
  2  4  2  0  0  0  0
  4  5  1  0  0  0  0
  5  6  2  0  0  0  0
  5 11  1  0  0  0  0
  6  7  1  0  0  0  0
  6  9  1  0  0  0  0
  7  8  1  0  0  0  0
  9 10  1  0  0  0  0
 10 11  2  0  0  0  0
M  END
>  <CHROM.1>
-11.40879712,-13.35619381,7.27587043,2.01104980,-1.24407608,2.13109093

>  <Name>
ligand

>  <RI>
0

>  <Rbt.Current_Directory>
/home/itssahil/PROJECTS/Mol_Feturizer/New_Systems/rnas/2b57

>  <Rbt.Executable>
rbdock ($Id: //depot/dev/client3/rdock/2013.1/src/exe/rbdock.cxx#4 $)

>  <Rbt.Library>
libRbt.so (2013.1, Build901 2013/11/27)

>  <Rbt.Parameter_File>
/export/apps/rDock/src/rDock_2013.1_src/data/scripts/dock_solv.prm

>  <Rbt.Receptor>
prm/blind_docking_40.prm

>  <SCORE>
-11.5801

>  <SCORE.INTER>
-11.5801

>  <SCORE.INTER.CONST>
1

>  <SCORE.INTER.POLAR>
0

>  <SCORE.INTER.ROT>
0

>  <SCORE.INTER.SOLV>
21.5205

>  <SCORE.INTER.VDW>
-18.4936

>  <SCORE.INTER.norm>
-1.05273

>  <SCORE.INTRA>
0

>  <SCORE.INTRA.DIHEDRAL>
0

>  <SCORE.INTRA.DIHEDRAL.0>
0

>  <SCORE.INTRA.POLAR>
0

>  <SCORE.INTRA.POLAR.0>
0

>  <SCORE.INTRA.REPUL>
0

>  <SCORE.INTRA.REPUL.0>
0

>  <SCORE.INTRA.SOLV>
0

>  <SCORE.INTRA.SOLV.lig_0>
-48.3454

>  <SCORE.INTRA.VDW>
0

>  <SCORE.INTRA.VDW.0>
0

>  <SCORE.INTRA.norm>
0

>  <SCORE.RESTR>
0

>  <SCORE.RESTR.CAVITY>
0

>  <SCORE.RESTR.norm>
0

>  <SCORE.SYSTEM>
0

>  <SCORE.SYSTEM.CONST>
0

>  <SCORE.SYSTEM.DIHEDRAL>
0

>  <SCORE.SYSTEM.SOLV>
0

>  <SCORE.SYSTEM.norm>
0

>  <SCORE.heavy>
11

>  <SCORE.norm>
-1.05273

>  <RMSD>
0.593

$$$$
ligand
 OpenBabel01301917033D
libRbt.so/2013.1/901 2013/11/27
 11 12  0  0  0  0  0  0  0  0999 V2000
  -11.8490  -12.7678    8.8740 N   0  0  0  0  0  0  0  0  0  0  0  0
  -11.4949  -14.0599    8.9631 C   0  0  0  0  0  0  0  0  0  0  0  0
  -11.5029  -14.6667   10.1466 N   0  0  0  0  0  0  0  0  0  0  0  0
  -11.1225  -14.7425    7.8693 N   0  0  0  0  0  0  0  0  0  0  0  0
  -11.0940  -14.1475    6.6677 C   0  0  0  0  0  0  0  0  0  0  0  0
  -11.4554  -12.8116    6.5475 C   0  0  0  0  0  0  0  0  0  0  0  0
  -11.8400  -12.1260    7.6951 C   0  0  0  0  0  0  0  0  0  0  0  0
  -12.2031  -10.8488    7.6242 N   0  0  0  0  0  0  0  0  0  0  0  0
  -11.3244  -12.4751    5.2679 N   0  0  0  0  0  0  0  0  0  0  0  0
  -10.8987  -13.5487    4.6060 C   0  0  0  0  0  0  0  0  0  0  0  0
  -10.7575  -14.5673    5.4515 N   0  0  0  0  0  0  0  0  0  0  0  0
  1  7  2  0  0  0  0
  1  2  1  0  0  0  0
  2  3  1  0  0  0  0
  2  4  2  0  0  0  0
  4  5  1  0  0  0  0
  5  6  2  0  0  0  0
  5 11  1  0  0  0  0
  6  7  1  0  0  0  0
  6  9  1  0  0  0  0
  7  8  1  0  0  0  0
  9 10  1  0  0  0  0
 10 11  2  0  0  0  0
M  END
>  <CHROM.1>
-11.41684460,-13.34221353,7.27091784,1.97989041,-1.24782770,2.09572064

>  <Name>
ligand

>  <RI>
0

>  <Rbt.Current_Directory>
/home/itssahil/PROJECTS/Mol_Feturizer/New_Systems/rnas/2b57

>  <Rbt.Executable>
rbdock ($Id: //depot/dev/client3/rdock/2013.1/src/exe/rbdock.cxx#4 $)

>  <Rbt.Library>
libRbt.so (2013.1, Build901 2013/11/27)

>  <Rbt.Parameter_File>
/export/apps/rDock/src/rDock_2013.1_src/data/scripts/dock_solv.prm

>  <Rbt.Receptor>
prm/pocket_docking_3.prm

>  <SCORE>
-11.521

>  <SCORE.INTER>
-11.521

>  <SCORE.INTER.CONST>
1

>  <SCORE.INTER.POLAR>
0

>  <SCORE.INTER.ROT>
0

>  <SCORE.INTER.SOLV>
21.4646

>  <SCORE.INTER.VDW>
-18.4355

>  <SCORE.INTER.norm>
-1.04736

>  <SCORE.INTRA>
0

>  <SCORE.INTRA.DIHEDRAL>
0

>  <SCORE.INTRA.DIHEDRAL.0>
0

>  <SCORE.INTRA.POLAR>
0

>  <SCORE.INTRA.POLAR.0>
0

>  <SCORE.INTRA.REPUL>
0

>  <SCORE.INTRA.REPUL.0>
0

>  <SCORE.INTRA.SOLV>
0

>  <SCORE.INTRA.SOLV.lig_0>
-48.3454

>  <SCORE.INTRA.VDW>
0

>  <SCORE.INTRA.VDW.0>
0

>  <SCORE.INTRA.norm>
0

>  <SCORE.RESTR>
0

>  <SCORE.RESTR.CAVITY>
0

>  <SCORE.RESTR.norm>
0

>  <SCORE.SYSTEM>
0

>  <SCORE.SYSTEM.CONST>
0

>  <SCORE.SYSTEM.DIHEDRAL>
0

>  <SCORE.SYSTEM.SOLV>
0

>  <SCORE.SYSTEM.norm>
0

>  <SCORE.heavy>
11

>  <SCORE.norm>
-1.04736

>  <RMSD>
0.593

$$$$
ligand
 OpenBabel01301917033D
libRbt.so/2013.1/901 2013/11/27
 11 12  0  0  0  0  0  0  0  0999 V2000
  -11.8861  -12.7949    8.8688 N   0  0  0  0  0  0  0  0  0  0  0  0
  -11.5129  -14.0814    8.9595 C   0  0  0  0  0  0  0  0  0  0  0  0
  -11.5275  -14.6916   10.1413 N   0  0  0  0  0  0  0  0  0  0  0  0
  -11.1149  -14.7551    7.8692 N   0  0  0  0  0  0  0  0  0  0  0  0
  -11.0793  -14.1564    6.6696 C   0  0  0  0  0  0  0  0  0  0  0  0
  -11.4601  -12.8261    6.5479 C   0  0  0  0  0  0  0  0  0  0  0  0
  -11.8711  -12.1498    7.6917 C   0  0  0  0  0  0  0  0  0  0  0  0
  -12.2533  -10.8782    7.6191 N   0  0  0  0  0  0  0  0  0  0  0  0
  -11.3169  -12.4841    5.2710 N   0  0  0  0  0  0  0  0  0  0  0  0
  -10.8652  -13.5490    4.6123 C   0  0  0  0  0  0  0  0  0  0  0  0
  -10.7195  -14.5676    5.4571 N   0  0  0  0  0  0  0  0  0  0  0  0
  1  7  2  0  0  0  0
  1  2  1  0  0  0  0
  2  3  1  0  0  0  0
  2  4  2  0  0  0  0
  4  5  1  0  0  0  0
  5  6  2  0  0  0  0
  5 11  1  0  0  0  0
  6  7  1  0  0  0  0
  6  9  1  0  0  0  0
  7  8  1  0  0  0  0
  9 10  1  0  0  0  0
 10 11  2  0  0  0  0
M  END
>  <CHROM.1>
-11.42302501,-13.35800256,7.27035917,1.99156908,-1.22727548,2.10938928

>  <Name>
ligand

>  <RI>
0

>  <Rbt.Current_Directory>
/home/itssahil/PROJECTS/Mol_Feturizer/New_Systems/rnas/2b57

>  <Rbt.Executable>
rbdock ($Id: //depot/dev/client3/rdock/2013.1/src/exe/rbdock.cxx#4 $)

>  <Rbt.Library>
libRbt.so (2013.1, Build901 2013/11/27)

>  <Rbt.Parameter_File>
/export/apps/rDock/src/rDock_2013.1_src/data/scripts/dock_solv.prm

>  <Rbt.Receptor>
prm/pocket_docking_8.prm

>  <SCORE>
-11.5622

>  <SCORE.INTER>
-11.5622

>  <SCORE.INTER.CONST>
1

>  <SCORE.INTER.POLAR>
0

>  <SCORE.INTER.ROT>
0

>  <SCORE.INTER.SOLV>
21.3067

>  <SCORE.INTER.VDW>
-18.4103

>  <SCORE.INTER.norm>
-1.05111

>  <SCORE.INTRA>
0

>  <SCORE.INTRA.DIHEDRAL>
0

>  <SCORE.INTRA.DIHEDRAL.0>
0

>  <SCORE.INTRA.POLAR>
0

>  <SCORE.INTRA.POLAR.0>
0

>  <SCORE.INTRA.REPUL>
0

>  <SCORE.INTRA.REPUL.0>
0

>  <SCORE.INTRA.SOLV>
0

>  <SCORE.INTRA.SOLV.lig_0>
-48.3454

>  <SCORE.INTRA.VDW>
0

>  <SCORE.INTRA.VDW.0>
0

>  <SCORE.INTRA.norm>
0

>  <SCORE.RESTR>
0

>  <SCORE.RESTR.CAVITY>
0

>  <SCORE.RESTR.norm>
0

>  <SCORE.SYSTEM>
0

>  <SCORE.SYSTEM.CONST>
0

>  <SCORE.SYSTEM.DIHEDRAL>
0

>  <SCORE.SYSTEM.SOLV>
0

>  <SCORE.SYSTEM.norm>
0

>  <SCORE.heavy>
11

>  <SCORE.norm>
-1.05111

>  <RMSD>
0.593

$$$$
ligand
 OpenBabel01301917033D
libRbt.so/2013.1/901 2013/11/27
 11 12  0  0  0  0  0  0  0  0999 V2000
  -11.8521  -12.7694    8.8726 N   0  0  0  0  0  0  0  0  0  0  0  0
  -11.4979  -14.0616    8.9601 C   0  0  0  0  0  0  0  0  0  0  0  0
  -11.5078  -14.6705   10.1425 N   0  0  0  0  0  0  0  0  0  0  0  0
  -11.1237  -14.7422    7.8657 N   0  0  0  0  0  0  0  0  0  0  0  0
  -11.0932  -14.1451    6.6651 C   0  0  0  0  0  0  0  0  0  0  0  0
  -11.4547  -12.8090    6.5467 C   0  0  0  0  0  0  0  0  0  0  0  0
  -11.8413  -12.1255    7.6948 C   0  0  0  0  0  0  0  0  0  0  0  0
  -12.2044  -10.8482    7.6256 N   0  0  0  0  0  0  0  0  0  0  0  0
  -11.3216  -12.4703    5.2679 N   0  0  0  0  0  0  0  0  0  0  0  0
  -10.8946  -13.5426    4.6048 C   0  0  0  0  0  0  0  0  0  0  0  0
  -10.7546  -14.5627    5.4487 N   0  0  0  0  0  0  0  0  0  0  0  0
  1  7  2  0  0  0  0
  1  2  1  0  0  0  0
  2  3  1  0  0  0  0
  2  4  2  0  0  0  0
  4  5  1  0  0  0  0
  5  6  2  0  0  0  0
  5 11  1  0  0  0  0
  6  7  1  0  0  0  0
  6  9  1  0  0  0  0
  7  8  1  0  0  0  0
  9 10  1  0  0  0  0
 10 11  2  0  0  0  0
M  END
>  <CHROM.1>
-11.41721170,-13.34093052,7.26923425,1.98411039,-1.24684294,2.10148172

>  <Name>
ligand

>  <RI>
0

>  <Rbt.Current_Directory>
/home/itssahil/PROJECTS/Mol_Feturizer/New_Systems/rnas/2b57

>  <Rbt.Executable>
rbdock ($Id: //depot/dev/client3/rdock/2013.1/src/exe/rbdock.cxx#4 $)

>  <Rbt.Library>
libRbt.so (2013.1, Build901 2013/11/27)

>  <Rbt.Parameter_File>
/export/apps/rDock/src/rDock_2013.1_src/data/scripts/dock_solv.prm

>  <Rbt.Receptor>
prm/blind_docking_80.prm

>  <SCORE>
-11.5309

>  <SCORE.INTER>
-11.5309

>  <SCORE.INTER.CONST>
1

>  <SCORE.INTER.POLAR>
0

>  <SCORE.INTER.ROT>
0

>  <SCORE.INTER.SOLV>
21.4637

>  <SCORE.INTER.VDW>
-18.4419

>  <SCORE.INTER.norm>
-1.04827

>  <SCORE.INTRA>
0

>  <SCORE.INTRA.DIHEDRAL>
0

>  <SCORE.INTRA.DIHEDRAL.0>
0

>  <SCORE.INTRA.POLAR>
0

>  <SCORE.INTRA.POLAR.0>
0

>  <SCORE.INTRA.REPUL>
0

>  <SCORE.INTRA.REPUL.0>
0

>  <SCORE.INTRA.SOLV>
0

>  <SCORE.INTRA.SOLV.lig_0>
-48.3454

>  <SCORE.INTRA.VDW>
0

>  <SCORE.INTRA.VDW.0>
0

>  <SCORE.INTRA.norm>
0

>  <SCORE.RESTR>
0

>  <SCORE.RESTR.CAVITY>
0

>  <SCORE.RESTR.norm>
0

>  <SCORE.SYSTEM>
0

>  <SCORE.SYSTEM.CONST>
0

>  <SCORE.SYSTEM.DIHEDRAL>
0

>  <SCORE.SYSTEM.SOLV>
0

>  <SCORE.SYSTEM.norm>
0

>  <SCORE.heavy>
11

>  <SCORE.norm>
-1.04827

>  <RMSD>
0.594

$$$$
ligand
 OpenBabel01301917033D
libRbt.so/2013.1/901 2013/11/27
 11 12  0  0  0  0  0  0  0  0999 V2000
  -11.8309  -12.7281    8.8640 N   0  0  0  0  0  0  0  0  0  0  0  0
  -11.4891  -14.0219    8.9742 C   0  0  0  0  0  0  0  0  0  0  0  0
  -11.5074  -14.6105   10.1667 N   0  0  0  0  0  0  0  0  0  0  0  0
  -11.1188  -14.7245    7.8924 N   0  0  0  0  0  0  0  0  0  0  0  0
  -11.0799  -14.1482    6.6820 C   0  0  0  0  0  0  0  0  0  0  0  0
  -11.4285  -12.8110    6.5400 C   0  0  0  0  0  0  0  0  0  0  0  0
  -11.8113  -12.1045    7.6754 C   0  0  0  0  0  0  0  0  0  0  0  0
  -12.1622  -10.8252    7.5836 N   0  0  0  0  0  0  0  0  0  0  0  0
  -11.2893  -12.4954    5.2559 N   0  0  0  0  0  0  0  0  0  0  0  0
  -10.8708  -13.5828    4.6122 C   0  0  0  0  0  0  0  0  0  0  0  0
  -10.7424  -14.5897    5.4737 N   0  0  0  0  0  0  0  0  0  0  0  0
  1  7  2  0  0  0  0
  1  2  1  0  0  0  0
  2  3  1  0  0  0  0
  2  4  2  0  0  0  0
  4  5  1  0  0  0  0
  5  6  2  0  0  0  0
  5 11  1  0  0  0  0
  6  7  1  0  0  0  0
  6  9  1  0  0  0  0
  7  8  1  0  0  0  0
  9 10  1  0  0  0  0
 10 11  2  0  0  0  0
M  END
>  <CHROM.1>
-11.39768039,-13.33088924,7.27156612,2.00583959,-1.25374998,2.10509903

>  <Name>
ligand

>  <RI>
0

>  <Rbt.Current_Directory>
/home/itssahil/PROJECTS/Mol_Feturizer/New_Systems/rnas/2b57

>  <Rbt.Executable>
rbdock ($Id: //depot/dev/client3/rdock/2013.1/src/exe/rbdock.cxx#4 $)

>  <Rbt.Library>
libRbt.so (2013.1, Build901 2013/11/27)

>  <Rbt.Parameter_File>
/export/apps/rDock/src/rDock_2013.1_src/data/scripts/dock_solv.prm

>  <Rbt.Receptor>
prm/pocket_docking_4.prm

>  <SCORE>
-11.4628

>  <SCORE.INTER>
-11.4628

>  <SCORE.INTER.CONST>
1

>  <SCORE.INTER.POLAR>
0

>  <SCORE.INTER.ROT>
0

>  <SCORE.INTER.SOLV>
21.5388

>  <SCORE.INTER.VDW>
-18.4215

>  <SCORE.INTER.norm>
-1.04207

>  <SCORE.INTRA>
0

>  <SCORE.INTRA.DIHEDRAL>
0

>  <SCORE.INTRA.DIHEDRAL.0>
0

>  <SCORE.INTRA.POLAR>
0

>  <SCORE.INTRA.POLAR.0>
0

>  <SCORE.INTRA.REPUL>
0

>  <SCORE.INTRA.REPUL.0>
0

>  <SCORE.INTRA.SOLV>
0

>  <SCORE.INTRA.SOLV.lig_0>
-48.3454

>  <SCORE.INTRA.VDW>
0

>  <SCORE.INTRA.VDW.0>
0

>  <SCORE.INTRA.norm>
0

>  <SCORE.RESTR>
0

>  <SCORE.RESTR.CAVITY>
0

>  <SCORE.RESTR.norm>
0

>  <SCORE.SYSTEM>
0

>  <SCORE.SYSTEM.CONST>
0

>  <SCORE.SYSTEM.DIHEDRAL>
0

>  <SCORE.SYSTEM.SOLV>
0

>  <SCORE.SYSTEM.norm>
0

>  <SCORE.heavy>
11

>  <SCORE.norm>
-1.04207

>  <RMSD>
0.594

$$$$
ligand
 OpenBabel01301917033D
libRbt.so/2013.1/901 2013/11/27
 11 12  0  0  0  0  0  0  0  0999 V2000
  -11.8542  -12.7826    8.8756 N   0  0  0  0  0  0  0  0  0  0  0  0
  -11.5179  -14.0794    8.9640 C   0  0  0  0  0  0  0  0  0  0  0  0
  -11.5510  -14.6913   10.1444 N   0  0  0  0  0  0  0  0  0  0  0  0
  -11.1383  -14.7621    7.8726 N   0  0  0  0  0  0  0  0  0  0  0  0
  -11.0845  -14.1622    6.6742 C   0  0  0  0  0  0  0  0  0  0  0  0
  -11.4271  -12.8213    6.5549 C   0  0  0  0  0  0  0  0  0  0  0  0
  -11.8197  -12.1358    7.6998 C   0  0  0  0  0  0  0  0  0  0  0  0
  -12.1654  -10.8538    7.6294 N   0  0  0  0  0  0  0  0  0  0  0  0
  -11.2730  -12.4810    5.2788 N   0  0  0  0  0  0  0  0  0  0  0  0
  -10.8512  -13.5570    4.6184 C   0  0  0  0  0  0  0  0  0  0  0  0
  -10.7355  -14.5811    5.4612 N   0  0  0  0  0  0  0  0  0  0  0  0
  1  7  2  0  0  0  0
  1  2  1  0  0  0  0
  2  3  1  0  0  0  0
  2  4  2  0  0  0  0
  4  5  1  0  0  0  0
  5  6  2  0  0  0  0
  5 11  1  0  0  0  0
  6  7  1  0  0  0  0
  6  9  1  0  0  0  0
  7  8  1  0  0  0  0
  9 10  1  0  0  0  0
 10 11  2  0  0  0  0
M  END
>  <CHROM.1>
-11.40586592,-13.35551355,7.27634911,2.04067899,-1.25093672,2.15783593

>  <Name>
ligand

>  <RI>
0

>  <Rbt.Current_Directory>
/home/itssahil/PROJECTS/Mol_Feturizer/New_Systems/rnas/2b57

>  <Rbt.Executable>
rbdock ($Id: //depot/dev/client3/rdock/2013.1/src/exe/rbdock.cxx#4 $)

>  <Rbt.Library>
libRbt.so (2013.1, Build901 2013/11/27)

>  <Rbt.Parameter_File>
/export/apps/rDock/src/rDock_2013.1_src/data/scripts/dock_solv.prm

>  <Rbt.Receptor>
prm/pocket_docking_5.prm

>  <SCORE>
-11.5573

>  <SCORE.INTER>
-11.5573

>  <SCORE.INTER.CONST>
1

>  <SCORE.INTER.POLAR>
0

>  <SCORE.INTER.ROT>
0

>  <SCORE.INTER.SOLV>
21.6128

>  <SCORE.INTER.VDW>
-18.5091

>  <SCORE.INTER.norm>
-1.05066

>  <SCORE.INTRA>
0

>  <SCORE.INTRA.DIHEDRAL>
0

>  <SCORE.INTRA.DIHEDRAL.0>
0

>  <SCORE.INTRA.POLAR>
0

>  <SCORE.INTRA.POLAR.0>
0

>  <SCORE.INTRA.REPUL>
0

>  <SCORE.INTRA.REPUL.0>
0

>  <SCORE.INTRA.SOLV>
0

>  <SCORE.INTRA.SOLV.lig_0>
-48.3454

>  <SCORE.INTRA.VDW>
0

>  <SCORE.INTRA.VDW.0>
0

>  <SCORE.INTRA.norm>
0

>  <SCORE.RESTR>
0

>  <SCORE.RESTR.CAVITY>
0

>  <SCORE.RESTR.norm>
0

>  <SCORE.SYSTEM>
0

>  <SCORE.SYSTEM.CONST>
0

>  <SCORE.SYSTEM.DIHEDRAL>
0

>  <SCORE.SYSTEM.SOLV>
0

>  <SCORE.SYSTEM.norm>
0

>  <SCORE.heavy>
11

>  <SCORE.norm>
-1.05066

>  <RMSD>
0.594

$$$$
ligand
 OpenBabel01301917033D
libRbt.so/2013.1/901 2013/11/27
 11 12  0  0  0  0  0  0  0  0999 V2000
  -11.8307  -12.7597    8.8751 N   0  0  0  0  0  0  0  0  0  0  0  0
  -11.4892  -14.0550    8.9663 C   0  0  0  0  0  0  0  0  0  0  0  0
  -11.5095  -14.6616   10.1498 N   0  0  0  0  0  0  0  0  0  0  0  0
  -11.1172  -14.7413    7.8746 N   0  0  0  0  0  0  0  0  0  0  0  0
  -11.0764  -14.1467    6.6731 C   0  0  0  0  0  0  0  0  0  0  0  0
  -11.4246  -12.8075    6.5509 C   0  0  0  0  0  0  0  0  0  0  0  0
  -11.8091  -12.1182    7.6962 C   0  0  0  0  0  0  0  0  0  0  0  0
  -12.1597  -10.8376    7.6232 N   0  0  0  0  0  0  0  0  0  0  0  0
  -11.2833  -12.4724    5.2719 N   0  0  0  0  0  0  0  0  0  0  0  0
  -10.8640  -13.5501    4.6125 C   0  0  0  0  0  0  0  0  0  0  0  0
  -10.7371  -14.5699    5.4589 N   0  0  0  0  0  0  0  0  0  0  0  0
  1  7  2  0  0  0  0
  1  2  1  0  0  0  0
  2  3  1  0  0  0  0
  2  4  2  0  0  0  0
  4  5  1  0  0  0  0
  5  6  2  0  0  0  0
  5 11  1  0  0  0  0
  6  7  1  0  0  0  0
  6  9  1  0  0  0  0
  7  8  1  0  0  0  0
  9 10  1  0  0  0  0
 10 11  2  0  0  0  0
M  END
>  <CHROM.1>
-11.39502040,-13.33836950,7.27450090,2.01037642,-1.25303688,2.12454755

>  <Name>
ligand

>  <RI>
0

>  <Rbt.Current_Directory>
/home/itssahil/PROJECTS/Mol_Feturizer/New_Systems/rnas/2b57

>  <Rbt.Executable>
rbdock ($Id: //depot/dev/client3/rdock/2013.1/src/exe/rbdock.cxx#4 $)

>  <Rbt.Library>
libRbt.so (2013.1, Build901 2013/11/27)

>  <Rbt.Parameter_File>
/export/apps/rDock/src/rDock_2013.1_src/data/scripts/dock_solv.prm

>  <Rbt.Receptor>
prm/pocket_docking_6.prm

>  <SCORE>
-11.5673

>  <SCORE.INTER>
-11.5673

>  <SCORE.INTER.CONST>
1

>  <SCORE.INTER.POLAR>
0

>  <SCORE.INTER.ROT>
0

>  <SCORE.INTER.SOLV>
21.6042

>  <SCORE.INTER.VDW>
-18.5129

>  <SCORE.INTER.norm>
-1.05157

>  <SCORE.INTRA>
0

>  <SCORE.INTRA.DIHEDRAL>
0

>  <SCORE.INTRA.DIHEDRAL.0>
0

>  <SCORE.INTRA.POLAR>
0

>  <SCORE.INTRA.POLAR.0>
0

>  <SCORE.INTRA.REPUL>
0

>  <SCORE.INTRA.REPUL.0>
0

>  <SCORE.INTRA.SOLV>
0

>  <SCORE.INTRA.SOLV.lig_0>
-48.3454

>  <SCORE.INTRA.VDW>
0

>  <SCORE.INTRA.VDW.0>
0

>  <SCORE.INTRA.norm>
0

>  <SCORE.RESTR>
0

>  <SCORE.RESTR.CAVITY>
0

>  <SCORE.RESTR.norm>
0

>  <SCORE.SYSTEM>
0

>  <SCORE.SYSTEM.CONST>
0

>  <SCORE.SYSTEM.DIHEDRAL>
0

>  <SCORE.SYSTEM.SOLV>
0

>  <SCORE.SYSTEM.norm>
0

>  <SCORE.heavy>
11

>  <SCORE.norm>
-1.05157

>  <RMSD>
0.594

$$$$
ligand
 OpenBabel01301917033D
libRbt.so/2013.1/901 2013/11/27
 11 12  0  0  0  0  0  0  0  0999 V2000
  -11.8399  -12.7637    8.8709 N   0  0  0  0  0  0  0  0  0  0  0  0
  -11.4873  -14.0557    8.9668 C   0  0  0  0  0  0  0  0  0  0  0  0
  -11.4996  -14.6574   10.1529 N   0  0  0  0  0  0  0  0  0  0  0  0
  -11.1123  -14.7435    7.8771 N   0  0  0  0  0  0  0  0  0  0  0  0
  -11.0794  -14.1538    6.6730 C   0  0  0  0  0  0  0  0  0  0  0  0
  -11.4392  -12.8181    6.5459 C   0  0  0  0  0  0  0  0  0  0  0  0
  -11.8266  -12.1271    7.6892 C   0  0  0  0  0  0  0  0  0  0  0  0
  -12.1882  -10.8498    7.6116 N   0  0  0  0  0  0  0  0  0  0  0  0
  -11.3039  -12.4873    5.2651 N   0  0  0  0  0  0  0  0  0  0  0  0
  -10.8771  -13.5642    4.6093 C   0  0  0  0  0  0  0  0  0  0  0  0
  -10.7395  -14.5793    5.4597 N   0  0  0  0  0  0  0  0  0  0  0  0
  1  7  2  0  0  0  0
  1  2  1  0  0  0  0
  2  3  1  0  0  0  0
  2  4  2  0  0  0  0
  4  5  1  0  0  0  0
  5  6  2  0  0  0  0
  5 11  1  0  0  0  0
  6  7  1  0  0  0  0
  6  9  1  0  0  0  0
  7  8  1  0  0  0  0
  9 10  1  0  0  0  0
 10 11  2  0  0  0  0
M  END
>  <CHROM.1>
-11.40334754,-13.34556183,7.27168868,1.98986790,-1.24711259,2.10078926

>  <Name>
ligand

>  <RI>
0

>  <Rbt.Current_Directory>
/home/itssahil/PROJECTS/Mol_Feturizer/New_Systems/rnas/2b57

>  <Rbt.Executable>
rbdock ($Id: //depot/dev/client3/rdock/2013.1/src/exe/rbdock.cxx#4 $)

>  <Rbt.Library>
libRbt.so (2013.1, Build901 2013/11/27)

>  <Rbt.Parameter_File>
/export/apps/rDock/src/rDock_2013.1_src/data/scripts/dock_solv.prm

>  <Rbt.Receptor>
prm/pocket_docking_5.prm

>  <SCORE>
-11.5614

>  <SCORE.INTER>
-11.5614

>  <SCORE.INTER.CONST>
1

>  <SCORE.INTER.POLAR>
0

>  <SCORE.INTER.ROT>
0

>  <SCORE.INTER.SOLV>
21.4881

>  <SCORE.INTER.VDW>
-18.4703

>  <SCORE.INTER.norm>
-1.05103

>  <SCORE.INTRA>
0

>  <SCORE.INTRA.DIHEDRAL>
0

>  <SCORE.INTRA.DIHEDRAL.0>
0

>  <SCORE.INTRA.POLAR>
0

>  <SCORE.INTRA.POLAR.0>
0

>  <SCORE.INTRA.REPUL>
0

>  <SCORE.INTRA.REPUL.0>
0

>  <SCORE.INTRA.SOLV>
0

>  <SCORE.INTRA.SOLV.lig_0>
-48.3454

>  <SCORE.INTRA.VDW>
0

>  <SCORE.INTRA.VDW.0>
0

>  <SCORE.INTRA.norm>
0

>  <SCORE.RESTR>
0

>  <SCORE.RESTR.CAVITY>
0

>  <SCORE.RESTR.norm>
0

>  <SCORE.SYSTEM>
0

>  <SCORE.SYSTEM.CONST>
0

>  <SCORE.SYSTEM.DIHEDRAL>
0

>  <SCORE.SYSTEM.SOLV>
0

>  <SCORE.SYSTEM.norm>
0

>  <SCORE.heavy>
11

>  <SCORE.norm>
-1.05103

>  <RMSD>
0.595

$$$$
ligand
 OpenBabel01301917033D
libRbt.so/2013.1/901 2013/11/27
 11 12  0  0  0  0  0  0  0  0999 V2000
  -11.8540  -12.7530    8.8628 N   0  0  0  0  0  0  0  0  0  0  0  0
  -11.4818  -14.0391    8.9626 C   0  0  0  0  0  0  0  0  0  0  0  0
  -11.4862  -14.6376   10.1504 N   0  0  0  0  0  0  0  0  0  0  0  0
  -11.0951  -14.7241    7.8753 N   0  0  0  0  0  0  0  0  0  0  0  0
  -11.0699  -14.1372    6.6695 C   0  0  0  0  0  0  0  0  0  0  0  0
  -11.4499  -12.8076    6.5383 C   0  0  0  0  0  0  0  0  0  0  0  0
  -11.8492  -12.1195    7.6793 C   0  0  0  0  0  0  0  0  0  0  0  0
  -12.2302  -10.8481    7.5978 N   0  0  0  0  0  0  0  0  0  0  0  0
  -11.3183  -12.4783    5.2568 N   0  0  0  0  0  0  0  0  0  0  0  0
  -10.8743  -13.5504    4.6044 C   0  0  0  0  0  0  0  0  0  0  0  0
  -10.7222  -14.5609    5.4578 N   0  0  0  0  0  0  0  0  0  0  0  0
  1  7  2  0  0  0  0
  1  2  1  0  0  0  0
  2  3  1  0  0  0  0
  2  4  2  0  0  0  0
  4  5  1  0  0  0  0
  5  6  2  0  0  0  0
  5 11  1  0  0  0  0
  6  7  1  0  0  0  0
  6  9  1  0  0  0  0
  7  8  1  0  0  0  0
  9 10  1  0  0  0  0
 10 11  2  0  0  0  0
M  END
>  <CHROM.1>
-11.40682123,-13.33245465,7.26563862,1.96938648,-1.23327545,2.07865965

>  <Name>
ligand

>  <RI>
0

>  <Rbt.Current_Directory>
/home/itssahil/PROJECTS/Mol_Feturizer/New_Systems/rnas/2b57

>  <Rbt.Executable>
rbdock ($Id: //depot/dev/client3/rdock/2013.1/src/exe/rbdock.cxx#4 $)

>  <Rbt.Library>
libRbt.so (2013.1, Build901 2013/11/27)

>  <Rbt.Parameter_File>
/export/apps/rDock/src/rDock_2013.1_src/data/scripts/dock_solv.prm

>  <Rbt.Receptor>
prm/pocket_docking_7.prm

>  <SCORE>
-11.4876

>  <SCORE.INTER>
-11.4876

>  <SCORE.INTER.CONST>
1

>  <SCORE.INTER.POLAR>
0

>  <SCORE.INTER.ROT>
0

>  <SCORE.INTER.SOLV>
21.3328

>  <SCORE.INTER.VDW>
-18.3693

>  <SCORE.INTER.norm>
-1.04433

>  <SCORE.INTRA>
0

>  <SCORE.INTRA.DIHEDRAL>
0

>  <SCORE.INTRA.DIHEDRAL.0>
0

>  <SCORE.INTRA.POLAR>
0

>  <SCORE.INTRA.POLAR.0>
0

>  <SCORE.INTRA.REPUL>
0

>  <SCORE.INTRA.REPUL.0>
0

>  <SCORE.INTRA.SOLV>
0

>  <SCORE.INTRA.SOLV.lig_0>
-48.3454

>  <SCORE.INTRA.VDW>
0

>  <SCORE.INTRA.VDW.0>
0

>  <SCORE.INTRA.norm>
0

>  <SCORE.RESTR>
0

>  <SCORE.RESTR.CAVITY>
0

>  <SCORE.RESTR.norm>
0

>  <SCORE.SYSTEM>
0

>  <SCORE.SYSTEM.CONST>
0

>  <SCORE.SYSTEM.DIHEDRAL>
0

>  <SCORE.SYSTEM.SOLV>
0

>  <SCORE.SYSTEM.norm>
0

>  <SCORE.heavy>
11

>  <SCORE.norm>
-1.04433

>  <RMSD>
0.595

$$$$
ligand
 OpenBabel01301917033D
libRbt.so/2013.1/901 2013/11/27
 11 12  0  0  0  0  0  0  0  0999 V2000
  -11.8543  -12.7704    8.8713 N   0  0  0  0  0  0  0  0  0  0  0  0
  -11.5029  -14.0633    8.9583 C   0  0  0  0  0  0  0  0  0  0  0  0
  -11.5151  -14.6729   10.1404 N   0  0  0  0  0  0  0  0  0  0  0  0
  -11.1291  -14.7442    7.8639 N   0  0  0  0  0  0  0  0  0  0  0  0
  -11.0963  -14.1464    6.6636 C   0  0  0  0  0  0  0  0  0  0  0  0
  -11.4549  -12.8096    6.5457 C   0  0  0  0  0  0  0  0  0  0  0  0
  -11.8411  -12.1259    7.6938 C   0  0  0  0  0  0  0  0  0  0  0  0
  -12.2014  -10.8478    7.6249 N   0  0  0  0  0  0  0  0  0  0  0  0
  -11.3199  -12.4704    5.2671 N   0  0  0  0  0  0  0  0  0  0  0  0
  -10.8945  -13.5433    4.6038 C   0  0  0  0  0  0  0  0  0  0  0  0
  -10.7575  -14.5642    5.4474 N   0  0  0  0  0  0  0  0  0  0  0  0
  1  7  2  0  0  0  0
  1  2  1  0  0  0  0
  2  3  1  0  0  0  0
  2  4  2  0  0  0  0
  4  5  1  0  0  0  0
  5  6  2  0  0  0  0
  5 11  1  0  0  0  0
  6  7  1  0  0  0  0
  6  9  1  0  0  0  0
  7  8  1  0  0  0  0
  9 10  1  0  0  0  0
 10 11  2  0  0  0  0
M  END
>  <CHROM.1>
-11.41913722,-13.34192748,7.26793277,1.98991277,-1.24820621,2.10752022

>  <Name>
ligand

>  <RI>
0

>  <Rbt.Current_Directory>
/home/itssahil/PROJECTS/Mol_Feturizer/New_Systems/rnas/2b57

>  <Rbt.Executable>
rbdock ($Id: //depot/dev/client3/rdock/2013.1/src/exe/rbdock.cxx#4 $)

>  <Rbt.Library>
libRbt.so (2013.1, Build901 2013/11/27)

>  <Rbt.Parameter_File>
/export/apps/rDock/src/rDock_2013.1_src/data/scripts/dock_solv.prm

>  <Rbt.Receptor>
prm/pocket_docking_8.prm

>  <SCORE>
-11.5351

>  <SCORE.INTER>
-11.5351

>  <SCORE.INTER.CONST>
1

>  <SCORE.INTER.POLAR>
0

>  <SCORE.INTER.ROT>
0

>  <SCORE.INTER.SOLV>
21.4766

>  <SCORE.INTER.VDW>
-18.4489

>  <SCORE.INTER.norm>
-1.04865

>  <SCORE.INTRA>
0

>  <SCORE.INTRA.DIHEDRAL>
0

>  <SCORE.INTRA.DIHEDRAL.0>
0

>  <SCORE.INTRA.POLAR>
0

>  <SCORE.INTRA.POLAR.0>
0

>  <SCORE.INTRA.REPUL>
0

>  <SCORE.INTRA.REPUL.0>
0

>  <SCORE.INTRA.SOLV>
0

>  <SCORE.INTRA.SOLV.lig_0>
-48.3454

>  <SCORE.INTRA.VDW>
0

>  <SCORE.INTRA.VDW.0>
0

>  <SCORE.INTRA.norm>
0

>  <SCORE.RESTR>
0

>  <SCORE.RESTR.CAVITY>
0

>  <SCORE.RESTR.norm>
0

>  <SCORE.SYSTEM>
0

>  <SCORE.SYSTEM.CONST>
0

>  <SCORE.SYSTEM.DIHEDRAL>
0

>  <SCORE.SYSTEM.SOLV>
0

>  <SCORE.SYSTEM.norm>
0

>  <SCORE.heavy>
11

>  <SCORE.norm>
-1.04865

>  <RMSD>
0.595

$$$$
ligand
 OpenBabel01301917033D
libRbt.so/2013.1/901 2013/11/27
 11 12  0  0  0  0  0  0  0  0999 V2000
  -11.8475  -12.7722    8.8718 N   0  0  0  0  0  0  0  0  0  0  0  0
  -11.4929  -14.0639    8.9639 C   0  0  0  0  0  0  0  0  0  0  0  0
  -11.5076  -14.6701   10.1476 N   0  0  0  0  0  0  0  0  0  0  0  0
  -11.1133  -14.7469    7.8727 N   0  0  0  0  0  0  0  0  0  0  0  0
  -11.0779  -14.1525    6.6709 C   0  0  0  0  0  0  0  0  0  0  0  0
  -11.4397  -12.8170    6.5478 C   0  0  0  0  0  0  0  0  0  0  0  0
  -11.8318  -12.1310    7.6926 C   0  0  0  0  0  0  0  0  0  0  0  0
  -12.1954  -10.8541    7.6187 N   0  0  0  0  0  0  0  0  0  0  0  0
  -11.3011  -12.4811    5.2688 N   0  0  0  0  0  0  0  0  0  0  0  0
  -10.8704  -13.5548    4.6101 C   0  0  0  0  0  0  0  0  0  0  0  0
  -10.7336  -14.5728    5.4571 N   0  0  0  0  0  0  0  0  0  0  0  0
  1  7  2  0  0  0  0
  1  2  1  0  0  0  0
  2  3  1  0  0  0  0
  2  4  2  0  0  0  0
  4  5  1  0  0  0  0
  5  6  2  0  0  0  0
  5 11  1  0  0  0  0
  6  7  1  0  0  0  0
  6  9  1  0  0  0  0
  7  8  1  0  0  0  0
  9 10  1  0  0  0  0
 10 11  2  0  0  0  0
M  END
>  <CHROM.1>
-11.40505665,-13.34714946,7.27171606,1.99513099,-1.24404535,2.10958022

>  <Name>
ligand

>  <RI>
0

>  <Rbt.Current_Directory>
/home/itssahil/PROJECTS/Mol_Feturizer/New_Systems/rnas/2b57

>  <Rbt.Executable>
rbdock ($Id: //depot/dev/client3/rdock/2013.1/src/exe/rbdock.cxx#4 $)

>  <Rbt.Library>
libRbt.so (2013.1, Build901 2013/11/27)

>  <Rbt.Parameter_File>
/export/apps/rDock/src/rDock_2013.1_src/data/scripts/dock_solv.prm

>  <Rbt.Receptor>
prm/pocket_docking_8.prm

>  <SCORE>
-11.565

>  <SCORE.INTER>
-11.565

>  <SCORE.INTER.CONST>
1

>  <SCORE.INTER.POLAR>
0

>  <SCORE.INTER.ROT>
0

>  <SCORE.INTER.SOLV>
21.4743

>  <SCORE.INTER.VDW>
-18.4681

>  <SCORE.INTER.norm>
-1.05137

>  <SCORE.INTRA>
0

>  <SCORE.INTRA.DIHEDRAL>
0

>  <SCORE.INTRA.DIHEDRAL.0>
0

>  <SCORE.INTRA.POLAR>
0

>  <SCORE.INTRA.POLAR.0>
0

>  <SCORE.INTRA.REPUL>
0

>  <SCORE.INTRA.REPUL.0>
0

>  <SCORE.INTRA.SOLV>
0

>  <SCORE.INTRA.SOLV.lig_0>
-48.3454

>  <SCORE.INTRA.VDW>
0

>  <SCORE.INTRA.VDW.0>
0

>  <SCORE.INTRA.norm>
0

>  <SCORE.RESTR>
0

>  <SCORE.RESTR.CAVITY>
0

>  <SCORE.RESTR.norm>
0

>  <SCORE.SYSTEM>
0

>  <SCORE.SYSTEM.CONST>
0

>  <SCORE.SYSTEM.DIHEDRAL>
0

>  <SCORE.SYSTEM.SOLV>
0

>  <SCORE.SYSTEM.norm>
0

>  <SCORE.heavy>
11

>  <SCORE.norm>
-1.05137

>  <RMSD>
0.595

$$$$
ligand
 OpenBabel01301917033D
libRbt.so/2013.1/901 2013/11/27
 11 12  0  0  0  0  0  0  0  0999 V2000
  -11.8334  -12.7607    8.8719 N   0  0  0  0  0  0  0  0  0  0  0  0
  -11.4881  -14.0548    8.9659 C   0  0  0  0  0  0  0  0  0  0  0  0
  -11.5052  -14.6584   10.1510 N   0  0  0  0  0  0  0  0  0  0  0  0
  -11.1156  -14.7428    7.8756 N   0  0  0  0  0  0  0  0  0  0  0  0
  -11.0779  -14.1512    6.6725 C   0  0  0  0  0  0  0  0  0  0  0  0
  -11.4301  -12.8133    6.5472 C   0  0  0  0  0  0  0  0  0  0  0  0
  -11.8151  -12.1221    7.6912 C   0  0  0  0  0  0  0  0  0  0  0  0
  -12.1695  -10.8428    7.6154 N   0  0  0  0  0  0  0  0  0  0  0  0
  -11.2914  -12.4811    5.2672 N   0  0  0  0  0  0  0  0  0  0  0  0
  -10.8698  -13.5593    4.6100 C   0  0  0  0  0  0  0  0  0  0  0  0
  -10.7389  -14.5765    5.4589 N   0  0  0  0  0  0  0  0  0  0  0  0
  1  7  2  0  0  0  0
  1  2  1  0  0  0  0
  2  3  1  0  0  0  0
  2  4  2  0  0  0  0
  4  5  1  0  0  0  0
  5  6  2  0  0  0  0
  5 11  1  0  0  0  0
  6  7  1  0  0  0  0
  6  9  1  0  0  0  0
  7  8  1  0  0  0  0
  9 10  1  0  0  0  0
 10 11  2  0  0  0  0
M  END
>  <CHROM.1>
-11.39810570,-13.34224359,7.27216159,2.00226017,-1.25125457,2.11427196

>  <Name>
ligand

>  <RI>
0

>  <Rbt.Current_Directory>
/home/itssahil/PROJECTS/Mol_Feturizer/New_Systems/rnas/2b57

>  <Rbt.Executable>
rbdock ($Id: //depot/dev/client3/rdock/2013.1/src/exe/rbdock.cxx#4 $)

>  <Rbt.Library>
libRbt.so (2013.1, Build901 2013/11/27)

>  <Rbt.Parameter_File>
/export/apps/rDock/src/rDock_2013.1_src/data/scripts/dock_solv.prm

>  <Rbt.Receptor>
prm/blind_docking_100.prm

>  <SCORE>
-11.5654

>  <SCORE.INTER>
-11.5654

>  <SCORE.INTER.CONST>
1

>  <SCORE.INTER.POLAR>
0

>  <SCORE.INTER.ROT>
0

>  <SCORE.INTER.SOLV>
21.5598

>  <SCORE.INTER.VDW>
-18.4969

>  <SCORE.INTER.norm>
-1.0514

>  <SCORE.INTRA>
0

>  <SCORE.INTRA.DIHEDRAL>
0

>  <SCORE.INTRA.DIHEDRAL.0>
0

>  <SCORE.INTRA.POLAR>
0

>  <SCORE.INTRA.POLAR.0>
0

>  <SCORE.INTRA.REPUL>
0

>  <SCORE.INTRA.REPUL.0>
0

>  <SCORE.INTRA.SOLV>
0

>  <SCORE.INTRA.SOLV.lig_0>
-48.3454

>  <SCORE.INTRA.VDW>
0

>  <SCORE.INTRA.VDW.0>
0

>  <SCORE.INTRA.norm>
0

>  <SCORE.RESTR>
0

>  <SCORE.RESTR.CAVITY>
0

>  <SCORE.RESTR.norm>
0

>  <SCORE.SYSTEM>
0

>  <SCORE.SYSTEM.CONST>
0

>  <SCORE.SYSTEM.DIHEDRAL>
0

>  <SCORE.SYSTEM.SOLV>
0

>  <SCORE.SYSTEM.norm>
0

>  <SCORE.heavy>
11

>  <SCORE.norm>
-1.0514

>  <RMSD>
0.596

$$$$
ligand
 OpenBabel01301917033D
libRbt.so/2013.1/901 2013/11/27
 11 12  0  0  0  0  0  0  0  0999 V2000
  -11.8418  -12.7647    8.8702 N   0  0  0  0  0  0  0  0  0  0  0  0
  -11.4889  -14.0567    8.9654 C   0  0  0  0  0  0  0  0  0  0  0  0
  -11.5026  -14.6594   10.1509 N   0  0  0  0  0  0  0  0  0  0  0  0
  -11.1123  -14.7434    7.8756 N   0  0  0  0  0  0  0  0  0  0  0  0
  -11.0780  -14.1525    6.6720 C   0  0  0  0  0  0  0  0  0  0  0  0
  -11.4380  -12.8169    6.5457 C   0  0  0  0  0  0  0  0  0  0  0  0
  -11.8272  -12.1270    7.6891 C   0  0  0  0  0  0  0  0  0  0  0  0
  -12.1891  -10.8498    7.6122 N   0  0  0  0  0  0  0  0  0  0  0  0
  -11.3012  -12.4849    5.2654 N   0  0  0  0  0  0  0  0  0  0  0  0
  -10.8732  -13.5611    4.6091 C   0  0  0  0  0  0  0  0  0  0  0  0
  -10.7364  -14.5769    5.4588 N   0  0  0  0  0  0  0  0  0  0  0  0
  1  7  2  0  0  0  0
  1  2  1  0  0  0  0
  2  3  1  0  0  0  0
  2  4  2  0  0  0  0
  4  5  1  0  0  0  0
  5  6  2  0  0  0  0
  5 11  1  0  0  0  0
  6  7  1  0  0  0  0
  6  9  1  0  0  0  0
  7  8  1  0  0  0  0
  9 10  1  0  0  0  0
 10 11  2  0  0  0  0
M  END
>  <CHROM.1>
-11.40298714,-13.34497711,7.27105750,1.99289908,-1.24617465,2.10456776

>  <Name>
ligand

>  <RI>
0

>  <Rbt.Current_Directory>
/home/itssahil/PROJECTS/Mol_Feturizer/New_Systems/rnas/2b57

>  <Rbt.Executable>
rbdock ($Id: //depot/dev/client3/rdock/2013.1/src/exe/rbdock.cxx#4 $)

>  <Rbt.Library>
libRbt.so (2013.1, Build901 2013/11/27)

>  <Rbt.Parameter_File>
/export/apps/rDock/src/rDock_2013.1_src/data/scripts/dock_solv.prm

>  <Rbt.Receptor>
prm/blind_docking_80.prm

>  <SCORE>
-11.5666

>  <SCORE.INTER>
-11.5666

>  <SCORE.INTER.CONST>
1

>  <SCORE.INTER.POLAR>
0

>  <SCORE.INTER.ROT>
0

>  <SCORE.INTER.SOLV>
21.4861

>  <SCORE.INTER.VDW>
-18.4731

>  <SCORE.INTER.norm>
-1.05151

>  <SCORE.INTRA>
0

>  <SCORE.INTRA.DIHEDRAL>
0

>  <SCORE.INTRA.DIHEDRAL.0>
0

>  <SCORE.INTRA.POLAR>
0

>  <SCORE.INTRA.POLAR.0>
0

>  <SCORE.INTRA.REPUL>
0

>  <SCORE.INTRA.REPUL.0>
0

>  <SCORE.INTRA.SOLV>
0

>  <SCORE.INTRA.SOLV.lig_0>
-48.3454

>  <SCORE.INTRA.VDW>
0

>  <SCORE.INTRA.VDW.0>
0

>  <SCORE.INTRA.norm>
0

>  <SCORE.RESTR>
0

>  <SCORE.RESTR.CAVITY>
0

>  <SCORE.RESTR.norm>
0

>  <SCORE.SYSTEM>
0

>  <SCORE.SYSTEM.CONST>
0

>  <SCORE.SYSTEM.DIHEDRAL>
0

>  <SCORE.SYSTEM.SOLV>
0

>  <SCORE.SYSTEM.norm>
0

>  <SCORE.heavy>
11

>  <SCORE.norm>
-1.05151

>  <RMSD>
0.596

$$$$
ligand
 OpenBabel01301917033D
libRbt.so/2013.1/901 2013/11/27
 11 12  0  0  0  0  0  0  0  0999 V2000
  -11.8628  -12.7828    8.8697 N   0  0  0  0  0  0  0  0  0  0  0  0
  -11.5214  -14.0782    8.9608 C   0  0  0  0  0  0  0  0  0  0  0  0
  -11.5547  -14.6884   10.1421 N   0  0  0  0  0  0  0  0  0  0  0  0
  -11.1367  -14.7609    7.8713 N   0  0  0  0  0  0  0  0  0  0  0  0
  -11.0827  -14.1626    6.6721 C   0  0  0  0  0  0  0  0  0  0  0  0
  -11.4304  -12.8233    6.5500 C   0  0  0  0  0  0  0  0  0  0  0  0
  -11.8283  -12.1377    7.6930 C   0  0  0  0  0  0  0  0  0  0  0  0
  -12.1789  -10.8571    7.6199 N   0  0  0  0  0  0  0  0  0  0  0  0
  -11.2749  -12.4842    5.2738 N   0  0  0  0  0  0  0  0  0  0  0  0
  -10.8474  -13.5595    4.6158 C   0  0  0  0  0  0  0  0  0  0  0  0
  -10.7294  -14.5818    5.4605 N   0  0  0  0  0  0  0  0  0  0  0  0
  1  7  2  0  0  0  0
  1  2  1  0  0  0  0
  2  3  1  0  0  0  0
  2  4  2  0  0  0  0
  4  5  1  0  0  0  0
  5  6  2  0  0  0  0
  5 11  1  0  0  0  0
  6  7  1  0  0  0  0
  6  9  1  0  0  0  0
  7  8  1  0  0  0  0
  9 10  1  0  0  0  0
 10 11  2  0  0  0  0
M  END
>  <CHROM.1>
-11.40863261,-13.35630708,7.27230495,2.03940853,-1.24637815,2.15514825

>  <Name>
ligand

>  <RI>
0

>  <Rbt.Current_Directory>
/home/itssahil/PROJECTS/Mol_Feturizer/New_Systems/rnas/2b57

>  <Rbt.Executable>
rbdock ($Id: //depot/dev/client3/rdock/2013.1/src/exe/rbdock.cxx#4 $)

>  <Rbt.Library>
libRbt.so (2013.1, Build901 2013/11/27)

>  <Rbt.Parameter_File>
/export/apps/rDock/src/rDock_2013.1_src/data/scripts/dock_solv.prm

>  <Rbt.Receptor>
prm/pocket_docking_3.prm

>  <SCORE>
-11.5699

>  <SCORE.INTER>
-11.5699

>  <SCORE.INTER.CONST>
1

>  <SCORE.INTER.POLAR>
0

>  <SCORE.INTER.ROT>
0

>  <SCORE.INTER.SOLV>
21.5527

>  <SCORE.INTER.VDW>
-18.4975

>  <SCORE.INTER.norm>
-1.05181

>  <SCORE.INTRA>
0

>  <SCORE.INTRA.DIHEDRAL>
0

>  <SCORE.INTRA.DIHEDRAL.0>
0

>  <SCORE.INTRA.POLAR>
0

>  <SCORE.INTRA.POLAR.0>
0

>  <SCORE.INTRA.REPUL>
0

>  <SCORE.INTRA.REPUL.0>
0

>  <SCORE.INTRA.SOLV>
0

>  <SCORE.INTRA.SOLV.lig_0>
-48.3454

>  <SCORE.INTRA.VDW>
0

>  <SCORE.INTRA.VDW.0>
0

>  <SCORE.INTRA.norm>
0

>  <SCORE.RESTR>
0

>  <SCORE.RESTR.CAVITY>
0

>  <SCORE.RESTR.norm>
0

>  <SCORE.SYSTEM>
0

>  <SCORE.SYSTEM.CONST>
0

>  <SCORE.SYSTEM.DIHEDRAL>
0

>  <SCORE.SYSTEM.SOLV>
0

>  <SCORE.SYSTEM.norm>
0

>  <SCORE.heavy>
11

>  <SCORE.norm>
-1.05181

>  <RMSD>
0.596

$$$$
ligand
 OpenBabel01301917033D
libRbt.so/2013.1/901 2013/11/27
 11 12  0  0  0  0  0  0  0  0999 V2000
  -11.8337  -12.7652    8.8741 N   0  0  0  0  0  0  0  0  0  0  0  0
  -11.4969  -14.0617    8.9656 C   0  0  0  0  0  0  0  0  0  0  0  0
  -11.5215  -14.6686   10.1489 N   0  0  0  0  0  0  0  0  0  0  0  0
  -11.1253  -14.7490    7.8744 N   0  0  0  0  0  0  0  0  0  0  0  0
  -11.0801  -14.1543    6.6731 C   0  0  0  0  0  0  0  0  0  0  0  0
  -11.4234  -12.8138    6.5506 C   0  0  0  0  0  0  0  0  0  0  0  0
  -11.8077  -12.1234    7.6954 C   0  0  0  0  0  0  0  0  0  0  0  0
  -12.1536  -10.8416    7.6221 N   0  0  0  0  0  0  0  0  0  0  0  0
  -11.2786  -12.4789    5.2720 N   0  0  0  0  0  0  0  0  0  0  0  0
  -10.8618  -13.5578    4.6131 C   0  0  0  0  0  0  0  0  0  0  0  0
  -10.7401  -14.5783    5.4594 N   0  0  0  0  0  0  0  0  0  0  0  0
  1  7  2  0  0  0  0
  1  2  1  0  0  0  0
  2  3  1  0  0  0  0
  2  4  2  0  0  0  0
  4  5  1  0  0  0  0
  5  6  2  0  0  0  0
  5 11  1  0  0  0  0
  6  7  1  0  0  0  0
  6  9  1  0  0  0  0
  7  8  1  0  0  0  0
  9 10  1  0  0  0  0
 10 11  2  0  0  0  0
M  END
>  <CHROM.1>
-11.39706015,-13.34498100,7.27415282,2.02140948,-1.25501857,2.13529601

>  <Name>
ligand

>  <RI>
0

>  <Rbt.Current_Directory>
/home/itssahil/PROJECTS/Mol_Feturizer/New_Systems/rnas/2b57

>  <Rbt.Executable>
rbdock ($Id: //depot/dev/client3/rdock/2013.1/src/exe/rbdock.cxx#4 $)

>  <Rbt.Library>
libRbt.so (2013.1, Build901 2013/11/27)

>  <Rbt.Parameter_File>
/export/apps/rDock/src/rDock_2013.1_src/data/scripts/dock_solv.prm

>  <Rbt.Receptor>
prm/pocket_docking_4.prm

>  <SCORE>
-11.562

>  <SCORE.INTER>
-11.562

>  <SCORE.INTER.CONST>
1

>  <SCORE.INTER.POLAR>
0

>  <SCORE.INTER.ROT>
0

>  <SCORE.INTER.SOLV>
21.6245

>  <SCORE.INTER.VDW>
-18.5162

>  <SCORE.INTER.norm>
-1.05109

>  <SCORE.INTRA>
0

>  <SCORE.INTRA.DIHEDRAL>
0

>  <SCORE.INTRA.DIHEDRAL.0>
0

>  <SCORE.INTRA.POLAR>
0

>  <SCORE.INTRA.POLAR.0>
0

>  <SCORE.INTRA.REPUL>
0

>  <SCORE.INTRA.REPUL.0>
0

>  <SCORE.INTRA.SOLV>
0

>  <SCORE.INTRA.SOLV.lig_0>
-48.3454

>  <SCORE.INTRA.VDW>
0

>  <SCORE.INTRA.VDW.0>
0

>  <SCORE.INTRA.norm>
0

>  <SCORE.RESTR>
0

>  <SCORE.RESTR.CAVITY>
0

>  <SCORE.RESTR.norm>
0

>  <SCORE.SYSTEM>
0

>  <SCORE.SYSTEM.CONST>
0

>  <SCORE.SYSTEM.DIHEDRAL>
0

>  <SCORE.SYSTEM.SOLV>
0

>  <SCORE.SYSTEM.norm>
0

>  <SCORE.heavy>
11

>  <SCORE.norm>
-1.05109

>  <RMSD>
0.596

$$$$
ligand
 OpenBabel01301917033D
libRbt.so/2013.1/901 2013/11/27
 11 12  0  0  0  0  0  0  0  0999 V2000
  -11.8370  -12.7693    8.8735 N   0  0  0  0  0  0  0  0  0  0  0  0
  -11.4828  -14.0609    8.9681 C   0  0  0  0  0  0  0  0  0  0  0  0
  -11.4906  -14.6627   10.1542 N   0  0  0  0  0  0  0  0  0  0  0  0
  -11.1106  -14.7483    7.8772 N   0  0  0  0  0  0  0  0  0  0  0  0
  -11.0823  -14.1585    6.6730 C   0  0  0  0  0  0  0  0  0  0  0  0
  -11.4438  -12.8232    6.5471 C   0  0  0  0  0  0  0  0  0  0  0  0
  -11.8282  -12.1326    7.6917 C   0  0  0  0  0  0  0  0  0  0  0  0
  -12.1913  -10.8557    7.6153 N   0  0  0  0  0  0  0  0  0  0  0  0
  -11.3130  -12.4922    5.2660 N   0  0  0  0  0  0  0  0  0  0  0  0
  -10.8873  -13.5687    4.6087 C   0  0  0  0  0  0  0  0  0  0  0  0
  -10.7459  -14.5837    5.4586 N   0  0  0  0  0  0  0  0  0  0  0  0
  1  7  2  0  0  0  0
  1  2  1  0  0  0  0
  2  3  1  0  0  0  0
  2  4  2  0  0  0  0
  4  5  1  0  0  0  0
  5  6  2  0  0  0  0
  5 11  1  0  0  0  0
  6  7  1  0  0  0  0
  6  9  1  0  0  0  0
  7  8  1  0  0  0  0
  9 10  1  0  0  0  0
 10 11  2  0  0  0  0
M  END
>  <CHROM.1>
-11.40505522,-13.35064536,7.27278083,1.97944020,-1.24788533,2.09095053

>  <Name>
ligand

>  <RI>
0

>  <Rbt.Current_Directory>
/home/itssahil/PROJECTS/Mol_Feturizer/New_Systems/rnas/2b57

>  <Rbt.Executable>
rbdock ($Id: //depot/dev/client3/rdock/2013.1/src/exe/rbdock.cxx#4 $)

>  <Rbt.Library>
libRbt.so (2013.1, Build901 2013/11/27)

>  <Rbt.Parameter_File>
/export/apps/rDock/src/rDock_2013.1_src/data/scripts/dock_solv.prm

>  <Rbt.Receptor>
prm/pocket_docking_5.prm

>  <SCORE>
-11.5347

>  <SCORE.INTER>
-11.5347

>  <SCORE.INTER.CONST>
1

>  <SCORE.INTER.POLAR>
0

>  <SCORE.INTER.ROT>
0

>  <SCORE.INTER.SOLV>
21.4824

>  <SCORE.INTER.VDW>
-18.4506

>  <SCORE.INTER.norm>
-1.04861

>  <SCORE.INTRA>
0

>  <SCORE.INTRA.DIHEDRAL>
0

>  <SCORE.INTRA.DIHEDRAL.0>
0

>  <SCORE.INTRA.POLAR>
0

>  <SCORE.INTRA.POLAR.0>
0

>  <SCORE.INTRA.REPUL>
0

>  <SCORE.INTRA.REPUL.0>
0

>  <SCORE.INTRA.SOLV>
0

>  <SCORE.INTRA.SOLV.lig_0>
-48.3454

>  <SCORE.INTRA.VDW>
0

>  <SCORE.INTRA.VDW.0>
0

>  <SCORE.INTRA.norm>
0

>  <SCORE.RESTR>
0

>  <SCORE.RESTR.CAVITY>
0

>  <SCORE.RESTR.norm>
0

>  <SCORE.SYSTEM>
0

>  <SCORE.SYSTEM.CONST>
0

>  <SCORE.SYSTEM.DIHEDRAL>
0

>  <SCORE.SYSTEM.SOLV>
0

>  <SCORE.SYSTEM.norm>
0

>  <SCORE.heavy>
11

>  <SCORE.norm>
-1.04861

>  <RMSD>
0.596

$$$$
ligand
 OpenBabel01301917033D
libRbt.so/2013.1/901 2013/11/27
 11 12  0  0  0  0  0  0  0  0999 V2000
  -11.8889  -12.7871    8.8644 N   0  0  0  0  0  0  0  0  0  0  0  0
  -11.5526  -14.0840    8.9523 C   0  0  0  0  0  0  0  0  0  0  0  0
  -11.5925  -14.6982   10.1313 N   0  0  0  0  0  0  0  0  0  0  0  0
  -11.1662  -14.7643    7.8619 N   0  0  0  0  0  0  0  0  0  0  0  0
  -11.1055  -14.1620    6.6650 C   0  0  0  0  0  0  0  0  0  0  0  0
  -11.4479  -12.8210    6.5463 C   0  0  0  0  0  0  0  0  0  0  0  0
  -11.8476  -12.1380    7.6901 C   0  0  0  0  0  0  0  0  0  0  0  0
  -12.1934  -10.8559    7.6202 N   0  0  0  0  0  0  0  0  0  0  0  0
  -11.2864  -12.4781    5.2718 N   0  0  0  0  0  0  0  0  0  0  0  0
  -10.8603  -13.5527    4.6118 C   0  0  0  0  0  0  0  0  0  0  0  0
  -10.7491  -14.5783    5.4533 N   0  0  0  0  0  0  0  0  0  0  0  0
  1  7  2  0  0  0  0
  1  2  1  0  0  0  0
  2  3  1  0  0  0  0
  2  4  2  0  0  0  0
  4  5  1  0  0  0  0
  5  6  2  0  0  0  0
  5 11  1  0  0  0  0
  6  7  1  0  0  0  0
  6  9  1  0  0  0  0
  7  8  1  0  0  0  0
  9 10  1  0  0  0  0
 10 11  2  0  0  0  0
M  END
>  <CHROM.1>
-11.43078963,-13.35664943,7.26678650,2.05556112,-1.24726397,2.17393236

>  <Name>
ligand

>  <RI>
0

>  <Rbt.Current_Directory>
/home/itssahil/PROJECTS/Mol_Feturizer/New_Systems/rnas/2b57

>  <Rbt.Executable>
rbdock ($Id: //depot/dev/client3/rdock/2013.1/src/exe/rbdock.cxx#4 $)

>  <Rbt.Library>
libRbt.so (2013.1, Build901 2013/11/27)

>  <Rbt.Parameter_File>
/export/apps/rDock/src/rDock_2013.1_src/data/scripts/dock_solv.prm

>  <Rbt.Receptor>
prm/pocket_docking_7.prm

>  <SCORE>
-11.5227

>  <SCORE.INTER>
-11.5227

>  <SCORE.INTER.CONST>
1

>  <SCORE.INTER.POLAR>
0

>  <SCORE.INTER.ROT>
0

>  <SCORE.INTER.SOLV>
21.5294

>  <SCORE.INTER.VDW>
-18.4583

>  <SCORE.INTER.norm>
-1.04752

>  <SCORE.INTRA>
0

>  <SCORE.INTRA.DIHEDRAL>
0

>  <SCORE.INTRA.DIHEDRAL.0>
0

>  <SCORE.INTRA.POLAR>
0

>  <SCORE.INTRA.POLAR.0>
0

>  <SCORE.INTRA.REPUL>
0

>  <SCORE.INTRA.REPUL.0>
0

>  <SCORE.INTRA.SOLV>
0

>  <SCORE.INTRA.SOLV.lig_0>
-48.3454

>  <SCORE.INTRA.VDW>
0

>  <SCORE.INTRA.VDW.0>
0

>  <SCORE.INTRA.norm>
0

>  <SCORE.RESTR>
0

>  <SCORE.RESTR.CAVITY>
0

>  <SCORE.RESTR.norm>
0

>  <SCORE.SYSTEM>
0

>  <SCORE.SYSTEM.CONST>
0

>  <SCORE.SYSTEM.DIHEDRAL>
0

>  <SCORE.SYSTEM.SOLV>
0

>  <SCORE.SYSTEM.norm>
0

>  <SCORE.heavy>
11

>  <SCORE.norm>
-1.04752

>  <RMSD>
0.596

$$$$
ligand
 OpenBabel01301917033D
libRbt.so/2013.1/901 2013/11/27
 11 12  0  0  0  0  0  0  0  0999 V2000
  -11.8763  -12.7807    8.8656 N   0  0  0  0  0  0  0  0  0  0  0  0
  -11.5371  -14.0768    8.9530 C   0  0  0  0  0  0  0  0  0  0  0  0
  -11.5692  -14.6898   10.1329 N   0  0  0  0  0  0  0  0  0  0  0  0
  -11.1557  -14.7576    7.8611 N   0  0  0  0  0  0  0  0  0  0  0  0
  -11.1030  -14.1566    6.6632 C   0  0  0  0  0  0  0  0  0  0  0  0
  -11.4485  -12.8164    6.5450 C   0  0  0  0  0  0  0  0  0  0  0  0
  -11.8430  -12.1328    7.6904 C   0  0  0  0  0  0  0  0  0  0  0  0
  -12.1914  -10.8514    7.6211 N   0  0  0  0  0  0  0  0  0  0  0  0
  -11.2949  -12.4745    5.2693 N   0  0  0  0  0  0  0  0  0  0  0  0
  -10.8706  -13.5491    4.6080 C   0  0  0  0  0  0  0  0  0  0  0  0
  -10.7528  -14.5736    5.4499 N   0  0  0  0  0  0  0  0  0  0  0  0
  1  7  2  0  0  0  0
  1  2  1  0  0  0  0
  2  3  1  0  0  0  0
  2  4  2  0  0  0  0
  4  5  1  0  0  0  0
  5  6  2  0  0  0  0
  5 11  1  0  0  0  0
  6  7  1  0  0  0  0
  6  9  1  0  0  0  0
  7  8  1  0  0  0  0
  9 10  1  0  0  0  0
 10 11  2  0  0  0  0
M  END
>  <CHROM.1>
-11.42631475,-13.35115931,7.26600689,2.03739777,-1.24895575,2.15561581

>  <Name>
ligand

>  <RI>
0

>  <Rbt.Current_Directory>
/home/itssahil/PROJECTS/Mol_Feturizer/New_Systems/rnas/2b57

>  <Rbt.Executable>
rbdock ($Id: //depot/dev/client3/rdock/2013.1/src/exe/rbdock.cxx#4 $)

>  <Rbt.Library>
libRbt.so (2013.1, Build901 2013/11/27)

>  <Rbt.Parameter_File>
/export/apps/rDock/src/rDock_2013.1_src/data/scripts/dock_solv.prm

>  <Rbt.Receptor>
prm/blind_docking_40.prm

>  <SCORE>
-11.5262

>  <SCORE.INTER>
-11.5262

>  <SCORE.INTER.CONST>
1

>  <SCORE.INTER.POLAR>
0

>  <SCORE.INTER.ROT>
0

>  <SCORE.INTER.SOLV>
21.5303

>  <SCORE.INTER.VDW>
-18.4609

>  <SCORE.INTER.norm>
-1.04784

>  <SCORE.INTRA>
0

>  <SCORE.INTRA.DIHEDRAL>
0

>  <SCORE.INTRA.DIHEDRAL.0>
0

>  <SCORE.INTRA.POLAR>
0

>  <SCORE.INTRA.POLAR.0>
0

>  <SCORE.INTRA.REPUL>
0

>  <SCORE.INTRA.REPUL.0>
0

>  <SCORE.INTRA.SOLV>
0

>  <SCORE.INTRA.SOLV.lig_0>
-48.3454

>  <SCORE.INTRA.VDW>
0

>  <SCORE.INTRA.VDW.0>
0

>  <SCORE.INTRA.norm>
0

>  <SCORE.RESTR>
0

>  <SCORE.RESTR.CAVITY>
0

>  <SCORE.RESTR.norm>
0

>  <SCORE.SYSTEM>
0

>  <SCORE.SYSTEM.CONST>
0

>  <SCORE.SYSTEM.DIHEDRAL>
0

>  <SCORE.SYSTEM.SOLV>
0

>  <SCORE.SYSTEM.norm>
0

>  <SCORE.heavy>
11

>  <SCORE.norm>
-1.04784

>  <RMSD>
0.597

$$$$
ligand
 OpenBabel01301917033D
libRbt.so/2013.1/901 2013/11/27
 11 12  0  0  0  0  0  0  0  0999 V2000
  -11.8382  -12.7628    8.8710 N   0  0  0  0  0  0  0  0  0  0  0  0
  -11.4913  -14.0568    8.9601 C   0  0  0  0  0  0  0  0  0  0  0  0
  -11.5005  -14.6630   10.1439 N   0  0  0  0  0  0  0  0  0  0  0  0
  -11.1250  -14.7422    7.8659 N   0  0  0  0  0  0  0  0  0  0  0  0
  -11.0953  -14.1479    6.6639 C   0  0  0  0  0  0  0  0  0  0  0  0
  -11.4493  -12.8100    6.5437 C   0  0  0  0  0  0  0  0  0  0  0  0
  -11.8278  -12.1217    7.6916 C   0  0  0  0  0  0  0  0  0  0  0  0
  -12.1836  -10.8424    7.6208 N   0  0  0  0  0  0  0  0  0  0  0  0
  -11.3189  -12.4750    5.2636 N   0  0  0  0  0  0  0  0  0  0  0  0
  -10.9005  -13.5513    4.6015 C   0  0  0  0  0  0  0  0  0  0  0  0
  -10.7636  -14.5703    5.4473 N   0  0  0  0  0  0  0  0  0  0  0  0
  1  7  2  0  0  0  0
  1  2  1  0  0  0  0
  2  3  1  0  0  0  0
  2  4  2  0  0  0  0
  4  5  1  0  0  0  0
  5  6  2  0  0  0  0
  5 11  1  0  0  0  0
  6  7  1  0  0  0  0
  6  9  1  0  0  0  0
  7  8  1  0  0  0  0
  9 10  1  0  0  0  0
 10 11  2  0  0  0  0
M  END
>  <CHROM.1>
-11.41239064,-13.34050677,7.26731778,1.98379051,-1.25376224,2.09890362

>  <Name>
ligand

>  <RI>
0

>  <Rbt.Current_Directory>
/home/itssahil/PROJECTS/Mol_Feturizer/New_Systems/rnas/2b57

>  <Rbt.Executable>
rbdock ($Id: //depot/dev/client3/rdock/2013.1/src/exe/rbdock.cxx#4 $)

>  <Rbt.Library>
libRbt.so (2013.1, Build901 2013/11/27)

>  <Rbt.Parameter_File>
/export/apps/rDock/src/rDock_2013.1_src/data/scripts/dock_solv.prm

>  <Rbt.Receptor>
prm/blind_docking_100.prm

>  <SCORE>
-11.5183

>  <SCORE.INTER>
-11.5183

>  <SCORE.INTER.CONST>
1

>  <SCORE.INTER.POLAR>
0

>  <SCORE.INTER.ROT>
0

>  <SCORE.INTER.SOLV>
21.5317

>  <SCORE.INTER.VDW>
-18.4561

>  <SCORE.INTER.norm>
-1.04712

>  <SCORE.INTRA>
0

>  <SCORE.INTRA.DIHEDRAL>
0

>  <SCORE.INTRA.DIHEDRAL.0>
0

>  <SCORE.INTRA.POLAR>
0

>  <SCORE.INTRA.POLAR.0>
0

>  <SCORE.INTRA.REPUL>
0

>  <SCORE.INTRA.REPUL.0>
0

>  <SCORE.INTRA.SOLV>
0

>  <SCORE.INTRA.SOLV.lig_0>
-48.3454

>  <SCORE.INTRA.VDW>
0

>  <SCORE.INTRA.VDW.0>
0

>  <SCORE.INTRA.norm>
0

>  <SCORE.RESTR>
0

>  <SCORE.RESTR.CAVITY>
0

>  <SCORE.RESTR.norm>
0

>  <SCORE.SYSTEM>
0

>  <SCORE.SYSTEM.CONST>
0

>  <SCORE.SYSTEM.DIHEDRAL>
0

>  <SCORE.SYSTEM.SOLV>
0

>  <SCORE.SYSTEM.norm>
0

>  <SCORE.heavy>
11

>  <SCORE.norm>
-1.04712

>  <RMSD>
0.598

$$$$
ligand
 OpenBabel01301917033D
libRbt.so/2013.1/901 2013/11/27
 11 12  0  0  0  0  0  0  0  0999 V2000
  -11.8394  -12.7894    8.8781 N   0  0  0  0  0  0  0  0  0  0  0  0
  -11.4988  -14.0852    8.9650 C   0  0  0  0  0  0  0  0  0  0  0  0
  -11.5192  -14.6957   10.1464 N   0  0  0  0  0  0  0  0  0  0  0  0
  -11.1277  -14.7682    7.8709 N   0  0  0  0  0  0  0  0  0  0  0  0
  -11.0868  -14.1697    6.6713 C   0  0  0  0  0  0  0  0  0  0  0  0
  -11.4341  -12.8298    6.5536 C   0  0  0  0  0  0  0  0  0  0  0  0
  -11.8178  -12.1440    7.7013 C   0  0  0  0  0  0  0  0  0  0  0  0
  -12.1675  -10.8629    7.6326 N   0  0  0  0  0  0  0  0  0  0  0  0
  -11.2930  -12.4907    5.2757 N   0  0  0  0  0  0  0  0  0  0  0  0
  -10.8746  -13.5664    4.6126 C   0  0  0  0  0  0  0  0  0  0  0  0
  -10.7482  -14.5891    5.4556 N   0  0  0  0  0  0  0  0  0  0  0  0
  1  7  2  0  0  0  0
  1  2  1  0  0  0  0
  2  3  1  0  0  0  0
  2  4  2  0  0  0  0
  4  5  1  0  0  0  0
  5  6  2  0  0  0  0
  5 11  1  0  0  0  0
  6  7  1  0  0  0  0
  6  9  1  0  0  0  0
  7  8  1  0  0  0  0
  9 10  1  0  0  0  0
 10 11  2  0  0  0  0
M  END
>  <CHROM.1>
-11.40467764,-13.36309041,7.27546041,2.01071070,-1.25380056,2.12813953

>  <Name>
ligand

>  <RI>
0

>  <Rbt.Current_Directory>
/home/itssahil/PROJECTS/Mol_Feturizer/New_Systems/rnas/2b57

>  <Rbt.Executable>
rbdock ($Id: //depot/dev/client3/rdock/2013.1/src/exe/rbdock.cxx#4 $)

>  <Rbt.Library>
libRbt.so (2013.1, Build901 2013/11/27)

>  <Rbt.Parameter_File>
/export/apps/rDock/src/rDock_2013.1_src/data/scripts/dock_solv.prm

>  <Rbt.Receptor>
prm/blind_docking_40.prm

>  <SCORE>
-11.5484

>  <SCORE.INTER>
-11.5484

>  <SCORE.INTER.CONST>
1

>  <SCORE.INTER.POLAR>
0

>  <SCORE.INTER.ROT>
0

>  <SCORE.INTER.SOLV>
21.6065

>  <SCORE.INTER.VDW>
-18.5011

>  <SCORE.INTER.norm>
-1.04986

>  <SCORE.INTRA>
0

>  <SCORE.INTRA.DIHEDRAL>
0

>  <SCORE.INTRA.DIHEDRAL.0>
0

>  <SCORE.INTRA.POLAR>
0

>  <SCORE.INTRA.POLAR.0>
0

>  <SCORE.INTRA.REPUL>
0

>  <SCORE.INTRA.REPUL.0>
0

>  <SCORE.INTRA.SOLV>
0

>  <SCORE.INTRA.SOLV.lig_0>
-48.3454

>  <SCORE.INTRA.VDW>
0

>  <SCORE.INTRA.VDW.0>
0

>  <SCORE.INTRA.norm>
0

>  <SCORE.RESTR>
0

>  <SCORE.RESTR.CAVITY>
0

>  <SCORE.RESTR.norm>
0

>  <SCORE.SYSTEM>
0

>  <SCORE.SYSTEM.CONST>
0

>  <SCORE.SYSTEM.DIHEDRAL>
0

>  <SCORE.SYSTEM.SOLV>
0

>  <SCORE.SYSTEM.norm>
0

>  <SCORE.heavy>
11

>  <SCORE.norm>
-1.04986

>  <RMSD>
0.598

$$$$
ligand
 OpenBabel01301917033D
libRbt.so/2013.1/901 2013/11/27
 11 12  0  0  0  0  0  0  0  0999 V2000
  -11.8320  -12.7601    8.8728 N   0  0  0  0  0  0  0  0  0  0  0  0
  -11.4797  -14.0524    8.9652 C   0  0  0  0  0  0  0  0  0  0  0  0
  -11.4783  -14.6533   10.1517 N   0  0  0  0  0  0  0  0  0  0  0  0
  -11.1187  -14.7413    7.8715 N   0  0  0  0  0  0  0  0  0  0  0  0
  -11.0998  -14.1523    6.6667 C   0  0  0  0  0  0  0  0  0  0  0  0
  -11.4596  -12.8163    6.5431 C   0  0  0  0  0  0  0  0  0  0  0  0
  -11.8324  -12.1242    7.6906 C   0  0  0  0  0  0  0  0  0  0  0  0
  -12.1934  -10.8465    7.6166 N   0  0  0  0  0  0  0  0  0  0  0  0
  -11.3395  -12.4865    5.2606 N   0  0  0  0  0  0  0  0  0  0  0  0
  -10.9219  -13.5642    4.6003 C   0  0  0  0  0  0  0  0  0  0  0  0
  -10.7751  -14.5789    5.4496 N   0  0  0  0  0  0  0  0  0  0  0  0
  1  7  2  0  0  0  0
  1  2  1  0  0  0  0
  2  3  1  0  0  0  0
  2  4  2  0  0  0  0
  4  5  1  0  0  0  0
  5  6  2  0  0  0  0
  5 11  1  0  0  0  0
  6  7  1  0  0  0  0
  6  9  1  0  0  0  0
  7  8  1  0  0  0  0
  9 10  1  0  0  0  0
 10 11  2  0  0  0  0
M  END
>  <CHROM.1>
-11.41553806,-13.34336404,7.26876127,1.95807195,-1.25404974,2.07000881

>  <Name>
ligand

>  <RI>
0

>  <Rbt.Current_Directory>
/home/itssahil/PROJECTS/Mol_Feturizer/New_Systems/rnas/2b57

>  <Rbt.Executable>
rbdock ($Id: //depot/dev/client3/rdock/2013.1/src/exe/rbdock.cxx#4 $)

>  <Rbt.Library>
libRbt.so (2013.1, Build901 2013/11/27)

>  <Rbt.Parameter_File>
/export/apps/rDock/src/rDock_2013.1_src/data/scripts/dock_solv.prm

>  <Rbt.Receptor>
prm/blind_docking_60.prm

>  <SCORE>
-11.4692

>  <SCORE.INTER>
-11.4692

>  <SCORE.INTER.CONST>
1

>  <SCORE.INTER.POLAR>
0

>  <SCORE.INTER.ROT>
0

>  <SCORE.INTER.SOLV>
21.4886

>  <SCORE.INTER.VDW>
-18.409

>  <SCORE.INTER.norm>
-1.04265

>  <SCORE.INTRA>
0

>  <SCORE.INTRA.DIHEDRAL>
0

>  <SCORE.INTRA.DIHEDRAL.0>
0

>  <SCORE.INTRA.POLAR>
0

>  <SCORE.INTRA.POLAR.0>
0

>  <SCORE.INTRA.REPUL>
0

>  <SCORE.INTRA.REPUL.0>
0

>  <SCORE.INTRA.SOLV>
0

>  <SCORE.INTRA.SOLV.lig_0>
-48.3454

>  <SCORE.INTRA.VDW>
0

>  <SCORE.INTRA.VDW.0>
0

>  <SCORE.INTRA.norm>
0

>  <SCORE.RESTR>
0

>  <SCORE.RESTR.CAVITY>
0

>  <SCORE.RESTR.norm>
0

>  <SCORE.SYSTEM>
0

>  <SCORE.SYSTEM.CONST>
0

>  <SCORE.SYSTEM.DIHEDRAL>
0

>  <SCORE.SYSTEM.SOLV>
0

>  <SCORE.SYSTEM.norm>
0

>  <SCORE.heavy>
11

>  <SCORE.norm>
-1.04265

>  <RMSD>
0.598

$$$$
ligand
 OpenBabel01301917033D
libRbt.so/2013.1/901 2013/11/27
 11 12  0  0  0  0  0  0  0  0999 V2000
  -11.8504  -12.7687    8.8684 N   0  0  0  0  0  0  0  0  0  0  0  0
  -11.5083  -14.0642    8.9545 C   0  0  0  0  0  0  0  0  0  0  0  0
  -11.5273  -14.6752   10.1357 N   0  0  0  0  0  0  0  0  0  0  0  0
  -11.1369  -14.7463    7.8599 N   0  0  0  0  0  0  0  0  0  0  0  0
  -11.0973  -14.1472    6.6606 C   0  0  0  0  0  0  0  0  0  0  0  0
  -11.4462  -12.8077    6.5436 C   0  0  0  0  0  0  0  0  0  0  0  0
  -11.8301  -12.1228    7.6918 C   0  0  0  0  0  0  0  0  0  0  0  0
  -12.1813  -10.8421    7.6238 N   0  0  0  0  0  0  0  0  0  0  0  0
  -11.3062  -12.4678    5.2658 N   0  0  0  0  0  0  0  0  0  0  0  0
  -10.8869  -13.5428    4.6020 C   0  0  0  0  0  0  0  0  0  0  0  0
  -10.7589  -14.5657    5.4445 N   0  0  0  0  0  0  0  0  0  0  0  0
  1  7  2  0  0  0  0
  1  2  1  0  0  0  0
  2  3  1  0  0  0  0
  2  4  2  0  0  0  0
  4  5  1  0  0  0  0
  5  6  2  0  0  0  0
  5 11  1  0  0  0  0
  6  7  1  0  0  0  0
  6  9  1  0  0  0  0
  7  8  1  0  0  0  0
  9 10  1  0  0  0  0
 10 11  2  0  0  0  0
M  END
>  <CHROM.1>
-11.41580700,-13.34121859,7.26523101,2.00736536,-1.25311606,2.12539962

>  <Name>
ligand

>  <RI>
0

>  <Rbt.Current_Directory>
/home/itssahil/PROJECTS/Mol_Feturizer/New_Systems/rnas/2b57

>  <Rbt.Executable>
rbdock ($Id: //depot/dev/client3/rdock/2013.1/src/exe/rbdock.cxx#4 $)

>  <Rbt.Library>
libRbt.so (2013.1, Build901 2013/11/27)

>  <Rbt.Parameter_File>
/export/apps/rDock/src/rDock_2013.1_src/data/scripts/dock_solv.prm

>  <Rbt.Receptor>
prm/blind_docking_80.prm

>  <SCORE>
-11.5445

>  <SCORE.INTER>
-11.5445

>  <SCORE.INTER.CONST>
1

>  <SCORE.INTER.POLAR>
0

>  <SCORE.INTER.ROT>
0

>  <SCORE.INTER.SOLV>
21.5528

>  <SCORE.INTER.VDW>
-18.4806

>  <SCORE.INTER.norm>
-1.0495

>  <SCORE.INTRA>
0

>  <SCORE.INTRA.DIHEDRAL>
0

>  <SCORE.INTRA.DIHEDRAL.0>
0

>  <SCORE.INTRA.POLAR>
0

>  <SCORE.INTRA.POLAR.0>
0

>  <SCORE.INTRA.REPUL>
0

>  <SCORE.INTRA.REPUL.0>
0

>  <SCORE.INTRA.SOLV>
0

>  <SCORE.INTRA.SOLV.lig_0>
-48.3454

>  <SCORE.INTRA.VDW>
0

>  <SCORE.INTRA.VDW.0>
0

>  <SCORE.INTRA.norm>
0

>  <SCORE.RESTR>
0

>  <SCORE.RESTR.CAVITY>
0

>  <SCORE.RESTR.norm>
0

>  <SCORE.SYSTEM>
0

>  <SCORE.SYSTEM.CONST>
0

>  <SCORE.SYSTEM.DIHEDRAL>
0

>  <SCORE.SYSTEM.SOLV>
0

>  <SCORE.SYSTEM.norm>
0

>  <SCORE.heavy>
11

>  <SCORE.norm>
-1.0495

>  <RMSD>
0.598

$$$$
ligand
 OpenBabel01301917033D
libRbt.so/2013.1/901 2013/11/27
 11 12  0  0  0  0  0  0  0  0999 V2000
  -11.8542  -12.7900    8.8733 N   0  0  0  0  0  0  0  0  0  0  0  0
  -11.5059  -14.0838    8.9597 C   0  0  0  0  0  0  0  0  0  0  0  0
  -11.5285  -14.6965   10.1400 N   0  0  0  0  0  0  0  0  0  0  0  0
  -11.1248  -14.7626    7.8664 N   0  0  0  0  0  0  0  0  0  0  0  0
  -11.0815  -14.1617    6.6681 C   0  0  0  0  0  0  0  0  0  0  0  0
  -11.4367  -12.8239    6.5508 C   0  0  0  0  0  0  0  0  0  0  0  0
  -11.8305  -12.1425    7.6977 C   0  0  0  0  0  0  0  0  0  0  0  0
  -12.1879  -10.8635    7.6294 N   0  0  0  0  0  0  0  0  0  0  0  0
  -11.2911  -12.4816    5.2743 N   0  0  0  0  0  0  0  0  0  0  0  0
  -10.8626  -13.5536    4.6115 C   0  0  0  0  0  0  0  0  0  0  0  0
  -10.7340  -14.5769    5.4534 N   0  0  0  0  0  0  0  0  0  0  0  0
  1  7  2  0  0  0  0
  1  2  1  0  0  0  0
  2  3  1  0  0  0  0
  2  4  2  0  0  0  0
  4  5  1  0  0  0  0
  5  6  2  0  0  0  0
  5 11  1  0  0  0  0
  6  7  1  0  0  0  0
  6  9  1  0  0  0  0
  7  8  1  0  0  0  0
  9 10  1  0  0  0  0
 10 11  2  0  0  0  0
M  END
>  <CHROM.1>
-11.40758933,-13.35821037,7.27193295,2.01398830,-1.24573954,2.13297256

>  <Name>
ligand

>  <RI>
0

>  <Rbt.Current_Directory>
/home/itssahil/PROJECTS/Mol_Feturizer/New_Systems/rnas/2b57

>  <Rbt.Executable>
rbdock ($Id: //depot/dev/client3/rdock/2013.1/src/exe/rbdock.cxx#4 $)

>  <Rbt.Library>
libRbt.so (2013.1, Build901 2013/11/27)

>  <Rbt.Parameter_File>
/export/apps/rDock/src/rDock_2013.1_src/data/scripts/dock_solv.prm

>  <Rbt.Receptor>
prm/pocket_docking_3.prm

>  <SCORE>
-11.5789

>  <SCORE.INTER>
-11.5789

>  <SCORE.INTER.CONST>
1

>  <SCORE.INTER.POLAR>
0

>  <SCORE.INTER.ROT>
0

>  <SCORE.INTER.SOLV>
21.5349

>  <SCORE.INTER.VDW>
-18.4975

>  <SCORE.INTER.norm>
-1.05262

>  <SCORE.INTRA>
0

>  <SCORE.INTRA.DIHEDRAL>
0

>  <SCORE.INTRA.DIHEDRAL.0>
0

>  <SCORE.INTRA.POLAR>
0

>  <SCORE.INTRA.POLAR.0>
0

>  <SCORE.INTRA.REPUL>
0

>  <SCORE.INTRA.REPUL.0>
0

>  <SCORE.INTRA.SOLV>
0

>  <SCORE.INTRA.SOLV.lig_0>
-48.3454

>  <SCORE.INTRA.VDW>
0

>  <SCORE.INTRA.VDW.0>
0

>  <SCORE.INTRA.norm>
0

>  <SCORE.RESTR>
0

>  <SCORE.RESTR.CAVITY>
0

>  <SCORE.RESTR.norm>
0

>  <SCORE.SYSTEM>
0

>  <SCORE.SYSTEM.CONST>
0

>  <SCORE.SYSTEM.DIHEDRAL>
0

>  <SCORE.SYSTEM.SOLV>
0

>  <SCORE.SYSTEM.norm>
0

>  <SCORE.heavy>
11

>  <SCORE.norm>
-1.05262

>  <RMSD>
0.598

$$$$
ligand
 OpenBabel01301917033D
libRbt.so/2013.1/901 2013/11/27
 11 12  0  0  0  0  0  0  0  0999 V2000
  -11.8492  -12.7680    8.8679 N   0  0  0  0  0  0  0  0  0  0  0  0
  -11.4977  -14.0608    8.9567 C   0  0  0  0  0  0  0  0  0  0  0  0
  -11.5092  -14.6686   10.1397 N   0  0  0  0  0  0  0  0  0  0  0  0
  -11.1246  -14.7433    7.8630 N   0  0  0  0  0  0  0  0  0  0  0  0
  -11.0925  -14.1474    6.6619 C   0  0  0  0  0  0  0  0  0  0  0  0
  -11.4512  -12.8108    6.5421 C   0  0  0  0  0  0  0  0  0  0  0  0
  -11.8367  -12.1253    7.6894 C   0  0  0  0  0  0  0  0  0  0  0  0
  -12.1971  -10.8473    7.6188 N   0  0  0  0  0  0  0  0  0  0  0  0
  -11.3170  -12.4736    5.2629 N   0  0  0  0  0  0  0  0  0  0  0  0
  -10.8920  -13.5475    4.6010 C   0  0  0  0  0  0  0  0  0  0  0  0
  -10.7545  -14.5670    5.4460 N   0  0  0  0  0  0  0  0  0  0  0  0
  1  7  2  0  0  0  0
  1  2  1  0  0  0  0
  2  3  1  0  0  0  0
  2  4  2  0  0  0  0
  4  5  1  0  0  0  0
  5  6  2  0  0  0  0
  5 11  1  0  0  0  0
  6  7  1  0  0  0  0
  6  9  1  0  0  0  0
  7  8  1  0  0  0  0
  9 10  1  0  0  0  0
 10 11  2  0  0  0  0
M  END
>  <CHROM.1>
-11.41499885,-13.34201470,7.26513897,1.98824866,-1.24851621,2.10441037

>  <Name>
ligand

>  <RI>
0

>  <Rbt.Current_Directory>
/home/itssahil/PROJECTS/Mol_Feturizer/New_Systems/rnas/2b57

>  <Rbt.Executable>
rbdock ($Id: //depot/dev/client3/rdock/2013.1/src/exe/rbdock.cxx#4 $)

>  <Rbt.Library>
libRbt.so (2013.1, Build901 2013/11/27)

>  <Rbt.Parameter_File>
/export/apps/rDock/src/rDock_2013.1_src/data/scripts/dock_solv.prm

>  <Rbt.Receptor>
prm/pocket_docking_7.prm

>  <SCORE>
-11.534

>  <SCORE.INTER>
-11.534

>  <SCORE.INTER.CONST>
1

>  <SCORE.INTER.POLAR>
0

>  <SCORE.INTER.ROT>
0

>  <SCORE.INTER.SOLV>
21.4818

>  <SCORE.INTER.VDW>
-18.45

>  <SCORE.INTER.norm>
-1.04855

>  <SCORE.INTRA>
0

>  <SCORE.INTRA.DIHEDRAL>
0

>  <SCORE.INTRA.DIHEDRAL.0>
0

>  <SCORE.INTRA.POLAR>
0

>  <SCORE.INTRA.POLAR.0>
0

>  <SCORE.INTRA.REPUL>
0

>  <SCORE.INTRA.REPUL.0>
0

>  <SCORE.INTRA.SOLV>
0

>  <SCORE.INTRA.SOLV.lig_0>
-48.3454

>  <SCORE.INTRA.VDW>
0

>  <SCORE.INTRA.VDW.0>
0

>  <SCORE.INTRA.norm>
0

>  <SCORE.RESTR>
0

>  <SCORE.RESTR.CAVITY>
0

>  <SCORE.RESTR.norm>
0

>  <SCORE.SYSTEM>
0

>  <SCORE.SYSTEM.CONST>
0

>  <SCORE.SYSTEM.DIHEDRAL>
0

>  <SCORE.SYSTEM.SOLV>
0

>  <SCORE.SYSTEM.norm>
0

>  <SCORE.heavy>
11

>  <SCORE.norm>
-1.04855

>  <RMSD>
0.598

$$$$
ligand
 OpenBabel01301917033D
libRbt.so/2013.1/901 2013/11/27
 11 12  0  0  0  0  0  0  0  0999 V2000
  -11.8558  -12.7723    8.8649 N   0  0  0  0  0  0  0  0  0  0  0  0
  -11.5037  -14.0646    8.9588 C   0  0  0  0  0  0  0  0  0  0  0  0
  -11.5254  -14.6707   10.1425 N   0  0  0  0  0  0  0  0  0  0  0  0
  -11.1197  -14.7482    7.8696 N   0  0  0  0  0  0  0  0  0  0  0  0
  -11.0772  -14.1539    6.6680 C   0  0  0  0  0  0  0  0  0  0  0  0
  -11.4362  -12.8179    6.5430 C   0  0  0  0  0  0  0  0  0  0  0  0
  -11.8331  -12.1312    7.6857 C   0  0  0  0  0  0  0  0  0  0  0  0
  -12.1943  -10.8538    7.6099 N   0  0  0  0  0  0  0  0  0  0  0  0
  -11.2906  -12.4823    5.2646 N   0  0  0  0  0  0  0  0  0  0  0  0
  -10.8583  -13.5566    4.6082 C   0  0  0  0  0  0  0  0  0  0  0  0
  -10.7274  -14.5748    5.4559 N   0  0  0  0  0  0  0  0  0  0  0  0
  1  7  2  0  0  0  0
  1  2  1  0  0  0  0
  2  3  1  0  0  0  0
  2  4  2  0  0  0  0
  4  5  1  0  0  0  0
  5  6  2  0  0  0  0
  5 11  1  0  0  0  0
  6  7  1  0  0  0  0
  6  9  1  0  0  0  0
  7  8  1  0  0  0  0
  9 10  1  0  0  0  0
 10 11  2  0  0  0  0
M  END
>  <CHROM.1>
-11.40615204,-13.34805085,7.26706858,2.01120658,-1.24274095,2.12476282

>  <Name>
ligand

>  <RI>
0

>  <Rbt.Current_Directory>
/home/itssahil/PROJECTS/Mol_Feturizer/New_Systems/rnas/2b57

>  <Rbt.Executable>
rbdock ($Id: //depot/dev/client3/rdock/2013.1/src/exe/rbdock.cxx#4 $)

>  <Rbt.Library>
libRbt.so (2013.1, Build901 2013/11/27)

>  <Rbt.Parameter_File>
/export/apps/rDock/src/rDock_2013.1_src/data/scripts/dock_solv.prm

>  <Rbt.Receptor>
prm/pocket_docking_8.prm

>  <SCORE>
-11.5458

>  <SCORE.INTER>
-11.5458

>  <SCORE.INTER.CONST>
1

>  <SCORE.INTER.POLAR>
0

>  <SCORE.INTER.ROT>
0

>  <SCORE.INTER.SOLV>
21.4726

>  <SCORE.INTER.VDW>
-18.4548

>  <SCORE.INTER.norm>
-1.04962

>  <SCORE.INTRA>
0

>  <SCORE.INTRA.DIHEDRAL>
0

>  <SCORE.INTRA.DIHEDRAL.0>
0

>  <SCORE.INTRA.POLAR>
0

>  <SCORE.INTRA.POLAR.0>
0

>  <SCORE.INTRA.REPUL>
0

>  <SCORE.INTRA.REPUL.0>
0

>  <SCORE.INTRA.SOLV>
0

>  <SCORE.INTRA.SOLV.lig_0>
-48.3454

>  <SCORE.INTRA.VDW>
0

>  <SCORE.INTRA.VDW.0>
0

>  <SCORE.INTRA.norm>
0

>  <SCORE.RESTR>
0

>  <SCORE.RESTR.CAVITY>
0

>  <SCORE.RESTR.norm>
0

>  <SCORE.SYSTEM>
0

>  <SCORE.SYSTEM.CONST>
0

>  <SCORE.SYSTEM.DIHEDRAL>
0

>  <SCORE.SYSTEM.SOLV>
0

>  <SCORE.SYSTEM.norm>
0

>  <SCORE.heavy>
11

>  <SCORE.norm>
-1.04962

>  <RMSD>
0.598

$$$$
ligand
 OpenBabel01301917033D
libRbt.so/2013.1/901 2013/11/27
 11 12  0  0  0  0  0  0  0  0999 V2000
  -11.8923  -12.7149    8.8341 N   0  0  0  0  0  0  0  0  0  0  0  0
  -11.4937  -13.9918    8.9506 C   0  0  0  0  0  0  0  0  0  0  0  0
  -11.5009  -14.5796   10.1436 N   0  0  0  0  0  0  0  0  0  0  0  0
  -11.0779  -14.6779    7.8747 N   0  0  0  0  0  0  0  0  0  0  0  0
  -11.0495  -14.1014    6.6641 C   0  0  0  0  0  0  0  0  0  0  0  0
  -11.4564  -12.7815    6.5157 C   0  0  0  0  0  0  0  0  0  0  0  0
  -11.8855  -12.0920    7.6450 C   0  0  0  0  0  0  0  0  0  0  0  0
  -12.2928  -10.8300    7.5468 N   0  0  0  0  0  0  0  0  0  0  0  0
  -11.3150  -12.4609    5.2331 N   0  0  0  0  0  0  0  0  0  0  0  0
  -10.8394  -13.5288    4.5964 C   0  0  0  0  0  0  0  0  0  0  0  0
  -10.6768  -14.5281    5.4609 N   0  0  0  0  0  0  0  0  0  0  0  0
  1  7  2  0  0  0  0
  1  2  1  0  0  0  0
  2  3  1  0  0  0  0
  2  4  2  0  0  0  0
  4  5  1  0  0  0  0
  5  6  2  0  0  0  0
  5 11  1  0  0  0  0
  6  7  1  0  0  0  0
  6  9  1  0  0  0  0
  7  8  1  0  0  0  0
  9 10  1  0  0  0  0
 10 11  2  0  0  0  0
M  END
>  <CHROM.1>
-11.41161450,-13.29878768,7.24831537,1.97232129,-1.20795607,2.07235624

>  <Name>
ligand

>  <RI>
0

>  <Rbt.Current_Directory>
/home/itssahil/PROJECTS/Mol_Feturizer/New_Systems/rnas/2b57

>  <Rbt.Executable>
rbdock ($Id: //depot/dev/client3/rdock/2013.1/src/exe/rbdock.cxx#4 $)

>  <Rbt.Library>
libRbt.so (2013.1, Build901 2013/11/27)

>  <Rbt.Parameter_File>
/export/apps/rDock/src/rDock_2013.1_src/data/scripts/dock_solv.prm

>  <Rbt.Receptor>
prm/blind_docking_100.prm

>  <SCORE>
-11.428

>  <SCORE.INTER>
-11.428

>  <SCORE.INTER.CONST>
1

>  <SCORE.INTER.POLAR>
0

>  <SCORE.INTER.ROT>
0

>  <SCORE.INTER.SOLV>
21.1177

>  <SCORE.INTER.VDW>
-18.2579

>  <SCORE.INTER.norm>
-1.03891

>  <SCORE.INTRA>
0

>  <SCORE.INTRA.DIHEDRAL>
0

>  <SCORE.INTRA.DIHEDRAL.0>
0

>  <SCORE.INTRA.POLAR>
0

>  <SCORE.INTRA.POLAR.0>
0

>  <SCORE.INTRA.REPUL>
0

>  <SCORE.INTRA.REPUL.0>
0

>  <SCORE.INTRA.SOLV>
0

>  <SCORE.INTRA.SOLV.lig_0>
-48.3454

>  <SCORE.INTRA.VDW>
0

>  <SCORE.INTRA.VDW.0>
0

>  <SCORE.INTRA.norm>
0

>  <SCORE.RESTR>
0

>  <SCORE.RESTR.CAVITY>
0

>  <SCORE.RESTR.norm>
0

>  <SCORE.SYSTEM>
0

>  <SCORE.SYSTEM.CONST>
0

>  <SCORE.SYSTEM.DIHEDRAL>
0

>  <SCORE.SYSTEM.SOLV>
0

>  <SCORE.SYSTEM.norm>
0

>  <SCORE.heavy>
11

>  <SCORE.norm>
-1.03891

>  <RMSD>
0.599

$$$$
ligand
 OpenBabel01301917033D
libRbt.so/2013.1/901 2013/11/27
 11 12  0  0  0  0  0  0  0  0999 V2000
  -11.8270  -12.7585    8.8702 N   0  0  0  0  0  0  0  0  0  0  0  0
  -11.4822  -14.0526    8.9657 C   0  0  0  0  0  0  0  0  0  0  0  0
  -11.4960  -14.6539   10.1519 N   0  0  0  0  0  0  0  0  0  0  0  0
  -11.1135  -14.7430    7.8755 N   0  0  0  0  0  0  0  0  0  0  0  0
  -11.0793  -14.1537    6.6711 C   0  0  0  0  0  0  0  0  0  0  0  0
  -11.4310  -12.8159    6.5444 C   0  0  0  0  0  0  0  0  0  0  0  0
  -11.8120  -12.1222    7.6883 C   0  0  0  0  0  0  0  0  0  0  0  0
  -12.1657  -10.8427    7.6110 N   0  0  0  0  0  0  0  0  0  0  0  0
  -11.2960  -12.4862    5.2633 N   0  0  0  0  0  0  0  0  0  0  0  0
  -10.8772  -13.5659    4.6069 C   0  0  0  0  0  0  0  0  0  0  0  0
  -10.7443  -14.5816    5.4573 N   0  0  0  0  0  0  0  0  0  0  0  0
  1  7  2  0  0  0  0
  1  2  1  0  0  0  0
  2  3  1  0  0  0  0
  2  4  2  0  0  0  0
  4  5  1  0  0  0  0
  5  6  2  0  0  0  0
  5 11  1  0  0  0  0
  6  7  1  0  0  0  0
  6  9  1  0  0  0  0
  7  8  1  0  0  0  0
  9 10  1  0  0  0  0
 10 11  2  0  0  0  0
M  END
>  <CHROM.1>
-11.39704013,-13.34339315,7.27024399,1.99472720,-1.25342646,2.10517962

>  <Name>
ligand

>  <RI>
0

>  <Rbt.Current_Directory>
/home/itssahil/PROJECTS/Mol_Feturizer/New_Systems/rnas/2b57

>  <Rbt.Executable>
rbdock ($Id: //depot/dev/client3/rdock/2013.1/src/exe/rbdock.cxx#4 $)

>  <Rbt.Library>
libRbt.so (2013.1, Build901 2013/11/27)

>  <Rbt.Parameter_File>
/export/apps/rDock/src/rDock_2013.1_src/data/scripts/dock_solv.prm

>  <Rbt.Receptor>
prm/blind_docking_60.prm

>  <SCORE>
-11.5541

>  <SCORE.INTER>
-11.5541

>  <SCORE.INTER.CONST>
1

>  <SCORE.INTER.POLAR>
0

>  <SCORE.INTER.ROT>
0

>  <SCORE.INTER.SOLV>
21.5677

>  <SCORE.INTER.VDW>
-18.492

>  <SCORE.INTER.norm>
-1.05037

>  <SCORE.INTRA>
0

>  <SCORE.INTRA.DIHEDRAL>
0

>  <SCORE.INTRA.DIHEDRAL.0>
0

>  <SCORE.INTRA.POLAR>
0

>  <SCORE.INTRA.POLAR.0>
0

>  <SCORE.INTRA.REPUL>
0

>  <SCORE.INTRA.REPUL.0>
0

>  <SCORE.INTRA.SOLV>
0

>  <SCORE.INTRA.SOLV.lig_0>
-48.3454

>  <SCORE.INTRA.VDW>
0

>  <SCORE.INTRA.VDW.0>
0

>  <SCORE.INTRA.norm>
0

>  <SCORE.RESTR>
0

>  <SCORE.RESTR.CAVITY>
0

>  <SCORE.RESTR.norm>
0

>  <SCORE.SYSTEM>
0

>  <SCORE.SYSTEM.CONST>
0

>  <SCORE.SYSTEM.DIHEDRAL>
0

>  <SCORE.SYSTEM.SOLV>
0

>  <SCORE.SYSTEM.norm>
0

>  <SCORE.heavy>
11

>  <SCORE.norm>
-1.05037

>  <RMSD>
0.599

$$$$
ligand
 OpenBabel01301917033D
libRbt.so/2013.1/901 2013/11/27
 11 12  0  0  0  0  0  0  0  0999 V2000
  -11.8596  -12.7729    8.8631 N   0  0  0  0  0  0  0  0  0  0  0  0
  -11.4804  -14.0573    8.9589 C   0  0  0  0  0  0  0  0  0  0  0  0
  -11.4826  -14.6599   10.1446 N   0  0  0  0  0  0  0  0  0  0  0  0
  -11.0888  -14.7365    7.8696 N   0  0  0  0  0  0  0  0  0  0  0  0
  -11.0657  -14.1454    6.6659 C   0  0  0  0  0  0  0  0  0  0  0  0
  -11.4530  -12.8174    6.5389 C   0  0  0  0  0  0  0  0  0  0  0  0
  -11.8571  -12.1353    7.6818 C   0  0  0  0  0  0  0  0  0  0  0  0
  -12.2450  -10.8658    7.6042 N   0  0  0  0  0  0  0  0  0  0  0  0
  -11.3219  -12.4830    5.2586 N   0  0  0  0  0  0  0  0  0  0  0  0
  -10.8714  -13.5504    4.6030 C   0  0  0  0  0  0  0  0  0  0  0  0
  -10.7146  -14.5629    5.4530 N   0  0  0  0  0  0  0  0  0  0  0  0
  1  7  2  0  0  0  0
  1  2  1  0  0  0  0
  2  3  1  0  0  0  0
  2  4  2  0  0  0  0
  4  5  1  0  0  0  0
  5  6  2  0  0  0  0
  5 11  1  0  0  0  0
  6  7  1  0  0  0  0
  6  9  1  0  0  0  0
  7  8  1  0  0  0  0
  9 10  1  0  0  0  0
 10 11  2  0  0  0  0
M  END
>  <CHROM.1>
-11.40767009,-13.34448210,7.26441153,1.96393573,-1.22799746,2.07693258

>  <Name>
ligand

>  <RI>
0

>  <Rbt.Current_Directory>
/home/itssahil/PROJECTS/Mol_Feturizer/New_Systems/rnas/2b57

>  <Rbt.Executable>
rbdock ($Id: //depot/dev/client3/rdock/2013.1/src/exe/rbdock.cxx#4 $)

>  <Rbt.Library>
libRbt.so (2013.1, Build901 2013/11/27)

>  <Rbt.Parameter_File>
/export/apps/rDock/src/rDock_2013.1_src/data/scripts/dock_solv.prm

>  <Rbt.Receptor>
prm/blind_docking_80.prm

>  <SCORE>
-11.4887

>  <SCORE.INTER>
-11.4887

>  <SCORE.INTER.CONST>
1

>  <SCORE.INTER.POLAR>
0

>  <SCORE.INTER.ROT>
0

>  <SCORE.INTER.SOLV>
21.2956

>  <SCORE.INTER.VDW>
-18.3577

>  <SCORE.INTER.norm>
-1.04442

>  <SCORE.INTRA>
0

>  <SCORE.INTRA.DIHEDRAL>
0

>  <SCORE.INTRA.DIHEDRAL.0>
0

>  <SCORE.INTRA.POLAR>
0

>  <SCORE.INTRA.POLAR.0>
0

>  <SCORE.INTRA.REPUL>
0

>  <SCORE.INTRA.REPUL.0>
0

>  <SCORE.INTRA.SOLV>
0

>  <SCORE.INTRA.SOLV.lig_0>
-48.3454

>  <SCORE.INTRA.VDW>
0

>  <SCORE.INTRA.VDW.0>
0

>  <SCORE.INTRA.norm>
0

>  <SCORE.RESTR>
0

>  <SCORE.RESTR.CAVITY>
0

>  <SCORE.RESTR.norm>
0

>  <SCORE.SYSTEM>
0

>  <SCORE.SYSTEM.CONST>
0

>  <SCORE.SYSTEM.DIHEDRAL>
0

>  <SCORE.SYSTEM.SOLV>
0

>  <SCORE.SYSTEM.norm>
0

>  <SCORE.heavy>
11

>  <SCORE.norm>
-1.04442

>  <RMSD>
0.599

$$$$
ligand
 OpenBabel01301917033D
libRbt.so/2013.1/901 2013/11/27
 11 12  0  0  0  0  0  0  0  0999 V2000
  -11.8332  -12.7605    8.8705 N   0  0  0  0  0  0  0  0  0  0  0  0
  -11.4869  -14.0545    8.9621 C   0  0  0  0  0  0  0  0  0  0  0  0
  -11.4959  -14.6584   10.1471 N   0  0  0  0  0  0  0  0  0  0  0  0
  -11.1214  -14.7423    7.8691 N   0  0  0  0  0  0  0  0  0  0  0  0
  -11.0920  -14.1504    6.6659 C   0  0  0  0  0  0  0  0  0  0  0  0
  -11.4454  -12.8126    6.5432 C   0  0  0  0  0  0  0  0  0  0  0  0
  -11.8230  -12.1218    7.6899 C   0  0  0  0  0  0  0  0  0  0  0  0
  -12.1782  -10.8425    7.6166 N   0  0  0  0  0  0  0  0  0  0  0  0
  -11.3153  -12.4802    5.2624 N   0  0  0  0  0  0  0  0  0  0  0  0
  -10.8978  -13.5581    4.6022 C   0  0  0  0  0  0  0  0  0  0  0  0
  -10.7610  -14.5755    5.4500 N   0  0  0  0  0  0  0  0  0  0  0  0
  1  7  2  0  0  0  0
  1  2  1  0  0  0  0
  2  3  1  0  0  0  0
  2  4  2  0  0  0  0
  4  5  1  0  0  0  0
  5  6  2  0  0  0  0
  5 11  1  0  0  0  0
  6  7  1  0  0  0  0
  6  9  1  0  0  0  0
  7  8  1  0  0  0  0
  9 10  1  0  0  0  0
 10 11  2  0  0  0  0
M  END
>  <CHROM.1>
-11.40840124,-13.34167072,7.26785809,1.98341360,-1.25440304,2.09653458

>  <Name>
ligand

>  <RI>
0

>  <Rbt.Current_Directory>
/home/itssahil/PROJECTS/Mol_Feturizer/New_Systems/rnas/2b57

>  <Rbt.Executable>
rbdock ($Id: //depot/dev/client3/rdock/2013.1/src/exe/rbdock.cxx#4 $)

>  <Rbt.Library>
libRbt.so (2013.1, Build901 2013/11/27)

>  <Rbt.Parameter_File>
/export/apps/rDock/src/rDock_2013.1_src/data/scripts/dock_solv.prm

>  <Rbt.Receptor>
prm/blind_docking_80.prm

>  <SCORE>
-11.5134

>  <SCORE.INTER>
-11.5134

>  <SCORE.INTER.CONST>
1

>  <SCORE.INTER.POLAR>
0

>  <SCORE.INTER.ROT>
0

>  <SCORE.INTER.SOLV>
21.5415

>  <SCORE.INTER.VDW>
-18.4561

>  <SCORE.INTER.norm>
-1.04667

>  <SCORE.INTRA>
0

>  <SCORE.INTRA.DIHEDRAL>
0

>  <SCORE.INTRA.DIHEDRAL.0>
0

>  <SCORE.INTRA.POLAR>
0

>  <SCORE.INTRA.POLAR.0>
0

>  <SCORE.INTRA.REPUL>
0

>  <SCORE.INTRA.REPUL.0>
0

>  <SCORE.INTRA.SOLV>
0

>  <SCORE.INTRA.SOLV.lig_0>
-48.3454

>  <SCORE.INTRA.VDW>
0

>  <SCORE.INTRA.VDW.0>
0

>  <SCORE.INTRA.norm>
0

>  <SCORE.RESTR>
0

>  <SCORE.RESTR.CAVITY>
0

>  <SCORE.RESTR.norm>
0

>  <SCORE.SYSTEM>
0

>  <SCORE.SYSTEM.CONST>
0

>  <SCORE.SYSTEM.DIHEDRAL>
0

>  <SCORE.SYSTEM.SOLV>
0

>  <SCORE.SYSTEM.norm>
0

>  <SCORE.heavy>
11

>  <SCORE.norm>
-1.04667

>  <RMSD>
0.599

$$$$
ligand
 OpenBabel01301917033D
libRbt.so/2013.1/901 2013/11/27
 11 12  0  0  0  0  0  0  0  0999 V2000
  -11.8463  -12.7667    8.8661 N   0  0  0  0  0  0  0  0  0  0  0  0
  -11.4957  -14.0593    8.9603 C   0  0  0  0  0  0  0  0  0  0  0  0
  -11.5148  -14.6642   10.1447 N   0  0  0  0  0  0  0  0  0  0  0  0
  -11.1158  -14.7447    7.8708 N   0  0  0  0  0  0  0  0  0  0  0  0
  -11.0760  -14.1518    6.6684 C   0  0  0  0  0  0  0  0  0  0  0  0
  -11.4336  -12.8153    6.5430 C   0  0  0  0  0  0  0  0  0  0  0  0
  -11.8262  -12.1269    7.6861 C   0  0  0  0  0  0  0  0  0  0  0  0
  -12.1858  -10.8490    7.6101 N   0  0  0  0  0  0  0  0  0  0  0  0
  -11.2913  -12.4813    5.2639 N   0  0  0  0  0  0  0  0  0  0  0  0
  -10.8624  -13.5570    4.6073 C   0  0  0  0  0  0  0  0  0  0  0  0
  -10.7304  -14.5745    5.4557 N   0  0  0  0  0  0  0  0  0  0  0  0
  1  7  2  0  0  0  0
  1  2  1  0  0  0  0
  2  3  1  0  0  0  0
  2  4  2  0  0  0  0
  4  5  1  0  0  0  0
  5  6  2  0  0  0  0
  5 11  1  0  0  0  0
  6  7  1  0  0  0  0
  6  9  1  0  0  0  0
  7  8  1  0  0  0  0
  9 10  1  0  0  0  0
 10 11  2  0  0  0  0
M  END
>  <CHROM.1>
-11.40211340,-13.34479237,7.26756536,2.00566391,-1.24546452,2.11843393

>  <Name>
ligand

>  <RI>
0

>  <Rbt.Current_Directory>
/home/itssahil/PROJECTS/Mol_Feturizer/New_Systems/rnas/2b57

>  <Rbt.Executable>
rbdock ($Id: //depot/dev/client3/rdock/2013.1/src/exe/rbdock.cxx#4 $)

>  <Rbt.Library>
libRbt.so (2013.1, Build901 2013/11/27)

>  <Rbt.Parameter_File>
/export/apps/rDock/src/rDock_2013.1_src/data/scripts/dock_solv.prm

>  <Rbt.Receptor>
prm/pocket_docking_4.prm

>  <SCORE>
-11.5793

>  <SCORE.INTER>
-11.5793

>  <SCORE.INTER.CONST>
1

>  <SCORE.INTER.POLAR>
0

>  <SCORE.INTER.ROT>
0

>  <SCORE.INTER.SOLV>
21.497

>  <SCORE.INTER.VDW>
-18.4852

>  <SCORE.INTER.norm>
-1.05266

>  <SCORE.INTRA>
0

>  <SCORE.INTRA.DIHEDRAL>
0

>  <SCORE.INTRA.DIHEDRAL.0>
0

>  <SCORE.INTRA.POLAR>
0

>  <SCORE.INTRA.POLAR.0>
0

>  <SCORE.INTRA.REPUL>
0

>  <SCORE.INTRA.REPUL.0>
0

>  <SCORE.INTRA.SOLV>
0

>  <SCORE.INTRA.SOLV.lig_0>
-48.3454

>  <SCORE.INTRA.VDW>
0

>  <SCORE.INTRA.VDW.0>
0

>  <SCORE.INTRA.norm>
0

>  <SCORE.RESTR>
0

>  <SCORE.RESTR.CAVITY>
0

>  <SCORE.RESTR.norm>
0

>  <SCORE.SYSTEM>
0

>  <SCORE.SYSTEM.CONST>
0

>  <SCORE.SYSTEM.DIHEDRAL>
0

>  <SCORE.SYSTEM.SOLV>
0

>  <SCORE.SYSTEM.norm>
0

>  <SCORE.heavy>
11

>  <SCORE.norm>
-1.05266

>  <RMSD>
0.599

$$$$
ligand
 OpenBabel01301917033D
libRbt.so/2013.1/901 2013/11/27
 11 12  0  0  0  0  0  0  0  0999 V2000
  -11.8465  -12.7669    8.8658 N   0  0  0  0  0  0  0  0  0  0  0  0
  -11.5001  -14.0605    8.9629 C   0  0  0  0  0  0  0  0  0  0  0  0
  -11.5216  -14.6628   10.1485 N   0  0  0  0  0  0  0  0  0  0  0  0
  -11.1219  -14.7493    7.8749 N   0  0  0  0  0  0  0  0  0  0  0  0
  -11.0797  -14.1589    6.6713 C   0  0  0  0  0  0  0  0  0  0  0  0
  -11.4329  -12.8216    6.5431 C   0  0  0  0  0  0  0  0  0  0  0  0
  -11.8239  -12.1296    7.6846 C   0  0  0  0  0  0  0  0  0  0  0  0
  -12.1794  -10.8508    7.6057 N   0  0  0  0  0  0  0  0  0  0  0  0
  -11.2890  -12.4907    5.2633 N   0  0  0  0  0  0  0  0  0  0  0  0
  -10.8632  -13.5691    4.6092 C   0  0  0  0  0  0  0  0  0  0  0  0
  -10.7348  -14.5852    5.4597 N   0  0  0  0  0  0  0  0  0  0  0  0
  1  7  2  0  0  0  0
  1  2  1  0  0  0  0
  2  3  1  0  0  0  0
  2  4  2  0  0  0  0
  4  5  1  0  0  0  0
  5  6  2  0  0  0  0
  5 11  1  0  0  0  0
  6  7  1  0  0  0  0
  6  9  1  0  0  0  0
  7  8  1  0  0  0  0
  9 10  1  0  0  0  0
 10 11  2  0  0  0  0
M  END
>  <CHROM.1>
-11.40348174,-13.34969486,7.26872503,2.01206648,-1.24792513,2.12244643

>  <Name>
ligand

>  <RI>
0

>  <Rbt.Current_Directory>
/home/itssahil/PROJECTS/Mol_Feturizer/New_Systems/rnas/2b57

>  <Rbt.Executable>
rbdock ($Id: //depot/dev/client3/rdock/2013.1/src/exe/rbdock.cxx#4 $)

>  <Rbt.Library>
libRbt.so (2013.1, Build901 2013/11/27)

>  <Rbt.Parameter_File>
/export/apps/rDock/src/rDock_2013.1_src/data/scripts/dock_solv.prm

>  <Rbt.Receptor>
prm/pocket_docking_5.prm

>  <SCORE>
-11.5735

>  <SCORE.INTER>
-11.5735

>  <SCORE.INTER.CONST>
1

>  <SCORE.INTER.POLAR>
0

>  <SCORE.INTER.ROT>
0

>  <SCORE.INTER.SOLV>
21.5122

>  <SCORE.INTER.VDW>
-18.4864

>  <SCORE.INTER.norm>
-1.05214

>  <SCORE.INTRA>
0

>  <SCORE.INTRA.DIHEDRAL>
0

>  <SCORE.INTRA.DIHEDRAL.0>
0

>  <SCORE.INTRA.POLAR>
0

>  <SCORE.INTRA.POLAR.0>
0

>  <SCORE.INTRA.REPUL>
0

>  <SCORE.INTRA.REPUL.0>
0

>  <SCORE.INTRA.SOLV>
0

>  <SCORE.INTRA.SOLV.lig_0>
-48.3454

>  <SCORE.INTRA.VDW>
0

>  <SCORE.INTRA.VDW.0>
0

>  <SCORE.INTRA.norm>
0

>  <SCORE.RESTR>
0

>  <SCORE.RESTR.CAVITY>
0

>  <SCORE.RESTR.norm>
0

>  <SCORE.SYSTEM>
0

>  <SCORE.SYSTEM.CONST>
0

>  <SCORE.SYSTEM.DIHEDRAL>
0

>  <SCORE.SYSTEM.SOLV>
0

>  <SCORE.SYSTEM.norm>
0

>  <SCORE.heavy>
11

>  <SCORE.norm>
-1.05214

>  <RMSD>
0.599

$$$$
ligand
 OpenBabel01301917033D
libRbt.so/2013.1/901 2013/11/27
 11 12  0  0  0  0  0  0  0  0999 V2000
  -11.8745  -12.7801    8.8597 N   0  0  0  0  0  0  0  0  0  0  0  0
  -11.4919  -14.0640    8.9485 C   0  0  0  0  0  0  0  0  0  0  0  0
  -11.5036  -14.6765   10.1291 N   0  0  0  0  0  0  0  0  0  0  0  0
  -11.0874  -14.7327    7.8575 N   0  0  0  0  0  0  0  0  0  0  0  0
  -11.0545  -14.1315    6.6590 C   0  0  0  0  0  0  0  0  0  0  0  0
  -11.4451  -12.8038    6.5393 C   0  0  0  0  0  0  0  0  0  0  0  0
  -11.8627  -12.1327    7.6838 C   0  0  0  0  0  0  0  0  0  0  0  0
  -12.2542  -10.8639    7.6130 N   0  0  0  0  0  0  0  0  0  0  0  0
  -11.3027  -12.4583    5.2632 N   0  0  0  0  0  0  0  0  0  0  0  0
  -10.8422  -13.5186    4.6032 C   0  0  0  0  0  0  0  0  0  0  0  0
  -10.6901  -14.5377    5.4462 N   0  0  0  0  0  0  0  0  0  0  0  0
  1  7  2  0  0  0  0
  1  2  1  0  0  0  0
  2  3  1  0  0  0  0
  2  4  2  0  0  0  0
  4  5  1  0  0  0  0
  5  6  2  0  0  0  0
  5 11  1  0  0  0  0
  6  7  1  0  0  0  0
  6  9  1  0  0  0  0
  7  8  1  0  0  0  0
  9 10  1  0  0  0  0
 10 11  2  0  0  0  0
M  END
>  <CHROM.1>
-11.40506370,-13.33677315,7.26082856,1.98391514,-1.22019103,2.10406260

>  <Name>
ligand

>  <RI>
0

>  <Rbt.Current_Directory>
/home/itssahil/PROJECTS/Mol_Feturizer/New_Systems/rnas/2b57

>  <Rbt.Executable>
rbdock ($Id: //depot/dev/client3/rdock/2013.1/src/exe/rbdock.cxx#4 $)

>  <Rbt.Library>
libRbt.so (2013.1, Build901 2013/11/27)

>  <Rbt.Parameter_File>
/export/apps/rDock/src/rDock_2013.1_src/data/scripts/dock_solv.prm

>  <Rbt.Receptor>
prm/pocket_docking_6.prm

>  <SCORE>
-11.4846

>  <SCORE.INTER>
-11.4846

>  <SCORE.INTER.CONST>
1

>  <SCORE.INTER.POLAR>
0

>  <SCORE.INTER.ROT>
0

>  <SCORE.INTER.SOLV>
21.2747

>  <SCORE.INTER.VDW>
-18.348

>  <SCORE.INTER.norm>
-1.04406

>  <SCORE.INTRA>
0

>  <SCORE.INTRA.DIHEDRAL>
0

>  <SCORE.INTRA.DIHEDRAL.0>
0

>  <SCORE.INTRA.POLAR>
0

>  <SCORE.INTRA.POLAR.0>
0

>  <SCORE.INTRA.REPUL>
0

>  <SCORE.INTRA.REPUL.0>
0

>  <SCORE.INTRA.SOLV>
0

>  <SCORE.INTRA.SOLV.lig_0>
-48.3454

>  <SCORE.INTRA.VDW>
0

>  <SCORE.INTRA.VDW.0>
0

>  <SCORE.INTRA.norm>
0

>  <SCORE.RESTR>
0

>  <SCORE.RESTR.CAVITY>
0

>  <SCORE.RESTR.norm>
0

>  <SCORE.SYSTEM>
0

>  <SCORE.SYSTEM.CONST>
0

>  <SCORE.SYSTEM.DIHEDRAL>
0

>  <SCORE.SYSTEM.SOLV>
0

>  <SCORE.SYSTEM.norm>
0

>  <SCORE.heavy>
11

>  <SCORE.norm>
-1.04406

>  <RMSD>
0.599

$$$$
ligand
 OpenBabel01301917033D
libRbt.so/2013.1/901 2013/11/27
 11 12  0  0  0  0  0  0  0  0999 V2000
  -11.8535  -12.7579    8.8637 N   0  0  0  0  0  0  0  0  0  0  0  0
  -11.5095  -14.0526    8.9530 C   0  0  0  0  0  0  0  0  0  0  0  0
  -11.5273  -14.6606   10.1358 N   0  0  0  0  0  0  0  0  0  0  0  0
  -11.1375  -14.7369    7.8601 N   0  0  0  0  0  0  0  0  0  0  0  0
  -11.0991  -14.1409    6.6592 C   0  0  0  0  0  0  0  0  0  0  0  0
  -11.4500  -12.8022    6.5390 C   0  0  0  0  0  0  0  0  0  0  0  0
  -11.8345  -12.1149    7.6855 C   0  0  0  0  0  0  0  0  0  0  0  0
  -12.1876  -10.8349    7.6144 N   0  0  0  0  0  0  0  0  0  0  0  0
  -11.3108  -12.4654    5.2602 N   0  0  0  0  0  0  0  0  0  0  0  0
  -10.8902  -13.5415    4.5991 C   0  0  0  0  0  0  0  0  0  0  0  0
  -10.7604  -14.5620    5.4441 N   0  0  0  0  0  0  0  0  0  0  0  0
  1  7  2  0  0  0  0
  1  2  1  0  0  0  0
  2  3  1  0  0  0  0
  2  4  2  0  0  0  0
  4  5  1  0  0  0  0
  5  6  2  0  0  0  0
  5 11  1  0  0  0  0
  6  7  1  0  0  0  0
  6  9  1  0  0  0  0
  7  8  1  0  0  0  0
  9 10  1  0  0  0  0
 10 11  2  0  0  0  0
M  END
>  <CHROM.1>
-11.41857672,-13.33384353,7.26193047,2.00411618,-1.25202496,2.11975316

>  <Name>
ligand

>  <RI>
0

>  <Rbt.Current_Directory>
/home/itssahil/PROJECTS/Mol_Feturizer/New_Systems/rnas/2b57

>  <Rbt.Executable>
rbdock ($Id: //depot/dev/client3/rdock/2013.1/src/exe/rbdock.cxx#4 $)

>  <Rbt.Library>
libRbt.so (2013.1, Build901 2013/11/27)

>  <Rbt.Parameter_File>
/export/apps/rDock/src/rDock_2013.1_src/data/scripts/dock_solv.prm

>  <Rbt.Receptor>
prm/pocket_docking_7.prm

>  <SCORE>
-11.5328

>  <SCORE.INTER>
-11.5328

>  <SCORE.INTER.CONST>
1

>  <SCORE.INTER.POLAR>
0

>  <SCORE.INTER.ROT>
0

>  <SCORE.INTER.SOLV>
21.5148

>  <SCORE.INTER.VDW>
-18.4601

>  <SCORE.INTER.norm>
-1.04843

>  <SCORE.INTRA>
0

>  <SCORE.INTRA.DIHEDRAL>
0

>  <SCORE.INTRA.DIHEDRAL.0>
0

>  <SCORE.INTRA.POLAR>
0

>  <SCORE.INTRA.POLAR.0>
0

>  <SCORE.INTRA.REPUL>
0

>  <SCORE.INTRA.REPUL.0>
0

>  <SCORE.INTRA.SOLV>
0

>  <SCORE.INTRA.SOLV.lig_0>
-48.3454

>  <SCORE.INTRA.VDW>
0

>  <SCORE.INTRA.VDW.0>
0

>  <SCORE.INTRA.norm>
0

>  <SCORE.RESTR>
0

>  <SCORE.RESTR.CAVITY>
0

>  <SCORE.RESTR.norm>
0

>  <SCORE.SYSTEM>
0

>  <SCORE.SYSTEM.CONST>
0

>  <SCORE.SYSTEM.DIHEDRAL>
0

>  <SCORE.SYSTEM.SOLV>
0

>  <SCORE.SYSTEM.norm>
0

>  <SCORE.heavy>
11

>  <SCORE.norm>
-1.04843

>  <RMSD>
0.599

$$$$
ligand
 OpenBabel01301917033D
libRbt.so/2013.1/901 2013/11/27
 11 12  0  0  0  0  0  0  0  0999 V2000
  -11.8578  -12.7721    8.8665 N   0  0  0  0  0  0  0  0  0  0  0  0
  -11.5095  -14.0660    8.9517 C   0  0  0  0  0  0  0  0  0  0  0  0
  -11.5254  -14.6779   10.1326 N   0  0  0  0  0  0  0  0  0  0  0  0
  -11.1350  -14.7456    7.8567 N   0  0  0  0  0  0  0  0  0  0  0  0
  -11.0984  -14.1456    6.6578 C   0  0  0  0  0  0  0  0  0  0  0  0
  -11.4537  -12.8077    6.5417 C   0  0  0  0  0  0  0  0  0  0  0  0
  -11.8407  -12.1254    7.6903 C   0  0  0  0  0  0  0  0  0  0  0  0
  -12.1981  -10.8463    7.6232 N   0  0  0  0  0  0  0  0  0  0  0  0
  -11.3154  -12.4663    5.2641 N   0  0  0  0  0  0  0  0  0  0  0  0
  -10.8911  -13.5389    4.5996 C   0  0  0  0  0  0  0  0  0  0  0  0
  -10.7580  -14.5617    5.4414 N   0  0  0  0  0  0  0  0  0  0  0  0
  1  7  2  0  0  0  0
  1  2  1  0  0  0  0
  2  3  1  0  0  0  0
  2  4  2  0  0  0  0
  4  5  1  0  0  0  0
  5  6  2  0  0  0  0
  5 11  1  0  0  0  0
  6  7  1  0  0  0  0
  6  9  1  0  0  0  0
  7  8  1  0  0  0  0
  9 10  1  0  0  0  0
 10 11  2  0  0  0  0
M  END
>  <CHROM.1>
-11.42065434,-13.34154190,7.26296439,1.99910026,-1.24908005,2.11818566

>  <Name>
ligand

>  <RI>
0

>  <Rbt.Current_Directory>
/home/itssahil/PROJECTS/Mol_Feturizer/New_Systems/rnas/2b57

>  <Rbt.Executable>
rbdock ($Id: //depot/dev/client3/rdock/2013.1/src/exe/rbdock.cxx#4 $)

>  <Rbt.Library>
libRbt.so (2013.1, Build901 2013/11/27)

>  <Rbt.Parameter_File>
/export/apps/rDock/src/rDock_2013.1_src/data/scripts/dock_solv.prm

>  <Rbt.Receptor>
prm/pocket_docking_7.prm

>  <SCORE>
-11.5445

>  <SCORE.INTER>
-11.5445

>  <SCORE.INTER.CONST>
1

>  <SCORE.INTER.POLAR>
0

>  <SCORE.INTER.ROT>
0

>  <SCORE.INTER.SOLV>
21.4967

>  <SCORE.INTER.VDW>
-18.4619

>  <SCORE.INTER.norm>
-1.0495

>  <SCORE.INTRA>
0

>  <SCORE.INTRA.DIHEDRAL>
0

>  <SCORE.INTRA.DIHEDRAL.0>
0

>  <SCORE.INTRA.POLAR>
0

>  <SCORE.INTRA.POLAR.0>
0

>  <SCORE.INTRA.REPUL>
0

>  <SCORE.INTRA.REPUL.0>
0

>  <SCORE.INTRA.SOLV>
0

>  <SCORE.INTRA.SOLV.lig_0>
-48.3454

>  <SCORE.INTRA.VDW>
0

>  <SCORE.INTRA.VDW.0>
0

>  <SCORE.INTRA.norm>
0

>  <SCORE.RESTR>
0

>  <SCORE.RESTR.CAVITY>
0

>  <SCORE.RESTR.norm>
0

>  <SCORE.SYSTEM>
0

>  <SCORE.SYSTEM.CONST>
0

>  <SCORE.SYSTEM.DIHEDRAL>
0

>  <SCORE.SYSTEM.SOLV>
0

>  <SCORE.SYSTEM.norm>
0

>  <SCORE.heavy>
11

>  <SCORE.norm>
-1.0495

>  <RMSD>
0.599

$$$$
ligand
 OpenBabel01301917033D
libRbt.so/2013.1/901 2013/11/27
 11 12  0  0  0  0  0  0  0  0999 V2000
  -11.8586  -12.7450    8.8541 N   0  0  0  0  0  0  0  0  0  0  0  0
  -11.4660  -14.0252    8.9526 C   0  0  0  0  0  0  0  0  0  0  0  0
  -11.4628  -14.6256   10.1394 N   0  0  0  0  0  0  0  0  0  0  0  0
  -11.0664  -14.7021    7.8649 N   0  0  0  0  0  0  0  0  0  0  0  0
  -11.0486  -14.1130    6.6601 C   0  0  0  0  0  0  0  0  0  0  0  0
  -11.4496  -12.7894    6.5303 C   0  0  0  0  0  0  0  0  0  0  0  0
  -11.8618  -12.1096    7.6717 C   0  0  0  0  0  0  0  0  0  0  0  0
  -12.2630  -10.8444    7.5914 N   0  0  0  0  0  0  0  0  0  0  0  0
  -11.3211  -12.4561    5.2496 N   0  0  0  0  0  0  0  0  0  0  0  0
  -10.8589  -13.5198    4.5962 C   0  0  0  0  0  0  0  0  0  0  0  0
  -10.6921  -14.5291    5.4483 N   0  0  0  0  0  0  0  0  0  0  0  0
  1  7  2  0  0  0  0
  1  2  1  0  0  0  0
  2  3  1  0  0  0  0
  2  4  2  0  0  0  0
  4  5  1  0  0  0  0
  5  6  2  0  0  0  0
  5 11  1  0  0  0  0
  6  7  1  0  0  0  0
  6  9  1  0  0  0  0
  7  8  1  0  0  0  0
  9 10  1  0  0  0  0
 10 11  2  0  0  0  0
M  END
>  <CHROM.1>
-11.39938638,-13.31468321,7.25686504,1.95119317,-1.21838805,2.06311274

>  <Name>
ligand

>  <RI>
0

>  <Rbt.Current_Directory>
/home/itssahil/PROJECTS/Mol_Feturizer/New_Systems/rnas/2b57

>  <Rbt.Executable>
rbdock ($Id: //depot/dev/client3/rdock/2013.1/src/exe/rbdock.cxx#4 $)

>  <Rbt.Library>
libRbt.so (2013.1, Build901 2013/11/27)

>  <Rbt.Parameter_File>
/export/apps/rDock/src/rDock_2013.1_src/data/scripts/dock_solv.prm

>  <Rbt.Receptor>
prm/pocket_docking_8.prm

>  <SCORE>
-11.436

>  <SCORE.INTER>
-11.436

>  <SCORE.INTER.CONST>
1

>  <SCORE.INTER.POLAR>
0

>  <SCORE.INTER.ROT>
0

>  <SCORE.INTER.SOLV>
21.2073

>  <SCORE.INTER.VDW>
-18.2931

>  <SCORE.INTER.norm>
-1.03964

>  <SCORE.INTRA>
0

>  <SCORE.INTRA.DIHEDRAL>
0

>  <SCORE.INTRA.DIHEDRAL.0>
0

>  <SCORE.INTRA.POLAR>
0

>  <SCORE.INTRA.POLAR.0>
0

>  <SCORE.INTRA.REPUL>
0

>  <SCORE.INTRA.REPUL.0>
0

>  <SCORE.INTRA.SOLV>
0

>  <SCORE.INTRA.SOLV.lig_0>
-48.3454

>  <SCORE.INTRA.VDW>
0

>  <SCORE.INTRA.VDW.0>
0

>  <SCORE.INTRA.norm>
0

>  <SCORE.RESTR>
0

>  <SCORE.RESTR.CAVITY>
0

>  <SCORE.RESTR.norm>
0

>  <SCORE.SYSTEM>
0

>  <SCORE.SYSTEM.CONST>
0

>  <SCORE.SYSTEM.DIHEDRAL>
0

>  <SCORE.SYSTEM.SOLV>
0

>  <SCORE.SYSTEM.norm>
0

>  <SCORE.heavy>
11

>  <SCORE.norm>
-1.03964

>  <RMSD>
0.599

$$$$
ligand
 OpenBabel01301917033D
libRbt.so/2013.1/901 2013/11/27
 11 12  0  0  0  0  0  0  0  0999 V2000
  -11.8565  -12.6666    8.8323 N   0  0  0  0  0  0  0  0  0  0  0  0
  -11.4880  -13.9514    8.9594 C   0  0  0  0  0  0  0  0  0  0  0  0
  -11.4957  -14.5251   10.1593 N   0  0  0  0  0  0  0  0  0  0  0  0
  -11.1015  -14.6600    7.8872 N   0  0  0  0  0  0  0  0  0  0  0  0
  -11.0729  -14.0984    6.6695 C   0  0  0  0  0  0  0  0  0  0  0  0
  -11.4491  -12.7707    6.5101 C   0  0  0  0  0  0  0  0  0  0  0  0
  -11.8482  -12.0579    7.6359 C   0  0  0  0  0  0  0  0  0  0  0  0
  -12.2255  -10.7875    7.5274 N   0  0  0  0  0  0  0  0  0  0  0  0
  -11.3147  -12.4685    5.2222 N   0  0  0  0  0  0  0  0  0  0  0  0
  -10.8727  -13.5551    4.5929 C   0  0  0  0  0  0  0  0  0  0  0  0
  -10.7246  -14.5481    5.4674 N   0  0  0  0  0  0  0  0  0  0  0  0
  1  7  2  0  0  0  0
  1  2  1  0  0  0  0
  2  3  1  0  0  0  0
  2  4  2  0  0  0  0
  4  5  1  0  0  0  0
  5  6  2  0  0  0  0
  5 11  1  0  0  0  0
  6  7  1  0  0  0  0
  6  9  1  0  0  0  0
  7  8  1  0  0  0  0
  9 10  1  0  0  0  0
 10 11  2  0  0  0  0
M  END
>  <CHROM.1>
-11.40853849,-13.28044672,7.24823356,1.97737341,-1.23496149,2.06539730

>  <Name>
ligand

>  <RI>
0

>  <Rbt.Current_Directory>
/home/itssahil/PROJECTS/Mol_Feturizer/New_Systems/rnas/2b57

>  <Rbt.Executable>
rbdock ($Id: //depot/dev/client3/rdock/2013.1/src/exe/rbdock.cxx#4 $)

>  <Rbt.Library>
libRbt.so (2013.1, Build901 2013/11/27)

>  <Rbt.Parameter_File>
/export/apps/rDock/src/rDock_2013.1_src/data/scripts/dock_solv.prm

>  <Rbt.Receptor>
prm/blind_docking_100.prm

>  <SCORE>
-11.4432

>  <SCORE.INTER>
-11.4432

>  <SCORE.INTER.CONST>
1

>  <SCORE.INTER.POLAR>
0

>  <SCORE.INTER.ROT>
0

>  <SCORE.INTER.SOLV>
21.263

>  <SCORE.INTER.VDW>
-18.3165

>  <SCORE.INTER.norm>
-1.04029

>  <SCORE.INTRA>
0

>  <SCORE.INTRA.DIHEDRAL>
0

>  <SCORE.INTRA.DIHEDRAL.0>
0

>  <SCORE.INTRA.POLAR>
0

>  <SCORE.INTRA.POLAR.0>
0

>  <SCORE.INTRA.REPUL>
0

>  <SCORE.INTRA.REPUL.0>
0

>  <SCORE.INTRA.SOLV>
0

>  <SCORE.INTRA.SOLV.lig_0>
-48.3454

>  <SCORE.INTRA.VDW>
0

>  <SCORE.INTRA.VDW.0>
0

>  <SCORE.INTRA.norm>
0

>  <SCORE.RESTR>
0

>  <SCORE.RESTR.CAVITY>
0

>  <SCORE.RESTR.norm>
0

>  <SCORE.SYSTEM>
0

>  <SCORE.SYSTEM.CONST>
0

>  <SCORE.SYSTEM.DIHEDRAL>
0

>  <SCORE.SYSTEM.SOLV>
0

>  <SCORE.SYSTEM.norm>
0

>  <SCORE.heavy>
11

>  <SCORE.norm>
-1.04029

>  <RMSD>
0.600

$$$$
ligand
 OpenBabel01301917033D
libRbt.so/2013.1/901 2013/11/27
 11 12  0  0  0  0  0  0  0  0999 V2000
  -11.8602  -12.7732    8.8617 N   0  0  0  0  0  0  0  0  0  0  0  0
  -11.5026  -14.0638    8.9574 C   0  0  0  0  0  0  0  0  0  0  0  0
  -11.5221  -14.6684   10.1419 N   0  0  0  0  0  0  0  0  0  0  0  0
  -11.1153  -14.7472    7.8693 N   0  0  0  0  0  0  0  0  0  0  0  0
  -11.0750  -14.1543    6.6669 C   0  0  0  0  0  0  0  0  0  0  0  0
  -11.4398  -12.8199    6.5400 C   0  0  0  0  0  0  0  0  0  0  0  0
  -11.8399  -12.1335    7.6817 C   0  0  0  0  0  0  0  0  0  0  0  0
  -12.2066  -10.8577    7.6042 N   0  0  0  0  0  0  0  0  0  0  0  0
  -11.2952  -12.4854    5.2613 N   0  0  0  0  0  0  0  0  0  0  0  0
  -10.8581  -13.5587    4.6064 C   0  0  0  0  0  0  0  0  0  0  0  0
  -10.7231  -14.5753    5.4554 N   0  0  0  0  0  0  0  0  0  0  0  0
  1  7  2  0  0  0  0
  1  2  1  0  0  0  0
  2  3  1  0  0  0  0
  2  4  2  0  0  0  0
  4  5  1  0  0  0  0
  5  6  2  0  0  0  0
  5 11  1  0  0  0  0
  6  7  1  0  0  0  0
  6  9  1  0  0  0  0
  7  8  1  0  0  0  0
  9 10  1  0  0  0  0
 10 11  2  0  0  0  0
M  END
>  <CHROM.1>
-11.40763910,-13.34904457,7.26480761,2.00505400,-1.23892415,2.11763988

>  <Name>
ligand

>  <RI>
0

>  <Rbt.Current_Directory>
/home/itssahil/PROJECTS/Mol_Feturizer/New_Systems/rnas/2b57

>  <Rbt.Executable>
rbdock ($Id: //depot/dev/client3/rdock/2013.1/src/exe/rbdock.cxx#4 $)

>  <Rbt.Library>
libRbt.so (2013.1, Build901 2013/11/27)

>  <Rbt.Parameter_File>
/export/apps/rDock/src/rDock_2013.1_src/data/scripts/dock_solv.prm

>  <Rbt.Receptor>
prm/pocket_docking_3.prm

>  <SCORE>
-11.5459

>  <SCORE.INTER>
-11.5459

>  <SCORE.INTER.CONST>
1

>  <SCORE.INTER.POLAR>
0

>  <SCORE.INTER.ROT>
0

>  <SCORE.INTER.SOLV>
21.4271

>  <SCORE.INTER.VDW>
-18.4396

>  <SCORE.INTER.norm>
-1.04963

>  <SCORE.INTRA>
0

>  <SCORE.INTRA.DIHEDRAL>
0

>  <SCORE.INTRA.DIHEDRAL.0>
0

>  <SCORE.INTRA.POLAR>
0

>  <SCORE.INTRA.POLAR.0>
0

>  <SCORE.INTRA.REPUL>
0

>  <SCORE.INTRA.REPUL.0>
0

>  <SCORE.INTRA.SOLV>
0

>  <SCORE.INTRA.SOLV.lig_0>
-48.3454

>  <SCORE.INTRA.VDW>
0

>  <SCORE.INTRA.VDW.0>
0

>  <SCORE.INTRA.norm>
0

>  <SCORE.RESTR>
0

>  <SCORE.RESTR.CAVITY>
0

>  <SCORE.RESTR.norm>
0

>  <SCORE.SYSTEM>
0

>  <SCORE.SYSTEM.CONST>
0

>  <SCORE.SYSTEM.DIHEDRAL>
0

>  <SCORE.SYSTEM.SOLV>
0

>  <SCORE.SYSTEM.norm>
0

>  <SCORE.heavy>
11

>  <SCORE.norm>
-1.04963

>  <RMSD>
0.600

$$$$
ligand
 OpenBabel01301917033D
libRbt.so/2013.1/901 2013/11/27
 11 12  0  0  0  0  0  0  0  0999 V2000
  -11.8664  -12.7760    8.8652 N   0  0  0  0  0  0  0  0  0  0  0  0
  -11.5416  -14.0760    8.9510 C   0  0  0  0  0  0  0  0  0  0  0  0
  -11.5807  -14.6900   10.1301 N   0  0  0  0  0  0  0  0  0  0  0  0
  -11.1676  -14.7596    7.8583 N   0  0  0  0  0  0  0  0  0  0  0  0
  -11.1079  -14.1577    6.6612 C   0  0  0  0  0  0  0  0  0  0  0  0
  -11.4386  -12.8136    6.5446 C   0  0  0  0  0  0  0  0  0  0  0  0
  -11.8256  -12.1271    7.6908 C   0  0  0  0  0  0  0  0  0  0  0  0
  -12.1599  -10.8418    7.6229 N   0  0  0  0  0  0  0  0  0  0  0  0
  -11.2809  -12.4719    5.2693 N   0  0  0  0  0  0  0  0  0  0  0  0
  -10.8684  -13.5502    4.6067 C   0  0  0  0  0  0  0  0  0  0  0  0
  -10.7621  -14.5771    5.4475 N   0  0  0  0  0  0  0  0  0  0  0  0
  1  7  2  0  0  0  0
  1  2  1  0  0  0  0
  2  3  1  0  0  0  0
  2  4  2  0  0  0  0
  4  5  1  0  0  0  0
  5  6  2  0  0  0  0
  5 11  1  0  0  0  0
  6  7  1  0  0  0  0
  6  9  1  0  0  0  0
  7  8  1  0  0  0  0
  9 10  1  0  0  0  0
 10 11  2  0  0  0  0
M  END
>  <CHROM.1>
-11.42241713,-13.34948182,7.26491738,2.05786645,-1.25802064,2.17630266

>  <Name>
ligand

>  <RI>
0

>  <Rbt.Current_Directory>
/home/itssahil/PROJECTS/Mol_Feturizer/New_Systems/rnas/2b57

>  <Rbt.Executable>
rbdock ($Id: //depot/dev/client3/rdock/2013.1/src/exe/rbdock.cxx#4 $)

>  <Rbt.Library>
libRbt.so (2013.1, Build901 2013/11/27)

>  <Rbt.Parameter_File>
/export/apps/rDock/src/rDock_2013.1_src/data/scripts/dock_solv.prm

>  <Rbt.Receptor>
prm/pocket_docking_3.prm

>  <SCORE>
-11.5229

>  <SCORE.INTER>
-11.5229

>  <SCORE.INTER.CONST>
1

>  <SCORE.INTER.POLAR>
0

>  <SCORE.INTER.ROT>
0

>  <SCORE.INTER.SOLV>
21.6466

>  <SCORE.INTER.VDW>
-18.4975

>  <SCORE.INTER.norm>
-1.04754

>  <SCORE.INTRA>
0

>  <SCORE.INTRA.DIHEDRAL>
0

>  <SCORE.INTRA.DIHEDRAL.0>
0

>  <SCORE.INTRA.POLAR>
0

>  <SCORE.INTRA.POLAR.0>
0

>  <SCORE.INTRA.REPUL>
0

>  <SCORE.INTRA.REPUL.0>
0

>  <SCORE.INTRA.SOLV>
0

>  <SCORE.INTRA.SOLV.lig_0>
-48.3454

>  <SCORE.INTRA.VDW>
0

>  <SCORE.INTRA.VDW.0>
0

>  <SCORE.INTRA.norm>
0

>  <SCORE.RESTR>
0

>  <SCORE.RESTR.CAVITY>
0

>  <SCORE.RESTR.norm>
0

>  <SCORE.SYSTEM>
0

>  <SCORE.SYSTEM.CONST>
0

>  <SCORE.SYSTEM.DIHEDRAL>
0

>  <SCORE.SYSTEM.SOLV>
0

>  <SCORE.SYSTEM.norm>
0

>  <SCORE.heavy>
11

>  <SCORE.norm>
-1.04754

>  <RMSD>
0.600

$$$$
ligand
 OpenBabel01301917033D
libRbt.so/2013.1/901 2013/11/27
 11 12  0  0  0  0  0  0  0  0999 V2000
  -11.8483  -12.7894    8.8725 N   0  0  0  0  0  0  0  0  0  0  0  0
  -11.5050  -14.0845    8.9585 C   0  0  0  0  0  0  0  0  0  0  0  0
  -11.5295  -14.6973   10.1387 N   0  0  0  0  0  0  0  0  0  0  0  0
  -11.1270  -14.7645    7.8649 N   0  0  0  0  0  0  0  0  0  0  0  0
  -11.0819  -14.1636    6.6667 C   0  0  0  0  0  0  0  0  0  0  0  0
  -11.4318  -12.8244    6.5498 C   0  0  0  0  0  0  0  0  0  0  0  0
  -11.8226  -12.1417    7.6970 C   0  0  0  0  0  0  0  0  0  0  0  0
  -12.1750  -10.8613    7.6290 N   0  0  0  0  0  0  0  0  0  0  0  0
  -11.2855  -12.4825    5.2733 N   0  0  0  0  0  0  0  0  0  0  0  0
  -10.8614  -13.5560    4.6101 C   0  0  0  0  0  0  0  0  0  0  0  0
  -10.7365  -14.5800    5.4518 N   0  0  0  0  0  0  0  0  0  0  0  0
  1  7  2  0  0  0  0
  1  2  1  0  0  0  0
  2  3  1  0  0  0  0
  2  4  2  0  0  0  0
  4  5  1  0  0  0  0
  5  6  2  0  0  0  0
  5 11  1  0  0  0  0
  6  7  1  0  0  0  0
  6  9  1  0  0  0  0
  7  8  1  0  0  0  0
  9 10  1  0  0  0  0
 10 11  2  0  0  0  0
M  END
>  <CHROM.1>
-11.40453674,-13.35896512,7.27081426,2.01946686,-1.24925149,2.13835803

>  <Name>
ligand

>  <RI>
0

>  <Rbt.Current_Directory>
/home/itssahil/PROJECTS/Mol_Feturizer/New_Systems/rnas/2b57

>  <Rbt.Executable>
rbdock ($Id: //depot/dev/client3/rdock/2013.1/src/exe/rbdock.cxx#4 $)

>  <Rbt.Library>
libRbt.so (2013.1, Build901 2013/11/27)

>  <Rbt.Parameter_File>
/export/apps/rDock/src/rDock_2013.1_src/data/scripts/dock_solv.prm

>  <Rbt.Receptor>
prm/pocket_docking_3.prm

>  <SCORE>
-11.5724

>  <SCORE.INTER>
-11.5724

>  <SCORE.INTER.CONST>
1

>  <SCORE.INTER.POLAR>
0

>  <SCORE.INTER.ROT>
0

>  <SCORE.INTER.SOLV>
21.581

>  <SCORE.INTER.VDW>
-18.5086

>  <SCORE.INTER.norm>
-1.05204

>  <SCORE.INTRA>
0

>  <SCORE.INTRA.DIHEDRAL>
0

>  <SCORE.INTRA.DIHEDRAL.0>
0

>  <SCORE.INTRA.POLAR>
0

>  <SCORE.INTRA.POLAR.0>
0

>  <SCORE.INTRA.REPUL>
0

>  <SCORE.INTRA.REPUL.0>
0

>  <SCORE.INTRA.SOLV>
0

>  <SCORE.INTRA.SOLV.lig_0>
-48.3454

>  <SCORE.INTRA.VDW>
0

>  <SCORE.INTRA.VDW.0>
0

>  <SCORE.INTRA.norm>
0

>  <SCORE.RESTR>
0

>  <SCORE.RESTR.CAVITY>
0

>  <SCORE.RESTR.norm>
0

>  <SCORE.SYSTEM>
0

>  <SCORE.SYSTEM.CONST>
0

>  <SCORE.SYSTEM.DIHEDRAL>
0

>  <SCORE.SYSTEM.SOLV>
0

>  <SCORE.SYSTEM.norm>
0

>  <SCORE.heavy>
11

>  <SCORE.norm>
-1.05204

>  <RMSD>
0.600

$$$$
ligand
 OpenBabel01301917033D
libRbt.so/2013.1/901 2013/11/27
 11 12  0  0  0  0  0  0  0  0999 V2000
  -11.8521  -12.7831    8.8678 N   0  0  0  0  0  0  0  0  0  0  0  0
  -11.5164  -14.0796    8.9636 C   0  0  0  0  0  0  0  0  0  0  0  0
  -11.5570  -14.6866   10.1463 N   0  0  0  0  0  0  0  0  0  0  0  0
  -11.1298  -14.7666    7.8775 N   0  0  0  0  0  0  0  0  0  0  0  0
  -11.0684  -14.1716    6.6770 C   0  0  0  0  0  0  0  0  0  0  0  0
  -11.4102  -12.8312    6.5501 C   0  0  0  0  0  0  0  0  0  0  0  0
  -11.8101  -12.1411    7.6896 C   0  0  0  0  0  0  0  0  0  0  0  0
  -12.1552  -10.8593    7.6118 N   0  0  0  0  0  0  0  0  0  0  0  0
  -11.2480  -12.4960    5.2736 N   0  0  0  0  0  0  0  0  0  0  0  0
  -10.8220  -13.5747    4.6202 C   0  0  0  0  0  0  0  0  0  0  0  0
  -10.7117  -14.5954    5.4679 N   0  0  0  0  0  0  0  0  0  0  0  0
  1  7  2  0  0  0  0
  1  2  1  0  0  0  0
  2  3  1  0  0  0  0
  2  4  2  0  0  0  0
  4  5  1  0  0  0  0
  5  6  2  0  0  0  0
  5 11  1  0  0  0  0
  6  7  1  0  0  0  0
  6  9  1  0  0  0  0
  7  8  1  0  0  0  0
  9 10  1  0  0  0  0
 10 11  2  0  0  0  0
M  END
>  <CHROM.1>
-11.39356964,-13.36246602,7.27379584,2.05741851,-1.24739135,2.16967152

>  <Name>
ligand

>  <RI>
0

>  <Rbt.Current_Directory>
/home/itssahil/PROJECTS/Mol_Feturizer/New_Systems/rnas/2b57

>  <Rbt.Executable>
rbdock ($Id: //depot/dev/client3/rdock/2013.1/src/exe/rbdock.cxx#4 $)

>  <Rbt.Library>
libRbt.so (2013.1, Build901 2013/11/27)

>  <Rbt.Parameter_File>
/export/apps/rDock/src/rDock_2013.1_src/data/scripts/dock_solv.prm

>  <Rbt.Receptor>
prm/pocket_docking_4.prm

>  <SCORE>
-11.4818

>  <SCORE.INTER>
-11.4818

>  <SCORE.INTER.CONST>
1

>  <SCORE.INTER.POLAR>
0

>  <SCORE.INTER.ROT>
0

>  <SCORE.INTER.SOLV>
21.6159

>  <SCORE.INTER.VDW>
-18.4598

>  <SCORE.INTER.norm>
-1.0438

>  <SCORE.INTRA>
0

>  <SCORE.INTRA.DIHEDRAL>
0

>  <SCORE.INTRA.DIHEDRAL.0>
0

>  <SCORE.INTRA.POLAR>
0

>  <SCORE.INTRA.POLAR.0>
0

>  <SCORE.INTRA.REPUL>
0

>  <SCORE.INTRA.REPUL.0>
0

>  <SCORE.INTRA.SOLV>
0

>  <SCORE.INTRA.SOLV.lig_0>
-48.3454

>  <SCORE.INTRA.VDW>
0

>  <SCORE.INTRA.VDW.0>
0

>  <SCORE.INTRA.norm>
0

>  <SCORE.RESTR>
0

>  <SCORE.RESTR.CAVITY>
0

>  <SCORE.RESTR.norm>
0

>  <SCORE.SYSTEM>
0

>  <SCORE.SYSTEM.CONST>
0

>  <SCORE.SYSTEM.DIHEDRAL>
0

>  <SCORE.SYSTEM.SOLV>
0

>  <SCORE.SYSTEM.norm>
0

>  <SCORE.heavy>
11

>  <SCORE.norm>
-1.0438

>  <RMSD>
0.600

$$$$
ligand
 OpenBabel01301917033D
libRbt.so/2013.1/901 2013/11/27
 11 12  0  0  0  0  0  0  0  0999 V2000
  -11.8558  -12.6743    8.8348 N   0  0  0  0  0  0  0  0  0  0  0  0
  -11.4930  -13.9611    8.9581 C   0  0  0  0  0  0  0  0  0  0  0  0
  -11.5038  -14.5384   10.1563 N   0  0  0  0  0  0  0  0  0  0  0  0
  -11.1092  -14.6681    7.8838 N   0  0  0  0  0  0  0  0  0  0  0  0
  -11.0776  -14.1029    6.6679 C   0  0  0  0  0  0  0  0  0  0  0  0
  -11.4479  -12.7731    6.5124 C   0  0  0  0  0  0  0  0  0  0  0  0
  -11.8443  -12.0620    7.6403 C   0  0  0  0  0  0  0  0  0  0  0  0
  -12.2160  -10.7896    7.5355 N   0  0  0  0  0  0  0  0  0  0  0  0
  -11.3116  -12.4676    5.2256 N   0  0  0  0  0  0  0  0  0  0  0  0
  -10.8741  -13.5541    4.5931 C   0  0  0  0  0  0  0  0  0  0  0  0
  -10.7308  -14.5504    5.4646 N   0  0  0  0  0  0  0  0  0  0  0  0
  1  7  2  0  0  0  0
  1  2  1  0  0  0  0
  2  3  1  0  0  0  0
  2  4  2  0  0  0  0
  4  5  1  0  0  0  0
  5  6  2  0  0  0  0
  5 11  1  0  0  0  0
  6  7  1  0  0  0  0
  6  9  1  0  0  0  0
  7  8  1  0  0  0  0
  9 10  1  0  0  0  0
 10 11  2  0  0  0  0
M  END
>  <CHROM.1>
-11.40985230,-13.28525224,7.24902010,1.98492478,-1.23861209,2.07559364

>  <Name>
ligand

>  <RI>
0

>  <Rbt.Current_Directory>
/home/itssahil/PROJECTS/Mol_Feturizer/New_Systems/rnas/2b57

>  <Rbt.Executable>
rbdock ($Id: //depot/dev/client3/rdock/2013.1/src/exe/rbdock.cxx#4 $)

>  <Rbt.Library>
libRbt.so (2013.1, Build901 2013/11/27)

>  <Rbt.Parameter_File>
/export/apps/rDock/src/rDock_2013.1_src/data/scripts/dock_solv.prm

>  <Rbt.Receptor>
prm/pocket_docking_4.prm

>  <SCORE>
-11.4522

>  <SCORE.INTER>
-11.4522

>  <SCORE.INTER.CONST>
1

>  <SCORE.INTER.POLAR>
0

>  <SCORE.INTER.ROT>
0

>  <SCORE.INTER.SOLV>
21.2924

>  <SCORE.INTER.VDW>
-18.3323

>  <SCORE.INTER.norm>
-1.04111

>  <SCORE.INTRA>
0

>  <SCORE.INTRA.DIHEDRAL>
0

>  <SCORE.INTRA.DIHEDRAL.0>
0

>  <SCORE.INTRA.POLAR>
0

>  <SCORE.INTRA.POLAR.0>
0

>  <SCORE.INTRA.REPUL>
0

>  <SCORE.INTRA.REPUL.0>
0

>  <SCORE.INTRA.SOLV>
0

>  <SCORE.INTRA.SOLV.lig_0>
-48.3454

>  <SCORE.INTRA.VDW>
0

>  <SCORE.INTRA.VDW.0>
0

>  <SCORE.INTRA.norm>
0

>  <SCORE.RESTR>
0

>  <SCORE.RESTR.CAVITY>
0

>  <SCORE.RESTR.norm>
0

>  <SCORE.SYSTEM>
0

>  <SCORE.SYSTEM.CONST>
0

>  <SCORE.SYSTEM.DIHEDRAL>
0

>  <SCORE.SYSTEM.SOLV>
0

>  <SCORE.SYSTEM.norm>
0

>  <SCORE.heavy>
11

>  <SCORE.norm>
-1.04111

>  <RMSD>
0.600

$$$$
ligand
 OpenBabel01301917033D
libRbt.so/2013.1/901 2013/11/27
 11 12  0  0  0  0  0  0  0  0999 V2000
  -11.8201  -12.7295    8.8624 N   0  0  0  0  0  0  0  0  0  0  0  0
  -11.4416  -14.0139    8.9623 C   0  0  0  0  0  0  0  0  0  0  0  0
  -11.4280  -14.6077   10.1523 N   0  0  0  0  0  0  0  0  0  0  0  0
  -11.0667  -14.7017    7.8726 N   0  0  0  0  0  0  0  0  0  0  0  0
  -11.0596  -14.1194    6.6644 C   0  0  0  0  0  0  0  0  0  0  0  0
  -11.4465  -12.7917    6.5331 C   0  0  0  0  0  0  0  0  0  0  0  0
  -11.8333  -12.1006    7.6765 C   0  0  0  0  0  0  0  0  0  0  0  0
  -12.2201  -10.8311    7.5951 N   0  0  0  0  0  0  0  0  0  0  0  0
  -11.3330  -12.4670    5.2487 N   0  0  0  0  0  0  0  0  0  0  0  0
  -10.8936  -13.5399    4.5946 C   0  0  0  0  0  0  0  0  0  0  0  0
  -10.7263  -14.5465    5.4498 N   0  0  0  0  0  0  0  0  0  0  0  0
  1  7  2  0  0  0  0
  1  2  1  0  0  0  0
  2  3  1  0  0  0  0
  2  4  2  0  0  0  0
  4  5  1  0  0  0  0
  5  6  2  0  0  0  0
  5 11  1  0  0  0  0
  6  7  1  0  0  0  0
  6  9  1  0  0  0  0
  7  8  1  0  0  0  0
  9 10  1  0  0  0  0
 10 11  2  0  0  0  0
M  END
>  <CHROM.1>
-11.39175757,-13.31358645,7.26177225,1.92863015,-1.23609161,2.03628527

>  <Name>
ligand

>  <RI>
0

>  <Rbt.Current_Directory>
/home/itssahil/PROJECTS/Mol_Feturizer/New_Systems/rnas/2b57

>  <Rbt.Executable>
rbdock ($Id: //depot/dev/client3/rdock/2013.1/src/exe/rbdock.cxx#4 $)

>  <Rbt.Library>
libRbt.so (2013.1, Build901 2013/11/27)

>  <Rbt.Parameter_File>
/export/apps/rDock/src/rDock_2013.1_src/data/scripts/dock_solv.prm

>  <Rbt.Receptor>
prm/pocket_docking_5.prm

>  <SCORE>
-11.452

>  <SCORE.INTER>
-11.452

>  <SCORE.INTER.CONST>
1

>  <SCORE.INTER.POLAR>
0

>  <SCORE.INTER.ROT>
0

>  <SCORE.INTER.SOLV>
21.3466

>  <SCORE.INTER.VDW>
-18.3502

>  <SCORE.INTER.norm>
-1.04109

>  <SCORE.INTRA>
0

>  <SCORE.INTRA.DIHEDRAL>
0

>  <SCORE.INTRA.DIHEDRAL.0>
0

>  <SCORE.INTRA.POLAR>
0

>  <SCORE.INTRA.POLAR.0>
0

>  <SCORE.INTRA.REPUL>
0

>  <SCORE.INTRA.REPUL.0>
0

>  <SCORE.INTRA.SOLV>
0

>  <SCORE.INTRA.SOLV.lig_0>
-48.3454

>  <SCORE.INTRA.VDW>
0

>  <SCORE.INTRA.VDW.0>
0

>  <SCORE.INTRA.norm>
0

>  <SCORE.RESTR>
0

>  <SCORE.RESTR.CAVITY>
0

>  <SCORE.RESTR.norm>
0

>  <SCORE.SYSTEM>
0

>  <SCORE.SYSTEM.CONST>
0

>  <SCORE.SYSTEM.DIHEDRAL>
0

>  <SCORE.SYSTEM.SOLV>
0

>  <SCORE.SYSTEM.norm>
0

>  <SCORE.heavy>
11

>  <SCORE.norm>
-1.04109

>  <RMSD>
0.600

$$$$
ligand
 OpenBabel01301917033D
libRbt.so/2013.1/901 2013/11/27
 11 12  0  0  0  0  0  0  0  0999 V2000
  -11.8604  -12.7736    8.8628 N   0  0  0  0  0  0  0  0  0  0  0  0
  -11.5194  -14.0687    8.9582 C   0  0  0  0  0  0  0  0  0  0  0  0
  -11.5520  -14.6748   10.1417 N   0  0  0  0  0  0  0  0  0  0  0  0
  -11.1356  -14.7554    7.8709 N   0  0  0  0  0  0  0  0  0  0  0  0
  -11.0822  -14.1613    6.6695 C   0  0  0  0  0  0  0  0  0  0  0  0
  -11.4296  -12.8223    6.5430 C   0  0  0  0  0  0  0  0  0  0  0  0
  -11.8265  -12.1326    7.6838 C   0  0  0  0  0  0  0  0  0  0  0  0
  -12.1769  -10.8522    7.6065 N   0  0  0  0  0  0  0  0  0  0  0  0
  -11.2749  -12.4878    5.2654 N   0  0  0  0  0  0  0  0  0  0  0  0
  -10.8482  -13.5656    4.6110 C   0  0  0  0  0  0  0  0  0  0  0  0
  -10.7299  -14.5850    5.4592 N   0  0  0  0  0  0  0  0  0  0  0  0
  1  7  2  0  0  0  0
  1  2  1  0  0  0  0
  2  3  1  0  0  0  0
  2  4  2  0  0  0  0
  4  5  1  0  0  0  0
  5  6  2  0  0  0  0
  5 11  1  0  0  0  0
  6  7  1  0  0  0  0
  6  9  1  0  0  0  0
  7  8  1  0  0  0  0
  9 10  1  0  0  0  0
 10 11  2  0  0  0  0
M  END
>  <CHROM.1>
-11.40753492,-13.35283522,7.26712511,2.03811465,-1.24701081,2.15038834

>  <Name>
ligand

>  <RI>
0

>  <Rbt.Current_Directory>
/home/itssahil/PROJECTS/Mol_Feturizer/New_Systems/rnas/2b57

>  <Rbt.Executable>
rbdock ($Id: //depot/dev/client3/rdock/2013.1/src/exe/rbdock.cxx#4 $)

>  <Rbt.Library>
libRbt.so (2013.1, Build901 2013/11/27)

>  <Rbt.Parameter_File>
/export/apps/rDock/src/rDock_2013.1_src/data/scripts/dock_solv.prm

>  <Rbt.Receptor>
prm/pocket_docking_5.prm

>  <SCORE>
-11.5484

>  <SCORE.INTER>
-11.5484

>  <SCORE.INTER.CONST>
1

>  <SCORE.INTER.POLAR>
0

>  <SCORE.INTER.ROT>
0

>  <SCORE.INTER.SOLV>
21.5343

>  <SCORE.INTER.VDW>
-18.4771

>  <SCORE.INTER.norm>
-1.04986

>  <SCORE.INTRA>
0

>  <SCORE.INTRA.DIHEDRAL>
0

>  <SCORE.INTRA.DIHEDRAL.0>
0

>  <SCORE.INTRA.POLAR>
0

>  <SCORE.INTRA.POLAR.0>
0

>  <SCORE.INTRA.REPUL>
0

>  <SCORE.INTRA.REPUL.0>
0

>  <SCORE.INTRA.SOLV>
0

>  <SCORE.INTRA.SOLV.lig_0>
-48.3454

>  <SCORE.INTRA.VDW>
0

>  <SCORE.INTRA.VDW.0>
0

>  <SCORE.INTRA.norm>
0

>  <SCORE.RESTR>
0

>  <SCORE.RESTR.CAVITY>
0

>  <SCORE.RESTR.norm>
0

>  <SCORE.SYSTEM>
0

>  <SCORE.SYSTEM.CONST>
0

>  <SCORE.SYSTEM.DIHEDRAL>
0

>  <SCORE.SYSTEM.SOLV>
0

>  <SCORE.SYSTEM.norm>
0

>  <SCORE.heavy>
11

>  <SCORE.norm>
-1.04986

>  <RMSD>
0.600

$$$$
ligand
 OpenBabel01301917033D
libRbt.so/2013.1/901 2013/11/27
 11 12  0  0  0  0  0  0  0  0999 V2000
  -11.8544  -12.6683    8.8331 N   0  0  0  0  0  0  0  0  0  0  0  0
  -11.4915  -13.9549    8.9587 C   0  0  0  0  0  0  0  0  0  0  0  0
  -11.5023  -14.5300   10.1579 N   0  0  0  0  0  0  0  0  0  0  0  0
  -11.1077  -14.6637    7.8857 N   0  0  0  0  0  0  0  0  0  0  0  0
  -11.0761  -14.1007    6.6688 C   0  0  0  0  0  0  0  0  0  0  0  0
  -11.4465  -12.7712    6.5109 C   0  0  0  0  0  0  0  0  0  0  0  0
  -11.8429  -12.0581    7.6375 C   0  0  0  0  0  0  0  0  0  0  0  0
  -12.2147  -10.7859    7.5304 N   0  0  0  0  0  0  0  0  0  0  0  0
  -11.3101  -12.4680    5.2235 N   0  0  0  0  0  0  0  0  0  0  0  0
  -10.8726  -13.5557    4.5930 C   0  0  0  0  0  0  0  0  0  0  0  0
  -10.7293  -14.5504    5.4663 N   0  0  0  0  0  0  0  0  0  0  0  0
  1  7  2  0  0  0  0
  1  2  1  0  0  0  0
  2  3  1  0  0  0  0
  2  4  2  0  0  0  0
  4  5  1  0  0  0  0
  5  6  2  0  0  0  0
  5 11  1  0  0  0  0
  6  7  1  0  0  0  0
  6  9  1  0  0  0  0
  7  8  1  0  0  0  0
  9 10  1  0  0  0  0
 10 11  2  0  0  0  0
M  END
>  <CHROM.1>
-11.40843292,-13.28207330,7.24843618,1.98490591,-1.23856850,2.07377616

>  <Name>
ligand

>  <RI>
0

>  <Rbt.Current_Directory>
/home/itssahil/PROJECTS/Mol_Feturizer/New_Systems/rnas/2b57

>  <Rbt.Executable>
rbdock ($Id: //depot/dev/client3/rdock/2013.1/src/exe/rbdock.cxx#4 $)

>  <Rbt.Library>
libRbt.so (2013.1, Build901 2013/11/27)

>  <Rbt.Parameter_File>
/export/apps/rDock/src/rDock_2013.1_src/data/scripts/dock_solv.prm

>  <Rbt.Receptor>
prm/pocket_docking_6.prm

>  <SCORE>
-11.4518

>  <SCORE.INTER>
-11.4518

>  <SCORE.INTER.CONST>
1

>  <SCORE.INTER.POLAR>
0

>  <SCORE.INTER.ROT>
0

>  <SCORE.INTER.SOLV>
21.291

>  <SCORE.INTER.VDW>
-18.3315

>  <SCORE.INTER.norm>
-1.04107

>  <SCORE.INTRA>
0

>  <SCORE.INTRA.DIHEDRAL>
0

>  <SCORE.INTRA.DIHEDRAL.0>
0

>  <SCORE.INTRA.POLAR>
0

>  <SCORE.INTRA.POLAR.0>
0

>  <SCORE.INTRA.REPUL>
0

>  <SCORE.INTRA.REPUL.0>
0

>  <SCORE.INTRA.SOLV>
0

>  <SCORE.INTRA.SOLV.lig_0>
-48.3454

>  <SCORE.INTRA.VDW>
0

>  <SCORE.INTRA.VDW.0>
0

>  <SCORE.INTRA.norm>
0

>  <SCORE.RESTR>
0

>  <SCORE.RESTR.CAVITY>
0

>  <SCORE.RESTR.norm>
0

>  <SCORE.SYSTEM>
0

>  <SCORE.SYSTEM.CONST>
0

>  <SCORE.SYSTEM.DIHEDRAL>
0

>  <SCORE.SYSTEM.SOLV>
0

>  <SCORE.SYSTEM.norm>
0

>  <SCORE.heavy>
11

>  <SCORE.norm>
-1.04107

>  <RMSD>
0.600

$$$$
ligand
 OpenBabel01301917033D
libRbt.so/2013.1/901 2013/11/27
 11 12  0  0  0  0  0  0  0  0999 V2000
  -11.8437  -12.7660    8.8652 N   0  0  0  0  0  0  0  0  0  0  0  0
  -11.4983  -14.0600    8.9597 C   0  0  0  0  0  0  0  0  0  0  0  0
  -11.5201  -14.6646   10.1442 N   0  0  0  0  0  0  0  0  0  0  0  0
  -11.1207  -14.7470    7.8704 N   0  0  0  0  0  0  0  0  0  0  0  0
  -11.0782  -14.1543    6.6679 C   0  0  0  0  0  0  0  0  0  0  0  0
  -11.4305  -12.8165    6.5423 C   0  0  0  0  0  0  0  0  0  0  0  0
  -11.8207  -12.1265    7.6852 C   0  0  0  0  0  0  0  0  0  0  0  0
  -12.1753  -10.8472    7.6089 N   0  0  0  0  0  0  0  0  0  0  0  0
  -11.2864  -12.4832    5.2632 N   0  0  0  0  0  0  0  0  0  0  0  0
  -10.8615  -13.5606    4.6069 C   0  0  0  0  0  0  0  0  0  0  0  0
  -10.7338  -14.5785    5.4554 N   0  0  0  0  0  0  0  0  0  0  0  0
  1  7  2  0  0  0  0
  1  2  1  0  0  0  0
  2  3  1  0  0  0  0
  2  4  2  0  0  0  0
  4  5  1  0  0  0  0
  5  6  2  0  0  0  0
  5 11  1  0  0  0  0
  6  7  1  0  0  0  0
  6  9  1  0  0  0  0
  7  8  1  0  0  0  0
  9 10  1  0  0  0  0
 10 11  2  0  0  0  0
M  END
>  <CHROM.1>
-11.40131028,-13.34602043,7.26691803,2.01304565,-1.24862505,2.12533005

>  <Name>
ligand

>  <RI>
0

>  <Rbt.Current_Directory>
/home/itssahil/PROJECTS/Mol_Feturizer/New_Systems/rnas/2b57

>  <Rbt.Executable>
rbdock ($Id: //depot/dev/client3/rdock/2013.1/src/exe/rbdock.cxx#4 $)

>  <Rbt.Library>
libRbt.so (2013.1, Build901 2013/11/27)

>  <Rbt.Parameter_File>
/export/apps/rDock/src/rDock_2013.1_src/data/scripts/dock_solv.prm

>  <Rbt.Receptor>
prm/pocket_docking_6.prm

>  <SCORE>
-11.5778

>  <SCORE.INTER>
-11.5778

>  <SCORE.INTER.CONST>
1

>  <SCORE.INTER.POLAR>
0

>  <SCORE.INTER.ROT>
0

>  <SCORE.INTER.SOLV>
21.5332

>  <SCORE.INTER.VDW>
-18.4963

>  <SCORE.INTER.norm>
-1.05253

>  <SCORE.INTRA>
0

>  <SCORE.INTRA.DIHEDRAL>
0

>  <SCORE.INTRA.DIHEDRAL.0>
0

>  <SCORE.INTRA.POLAR>
0

>  <SCORE.INTRA.POLAR.0>
0

>  <SCORE.INTRA.REPUL>
0

>  <SCORE.INTRA.REPUL.0>
0

>  <SCORE.INTRA.SOLV>
0

>  <SCORE.INTRA.SOLV.lig_0>
-48.3454

>  <SCORE.INTRA.VDW>
0

>  <SCORE.INTRA.VDW.0>
0

>  <SCORE.INTRA.norm>
0

>  <SCORE.RESTR>
0

>  <SCORE.RESTR.CAVITY>
0

>  <SCORE.RESTR.norm>
0

>  <SCORE.SYSTEM>
0

>  <SCORE.SYSTEM.CONST>
0

>  <SCORE.SYSTEM.DIHEDRAL>
0

>  <SCORE.SYSTEM.SOLV>
0

>  <SCORE.SYSTEM.norm>
0

>  <SCORE.heavy>
11

>  <SCORE.norm>
-1.05253

>  <RMSD>
0.600

$$$$
ligand
 OpenBabel01301917033D
libRbt.so/2013.1/901 2013/11/27
 11 12  0  0  0  0  0  0  0  0999 V2000
  -11.8446  -12.7662    8.8653 N   0  0  0  0  0  0  0  0  0  0  0  0
  -11.4954  -14.0591    8.9597 C   0  0  0  0  0  0  0  0  0  0  0  0
  -11.5146  -14.6636   10.1443 N   0  0  0  0  0  0  0  0  0  0  0  0
  -11.1167  -14.7452    7.8702 N   0  0  0  0  0  0  0  0  0  0  0  0
  -11.0769  -14.1526    6.6676 C   0  0  0  0  0  0  0  0  0  0  0  0
  -11.4331  -12.8158    6.5421 C   0  0  0  0  0  0  0  0  0  0  0  0
  -11.8244  -12.1267    7.6852 C   0  0  0  0  0  0  0  0  0  0  0  0
  -12.1827  -10.8485    7.6090 N   0  0  0  0  0  0  0  0  0  0  0  0
  -11.2910  -12.4823    5.2628 N   0  0  0  0  0  0  0  0  0  0  0  0
  -10.8636  -13.5586    4.6063 C   0  0  0  0  0  0  0  0  0  0  0  0
  -10.7323  -14.5760    5.4549 N   0  0  0  0  0  0  0  0  0  0  0  0
  1  7  2  0  0  0  0
  1  2  1  0  0  0  0
  2  3  1  0  0  0  0
  2  4  2  0  0  0  0
  4  5  1  0  0  0  0
  5  6  2  0  0  0  0
  5 11  1  0  0  0  0
  6  7  1  0  0  0  0
  6  9  1  0  0  0  0
  7  8  1  0  0  0  0
  9 10  1  0  0  0  0
 10 11  2  0  0  0  0
M  END
>  <CHROM.1>
-11.40182459,-13.34513940,7.26675496,2.00617884,-1.24662811,2.11866424

>  <Name>
ligand

>  <RI>
0

>  <Rbt.Current_Directory>
/home/itssahil/PROJECTS/Mol_Feturizer/New_Systems/rnas/2b57

>  <Rbt.Executable>
rbdock ($Id: //depot/dev/client3/rdock/2013.1/src/exe/rbdock.cxx#4 $)

>  <Rbt.Library>
libRbt.so (2013.1, Build901 2013/11/27)

>  <Rbt.Parameter_File>
/export/apps/rDock/src/rDock_2013.1_src/data/scripts/dock_solv.prm

>  <Rbt.Receptor>
prm/pocket_docking_7.prm

>  <SCORE>
-11.578

>  <SCORE.INTER>
-11.578

>  <SCORE.INTER.CONST>
1

>  <SCORE.INTER.POLAR>
0

>  <SCORE.INTER.ROT>
0

>  <SCORE.INTER.SOLV>
21.5072

>  <SCORE.INTER.VDW>
-18.4878

>  <SCORE.INTER.norm>
-1.05255

>  <SCORE.INTRA>
0

>  <SCORE.INTRA.DIHEDRAL>
0

>  <SCORE.INTRA.DIHEDRAL.0>
0

>  <SCORE.INTRA.POLAR>
0

>  <SCORE.INTRA.POLAR.0>
0

>  <SCORE.INTRA.REPUL>
0

>  <SCORE.INTRA.REPUL.0>
0

>  <SCORE.INTRA.SOLV>
0

>  <SCORE.INTRA.SOLV.lig_0>
-48.3454

>  <SCORE.INTRA.VDW>
0

>  <SCORE.INTRA.VDW.0>
0

>  <SCORE.INTRA.norm>
0

>  <SCORE.RESTR>
0

>  <SCORE.RESTR.CAVITY>
0

>  <SCORE.RESTR.norm>
0

>  <SCORE.SYSTEM>
0

>  <SCORE.SYSTEM.CONST>
0

>  <SCORE.SYSTEM.DIHEDRAL>
0

>  <SCORE.SYSTEM.SOLV>
0

>  <SCORE.SYSTEM.norm>
0

>  <SCORE.heavy>
11

>  <SCORE.norm>
-1.05255

>  <RMSD>
0.600

$$$$
ligand
 OpenBabel01301917033D
libRbt.so/2013.1/901 2013/11/27
 11 12  0  0  0  0  0  0  0  0999 V2000
  -11.8643  -12.7753    8.8610 N   0  0  0  0  0  0  0  0  0  0  0  0
  -11.4857  -14.0599    8.9561 C   0  0  0  0  0  0  0  0  0  0  0  0
  -11.4875  -14.6629   10.1416 N   0  0  0  0  0  0  0  0  0  0  0  0
  -11.0953  -14.7389    7.8663 N   0  0  0  0  0  0  0  0  0  0  0  0
  -11.0727  -14.1474    6.6627 C   0  0  0  0  0  0  0  0  0  0  0  0
  -11.4593  -12.8191    6.5365 C   0  0  0  0  0  0  0  0  0  0  0  0
  -11.8623  -12.1373    7.6799 C   0  0  0  0  0  0  0  0  0  0  0  0
  -12.2496  -10.8675    7.6031 N   0  0  0  0  0  0  0  0  0  0  0  0
  -11.3290  -12.4844    5.2563 N   0  0  0  0  0  0  0  0  0  0  0  0
  -10.8795  -13.5517    4.5999 C   0  0  0  0  0  0  0  0  0  0  0  0
  -10.7226  -14.5647    5.4495 N   0  0  0  0  0  0  0  0  0  0  0  0
  1  7  2  0  0  0  0
  1  2  1  0  0  0  0
  2  3  1  0  0  0  0
  2  4  2  0  0  0  0
  4  5  1  0  0  0  0
  5  6  2  0  0  0  0
  5 11  1  0  0  0  0
  6  7  1  0  0  0  0
  6  9  1  0  0  0  0
  7  8  1  0  0  0  0
  9 10  1  0  0  0  0
 10 11  2  0  0  0  0
M  END
>  <CHROM.1>
-11.41381165,-13.34650186,7.26180585,1.96289561,-1.22879127,2.07630690

>  <Name>
ligand

>  <RI>
0

>  <Rbt.Current_Directory>
/home/itssahil/PROJECTS/Mol_Feturizer/New_Systems/rnas/2b57

>  <Rbt.Executable>
rbdock ($Id: //depot/dev/client3/rdock/2013.1/src/exe/rbdock.cxx#4 $)

>  <Rbt.Library>
libRbt.so (2013.1, Build901 2013/11/27)

>  <Rbt.Parameter_File>
/export/apps/rDock/src/rDock_2013.1_src/data/scripts/dock_solv.prm

>  <Rbt.Receptor>
prm/pocket_docking_8.prm

>  <SCORE>
-11.4872

>  <SCORE.INTER>
-11.4872

>  <SCORE.INTER.CONST>
1

>  <SCORE.INTER.POLAR>
0

>  <SCORE.INTER.ROT>
0

>  <SCORE.INTER.SOLV>
21.2855

>  <SCORE.INTER.VDW>
-18.3533

>  <SCORE.INTER.norm>
-1.04429

>  <SCORE.INTRA>
0

>  <SCORE.INTRA.DIHEDRAL>
0

>  <SCORE.INTRA.DIHEDRAL.0>
0

>  <SCORE.INTRA.POLAR>
0

>  <SCORE.INTRA.POLAR.0>
0

>  <SCORE.INTRA.REPUL>
0

>  <SCORE.INTRA.REPUL.0>
0

>  <SCORE.INTRA.SOLV>
0

>  <SCORE.INTRA.SOLV.lig_0>
-48.3454

>  <SCORE.INTRA.VDW>
0

>  <SCORE.INTRA.VDW.0>
0

>  <SCORE.INTRA.norm>
0

>  <SCORE.RESTR>
0

>  <SCORE.RESTR.CAVITY>
0

>  <SCORE.RESTR.norm>
0

>  <SCORE.SYSTEM>
0

>  <SCORE.SYSTEM.CONST>
0

>  <SCORE.SYSTEM.DIHEDRAL>
0

>  <SCORE.SYSTEM.SOLV>
0

>  <SCORE.SYSTEM.norm>
0

>  <SCORE.heavy>
11

>  <SCORE.norm>
-1.04429

>  <RMSD>
0.600

$$$$
ligand
 OpenBabel01301917033D
libRbt.so/2013.1/901 2013/11/27
 11 12  0  0  0  0  0  0  0  0999 V2000
  -11.8446  -12.7861    8.8736 N   0  0  0  0  0  0  0  0  0  0  0  0
  -11.5096  -14.0838    8.9535 C   0  0  0  0  0  0  0  0  0  0  0  0
  -11.5329  -14.7006   10.1316 N   0  0  0  0  0  0  0  0  0  0  0  0
  -11.1410  -14.7624    7.8559 N   0  0  0  0  0  0  0  0  0  0  0  0
  -11.0972  -14.1576    6.6596 C   0  0  0  0  0  0  0  0  0  0  0  0
  -11.4388  -12.8157    6.5490 C   0  0  0  0  0  0  0  0  0  0  0  0
  -11.8199  -12.1344    7.7002 C   0  0  0  0  0  0  0  0  0  0  0  0
  -12.1641  -10.8516    7.6384 N   0  0  0  0  0  0  0  0  0  0  0  0
  -11.2958  -12.4703    5.2730 N   0  0  0  0  0  0  0  0  0  0  0  0
  -10.8818  -13.5442    4.6042 C   0  0  0  0  0  0  0  0  0  0  0  0
  -10.7600  -14.5719    5.4417 N   0  0  0  0  0  0  0  0  0  0  0  0
  1  7  2  0  0  0  0
  1  2  1  0  0  0  0
  2  3  1  0  0  0  0
  2  4  2  0  0  0  0
  4  5  1  0  0  0  0
  5  6  2  0  0  0  0
  5 11  1  0  0  0  0
  6  7  1  0  0  0  0
  6  9  1  0  0  0  0
  7  8  1  0  0  0  0
  9 10  1  0  0  0  0
 10 11  2  0  0  0  0
M  END
>  <CHROM.1>
-11.41181512,-13.35298345,7.26795318,2.01885147,-1.25723794,2.14128724

>  <Name>
ligand

>  <RI>
0

>  <Rbt.Current_Directory>
/home/itssahil/PROJECTS/Mol_Feturizer/New_Systems/rnas/2b57

>  <Rbt.Executable>
rbdock ($Id: //depot/dev/client3/rdock/2013.1/src/exe/rbdock.cxx#4 $)

>  <Rbt.Library>
libRbt.so (2013.1, Build901 2013/11/27)

>  <Rbt.Parameter_File>
/export/apps/rDock/src/rDock_2013.1_src/data/scripts/dock_solv.prm

>  <Rbt.Receptor>
prm/blind_docking_60.prm

>  <SCORE>
-11.5407

>  <SCORE.INTER>
-11.5407

>  <SCORE.INTER.CONST>
1

>  <SCORE.INTER.POLAR>
0

>  <SCORE.INTER.ROT>
0

>  <SCORE.INTER.SOLV>
21.6466

>  <SCORE.INTER.VDW>
-18.5093

>  <SCORE.INTER.norm>
-1.04916

>  <SCORE.INTRA>
0

>  <SCORE.INTRA.DIHEDRAL>
0

>  <SCORE.INTRA.DIHEDRAL.0>
0

>  <SCORE.INTRA.POLAR>
0

>  <SCORE.INTRA.POLAR.0>
0

>  <SCORE.INTRA.REPUL>
0

>  <SCORE.INTRA.REPUL.0>
0

>  <SCORE.INTRA.SOLV>
0

>  <SCORE.INTRA.SOLV.lig_0>
-48.3454

>  <SCORE.INTRA.VDW>
0

>  <SCORE.INTRA.VDW.0>
0

>  <SCORE.INTRA.norm>
0

>  <SCORE.RESTR>
0

>  <SCORE.RESTR.CAVITY>
0

>  <SCORE.RESTR.norm>
0

>  <SCORE.SYSTEM>
0

>  <SCORE.SYSTEM.CONST>
0

>  <SCORE.SYSTEM.DIHEDRAL>
0

>  <SCORE.SYSTEM.SOLV>
0

>  <SCORE.SYSTEM.norm>
0

>  <SCORE.heavy>
11

>  <SCORE.norm>
-1.04916

>  <RMSD>
0.601

$$$$
ligand
 OpenBabel01301917033D
libRbt.so/2013.1/901 2013/11/27
 11 12  0  0  0  0  0  0  0  0999 V2000
  -11.9056  -12.7731    8.8453 N   0  0  0  0  0  0  0  0  0  0  0  0
  -11.5126  -14.0533    8.9414 C   0  0  0  0  0  0  0  0  0  0  0  0
  -11.5284  -14.6620   10.1239 N   0  0  0  0  0  0  0  0  0  0  0  0
  -11.0936  -14.7220    7.8559 N   0  0  0  0  0  0  0  0  0  0  0  0
  -11.0564  -14.1244    6.6557 C   0  0  0  0  0  0  0  0  0  0  0  0
  -11.4575  -12.8006    6.5284 C   0  0  0  0  0  0  0  0  0  0  0  0
  -11.8900  -12.1294    7.6674 C   0  0  0  0  0  0  0  0  0  0  0  0
  -12.2919  -10.8643    7.5893 N   0  0  0  0  0  0  0  0  0  0  0  0
  -11.3079  -12.4580    5.2524 N   0  0  0  0  0  0  0  0  0  0  0  0
  -10.8329  -13.5164    4.5996 C   0  0  0  0  0  0  0  0  0  0  0  0
  -10.6788  -14.5314    5.4472 N   0  0  0  0  0  0  0  0  0  0  0  0
  1  7  2  0  0  0  0
  1  2  1  0  0  0  0
  2  3  1  0  0  0  0
  2  4  2  0  0  0  0
  4  5  1  0  0  0  0
  5  6  2  0  0  0  0
  5 11  1  0  0  0  0
  6  7  1  0  0  0  0
  6  9  1  0  0  0  0
  7  8  1  0  0  0  0
  9 10  1  0  0  0  0
 10 11  2  0  0  0  0
M  END
>  <CHROM.1>
-11.41860197,-13.33084025,7.25205117,1.99092196,-1.20865974,2.10734570

>  <Name>
ligand

>  <RI>
0

>  <Rbt.Current_Directory>
/home/itssahil/PROJECTS/Mol_Feturizer/New_Systems/rnas/2b57

>  <Rbt.Executable>
rbdock ($Id: //depot/dev/client3/rdock/2013.1/src/exe/rbdock.cxx#4 $)

>  <Rbt.Library>
libRbt.so (2013.1, Build901 2013/11/27)

>  <Rbt.Parameter_File>
/export/apps/rDock/src/rDock_2013.1_src/data/scripts/dock_solv.prm

>  <Rbt.Receptor>
prm/pocket_docking_3.prm

>  <SCORE>
-11.4604

>  <SCORE.INTER>
-11.4604

>  <SCORE.INTER.CONST>
1

>  <SCORE.INTER.POLAR>
0

>  <SCORE.INTER.ROT>
0

>  <SCORE.INTER.SOLV>
21.1491

>  <SCORE.INTER.VDW>
-18.29

>  <SCORE.INTER.norm>
-1.04186

>  <SCORE.INTRA>
0

>  <SCORE.INTRA.DIHEDRAL>
0

>  <SCORE.INTRA.DIHEDRAL.0>
0

>  <SCORE.INTRA.POLAR>
0

>  <SCORE.INTRA.POLAR.0>
0

>  <SCORE.INTRA.REPUL>
0

>  <SCORE.INTRA.REPUL.0>
0

>  <SCORE.INTRA.SOLV>
0

>  <SCORE.INTRA.SOLV.lig_0>
-48.3454

>  <SCORE.INTRA.VDW>
0

>  <SCORE.INTRA.VDW.0>
0

>  <SCORE.INTRA.norm>
0

>  <SCORE.RESTR>
0

>  <SCORE.RESTR.CAVITY>
0

>  <SCORE.RESTR.norm>
0

>  <SCORE.SYSTEM>
0

>  <SCORE.SYSTEM.CONST>
0

>  <SCORE.SYSTEM.DIHEDRAL>
0

>  <SCORE.SYSTEM.SOLV>
0

>  <SCORE.SYSTEM.norm>
0

>  <SCORE.heavy>
11

>  <SCORE.norm>
-1.04186

>  <RMSD>
0.601

$$$$
ligand
 OpenBabel01301917033D
libRbt.so/2013.1/901 2013/11/27
 11 12  0  0  0  0  0  0  0  0999 V2000
  -11.8463  -12.7666    8.8647 N   0  0  0  0  0  0  0  0  0  0  0  0
  -11.4984  -14.0601    8.9579 C   0  0  0  0  0  0  0  0  0  0  0  0
  -11.5146  -14.6647   10.1424 N   0  0  0  0  0  0  0  0  0  0  0  0
  -11.1241  -14.7465    7.8670 N   0  0  0  0  0  0  0  0  0  0  0  0
  -11.0873  -14.1539    6.6644 C   0  0  0  0  0  0  0  0  0  0  0  0
  -11.4422  -12.8166    6.5401 C   0  0  0  0  0  0  0  0  0  0  0  0
  -11.8290  -12.1271    7.6846 C   0  0  0  0  0  0  0  0  0  0  0  0
  -12.1859  -10.8484    7.6096 N   0  0  0  0  0  0  0  0  0  0  0  0
  -11.3038  -12.4832    5.2604 N   0  0  0  0  0  0  0  0  0  0  0  0
  -10.8798  -13.5599    4.6025 C   0  0  0  0  0  0  0  0  0  0  0  0
  -10.7471  -14.5776    5.4506 N   0  0  0  0  0  0  0  0  0  0  0  0
  1  7  2  0  0  0  0
  1  2  1  0  0  0  0
  2  3  1  0  0  0  0
  2  4  2  0  0  0  0
  4  5  1  0  0  0  0
  5  6  2  0  0  0  0
  5 11  1  0  0  0  0
  6  7  1  0  0  0  0
  6  9  1  0  0  0  0
  7  8  1  0  0  0  0
  9 10  1  0  0  0  0
 10 11  2  0  0  0  0
M  END
>  <CHROM.1>
-11.40933665,-13.34602179,7.26465343,1.99966635,-1.24936388,2.11258315

>  <Name>
ligand

>  <RI>
0

>  <Rbt.Current_Directory>
/home/itssahil/PROJECTS/Mol_Feturizer/New_Systems/rnas/2b57

>  <Rbt.Executable>
rbdock ($Id: //depot/dev/client3/rdock/2013.1/src/exe/rbdock.cxx#4 $)

>  <Rbt.Library>
libRbt.so (2013.1, Build901 2013/11/27)

>  <Rbt.Parameter_File>
/export/apps/rDock/src/rDock_2013.1_src/data/scripts/dock_solv.prm

>  <Rbt.Receptor>
prm/pocket_docking_3.prm

>  <SCORE>
-11.5368

>  <SCORE.INTER>
-11.5368

>  <SCORE.INTER.CONST>
1

>  <SCORE.INTER.POLAR>
0

>  <SCORE.INTER.ROT>
0

>  <SCORE.INTER.SOLV>
21.5035

>  <SCORE.INTER.VDW>
-18.4591

>  <SCORE.INTER.norm>
-1.0488

>  <SCORE.INTRA>
0

>  <SCORE.INTRA.DIHEDRAL>
0

>  <SCORE.INTRA.DIHEDRAL.0>
0

>  <SCORE.INTRA.POLAR>
0

>  <SCORE.INTRA.POLAR.0>
0

>  <SCORE.INTRA.REPUL>
0

>  <SCORE.INTRA.REPUL.0>
0

>  <SCORE.INTRA.SOLV>
0

>  <SCORE.INTRA.SOLV.lig_0>
-48.3454

>  <SCORE.INTRA.VDW>
0

>  <SCORE.INTRA.VDW.0>
0

>  <SCORE.INTRA.norm>
0

>  <SCORE.RESTR>
0

>  <SCORE.RESTR.CAVITY>
0

>  <SCORE.RESTR.norm>
0

>  <SCORE.SYSTEM>
0

>  <SCORE.SYSTEM.CONST>
0

>  <SCORE.SYSTEM.DIHEDRAL>
0

>  <SCORE.SYSTEM.SOLV>
0

>  <SCORE.SYSTEM.norm>
0

>  <SCORE.heavy>
11

>  <SCORE.norm>
-1.0488

>  <RMSD>
0.601

$$$$
ligand
 OpenBabel01301917033D
libRbt.so/2013.1/901 2013/11/27
 11 12  0  0  0  0  0  0  0  0999 V2000
  -11.8459  -12.7967    8.8749 N   0  0  0  0  0  0  0  0  0  0  0  0
  -11.4916  -14.0890    8.9593 C   0  0  0  0  0  0  0  0  0  0  0  0
  -11.5060  -14.7021   10.1395 N   0  0  0  0  0  0  0  0  0  0  0  0
  -11.1128  -14.7658    7.8640 N   0  0  0  0  0  0  0  0  0  0  0  0
  -11.0777  -14.1644    6.6657 C   0  0  0  0  0  0  0  0  0  0  0  0
  -11.4391  -12.8281    6.5505 C   0  0  0  0  0  0  0  0  0  0  0  0
  -11.8305  -12.1487    7.6994 C   0  0  0  0  0  0  0  0  0  0  0  0
  -12.1938  -10.8713    7.6332 N   0  0  0  0  0  0  0  0  0  0  0  0
  -11.3010  -12.4848    5.2734 N   0  0  0  0  0  0  0  0  0  0  0  0
  -10.8710  -13.5547    4.6083 C   0  0  0  0  0  0  0  0  0  0  0  0
  -10.7341  -14.5777    5.4492 N   0  0  0  0  0  0  0  0  0  0  0  0
  1  7  2  0  0  0  0
  1  2  1  0  0  0  0
  2  3  1  0  0  0  0
  2  4  2  0  0  0  0
  4  5  1  0  0  0  0
  5  6  2  0  0  0  0
  5 11  1  0  0  0  0
  6  7  1  0  0  0  0
  6  9  1  0  0  0  0
  7  8  1  0  0  0  0
  9 10  1  0  0  0  0
 10 11  2  0  0  0  0
M  END
>  <CHROM.1>
-11.40435966,-13.36247630,7.27129856,1.99440178,-1.24453314,2.11471942

>  <Name>
ligand

>  <RI>
0

>  <Rbt.Current_Directory>
/home/itssahil/PROJECTS/Mol_Feturizer/New_Systems/rnas/2b57

>  <Rbt.Executable>
rbdock ($Id: //depot/dev/client3/rdock/2013.1/src/exe/rbdock.cxx#4 $)

>  <Rbt.Library>
libRbt.so (2013.1, Build901 2013/11/27)

>  <Rbt.Parameter_File>
/export/apps/rDock/src/rDock_2013.1_src/data/scripts/dock_solv.prm

>  <Rbt.Receptor>
prm/pocket_docking_5.prm

>  <SCORE>
-11.5442

>  <SCORE.INTER>
-11.5442

>  <SCORE.INTER.CONST>
1

>  <SCORE.INTER.POLAR>
0

>  <SCORE.INTER.ROT>
0

>  <SCORE.INTER.SOLV>
21.5151

>  <SCORE.INTER.VDW>
-18.4678

>  <SCORE.INTER.norm>
-1.04947

>  <SCORE.INTRA>
0

>  <SCORE.INTRA.DIHEDRAL>
0

>  <SCORE.INTRA.DIHEDRAL.0>
0

>  <SCORE.INTRA.POLAR>
0

>  <SCORE.INTRA.POLAR.0>
0

>  <SCORE.INTRA.REPUL>
0

>  <SCORE.INTRA.REPUL.0>
0

>  <SCORE.INTRA.SOLV>
0

>  <SCORE.INTRA.SOLV.lig_0>
-48.3454

>  <SCORE.INTRA.VDW>
0

>  <SCORE.INTRA.VDW.0>
0

>  <SCORE.INTRA.norm>
0

>  <SCORE.RESTR>
0

>  <SCORE.RESTR.CAVITY>
0

>  <SCORE.RESTR.norm>
0

>  <SCORE.SYSTEM>
0

>  <SCORE.SYSTEM.CONST>
0

>  <SCORE.SYSTEM.DIHEDRAL>
0

>  <SCORE.SYSTEM.SOLV>
0

>  <SCORE.SYSTEM.norm>
0

>  <SCORE.heavy>
11

>  <SCORE.norm>
-1.04947

>  <RMSD>
0.601

$$$$
ligand
 OpenBabel01301917033D
libRbt.so/2013.1/901 2013/11/27
 11 12  0  0  0  0  0  0  0  0999 V2000
  -11.8386  -12.7425    8.8582 N   0  0  0  0  0  0  0  0  0  0  0  0
  -11.4623  -14.0274    8.9592 C   0  0  0  0  0  0  0  0  0  0  0  0
  -11.4576  -14.6226   10.1486 N   0  0  0  0  0  0  0  0  0  0  0  0
  -11.0805  -14.7143    7.8714 N   0  0  0  0  0  0  0  0  0  0  0  0
  -11.0644  -14.1307    6.6639 C   0  0  0  0  0  0  0  0  0  0  0  0
  -11.4489  -12.8024    6.5314 C   0  0  0  0  0  0  0  0  0  0  0  0
  -11.8429  -12.1122    7.6730 C   0  0  0  0  0  0  0  0  0  0  0  0
  -12.2278  -10.8421    7.5904 N   0  0  0  0  0  0  0  0  0  0  0  0
  -11.3261  -12.4763    5.2482 N   0  0  0  0  0  0  0  0  0  0  0  0
  -10.8834  -13.5490    4.5960 C   0  0  0  0  0  0  0  0  0  0  0  0
  -10.7232  -14.5567    5.4511 N   0  0  0  0  0  0  0  0  0  0  0  0
  1  7  2  0  0  0  0
  1  2  1  0  0  0  0
  2  3  1  0  0  0  0
  2  4  2  0  0  0  0
  4  5  1  0  0  0  0
  5  6  2  0  0  0  0
  5 11  1  0  0  0  0
  6  7  1  0  0  0  0
  6  9  1  0  0  0  0
  7  8  1  0  0  0  0
  9 10  1  0  0  0  0
 10 11  2  0  0  0  0
M  END
>  <CHROM.1>
-11.39984122,-13.32516330,7.25988562,1.94891401,-1.23387568,2.05659939

>  <Name>
ligand

>  <RI>
0

>  <Rbt.Current_Directory>
/home/itssahil/PROJECTS/Mol_Feturizer/New_Systems/rnas/2b57

>  <Rbt.Executable>
rbdock ($Id: //depot/dev/client3/rdock/2013.1/src/exe/rbdock.cxx#4 $)

>  <Rbt.Library>
libRbt.so (2013.1, Build901 2013/11/27)

>  <Rbt.Parameter_File>
/export/apps/rDock/src/rDock_2013.1_src/data/scripts/dock_solv.prm

>  <Rbt.Receptor>
prm/pocket_docking_8.prm

>  <SCORE>
-11.4713

>  <SCORE.INTER>
-11.4713

>  <SCORE.INTER.CONST>
1

>  <SCORE.INTER.POLAR>
0

>  <SCORE.INTER.ROT>
0

>  <SCORE.INTER.SOLV>
21.3289

>  <SCORE.INTER.VDW>
-18.3572

>  <SCORE.INTER.norm>
-1.04284

>  <SCORE.INTRA>
0

>  <SCORE.INTRA.DIHEDRAL>
0

>  <SCORE.INTRA.DIHEDRAL.0>
0

>  <SCORE.INTRA.POLAR>
0

>  <SCORE.INTRA.POLAR.0>
0

>  <SCORE.INTRA.REPUL>
0

>  <SCORE.INTRA.REPUL.0>
0

>  <SCORE.INTRA.SOLV>
0

>  <SCORE.INTRA.SOLV.lig_0>
-48.3454

>  <SCORE.INTRA.VDW>
0

>  <SCORE.INTRA.VDW.0>
0

>  <SCORE.INTRA.norm>
0

>  <SCORE.RESTR>
0

>  <SCORE.RESTR.CAVITY>
0

>  <SCORE.RESTR.norm>
0

>  <SCORE.SYSTEM>
0

>  <SCORE.SYSTEM.CONST>
0

>  <SCORE.SYSTEM.DIHEDRAL>
0

>  <SCORE.SYSTEM.SOLV>
0

>  <SCORE.SYSTEM.norm>
0

>  <SCORE.heavy>
11

>  <SCORE.norm>
-1.04284

>  <RMSD>
0.601

$$$$
ligand
 OpenBabel01301917033D
libRbt.so/2013.1/901 2013/11/27
 11 12  0  0  0  0  0  0  0  0999 V2000
  -11.8565  -12.7715    8.8632 N   0  0  0  0  0  0  0  0  0  0  0  0
  -11.5087  -14.0654    8.9504 C   0  0  0  0  0  0  0  0  0  0  0  0
  -11.5260  -14.6758   10.1320 N   0  0  0  0  0  0  0  0  0  0  0  0
  -11.1332  -14.7464    7.8566 N   0  0  0  0  0  0  0  0  0  0  0  0
  -11.0952  -14.1479    6.6570 C   0  0  0  0  0  0  0  0  0  0  0  0
  -11.4500  -12.8101    6.5389 C   0  0  0  0  0  0  0  0  0  0  0  0
  -11.8380  -12.1262    7.6863 C   0  0  0  0  0  0  0  0  0  0  0  0
  -12.1949  -10.8471    7.6172 N   0  0  0  0  0  0  0  0  0  0  0  0
  -11.3103  -12.4703    5.2610 N   0  0  0  0  0  0  0  0  0  0  0  0
  -10.8856  -13.5438    4.5982 C   0  0  0  0  0  0  0  0  0  0  0  0
  -10.7537  -14.5656    5.4414 N   0  0  0  0  0  0  0  0  0  0  0  0
  1  7  2  0  0  0  0
  1  2  1  0  0  0  0
  2  3  1  0  0  0  0
  2  4  2  0  0  0  0
  4  5  1  0  0  0  0
  5  6  2  0  0  0  0
  5 11  1  0  0  0  0
  6  7  1  0  0  0  0
  6  9  1  0  0  0  0
  7  8  1  0  0  0  0
  9 10  1  0  0  0  0
 10 11  2  0  0  0  0
M  END
>  <CHROM.1>
-11.41788273,-13.34302243,7.26083857,2.00239693,-1.24878185,2.12009163

>  <Name>
ligand

>  <RI>
0

>  <Rbt.Current_Directory>
/home/itssahil/PROJECTS/Mol_Feturizer/New_Systems/rnas/2b57

>  <Rbt.Executable>
rbdock ($Id: //depot/dev/client3/rdock/2013.1/src/exe/rbdock.cxx#4 $)

>  <Rbt.Library>
libRbt.so (2013.1, Build901 2013/11/27)

>  <Rbt.Parameter_File>
/export/apps/rDock/src/rDock_2013.1_src/data/scripts/dock_solv.prm

>  <Rbt.Receptor>
prm/pocket_docking_3.prm

>  <SCORE>
-11.5483

>  <SCORE.INTER>
-11.5483

>  <SCORE.INTER.CONST>
1

>  <SCORE.INTER.POLAR>
0

>  <SCORE.INTER.ROT>
0

>  <SCORE.INTER.SOLV>
21.4971

>  <SCORE.INTER.VDW>
-18.4646

>  <SCORE.INTER.norm>
-1.04985

>  <SCORE.INTRA>
0

>  <SCORE.INTRA.DIHEDRAL>
0

>  <SCORE.INTRA.DIHEDRAL.0>
0

>  <SCORE.INTRA.POLAR>
0

>  <SCORE.INTRA.POLAR.0>
0

>  <SCORE.INTRA.REPUL>
0

>  <SCORE.INTRA.REPUL.0>
0

>  <SCORE.INTRA.SOLV>
0

>  <SCORE.INTRA.SOLV.lig_0>
-48.3454

>  <SCORE.INTRA.VDW>
0

>  <SCORE.INTRA.VDW.0>
0

>  <SCORE.INTRA.norm>
0

>  <SCORE.RESTR>
0

>  <SCORE.RESTR.CAVITY>
0

>  <SCORE.RESTR.norm>
0

>  <SCORE.SYSTEM>
0

>  <SCORE.SYSTEM.CONST>
0

>  <SCORE.SYSTEM.DIHEDRAL>
0

>  <SCORE.SYSTEM.SOLV>
0

>  <SCORE.SYSTEM.norm>
0

>  <SCORE.heavy>
11

>  <SCORE.norm>
-1.04985

>  <RMSD>
0.602

$$$$
ligand
 OpenBabel01301917033D
libRbt.so/2013.1/901 2013/11/27
 11 12  0  0  0  0  0  0  0  0999 V2000
  -11.8378  -12.7415    8.8577 N   0  0  0  0  0  0  0  0  0  0  0  0
  -11.4756  -14.0313    8.9470 C   0  0  0  0  0  0  0  0  0  0  0  0
  -11.4905  -14.6411   10.1289 N   0  0  0  0  0  0  0  0  0  0  0  0
  -11.0882  -14.7087    7.8552 N   0  0  0  0  0  0  0  0  0  0  0  0
  -11.0524  -14.1105    6.6552 C   0  0  0  0  0  0  0  0  0  0  0  0
  -11.4220  -12.7769    6.5349 C   0  0  0  0  0  0  0  0  0  0  0  0
  -11.8222  -12.0968    7.6803 C   0  0  0  0  0  0  0  0  0  0  0  0
  -12.1934  -10.8219    7.6091 N   0  0  0  0  0  0  0  0  0  0  0  0
  -11.2812  -12.4364    5.2573 N   0  0  0  0  0  0  0  0  0  0  0  0
  -10.8418  -13.5054    4.5969 C   0  0  0  0  0  0  0  0  0  0  0  0
  -10.7015  -14.5251    5.4413 N   0  0  0  0  0  0  0  0  0  0  0  0
  1  7  2  0  0  0  0
  1  2  1  0  0  0  0
  2  3  1  0  0  0  0
  2  4  2  0  0  0  0
  4  5  1  0  0  0  0
  5  6  2  0  0  0  0
  5 11  1  0  0  0  0
  6  7  1  0  0  0  0
  6  9  1  0  0  0  0
  7  8  1  0  0  0  0
  9 10  1  0  0  0  0
 10 11  2  0  0  0  0
M  END
>  <CHROM.1>
-11.38653605,-13.30899902,7.25733604,1.99420697,-1.23703176,2.11167851

>  <Name>
ligand

>  <RI>
0

>  <Rbt.Current_Directory>
/home/itssahil/PROJECTS/Mol_Feturizer/New_Systems/rnas/2b57

>  <Rbt.Executable>
rbdock ($Id: //depot/dev/client3/rdock/2013.1/src/exe/rbdock.cxx#4 $)

>  <Rbt.Library>
libRbt.so (2013.1, Build901 2013/11/27)

>  <Rbt.Parameter_File>
/export/apps/rDock/src/rDock_2013.1_src/data/scripts/dock_solv.prm

>  <Rbt.Receptor>
prm/pocket_docking_7.prm

>  <SCORE>
-11.4763

>  <SCORE.INTER>
-11.4763

>  <SCORE.INTER.CONST>
1

>  <SCORE.INTER.POLAR>
0

>  <SCORE.INTER.ROT>
0

>  <SCORE.INTER.SOLV>
21.4673

>  <SCORE.INTER.VDW>
-18.4066

>  <SCORE.INTER.norm>
-1.0433

>  <SCORE.INTRA>
0

>  <SCORE.INTRA.DIHEDRAL>
0

>  <SCORE.INTRA.DIHEDRAL.0>
0

>  <SCORE.INTRA.POLAR>
0

>  <SCORE.INTRA.POLAR.0>
0

>  <SCORE.INTRA.REPUL>
0

>  <SCORE.INTRA.REPUL.0>
0

>  <SCORE.INTRA.SOLV>
0

>  <SCORE.INTRA.SOLV.lig_0>
-48.3454

>  <SCORE.INTRA.VDW>
0

>  <SCORE.INTRA.VDW.0>
0

>  <SCORE.INTRA.norm>
0

>  <SCORE.RESTR>
0

>  <SCORE.RESTR.CAVITY>
0

>  <SCORE.RESTR.norm>
0

>  <SCORE.SYSTEM>
0

>  <SCORE.SYSTEM.CONST>
0

>  <SCORE.SYSTEM.DIHEDRAL>
0

>  <SCORE.SYSTEM.SOLV>
0

>  <SCORE.SYSTEM.norm>
0

>  <SCORE.heavy>
11

>  <SCORE.norm>
-1.0433

>  <RMSD>
0.602

$$$$
ligand
 OpenBabel01301917033D
libRbt.so/2013.1/901 2013/11/27
 11 12  0  0  0  0  0  0  0  0999 V2000
  -11.8746  -12.7800    8.8581 N   0  0  0  0  0  0  0  0  0  0  0  0
  -11.5385  -14.0768    8.9489 C   0  0  0  0  0  0  0  0  0  0  0  0
  -11.5754  -14.6875   10.1299 N   0  0  0  0  0  0  0  0  0  0  0  0
  -11.1555  -14.7605    7.8594 N   0  0  0  0  0  0  0  0  0  0  0  0
  -11.0979  -14.1619    6.6606 C   0  0  0  0  0  0  0  0  0  0  0  0
  -11.4402  -12.8211    6.5389 C   0  0  0  0  0  0  0  0  0  0  0  0
  -11.8364  -12.1344    7.6818 C   0  0  0  0  0  0  0  0  0  0  0  0
  -12.1818  -10.8524    7.6090 N   0  0  0  0  0  0  0  0  0  0  0  0
  -11.2821  -12.4820    5.2629 N   0  0  0  0  0  0  0  0  0  0  0  0
  -10.8583  -13.5587    4.6049 C   0  0  0  0  0  0  0  0  0  0  0  0
  -10.7452  -14.5820    5.4491 N   0  0  0  0  0  0  0  0  0  0  0  0
  1  7  2  0  0  0  0
  1  2  1  0  0  0  0
  2  3  1  0  0  0  0
  2  4  2  0  0  0  0
  4  5  1  0  0  0  0
  5  6  2  0  0  0  0
  5 11  1  0  0  0  0
  6  7  1  0  0  0  0
  6  9  1  0  0  0  0
  7  8  1  0  0  0  0
  9 10  1  0  0  0  0
 10 11  2  0  0  0  0
M  END
>  <CHROM.1>
-11.42123082,-13.35456545,7.26089815,2.04894929,-1.24919947,2.16467935

>  <Name>
ligand

>  <RI>
0

>  <Rbt.Current_Directory>
/home/itssahil/PROJECTS/Mol_Feturizer/New_Systems/rnas/2b57

>  <Rbt.Executable>
rbdock ($Id: //depot/dev/client3/rdock/2013.1/src/exe/rbdock.cxx#4 $)

>  <Rbt.Library>
libRbt.so (2013.1, Build901 2013/11/27)

>  <Rbt.Parameter_File>
/export/apps/rDock/src/rDock_2013.1_src/data/scripts/dock_solv.prm

>  <Rbt.Receptor>
prm/pocket_docking_3.prm

>  <SCORE>
-11.5258

>  <SCORE.INTER>
-11.5258

>  <SCORE.INTER.CONST>
1

>  <SCORE.INTER.POLAR>
0

>  <SCORE.INTER.ROT>
0

>  <SCORE.INTER.SOLV>
21.5452

>  <SCORE.INTER.VDW>
-18.4656

>  <SCORE.INTER.norm>
-1.0478

>  <SCORE.INTRA>
0

>  <SCORE.INTRA.DIHEDRAL>
0

>  <SCORE.INTRA.DIHEDRAL.0>
0

>  <SCORE.INTRA.POLAR>
0

>  <SCORE.INTRA.POLAR.0>
0

>  <SCORE.INTRA.REPUL>
0

>  <SCORE.INTRA.REPUL.0>
0

>  <SCORE.INTRA.SOLV>
0

>  <SCORE.INTRA.SOLV.lig_0>
-48.3454

>  <SCORE.INTRA.VDW>
0

>  <SCORE.INTRA.VDW.0>
0

>  <SCORE.INTRA.norm>
0

>  <SCORE.RESTR>
0

>  <SCORE.RESTR.CAVITY>
0

>  <SCORE.RESTR.norm>
0

>  <SCORE.SYSTEM>
0

>  <SCORE.SYSTEM.CONST>
0

>  <SCORE.SYSTEM.DIHEDRAL>
0

>  <SCORE.SYSTEM.SOLV>
0

>  <SCORE.SYSTEM.norm>
0

>  <SCORE.heavy>
11

>  <SCORE.norm>
-1.0478

>  <RMSD>
0.603

$$$$
ligand
 OpenBabel01301917033D
libRbt.so/2013.1/901 2013/11/27
 11 12  0  0  0  0  0  0  0  0999 V2000
  -11.8751  -12.7805    8.8600 N   0  0  0  0  0  0  0  0  0  0  0  0
  -11.5391  -14.0775    8.9474 C   0  0  0  0  0  0  0  0  0  0  0  0
  -11.5729  -14.6904   10.1273 N   0  0  0  0  0  0  0  0  0  0  0  0
  -11.1591  -14.7592    7.8557 N   0  0  0  0  0  0  0  0  0  0  0  0
  -11.1046  -14.1583    6.6578 C   0  0  0  0  0  0  0  0  0  0  0  0
  -11.4469  -12.8173    6.5395 C   0  0  0  0  0  0  0  0  0  0  0  0
  -11.8399  -12.1327    7.6848 C   0  0  0  0  0  0  0  0  0  0  0  0
  -12.1853  -10.8505    7.6153 N   0  0  0  0  0  0  0  0  0  0  0  0
  -11.2921  -12.4758    5.2638 N   0  0  0  0  0  0  0  0  0  0  0  0
  -10.8702  -13.5514    4.6026 C   0  0  0  0  0  0  0  0  0  0  0  0
  -10.7551  -14.5762    5.4446 N   0  0  0  0  0  0  0  0  0  0  0  0
  1  7  2  0  0  0  0
  1  2  1  0  0  0  0
  2  3  1  0  0  0  0
  2  4  2  0  0  0  0
  4  5  1  0  0  0  0
  5  6  2  0  0  0  0
  5 11  1  0  0  0  0
  6  7  1  0  0  0  0
  6  9  1  0  0  0  0
  7  8  1  0  0  0  0
  9 10  1  0  0  0  0
 10 11  2  0  0  0  0
M  END
>  <CHROM.1>
-11.42611786,-13.35211613,7.26047263,2.04234628,-1.25083120,2.16029546

>  <Name>
ligand

>  <RI>
0

>  <Rbt.Current_Directory>
/home/itssahil/PROJECTS/Mol_Feturizer/New_Systems/rnas/2b57

>  <Rbt.Executable>
rbdock ($Id: //depot/dev/client3/rdock/2013.1/src/exe/rbdock.cxx#4 $)

>  <Rbt.Library>
libRbt.so (2013.1, Build901 2013/11/27)

>  <Rbt.Parameter_File>
/export/apps/rDock/src/rDock_2013.1_src/data/scripts/dock_solv.prm

>  <Rbt.Receptor>
prm/pocket_docking_5.prm

>  <SCORE>
-11.5275

>  <SCORE.INTER>
-11.5275

>  <SCORE.INTER.CONST>
1

>  <SCORE.INTER.POLAR>
0

>  <SCORE.INTER.ROT>
0

>  <SCORE.INTER.SOLV>
21.5486

>  <SCORE.INTER.VDW>
-18.4679

>  <SCORE.INTER.norm>
-1.04795

>  <SCORE.INTRA>
0

>  <SCORE.INTRA.DIHEDRAL>
0

>  <SCORE.INTRA.DIHEDRAL.0>
0

>  <SCORE.INTRA.POLAR>
0

>  <SCORE.INTRA.POLAR.0>
0

>  <SCORE.INTRA.REPUL>
0

>  <SCORE.INTRA.REPUL.0>
0

>  <SCORE.INTRA.SOLV>
0

>  <SCORE.INTRA.SOLV.lig_0>
-48.3454

>  <SCORE.INTRA.VDW>
0

>  <SCORE.INTRA.VDW.0>
0

>  <SCORE.INTRA.norm>
0

>  <SCORE.RESTR>
0

>  <SCORE.RESTR.CAVITY>
0

>  <SCORE.RESTR.norm>
0

>  <SCORE.SYSTEM>
0

>  <SCORE.SYSTEM.CONST>
0

>  <SCORE.SYSTEM.DIHEDRAL>
0

>  <SCORE.SYSTEM.SOLV>
0

>  <SCORE.SYSTEM.norm>
0

>  <SCORE.heavy>
11

>  <SCORE.norm>
-1.04795

>  <RMSD>
0.603

$$$$
ligand
 OpenBabel01301917033D
libRbt.so/2013.1/901 2013/11/27
 11 12  0  0  0  0  0  0  0  0999 V2000
  -11.8855  -12.7917    8.8595 N   0  0  0  0  0  0  0  0  0  0  0  0
  -11.5216  -14.0812    8.9464 C   0  0  0  0  0  0  0  0  0  0  0  0
  -11.5340  -14.6928   10.1274 N   0  0  0  0  0  0  0  0  0  0  0  0
  -11.1350  -14.7565    7.8530 N   0  0  0  0  0  0  0  0  0  0  0  0
  -11.1017  -14.1565    6.6539 C   0  0  0  0  0  0  0  0  0  0  0  0
  -11.4731  -12.8231    6.5361 C   0  0  0  0  0  0  0  0  0  0  0  0
  -11.8724  -12.1452    7.6832 C   0  0  0  0  0  0  0  0  0  0  0  0
  -12.2452  -10.8707    7.6144 N   0  0  0  0  0  0  0  0  0  0  0  0
  -11.3346  -12.4805    5.2588 N   0  0  0  0  0  0  0  0  0  0  0  0
  -10.8949  -13.5480    4.5962 C   0  0  0  0  0  0  0  0  0  0  0  0
  -10.7521  -14.5688    5.4388 N   0  0  0  0  0  0  0  0  0  0  0  0
  1  7  2  0  0  0  0
  1  2  1  0  0  0  0
  2  3  1  0  0  0  0
  2  4  2  0  0  0  0
  4  5  1  0  0  0  0
  5  6  2  0  0  0  0
  5 11  1  0  0  0  0
  6  7  1  0  0  0  0
  6  9  1  0  0  0  0
  7  8  1  0  0  0  0
  9 10  1  0  0  0  0
 10 11  2  0  0  0  0
M  END
>  <CHROM.1>
-11.43592257,-13.35624476,7.25768049,1.98845763,-1.23678042,2.10775383

>  <Name>
ligand

>  <RI>
0

>  <Rbt.Current_Directory>
/home/itssahil/PROJECTS/Mol_Feturizer/New_Systems/rnas/2b57

>  <Rbt.Executable>
rbdock ($Id: //depot/dev/client3/rdock/2013.1/src/exe/rbdock.cxx#4 $)

>  <Rbt.Library>
libRbt.so (2013.1, Build901 2013/11/27)

>  <Rbt.Parameter_File>
/export/apps/rDock/src/rDock_2013.1_src/data/scripts/dock_solv.prm

>  <Rbt.Receptor>
prm/pocket_docking_5.prm

>  <SCORE>
-11.5183

>  <SCORE.INTER>
-11.5183

>  <SCORE.INTER.CONST>
1

>  <SCORE.INTER.POLAR>
0

>  <SCORE.INTER.ROT>
0

>  <SCORE.INTER.SOLV>
21.3503

>  <SCORE.INTER.VDW>
-18.3956

>  <SCORE.INTER.norm>
-1.04712

>  <SCORE.INTRA>
0

>  <SCORE.INTRA.DIHEDRAL>
0

>  <SCORE.INTRA.DIHEDRAL.0>
0

>  <SCORE.INTRA.POLAR>
0

>  <SCORE.INTRA.POLAR.0>
0

>  <SCORE.INTRA.REPUL>
0

>  <SCORE.INTRA.REPUL.0>
0

>  <SCORE.INTRA.SOLV>
0

>  <SCORE.INTRA.SOLV.lig_0>
-48.3454

>  <SCORE.INTRA.VDW>
0

>  <SCORE.INTRA.VDW.0>
0

>  <SCORE.INTRA.norm>
0

>  <SCORE.RESTR>
0

>  <SCORE.RESTR.CAVITY>
0

>  <SCORE.RESTR.norm>
0

>  <SCORE.SYSTEM>
0

>  <SCORE.SYSTEM.CONST>
0

>  <SCORE.SYSTEM.DIHEDRAL>
0

>  <SCORE.SYSTEM.SOLV>
0

>  <SCORE.SYSTEM.norm>
0

>  <SCORE.heavy>
11

>  <SCORE.norm>
-1.04712

>  <RMSD>
0.603

$$$$
ligand
 OpenBabel01301917033D
libRbt.so/2013.1/901 2013/11/27
 11 12  0  0  0  0  0  0  0  0999 V2000
  -11.8576  -12.7873    8.8679 N   0  0  0  0  0  0  0  0  0  0  0  0
  -11.5151  -14.0830    8.9485 C   0  0  0  0  0  0  0  0  0  0  0  0
  -11.5345  -14.6991   10.1271 N   0  0  0  0  0  0  0  0  0  0  0  0
  -11.1430  -14.7602    7.8512 N   0  0  0  0  0  0  0  0  0  0  0  0
  -11.1030  -14.1559    6.6545 C   0  0  0  0  0  0  0  0  0  0  0  0
  -11.4523  -12.8160    6.5432 C   0  0  0  0  0  0  0  0  0  0  0  0
  -11.8369  -12.1362    7.6942 C   0  0  0  0  0  0  0  0  0  0  0  0
  -12.1885  -10.8553    7.6316 N   0  0  0  0  0  0  0  0  0  0  0  0
  -11.3117  -12.4705    5.2669 N   0  0  0  0  0  0  0  0  0  0  0  0
  -10.8918  -13.5425    4.5987 C   0  0  0  0  0  0  0  0  0  0  0  0
  -10.7638  -14.5690    5.4368 N   0  0  0  0  0  0  0  0  0  0  0  0
  1  7  2  0  0  0  0
  1  2  1  0  0  0  0
  2  3  1  0  0  0  0
  2  4  2  0  0  0  0
  4  5  1  0  0  0  0
  5  6  2  0  0  0  0
  5 11  1  0  0  0  0
  6  7  1  0  0  0  0
  6  9  1  0  0  0  0
  7  8  1  0  0  0  0
  9 10  1  0  0  0  0
 10 11  2  0  0  0  0
M  END
>  <CHROM.1>
-11.42203362,-13.35265117,7.26251244,2.00814564,-1.25257356,2.13048907

>  <Name>
ligand

>  <RI>
0

>  <Rbt.Current_Directory>
/home/itssahil/PROJECTS/Mol_Feturizer/New_Systems/rnas/2b57

>  <Rbt.Executable>
rbdock ($Id: //depot/dev/client3/rdock/2013.1/src/exe/rbdock.cxx#4 $)

>  <Rbt.Library>
libRbt.so (2013.1, Build901 2013/11/27)

>  <Rbt.Parameter_File>
/export/apps/rDock/src/rDock_2013.1_src/data/scripts/dock_solv.prm

>  <Rbt.Receptor>
prm/pocket_docking_5.prm

>  <SCORE>
-11.5517

>  <SCORE.INTER>
-11.5517

>  <SCORE.INTER.CONST>
1

>  <SCORE.INTER.POLAR>
0

>  <SCORE.INTER.ROT>
0

>  <SCORE.INTER.SOLV>
21.5586

>  <SCORE.INTER.VDW>
-18.4873

>  <SCORE.INTER.norm>
-1.05016

>  <SCORE.INTRA>
0

>  <SCORE.INTRA.DIHEDRAL>
0

>  <SCORE.INTRA.DIHEDRAL.0>
0

>  <SCORE.INTRA.POLAR>
0

>  <SCORE.INTRA.POLAR.0>
0

>  <SCORE.INTRA.REPUL>
0

>  <SCORE.INTRA.REPUL.0>
0

>  <SCORE.INTRA.SOLV>
0

>  <SCORE.INTRA.SOLV.lig_0>
-48.3454

>  <SCORE.INTRA.VDW>
0

>  <SCORE.INTRA.VDW.0>
0

>  <SCORE.INTRA.norm>
0

>  <SCORE.RESTR>
0

>  <SCORE.RESTR.CAVITY>
0

>  <SCORE.RESTR.norm>
0

>  <SCORE.SYSTEM>
0

>  <SCORE.SYSTEM.CONST>
0

>  <SCORE.SYSTEM.DIHEDRAL>
0

>  <SCORE.SYSTEM.SOLV>
0

>  <SCORE.SYSTEM.norm>
0

>  <SCORE.heavy>
11

>  <SCORE.norm>
-1.05016

>  <RMSD>
0.603

$$$$
ligand
 OpenBabel01301917033D
libRbt.so/2013.1/901 2013/11/27
 11 12  0  0  0  0  0  0  0  0999 V2000
  -11.8701  -12.7779    8.8571 N   0  0  0  0  0  0  0  0  0  0  0  0
  -11.4962  -14.0644    8.9459 C   0  0  0  0  0  0  0  0  0  0  0  0
  -11.5103  -14.6762   10.1268 N   0  0  0  0  0  0  0  0  0  0  0  0
  -11.0982  -14.7365    7.8546 N   0  0  0  0  0  0  0  0  0  0  0  0
  -11.0631  -14.1361    6.6557 C   0  0  0  0  0  0  0  0  0  0  0  0
  -11.4446  -12.8058    6.5360 C   0  0  0  0  0  0  0  0  0  0  0  0
  -11.8557  -12.1312    7.6808 C   0  0  0  0  0  0  0  0  0  0  0  0
  -12.2384  -10.8597    7.6100 N   0  0  0  0  0  0  0  0  0  0  0  0
  -11.3019  -12.4619    5.2595 N   0  0  0  0  0  0  0  0  0  0  0  0
  -10.8498  -13.5258    4.5992 C   0  0  0  0  0  0  0  0  0  0  0  0
  -10.7035  -14.5455    5.4426 N   0  0  0  0  0  0  0  0  0  0  0  0
  1  7  2  0  0  0  0
  1  2  1  0  0  0  0
  2  3  1  0  0  0  0
  2  4  2  0  0  0  0
  4  5  1  0  0  0  0
  5  6  2  0  0  0  0
  5 11  1  0  0  0  0
  6  7  1  0  0  0  0
  6  9  1  0  0  0  0
  7  8  1  0  0  0  0
  9 10  1  0  0  0  0
 10 11  2  0  0  0  0
M  END
>  <CHROM.1>
-11.40710787,-13.33866770,7.25771438,1.99027061,-1.22700495,2.10953231

>  <Name>
ligand

>  <RI>
0

>  <Rbt.Current_Directory>
/home/itssahil/PROJECTS/Mol_Feturizer/New_Systems/rnas/2b57

>  <Rbt.Executable>
rbdock ($Id: //depot/dev/client3/rdock/2013.1/src/exe/rbdock.cxx#4 $)

>  <Rbt.Library>
libRbt.so (2013.1, Build901 2013/11/27)

>  <Rbt.Parameter_File>
/export/apps/rDock/src/rDock_2013.1_src/data/scripts/dock_solv.prm

>  <Rbt.Receptor>
prm/pocket_docking_6.prm

>  <SCORE>
-11.4877

>  <SCORE.INTER>
-11.4877

>  <SCORE.INTER.CONST>
1

>  <SCORE.INTER.POLAR>
0

>  <SCORE.INTER.ROT>
0

>  <SCORE.INTER.SOLV>
21.3316

>  <SCORE.INTER.VDW>
-18.369

>  <SCORE.INTER.norm>
-1.04434

>  <SCORE.INTRA>
0

>  <SCORE.INTRA.DIHEDRAL>
0

>  <SCORE.INTRA.DIHEDRAL.0>
0

>  <SCORE.INTRA.POLAR>
0

>  <SCORE.INTRA.POLAR.0>
0

>  <SCORE.INTRA.REPUL>
0

>  <SCORE.INTRA.REPUL.0>
0

>  <SCORE.INTRA.SOLV>
0

>  <SCORE.INTRA.SOLV.lig_0>
-48.3454

>  <SCORE.INTRA.VDW>
0

>  <SCORE.INTRA.VDW.0>
0

>  <SCORE.INTRA.norm>
0

>  <SCORE.RESTR>
0

>  <SCORE.RESTR.CAVITY>
0

>  <SCORE.RESTR.norm>
0

>  <SCORE.SYSTEM>
0

>  <SCORE.SYSTEM.CONST>
0

>  <SCORE.SYSTEM.DIHEDRAL>
0

>  <SCORE.SYSTEM.SOLV>
0

>  <SCORE.SYSTEM.norm>
0

>  <SCORE.heavy>
11

>  <SCORE.norm>
-1.04434

>  <RMSD>
0.603

$$$$
ligand
 OpenBabel01301917033D
libRbt.so/2013.1/901 2013/11/27
 11 12  0  0  0  0  0  0  0  0999 V2000
  -11.8512  -12.7691    8.8619 N   0  0  0  0  0  0  0  0  0  0  0  0
  -11.5056  -14.0635    8.9498 C   0  0  0  0  0  0  0  0  0  0  0  0
  -11.5237  -14.6732   10.1317 N   0  0  0  0  0  0  0  0  0  0  0  0
  -11.1317  -14.7458    7.8563 N   0  0  0  0  0  0  0  0  0  0  0  0
  -11.0930  -14.1481    6.6563 C   0  0  0  0  0  0  0  0  0  0  0  0
  -11.4455  -12.8097    6.5375 C   0  0  0  0  0  0  0  0  0  0  0  0
  -11.8320  -12.1245    7.6846 C   0  0  0  0  0  0  0  0  0  0  0  0
  -12.1866  -10.8448    7.6149 N   0  0  0  0  0  0  0  0  0  0  0  0
  -11.3055  -12.4709    5.2593 N   0  0  0  0  0  0  0  0  0  0  0  0
  -10.8829  -13.5455    4.5971 C   0  0  0  0  0  0  0  0  0  0  0  0
  -10.7526  -14.5671    5.4409 N   0  0  0  0  0  0  0  0  0  0  0  0
  1  7  2  0  0  0  0
  1  2  1  0  0  0  0
  2  3  1  0  0  0  0
  2  4  2  0  0  0  0
  4  5  1  0  0  0  0
  5  6  2  0  0  0  0
  5 11  1  0  0  0  0
  6  7  1  0  0  0  0
  6  9  1  0  0  0  0
  7  8  1  0  0  0  0
  9 10  1  0  0  0  0
 10 11  2  0  0  0  0
M  END
>  <CHROM.1>
-11.41406455,-13.34227130,7.25975970,2.00451767,-1.25042931,2.12150891

>  <Name>
ligand

>  <RI>
0

>  <Rbt.Current_Directory>
/home/itssahil/PROJECTS/Mol_Feturizer/New_Systems/rnas/2b57

>  <Rbt.Executable>
rbdock ($Id: //depot/dev/client3/rdock/2013.1/src/exe/rbdock.cxx#4 $)

>  <Rbt.Library>
libRbt.so (2013.1, Build901 2013/11/27)

>  <Rbt.Parameter_File>
/export/apps/rDock/src/rDock_2013.1_src/data/scripts/dock_solv.prm

>  <Rbt.Receptor>
prm/blind_docking_40.prm

>  <SCORE>
-11.5492

>  <SCORE.INTER>
-11.5492

>  <SCORE.INTER.CONST>
1

>  <SCORE.INTER.POLAR>
0

>  <SCORE.INTER.ROT>
0

>  <SCORE.INTER.SOLV>
21.5202

>  <SCORE.INTER.VDW>
-18.4728

>  <SCORE.INTER.norm>
-1.04992

>  <SCORE.INTRA>
0

>  <SCORE.INTRA.DIHEDRAL>
0

>  <SCORE.INTRA.DIHEDRAL.0>
0

>  <SCORE.INTRA.POLAR>
0

>  <SCORE.INTRA.POLAR.0>
0

>  <SCORE.INTRA.REPUL>
0

>  <SCORE.INTRA.REPUL.0>
0

>  <SCORE.INTRA.SOLV>
0

>  <SCORE.INTRA.SOLV.lig_0>
-48.3454

>  <SCORE.INTRA.VDW>
0

>  <SCORE.INTRA.VDW.0>
0

>  <SCORE.INTRA.norm>
0

>  <SCORE.RESTR>
0

>  <SCORE.RESTR.CAVITY>
0

>  <SCORE.RESTR.norm>
0

>  <SCORE.SYSTEM>
0

>  <SCORE.SYSTEM.CONST>
0

>  <SCORE.SYSTEM.DIHEDRAL>
0

>  <SCORE.SYSTEM.SOLV>
0

>  <SCORE.SYSTEM.norm>
0

>  <SCORE.heavy>
11

>  <SCORE.norm>
-1.04992

>  <RMSD>
0.604

$$$$
ligand
 OpenBabel01301917033D
libRbt.so/2013.1/901 2013/11/27
 11 12  0  0  0  0  0  0  0  0999 V2000
  -11.8655  -12.7757    8.8608 N   0  0  0  0  0  0  0  0  0  0  0  0
  -11.5399  -14.0754    8.9480 C   0  0  0  0  0  0  0  0  0  0  0  0
  -11.5780  -14.6881   10.1279 N   0  0  0  0  0  0  0  0  0  0  0  0
  -11.1660  -14.7601    7.8560 N   0  0  0  0  0  0  0  0  0  0  0  0
  -11.1073  -14.1596    6.6581 C   0  0  0  0  0  0  0  0  0  0  0  0
  -11.4388  -12.8158    6.5401 C   0  0  0  0  0  0  0  0  0  0  0  0
  -11.8257  -12.1282    7.6856 C   0  0  0  0  0  0  0  0  0  0  0  0
  -12.1608  -10.8432    7.6165 N   0  0  0  0  0  0  0  0  0  0  0  0
  -11.2820  -12.4755    5.2643 N   0  0  0  0  0  0  0  0  0  0  0  0
  -10.8692  -13.5544    4.6028 C   0  0  0  0  0  0  0  0  0  0  0  0
  -10.7618  -14.5801    5.4447 N   0  0  0  0  0  0  0  0  0  0  0  0
  1  7  2  0  0  0  0
  1  2  1  0  0  0  0
  2  3  1  0  0  0  0
  2  4  2  0  0  0  0
  4  5  1  0  0  0  0
  5  6  2  0  0  0  0
  5 11  1  0  0  0  0
  6  7  1  0  0  0  0
  6  9  1  0  0  0  0
  7  8  1  0  0  0  0
  9 10  1  0  0  0  0
 10 11  2  0  0  0  0
M  END
>  <CHROM.1>
-11.42197371,-13.35081933,7.26103887,2.05538893,-1.25780759,2.17276712

>  <Name>
ligand

>  <RI>
0

>  <Rbt.Current_Directory>
/home/itssahil/PROJECTS/Mol_Feturizer/New_Systems/rnas/2b57

>  <Rbt.Executable>
rbdock ($Id: //depot/dev/client3/rdock/2013.1/src/exe/rbdock.cxx#4 $)

>  <Rbt.Library>
libRbt.so (2013.1, Build901 2013/11/27)

>  <Rbt.Parameter_File>
/export/apps/rDock/src/rDock_2013.1_src/data/scripts/dock_solv.prm

>  <Rbt.Receptor>
prm/blind_docking_80.prm

>  <SCORE>
-11.524

>  <SCORE.INTER>
-11.524

>  <SCORE.INTER.CONST>
1

>  <SCORE.INTER.POLAR>
0

>  <SCORE.INTER.ROT>
0

>  <SCORE.INTER.SOLV>
21.6347

>  <SCORE.INTER.VDW>
-18.4942

>  <SCORE.INTER.norm>
-1.04763

>  <SCORE.INTRA>
0

>  <SCORE.INTRA.DIHEDRAL>
0

>  <SCORE.INTRA.DIHEDRAL.0>
0

>  <SCORE.INTRA.POLAR>
0

>  <SCORE.INTRA.POLAR.0>
0

>  <SCORE.INTRA.REPUL>
0

>  <SCORE.INTRA.REPUL.0>
0

>  <SCORE.INTRA.SOLV>
0

>  <SCORE.INTRA.SOLV.lig_0>
-48.3454

>  <SCORE.INTRA.VDW>
0

>  <SCORE.INTRA.VDW.0>
0

>  <SCORE.INTRA.norm>
0

>  <SCORE.RESTR>
0

>  <SCORE.RESTR.CAVITY>
0

>  <SCORE.RESTR.norm>
0

>  <SCORE.SYSTEM>
0

>  <SCORE.SYSTEM.CONST>
0

>  <SCORE.SYSTEM.DIHEDRAL>
0

>  <SCORE.SYSTEM.SOLV>
0

>  <SCORE.SYSTEM.norm>
0

>  <SCORE.heavy>
11

>  <SCORE.norm>
-1.04763

>  <RMSD>
0.604

$$$$
ligand
 OpenBabel01301917033D
libRbt.so/2013.1/901 2013/11/27
 11 12  0  0  0  0  0  0  0  0999 V2000
  -11.8393  -12.7634    8.8642 N   0  0  0  0  0  0  0  0  0  0  0  0
  -11.5060  -14.0610    8.9534 C   0  0  0  0  0  0  0  0  0  0  0  0
  -11.5254  -14.6680   10.1366 N   0  0  0  0  0  0  0  0  0  0  0  0
  -11.1431  -14.7492    7.8599 N   0  0  0  0  0  0  0  0  0  0  0  0
  -11.1033  -14.1543    6.6584 C   0  0  0  0  0  0  0  0  0  0  0  0
  -11.4431  -12.8128    6.5382 C   0  0  0  0  0  0  0  0  0  0  0  0
  -11.8183  -12.1215    7.6854 C   0  0  0  0  0  0  0  0  0  0  0  0
  -12.1608  -10.8386    7.6144 N   0  0  0  0  0  0  0  0  0  0  0  0
  -11.3049  -12.4781    5.2588 N   0  0  0  0  0  0  0  0  0  0  0  0
  -10.8955  -13.5582    4.5972 C   0  0  0  0  0  0  0  0  0  0  0  0
  -10.7718  -14.5792    5.4426 N   0  0  0  0  0  0  0  0  0  0  0  0
  1  7  2  0  0  0  0
  1  2  1  0  0  0  0
  2  3  1  0  0  0  0
  2  4  2  0  0  0  0
  4  5  1  0  0  0  0
  5  6  2  0  0  0  0
  5 11  1  0  0  0  0
  6  7  1  0  0  0  0
  6  9  1  0  0  0  0
  7  8  1  0  0  0  0
  9 10  1  0  0  0  0
 10 11  2  0  0  0  0
M  END
>  <CHROM.1>
-11.41408961,-13.34419384,7.26147245,2.01028101,-1.26083862,2.12489796

>  <Name>
ligand

>  <RI>
0

>  <Rbt.Current_Directory>
/home/itssahil/PROJECTS/Mol_Feturizer/New_Systems/rnas/2b57

>  <Rbt.Executable>
rbdock ($Id: //depot/dev/client3/rdock/2013.1/src/exe/rbdock.cxx#4 $)

>  <Rbt.Library>
libRbt.so (2013.1, Build901 2013/11/27)

>  <Rbt.Parameter_File>
/export/apps/rDock/src/rDock_2013.1_src/data/scripts/dock_solv.prm

>  <Rbt.Receptor>
prm/pocket_docking_3.prm

>  <SCORE>
-11.5338

>  <SCORE.INTER>
-11.5338

>  <SCORE.INTER.CONST>
1

>  <SCORE.INTER.POLAR>
0

>  <SCORE.INTER.ROT>
0

>  <SCORE.INTER.SOLV>
21.6095

>  <SCORE.INTER.VDW>
-18.4924

>  <SCORE.INTER.norm>
-1.04853

>  <SCORE.INTRA>
0

>  <SCORE.INTRA.DIHEDRAL>
0

>  <SCORE.INTRA.DIHEDRAL.0>
0

>  <SCORE.INTRA.POLAR>
0

>  <SCORE.INTRA.POLAR.0>
0

>  <SCORE.INTRA.REPUL>
0

>  <SCORE.INTRA.REPUL.0>
0

>  <SCORE.INTRA.SOLV>
0

>  <SCORE.INTRA.SOLV.lig_0>
-48.3454

>  <SCORE.INTRA.VDW>
0

>  <SCORE.INTRA.VDW.0>
0

>  <SCORE.INTRA.norm>
0

>  <SCORE.RESTR>
0

>  <SCORE.RESTR.CAVITY>
0

>  <SCORE.RESTR.norm>
0

>  <SCORE.SYSTEM>
0

>  <SCORE.SYSTEM.CONST>
0

>  <SCORE.SYSTEM.DIHEDRAL>
0

>  <SCORE.SYSTEM.SOLV>
0

>  <SCORE.SYSTEM.norm>
0

>  <SCORE.heavy>
11

>  <SCORE.norm>
-1.04853

>  <RMSD>
0.604

$$$$
ligand
 OpenBabel01301917033D
libRbt.so/2013.1/901 2013/11/27
 11 12  0  0  0  0  0  0  0  0999 V2000
  -11.8424  -12.7649    8.8609 N   0  0  0  0  0  0  0  0  0  0  0  0
  -11.4989  -14.0594    8.9557 C   0  0  0  0  0  0  0  0  0  0  0  0
  -11.5228  -14.6639   10.1402 N   0  0  0  0  0  0  0  0  0  0  0  0
  -11.1214  -14.7469    7.8668 N   0  0  0  0  0  0  0  0  0  0  0  0
  -11.0769  -14.1544    6.6643 C   0  0  0  0  0  0  0  0  0  0  0  0
  -11.4271  -12.8161    6.5383 C   0  0  0  0  0  0  0  0  0  0  0  0
  -11.8174  -12.1254    7.6809 C   0  0  0  0  0  0  0  0  0  0  0  0
  -12.1700  -10.8456    7.6042 N   0  0  0  0  0  0  0  0  0  0  0  0
  -11.2814  -12.4831    5.2593 N   0  0  0  0  0  0  0  0  0  0  0  0
  -10.8575  -13.5611    4.6035 C   0  0  0  0  0  0  0  0  0  0  0  0
  -10.7321  -14.5792    5.4522 N   0  0  0  0  0  0  0  0  0  0  0  0
  1  7  2  0  0  0  0
  1  2  1  0  0  0  0
  2  3  1  0  0  0  0
  2  4  2  0  0  0  0
  4  5  1  0  0  0  0
  5  6  2  0  0  0  0
  5 11  1  0  0  0  0
  6  7  1  0  0  0  0
  6  9  1  0  0  0  0
  7  8  1  0  0  0  0
  9 10  1  0  0  0  0
 10 11  2  0  0  0  0
M  END
>  <CHROM.1>
-11.39939970,-13.34559859,7.26299862,2.01797499,-1.24940236,2.12996259

>  <Name>
ligand

>  <RI>
0

>  <Rbt.Current_Directory>
/home/itssahil/PROJECTS/Mol_Feturizer/New_Systems/rnas/2b57

>  <Rbt.Executable>
rbdock ($Id: //depot/dev/client3/rdock/2013.1/src/exe/rbdock.cxx#4 $)

>  <Rbt.Library>
libRbt.so (2013.1, Build901 2013/11/27)

>  <Rbt.Parameter_File>
/export/apps/rDock/src/rDock_2013.1_src/data/scripts/dock_solv.prm

>  <Rbt.Receptor>
prm/pocket_docking_4.prm

>  <SCORE>
-11.5811

>  <SCORE.INTER>
-11.5811

>  <SCORE.INTER.CONST>
1

>  <SCORE.INTER.POLAR>
0

>  <SCORE.INTER.ROT>
0

>  <SCORE.INTER.SOLV>
21.5469

>  <SCORE.INTER.VDW>
-18.503

>  <SCORE.INTER.norm>
-1.05283

>  <SCORE.INTRA>
0

>  <SCORE.INTRA.DIHEDRAL>
0

>  <SCORE.INTRA.DIHEDRAL.0>
0

>  <SCORE.INTRA.POLAR>
0

>  <SCORE.INTRA.POLAR.0>
0

>  <SCORE.INTRA.REPUL>
0

>  <SCORE.INTRA.REPUL.0>
0

>  <SCORE.INTRA.SOLV>
0

>  <SCORE.INTRA.SOLV.lig_0>
-48.3454

>  <SCORE.INTRA.VDW>
0

>  <SCORE.INTRA.VDW.0>
0

>  <SCORE.INTRA.norm>
0

>  <SCORE.RESTR>
0

>  <SCORE.RESTR.CAVITY>
0

>  <SCORE.RESTR.norm>
0

>  <SCORE.SYSTEM>
0

>  <SCORE.SYSTEM.CONST>
0

>  <SCORE.SYSTEM.DIHEDRAL>
0

>  <SCORE.SYSTEM.SOLV>
0

>  <SCORE.SYSTEM.norm>
0

>  <SCORE.heavy>
11

>  <SCORE.norm>
-1.05283

>  <RMSD>
0.604

$$$$
ligand
 OpenBabel01301917033D
libRbt.so/2013.1/901 2013/11/27
 11 12  0  0  0  0  0  0  0  0999 V2000
  -11.8410  -12.7643    8.8619 N   0  0  0  0  0  0  0  0  0  0  0  0
  -11.4930  -14.0583    8.9470 C   0  0  0  0  0  0  0  0  0  0  0  0
  -11.5185  -14.6728   10.1263 N   0  0  0  0  0  0  0  0  0  0  0  0
  -11.1094  -14.7353    7.8536 N   0  0  0  0  0  0  0  0  0  0  0  0
  -11.0631  -14.1326    6.6563 C   0  0  0  0  0  0  0  0  0  0  0  0
  -11.4179  -12.7946    6.5403 C   0  0  0  0  0  0  0  0  0  0  0  0
  -11.8145  -12.1149    7.6873 C   0  0  0  0  0  0  0  0  0  0  0  0
  -12.1717  -10.8358    7.6202 N   0  0  0  0  0  0  0  0  0  0  0  0
  -11.2693  -12.4503    5.2647 N   0  0  0  0  0  0  0  0  0  0  0  0
  -10.8392  -13.5212    4.6012 C   0  0  0  0  0  0  0  0  0  0  0  0
  -10.7127  -14.5459    5.4418 N   0  0  0  0  0  0  0  0  0  0  0  0
  1  7  2  0  0  0  0
  1  2  1  0  0  0  0
  2  3  1  0  0  0  0
  2  4  2  0  0  0  0
  4  5  1  0  0  0  0
  5  6  2  0  0  0  0
  5 11  1  0  0  0  0
  6  7  1  0  0  0  0
  6  9  1  0  0  0  0
  7  8  1  0  0  0  0
  9 10  1  0  0  0  0
 10 11  2  0  0  0  0
M  END
>  <CHROM.1>
-11.39059494,-13.33001243,7.26065261,2.02043095,-1.24449240,2.14065742

>  <Name>
ligand

>  <RI>
0

>  <Rbt.Current_Directory>
/home/itssahil/PROJECTS/Mol_Feturizer/New_Systems/rnas/2b57

>  <Rbt.Executable>
rbdock ($Id: //depot/dev/client3/rdock/2013.1/src/exe/rbdock.cxx#4 $)

>  <Rbt.Library>
libRbt.so (2013.1, Build901 2013/11/27)

>  <Rbt.Parameter_File>
/export/apps/rDock/src/rDock_2013.1_src/data/scripts/dock_solv.prm

>  <Rbt.Receptor>
prm/pocket_docking_6.prm

>  <SCORE>
-11.48

>  <SCORE.INTER>
-11.48

>  <SCORE.INTER.CONST>
1

>  <SCORE.INTER.POLAR>
0

>  <SCORE.INTER.ROT>
0

>  <SCORE.INTER.SOLV>
21.5653

>  <SCORE.INTER.VDW>
-18.4418

>  <SCORE.INTER.norm>
-1.04364

>  <SCORE.INTRA>
0

>  <SCORE.INTRA.DIHEDRAL>
0

>  <SCORE.INTRA.DIHEDRAL.0>
0

>  <SCORE.INTRA.POLAR>
0

>  <SCORE.INTRA.POLAR.0>
0

>  <SCORE.INTRA.REPUL>
0

>  <SCORE.INTRA.REPUL.0>
0

>  <SCORE.INTRA.SOLV>
0

>  <SCORE.INTRA.SOLV.lig_0>
-48.3454

>  <SCORE.INTRA.VDW>
0

>  <SCORE.INTRA.VDW.0>
0

>  <SCORE.INTRA.norm>
0

>  <SCORE.RESTR>
0

>  <SCORE.RESTR.CAVITY>
0

>  <SCORE.RESTR.norm>
0

>  <SCORE.SYSTEM>
0

>  <SCORE.SYSTEM.CONST>
0

>  <SCORE.SYSTEM.DIHEDRAL>
0

>  <SCORE.SYSTEM.SOLV>
0

>  <SCORE.SYSTEM.norm>
0

>  <SCORE.heavy>
11

>  <SCORE.norm>
-1.04364

>  <RMSD>
0.604

$$$$
ligand
 OpenBabel01301917033D
libRbt.so/2013.1/901 2013/11/27
 11 12  0  0  0  0  0  0  0  0999 V2000
  -11.8488  -12.7678    8.8622 N   0  0  0  0  0  0  0  0  0  0  0  0
  -11.5033  -14.0623    8.9497 C   0  0  0  0  0  0  0  0  0  0  0  0
  -11.5200  -14.6719   10.1317 N   0  0  0  0  0  0  0  0  0  0  0  0
  -11.1308  -14.7448    7.8558 N   0  0  0  0  0  0  0  0  0  0  0  0
  -11.0936  -14.1471    6.6557 C   0  0  0  0  0  0  0  0  0  0  0  0
  -11.4460  -12.8087    6.5373 C   0  0  0  0  0  0  0  0  0  0  0  0
  -11.8309  -12.1233    7.6848 C   0  0  0  0  0  0  0  0  0  0  0  0
  -12.1855  -10.8437    7.6155 N   0  0  0  0  0  0  0  0  0  0  0  0
  -11.3076  -12.4701    5.2589 N   0  0  0  0  0  0  0  0  0  0  0  0
  -10.8860  -13.5448    4.5962 C   0  0  0  0  0  0  0  0  0  0  0  0
  -10.7548  -14.5663    5.4399 N   0  0  0  0  0  0  0  0  0  0  0  0
  1  7  2  0  0  0  0
  1  2  1  0  0  0  0
  2  3  1  0  0  0  0
  2  4  2  0  0  0  0
  4  5  1  0  0  0  0
  5  6  2  0  0  0  0
  5 11  1  0  0  0  0
  6  7  1  0  0  0  0
  6  9  1  0  0  0  0
  7  8  1  0  0  0  0
  9 10  1  0  0  0  0
 10 11  2  0  0  0  0
M  END
>  <CHROM.1>
-11.41374571,-13.34125105,7.25954287,2.00132215,-1.25123007,2.11840273

>  <Name>
ligand

>  <RI>
0

>  <Rbt.Current_Directory>
/home/itssahil/PROJECTS/Mol_Feturizer/New_Systems/rnas/2b57

>  <Rbt.Executable>
rbdock ($Id: //depot/dev/client3/rdock/2013.1/src/exe/rbdock.cxx#4 $)

>  <Rbt.Library>
libRbt.so (2013.1, Build901 2013/11/27)

>  <Rbt.Parameter_File>
/export/apps/rDock/src/rDock_2013.1_src/data/scripts/dock_solv.prm

>  <Rbt.Receptor>
prm/pocket_docking_6.prm

>  <SCORE>
-11.547

>  <SCORE.INTER>
-11.547

>  <SCORE.INTER.CONST>
1

>  <SCORE.INTER.POLAR>
0

>  <SCORE.INTER.ROT>
0

>  <SCORE.INTER.SOLV>
21.5241

>  <SCORE.INTER.VDW>
-18.4727

>  <SCORE.INTER.norm>
-1.04973

>  <SCORE.INTRA>
0

>  <SCORE.INTRA.DIHEDRAL>
0

>  <SCORE.INTRA.DIHEDRAL.0>
0

>  <SCORE.INTRA.POLAR>
0

>  <SCORE.INTRA.POLAR.0>
0

>  <SCORE.INTRA.REPUL>
0

>  <SCORE.INTRA.REPUL.0>
0

>  <SCORE.INTRA.SOLV>
0

>  <SCORE.INTRA.SOLV.lig_0>
-48.3454

>  <SCORE.INTRA.VDW>
0

>  <SCORE.INTRA.VDW.0>
0

>  <SCORE.INTRA.norm>
0

>  <SCORE.RESTR>
0

>  <SCORE.RESTR.CAVITY>
0

>  <SCORE.RESTR.norm>
0

>  <SCORE.SYSTEM>
0

>  <SCORE.SYSTEM.CONST>
0

>  <SCORE.SYSTEM.DIHEDRAL>
0

>  <SCORE.SYSTEM.SOLV>
0

>  <SCORE.SYSTEM.norm>
0

>  <SCORE.heavy>
11

>  <SCORE.norm>
-1.04973

>  <RMSD>
0.604

$$$$
ligand
 OpenBabel01301917033D
libRbt.so/2013.1/901 2013/11/27
 11 12  0  0  0  0  0  0  0  0999 V2000
  -11.8432  -12.7653    8.8609 N   0  0  0  0  0  0  0  0  0  0  0  0
  -11.4974  -14.0591    8.9567 C   0  0  0  0  0  0  0  0  0  0  0  0
  -11.5193  -14.6625   10.1418 N   0  0  0  0  0  0  0  0  0  0  0  0
  -11.1195  -14.7470    7.8681 N   0  0  0  0  0  0  0  0  0  0  0  0
  -11.0770  -14.1556    6.6651 C   0  0  0  0  0  0  0  0  0  0  0  0
  -11.4296  -12.8179    6.5381 C   0  0  0  0  0  0  0  0  0  0  0  0
  -11.8202  -12.1269    7.6803 C   0  0  0  0  0  0  0  0  0  0  0  0
  -12.1751  -10.8478    7.6027 N   0  0  0  0  0  0  0  0  0  0  0  0
  -11.2854  -12.4859    5.2587 N   0  0  0  0  0  0  0  0  0  0  0  0
  -10.8602  -13.5638    4.6035 C   0  0  0  0  0  0  0  0  0  0  0  0
  -10.7323  -14.5808    5.4531 N   0  0  0  0  0  0  0  0  0  0  0  0
  1  7  2  0  0  0  0
  1  2  1  0  0  0  0
  2  3  1  0  0  0  0
  2  4  2  0  0  0  0
  4  5  1  0  0  0  0
  5  6  2  0  0  0  0
  5 11  1  0  0  0  0
  6  7  1  0  0  0  0
  6  9  1  0  0  0  0
  7  8  1  0  0  0  0
  9 10  1  0  0  0  0
 10 11  2  0  0  0  0
M  END
>  <CHROM.1>
-11.40040467,-13.34672705,7.26327366,2.01297438,-1.24833711,2.12427832

>  <Name>
ligand

>  <RI>
0

>  <Rbt.Current_Directory>
/home/itssahil/PROJECTS/Mol_Feturizer/New_Systems/rnas/2b57

>  <Rbt.Executable>
rbdock ($Id: //depot/dev/client3/rdock/2013.1/src/exe/rbdock.cxx#4 $)

>  <Rbt.Library>
libRbt.so (2013.1, Build901 2013/11/27)

>  <Rbt.Parameter_File>
/export/apps/rDock/src/rDock_2013.1_src/data/scripts/dock_solv.prm

>  <Rbt.Receptor>
prm/pocket_docking_8.prm

>  <SCORE>
-11.5789

>  <SCORE.INTER>
-11.5789

>  <SCORE.INTER.CONST>
1

>  <SCORE.INTER.POLAR>
0

>  <SCORE.INTER.ROT>
0

>  <SCORE.INTER.SOLV>
21.5263

>  <SCORE.INTER.VDW>
-18.4947

>  <SCORE.INTER.norm>
-1.05262

>  <SCORE.INTRA>
0

>  <SCORE.INTRA.DIHEDRAL>
0

>  <SCORE.INTRA.DIHEDRAL.0>
0

>  <SCORE.INTRA.POLAR>
0

>  <SCORE.INTRA.POLAR.0>
0

>  <SCORE.INTRA.REPUL>
0

>  <SCORE.INTRA.REPUL.0>
0

>  <SCORE.INTRA.SOLV>
0

>  <SCORE.INTRA.SOLV.lig_0>
-48.3454

>  <SCORE.INTRA.VDW>
0

>  <SCORE.INTRA.VDW.0>
0

>  <SCORE.INTRA.norm>
0

>  <SCORE.RESTR>
0

>  <SCORE.RESTR.CAVITY>
0

>  <SCORE.RESTR.norm>
0

>  <SCORE.SYSTEM>
0

>  <SCORE.SYSTEM.CONST>
0

>  <SCORE.SYSTEM.DIHEDRAL>
0

>  <SCORE.SYSTEM.SOLV>
0

>  <SCORE.SYSTEM.norm>
0

>  <SCORE.heavy>
11

>  <SCORE.norm>
-1.05262

>  <RMSD>
0.604

$$$$
ligand
 OpenBabel01301917033D
libRbt.so/2013.1/901 2013/11/27
 11 12  0  0  0  0  0  0  0  0999 V2000
  -11.8472  -12.7907    8.8678 N   0  0  0  0  0  0  0  0  0  0  0  0
  -11.5058  -14.0864    8.9538 C   0  0  0  0  0  0  0  0  0  0  0  0
  -11.5320  -14.6993   10.1339 N   0  0  0  0  0  0  0  0  0  0  0  0
  -11.1281  -14.7667    7.8604 N   0  0  0  0  0  0  0  0  0  0  0  0
  -11.0813  -14.1657    6.6623 C   0  0  0  0  0  0  0  0  0  0  0  0
  -11.4293  -12.8260    6.5454 C   0  0  0  0  0  0  0  0  0  0  0  0
  -11.8198  -12.1429    7.6924 C   0  0  0  0  0  0  0  0  0  0  0  0
  -12.1704  -10.8620    7.6244 N   0  0  0  0  0  0  0  0  0  0  0  0
  -11.2816  -12.4840    5.2690 N   0  0  0  0  0  0  0  0  0  0  0  0
  -10.8585  -13.5580    4.6060 C   0  0  0  0  0  0  0  0  0  0  0  0
  -10.7356  -14.5823    5.4475 N   0  0  0  0  0  0  0  0  0  0  0  0
  1  7  2  0  0  0  0
  1  2  1  0  0  0  0
  2  3  1  0  0  0  0
  2  4  2  0  0  0  0
  4  5  1  0  0  0  0
  5  6  2  0  0  0  0
  5 11  1  0  0  0  0
  6  7  1  0  0  0  0
  6  9  1  0  0  0  0
  7  8  1  0  0  0  0
  9 10  1  0  0  0  0
 10 11  2  0  0  0  0
M  END
>  <CHROM.1>
-11.40321134,-13.36068826,7.26631804,2.02365443,-1.25007063,2.14249281

>  <Name>
ligand

>  <RI>
0

>  <Rbt.Current_Directory>
/home/itssahil/PROJECTS/Mol_Feturizer/New_Systems/rnas/2b57

>  <Rbt.Executable>
rbdock ($Id: //depot/dev/client3/rdock/2013.1/src/exe/rbdock.cxx#4 $)

>  <Rbt.Library>
libRbt.so (2013.1, Build901 2013/11/27)

>  <Rbt.Parameter_File>
/export/apps/rDock/src/rDock_2013.1_src/data/scripts/dock_solv.prm

>  <Rbt.Receptor>
prm/pocket_docking_4.prm

>  <SCORE>
-11.5705

>  <SCORE.INTER>
-11.5705

>  <SCORE.INTER.CONST>
1

>  <SCORE.INTER.POLAR>
0

>  <SCORE.INTER.ROT>
0

>  <SCORE.INTER.SOLV>
21.5945

>  <SCORE.INTER.VDW>
-18.5118

>  <SCORE.INTER.norm>
-1.05186

>  <SCORE.INTRA>
0

>  <SCORE.INTRA.DIHEDRAL>
0

>  <SCORE.INTRA.DIHEDRAL.0>
0

>  <SCORE.INTRA.POLAR>
0

>  <SCORE.INTRA.POLAR.0>
0

>  <SCORE.INTRA.REPUL>
0

>  <SCORE.INTRA.REPUL.0>
0

>  <SCORE.INTRA.SOLV>
0

>  <SCORE.INTRA.SOLV.lig_0>
-48.3454

>  <SCORE.INTRA.VDW>
0

>  <SCORE.INTRA.VDW.0>
0

>  <SCORE.INTRA.norm>
0

>  <SCORE.RESTR>
0

>  <SCORE.RESTR.CAVITY>
0

>  <SCORE.RESTR.norm>
0

>  <SCORE.SYSTEM>
0

>  <SCORE.SYSTEM.CONST>
0

>  <SCORE.SYSTEM.DIHEDRAL>
0

>  <SCORE.SYSTEM.SOLV>
0

>  <SCORE.SYSTEM.norm>
0

>  <SCORE.heavy>
11

>  <SCORE.norm>
-1.05186

>  <RMSD>
0.605

$$$$
ligand
 OpenBabel01301917033D
libRbt.so/2013.1/901 2013/11/27
 11 12  0  0  0  0  0  0  0  0999 V2000
  -11.8574  -12.7721    8.8567 N   0  0  0  0  0  0  0  0  0  0  0  0
  -11.5049  -14.0640    8.9542 C   0  0  0  0  0  0  0  0  0  0  0  0
  -11.5265  -14.6668   10.1395 N   0  0  0  0  0  0  0  0  0  0  0  0
  -11.1206  -14.7506    7.8669 N   0  0  0  0  0  0  0  0  0  0  0  0
  -11.0782  -14.1596    6.6636 C   0  0  0  0  0  0  0  0  0  0  0  0
  -11.4377  -12.8240    6.5349 C   0  0  0  0  0  0  0  0  0  0  0  0
  -11.8349  -12.1343    7.6757 C   0  0  0  0  0  0  0  0  0  0  0  0
  -12.1966  -10.8572    7.5964 N   0  0  0  0  0  0  0  0  0  0  0  0
  -11.2922  -12.4920    5.2556 N   0  0  0  0  0  0  0  0  0  0  0  0
  -10.8595  -13.5680    4.6022 C   0  0  0  0  0  0  0  0  0  0  0  0
  -10.7282  -14.5838    5.4528 N   0  0  0  0  0  0  0  0  0  0  0  0
  1  7  2  0  0  0  0
  1  2  1  0  0  0  0
  2  3  1  0  0  0  0
  2  4  2  0  0  0  0
  4  5  1  0  0  0  0
  5  6  2  0  0  0  0
  5 11  1  0  0  0  0
  6  7  1  0  0  0  0
  6  9  1  0  0  0  0
  7  8  1  0  0  0  0
  9 10  1  0  0  0  0
 10 11  2  0  0  0  0
M  END
>  <CHROM.1>
-11.40751192,-13.35217874,7.26048045,2.01077093,-1.24242056,2.12156206

>  <Name>
ligand

>  <RI>
0

>  <Rbt.Current_Directory>
/home/itssahil/PROJECTS/Mol_Feturizer/New_Systems/rnas/2b57

>  <Rbt.Executable>
rbdock ($Id: //depot/dev/client3/rdock/2013.1/src/exe/rbdock.cxx#4 $)

>  <Rbt.Library>
libRbt.so (2013.1, Build901 2013/11/27)

>  <Rbt.Parameter_File>
/export/apps/rDock/src/rDock_2013.1_src/data/scripts/dock_solv.prm

>  <Rbt.Receptor>
prm/pocket_docking_4.prm

>  <SCORE>
-11.5427

>  <SCORE.INTER>
-11.5427

>  <SCORE.INTER.CONST>
1

>  <SCORE.INTER.POLAR>
0

>  <SCORE.INTER.ROT>
0

>  <SCORE.INTER.SOLV>
21.4554

>  <SCORE.INTER.VDW>
-18.447

>  <SCORE.INTER.norm>
-1.04934

>  <SCORE.INTRA>
0

>  <SCORE.INTRA.DIHEDRAL>
0

>  <SCORE.INTRA.DIHEDRAL.0>
0

>  <SCORE.INTRA.POLAR>
0

>  <SCORE.INTRA.POLAR.0>
0

>  <SCORE.INTRA.REPUL>
0

>  <SCORE.INTRA.REPUL.0>
0

>  <SCORE.INTRA.SOLV>
0

>  <SCORE.INTRA.SOLV.lig_0>
-48.3454

>  <SCORE.INTRA.VDW>
0

>  <SCORE.INTRA.VDW.0>
0

>  <SCORE.INTRA.norm>
0

>  <SCORE.RESTR>
0

>  <SCORE.RESTR.CAVITY>
0

>  <SCORE.RESTR.norm>
0

>  <SCORE.SYSTEM>
0

>  <SCORE.SYSTEM.CONST>
0

>  <SCORE.SYSTEM.DIHEDRAL>
0

>  <SCORE.SYSTEM.SOLV>
0

>  <SCORE.SYSTEM.norm>
0

>  <SCORE.heavy>
11

>  <SCORE.norm>
-1.04934

>  <RMSD>
0.605

$$$$
ligand
 OpenBabel01301917033D
libRbt.so/2013.1/901 2013/11/27
 11 12  0  0  0  0  0  0  0  0999 V2000
  -11.8575  -12.7266    8.8547 N   0  0  0  0  0  0  0  0  0  0  0  0
  -11.4812  -14.0139    8.9185 C   0  0  0  0  0  0  0  0  0  0  0  0
  -11.4963  -14.6492   10.0869 N   0  0  0  0  0  0  0  0  0  0  0  0
  -11.0797  -14.6631    7.8147 N   0  0  0  0  0  0  0  0  0  0  0  0
  -11.0435  -14.0388    6.6282 C   0  0  0  0  0  0  0  0  0  0  0  0
  -11.4274  -12.7071    6.5344 C   0  0  0  0  0  0  0  0  0  0  0  0
  -11.8421  -12.0564    7.6917 C   0  0  0  0  0  0  0  0  0  0  0  0
  -12.2273  -10.7845    7.6456 N   0  0  0  0  0  0  0  0  0  0  0  0
  -11.2829  -12.3374    5.2653 N   0  0  0  0  0  0  0  0  0  0  0  0
  -10.8275  -13.3869    4.5848 C   0  0  0  0  0  0  0  0  0  0  0  0
  -10.6807  -14.4230    5.4078 N   0  0  0  0  0  0  0  0  0  0  0  0
  1  7  2  0  0  0  0
  1  2  1  0  0  0  0
  2  3  1  0  0  0  0
  2  4  2  0  0  0  0
  4  5  1  0  0  0  0
  5  6  2  0  0  0  0
  5 11  1  0  0  0  0
  6  7  1  0  0  0  0
  6  9  1  0  0  0  0
  7  8  1  0  0  0  0
  9 10  1  0  0  0  0
 10 11  2  0  0  0  0
M  END
>  <CHROM.1>
-11.39029257,-13.25423724,7.24536092,1.99212325,-1.22426686,2.13131269

>  <Name>
ligand

>  <RI>
0

>  <Rbt.Current_Directory>
/home/itssahil/PROJECTS/Mol_Feturizer/New_Systems/rnas/2b57

>  <Rbt.Executable>
rbdock ($Id: //depot/dev/client3/rdock/2013.1/src/exe/rbdock.cxx#4 $)

>  <Rbt.Library>
libRbt.so (2013.1, Build901 2013/11/27)

>  <Rbt.Parameter_File>
/export/apps/rDock/src/rDock_2013.1_src/data/scripts/dock_solv.prm

>  <Rbt.Receptor>
prm/pocket_docking_4.prm

>  <SCORE>
-11.4628

>  <SCORE.INTER>
-11.4628

>  <SCORE.INTER.CONST>
1

>  <SCORE.INTER.POLAR>
0

>  <SCORE.INTER.ROT>
0

>  <SCORE.INTER.SOLV>
21.4108

>  <SCORE.INTER.VDW>
-18.3788

>  <SCORE.INTER.norm>
-1.04208

>  <SCORE.INTRA>
0

>  <SCORE.INTRA.DIHEDRAL>
0

>  <SCORE.INTRA.DIHEDRAL.0>
0

>  <SCORE.INTRA.POLAR>
0

>  <SCORE.INTRA.POLAR.0>
0

>  <SCORE.INTRA.REPUL>
0

>  <SCORE.INTRA.REPUL.0>
0

>  <SCORE.INTRA.SOLV>
0

>  <SCORE.INTRA.SOLV.lig_0>
-48.3454

>  <SCORE.INTRA.VDW>
0

>  <SCORE.INTRA.VDW.0>
0

>  <SCORE.INTRA.norm>
0

>  <SCORE.RESTR>
0

>  <SCORE.RESTR.CAVITY>
0

>  <SCORE.RESTR.norm>
0

>  <SCORE.SYSTEM>
0

>  <SCORE.SYSTEM.CONST>
0

>  <SCORE.SYSTEM.DIHEDRAL>
0

>  <SCORE.SYSTEM.SOLV>
0

>  <SCORE.SYSTEM.norm>
0

>  <SCORE.heavy>
11

>  <SCORE.norm>
-1.04208

>  <RMSD>
0.605

$$$$
ligand
 OpenBabel01301917033D
libRbt.so/2013.1/901 2013/11/27
 11 12  0  0  0  0  0  0  0  0999 V2000
  -11.8515  -12.7903    8.8664 N   0  0  0  0  0  0  0  0  0  0  0  0
  -11.5065  -14.0849    8.9542 C   0  0  0  0  0  0  0  0  0  0  0  0
  -11.5311  -14.6963   10.1351 N   0  0  0  0  0  0  0  0  0  0  0  0
  -11.1268  -14.7657    7.8617 N   0  0  0  0  0  0  0  0  0  0  0  0
  -11.0816  -14.1661    6.6628 C   0  0  0  0  0  0  0  0  0  0  0  0
  -11.4333  -12.8275    6.5441 C   0  0  0  0  0  0  0  0  0  0  0  0
  -11.8258  -12.1439    7.6901 C   0  0  0  0  0  0  0  0  0  0  0  0
  -12.1800  -10.8642    7.6204 N   0  0  0  0  0  0  0  0  0  0  0  0
  -11.2864  -12.4869    5.2672 N   0  0  0  0  0  0  0  0  0  0  0  0
  -10.8604  -13.5606    4.6057 C   0  0  0  0  0  0  0  0  0  0  0  0
  -10.7347  -14.5834    5.4487 N   0  0  0  0  0  0  0  0  0  0  0  0
  1  7  2  0  0  0  0
  1  2  1  0  0  0  0
  2  3  1  0  0  0  0
  2  4  2  0  0  0  0
  4  5  1  0  0  0  0
  5  6  2  0  0  0  0
  5 11  1  0  0  0  0
  6  7  1  0  0  0  0
  6  9  1  0  0  0  0
  7  8  1  0  0  0  0
  9 10  1  0  0  0  0
 10 11  2  0  0  0  0
M  END
>  <CHROM.1>
-11.40580033,-13.36118466,7.26575354,2.01914346,-1.24769093,2.13685820

>  <Name>
ligand

>  <RI>
0

>  <Rbt.Current_Directory>
/home/itssahil/PROJECTS/Mol_Feturizer/New_Systems/rnas/2b57

>  <Rbt.Executable>
rbdock ($Id: //depot/dev/client3/rdock/2013.1/src/exe/rbdock.cxx#4 $)

>  <Rbt.Library>
libRbt.so (2013.1, Build901 2013/11/27)

>  <Rbt.Parameter_File>
/export/apps/rDock/src/rDock_2013.1_src/data/scripts/dock_solv.prm

>  <Rbt.Receptor>
prm/pocket_docking_4.prm

>  <SCORE>
-11.5767

>  <SCORE.INTER>
-11.5767

>  <SCORE.INTER.CONST>
1

>  <SCORE.INTER.POLAR>
0

>  <SCORE.INTER.ROT>
0

>  <SCORE.INTER.SOLV>
21.5537

>  <SCORE.INTER.VDW>
-18.5024

>  <SCORE.INTER.norm>
-1.05242

>  <SCORE.INTRA>
0

>  <SCORE.INTRA.DIHEDRAL>
0

>  <SCORE.INTRA.DIHEDRAL.0>
0

>  <SCORE.INTRA.POLAR>
0

>  <SCORE.INTRA.POLAR.0>
0

>  <SCORE.INTRA.REPUL>
0

>  <SCORE.INTRA.REPUL.0>
0

>  <SCORE.INTRA.SOLV>
0

>  <SCORE.INTRA.SOLV.lig_0>
-48.3454

>  <SCORE.INTRA.VDW>
0

>  <SCORE.INTRA.VDW.0>
0

>  <SCORE.INTRA.norm>
0

>  <SCORE.RESTR>
0

>  <SCORE.RESTR.CAVITY>
0

>  <SCORE.RESTR.norm>
0

>  <SCORE.SYSTEM>
0

>  <SCORE.SYSTEM.CONST>
0

>  <SCORE.SYSTEM.DIHEDRAL>
0

>  <SCORE.SYSTEM.SOLV>
0

>  <SCORE.SYSTEM.norm>
0

>  <SCORE.heavy>
11

>  <SCORE.norm>
-1.05242

>  <RMSD>
0.605

$$$$
ligand
 OpenBabel01301917033D
libRbt.so/2013.1/901 2013/11/27
 11 12  0  0  0  0  0  0  0  0999 V2000
  -11.8509  -12.7788    8.8614 N   0  0  0  0  0  0  0  0  0  0  0  0
  -11.5047  -14.0728    8.9529 C   0  0  0  0  0  0  0  0  0  0  0  0
  -11.5293  -14.6810   10.1355 N   0  0  0  0  0  0  0  0  0  0  0  0
  -11.1237  -14.7562    7.8625 N   0  0  0  0  0  0  0  0  0  0  0  0
  -11.0784  -14.1599    6.6620 C   0  0  0  0  0  0  0  0  0  0  0  0
  -11.4313  -12.8219    6.5394 C   0  0  0  0  0  0  0  0  0  0  0  0
  -11.8252  -12.1356    7.6834 C   0  0  0  0  0  0  0  0  0  0  0  0
  -12.1805  -10.8564    7.6100 N   0  0  0  0  0  0  0  0  0  0  0  0
  -11.2841  -12.4847    5.2617 N   0  0  0  0  0  0  0  0  0  0  0  0
  -10.8566  -13.5598    4.6033 C   0  0  0  0  0  0  0  0  0  0  0  0
  -10.7304  -14.5801    5.4491 N   0  0  0  0  0  0  0  0  0  0  0  0
  1  7  2  0  0  0  0
  1  2  1  0  0  0  0
  2  3  1  0  0  0  0
  2  4  2  0  0  0  0
  4  5  1  0  0  0  0
  5  6  2  0  0  0  0
  5 11  1  0  0  0  0
  6  7  1  0  0  0  0
  6  9  1  0  0  0  0
  7  8  1  0  0  0  0
  9 10  1  0  0  0  0
 10 11  2  0  0  0  0
M  END
>  <CHROM.1>
-11.40373152,-13.35361262,7.26253699,2.01894146,-1.24657338,2.13393732

>  <Name>
ligand

>  <RI>
0

>  <Rbt.Current_Directory>
/home/itssahil/PROJECTS/Mol_Feturizer/New_Systems/rnas/2b57

>  <Rbt.Executable>
rbdock ($Id: //depot/dev/client3/rdock/2013.1/src/exe/rbdock.cxx#4 $)

>  <Rbt.Library>
libRbt.so (2013.1, Build901 2013/11/27)

>  <Rbt.Parameter_File>
/export/apps/rDock/src/rDock_2013.1_src/data/scripts/dock_solv.prm

>  <Rbt.Receptor>
prm/pocket_docking_6.prm

>  <SCORE>
-11.565

>  <SCORE.INTER>
-11.565

>  <SCORE.INTER.CONST>
1

>  <SCORE.INTER.POLAR>
0

>  <SCORE.INTER.ROT>
0

>  <SCORE.INTER.SOLV>
21.5285

>  <SCORE.INTER.VDW>
-18.4862

>  <SCORE.INTER.norm>
-1.05136

>  <SCORE.INTRA>
0

>  <SCORE.INTRA.DIHEDRAL>
0

>  <SCORE.INTRA.DIHEDRAL.0>
0

>  <SCORE.INTRA.POLAR>
0

>  <SCORE.INTRA.POLAR.0>
0

>  <SCORE.INTRA.REPUL>
0

>  <SCORE.INTRA.REPUL.0>
0

>  <SCORE.INTRA.SOLV>
0

>  <SCORE.INTRA.SOLV.lig_0>
-48.3454

>  <SCORE.INTRA.VDW>
0

>  <SCORE.INTRA.VDW.0>
0

>  <SCORE.INTRA.norm>
0

>  <SCORE.RESTR>
0

>  <SCORE.RESTR.CAVITY>
0

>  <SCORE.RESTR.norm>
0

>  <SCORE.SYSTEM>
0

>  <SCORE.SYSTEM.CONST>
0

>  <SCORE.SYSTEM.DIHEDRAL>
0

>  <SCORE.SYSTEM.SOLV>
0

>  <SCORE.SYSTEM.norm>
0

>  <SCORE.heavy>
11

>  <SCORE.norm>
-1.05136

>  <RMSD>
0.605

$$$$
ligand
 OpenBabel01301917033D
libRbt.so/2013.1/901 2013/11/27
 11 12  0  0  0  0  0  0  0  0999 V2000
  -11.8540  -12.7707    8.8599 N   0  0  0  0  0  0  0  0  0  0  0  0
  -11.5066  -14.0648    8.9464 C   0  0  0  0  0  0  0  0  0  0  0  0
  -11.5222  -14.6753   10.1279 N   0  0  0  0  0  0  0  0  0  0  0  0
  -11.1334  -14.7459    7.8519 N   0  0  0  0  0  0  0  0  0  0  0  0
  -11.0972  -14.1473    6.6522 C   0  0  0  0  0  0  0  0  0  0  0  0
  -11.4516  -12.8093    6.5349 C   0  0  0  0  0  0  0  0  0  0  0  0
  -11.8372  -12.1253    7.6830 C   0  0  0  0  0  0  0  0  0  0  0  0
  -12.1936  -10.8461    7.6147 N   0  0  0  0  0  0  0  0  0  0  0  0
  -11.3139  -12.4695    5.2567 N   0  0  0  0  0  0  0  0  0  0  0  0
  -10.8909  -13.5431    4.5932 C   0  0  0  0  0  0  0  0  0  0  0  0
  -10.7581  -14.5651    5.4361 N   0  0  0  0  0  0  0  0  0  0  0  0
  1  7  2  0  0  0  0
  1  2  1  0  0  0  0
  2  3  1  0  0  0  0
  2  4  2  0  0  0  0
  4  5  1  0  0  0  0
  5  6  2  0  0  0  0
  5 11  1  0  0  0  0
  6  7  1  0  0  0  0
  6  9  1  0  0  0  0
  7  8  1  0  0  0  0
  9 10  1  0  0  0  0
 10 11  2  0  0  0  0
M  END
>  <CHROM.1>
-11.41842357,-13.34231890,7.25673026,1.99847287,-1.25012118,2.11644543

>  <Name>
ligand

>  <RI>
0

>  <Rbt.Current_Directory>
/home/itssahil/PROJECTS/Mol_Feturizer/New_Systems/rnas/2b57

>  <Rbt.Executable>
rbdock ($Id: //depot/dev/client3/rdock/2013.1/src/exe/rbdock.cxx#4 $)

>  <Rbt.Library>
libRbt.so (2013.1, Build901 2013/11/27)

>  <Rbt.Parameter_File>
/export/apps/rDock/src/rDock_2013.1_src/data/scripts/dock_solv.prm

>  <Rbt.Receptor>
prm/pocket_docking_3.prm

>  <SCORE>
-11.5455

>  <SCORE.INTER>
-11.5455

>  <SCORE.INTER.CONST>
1

>  <SCORE.INTER.POLAR>
0

>  <SCORE.INTER.ROT>
0

>  <SCORE.INTER.SOLV>
21.5008

>  <SCORE.INTER.VDW>
-18.4639

>  <SCORE.INTER.norm>
-1.04959

>  <SCORE.INTRA>
0

>  <SCORE.INTRA.DIHEDRAL>
0

>  <SCORE.INTRA.DIHEDRAL.0>
0

>  <SCORE.INTRA.POLAR>
0

>  <SCORE.INTRA.POLAR.0>
0

>  <SCORE.INTRA.REPUL>
0

>  <SCORE.INTRA.REPUL.0>
0

>  <SCORE.INTRA.SOLV>
0

>  <SCORE.INTRA.SOLV.lig_0>
-48.3454

>  <SCORE.INTRA.VDW>
0

>  <SCORE.INTRA.VDW.0>
0

>  <SCORE.INTRA.norm>
0

>  <SCORE.RESTR>
0

>  <SCORE.RESTR.CAVITY>
0

>  <SCORE.RESTR.norm>
0

>  <SCORE.SYSTEM>
0

>  <SCORE.SYSTEM.CONST>
0

>  <SCORE.SYSTEM.DIHEDRAL>
0

>  <SCORE.SYSTEM.SOLV>
0

>  <SCORE.SYSTEM.norm>
0

>  <SCORE.heavy>
11

>  <SCORE.norm>
-1.04959

>  <RMSD>
0.606

$$$$
ligand
 OpenBabel01301917033D
libRbt.so/2013.1/901 2013/11/27
 11 12  0  0  0  0  0  0  0  0999 V2000
  -11.8411  -12.7644    8.8608 N   0  0  0  0  0  0  0  0  0  0  0  0
  -11.5040  -14.0611    8.9484 C   0  0  0  0  0  0  0  0  0  0  0  0
  -11.5247  -14.6705   10.1304 N   0  0  0  0  0  0  0  0  0  0  0  0
  -11.1359  -14.7460    7.8545 N   0  0  0  0  0  0  0  0  0  0  0  0
  -11.0946  -14.1486    6.6544 C   0  0  0  0  0  0  0  0  0  0  0  0
  -11.4384  -12.8079    6.5359 C   0  0  0  0  0  0  0  0  0  0  0  0
  -11.8190  -12.1201    7.6834 C   0  0  0  0  0  0  0  0  0  0  0  0
  -12.1653  -10.8381    7.6140 N   0  0  0  0  0  0  0  0  0  0  0  0
  -11.2977  -12.4703    5.2575 N   0  0  0  0  0  0  0  0  0  0  0  0
  -10.8830  -13.5477    4.5949 C   0  0  0  0  0  0  0  0  0  0  0  0
  -10.7584  -14.5700    5.4386 N   0  0  0  0  0  0  0  0  0  0  0  0
  1  7  2  0  0  0  0
  1  2  1  0  0  0  0
  2  3  1  0  0  0  0
  2  4  2  0  0  0  0
  4  5  1  0  0  0  0
  5  6  2  0  0  0  0
  5 11  1  0  0  0  0
  6  7  1  0  0  0  0
  6  9  1  0  0  0  0
  7  8  1  0  0  0  0
  9 10  1  0  0  0  0
 10 11  2  0  0  0  0
M  END
>  <CHROM.1>
-11.40965755,-13.34066012,7.25817286,2.01247670,-1.25667477,2.12896919

>  <Name>
ligand

>  <RI>
0

>  <Rbt.Current_Directory>
/home/itssahil/PROJECTS/Mol_Feturizer/New_Systems/rnas/2b57

>  <Rbt.Executable>
rbdock ($Id: //depot/dev/client3/rdock/2013.1/src/exe/rbdock.cxx#4 $)

>  <Rbt.Library>
libRbt.so (2013.1, Build901 2013/11/27)

>  <Rbt.Parameter_File>
/export/apps/rDock/src/rDock_2013.1_src/data/scripts/dock_solv.prm

>  <Rbt.Receptor>
prm/blind_docking_80.prm

>  <SCORE>
-11.5477

>  <SCORE.INTER>
-11.5477

>  <SCORE.INTER.CONST>
1

>  <SCORE.INTER.POLAR>
0

>  <SCORE.INTER.ROT>
0

>  <SCORE.INTER.SOLV>
21.5939

>  <SCORE.INTER.VDW>
-18.4964

>  <SCORE.INTER.norm>
-1.04979

>  <SCORE.INTRA>
0

>  <SCORE.INTRA.DIHEDRAL>
0

>  <SCORE.INTRA.DIHEDRAL.0>
0

>  <SCORE.INTRA.POLAR>
0

>  <SCORE.INTRA.POLAR.0>
0

>  <SCORE.INTRA.REPUL>
0

>  <SCORE.INTRA.REPUL.0>
0

>  <SCORE.INTRA.SOLV>
0

>  <SCORE.INTRA.SOLV.lig_0>
-48.3454

>  <SCORE.INTRA.VDW>
0

>  <SCORE.INTRA.VDW.0>
0

>  <SCORE.INTRA.norm>
0

>  <SCORE.RESTR>
0

>  <SCORE.RESTR.CAVITY>
0

>  <SCORE.RESTR.norm>
0

>  <SCORE.SYSTEM>
0

>  <SCORE.SYSTEM.CONST>
0

>  <SCORE.SYSTEM.DIHEDRAL>
0

>  <SCORE.SYSTEM.SOLV>
0

>  <SCORE.SYSTEM.norm>
0

>  <SCORE.heavy>
11

>  <SCORE.norm>
-1.04979

>  <RMSD>
0.607

$$$$
ligand
 OpenBabel01301917033D
libRbt.so/2013.1/901 2013/11/27
 11 12  0  0  0  0  0  0  0  0999 V2000
  -11.8356  -12.7620    8.8602 N   0  0  0  0  0  0  0  0  0  0  0  0
  -11.4841  -14.0546    8.9510 C   0  0  0  0  0  0  0  0  0  0  0  0
  -11.4947  -14.6604   10.1350 N   0  0  0  0  0  0  0  0  0  0  0  0
  -11.1118  -14.7391    7.8582 N   0  0  0  0  0  0  0  0  0  0  0  0
  -11.0806  -14.1452    6.6560 C   0  0  0  0  0  0  0  0  0  0  0  0
  -11.4393  -12.8088    6.5342 C   0  0  0  0  0  0  0  0  0  0  0  0
  -11.8239  -12.1213    7.6806 C   0  0  0  0  0  0  0  0  0  0  0  0
  -12.1844  -10.8435    7.6081 N   0  0  0  0  0  0  0  0  0  0  0  0
  -11.3061  -12.4738    5.2544 N   0  0  0  0  0  0  0  0  0  0  0  0
  -10.8817  -13.5488    4.5940 C   0  0  0  0  0  0  0  0  0  0  0  0
  -10.7435  -14.5670    5.4407 N   0  0  0  0  0  0  0  0  0  0  0  0
  1  7  2  0  0  0  0
  1  2  1  0  0  0  0
  2  3  1  0  0  0  0
  2  4  2  0  0  0  0
  4  5  1  0  0  0  0
  5  6  2  0  0  0  0
  5 11  1  0  0  0  0
  6  7  1  0  0  0  0
  6  9  1  0  0  0  0
  7  8  1  0  0  0  0
  9 10  1  0  0  0  0
 10 11  2  0  0  0  0
M  END
>  <CHROM.1>
-11.40263141,-13.33877792,7.25814070,1.98626924,-1.24891375,2.10080526

>  <Name>
ligand

>  <RI>
0

>  <Rbt.Current_Directory>
/home/itssahil/PROJECTS/Mol_Feturizer/New_Systems/rnas/2b57

>  <Rbt.Executable>
rbdock ($Id: //depot/dev/client3/rdock/2013.1/src/exe/rbdock.cxx#4 $)

>  <Rbt.Library>
libRbt.so (2013.1, Build901 2013/11/27)

>  <Rbt.Parameter_File>
/export/apps/rDock/src/rDock_2013.1_src/data/scripts/dock_solv.prm

>  <Rbt.Receptor>
prm/blind_docking_80.prm

>  <SCORE>
-11.4989

>  <SCORE.INTER>
-11.4989

>  <SCORE.INTER.CONST>
1

>  <SCORE.INTER.POLAR>
0

>  <SCORE.INTER.ROT>
0

>  <SCORE.INTER.SOLV>
21.5093

>  <SCORE.INTER.VDW>
-18.4357

>  <SCORE.INTER.norm>
-1.04536

>  <SCORE.INTRA>
0

>  <SCORE.INTRA.DIHEDRAL>
0

>  <SCORE.INTRA.DIHEDRAL.0>
0

>  <SCORE.INTRA.POLAR>
0

>  <SCORE.INTRA.POLAR.0>
0

>  <SCORE.INTRA.REPUL>
0

>  <SCORE.INTRA.REPUL.0>
0

>  <SCORE.INTRA.SOLV>
0

>  <SCORE.INTRA.SOLV.lig_0>
-48.3454

>  <SCORE.INTRA.VDW>
0

>  <SCORE.INTRA.VDW.0>
0

>  <SCORE.INTRA.norm>
0

>  <SCORE.RESTR>
0

>  <SCORE.RESTR.CAVITY>
0

>  <SCORE.RESTR.norm>
0

>  <SCORE.SYSTEM>
0

>  <SCORE.SYSTEM.CONST>
0

>  <SCORE.SYSTEM.DIHEDRAL>
0

>  <SCORE.SYSTEM.SOLV>
0

>  <SCORE.SYSTEM.norm>
0

>  <SCORE.heavy>
11

>  <SCORE.norm>
-1.04536

>  <RMSD>
0.607

$$$$
ligand
 OpenBabel01301917033D
libRbt.so/2013.1/901 2013/11/27
 11 12  0  0  0  0  0  0  0  0999 V2000
  -11.8449  -12.7665    8.8576 N   0  0  0  0  0  0  0  0  0  0  0  0
  -11.5003  -14.0606    8.9534 C   0  0  0  0  0  0  0  0  0  0  0  0
  -11.5242  -14.6645   10.1382 N   0  0  0  0  0  0  0  0  0  0  0  0
  -11.1216  -14.7485    7.8650 N   0  0  0  0  0  0  0  0  0  0  0  0
  -11.0769  -14.1567    6.6623 C   0  0  0  0  0  0  0  0  0  0  0  0
  -11.4282  -12.8187    6.5353 C   0  0  0  0  0  0  0  0  0  0  0  0
  -11.8197  -12.1277    7.6772 C   0  0  0  0  0  0  0  0  0  0  0  0
  -12.1735  -10.8483    7.5995 N   0  0  0  0  0  0  0  0  0  0  0  0
  -11.2821  -12.4863    5.2561 N   0  0  0  0  0  0  0  0  0  0  0  0
  -10.8569  -13.5644    4.6012 C   0  0  0  0  0  0  0  0  0  0  0  0
  -10.7310  -14.5818    5.4506 N   0  0  0  0  0  0  0  0  0  0  0  0
  1  7  2  0  0  0  0
  1  2  1  0  0  0  0
  2  3  1  0  0  0  0
  2  4  2  0  0  0  0
  4  5  1  0  0  0  0
  5  6  2  0  0  0  0
  5 11  1  0  0  0  0
  6  7  1  0  0  0  0
  6  9  1  0  0  0  0
  7  8  1  0  0  0  0
  9 10  1  0  0  0  0
 10 11  2  0  0  0  0
M  END
>  <CHROM.1>
-11.40045365,-13.34776926,7.26027356,2.01792400,-1.24835713,2.12931426

>  <Name>
ligand

>  <RI>
0

>  <Rbt.Current_Directory>
/home/itssahil/PROJECTS/Mol_Feturizer/New_Systems/rnas/2b57

>  <Rbt.Executable>
rbdock ($Id: //depot/dev/client3/rdock/2013.1/src/exe/rbdock.cxx#4 $)

>  <Rbt.Library>
libRbt.so (2013.1, Build901 2013/11/27)

>  <Rbt.Parameter_File>
/export/apps/rDock/src/rDock_2013.1_src/data/scripts/dock_solv.prm

>  <Rbt.Receptor>
prm/pocket_docking_4.prm

>  <SCORE>
-11.5816

>  <SCORE.INTER>
-11.5816

>  <SCORE.INTER.CONST>
1

>  <SCORE.INTER.POLAR>
0

>  <SCORE.INTER.ROT>
0

>  <SCORE.INTER.SOLV>
21.5293

>  <SCORE.INTER.VDW>
-18.4975

>  <SCORE.INTER.norm>
-1.05287

>  <SCORE.INTRA>
0

>  <SCORE.INTRA.DIHEDRAL>
0

>  <SCORE.INTRA.DIHEDRAL.0>
0

>  <SCORE.INTRA.POLAR>
0

>  <SCORE.INTRA.POLAR.0>
0

>  <SCORE.INTRA.REPUL>
0

>  <SCORE.INTRA.REPUL.0>
0

>  <SCORE.INTRA.SOLV>
0

>  <SCORE.INTRA.SOLV.lig_0>
-48.3454

>  <SCORE.INTRA.VDW>
0

>  <SCORE.INTRA.VDW.0>
0

>  <SCORE.INTRA.norm>
0

>  <SCORE.RESTR>
0

>  <SCORE.RESTR.CAVITY>
0

>  <SCORE.RESTR.norm>
0

>  <SCORE.SYSTEM>
0

>  <SCORE.SYSTEM.CONST>
0

>  <SCORE.SYSTEM.DIHEDRAL>
0

>  <SCORE.SYSTEM.SOLV>
0

>  <SCORE.SYSTEM.norm>
0

>  <SCORE.heavy>
11

>  <SCORE.norm>
-1.05287

>  <RMSD>
0.607

$$$$
ligand
 OpenBabel01301917033D
libRbt.so/2013.1/901 2013/11/27
 11 12  0  0  0  0  0  0  0  0999 V2000
  -11.8490  -12.7680    8.8561 N   0  0  0  0  0  0  0  0  0  0  0  0
  -11.4641  -14.0512    8.9449 C   0  0  0  0  0  0  0  0  0  0  0  0
  -11.4640  -14.6603   10.1273 N   0  0  0  0  0  0  0  0  0  0  0  0
  -11.0693  -14.7226    7.8520 N   0  0  0  0  0  0  0  0  0  0  0  0
  -11.0486  -14.1248    6.6515 C   0  0  0  0  0  0  0  0  0  0  0  0
  -11.4416  -12.7979    6.5317 C   0  0  0  0  0  0  0  0  0  0  0  0
  -11.8490  -12.1239    7.6782 C   0  0  0  0  0  0  0  0  0  0  0  0
  -12.2425  -10.8557    7.6075 N   0  0  0  0  0  0  0  0  0  0  0  0
  -11.3117  -12.4560    5.2534 N   0  0  0  0  0  0  0  0  0  0  0  0
  -10.8564  -13.5177    4.5920 C   0  0  0  0  0  0  0  0  0  0  0  0
  -10.6953  -14.5342    5.4365 N   0  0  0  0  0  0  0  0  0  0  0  0
  1  7  2  0  0  0  0
  1  2  1  0  0  0  0
  2  3  1  0  0  0  0
  2  4  2  0  0  0  0
  4  5  1  0  0  0  0
  5  6  2  0  0  0  0
  5 11  1  0  0  0  0
  6  7  1  0  0  0  0
  6  9  1  0  0  0  0
  7  8  1  0  0  0  0
  9 10  1  0  0  0  0
 10 11  2  0  0  0  0
M  END
>  <CHROM.1>
-11.39417757,-13.32875871,7.25437512,1.95822156,-1.22401826,2.07703244

>  <Name>
ligand

>  <RI>
0

>  <Rbt.Current_Directory>
/home/itssahil/PROJECTS/Mol_Feturizer/New_Systems/rnas/2b57

>  <Rbt.Executable>
rbdock ($Id: //depot/dev/client3/rdock/2013.1/src/exe/rbdock.cxx#4 $)

>  <Rbt.Library>
libRbt.so (2013.1, Build901 2013/11/27)

>  <Rbt.Parameter_File>
/export/apps/rDock/src/rDock_2013.1_src/data/scripts/dock_solv.prm

>  <Rbt.Receptor>
prm/pocket_docking_5.prm

>  <SCORE>
-11.4646

>  <SCORE.INTER>
-11.4646

>  <SCORE.INTER.CONST>
1

>  <SCORE.INTER.POLAR>
0

>  <SCORE.INTER.ROT>
0

>  <SCORE.INTER.SOLV>
21.302

>  <SCORE.INTER.VDW>
-18.3437

>  <SCORE.INTER.norm>
-1.04223

>  <SCORE.INTRA>
0

>  <SCORE.INTRA.DIHEDRAL>
0

>  <SCORE.INTRA.DIHEDRAL.0>
0

>  <SCORE.INTRA.POLAR>
0

>  <SCORE.INTRA.POLAR.0>
0

>  <SCORE.INTRA.REPUL>
0

>  <SCORE.INTRA.REPUL.0>
0

>  <SCORE.INTRA.SOLV>
0

>  <SCORE.INTRA.SOLV.lig_0>
-48.3454

>  <SCORE.INTRA.VDW>
0

>  <SCORE.INTRA.VDW.0>
0

>  <SCORE.INTRA.norm>
0

>  <SCORE.RESTR>
0

>  <SCORE.RESTR.CAVITY>
0

>  <SCORE.RESTR.norm>
0

>  <SCORE.SYSTEM>
0

>  <SCORE.SYSTEM.CONST>
0

>  <SCORE.SYSTEM.DIHEDRAL>
0

>  <SCORE.SYSTEM.SOLV>
0

>  <SCORE.SYSTEM.norm>
0

>  <SCORE.heavy>
11

>  <SCORE.norm>
-1.04223

>  <RMSD>
0.607

$$$$
ligand
 OpenBabel01301917033D
libRbt.so/2013.1/901 2013/11/27
 11 12  0  0  0  0  0  0  0  0999 V2000
  -11.8542  -12.7704    8.8585 N   0  0  0  0  0  0  0  0  0  0  0  0
  -11.5080  -14.0648    8.9448 C   0  0  0  0  0  0  0  0  0  0  0  0
  -11.5241  -14.6754   10.1263 N   0  0  0  0  0  0  0  0  0  0  0  0
  -11.1355  -14.7462    7.8503 N   0  0  0  0  0  0  0  0  0  0  0  0
  -11.0988  -14.1475    6.6506 C   0  0  0  0  0  0  0  0  0  0  0  0
  -11.4519  -12.8092    6.5334 C   0  0  0  0  0  0  0  0  0  0  0  0
  -11.8369  -12.1249    7.6816 C   0  0  0  0  0  0  0  0  0  0  0  0
  -12.1921  -10.8454    7.6135 N   0  0  0  0  0  0  0  0  0  0  0  0
  -11.3141  -12.4694    5.2553 N   0  0  0  0  0  0  0  0  0  0  0  0
  -10.8921  -13.5433    4.5916 C   0  0  0  0  0  0  0  0  0  0  0  0
  -10.7601  -14.5655    5.4344 N   0  0  0  0  0  0  0  0  0  0  0  0
  1  7  2  0  0  0  0
  1  2  1  0  0  0  0
  2  3  1  0  0  0  0
  2  4  2  0  0  0  0
  4  5  1  0  0  0  0
  5  6  2  0  0  0  0
  5 11  1  0  0  0  0
  6  7  1  0  0  0  0
  6  9  1  0  0  0  0
  7  8  1  0  0  0  0
  9 10  1  0  0  0  0
 10 11  2  0  0  0  0
M  END
>  <CHROM.1>
-11.41923485,-13.34228566,7.25522905,1.99979920,-1.25093423,2.11779283

>  <Name>
ligand

>  <RI>
0

>  <Rbt.Current_Directory>
/home/itssahil/PROJECTS/Mol_Feturizer/New_Systems/rnas/2b57

>  <Rbt.Executable>
rbdock ($Id: //depot/dev/client3/rdock/2013.1/src/exe/rbdock.cxx#4 $)

>  <Rbt.Library>
libRbt.so (2013.1, Build901 2013/11/27)

>  <Rbt.Parameter_File>
/export/apps/rDock/src/rDock_2013.1_src/data/scripts/dock_solv.prm

>  <Rbt.Receptor>
prm/pocket_docking_5.prm

>  <SCORE>
-11.5464

>  <SCORE.INTER>
-11.5464

>  <SCORE.INTER.CONST>
1

>  <SCORE.INTER.POLAR>
0

>  <SCORE.INTER.ROT>
0

>  <SCORE.INTER.SOLV>
21.5065

>  <SCORE.INTER.VDW>
-18.4664

>  <SCORE.INTER.norm>
-1.04967

>  <SCORE.INTRA>
0

>  <SCORE.INTRA.DIHEDRAL>
0

>  <SCORE.INTRA.DIHEDRAL.0>
0

>  <SCORE.INTRA.POLAR>
0

>  <SCORE.INTRA.POLAR.0>
0

>  <SCORE.INTRA.REPUL>
0

>  <SCORE.INTRA.REPUL.0>
0

>  <SCORE.INTRA.SOLV>
0

>  <SCORE.INTRA.SOLV.lig_0>
-48.3454

>  <SCORE.INTRA.VDW>
0

>  <SCORE.INTRA.VDW.0>
0

>  <SCORE.INTRA.norm>
0

>  <SCORE.RESTR>
0

>  <SCORE.RESTR.CAVITY>
0

>  <SCORE.RESTR.norm>
0

>  <SCORE.SYSTEM>
0

>  <SCORE.SYSTEM.CONST>
0

>  <SCORE.SYSTEM.DIHEDRAL>
0

>  <SCORE.SYSTEM.SOLV>
0

>  <SCORE.SYSTEM.norm>
0

>  <SCORE.heavy>
11

>  <SCORE.norm>
-1.04967

>  <RMSD>
0.607

$$$$
ligand
 OpenBabel01301917033D
libRbt.so/2013.1/901 2013/11/27
 11 12  0  0  0  0  0  0  0  0999 V2000
  -11.8365  -12.7621    8.8618 N   0  0  0  0  0  0  0  0  0  0  0  0
  -11.4910  -14.0564    8.9529 C   0  0  0  0  0  0  0  0  0  0  0  0
  -11.4990  -14.6602   10.1380 N   0  0  0  0  0  0  0  0  0  0  0  0
  -11.1274  -14.7444    7.8595 N   0  0  0  0  0  0  0  0  0  0  0  0
  -11.0991  -14.1526    6.6562 C   0  0  0  0  0  0  0  0  0  0  0  0
  -11.4517  -12.8145    6.5340 C   0  0  0  0  0  0  0  0  0  0  0  0
  -11.8273  -12.1234    7.6812 C   0  0  0  0  0  0  0  0  0  0  0  0
  -12.1817  -10.8438    7.6083 N   0  0  0  0  0  0  0  0  0  0  0  0
  -11.3230  -12.4822    5.2530 N   0  0  0  0  0  0  0  0  0  0  0  0
  -10.9070  -13.5604    4.5923 C   0  0  0  0  0  0  0  0  0  0  0  0
  -10.7699  -14.5778    5.4399 N   0  0  0  0  0  0  0  0  0  0  0  0
  1  7  2  0  0  0  0
  1  2  1  0  0  0  0
  2  3  1  0  0  0  0
  2  4  2  0  0  0  0
  4  5  1  0  0  0  0
  5  6  2  0  0  0  0
  5 11  1  0  0  0  0
  6  7  1  0  0  0  0
  6  9  1  0  0  0  0
  7  8  1  0  0  0  0
  9 10  1  0  0  0  0
 10 11  2  0  0  0  0
M  END
>  <CHROM.1>
-11.41414304,-13.34356421,7.25860185,1.98102613,-1.25564644,2.09426039

>  <Name>
ligand

>  <RI>
0

>  <Rbt.Current_Directory>
/home/itssahil/PROJECTS/Mol_Feturizer/New_Systems/rnas/2b57

>  <Rbt.Executable>
rbdock ($Id: //depot/dev/client3/rdock/2013.1/src/exe/rbdock.cxx#4 $)

>  <Rbt.Library>
libRbt.so (2013.1, Build901 2013/11/27)

>  <Rbt.Parameter_File>
/export/apps/rDock/src/rDock_2013.1_src/data/scripts/dock_solv.prm

>  <Rbt.Receptor>
prm/pocket_docking_6.prm

>  <SCORE>
-11.5103

>  <SCORE.INTER>
-11.5103

>  <SCORE.INTER.CONST>
1

>  <SCORE.INTER.POLAR>
0

>  <SCORE.INTER.ROT>
0

>  <SCORE.INTER.SOLV>
21.5267

>  <SCORE.INTER.VDW>
-18.4491

>  <SCORE.INTER.norm>
-1.04639

>  <SCORE.INTRA>
0

>  <SCORE.INTRA.DIHEDRAL>
0

>  <SCORE.INTRA.DIHEDRAL.0>
0

>  <SCORE.INTRA.POLAR>
0

>  <SCORE.INTRA.POLAR.0>
0

>  <SCORE.INTRA.REPUL>
0

>  <SCORE.INTRA.REPUL.0>
0

>  <SCORE.INTRA.SOLV>
0

>  <SCORE.INTRA.SOLV.lig_0>
-48.3454

>  <SCORE.INTRA.VDW>
0

>  <SCORE.INTRA.VDW.0>
0

>  <SCORE.INTRA.norm>
0

>  <SCORE.RESTR>
0

>  <SCORE.RESTR.CAVITY>
0

>  <SCORE.RESTR.norm>
0

>  <SCORE.SYSTEM>
0

>  <SCORE.SYSTEM.CONST>
0

>  <SCORE.SYSTEM.DIHEDRAL>
0

>  <SCORE.SYSTEM.SOLV>
0

>  <SCORE.SYSTEM.norm>
0

>  <SCORE.heavy>
11

>  <SCORE.norm>
-1.04639

>  <RMSD>
0.607

$$$$
ligand
 OpenBabel01301917033D
libRbt.so/2013.1/901 2013/11/27
 11 12  0  0  0  0  0  0  0  0999 V2000
  -11.8490  -12.7914    8.8640 N   0  0  0  0  0  0  0  0  0  0  0  0
  -11.5035  -14.0857    8.9549 C   0  0  0  0  0  0  0  0  0  0  0  0
  -11.5301  -14.6949   10.1369 N   0  0  0  0  0  0  0  0  0  0  0  0
  -11.1213  -14.7683    7.8645 N   0  0  0  0  0  0  0  0  0  0  0  0
  -11.0740  -14.1710    6.6646 C   0  0  0  0  0  0  0  0  0  0  0  0
  -11.4261  -12.8328    6.5426 C   0  0  0  0  0  0  0  0  0  0  0  0
  -11.8213  -12.1473    7.6866 C   0  0  0  0  0  0  0  0  0  0  0  0
  -12.1760  -10.8678    7.6138 N   0  0  0  0  0  0  0  0  0  0  0  0
  -11.2769  -12.4945    5.2654 N   0  0  0  0  0  0  0  0  0  0  0  0
  -10.8489  -13.5692    4.6068 C   0  0  0  0  0  0  0  0  0  0  0  0
  -10.7244  -14.5904    5.4519 N   0  0  0  0  0  0  0  0  0  0  0  0
  1  7  2  0  0  0  0
  1  2  1  0  0  0  0
  2  3  1  0  0  0  0
  2  4  2  0  0  0  0
  4  5  1  0  0  0  0
  5  6  2  0  0  0  0
  5 11  1  0  0  0  0
  6  7  1  0  0  0  0
  6  9  1  0  0  0  0
  7  8  1  0  0  0  0
  9 10  1  0  0  0  0
 10 11  2  0  0  0  0
M  END
>  <CHROM.1>
-11.39980718,-13.36509891,7.26534337,2.02352329,-1.24616845,2.13913519

>  <Name>
ligand

>  <RI>
0

>  <Rbt.Current_Directory>
/home/itssahil/PROJECTS/Mol_Feturizer/New_Systems/rnas/2b57

>  <Rbt.Executable>
rbdock ($Id: //depot/dev/client3/rdock/2013.1/src/exe/rbdock.cxx#4 $)

>  <Rbt.Library>
libRbt.so (2013.1, Build901 2013/11/27)

>  <Rbt.Parameter_File>
/export/apps/rDock/src/rDock_2013.1_src/data/scripts/dock_solv.prm

>  <Rbt.Receptor>
prm/pocket_docking_8.prm

>  <SCORE>
-11.5617

>  <SCORE.INTER>
-11.5617

>  <SCORE.INTER.CONST>
1

>  <SCORE.INTER.POLAR>
0

>  <SCORE.INTER.ROT>
0

>  <SCORE.INTER.SOLV>
21.5531

>  <SCORE.INTER.VDW>
-18.4922

>  <SCORE.INTER.norm>
-1.05106

>  <SCORE.INTRA>
0

>  <SCORE.INTRA.DIHEDRAL>
0

>  <SCORE.INTRA.DIHEDRAL.0>
0

>  <SCORE.INTRA.POLAR>
0

>  <SCORE.INTRA.POLAR.0>
0

>  <SCORE.INTRA.REPUL>
0

>  <SCORE.INTRA.REPUL.0>
0

>  <SCORE.INTRA.SOLV>
0

>  <SCORE.INTRA.SOLV.lig_0>
-48.3454

>  <SCORE.INTRA.VDW>
0

>  <SCORE.INTRA.VDW.0>
0

>  <SCORE.INTRA.norm>
0

>  <SCORE.RESTR>
0

>  <SCORE.RESTR.CAVITY>
0

>  <SCORE.RESTR.norm>
0

>  <SCORE.SYSTEM>
0

>  <SCORE.SYSTEM.CONST>
0

>  <SCORE.SYSTEM.DIHEDRAL>
0

>  <SCORE.SYSTEM.SOLV>
0

>  <SCORE.SYSTEM.norm>
0

>  <SCORE.heavy>
11

>  <SCORE.norm>
-1.05106

>  <RMSD>
0.607

$$$$
ligand
 OpenBabel01301917033D
libRbt.so/2013.1/901 2013/11/27
 11 12  0  0  0  0  0  0  0  0999 V2000
  -11.8556  -12.7711    8.8539 N   0  0  0  0  0  0  0  0  0  0  0  0
  -11.4770  -14.0560    8.9452 C   0  0  0  0  0  0  0  0  0  0  0  0
  -11.4848  -14.6644   10.1279 N   0  0  0  0  0  0  0  0  0  0  0  0
  -11.0804  -14.7299    7.8544 N   0  0  0  0  0  0  0  0  0  0  0  0
  -11.0517  -14.1328    6.6537 C   0  0  0  0  0  0  0  0  0  0  0  0
  -11.4382  -12.8042    6.5314 C   0  0  0  0  0  0  0  0  0  0  0  0
  -11.8476  -12.1277    7.6758 C   0  0  0  0  0  0  0  0  0  0  0  0
  -12.2350  -10.8578    7.6027 N   0  0  0  0  0  0  0  0  0  0  0  0
  -11.3011  -12.4636    5.2535 N   0  0  0  0  0  0  0  0  0  0  0  0
  -10.8477  -13.5277    4.5947 C   0  0  0  0  0  0  0  0  0  0  0  0
  -10.6948  -14.5445    5.4405 N   0  0  0  0  0  0  0  0  0  0  0  0
  1  7  2  0  0  0  0
  1  2  1  0  0  0  0
  2  3  1  0  0  0  0
  2  4  2  0  0  0  0
  4  5  1  0  0  0  0
  5  6  2  0  0  0  0
  5 11  1  0  0  0  0
  6  7  1  0  0  0  0
  6  9  1  0  0  0  0
  7  8  1  0  0  0  0
  9 10  1  0  0  0  0
 10 11  2  0  0  0  0
M  END
>  <CHROM.1>
-11.39631239,-13.33486363,7.25459016,1.97614284,-1.22578102,2.09334187

>  <Name>
ligand

>  <RI>
0

>  <Rbt.Current_Directory>
/home/itssahil/PROJECTS/Mol_Feturizer/New_Systems/rnas/2b57

>  <Rbt.Executable>
rbdock ($Id: //depot/dev/client3/rdock/2013.1/src/exe/rbdock.cxx#4 $)

>  <Rbt.Library>
libRbt.so (2013.1, Build901 2013/11/27)

>  <Rbt.Parameter_File>
/export/apps/rDock/src/rDock_2013.1_src/data/scripts/dock_solv.prm

>  <Rbt.Receptor>
prm/pocket_docking_8.prm

>  <SCORE>
-11.4733

>  <SCORE.INTER>
-11.4733

>  <SCORE.INTER.CONST>
1

>  <SCORE.INTER.POLAR>
0

>  <SCORE.INTER.ROT>
0

>  <SCORE.INTER.SOLV>
21.3269

>  <SCORE.INTER.VDW>
-18.3578

>  <SCORE.INTER.norm>
-1.04303

>  <SCORE.INTRA>
0

>  <SCORE.INTRA.DIHEDRAL>
0

>  <SCORE.INTRA.DIHEDRAL.0>
0

>  <SCORE.INTRA.POLAR>
0

>  <SCORE.INTRA.POLAR.0>
0

>  <SCORE.INTRA.REPUL>
0

>  <SCORE.INTRA.REPUL.0>
0

>  <SCORE.INTRA.SOLV>
0

>  <SCORE.INTRA.SOLV.lig_0>
-48.3454

>  <SCORE.INTRA.VDW>
0

>  <SCORE.INTRA.VDW.0>
0

>  <SCORE.INTRA.norm>
0

>  <SCORE.RESTR>
0

>  <SCORE.RESTR.CAVITY>
0

>  <SCORE.RESTR.norm>
0

>  <SCORE.SYSTEM>
0

>  <SCORE.SYSTEM.CONST>
0

>  <SCORE.SYSTEM.DIHEDRAL>
0

>  <SCORE.SYSTEM.SOLV>
0

>  <SCORE.SYSTEM.norm>
0

>  <SCORE.heavy>
11

>  <SCORE.norm>
-1.04303

>  <RMSD>
0.607

$$$$
ligand
 OpenBabel01301917033D
libRbt.so/2013.1/901 2013/11/27
 11 12  0  0  0  0  0  0  0  0999 V2000
  -11.8493  -12.7282    8.8467 N   0  0  0  0  0  0  0  0  0  0  0  0
  -11.4916  -14.0187    8.9442 C   0  0  0  0  0  0  0  0  0  0  0  0
  -11.4941  -14.6168   10.1321 N   0  0  0  0  0  0  0  0  0  0  0  0
  -11.1212  -14.7085    7.8542 N   0  0  0  0  0  0  0  0  0  0  0  0
  -11.0982  -14.1222    6.6481 C   0  0  0  0  0  0  0  0  0  0  0  0
  -11.4634  -12.7882    6.5193 C   0  0  0  0  0  0  0  0  0  0  0  0
  -11.8459  -12.0951    7.6630 C   0  0  0  0  0  0  0  0  0  0  0  0
  -12.2124  -10.8193    7.5840 N   0  0  0  0  0  0  0  0  0  0  0  0
  -11.3375  -12.4608    5.2368 N   0  0  0  0  0  0  0  0  0  0  0  0
  -10.9112  -13.5382    4.5814 C   0  0  0  0  0  0  0  0  0  0  0  0
  -10.7646  -14.5502    5.4339 N   0  0  0  0  0  0  0  0  0  0  0  0
  1  7  2  0  0  0  0
  1  2  1  0  0  0  0
  2  3  1  0  0  0  0
  2  4  2  0  0  0  0
  4  5  1  0  0  0  0
  5  6  2  0  0  0  0
  5 11  1  0  0  0  0
  6  7  1  0  0  0  0
  6  9  1  0  0  0  0
  7  8  1  0  0  0  0
  9 10  1  0  0  0  0
 10 11  2  0  0  0  0
M  END
>  <CHROM.1>
-11.42104226,-13.31336647,7.24645319,1.96683171,-1.24728869,2.07595822

>  <Name>
ligand

>  <RI>
0

>  <Rbt.Current_Directory>
/home/itssahil/PROJECTS/Mol_Feturizer/New_Systems/rnas/2b57

>  <Rbt.Executable>
rbdock ($Id: //depot/dev/client3/rdock/2013.1/src/exe/rbdock.cxx#4 $)

>  <Rbt.Library>
libRbt.so (2013.1, Build901 2013/11/27)

>  <Rbt.Parameter_File>
/export/apps/rDock/src/rDock_2013.1_src/data/scripts/dock_solv.prm

>  <Rbt.Receptor>
prm/blind_docking_100.prm

>  <SCORE>
-11.4311

>  <SCORE.INTER>
-11.4311

>  <SCORE.INTER.CONST>
1

>  <SCORE.INTER.POLAR>
0

>  <SCORE.INTER.ROT>
0

>  <SCORE.INTER.SOLV>
21.3951

>  <SCORE.INTER.VDW>
-18.3525

>  <SCORE.INTER.norm>
-1.03919

>  <SCORE.INTRA>
0

>  <SCORE.INTRA.DIHEDRAL>
0

>  <SCORE.INTRA.DIHEDRAL.0>
0

>  <SCORE.INTRA.POLAR>
0

>  <SCORE.INTRA.POLAR.0>
0

>  <SCORE.INTRA.REPUL>
0

>  <SCORE.INTRA.REPUL.0>
0

>  <SCORE.INTRA.SOLV>
0

>  <SCORE.INTRA.SOLV.lig_0>
-48.3454

>  <SCORE.INTRA.VDW>
0

>  <SCORE.INTRA.VDW.0>
0

>  <SCORE.INTRA.norm>
0

>  <SCORE.RESTR>
0

>  <SCORE.RESTR.CAVITY>
0

>  <SCORE.RESTR.norm>
0

>  <SCORE.SYSTEM>
0

>  <SCORE.SYSTEM.CONST>
0

>  <SCORE.SYSTEM.DIHEDRAL>
0

>  <SCORE.SYSTEM.SOLV>
0

>  <SCORE.SYSTEM.norm>
0

>  <SCORE.heavy>
11

>  <SCORE.norm>
-1.03919

>  <RMSD>
0.608

$$$$
ligand
 OpenBabel01301917033D
libRbt.so/2013.1/901 2013/11/27
 11 12  0  0  0  0  0  0  0  0999 V2000
  -11.8373  -12.7628    8.8626 N   0  0  0  0  0  0  0  0  0  0  0  0
  -11.5117  -14.0628    8.9444 C   0  0  0  0  0  0  0  0  0  0  0  0
  -11.5347  -14.6764   10.1243 N   0  0  0  0  0  0  0  0  0  0  0  0
  -11.1528  -14.7470    7.8470 N   0  0  0  0  0  0  0  0  0  0  0  0
  -11.1095  -14.1456    6.6490 C   0  0  0  0  0  0  0  0  0  0  0  0
  -11.4415  -12.8014    6.5364 C   0  0  0  0  0  0  0  0  0  0  0  0
  -11.8126  -12.1144    7.6875 C   0  0  0  0  0  0  0  0  0  0  0  0
  -12.1475  -10.8291    7.6237 N   0  0  0  0  0  0  0  0  0  0  0  0
  -11.3013  -12.4603    5.2589 N   0  0  0  0  0  0  0  0  0  0  0  0
  -10.8982  -13.5390    4.5912 C   0  0  0  0  0  0  0  0  0  0  0  0
  -10.7806  -14.5655    5.4308 N   0  0  0  0  0  0  0  0  0  0  0  0
  1  7  2  0  0  0  0
  1  2  1  0  0  0  0
  2  3  1  0  0  0  0
  2  4  2  0  0  0  0
  4  5  1  0  0  0  0
  5  6  2  0  0  0  0
  5 11  1  0  0  0  0
  6  7  1  0  0  0  0
  6  9  1  0  0  0  0
  7  8  1  0  0  0  0
  9 10  1  0  0  0  0
 10 11  2  0  0  0  0
M  END
>  <CHROM.1>
-11.41556736,-13.33704709,7.25662365,2.02054349,-1.26582548,2.14033643

>  <Name>
ligand

>  <RI>
0

>  <Rbt.Current_Directory>
/home/itssahil/PROJECTS/Mol_Feturizer/New_Systems/rnas/2b57

>  <Rbt.Executable>
rbdock ($Id: //depot/dev/client3/rdock/2013.1/src/exe/rbdock.cxx#4 $)

>  <Rbt.Library>
libRbt.so (2013.1, Build901 2013/11/27)

>  <Rbt.Parameter_File>
/export/apps/rDock/src/rDock_2013.1_src/data/scripts/dock_solv.prm

>  <Rbt.Receptor>
prm/pocket_docking_3.prm

>  <SCORE>
-11.5402

>  <SCORE.INTER>
-11.5402

>  <SCORE.INTER.CONST>
1

>  <SCORE.INTER.POLAR>
0

>  <SCORE.INTER.ROT>
0

>  <SCORE.INTER.SOLV>
21.6852

>  <SCORE.INTER.VDW>
-18.5219

>  <SCORE.INTER.norm>
-1.04911

>  <SCORE.INTRA>
0

>  <SCORE.INTRA.DIHEDRAL>
0

>  <SCORE.INTRA.DIHEDRAL.0>
0

>  <SCORE.INTRA.POLAR>
0

>  <SCORE.INTRA.POLAR.0>
0

>  <SCORE.INTRA.REPUL>
0

>  <SCORE.INTRA.REPUL.0>
0

>  <SCORE.INTRA.SOLV>
0

>  <SCORE.INTRA.SOLV.lig_0>
-48.3454

>  <SCORE.INTRA.VDW>
0

>  <SCORE.INTRA.VDW.0>
0

>  <SCORE.INTRA.norm>
0

>  <SCORE.RESTR>
0

>  <SCORE.RESTR.CAVITY>
0

>  <SCORE.RESTR.norm>
0

>  <SCORE.SYSTEM>
0

>  <SCORE.SYSTEM.CONST>
0

>  <SCORE.SYSTEM.DIHEDRAL>
0

>  <SCORE.SYSTEM.SOLV>
0

>  <SCORE.SYSTEM.norm>
0

>  <SCORE.heavy>
11

>  <SCORE.norm>
-1.04911

>  <RMSD>
0.608

$$$$
ligand
 OpenBabel01301917033D
libRbt.so/2013.1/901 2013/11/27
 11 12  0  0  0  0  0  0  0  0999 V2000
  -11.8519  -12.7694    8.8579 N   0  0  0  0  0  0  0  0  0  0  0  0
  -11.5109  -14.0650    8.9458 C   0  0  0  0  0  0  0  0  0  0  0  0
  -11.5316  -14.6747   10.1277 N   0  0  0  0  0  0  0  0  0  0  0  0
  -11.1389  -14.7486    7.8525 N   0  0  0  0  0  0  0  0  0  0  0  0
  -11.0976  -14.1509    6.6525 C   0  0  0  0  0  0  0  0  0  0  0  0
  -11.4453  -12.8113    6.5337 C   0  0  0  0  0  0  0  0  0  0  0  0
  -11.8299  -12.1248    7.6807 C   0  0  0  0  0  0  0  0  0  0  0  0
  -12.1800  -10.8439    7.6109 N   0  0  0  0  0  0  0  0  0  0  0  0
  -11.3037  -12.4729    5.2556 N   0  0  0  0  0  0  0  0  0  0  0  0
  -10.8845  -13.5490    4.5935 C   0  0  0  0  0  0  0  0  0  0  0  0
  -10.7582  -14.5710    5.4372 N   0  0  0  0  0  0  0  0  0  0  0  0
  1  7  2  0  0  0  0
  1  2  1  0  0  0  0
  2  3  1  0  0  0  0
  2  4  2  0  0  0  0
  4  5  1  0  0  0  0
  5  6  2  0  0  0  0
  5 11  1  0  0  0  0
  6  7  1  0  0  0  0
  6  9  1  0  0  0  0
  7  8  1  0  0  0  0
  9 10  1  0  0  0  0
 10 11  2  0  0  0  0
M  END
>  <CHROM.1>
-11.41609484,-13.34401187,7.25589898,2.01155035,-1.25321448,2.12825524

>  <Name>
ligand

>  <RI>
0

>  <Rbt.Current_Directory>
/home/itssahil/PROJECTS/Mol_Feturizer/New_Systems/rnas/2b57

>  <Rbt.Executable>
rbdock ($Id: //depot/dev/client3/rdock/2013.1/src/exe/rbdock.cxx#4 $)

>  <Rbt.Library>
libRbt.so (2013.1, Build901 2013/11/27)

>  <Rbt.Parameter_File>
/export/apps/rDock/src/rDock_2013.1_src/data/scripts/dock_solv.prm

>  <Rbt.Receptor>
prm/pocket_docking_4.prm

>  <SCORE>
-11.5504

>  <SCORE.INTER>
-11.5504

>  <SCORE.INTER.CONST>
1

>  <SCORE.INTER.POLAR>
0

>  <SCORE.INTER.ROT>
0

>  <SCORE.INTER.SOLV>
21.5447

>  <SCORE.INTER.VDW>
-18.4818

>  <SCORE.INTER.norm>
-1.05003

>  <SCORE.INTRA>
0

>  <SCORE.INTRA.DIHEDRAL>
0

>  <SCORE.INTRA.DIHEDRAL.0>
0

>  <SCORE.INTRA.POLAR>
0

>  <SCORE.INTRA.POLAR.0>
0

>  <SCORE.INTRA.REPUL>
0

>  <SCORE.INTRA.REPUL.0>
0

>  <SCORE.INTRA.SOLV>
0

>  <SCORE.INTRA.SOLV.lig_0>
-48.3454

>  <SCORE.INTRA.VDW>
0

>  <SCORE.INTRA.VDW.0>
0

>  <SCORE.INTRA.norm>
0

>  <SCORE.RESTR>
0

>  <SCORE.RESTR.CAVITY>
0

>  <SCORE.RESTR.norm>
0

>  <SCORE.SYSTEM>
0

>  <SCORE.SYSTEM.CONST>
0

>  <SCORE.SYSTEM.DIHEDRAL>
0

>  <SCORE.SYSTEM.SOLV>
0

>  <SCORE.SYSTEM.norm>
0

>  <SCORE.heavy>
11

>  <SCORE.norm>
-1.05003

>  <RMSD>
0.608

$$$$
ligand
 OpenBabel01301917033D
libRbt.so/2013.1/901 2013/11/27
 11 12  0  0  0  0  0  0  0  0999 V2000
  -11.8786  -12.7380    8.8494 N   0  0  0  0  0  0  0  0  0  0  0  0
  -11.5015  -14.0251    8.9102 C   0  0  0  0  0  0  0  0  0  0  0  0
  -11.5204  -14.6645   10.0764 N   0  0  0  0  0  0  0  0  0  0  0  0
  -11.0952  -14.6703    7.8058 N   0  0  0  0  0  0  0  0  0  0  0  0
  -11.0550  -14.0419    6.6216 C   0  0  0  0  0  0  0  0  0  0  0  0
  -11.4398  -12.7102    6.5308 C   0  0  0  0  0  0  0  0  0  0  0  0
  -11.8594  -12.0639    7.6887 C   0  0  0  0  0  0  0  0  0  0  0  0
  -12.2455  -10.7922    7.6455 N   0  0  0  0  0  0  0  0  0  0  0  0
  -11.2908  -12.3362    5.2635 N   0  0  0  0  0  0  0  0  0  0  0  0
  -10.8318  -13.3829    4.5812 C   0  0  0  0  0  0  0  0  0  0  0  0
  -10.6873  -14.4217    5.4013 N   0  0  0  0  0  0  0  0  0  0  0  0
  1  7  2  0  0  0  0
  1  2  1  0  0  0  0
  2  3  1  0  0  0  0
  2  4  2  0  0  0  0
  4  5  1  0  0  0  0
  5  6  2  0  0  0  0
  5 11  1  0  0  0  0
  6  7  1  0  0  0  0
  6  9  1  0  0  0  0
  7  8  1  0  0  0  0
  9 10  1  0  0  0  0
 10 11  2  0  0  0  0
M  END
>  <CHROM.1>
-11.40485026,-13.25978082,7.24003854,2.00015083,-1.22149933,2.14225166

>  <Name>
ligand

>  <RI>
0

>  <Rbt.Current_Directory>
/home/itssahil/PROJECTS/Mol_Feturizer/New_Systems/rnas/2b57

>  <Rbt.Executable>
rbdock ($Id: //depot/dev/client3/rdock/2013.1/src/exe/rbdock.cxx#4 $)

>  <Rbt.Library>
libRbt.so (2013.1, Build901 2013/11/27)

>  <Rbt.Parameter_File>
/export/apps/rDock/src/rDock_2013.1_src/data/scripts/dock_solv.prm

>  <Rbt.Receptor>
prm/pocket_docking_5.prm

>  <SCORE>
-11.4497

>  <SCORE.INTER>
-11.4497

>  <SCORE.INTER.CONST>
1

>  <SCORE.INTER.POLAR>
0

>  <SCORE.INTER.ROT>
0

>  <SCORE.INTER.SOLV>
21.3541

>  <SCORE.INTER.VDW>
-18.3511

>  <SCORE.INTER.norm>
-1.04088

>  <SCORE.INTRA>
0

>  <SCORE.INTRA.DIHEDRAL>
0

>  <SCORE.INTRA.DIHEDRAL.0>
0

>  <SCORE.INTRA.POLAR>
0

>  <SCORE.INTRA.POLAR.0>
0

>  <SCORE.INTRA.REPUL>
0

>  <SCORE.INTRA.REPUL.0>
0

>  <SCORE.INTRA.SOLV>
0

>  <SCORE.INTRA.SOLV.lig_0>
-48.3454

>  <SCORE.INTRA.VDW>
0

>  <SCORE.INTRA.VDW.0>
0

>  <SCORE.INTRA.norm>
0

>  <SCORE.RESTR>
0

>  <SCORE.RESTR.CAVITY>
0

>  <SCORE.RESTR.norm>
0

>  <SCORE.SYSTEM>
0

>  <SCORE.SYSTEM.CONST>
0

>  <SCORE.SYSTEM.DIHEDRAL>
0

>  <SCORE.SYSTEM.SOLV>
0

>  <SCORE.SYSTEM.norm>
0

>  <SCORE.heavy>
11

>  <SCORE.norm>
-1.04088

>  <RMSD>
0.608

$$$$
ligand
 OpenBabel01301917033D
libRbt.so/2013.1/901 2013/11/27
 11 12  0  0  0  0  0  0  0  0999 V2000
  -11.8511  -12.7691    8.8571 N   0  0  0  0  0  0  0  0  0  0  0  0
  -11.5069  -14.0638    8.9455 C   0  0  0  0  0  0  0  0  0  0  0  0
  -11.5242  -14.6726   10.1279 N   0  0  0  0  0  0  0  0  0  0  0  0
  -11.1354  -14.7475    7.8520 N   0  0  0  0  0  0  0  0  0  0  0  0
  -11.0976  -14.1507    6.6515 C   0  0  0  0  0  0  0  0  0  0  0  0
  -11.4486  -12.8120    6.5321 C   0  0  0  0  0  0  0  0  0  0  0  0
  -11.8326  -12.1254    7.6792 C   0  0  0  0  0  0  0  0  0  0  0  0
  -12.1858  -10.8454    7.6090 N   0  0  0  0  0  0  0  0  0  0  0  0
  -11.3100  -12.4744    5.2535 N   0  0  0  0  0  0  0  0  0  0  0  0
  -10.8896  -13.5501    4.5915 C   0  0  0  0  0  0  0  0  0  0  0  0
  -10.7594  -14.5712    5.4359 N   0  0  0  0  0  0  0  0  0  0  0  0
  1  7  2  0  0  0  0
  1  2  1  0  0  0  0
  2  3  1  0  0  0  0
  2  4  2  0  0  0  0
  4  5  1  0  0  0  0
  5  6  2  0  0  0  0
  5 11  1  0  0  0  0
  6  7  1  0  0  0  0
  6  9  1  0  0  0  0
  7  8  1  0  0  0  0
  9 10  1  0  0  0  0
 10 11  2  0  0  0  0
M  END
>  <CHROM.1>
-11.41684066,-13.34407912,7.25475121,2.00281250,-1.25220856,2.11910367

>  <Name>
ligand

>  <RI>
0

>  <Rbt.Current_Directory>
/home/itssahil/PROJECTS/Mol_Feturizer/New_Systems/rnas/2b57

>  <Rbt.Executable>
rbdock ($Id: //depot/dev/client3/rdock/2013.1/src/exe/rbdock.cxx#4 $)

>  <Rbt.Library>
libRbt.so (2013.1, Build901 2013/11/27)

>  <Rbt.Parameter_File>
/export/apps/rDock/src/rDock_2013.1_src/data/scripts/dock_solv.prm

>  <Rbt.Receptor>
prm/pocket_docking_5.prm

>  <SCORE>
-11.5458

>  <SCORE.INTER>
-11.5458

>  <SCORE.INTER.CONST>
1

>  <SCORE.INTER.POLAR>
0

>  <SCORE.INTER.ROT>
0

>  <SCORE.INTER.SOLV>
21.5192

>  <SCORE.INTER.VDW>
-18.4703

>  <SCORE.INTER.norm>
-1.04962

>  <SCORE.INTRA>
0

>  <SCORE.INTRA.DIHEDRAL>
0

>  <SCORE.INTRA.DIHEDRAL.0>
0

>  <SCORE.INTRA.POLAR>
0

>  <SCORE.INTRA.POLAR.0>
0

>  <SCORE.INTRA.REPUL>
0

>  <SCORE.INTRA.REPUL.0>
0

>  <SCORE.INTRA.SOLV>
0

>  <SCORE.INTRA.SOLV.lig_0>
-48.3454

>  <SCORE.INTRA.VDW>
0

>  <SCORE.INTRA.VDW.0>
0

>  <SCORE.INTRA.norm>
0

>  <SCORE.RESTR>
0

>  <SCORE.RESTR.CAVITY>
0

>  <SCORE.RESTR.norm>
0

>  <SCORE.SYSTEM>
0

>  <SCORE.SYSTEM.CONST>
0

>  <SCORE.SYSTEM.DIHEDRAL>
0

>  <SCORE.SYSTEM.SOLV>
0

>  <SCORE.SYSTEM.norm>
0

>  <SCORE.heavy>
11

>  <SCORE.norm>
-1.04962

>  <RMSD>
0.608

$$$$
ligand
 OpenBabel01301917033D
libRbt.so/2013.1/901 2013/11/27
 11 12  0  0  0  0  0  0  0  0999 V2000
  -11.8602  -12.7734    8.8545 N   0  0  0  0  0  0  0  0  0  0  0  0
  -11.5047  -14.0656    8.9353 C   0  0  0  0  0  0  0  0  0  0  0  0
  -11.5358  -14.6868   10.1109 N   0  0  0  0  0  0  0  0  0  0  0  0
  -11.1082  -14.7341    7.8412 N   0  0  0  0  0  0  0  0  0  0  0  0
  -11.0562  -14.1245    6.6477 C   0  0  0  0  0  0  0  0  0  0  0  0
  -11.4184  -12.7881    6.5363 C   0  0  0  0  0  0  0  0  0  0  0  0
  -11.8284  -12.1173    7.6838 C   0  0  0  0  0  0  0  0  0  0  0  0
  -12.1930  -10.8401    7.6208 N   0  0  0  0  0  0  0  0  0  0  0  0
  -11.2617  -12.4358    5.2637 N   0  0  0  0  0  0  0  0  0  0  0  0
  -10.8197  -13.5003    4.5979 C   0  0  0  0  0  0  0  0  0  0  0  0
  -10.6935  -14.5288    5.4338 N   0  0  0  0  0  0  0  0  0  0  0  0
  1  7  2  0  0  0  0
  1  2  1  0  0  0  0
  2  3  1  0  0  0  0
  2  4  2  0  0  0  0
  4  5  1  0  0  0  0
  5  6  2  0  0  0  0
  5 11  1  0  0  0  0
  6  7  1  0  0  0  0
  6  9  1  0  0  0  0
  7  8  1  0  0  0  0
  9 10  1  0  0  0  0
 10 11  2  0  0  0  0
M  END
>  <CHROM.1>
-11.39345872,-13.32732470,7.25382857,2.03053945,-1.23489706,2.15575592

>  <Name>
ligand

>  <RI>
0

>  <Rbt.Current_Directory>
/home/itssahil/PROJECTS/Mol_Feturizer/New_Systems/rnas/2b57

>  <Rbt.Executable>
rbdock ($Id: //depot/dev/client3/rdock/2013.1/src/exe/rbdock.cxx#4 $)

>  <Rbt.Library>
libRbt.so (2013.1, Build901 2013/11/27)

>  <Rbt.Parameter_File>
/export/apps/rDock/src/rDock_2013.1_src/data/scripts/dock_solv.prm

>  <Rbt.Receptor>
prm/pocket_docking_6.prm

>  <SCORE>
-11.4854

>  <SCORE.INTER>
-11.4854

>  <SCORE.INTER.CONST>
1

>  <SCORE.INTER.POLAR>
0

>  <SCORE.INTER.ROT>
0

>  <SCORE.INTER.SOLV>
21.5058

>  <SCORE.INTER.VDW>
-18.4255

>  <SCORE.INTER.norm>
-1.04413

>  <SCORE.INTRA>
0

>  <SCORE.INTRA.DIHEDRAL>
0

>  <SCORE.INTRA.DIHEDRAL.0>
0

>  <SCORE.INTRA.POLAR>
0

>  <SCORE.INTRA.POLAR.0>
0

>  <SCORE.INTRA.REPUL>
0

>  <SCORE.INTRA.REPUL.0>
0

>  <SCORE.INTRA.SOLV>
0

>  <SCORE.INTRA.SOLV.lig_0>
-48.3454

>  <SCORE.INTRA.VDW>
0

>  <SCORE.INTRA.VDW.0>
0

>  <SCORE.INTRA.norm>
0

>  <SCORE.RESTR>
0

>  <SCORE.RESTR.CAVITY>
0

>  <SCORE.RESTR.norm>
0

>  <SCORE.SYSTEM>
0

>  <SCORE.SYSTEM.CONST>
0

>  <SCORE.SYSTEM.DIHEDRAL>
0

>  <SCORE.SYSTEM.SOLV>
0

>  <SCORE.SYSTEM.norm>
0

>  <SCORE.heavy>
11

>  <SCORE.norm>
-1.04413

>  <RMSD>
0.608

$$$$
ligand
 OpenBabel01301917033D
libRbt.so/2013.1/901 2013/11/27
 11 12  0  0  0  0  0  0  0  0999 V2000
  -11.8290  -12.7588    8.8594 N   0  0  0  0  0  0  0  0  0  0  0  0
  -11.4766  -14.0510    8.9539 C   0  0  0  0  0  0  0  0  0  0  0  0
  -11.4875  -14.6535   10.1396 N   0  0  0  0  0  0  0  0  0  0  0  0
  -11.1032  -14.7381    7.8632 N   0  0  0  0  0  0  0  0  0  0  0  0
  -11.0718  -14.1475    6.6594 C   0  0  0  0  0  0  0  0  0  0  0  0
  -11.4313  -12.8116    6.5338 C   0  0  0  0  0  0  0  0  0  0  0  0
  -11.8171  -12.1213    7.6781 C   0  0  0  0  0  0  0  0  0  0  0  0
  -12.1784  -10.8439    7.6019 N   0  0  0  0  0  0  0  0  0  0  0  0
  -11.2977  -12.4800    5.2531 N   0  0  0  0  0  0  0  0  0  0  0  0
  -10.8720  -13.5565    4.5959 C   0  0  0  0  0  0  0  0  0  0  0  0
  -10.7336  -14.5723    5.4454 N   0  0  0  0  0  0  0  0  0  0  0  0
  1  7  2  0  0  0  0
  1  2  1  0  0  0  0
  2  3  1  0  0  0  0
  2  4  2  0  0  0  0
  4  5  1  0  0  0  0
  5  6  2  0  0  0  0
  5 11  1  0  0  0  0
  6  7  1  0  0  0  0
  6  9  1  0  0  0  0
  7  8  1  0  0  0  0
  9 10  1  0  0  0  0
 10 11  2  0  0  0  0
M  END
>  <CHROM.1>
-11.39469353,-13.33963805,7.25917106,1.98668881,-1.24801466,2.09849401

>  <Name>
ligand

>  <RI>
0

>  <Rbt.Current_Directory>
/home/itssahil/PROJECTS/Mol_Feturizer/New_Systems/rnas/2b57

>  <Rbt.Executable>
rbdock ($Id: //depot/dev/client3/rdock/2013.1/src/exe/rbdock.cxx#4 $)

>  <Rbt.Library>
libRbt.so (2013.1, Build901 2013/11/27)

>  <Rbt.Parameter_File>
/export/apps/rDock/src/rDock_2013.1_src/data/scripts/dock_solv.prm

>  <Rbt.Receptor>
prm/pocket_docking_6.prm

>  <SCORE>
-11.5314

>  <SCORE.INTER>
-11.5314

>  <SCORE.INTER.CONST>
1

>  <SCORE.INTER.POLAR>
0

>  <SCORE.INTER.ROT>
0

>  <SCORE.INTER.SOLV>
21.5145

>  <SCORE.INTER.VDW>
-18.4591

>  <SCORE.INTER.norm>
-1.04831

>  <SCORE.INTRA>
0

>  <SCORE.INTRA.DIHEDRAL>
0

>  <SCORE.INTRA.DIHEDRAL.0>
0

>  <SCORE.INTRA.POLAR>
0

>  <SCORE.INTRA.POLAR.0>
0

>  <SCORE.INTRA.REPUL>
0

>  <SCORE.INTRA.REPUL.0>
0

>  <SCORE.INTRA.SOLV>
0

>  <SCORE.INTRA.SOLV.lig_0>
-48.3454

>  <SCORE.INTRA.VDW>
0

>  <SCORE.INTRA.VDW.0>
0

>  <SCORE.INTRA.norm>
0

>  <SCORE.RESTR>
0

>  <SCORE.RESTR.CAVITY>
0

>  <SCORE.RESTR.norm>
0

>  <SCORE.SYSTEM>
0

>  <SCORE.SYSTEM.CONST>
0

>  <SCORE.SYSTEM.DIHEDRAL>
0

>  <SCORE.SYSTEM.SOLV>
0

>  <SCORE.SYSTEM.norm>
0

>  <SCORE.heavy>
11

>  <SCORE.norm>
-1.04831

>  <RMSD>
0.608

$$$$
ligand
 OpenBabel01301917033D
libRbt.so/2013.1/901 2013/11/27
 11 12  0  0  0  0  0  0  0  0999 V2000
  -11.8535  -12.7701    8.8579 N   0  0  0  0  0  0  0  0  0  0  0  0
  -11.5085  -14.0648    8.9441 C   0  0  0  0  0  0  0  0  0  0  0  0
  -11.5254  -14.6755   10.1255 N   0  0  0  0  0  0  0  0  0  0  0  0
  -11.1366  -14.7464    7.8495 N   0  0  0  0  0  0  0  0  0  0  0  0
  -11.0992  -14.1476    6.6499 C   0  0  0  0  0  0  0  0  0  0  0  0
  -11.4510  -12.8089    6.5328 C   0  0  0  0  0  0  0  0  0  0  0  0
  -11.8355  -12.1245    7.6811 C   0  0  0  0  0  0  0  0  0  0  0  0
  -12.1895  -10.8446    7.6130 N   0  0  0  0  0  0  0  0  0  0  0  0
  -11.3127  -12.4691    5.2548 N   0  0  0  0  0  0  0  0  0  0  0  0
  -10.8916  -13.5434    4.5910 C   0  0  0  0  0  0  0  0  0  0  0  0
  -10.7607  -14.5658    5.4337 N   0  0  0  0  0  0  0  0  0  0  0  0
  1  7  2  0  0  0  0
  1  2  1  0  0  0  0
  2  3  1  0  0  0  0
  2  4  2  0  0  0  0
  4  5  1  0  0  0  0
  5  6  2  0  0  0  0
  5 11  1  0  0  0  0
  6  7  1  0  0  0  0
  6  9  1  0  0  0  0
  7  8  1  0  0  0  0
  9 10  1  0  0  0  0
 10 11  2  0  0  0  0
M  END
>  <CHROM.1>
-11.41891901,-13.34217449,7.25457008,2.00172357,-1.25168631,2.11974193

>  <Name>
ligand

>  <RI>
0

>  <Rbt.Current_Directory>
/home/itssahil/PROJECTS/Mol_Feturizer/New_Systems/rnas/2b57

>  <Rbt.Executable>
rbdock ($Id: //depot/dev/client3/rdock/2013.1/src/exe/rbdock.cxx#4 $)

>  <Rbt.Library>
libRbt.so (2013.1, Build901 2013/11/27)

>  <Rbt.Parameter_File>
/export/apps/rDock/src/rDock_2013.1_src/data/scripts/dock_solv.prm

>  <Rbt.Receptor>
prm/pocket_docking_8.prm

>  <SCORE>
-11.5473

>  <SCORE.INTER>
-11.5473

>  <SCORE.INTER.CONST>
1

>  <SCORE.INTER.POLAR>
0

>  <SCORE.INTER.ROT>
0

>  <SCORE.INTER.SOLV>
21.5162

>  <SCORE.INTER.VDW>
-18.4703

>  <SCORE.INTER.norm>
-1.04976

>  <SCORE.INTRA>
0

>  <SCORE.INTRA.DIHEDRAL>
0

>  <SCORE.INTRA.DIHEDRAL.0>
0

>  <SCORE.INTRA.POLAR>
0

>  <SCORE.INTRA.POLAR.0>
0

>  <SCORE.INTRA.REPUL>
0

>  <SCORE.INTRA.REPUL.0>
0

>  <SCORE.INTRA.SOLV>
0

>  <SCORE.INTRA.SOLV.lig_0>
-48.3454

>  <SCORE.INTRA.VDW>
0

>  <SCORE.INTRA.VDW.0>
0

>  <SCORE.INTRA.norm>
0

>  <SCORE.RESTR>
0

>  <SCORE.RESTR.CAVITY>
0

>  <SCORE.RESTR.norm>
0

>  <SCORE.SYSTEM>
0

>  <SCORE.SYSTEM.CONST>
0

>  <SCORE.SYSTEM.DIHEDRAL>
0

>  <SCORE.SYSTEM.SOLV>
0

>  <SCORE.SYSTEM.norm>
0

>  <SCORE.heavy>
11

>  <SCORE.norm>
-1.04976

>  <RMSD>
0.608

$$$$
ligand
 OpenBabel01301917033D
libRbt.so/2013.1/901 2013/11/27
 11 12  0  0  0  0  0  0  0  0999 V2000
  -11.8408  -12.7642    8.8594 N   0  0  0  0  0  0  0  0  0  0  0  0
  -11.5111  -14.0630    8.9437 C   0  0  0  0  0  0  0  0  0  0  0  0
  -11.5341  -14.6749   10.1244 N   0  0  0  0  0  0  0  0  0  0  0  0
  -11.1481  -14.7475    7.8479 N   0  0  0  0  0  0  0  0  0  0  0  0
  -11.1047  -14.1477    6.6491 C   0  0  0  0  0  0  0  0  0  0  0  0
  -11.4408  -12.8048    6.5340 C   0  0  0  0  0  0  0  0  0  0  0  0
  -11.8162  -12.1173    7.6834 C   0  0  0  0  0  0  0  0  0  0  0  0
  -12.1552  -10.8332    7.6172 N   0  0  0  0  0  0  0  0  0  0  0  0
  -11.2996  -12.4651    5.2562 N   0  0  0  0  0  0  0  0  0  0  0  0
  -10.8918  -13.5434    4.5908 C   0  0  0  0  0  0  0  0  0  0  0  0
  -10.7723  -14.5683    5.4320 N   0  0  0  0  0  0  0  0  0  0  0  0
  1  7  2  0  0  0  0
  1  2  1  0  0  0  0
  2  3  1  0  0  0  0
  2  4  2  0  0  0  0
  4  5  1  0  0  0  0
  5  6  2  0  0  0  0
  5 11  1  0  0  0  0
  6  7  1  0  0  0  0
  6  9  1  0  0  0  0
  7  8  1  0  0  0  0
  9 10  1  0  0  0  0
 10 11  2  0  0  0  0
M  END
>  <CHROM.1>
-11.41441249,-13.33929219,7.25502299,2.01957203,-1.26214696,2.13796664

>  <Name>
ligand

>  <RI>
0

>  <Rbt.Current_Directory>
/home/itssahil/PROJECTS/Mol_Feturizer/New_Systems/rnas/2b57

>  <Rbt.Executable>
rbdock ($Id: //depot/dev/client3/rdock/2013.1/src/exe/rbdock.cxx#4 $)

>  <Rbt.Library>
libRbt.so (2013.1, Build901 2013/11/27)

>  <Rbt.Parameter_File>
/export/apps/rDock/src/rDock_2013.1_src/data/scripts/dock_solv.prm

>  <Rbt.Receptor>
prm/blind_docking_100.prm

>  <SCORE>
-11.5467

>  <SCORE.INTER>
-11.5467

>  <SCORE.INTER.CONST>
1

>  <SCORE.INTER.POLAR>
0

>  <SCORE.INTER.ROT>
0

>  <SCORE.INTER.SOLV>
21.6458

>  <SCORE.INTER.VDW>
-18.5131

>  <SCORE.INTER.norm>
-1.0497

>  <SCORE.INTRA>
0

>  <SCORE.INTRA.DIHEDRAL>
0

>  <SCORE.INTRA.DIHEDRAL.0>
0

>  <SCORE.INTRA.POLAR>
0

>  <SCORE.INTRA.POLAR.0>
0

>  <SCORE.INTRA.REPUL>
0

>  <SCORE.INTRA.REPUL.0>
0

>  <SCORE.INTRA.SOLV>
0

>  <SCORE.INTRA.SOLV.lig_0>
-48.3454

>  <SCORE.INTRA.VDW>
0

>  <SCORE.INTRA.VDW.0>
0

>  <SCORE.INTRA.norm>
0

>  <SCORE.RESTR>
0

>  <SCORE.RESTR.CAVITY>
0

>  <SCORE.RESTR.norm>
0

>  <SCORE.SYSTEM>
0

>  <SCORE.SYSTEM.CONST>
0

>  <SCORE.SYSTEM.DIHEDRAL>
0

>  <SCORE.SYSTEM.SOLV>
0

>  <SCORE.SYSTEM.norm>
0

>  <SCORE.heavy>
11

>  <SCORE.norm>
-1.0497

>  <RMSD>
0.609

$$$$
ligand
 OpenBabel01301917033D
libRbt.so/2013.1/901 2013/11/27
 11 12  0  0  0  0  0  0  0  0999 V2000
  -11.8485  -12.7678    8.8555 N   0  0  0  0  0  0  0  0  0  0  0  0
  -11.4850  -14.0578    8.9362 C   0  0  0  0  0  0  0  0  0  0  0  0
  -11.5041  -14.6770   10.1131 N   0  0  0  0  0  0  0  0  0  0  0  0
  -11.0921  -14.7260    7.8406 N   0  0  0  0  0  0  0  0  0  0  0  0
  -11.0521  -14.1182    6.6456 C   0  0  0  0  0  0  0  0  0  0  0  0
  -11.4230  -12.7842    6.5343 C   0  0  0  0  0  0  0  0  0  0  0  0
  -11.8288  -12.1137    7.6834 C   0  0  0  0  0  0  0  0  0  0  0  0
  -12.2014  -10.8388    7.6207 N   0  0  0  0  0  0  0  0  0  0  0  0
  -11.2774  -12.4334    5.2601 N   0  0  0  0  0  0  0  0  0  0  0  0
  -10.8337  -13.4965    4.5931 C   0  0  0  0  0  0  0  0  0  0  0  0
  -10.6956  -14.5227    5.4299 N   0  0  0  0  0  0  0  0  0  0  0  0
  1  7  2  0  0  0  0
  1  2  1  0  0  0  0
  2  3  1  0  0  0  0
  2  4  2  0  0  0  0
  4  5  1  0  0  0  0
  5  6  2  0  0  0  0
  5 11  1  0  0  0  0
  6  7  1  0  0  0  0
  6  9  1  0  0  0  0
  7  8  1  0  0  0  0
  9 10  1  0  0  0  0
 10 11  2  0  0  0  0
M  END
>  <CHROM.1>
-11.38984678,-13.32196572,7.25263531,2.00298189,-1.23375593,2.12790300

>  <Name>
ligand

>  <RI>
0

>  <Rbt.Current_Directory>
/home/itssahil/PROJECTS/Mol_Feturizer/New_Systems/rnas/2b57

>  <Rbt.Executable>
rbdock ($Id: //depot/dev/client3/rdock/2013.1/src/exe/rbdock.cxx#4 $)

>  <Rbt.Library>
libRbt.so (2013.1, Build901 2013/11/27)

>  <Rbt.Parameter_File>
/export/apps/rDock/src/rDock_2013.1_src/data/scripts/dock_solv.prm

>  <Rbt.Receptor>
prm/pocket_docking_4.prm

>  <SCORE>
-11.4905

>  <SCORE.INTER>
-11.4905

>  <SCORE.INTER.CONST>
1

>  <SCORE.INTER.POLAR>
0

>  <SCORE.INTER.ROT>
0

>  <SCORE.INTER.SOLV>
21.4614

>  <SCORE.INTER.VDW>
-18.4142

>  <SCORE.INTER.norm>
-1.04459

>  <SCORE.INTRA>
0

>  <SCORE.INTRA.DIHEDRAL>
0

>  <SCORE.INTRA.DIHEDRAL.0>
0

>  <SCORE.INTRA.POLAR>
0

>  <SCORE.INTRA.POLAR.0>
0

>  <SCORE.INTRA.REPUL>
0

>  <SCORE.INTRA.REPUL.0>
0

>  <SCORE.INTRA.SOLV>
0

>  <SCORE.INTRA.SOLV.lig_0>
-48.3454

>  <SCORE.INTRA.VDW>
0

>  <SCORE.INTRA.VDW.0>
0

>  <SCORE.INTRA.norm>
0

>  <SCORE.RESTR>
0

>  <SCORE.RESTR.CAVITY>
0

>  <SCORE.RESTR.norm>
0

>  <SCORE.SYSTEM>
0

>  <SCORE.SYSTEM.CONST>
0

>  <SCORE.SYSTEM.DIHEDRAL>
0

>  <SCORE.SYSTEM.SOLV>
0

>  <SCORE.SYSTEM.norm>
0

>  <SCORE.heavy>
11

>  <SCORE.norm>
-1.04459

>  <RMSD>
0.609

$$$$
ligand
 OpenBabel01301917033D
libRbt.so/2013.1/901 2013/11/27
 11 12  0  0  0  0  0  0  0  0999 V2000
  -11.8385  -12.7632    8.8586 N   0  0  0  0  0  0  0  0  0  0  0  0
  -11.5042  -14.0604    8.9480 C   0  0  0  0  0  0  0  0  0  0  0  0
  -11.5281  -14.6687   10.1305 N   0  0  0  0  0  0  0  0  0  0  0  0
  -11.1358  -14.7472    7.8554 N   0  0  0  0  0  0  0  0  0  0  0  0
  -11.0914  -14.1510    6.6547 C   0  0  0  0  0  0  0  0  0  0  0  0
  -11.4322  -12.8097    6.5344 C   0  0  0  0  0  0  0  0  0  0  0  0
  -11.8131  -12.1200    7.6806 C   0  0  0  0  0  0  0  0  0  0  0  0
  -12.1567  -10.8374    7.6094 N   0  0  0  0  0  0  0  0  0  0  0  0
  -11.2888  -12.4736    5.2559 N   0  0  0  0  0  0  0  0  0  0  0  0
  -10.8752  -13.5525    4.5950 C   0  0  0  0  0  0  0  0  0  0  0  0
  -10.7541  -14.5743    5.4399 N   0  0  0  0  0  0  0  0  0  0  0  0
  1  7  2  0  0  0  0
  1  2  1  0  0  0  0
  2  3  1  0  0  0  0
  2  4  2  0  0  0  0
  4  5  1  0  0  0  0
  5  6  2  0  0  0  0
  5 11  1  0  0  0  0
  6  7  1  0  0  0  0
  6  9  1  0  0  0  0
  7  8  1  0  0  0  0
  9 10  1  0  0  0  0
 10 11  2  0  0  0  0
M  END
>  <CHROM.1>
-11.40568981,-13.34183106,7.25722327,2.02039357,-1.25759167,2.13554924

>  <Name>
ligand

>  <RI>
0

>  <Rbt.Current_Directory>
/home/itssahil/PROJECTS/Mol_Feturizer/New_Systems/rnas/2b57

>  <Rbt.Executable>
rbdock ($Id: //depot/dev/client3/rdock/2013.1/src/exe/rbdock.cxx#4 $)

>  <Rbt.Library>
libRbt.so (2013.1, Build901 2013/11/27)

>  <Rbt.Parameter_File>
/export/apps/rDock/src/rDock_2013.1_src/data/scripts/dock_solv.prm

>  <Rbt.Receptor>
prm/pocket_docking_4.prm

>  <SCORE>
-11.5482

>  <SCORE.INTER>
-11.5482

>  <SCORE.INTER.CONST>
1

>  <SCORE.INTER.POLAR>
0

>  <SCORE.INTER.ROT>
0

>  <SCORE.INTER.SOLV>
21.6164

>  <SCORE.INTER.VDW>
-18.5043

>  <SCORE.INTER.norm>
-1.04984

>  <SCORE.INTRA>
0

>  <SCORE.INTRA.DIHEDRAL>
0

>  <SCORE.INTRA.DIHEDRAL.0>
0

>  <SCORE.INTRA.POLAR>
0

>  <SCORE.INTRA.POLAR.0>
0

>  <SCORE.INTRA.REPUL>
0

>  <SCORE.INTRA.REPUL.0>
0

>  <SCORE.INTRA.SOLV>
0

>  <SCORE.INTRA.SOLV.lig_0>
-48.3454

>  <SCORE.INTRA.VDW>
0

>  <SCORE.INTRA.VDW.0>
0

>  <SCORE.INTRA.norm>
0

>  <SCORE.RESTR>
0

>  <SCORE.RESTR.CAVITY>
0

>  <SCORE.RESTR.norm>
0

>  <SCORE.SYSTEM>
0

>  <SCORE.SYSTEM.CONST>
0

>  <SCORE.SYSTEM.DIHEDRAL>
0

>  <SCORE.SYSTEM.SOLV>
0

>  <SCORE.SYSTEM.norm>
0

>  <SCORE.heavy>
11

>  <SCORE.norm>
-1.04984

>  <RMSD>
0.609

$$$$
ligand
 OpenBabel01301917033D
libRbt.so/2013.1/901 2013/11/27
 11 12  0  0  0  0  0  0  0  0999 V2000
  -11.8289  -12.7891    8.8700 N   0  0  0  0  0  0  0  0  0  0  0  0
  -11.5019  -14.0887    8.9535 C   0  0  0  0  0  0  0  0  0  0  0  0
  -11.5329  -14.7031   10.1327 N   0  0  0  0  0  0  0  0  0  0  0  0
  -11.1337  -14.7716    7.8584 N   0  0  0  0  0  0  0  0  0  0  0  0
  -11.0822  -14.1693    6.6611 C   0  0  0  0  0  0  0  0  0  0  0  0
  -11.4153  -12.8256    6.5468 C   0  0  0  0  0  0  0  0  0  0  0  0
  -11.7962  -12.1398    7.6955 C   0  0  0  0  0  0  0  0  0  0  0  0
  -12.1325  -10.8550    7.6301 N   0  0  0  0  0  0  0  0  0  0  0  0
  -11.2660  -12.4834    5.2707 N   0  0  0  0  0  0  0  0  0  0  0  0
  -10.8562  -13.5610    4.6053 C   0  0  0  0  0  0  0  0  0  0  0  0
  -10.7434  -14.5879    5.4451 N   0  0  0  0  0  0  0  0  0  0  0  0
  1  7  2  0  0  0  0
  1  2  1  0  0  0  0
  2  3  1  0  0  0  0
  2  4  2  0  0  0  0
  4  5  1  0  0  0  0
  5  6  2  0  0  0  0
  5 11  1  0  0  0  0
  6  7  1  0  0  0  0
  6  9  1  0  0  0  0
  7  8  1  0  0  0  0
  9 10  1  0  0  0  0
 10 11  2  0  0  0  0
M  END
>  <CHROM.1>
-11.39405162,-13.36162054,7.26689384,2.03883584,-1.26041628,2.15843091

>  <Name>
ligand

>  <RI>
0

>  <Rbt.Current_Directory>
/home/itssahil/PROJECTS/Mol_Feturizer/New_Systems/rnas/2b57

>  <Rbt.Executable>
rbdock ($Id: //depot/dev/client3/rdock/2013.1/src/exe/rbdock.cxx#4 $)

>  <Rbt.Library>
libRbt.so (2013.1, Build901 2013/11/27)

>  <Rbt.Parameter_File>
/export/apps/rDock/src/rDock_2013.1_src/data/scripts/dock_solv.prm

>  <Rbt.Receptor>
prm/pocket_docking_8.prm

>  <SCORE>
-11.5389

>  <SCORE.INTER>
-11.5389

>  <SCORE.INTER.CONST>
1

>  <SCORE.INTER.POLAR>
0

>  <SCORE.INTER.ROT>
0

>  <SCORE.INTER.SOLV>
21.7459

>  <SCORE.INTER.VDW>
-18.5412

>  <SCORE.INTER.norm>
-1.04899

>  <SCORE.INTRA>
0

>  <SCORE.INTRA.DIHEDRAL>
0

>  <SCORE.INTRA.DIHEDRAL.0>
0

>  <SCORE.INTRA.POLAR>
0

>  <SCORE.INTRA.POLAR.0>
0

>  <SCORE.INTRA.REPUL>
0

>  <SCORE.INTRA.REPUL.0>
0

>  <SCORE.INTRA.SOLV>
0

>  <SCORE.INTRA.SOLV.lig_0>
-48.3454

>  <SCORE.INTRA.VDW>
0

>  <SCORE.INTRA.VDW.0>
0

>  <SCORE.INTRA.norm>
0

>  <SCORE.RESTR>
0

>  <SCORE.RESTR.CAVITY>
0

>  <SCORE.RESTR.norm>
0

>  <SCORE.SYSTEM>
0

>  <SCORE.SYSTEM.CONST>
0

>  <SCORE.SYSTEM.DIHEDRAL>
0

>  <SCORE.SYSTEM.SOLV>
0

>  <SCORE.SYSTEM.norm>
0

>  <SCORE.heavy>
11

>  <SCORE.norm>
-1.04899

>  <RMSD>
0.609

$$$$
ligand
 OpenBabel01301917033D
libRbt.so/2013.1/901 2013/11/27
 11 12  0  0  0  0  0  0  0  0999 V2000
  -11.8382  -12.7394    8.8515 N   0  0  0  0  0  0  0  0  0  0  0  0
  -11.5076  -14.0373    8.9461 C   0  0  0  0  0  0  0  0  0  0  0  0
  -11.5276  -14.6392   10.1320 N   0  0  0  0  0  0  0  0  0  0  0  0
  -11.1469  -14.7310    7.8553 N   0  0  0  0  0  0  0  0  0  0  0  0
  -11.1065  -14.1414    6.6513 C   0  0  0  0  0  0  0  0  0  0  0  0
  -11.4436  -12.7997    6.5256 C   0  0  0  0  0  0  0  0  0  0  0  0
  -11.8166  -12.1026    7.6700 C   0  0  0  0  0  0  0  0  0  0  0  0
  -12.1562  -10.8193    7.5937 N   0  0  0  0  0  0  0  0  0  0  0  0
  -11.3054  -12.4708    5.2447 N   0  0  0  0  0  0  0  0  0  0  0  0
  -10.8987  -13.5545    4.5874 C   0  0  0  0  0  0  0  0  0  0  0  0
  -10.7767  -14.5722    5.4371 N   0  0  0  0  0  0  0  0  0  0  0  0
  1  7  2  0  0  0  0
  1  2  1  0  0  0  0
  2  3  1  0  0  0  0
  2  4  2  0  0  0  0
  4  5  1  0  0  0  0
  5  6  2  0  0  0  0
  5 11  1  0  0  0  0
  6  7  1  0  0  0  0
  6  9  1  0  0  0  0
  7  8  1  0  0  0  0
  9 10  1  0  0  0  0
 10 11  2  0  0  0  0
M  END
>  <CHROM.1>
-11.41519975,-13.32800109,7.25108122,2.01228256,-1.26299965,2.12250927

>  <Name>
ligand

>  <RI>
0

>  <Rbt.Current_Directory>
/home/itssahil/PROJECTS/Mol_Feturizer/New_Systems/rnas/2b57

>  <Rbt.Executable>
rbdock ($Id: //depot/dev/client3/rdock/2013.1/src/exe/rbdock.cxx#4 $)

>  <Rbt.Library>
libRbt.so (2013.1, Build901 2013/11/27)

>  <Rbt.Parameter_File>
/export/apps/rDock/src/rDock_2013.1_src/data/scripts/dock_solv.prm

>  <Rbt.Receptor>
prm/blind_docking_60.prm

>  <SCORE>
-11.5003

>  <SCORE.INTER>
-11.5003

>  <SCORE.INTER.CONST>
1

>  <SCORE.INTER.POLAR>
0

>  <SCORE.INTER.ROT>
0

>  <SCORE.INTER.SOLV>
21.6083

>  <SCORE.INTER.VDW>
-18.4696

>  <SCORE.INTER.norm>
-1.04548

>  <SCORE.INTRA>
0

>  <SCORE.INTRA.DIHEDRAL>
0

>  <SCORE.INTRA.DIHEDRAL.0>
0

>  <SCORE.INTRA.POLAR>
0

>  <SCORE.INTRA.POLAR.0>
0

>  <SCORE.INTRA.REPUL>
0

>  <SCORE.INTRA.REPUL.0>
0

>  <SCORE.INTRA.SOLV>
0

>  <SCORE.INTRA.SOLV.lig_0>
-48.3454

>  <SCORE.INTRA.VDW>
0

>  <SCORE.INTRA.VDW.0>
0

>  <SCORE.INTRA.norm>
0

>  <SCORE.RESTR>
0

>  <SCORE.RESTR.CAVITY>
0

>  <SCORE.RESTR.norm>
0

>  <SCORE.SYSTEM>
0

>  <SCORE.SYSTEM.CONST>
0

>  <SCORE.SYSTEM.DIHEDRAL>
0

>  <SCORE.SYSTEM.SOLV>
0

>  <SCORE.SYSTEM.norm>
0

>  <SCORE.heavy>
11

>  <SCORE.norm>
-1.04548

>  <RMSD>
0.610

$$$$
ligand
 OpenBabel01301917033D
libRbt.so/2013.1/901 2013/11/27
 11 12  0  0  0  0  0  0  0  0999 V2000
  -11.8164  -12.7531    8.8594 N   0  0  0  0  0  0  0  0  0  0  0  0
  -11.4535  -14.0427    8.9497 C   0  0  0  0  0  0  0  0  0  0  0  0
  -11.4548  -14.6478   10.1341 N   0  0  0  0  0  0  0  0  0  0  0  0
  -11.0791  -14.7245    7.8560 N   0  0  0  0  0  0  0  0  0  0  0  0
  -11.0572  -14.1311    6.6534 C   0  0  0  0  0  0  0  0  0  0  0  0
  -11.4279  -12.7979    6.5321 C   0  0  0  0  0  0  0  0  0  0  0  0
  -11.8144  -12.1131    7.6794 C   0  0  0  0  0  0  0  0  0  0  0  0
  -12.1861  -10.8384    7.6074 N   0  0  0  0  0  0  0  0  0  0  0  0
  -11.3020  -12.4625    5.2516 N   0  0  0  0  0  0  0  0  0  0  0  0
  -10.8706  -13.5342    4.5904 C   0  0  0  0  0  0  0  0  0  0  0  0
  -10.7207  -14.5506    5.4371 N   0  0  0  0  0  0  0  0  0  0  0  0
  1  7  2  0  0  0  0
  1  2  1  0  0  0  0
  2  3  1  0  0  0  0
  2  4  2  0  0  0  0
  4  5  1  0  0  0  0
  5  6  2  0  0  0  0
  5 11  1  0  0  0  0
  6  7  1  0  0  0  0
  6  9  1  0  0  0  0
  7  8  1  0  0  0  0
  9 10  1  0  0  0  0
 10 11  2  0  0  0  0
M  END
>  <CHROM.1>
-11.38408749,-13.32711447,7.25618016,1.96343452,-1.24315642,2.07859959

>  <Name>
ligand

>  <RI>
0

>  <Rbt.Current_Directory>
/home/itssahil/PROJECTS/Mol_Feturizer/New_Systems/rnas/2b57

>  <Rbt.Executable>
rbdock ($Id: //depot/dev/client3/rdock/2013.1/src/exe/rbdock.cxx#4 $)

>  <Rbt.Library>
libRbt.so (2013.1, Build901 2013/11/27)

>  <Rbt.Parameter_File>
/export/apps/rDock/src/rDock_2013.1_src/data/scripts/dock_solv.prm

>  <Rbt.Receptor>
prm/pocket_docking_3.prm

>  <SCORE>
-11.4803

>  <SCORE.INTER>
-11.4803

>  <SCORE.INTER.CONST>
1

>  <SCORE.INTER.POLAR>
0

>  <SCORE.INTER.ROT>
0

>  <SCORE.INTER.SOLV>
21.4898

>  <SCORE.INTER.VDW>
-18.4168

>  <SCORE.INTER.norm>
-1.04366

>  <SCORE.INTRA>
0

>  <SCORE.INTRA.DIHEDRAL>
0

>  <SCORE.INTRA.DIHEDRAL.0>
0

>  <SCORE.INTRA.POLAR>
0

>  <SCORE.INTRA.POLAR.0>
0

>  <SCORE.INTRA.REPUL>
0

>  <SCORE.INTRA.REPUL.0>
0

>  <SCORE.INTRA.SOLV>
0

>  <SCORE.INTRA.SOLV.lig_0>
-48.3454

>  <SCORE.INTRA.VDW>
0

>  <SCORE.INTRA.VDW.0>
0

>  <SCORE.INTRA.norm>
0

>  <SCORE.RESTR>
0

>  <SCORE.RESTR.CAVITY>
0

>  <SCORE.RESTR.norm>
0

>  <SCORE.SYSTEM>
0

>  <SCORE.SYSTEM.CONST>
0

>  <SCORE.SYSTEM.DIHEDRAL>
0

>  <SCORE.SYSTEM.SOLV>
0

>  <SCORE.SYSTEM.norm>
0

>  <SCORE.heavy>
11

>  <SCORE.norm>
-1.04366

>  <RMSD>
0.610

$$$$
ligand
 OpenBabel01301917033D
libRbt.so/2013.1/901 2013/11/27
 11 12  0  0  0  0  0  0  0  0999 V2000
  -11.8592  -12.7890    8.8598 N   0  0  0  0  0  0  0  0  0  0  0  0
  -11.5149  -14.0840    8.9437 C   0  0  0  0  0  0  0  0  0  0  0  0
  -11.5362  -14.6980   10.1233 N   0  0  0  0  0  0  0  0  0  0  0  0
  -11.1390  -14.7626    7.8486 N   0  0  0  0  0  0  0  0  0  0  0  0
  -11.0970  -14.1604    6.6508 C   0  0  0  0  0  0  0  0  0  0  0  0
  -11.4481  -12.8213    6.5362 C   0  0  0  0  0  0  0  0  0  0  0  0
  -11.8367  -12.1400    7.6849 C   0  0  0  0  0  0  0  0  0  0  0  0
  -12.1902  -10.8599    7.6191 N   0  0  0  0  0  0  0  0  0  0  0  0
  -11.3049  -12.4780    5.2596 N   0  0  0  0  0  0  0  0  0  0  0  0
  -10.8816  -13.5505    4.5944 C   0  0  0  0  0  0  0  0  0  0  0  0
  -10.7541  -14.5753    5.4347 N   0  0  0  0  0  0  0  0  0  0  0  0
  1  7  2  0  0  0  0
  1  2  1  0  0  0  0
  2  3  1  0  0  0  0
  2  4  2  0  0  0  0
  4  5  1  0  0  0  0
  5  6  2  0  0  0  0
  5 11  1  0  0  0  0
  6  7  1  0  0  0  0
  6  9  1  0  0  0  0
  7  8  1  0  0  0  0
  9 10  1  0  0  0  0
 10 11  2  0  0  0  0
M  END
>  <CHROM.1>
-11.41880241,-13.35661416,7.25654894,2.01213935,-1.24990133,2.13243764

>  <Name>
ligand

>  <RI>
0

>  <Rbt.Current_Directory>
/home/itssahil/PROJECTS/Mol_Feturizer/New_Systems/rnas/2b57

>  <Rbt.Executable>
rbdock ($Id: //depot/dev/client3/rdock/2013.1/src/exe/rbdock.cxx#4 $)

>  <Rbt.Library>
libRbt.so (2013.1, Build901 2013/11/27)

>  <Rbt.Parameter_File>
/export/apps/rDock/src/rDock_2013.1_src/data/scripts/dock_solv.prm

>  <Rbt.Receptor>
prm/pocket_docking_3.prm

>  <SCORE>
-11.557

>  <SCORE.INTER>
-11.557

>  <SCORE.INTER.CONST>
1

>  <SCORE.INTER.POLAR>
0

>  <SCORE.INTER.ROT>
0

>  <SCORE.INTER.SOLV>
21.5342

>  <SCORE.INTER.VDW>
-18.4827

>  <SCORE.INTER.norm>
-1.05063

>  <SCORE.INTRA>
0

>  <SCORE.INTRA.DIHEDRAL>
0

>  <SCORE.INTRA.DIHEDRAL.0>
0

>  <SCORE.INTRA.POLAR>
0

>  <SCORE.INTRA.POLAR.0>
0

>  <SCORE.INTRA.REPUL>
0

>  <SCORE.INTRA.REPUL.0>
0

>  <SCORE.INTRA.SOLV>
0

>  <SCORE.INTRA.SOLV.lig_0>
-48.3454

>  <SCORE.INTRA.VDW>
0

>  <SCORE.INTRA.VDW.0>
0

>  <SCORE.INTRA.norm>
0

>  <SCORE.RESTR>
0

>  <SCORE.RESTR.CAVITY>
0

>  <SCORE.RESTR.norm>
0

>  <SCORE.SYSTEM>
0

>  <SCORE.SYSTEM.CONST>
0

>  <SCORE.SYSTEM.DIHEDRAL>
0

>  <SCORE.SYSTEM.SOLV>
0

>  <SCORE.SYSTEM.norm>
0

>  <SCORE.heavy>
11

>  <SCORE.norm>
-1.05063

>  <RMSD>
0.610

$$$$
ligand
 OpenBabel01301917033D
libRbt.so/2013.1/901 2013/11/27
 11 12  0  0  0  0  0  0  0  0999 V2000
  -11.8478  -12.7676    8.8549 N   0  0  0  0  0  0  0  0  0  0  0  0
  -11.5043  -14.0624    8.9454 C   0  0  0  0  0  0  0  0  0  0  0  0
  -11.5238  -14.6697   10.1285 N   0  0  0  0  0  0  0  0  0  0  0  0
  -11.1311  -14.7475    7.8534 N   0  0  0  0  0  0  0  0  0  0  0  0
  -11.0910  -14.1521    6.6522 C   0  0  0  0  0  0  0  0  0  0  0  0
  -11.4413  -12.8134    6.5306 C   0  0  0  0  0  0  0  0  0  0  0  0
  -11.8271  -12.1253    7.6763 C   0  0  0  0  0  0  0  0  0  0  0  0
  -12.1797  -10.8452    7.6039 N   0  0  0  0  0  0  0  0  0  0  0  0
  -11.3004  -12.4774    5.2519 N   0  0  0  0  0  0  0  0  0  0  0  0
  -10.8793  -13.5540    4.5919 C   0  0  0  0  0  0  0  0  0  0  0  0
  -10.7509  -14.5741    5.4377 N   0  0  0  0  0  0  0  0  0  0  0  0
  1  7  2  0  0  0  0
  1  2  1  0  0  0  0
  2  3  1  0  0  0  0
  2  4  2  0  0  0  0
  4  5  1  0  0  0  0
  5  6  2  0  0  0  0
  5 11  1  0  0  0  0
  6  7  1  0  0  0  0
  6  9  1  0  0  0  0
  7  8  1  0  0  0  0
  9 10  1  0  0  0  0
 10 11  2  0  0  0  0
M  END
>  <CHROM.1>
-11.41102430,-13.34463408,7.25397107,2.00812262,-1.25163311,2.12296530

>  <Name>
ligand

>  <RI>
0

>  <Rbt.Current_Directory>
/home/itssahil/PROJECTS/Mol_Feturizer/New_Systems/rnas/2b57

>  <Rbt.Executable>
rbdock ($Id: //depot/dev/client3/rdock/2013.1/src/exe/rbdock.cxx#4 $)

>  <Rbt.Library>
libRbt.so (2013.1, Build901 2013/11/27)

>  <Rbt.Parameter_File>
/export/apps/rDock/src/rDock_2013.1_src/data/scripts/dock_solv.prm

>  <Rbt.Receptor>
prm/pocket_docking_6.prm

>  <SCORE>
-11.5504

>  <SCORE.INTER>
-11.5504

>  <SCORE.INTER.CONST>
1

>  <SCORE.INTER.POLAR>
0

>  <SCORE.INTER.ROT>
0

>  <SCORE.INTER.SOLV>
21.5282

>  <SCORE.INTER.VDW>
-18.4763

>  <SCORE.INTER.norm>
-1.05003

>  <SCORE.INTRA>
0

>  <SCORE.INTRA.DIHEDRAL>
0

>  <SCORE.INTRA.DIHEDRAL.0>
0

>  <SCORE.INTRA.POLAR>
0

>  <SCORE.INTRA.POLAR.0>
0

>  <SCORE.INTRA.REPUL>
0

>  <SCORE.INTRA.REPUL.0>
0

>  <SCORE.INTRA.SOLV>
0

>  <SCORE.INTRA.SOLV.lig_0>
-48.3454

>  <SCORE.INTRA.VDW>
0

>  <SCORE.INTRA.VDW.0>
0

>  <SCORE.INTRA.norm>
0

>  <SCORE.RESTR>
0

>  <SCORE.RESTR.CAVITY>
0

>  <SCORE.RESTR.norm>
0

>  <SCORE.SYSTEM>
0

>  <SCORE.SYSTEM.CONST>
0

>  <SCORE.SYSTEM.DIHEDRAL>
0

>  <SCORE.SYSTEM.SOLV>
0

>  <SCORE.SYSTEM.norm>
0

>  <SCORE.heavy>
11

>  <SCORE.norm>
-1.05003

>  <RMSD>
0.610

$$$$
ligand
 OpenBabel01301917033D
libRbt.so/2013.1/901 2013/11/27
 11 12  0  0  0  0  0  0  0  0999 V2000
  -11.8483  -12.7678    8.8548 N   0  0  0  0  0  0  0  0  0  0  0  0
  -11.5055  -14.0628    8.9441 C   0  0  0  0  0  0  0  0  0  0  0  0
  -11.5252  -14.6712   10.1267 N   0  0  0  0  0  0  0  0  0  0  0  0
  -11.1329  -14.7472    7.8514 N   0  0  0  0  0  0  0  0  0  0  0  0
  -11.0927  -14.1508    6.6507 C   0  0  0  0  0  0  0  0  0  0  0  0
  -11.4423  -12.8117    6.5305 C   0  0  0  0  0  0  0  0  0  0  0  0
  -11.8274  -12.1245    7.6768 C   0  0  0  0  0  0  0  0  0  0  0  0
  -12.1793  -10.8441    7.6057 N   0  0  0  0  0  0  0  0  0  0  0  0
  -11.3014  -12.4747    5.2520 N   0  0  0  0  0  0  0  0  0  0  0  0
  -10.8810  -13.5509    4.5910 C   0  0  0  0  0  0  0  0  0  0  0  0
  -10.7531  -14.5718    5.4359 N   0  0  0  0  0  0  0  0  0  0  0  0
  1  7  2  0  0  0  0
  1  2  1  0  0  0  0
  2  3  1  0  0  0  0
  2  4  2  0  0  0  0
  4  5  1  0  0  0  0
  5  6  2  0  0  0  0
  5 11  1  0  0  0  0
  6  7  1  0  0  0  0
  6  9  1  0  0  0  0
  7  8  1  0  0  0  0
  9 10  1  0  0  0  0
 10 11  2  0  0  0  0
M  END
>  <CHROM.1>
-11.41215323,-13.34363563,7.25331963,2.00858846,-1.25220705,2.12430575

>  <Name>
ligand

>  <RI>
0

>  <Rbt.Current_Directory>
/home/itssahil/PROJECTS/Mol_Feturizer/New_Systems/rnas/2b57

>  <Rbt.Executable>
rbdock ($Id: //depot/dev/client3/rdock/2013.1/src/exe/rbdock.cxx#4 $)

>  <Rbt.Library>
libRbt.so (2013.1, Build901 2013/11/27)

>  <Rbt.Parameter_File>
/export/apps/rDock/src/rDock_2013.1_src/data/scripts/dock_solv.prm

>  <Rbt.Receptor>
prm/pocket_docking_7.prm

>  <SCORE>
-11.5517

>  <SCORE.INTER>
-11.5517

>  <SCORE.INTER.CONST>
1

>  <SCORE.INTER.POLAR>
0

>  <SCORE.INTER.ROT>
0

>  <SCORE.INTER.SOLV>
21.5349

>  <SCORE.INTER.VDW>
-18.4794

>  <SCORE.INTER.norm>
-1.05015

>  <SCORE.INTRA>
0

>  <SCORE.INTRA.DIHEDRAL>
0

>  <SCORE.INTRA.DIHEDRAL.0>
0

>  <SCORE.INTRA.POLAR>
0

>  <SCORE.INTRA.POLAR.0>
0

>  <SCORE.INTRA.REPUL>
0

>  <SCORE.INTRA.REPUL.0>
0

>  <SCORE.INTRA.SOLV>
0

>  <SCORE.INTRA.SOLV.lig_0>
-48.3454

>  <SCORE.INTRA.VDW>
0

>  <SCORE.INTRA.VDW.0>
0

>  <SCORE.INTRA.norm>
0

>  <SCORE.RESTR>
0

>  <SCORE.RESTR.CAVITY>
0

>  <SCORE.RESTR.norm>
0

>  <SCORE.SYSTEM>
0

>  <SCORE.SYSTEM.CONST>
0

>  <SCORE.SYSTEM.DIHEDRAL>
0

>  <SCORE.SYSTEM.SOLV>
0

>  <SCORE.SYSTEM.norm>
0

>  <SCORE.heavy>
11

>  <SCORE.norm>
-1.05015

>  <RMSD>
0.610

$$$$
ligand
 OpenBabel01301917033D
libRbt.so/2013.1/901 2013/11/27
 11 12  0  0  0  0  0  0  0  0999 V2000
  -11.8485  -12.7679    8.8551 N   0  0  0  0  0  0  0  0  0  0  0  0
  -11.5073  -14.0634    8.9449 C   0  0  0  0  0  0  0  0  0  0  0  0
  -11.5289  -14.6717   10.1275 N   0  0  0  0  0  0  0  0  0  0  0  0
  -11.1342  -14.7482    7.8526 N   0  0  0  0  0  0  0  0  0  0  0  0
  -11.0920  -14.1520    6.6520 C   0  0  0  0  0  0  0  0  0  0  0  0
  -11.4399  -12.8126    6.5312 C   0  0  0  0  0  0  0  0  0  0  0  0
  -11.8255  -12.1248    7.6771 C   0  0  0  0  0  0  0  0  0  0  0  0
  -12.1759  -10.8440    7.6054 N   0  0  0  0  0  0  0  0  0  0  0  0
  -11.2972  -12.4757    5.2529 N   0  0  0  0  0  0  0  0  0  0  0  0
  -10.8772  -13.5525    4.5924 C   0  0  0  0  0  0  0  0  0  0  0  0
  -10.7514  -14.5735    5.4375 N   0  0  0  0  0  0  0  0  0  0  0  0
  1  7  2  0  0  0  0
  1  2  1  0  0  0  0
  2  3  1  0  0  0  0
  2  4  2  0  0  0  0
  4  5  1  0  0  0  0
  5  6  2  0  0  0  0
  5 11  1  0  0  0  0
  6  7  1  0  0  0  0
  6  9  1  0  0  0  0
  7  8  1  0  0  0  0
  9 10  1  0  0  0  0
 10 11  2  0  0  0  0
M  END
>  <CHROM.1>
-11.41115107,-13.34443549,7.25412816,2.01357430,-1.25256839,2.12896942

>  <Name>
ligand

>  <RI>
0

>  <Rbt.Current_Directory>
/home/itssahil/PROJECTS/Mol_Feturizer/New_Systems/rnas/2b57

>  <Rbt.Executable>
rbdock ($Id: //depot/dev/client3/rdock/2013.1/src/exe/rbdock.cxx#4 $)

>  <Rbt.Library>
libRbt.so (2013.1, Build901 2013/11/27)

>  <Rbt.Parameter_File>
/export/apps/rDock/src/rDock_2013.1_src/data/scripts/dock_solv.prm

>  <Rbt.Receptor>
prm/pocket_docking_8.prm

>  <SCORE>
-11.5525

>  <SCORE.INTER>
-11.5525

>  <SCORE.INTER.CONST>
1

>  <SCORE.INTER.POLAR>
0

>  <SCORE.INTER.ROT>
0

>  <SCORE.INTER.SOLV>
21.5464

>  <SCORE.INTER.VDW>
-18.4838

>  <SCORE.INTER.norm>
-1.05022

>  <SCORE.INTRA>
0

>  <SCORE.INTRA.DIHEDRAL>
0

>  <SCORE.INTRA.DIHEDRAL.0>
0

>  <SCORE.INTRA.POLAR>
0

>  <SCORE.INTRA.POLAR.0>
0

>  <SCORE.INTRA.REPUL>
0

>  <SCORE.INTRA.REPUL.0>
0

>  <SCORE.INTRA.SOLV>
0

>  <SCORE.INTRA.SOLV.lig_0>
-48.3454

>  <SCORE.INTRA.VDW>
0

>  <SCORE.INTRA.VDW.0>
0

>  <SCORE.INTRA.norm>
0

>  <SCORE.RESTR>
0

>  <SCORE.RESTR.CAVITY>
0

>  <SCORE.RESTR.norm>
0

>  <SCORE.SYSTEM>
0

>  <SCORE.SYSTEM.CONST>
0

>  <SCORE.SYSTEM.DIHEDRAL>
0

>  <SCORE.SYSTEM.SOLV>
0

>  <SCORE.SYSTEM.norm>
0

>  <SCORE.heavy>
11

>  <SCORE.norm>
-1.05022

>  <RMSD>
0.610

$$$$
ligand
 OpenBabel01301917033D
libRbt.so/2013.1/901 2013/11/27
 11 12  0  0  0  0  0  0  0  0999 V2000
  -11.8431  -12.7653    8.8534 N   0  0  0  0  0  0  0  0  0  0  0  0
  -11.5015  -14.0602    8.9501 C   0  0  0  0  0  0  0  0  0  0  0  0
  -11.5285  -14.6636   10.1351 N   0  0  0  0  0  0  0  0  0  0  0  0
  -11.1228  -14.7492    7.8625 N   0  0  0  0  0  0  0  0  0  0  0  0
  -11.0752  -14.1578    6.6596 C   0  0  0  0  0  0  0  0  0  0  0  0
  -11.4234  -12.8192    6.5317 C   0  0  0  0  0  0  0  0  0  0  0  0
  -11.8150  -12.1269    7.6729 C   0  0  0  0  0  0  0  0  0  0  0  0
  -12.1658  -10.8467    7.5943 N   0  0  0  0  0  0  0  0  0  0  0  0
  -11.2747  -12.4875    5.2527 N   0  0  0  0  0  0  0  0  0  0  0  0
  -10.8510  -13.5667    4.5987 C   0  0  0  0  0  0  0  0  0  0  0  0
  -10.7285  -14.5841    5.4485 N   0  0  0  0  0  0  0  0  0  0  0  0
  1  7  2  0  0  0  0
  1  2  1  0  0  0  0
  2  3  1  0  0  0  0
  2  4  2  0  0  0  0
  4  5  1  0  0  0  0
  5  6  2  0  0  0  0
  5 11  1  0  0  0  0
  6  7  1  0  0  0  0
  6  9  1  0  0  0  0
  7  8  1  0  0  0  0
  9 10  1  0  0  0  0
 10 11  2  0  0  0  0
M  END
>  <CHROM.1>
-11.39777005,-13.34804385,7.25694229,2.02536127,-1.24946153,2.13606417

>  <Name>
ligand

>  <RI>
0

>  <Rbt.Current_Directory>
/home/itssahil/PROJECTS/Mol_Feturizer/New_Systems/rnas/2b57

>  <Rbt.Executable>
rbdock ($Id: //depot/dev/client3/rdock/2013.1/src/exe/rbdock.cxx#4 $)

>  <Rbt.Library>
libRbt.so (2013.1, Build901 2013/11/27)

>  <Rbt.Parameter_File>
/export/apps/rDock/src/rDock_2013.1_src/data/scripts/dock_solv.prm

>  <Rbt.Receptor>
prm/blind_docking_40.prm

>  <SCORE>
-11.581

>  <SCORE.INTER>
-11.581

>  <SCORE.INTER.CONST>
1

>  <SCORE.INTER.POLAR>
0

>  <SCORE.INTER.ROT>
0

>  <SCORE.INTER.SOLV>
21.5513

>  <SCORE.INTER.VDW>
-18.5044

>  <SCORE.INTER.norm>
-1.05282

>  <SCORE.INTRA>
0

>  <SCORE.INTRA.DIHEDRAL>
0

>  <SCORE.INTRA.DIHEDRAL.0>
0

>  <SCORE.INTRA.POLAR>
0

>  <SCORE.INTRA.POLAR.0>
0

>  <SCORE.INTRA.REPUL>
0

>  <SCORE.INTRA.REPUL.0>
0

>  <SCORE.INTRA.SOLV>
0

>  <SCORE.INTRA.SOLV.lig_0>
-48.3454

>  <SCORE.INTRA.VDW>
0

>  <SCORE.INTRA.VDW.0>
0

>  <SCORE.INTRA.norm>
0

>  <SCORE.RESTR>
0

>  <SCORE.RESTR.CAVITY>
0

>  <SCORE.RESTR.norm>
0

>  <SCORE.SYSTEM>
0

>  <SCORE.SYSTEM.CONST>
0

>  <SCORE.SYSTEM.DIHEDRAL>
0

>  <SCORE.SYSTEM.SOLV>
0

>  <SCORE.SYSTEM.norm>
0

>  <SCORE.heavy>
11

>  <SCORE.norm>
-1.05282

>  <RMSD>
0.611

$$$$
ligand
 OpenBabel01301917033D
libRbt.so/2013.1/901 2013/11/27
 11 12  0  0  0  0  0  0  0  0999 V2000
  -11.8491  -12.7401    8.8440 N   0  0  0  0  0  0  0  0  0  0  0  0
  -11.4716  -14.0256    8.9326 C   0  0  0  0  0  0  0  0  0  0  0  0
  -11.4832  -14.6374   10.1135 N   0  0  0  0  0  0  0  0  0  0  0  0
  -11.0725  -14.6965    7.8410 N   0  0  0  0  0  0  0  0  0  0  0  0
  -11.0398  -14.0960    6.6421 C   0  0  0  0  0  0  0  0  0  0  0  0
  -11.4251  -12.7668    6.5226 C   0  0  0  0  0  0  0  0  0  0  0  0
  -11.8373  -12.0933    7.6677 C   0  0  0  0  0  0  0  0  0  0  0  0
  -12.2236  -10.8229    7.5972 N   0  0  0  0  0  0  0  0  0  0  0  0
  -11.2841  -12.4225    5.2460 N   0  0  0  0  0  0  0  0  0  0  0  0
  -10.8296  -13.4851    4.5854 C   0  0  0  0  0  0  0  0  0  0  0  0
  -10.6799  -14.5044    5.4287 N   0  0  0  0  0  0  0  0  0  0  0  0
  1  7  2  0  0  0  0
  1  2  1  0  0  0  0
  2  3  1  0  0  0  0
  2  4  2  0  0  0  0
  4  5  1  0  0  0  0
  5  6  2  0  0  0  0
  5 11  1  0  0  0  0
  6  7  1  0  0  0  0
  6  9  1  0  0  0  0
  7  8  1  0  0  0  0
  9 10  1  0  0  0  0
 10 11  2  0  0  0  0
M  END
>  <CHROM.1>
-11.38564064,-13.29956037,7.24430609,1.98442286,-1.22496767,2.10403061

>  <Name>
ligand

>  <RI>
0

>  <Rbt.Current_Directory>
/home/itssahil/PROJECTS/Mol_Feturizer/New_Systems/rnas/2b57

>  <Rbt.Executable>
rbdock ($Id: //depot/dev/client3/rdock/2013.1/src/exe/rbdock.cxx#4 $)

>  <Rbt.Library>
libRbt.so (2013.1, Build901 2013/11/27)

>  <Rbt.Parameter_File>
/export/apps/rDock/src/rDock_2013.1_src/data/scripts/dock_solv.prm

>  <Rbt.Receptor>
prm/blind_docking_80.prm

>  <SCORE>
-11.4581

>  <SCORE.INTER>
-11.4581

>  <SCORE.INTER.CONST>
1

>  <SCORE.INTER.POLAR>
0

>  <SCORE.INTER.ROT>
0

>  <SCORE.INTER.SOLV>
21.3491

>  <SCORE.INTER.VDW>
-18.3551

>  <SCORE.INTER.norm>
-1.04165

>  <SCORE.INTRA>
0

>  <SCORE.INTRA.DIHEDRAL>
0

>  <SCORE.INTRA.DIHEDRAL.0>
0

>  <SCORE.INTRA.POLAR>
0

>  <SCORE.INTRA.POLAR.0>
0

>  <SCORE.INTRA.REPUL>
0

>  <SCORE.INTRA.REPUL.0>
0

>  <SCORE.INTRA.SOLV>
0

>  <SCORE.INTRA.SOLV.lig_0>
-48.3454

>  <SCORE.INTRA.VDW>
0

>  <SCORE.INTRA.VDW.0>
0

>  <SCORE.INTRA.norm>
0

>  <SCORE.RESTR>
0

>  <SCORE.RESTR.CAVITY>
0

>  <SCORE.RESTR.norm>
0

>  <SCORE.SYSTEM>
0

>  <SCORE.SYSTEM.CONST>
0

>  <SCORE.SYSTEM.DIHEDRAL>
0

>  <SCORE.SYSTEM.SOLV>
0

>  <SCORE.SYSTEM.norm>
0

>  <SCORE.heavy>
11

>  <SCORE.norm>
-1.04165

>  <RMSD>
0.611

$$$$
ligand
 OpenBabel01301917033D
libRbt.so/2013.1/901 2013/11/27
 11 12  0  0  0  0  0  0  0  0999 V2000
  -11.8584  -12.7727    8.8510 N   0  0  0  0  0  0  0  0  0  0  0  0
  -11.5033  -14.0650    8.9319 C   0  0  0  0  0  0  0  0  0  0  0  0
  -11.5346  -14.6862   10.1075 N   0  0  0  0  0  0  0  0  0  0  0  0
  -11.1066  -14.7336    7.8379 N   0  0  0  0  0  0  0  0  0  0  0  0
  -11.0543  -14.1239    6.6444 C   0  0  0  0  0  0  0  0  0  0  0  0
  -11.4163  -12.7874    6.5329 C   0  0  0  0  0  0  0  0  0  0  0  0
  -11.8263  -12.1166    7.6803 C   0  0  0  0  0  0  0  0  0  0  0  0
  -12.1906  -10.8393    7.6173 N   0  0  0  0  0  0  0  0  0  0  0  0
  -11.2593  -12.4352    5.2604 N   0  0  0  0  0  0  0  0  0  0  0  0
  -10.8174  -13.4998    4.5946 C   0  0  0  0  0  0  0  0  0  0  0  0
  -10.6916  -14.5283    5.4305 N   0  0  0  0  0  0  0  0  0  0  0  0
  1  7  2  0  0  0  0
  1  2  1  0  0  0  0
  2  3  1  0  0  0  0
  2  4  2  0  0  0  0
  4  5  1  0  0  0  0
  5  6  2  0  0  0  0
  5 11  1  0  0  0  0
  6  7  1  0  0  0  0
  6  9  1  0  0  0  0
  7  8  1  0  0  0  0
  9 10  1  0  0  0  0
 10 11  2  0  0  0  0
M  END
>  <CHROM.1>
-11.39155461,-13.32671900,7.25042736,2.03127182,-1.23498475,2.15645891

>  <Name>
ligand

>  <RI>
0

>  <Rbt.Current_Directory>
/home/itssahil/PROJECTS/Mol_Feturizer/New_Systems/rnas/2b57

>  <Rbt.Executable>
rbdock ($Id: //depot/dev/client3/rdock/2013.1/src/exe/rbdock.cxx#4 $)

>  <Rbt.Library>
libRbt.so (2013.1, Build901 2013/11/27)

>  <Rbt.Parameter_File>
/export/apps/rDock/src/rDock_2013.1_src/data/scripts/dock_solv.prm

>  <Rbt.Receptor>
prm/blind_docking_80.prm

>  <SCORE>
-11.4852

>  <SCORE.INTER>
-11.4852

>  <SCORE.INTER.CONST>
1

>  <SCORE.INTER.POLAR>
0

>  <SCORE.INTER.ROT>
0

>  <SCORE.INTER.SOLV>
21.5096

>  <SCORE.INTER.VDW>
-18.4267

>  <SCORE.INTER.norm>
-1.04411

>  <SCORE.INTRA>
0

>  <SCORE.INTRA.DIHEDRAL>
0

>  <SCORE.INTRA.DIHEDRAL.0>
0

>  <SCORE.INTRA.POLAR>
0

>  <SCORE.INTRA.POLAR.0>
0

>  <SCORE.INTRA.REPUL>
0

>  <SCORE.INTRA.REPUL.0>
0

>  <SCORE.INTRA.SOLV>
0

>  <SCORE.INTRA.SOLV.lig_0>
-48.3454

>  <SCORE.INTRA.VDW>
0

>  <SCORE.INTRA.VDW.0>
0

>  <SCORE.INTRA.norm>
0

>  <SCORE.RESTR>
0

>  <SCORE.RESTR.CAVITY>
0

>  <SCORE.RESTR.norm>
0

>  <SCORE.SYSTEM>
0

>  <SCORE.SYSTEM.CONST>
0

>  <SCORE.SYSTEM.DIHEDRAL>
0

>  <SCORE.SYSTEM.SOLV>
0

>  <SCORE.SYSTEM.norm>
0

>  <SCORE.heavy>
11

>  <SCORE.norm>
-1.04411

>  <RMSD>
0.611

$$$$
ligand
 OpenBabel01301917033D
libRbt.so/2013.1/901 2013/11/27
 11 12  0  0  0  0  0  0  0  0999 V2000
  -11.8285  -12.6836    8.8436 N   0  0  0  0  0  0  0  0  0  0  0  0
  -11.4888  -13.9799    8.9264 C   0  0  0  0  0  0  0  0  0  0  0  0
  -11.5117  -14.5946   10.1056 N   0  0  0  0  0  0  0  0  0  0  0  0
  -11.1160  -14.6591    7.8306 N   0  0  0  0  0  0  0  0  0  0  0  0
  -11.0725  -14.0563    6.6333 C   0  0  0  0  0  0  0  0  0  0  0  0
  -11.4189  -12.7159    6.5197 C   0  0  0  0  0  0  0  0  0  0  0  0
  -11.8043  -12.0339    7.6692 C   0  0  0  0  0  0  0  0  0  0  0  0
  -12.1532  -10.7525    7.6044 N   0  0  0  0  0  0  0  0  0  0  0  0
  -11.2752  -12.3722    5.2433 N   0  0  0  0  0  0  0  0  0  0  0  0
  -10.8562  -13.4457    4.5771 C   0  0  0  0  0  0  0  0  0  0  0  0
  -10.7319  -14.4715    5.4166 N   0  0  0  0  0  0  0  0  0  0  0  0
  1  7  2  0  0  0  0
  1  2  1  0  0  0  0
  2  3  1  0  0  0  0
  2  4  2  0  0  0  0
  4  5  1  0  0  0  0
  5  6  2  0  0  0  0
  5 11  1  0  0  0  0
  6  7  1  0  0  0  0
  6  9  1  0  0  0  0
  7  8  1  0  0  0  0
  9 10  1  0  0  0  0
 10 11  2  0  0  0  0
M  END
>  <CHROM.1>
-11.39110061,-13.25173197,7.23971243,2.01671022,-1.25327678,2.13745801

>  <Name>
ligand

>  <RI>
0

>  <Rbt.Current_Directory>
/home/itssahil/PROJECTS/Mol_Feturizer/New_Systems/rnas/2b57

>  <Rbt.Executable>
rbdock ($Id: //depot/dev/client3/rdock/2013.1/src/exe/rbdock.cxx#4 $)

>  <Rbt.Library>
libRbt.so (2013.1, Build901 2013/11/27)

>  <Rbt.Parameter_File>
/export/apps/rDock/src/rDock_2013.1_src/data/scripts/dock_solv.prm

>  <Rbt.Receptor>
prm/pocket_docking_5.prm

>  <SCORE>
-11.4174

>  <SCORE.INTER>
-11.4174

>  <SCORE.INTER.CONST>
1

>  <SCORE.INTER.POLAR>
0

>  <SCORE.INTER.ROT>
0

>  <SCORE.INTER.SOLV>
21.6151

>  <SCORE.INTER.VDW>
-18.4166

>  <SCORE.INTER.norm>
-1.03794

>  <SCORE.INTRA>
0

>  <SCORE.INTRA.DIHEDRAL>
0

>  <SCORE.INTRA.DIHEDRAL.0>
0

>  <SCORE.INTRA.POLAR>
0

>  <SCORE.INTRA.POLAR.0>
0

>  <SCORE.INTRA.REPUL>
0

>  <SCORE.INTRA.REPUL.0>
0

>  <SCORE.INTRA.SOLV>
0

>  <SCORE.INTRA.SOLV.lig_0>
-48.3454

>  <SCORE.INTRA.VDW>
0

>  <SCORE.INTRA.VDW.0>
0

>  <SCORE.INTRA.norm>
0

>  <SCORE.RESTR>
0

>  <SCORE.RESTR.CAVITY>
0

>  <SCORE.RESTR.norm>
0

>  <SCORE.SYSTEM>
0

>  <SCORE.SYSTEM.CONST>
0

>  <SCORE.SYSTEM.DIHEDRAL>
0

>  <SCORE.SYSTEM.SOLV>
0

>  <SCORE.SYSTEM.norm>
0

>  <SCORE.heavy>
11

>  <SCORE.norm>
-1.03794

>  <RMSD>
0.611

$$$$
ligand
 OpenBabel01301917033D
libRbt.so/2013.1/901 2013/11/27
 11 12  0  0  0  0  0  0  0  0999 V2000
  -11.8280  -12.7585    8.8576 N   0  0  0  0  0  0  0  0  0  0  0  0
  -11.4751  -14.0507    8.9487 C   0  0  0  0  0  0  0  0  0  0  0  0
  -11.4812  -14.6550   10.1335 N   0  0  0  0  0  0  0  0  0  0  0  0
  -11.1058  -14.7361    7.8556 N   0  0  0  0  0  0  0  0  0  0  0  0
  -11.0791  -14.1437    6.6526 C   0  0  0  0  0  0  0  0  0  0  0  0
  -11.4394  -12.8077    6.5304 C   0  0  0  0  0  0  0  0  0  0  0  0
  -11.8208  -12.1192    7.6772 C   0  0  0  0  0  0  0  0  0  0  0  0
  -12.1827  -10.8417    7.6043 N   0  0  0  0  0  0  0  0  0  0  0  0
  -11.3107  -12.4741    5.2497 N   0  0  0  0  0  0  0  0  0  0  0  0
  -10.8875  -13.5496    4.5892 C   0  0  0  0  0  0  0  0  0  0  0  0
  -10.7456  -14.5665    5.4366 N   0  0  0  0  0  0  0  0  0  0  0  0
  1  7  2  0  0  0  0
  1  2  1  0  0  0  0
  2  3  1  0  0  0  0
  2  4  2  0  0  0  0
  4  5  1  0  0  0  0
  5  6  2  0  0  0  0
  5 11  1  0  0  0  0
  6  7  1  0  0  0  0
  6  9  1  0  0  0  0
  7  8  1  0  0  0  0
  9 10  1  0  0  0  0
 10 11  2  0  0  0  0
M  END
>  <CHROM.1>
-11.39983012,-13.33679143,7.25478799,1.97581131,-1.24978997,2.08969439

>  <Name>
ligand

>  <RI>
0

>  <Rbt.Current_Directory>
/home/itssahil/PROJECTS/Mol_Feturizer/New_Systems/rnas/2b57

>  <Rbt.Executable>
rbdock ($Id: //depot/dev/client3/rdock/2013.1/src/exe/rbdock.cxx#4 $)

>  <Rbt.Library>
libRbt.so (2013.1, Build901 2013/11/27)

>  <Rbt.Parameter_File>
/export/apps/rDock/src/rDock_2013.1_src/data/scripts/dock_solv.prm

>  <Rbt.Receptor>
prm/pocket_docking_6.prm

>  <SCORE>
-11.4884

>  <SCORE.INTER>
-11.4884

>  <SCORE.INTER.CONST>
1

>  <SCORE.INTER.POLAR>
0

>  <SCORE.INTER.ROT>
0

>  <SCORE.INTER.SOLV>
21.5107

>  <SCORE.INTER.VDW>
-18.4291

>  <SCORE.INTER.norm>
-1.0444

>  <SCORE.INTRA>
0

>  <SCORE.INTRA.DIHEDRAL>
0

>  <SCORE.INTRA.DIHEDRAL.0>
0

>  <SCORE.INTRA.POLAR>
0

>  <SCORE.INTRA.POLAR.0>
0

>  <SCORE.INTRA.REPUL>
0

>  <SCORE.INTRA.REPUL.0>
0

>  <SCORE.INTRA.SOLV>
0

>  <SCORE.INTRA.SOLV.lig_0>
-48.3454

>  <SCORE.INTRA.VDW>
0

>  <SCORE.INTRA.VDW.0>
0

>  <SCORE.INTRA.norm>
0

>  <SCORE.RESTR>
0

>  <SCORE.RESTR.CAVITY>
0

>  <SCORE.RESTR.norm>
0

>  <SCORE.SYSTEM>
0

>  <SCORE.SYSTEM.CONST>
0

>  <SCORE.SYSTEM.DIHEDRAL>
0

>  <SCORE.SYSTEM.SOLV>
0

>  <SCORE.SYSTEM.norm>
0

>  <SCORE.heavy>
11

>  <SCORE.norm>
-1.0444

>  <RMSD>
0.611

$$$$
ligand
 OpenBabel01301917033D
libRbt.so/2013.1/901 2013/11/27
 11 12  0  0  0  0  0  0  0  0999 V2000
  -11.8389  -12.7385    8.8478 N   0  0  0  0  0  0  0  0  0  0  0  0
  -11.4751  -14.0281    8.9327 C   0  0  0  0  0  0  0  0  0  0  0  0
  -11.4954  -14.6439   10.1114 N   0  0  0  0  0  0  0  0  0  0  0  0
  -11.0808  -14.6995    7.8395 N   0  0  0  0  0  0  0  0  0  0  0  0
  -11.0396  -14.0953    6.6428 C   0  0  0  0  0  0  0  0  0  0  0  0
  -11.4107  -12.7616    6.5271 C   0  0  0  0  0  0  0  0  0  0  0  0
  -11.8180  -12.0879    7.6738 C   0  0  0  0  0  0  0  0  0  0  0  0
  -12.1909  -10.8133    7.6069 N   0  0  0  0  0  0  0  0  0  0  0  0
  -11.2636  -12.4145    5.2520 N   0  0  0  0  0  0  0  0  0  0  0  0
  -10.8190  -13.4795    4.5887 C   0  0  0  0  0  0  0  0  0  0  0  0
  -10.6816  -14.5032    5.4287 N   0  0  0  0  0  0  0  0  0  0  0  0
  1  7  2  0  0  0  0
  1  2  1  0  0  0  0
  2  3  1  0  0  0  0
  2  4  2  0  0  0  0
  4  5  1  0  0  0  0
  5  6  2  0  0  0  0
  5 11  1  0  0  0  0
  6  7  1  0  0  0  0
  6  9  1  0  0  0  0
  7  8  1  0  0  0  0
  9 10  1  0  0  0  0
 10 11  2  0  0  0  0
M  END
>  <CHROM.1>
-11.37820637,-13.29728119,7.24709144,2.00552298,-1.23292001,2.12735032

>  <Name>
ligand

>  <RI>
0

>  <Rbt.Current_Directory>
/home/itssahil/PROJECTS/Mol_Feturizer/New_Systems/rnas/2b57

>  <Rbt.Executable>
rbdock ($Id: //depot/dev/client3/rdock/2013.1/src/exe/rbdock.cxx#4 $)

>  <Rbt.Library>
libRbt.so (2013.1, Build901 2013/11/27)

>  <Rbt.Parameter_File>
/export/apps/rDock/src/rDock_2013.1_src/data/scripts/dock_solv.prm

>  <Rbt.Receptor>
prm/pocket_docking_6.prm

>  <SCORE>
-11.4744

>  <SCORE.INTER>
-11.4744

>  <SCORE.INTER.CONST>
1

>  <SCORE.INTER.POLAR>
0

>  <SCORE.INTER.ROT>
0

>  <SCORE.INTER.SOLV>
21.4756

>  <SCORE.INTER.VDW>
-18.4082

>  <SCORE.INTER.norm>
-1.04313

>  <SCORE.INTRA>
0

>  <SCORE.INTRA.DIHEDRAL>
0

>  <SCORE.INTRA.DIHEDRAL.0>
0

>  <SCORE.INTRA.POLAR>
0

>  <SCORE.INTRA.POLAR.0>
0

>  <SCORE.INTRA.REPUL>
0

>  <SCORE.INTRA.REPUL.0>
0

>  <SCORE.INTRA.SOLV>
0

>  <SCORE.INTRA.SOLV.lig_0>
-48.3454

>  <SCORE.INTRA.VDW>
0

>  <SCORE.INTRA.VDW.0>
0

>  <SCORE.INTRA.norm>
0

>  <SCORE.RESTR>
0

>  <SCORE.RESTR.CAVITY>
0

>  <SCORE.RESTR.norm>
0

>  <SCORE.SYSTEM>
0

>  <SCORE.SYSTEM.CONST>
0

>  <SCORE.SYSTEM.DIHEDRAL>
0

>  <SCORE.SYSTEM.SOLV>
0

>  <SCORE.SYSTEM.norm>
0

>  <SCORE.heavy>
11

>  <SCORE.norm>
-1.04313

>  <RMSD>
0.611

$$$$
ligand
 OpenBabel01301917033D
libRbt.so/2013.1/901 2013/11/27
 11 12  0  0  0  0  0  0  0  0999 V2000
  -11.8491  -12.7682    8.8544 N   0  0  0  0  0  0  0  0  0  0  0  0
  -11.5098  -14.0642    8.9423 C   0  0  0  0  0  0  0  0  0  0  0  0
  -11.5311  -14.6738   10.1243 N   0  0  0  0  0  0  0  0  0  0  0  0
  -11.1390  -14.7484    7.8490 N   0  0  0  0  0  0  0  0  0  0  0  0
  -11.0971  -14.1509    6.6489 C   0  0  0  0  0  0  0  0  0  0  0  0
  -11.4431  -12.8108    6.5300 C   0  0  0  0  0  0  0  0  0  0  0  0
  -11.8265  -12.1237    7.6770 C   0  0  0  0  0  0  0  0  0  0  0  0
  -12.1749  -10.8424    7.6072 N   0  0  0  0  0  0  0  0  0  0  0  0
  -11.3013  -12.4728    5.2519 N   0  0  0  0  0  0  0  0  0  0  0  0
  -10.8837  -13.5495    4.5898 C   0  0  0  0  0  0  0  0  0  0  0  0
  -10.7585  -14.5716    5.4336 N   0  0  0  0  0  0  0  0  0  0  0  0
  1  7  2  0  0  0  0
  1  2  1  0  0  0  0
  2  3  1  0  0  0  0
  2  4  2  0  0  0  0
  4  5  1  0  0  0  0
  5  6  2  0  0  0  0
  5 11  1  0  0  0  0
  6  7  1  0  0  0  0
  6  9  1  0  0  0  0
  7  8  1  0  0  0  0
  9 10  1  0  0  0  0
 10 11  2  0  0  0  0
M  END
>  <CHROM.1>
-11.41439922,-13.34352929,7.25231409,2.01320695,-1.25445166,2.12973426

>  <Name>
ligand

>  <RI>
0

>  <Rbt.Current_Directory>
/home/itssahil/PROJECTS/Mol_Feturizer/New_Systems/rnas/2b57

>  <Rbt.Executable>
rbdock ($Id: //depot/dev/client3/rdock/2013.1/src/exe/rbdock.cxx#4 $)

>  <Rbt.Library>
libRbt.so (2013.1, Build901 2013/11/27)

>  <Rbt.Parameter_File>
/export/apps/rDock/src/rDock_2013.1_src/data/scripts/dock_solv.prm

>  <Rbt.Receptor>
prm/pocket_docking_8.prm

>  <SCORE>
-11.5521

>  <SCORE.INTER>
-11.5521

>  <SCORE.INTER.CONST>
1

>  <SCORE.INTER.POLAR>
0

>  <SCORE.INTER.ROT>
0

>  <SCORE.INTER.SOLV>
21.5585

>  <SCORE.INTER.VDW>
-18.4876

>  <SCORE.INTER.norm>
-1.05019

>  <SCORE.INTRA>
0

>  <SCORE.INTRA.DIHEDRAL>
0

>  <SCORE.INTRA.DIHEDRAL.0>
0

>  <SCORE.INTRA.POLAR>
0

>  <SCORE.INTRA.POLAR.0>
0

>  <SCORE.INTRA.REPUL>
0

>  <SCORE.INTRA.REPUL.0>
0

>  <SCORE.INTRA.SOLV>
0

>  <SCORE.INTRA.SOLV.lig_0>
-48.3454

>  <SCORE.INTRA.VDW>
0

>  <SCORE.INTRA.VDW.0>
0

>  <SCORE.INTRA.norm>
0

>  <SCORE.RESTR>
0

>  <SCORE.RESTR.CAVITY>
0

>  <SCORE.RESTR.norm>
0

>  <SCORE.SYSTEM>
0

>  <SCORE.SYSTEM.CONST>
0

>  <SCORE.SYSTEM.DIHEDRAL>
0

>  <SCORE.SYSTEM.SOLV>
0

>  <SCORE.SYSTEM.norm>
0

>  <SCORE.heavy>
11

>  <SCORE.norm>
-1.05019

>  <RMSD>
0.611

$$$$
ligand
 OpenBabel01301917033D
libRbt.so/2013.1/901 2013/11/27
 11 12  0  0  0  0  0  0  0  0999 V2000
  -11.8394  -12.7639    8.8559 N   0  0  0  0  0  0  0  0  0  0  0  0
  -11.5083  -14.0621    8.9430 C   0  0  0  0  0  0  0  0  0  0  0  0
  -11.5322  -14.6720   10.1247 N   0  0  0  0  0  0  0  0  0  0  0  0
  -11.1430  -14.7482    7.8489 N   0  0  0  0  0  0  0  0  0  0  0  0
  -11.0987  -14.1505    6.6490 C   0  0  0  0  0  0  0  0  0  0  0  0
  -11.4363  -12.8081    6.5311 C   0  0  0  0  0  0  0  0  0  0  0  0
  -11.8140  -12.1191    7.6788 C   0  0  0  0  0  0  0  0  0  0  0  0
  -12.1543  -10.8355    7.6099 N   0  0  0  0  0  0  0  0  0  0  0  0
  -11.2937  -12.4705    5.2529 N   0  0  0  0  0  0  0  0  0  0  0  0
  -10.8837  -13.5495    4.5899 C   0  0  0  0  0  0  0  0  0  0  0  0
  -10.7641  -14.5728    5.4332 N   0  0  0  0  0  0  0  0  0  0  0  0
  1  7  2  0  0  0  0
  1  2  1  0  0  0  0
  2  3  1  0  0  0  0
  2  4  2  0  0  0  0
  4  5  1  0  0  0  0
  5  6  2  0  0  0  0
  5 11  1  0  0  0  0
  6  7  1  0  0  0  0
  6  9  1  0  0  0  0
  7  8  1  0  0  0  0
  9 10  1  0  0  0  0
 10 11  2  0  0  0  0
M  END
>  <CHROM.1>
-11.41016815,-13.34134394,7.25312886,2.02124251,-1.26043166,2.13779295

>  <Name>
ligand

>  <RI>
0

>  <Rbt.Current_Directory>
/home/itssahil/PROJECTS/Mol_Feturizer/New_Systems/rnas/2b57

>  <Rbt.Executable>
rbdock ($Id: //depot/dev/client3/rdock/2013.1/src/exe/rbdock.cxx#4 $)

>  <Rbt.Library>
libRbt.so (2013.1, Build901 2013/11/27)

>  <Rbt.Parameter_File>
/export/apps/rDock/src/rDock_2013.1_src/data/scripts/dock_solv.prm

>  <Rbt.Receptor>
prm/blind_docking_60.prm

>  <SCORE>
-11.5482

>  <SCORE.INTER>
-11.5482

>  <SCORE.INTER.CONST>
1

>  <SCORE.INTER.POLAR>
0

>  <SCORE.INTER.ROT>
0

>  <SCORE.INTER.SOLV>
21.6361

>  <SCORE.INTER.VDW>
-18.5108

>  <SCORE.INTER.norm>
-1.04983

>  <SCORE.INTRA>
0

>  <SCORE.INTRA.DIHEDRAL>
0

>  <SCORE.INTRA.DIHEDRAL.0>
0

>  <SCORE.INTRA.POLAR>
0

>  <SCORE.INTRA.POLAR.0>
0

>  <SCORE.INTRA.REPUL>
0

>  <SCORE.INTRA.REPUL.0>
0

>  <SCORE.INTRA.SOLV>
0

>  <SCORE.INTRA.SOLV.lig_0>
-48.3454

>  <SCORE.INTRA.VDW>
0

>  <SCORE.INTRA.VDW.0>
0

>  <SCORE.INTRA.norm>
0

>  <SCORE.RESTR>
0

>  <SCORE.RESTR.CAVITY>
0

>  <SCORE.RESTR.norm>
0

>  <SCORE.SYSTEM>
0

>  <SCORE.SYSTEM.CONST>
0

>  <SCORE.SYSTEM.DIHEDRAL>
0

>  <SCORE.SYSTEM.SOLV>
0

>  <SCORE.SYSTEM.norm>
0

>  <SCORE.heavy>
11

>  <SCORE.norm>
-1.04983

>  <RMSD>
0.612

$$$$
ligand
 OpenBabel01301917033D
libRbt.so/2013.1/901 2013/11/27
 11 12  0  0  0  0  0  0  0  0999 V2000
  -11.8446  -12.7661    8.8544 N   0  0  0  0  0  0  0  0  0  0  0  0
  -11.5094  -14.0632    8.9431 C   0  0  0  0  0  0  0  0  0  0  0  0
  -11.5331  -14.6721   10.1254 N   0  0  0  0  0  0  0  0  0  0  0  0
  -11.1404  -14.7492    7.8503 N   0  0  0  0  0  0  0  0  0  0  0  0
  -11.0963  -14.1525    6.6499 C   0  0  0  0  0  0  0  0  0  0  0  0
  -11.4380  -12.8114    6.5301 C   0  0  0  0  0  0  0  0  0  0  0  0
  -11.8195  -12.1224    7.6766 C   0  0  0  0  0  0  0  0  0  0  0  0
  -12.1639  -10.8400    7.6060 N   0  0  0  0  0  0  0  0  0  0  0  0
  -11.2946  -12.4745    5.2519 N   0  0  0  0  0  0  0  0  0  0  0  0
  -10.8803  -13.5529    4.5905 C   0  0  0  0  0  0  0  0  0  0  0  0
  -10.7586  -14.5750    5.4349 N   0  0  0  0  0  0  0  0  0  0  0  0
  1  7  2  0  0  0  0
  1  2  1  0  0  0  0
  2  3  1  0  0  0  0
  2  4  2  0  0  0  0
  4  5  1  0  0  0  0
  5  6  2  0  0  0  0
  5 11  1  0  0  0  0
  6  7  1  0  0  0  0
  6  9  1  0  0  0  0
  7  8  1  0  0  0  0
  9 10  1  0  0  0  0
 10 11  2  0  0  0  0
M  END
>  <CHROM.1>
-11.41120232,-13.34380047,7.25273871,2.01960263,-1.25696733,2.13525101

>  <Name>
ligand

>  <RI>
0

>  <Rbt.Current_Directory>
/home/itssahil/PROJECTS/Mol_Feturizer/New_Systems/rnas/2b57

>  <Rbt.Executable>
rbdock ($Id: //depot/dev/client3/rdock/2013.1/src/exe/rbdock.cxx#4 $)

>  <Rbt.Library>
libRbt.so (2013.1, Build901 2013/11/27)

>  <Rbt.Parameter_File>
/export/apps/rDock/src/rDock_2013.1_src/data/scripts/dock_solv.prm

>  <Rbt.Receptor>
prm/blind_docking_80.prm

>  <SCORE>
-11.5515

>  <SCORE.INTER>
-11.5515

>  <SCORE.INTER.CONST>
1

>  <SCORE.INTER.POLAR>
0

>  <SCORE.INTER.ROT>
0

>  <SCORE.INTER.SOLV>
21.5934

>  <SCORE.INTER.VDW>
-18.4988

>  <SCORE.INTER.norm>
-1.05013

>  <SCORE.INTRA>
0

>  <SCORE.INTRA.DIHEDRAL>
0

>  <SCORE.INTRA.DIHEDRAL.0>
0

>  <SCORE.INTRA.POLAR>
0

>  <SCORE.INTRA.POLAR.0>
0

>  <SCORE.INTRA.REPUL>
0

>  <SCORE.INTRA.REPUL.0>
0

>  <SCORE.INTRA.SOLV>
0

>  <SCORE.INTRA.SOLV.lig_0>
-48.3454

>  <SCORE.INTRA.VDW>
0

>  <SCORE.INTRA.VDW.0>
0

>  <SCORE.INTRA.norm>
0

>  <SCORE.RESTR>
0

>  <SCORE.RESTR.CAVITY>
0

>  <SCORE.RESTR.norm>
0

>  <SCORE.SYSTEM>
0

>  <SCORE.SYSTEM.CONST>
0

>  <SCORE.SYSTEM.DIHEDRAL>
0

>  <SCORE.SYSTEM.SOLV>
0

>  <SCORE.SYSTEM.norm>
0

>  <SCORE.heavy>
11

>  <SCORE.norm>
-1.05013

>  <RMSD>
0.612

$$$$
ligand
 OpenBabel01301917033D
libRbt.so/2013.1/901 2013/11/27
 11 12  0  0  0  0  0  0  0  0999 V2000
  -11.8528  -12.7325    8.8488 N   0  0  0  0  0  0  0  0  0  0  0  0
  -11.4966  -14.0255    8.9128 C   0  0  0  0  0  0  0  0  0  0  0  0
  -11.5225  -14.6606   10.0811 N   0  0  0  0  0  0  0  0  0  0  0  0
  -11.1045  -14.6809    7.8093 N   0  0  0  0  0  0  0  0  0  0  0  0
  -11.0578  -14.0571    6.6228 C   0  0  0  0  0  0  0  0  0  0  0  0
  -11.4209  -12.7196    6.5288 C   0  0  0  0  0  0  0  0  0  0  0  0
  -11.8261  -12.0626    7.6859 C   0  0  0  0  0  0  0  0  0  0  0  0
  -12.1914  -10.7849    7.6396 N   0  0  0  0  0  0  0  0  0  0  0  0
  -11.2697  -12.3522    5.2598 N   0  0  0  0  0  0  0  0  0  0  0  0
  -10.8302  -13.4087    4.5796 C   0  0  0  0  0  0  0  0  0  0  0  0
  -10.7002  -14.4470    5.4027 N   0  0  0  0  0  0  0  0  0  0  0  0
  1  7  2  0  0  0  0
  1  2  1  0  0  0  0
  2  3  1  0  0  0  0
  2  4  2  0  0  0  0
  4  5  1  0  0  0  0
  5  6  2  0  0  0  0
  5 11  1  0  0  0  0
  6  7  1  0  0  0  0
  6  9  1  0  0  0  0
  7  8  1  0  0  0  0
  9 10  1  0  0  0  0
 10 11  2  0  0  0  0
M  END
>  <CHROM.1>
-11.39272311,-13.26734096,7.23976526,2.01921658,-1.23699463,2.15690602

>  <Name>
ligand

>  <RI>
0

>  <Rbt.Current_Directory>
/home/itssahil/PROJECTS/Mol_Feturizer/New_Systems/rnas/2b57

>  <Rbt.Executable>
rbdock ($Id: //depot/dev/client3/rdock/2013.1/src/exe/rbdock.cxx#4 $)

>  <Rbt.Library>
libRbt.so (2013.1, Build901 2013/11/27)

>  <Rbt.Parameter_File>
/export/apps/rDock/src/rDock_2013.1_src/data/scripts/dock_solv.prm

>  <Rbt.Receptor>
prm/pocket_docking_3.prm

>  <SCORE>
-11.4429

>  <SCORE.INTER>
-11.4429

>  <SCORE.INTER.CONST>
1

>  <SCORE.INTER.POLAR>
0

>  <SCORE.INTER.ROT>
0

>  <SCORE.INTER.SOLV>
21.5396

>  <SCORE.INTER.VDW>
-18.4084

>  <SCORE.INTER.norm>
-1.04026

>  <SCORE.INTRA>
0

>  <SCORE.INTRA.DIHEDRAL>
0

>  <SCORE.INTRA.DIHEDRAL.0>
0

>  <SCORE.INTRA.POLAR>
0

>  <SCORE.INTRA.POLAR.0>
0

>  <SCORE.INTRA.REPUL>
0

>  <SCORE.INTRA.REPUL.0>
0

>  <SCORE.INTRA.SOLV>
0

>  <SCORE.INTRA.SOLV.lig_0>
-48.3454

>  <SCORE.INTRA.VDW>
0

>  <SCORE.INTRA.VDW.0>
0

>  <SCORE.INTRA.norm>
0

>  <SCORE.RESTR>
0

>  <SCORE.RESTR.CAVITY>
0

>  <SCORE.RESTR.norm>
0

>  <SCORE.SYSTEM>
0

>  <SCORE.SYSTEM.CONST>
0

>  <SCORE.SYSTEM.DIHEDRAL>
0

>  <SCORE.SYSTEM.SOLV>
0

>  <SCORE.SYSTEM.norm>
0

>  <SCORE.heavy>
11

>  <SCORE.norm>
-1.04026

>  <RMSD>
0.612

$$$$
ligand
 OpenBabel01301917033D
libRbt.so/2013.1/901 2013/11/27
 11 12  0  0  0  0  0  0  0  0999 V2000
  -11.8468  -12.7903    8.8600 N   0  0  0  0  0  0  0  0  0  0  0  0
  -11.5063  -14.0860    8.9485 C   0  0  0  0  0  0  0  0  0  0  0  0
  -11.5333  -14.6968   10.1296 N   0  0  0  0  0  0  0  0  0  0  0  0
  -11.1286  -14.7686    7.8564 N   0  0  0  0  0  0  0  0  0  0  0  0
  -11.0809  -14.1697    6.6573 C   0  0  0  0  0  0  0  0  0  0  0  0
  -11.4280  -12.8300    6.5379 C   0  0  0  0  0  0  0  0  0  0  0  0
  -11.8185  -12.1445    7.6835 C   0  0  0  0  0  0  0  0  0  0  0  0
  -12.1683  -10.8636    7.6131 N   0  0  0  0  0  0  0  0  0  0  0  0
  -11.2795  -12.4904    5.2609 N   0  0  0  0  0  0  0  0  0  0  0  0
  -10.8569  -13.5658    4.6000 C   0  0  0  0  0  0  0  0  0  0  0  0
  -10.7351  -14.5887    5.4434 N   0  0  0  0  0  0  0  0  0  0  0  0
  1  7  2  0  0  0  0
  1  2  1  0  0  0  0
  2  3  1  0  0  0  0
  2  4  2  0  0  0  0
  4  5  1  0  0  0  0
  5  6  2  0  0  0  0
  5 11  1  0  0  0  0
  6  7  1  0  0  0  0
  6  9  1  0  0  0  0
  7  8  1  0  0  0  0
  9 10  1  0  0  0  0
 10 11  2  0  0  0  0
M  END
>  <CHROM.1>
-11.40255480,-13.36340391,7.25974944,2.02585501,-1.25040776,2.14279959

>  <Name>
ligand

>  <RI>
0

>  <Rbt.Current_Directory>
/home/itssahil/PROJECTS/Mol_Feturizer/New_Systems/rnas/2b57

>  <Rbt.Executable>
rbdock ($Id: //depot/dev/client3/rdock/2013.1/src/exe/rbdock.cxx#4 $)

>  <Rbt.Library>
libRbt.so (2013.1, Build901 2013/11/27)

>  <Rbt.Parameter_File>
/export/apps/rDock/src/rDock_2013.1_src/data/scripts/dock_solv.prm

>  <Rbt.Receptor>
prm/pocket_docking_4.prm

>  <SCORE>
-11.5719

>  <SCORE.INTER>
-11.5719

>  <SCORE.INTER.CONST>
1

>  <SCORE.INTER.POLAR>
0

>  <SCORE.INTER.ROT>
0

>  <SCORE.INTER.SOLV>
21.5877

>  <SCORE.INTER.VDW>
-18.5105

>  <SCORE.INTER.norm>
-1.05199

>  <SCORE.INTRA>
0

>  <SCORE.INTRA.DIHEDRAL>
0

>  <SCORE.INTRA.DIHEDRAL.0>
0

>  <SCORE.INTRA.POLAR>
0

>  <SCORE.INTRA.POLAR.0>
0

>  <SCORE.INTRA.REPUL>
0

>  <SCORE.INTRA.REPUL.0>
0

>  <SCORE.INTRA.SOLV>
0

>  <SCORE.INTRA.SOLV.lig_0>
-48.3454

>  <SCORE.INTRA.VDW>
0

>  <SCORE.INTRA.VDW.0>
0

>  <SCORE.INTRA.norm>
0

>  <SCORE.RESTR>
0

>  <SCORE.RESTR.CAVITY>
0

>  <SCORE.RESTR.norm>
0

>  <SCORE.SYSTEM>
0

>  <SCORE.SYSTEM.CONST>
0

>  <SCORE.SYSTEM.DIHEDRAL>
0

>  <SCORE.SYSTEM.SOLV>
0

>  <SCORE.SYSTEM.norm>
0

>  <SCORE.heavy>
11

>  <SCORE.norm>
-1.05199

>  <RMSD>
0.612

$$$$
ligand
 OpenBabel01301917033D
libRbt.so/2013.1/901 2013/11/27
 11 12  0  0  0  0  0  0  0  0999 V2000
  -11.8520  -12.7697    8.8507 N   0  0  0  0  0  0  0  0  0  0  0  0
  -11.4971  -14.0619    8.9350 C   0  0  0  0  0  0  0  0  0  0  0  0
  -11.5238  -14.6786   10.1131 N   0  0  0  0  0  0  0  0  0  0  0  0
  -11.1054  -14.7348    7.8419 N   0  0  0  0  0  0  0  0  0  0  0  0
  -11.0578  -14.1297    6.6459 C   0  0  0  0  0  0  0  0  0  0  0  0
  -11.4195  -12.7935    6.5308 C   0  0  0  0  0  0  0  0  0  0  0  0
  -11.8244  -12.1181    7.6774 C   0  0  0  0  0  0  0  0  0  0  0  0
  -12.1885  -10.8409    7.6110 N   0  0  0  0  0  0  0  0  0  0  0  0
  -11.2677  -12.4462    5.2563 N   0  0  0  0  0  0  0  0  0  0  0  0
  -10.8290  -13.5135    4.5928 C   0  0  0  0  0  0  0  0  0  0  0  0
  -10.7002  -14.5389    5.4320 N   0  0  0  0  0  0  0  0  0  0  0  0
  1  7  2  0  0  0  0
  1  2  1  0  0  0  0
  2  3  1  0  0  0  0
  2  4  2  0  0  0  0
  4  5  1  0  0  0  0
  5  6  2  0  0  0  0
  5 11  1  0  0  0  0
  6  7  1  0  0  0  0
  6  9  1  0  0  0  0
  7  8  1  0  0  0  0
  9 10  1  0  0  0  0
 10 11  2  0  0  0  0
M  END
>  <CHROM.1>
-11.39207091,-13.33007162,7.25029180,2.02145623,-1.23766472,2.14338714

>  <Name>
ligand

>  <RI>
0

>  <Rbt.Current_Directory>
/home/itssahil/PROJECTS/Mol_Feturizer/New_Systems/rnas/2b57

>  <Rbt.Executable>
rbdock ($Id: //depot/dev/client3/rdock/2013.1/src/exe/rbdock.cxx#4 $)

>  <Rbt.Library>
libRbt.so (2013.1, Build901 2013/11/27)

>  <Rbt.Parameter_File>
/export/apps/rDock/src/rDock_2013.1_src/data/scripts/dock_solv.prm

>  <Rbt.Receptor>
prm/pocket_docking_4.prm

>  <SCORE>
-11.4906

>  <SCORE.INTER>
-11.4906

>  <SCORE.INTER.CONST>
1

>  <SCORE.INTER.POLAR>
0

>  <SCORE.INTER.ROT>
0

>  <SCORE.INTER.SOLV>
21.5022

>  <SCORE.INTER.VDW>
-18.4278

>  <SCORE.INTER.norm>
-1.0446

>  <SCORE.INTRA>
0

>  <SCORE.INTRA.DIHEDRAL>
0

>  <SCORE.INTRA.DIHEDRAL.0>
0

>  <SCORE.INTRA.POLAR>
0

>  <SCORE.INTRA.POLAR.0>
0

>  <SCORE.INTRA.REPUL>
0

>  <SCORE.INTRA.REPUL.0>
0

>  <SCORE.INTRA.SOLV>
0

>  <SCORE.INTRA.SOLV.lig_0>
-48.3454

>  <SCORE.INTRA.VDW>
0

>  <SCORE.INTRA.VDW.0>
0

>  <SCORE.INTRA.norm>
0

>  <SCORE.RESTR>
0

>  <SCORE.RESTR.CAVITY>
0

>  <SCORE.RESTR.norm>
0

>  <SCORE.SYSTEM>
0

>  <SCORE.SYSTEM.CONST>
0

>  <SCORE.SYSTEM.DIHEDRAL>
0

>  <SCORE.SYSTEM.SOLV>
0

>  <SCORE.SYSTEM.norm>
0

>  <SCORE.heavy>
11

>  <SCORE.norm>
-1.0446

>  <RMSD>
0.612

$$$$
ligand
 OpenBabel01301917033D
libRbt.so/2013.1/901 2013/11/27
 11 12  0  0  0  0  0  0  0  0999 V2000
  -11.8146  -12.7524    8.8580 N   0  0  0  0  0  0  0  0  0  0  0  0
  -11.4585  -14.0435    8.9525 C   0  0  0  0  0  0  0  0  0  0  0  0
  -11.4608  -14.6442   10.1392 N   0  0  0  0  0  0  0  0  0  0  0  0
  -11.0898  -14.7315    7.8608 N   0  0  0  0  0  0  0  0  0  0  0  0
  -11.0669  -14.1428    6.6559 C   0  0  0  0  0  0  0  0  0  0  0  0
  -11.4305  -12.8080    6.5302 C   0  0  0  0  0  0  0  0  0  0  0  0
  -11.8112  -12.1168    7.6757 C   0  0  0  0  0  0  0  0  0  0  0  0
  -12.1761  -10.8404    7.5995 N   0  0  0  0  0  0  0  0  0  0  0  0
  -11.3052  -12.4781    5.2482 N   0  0  0  0  0  0  0  0  0  0  0  0
  -10.8808  -13.5547    4.5903 C   0  0  0  0  0  0  0  0  0  0  0  0
  -10.7348  -14.5687    5.4405 N   0  0  0  0  0  0  0  0  0  0  0  0
  1  7  2  0  0  0  0
  1  2  1  0  0  0  0
  2  3  1  0  0  0  0
  2  4  2  0  0  0  0
  4  5  1  0  0  0  0
  5  6  2  0  0  0  0
  5 11  1  0  0  0  0
  6  7  1  0  0  0  0
  6  9  1  0  0  0  0
  7  8  1  0  0  0  0
  9 10  1  0  0  0  0
 10 11  2  0  0  0  0
M  END
>  <CHROM.1>
-11.38826712,-13.33475681,7.25619117,1.96669912,-1.24878300,2.07793089

>  <Name>
ligand

>  <RI>
0

>  <Rbt.Current_Directory>
/home/itssahil/PROJECTS/Mol_Feturizer/New_Systems/rnas/2b57

>  <Rbt.Executable>
rbdock ($Id: //depot/dev/client3/rdock/2013.1/src/exe/rbdock.cxx#4 $)

>  <Rbt.Library>
libRbt.so (2013.1, Build901 2013/11/27)

>  <Rbt.Parameter_File>
/export/apps/rDock/src/rDock_2013.1_src/data/scripts/dock_solv.prm

>  <Rbt.Receptor>
prm/pocket_docking_7.prm

>  <SCORE>
-11.5108

>  <SCORE.INTER>
-11.5108

>  <SCORE.INTER.CONST>
1

>  <SCORE.INTER.POLAR>
0

>  <SCORE.INTER.ROT>
0

>  <SCORE.INTER.SOLV>
21.5169

>  <SCORE.INTER.VDW>
-18.4462

>  <SCORE.INTER.norm>
-1.04644

>  <SCORE.INTRA>
0

>  <SCORE.INTRA.DIHEDRAL>
0

>  <SCORE.INTRA.DIHEDRAL.0>
0

>  <SCORE.INTRA.POLAR>
0

>  <SCORE.INTRA.POLAR.0>
0

>  <SCORE.INTRA.REPUL>
0

>  <SCORE.INTRA.REPUL.0>
0

>  <SCORE.INTRA.SOLV>
0

>  <SCORE.INTRA.SOLV.lig_0>
-48.3454

>  <SCORE.INTRA.VDW>
0

>  <SCORE.INTRA.VDW.0>
0

>  <SCORE.INTRA.norm>
0

>  <SCORE.RESTR>
0

>  <SCORE.RESTR.CAVITY>
0

>  <SCORE.RESTR.norm>
0

>  <SCORE.SYSTEM>
0

>  <SCORE.SYSTEM.CONST>
0

>  <SCORE.SYSTEM.DIHEDRAL>
0

>  <SCORE.SYSTEM.SOLV>
0

>  <SCORE.SYSTEM.norm>
0

>  <SCORE.heavy>
11

>  <SCORE.norm>
-1.04644

>  <RMSD>
0.612

$$$$
ligand
 OpenBabel01301917033D
libRbt.so/2013.1/901 2013/11/27
 11 12  0  0  0  0  0  0  0  0999 V2000
  -11.8506  -12.7688    8.8525 N   0  0  0  0  0  0  0  0  0  0  0  0
  -11.5090  -14.0641    8.9426 C   0  0  0  0  0  0  0  0  0  0  0  0
  -11.5310  -14.6722   10.1253 N   0  0  0  0  0  0  0  0  0  0  0  0
  -11.1353  -14.7491    7.8507 N   0  0  0  0  0  0  0  0  0  0  0  0
  -11.0928  -14.1530    6.6499 C   0  0  0  0  0  0  0  0  0  0  0  0
  -11.4410  -12.8138    6.5288 C   0  0  0  0  0  0  0  0  0  0  0  0
  -11.8274  -12.1259    7.6743 C   0  0  0  0  0  0  0  0  0  0  0  0
  -12.1782  -10.8453    7.6023 N   0  0  0  0  0  0  0  0  0  0  0  0
  -11.2979  -12.4772    5.2504 N   0  0  0  0  0  0  0  0  0  0  0  0
  -10.8774  -13.5539    4.5903 C   0  0  0  0  0  0  0  0  0  0  0  0
  -10.7515  -14.5747    5.4357 N   0  0  0  0  0  0  0  0  0  0  0  0
  1  7  2  0  0  0  0
  1  2  1  0  0  0  0
  2  3  1  0  0  0  0
  2  4  2  0  0  0  0
  4  5  1  0  0  0  0
  5  6  2  0  0  0  0
  5 11  1  0  0  0  0
  6  7  1  0  0  0  0
  6  9  1  0  0  0  0
  7  8  1  0  0  0  0
  9 10  1  0  0  0  0
 10 11  2  0  0  0  0
M  END
>  <CHROM.1>
-11.41245307,-13.34548991,7.25180091,2.01415254,-1.25207605,2.12931293

>  <Name>
ligand

>  <RI>
0

>  <Rbt.Current_Directory>
/home/itssahil/PROJECTS/Mol_Feturizer/New_Systems/rnas/2b57

>  <Rbt.Executable>
rbdock ($Id: //depot/dev/client3/rdock/2013.1/src/exe/rbdock.cxx#4 $)

>  <Rbt.Library>
libRbt.so (2013.1, Build901 2013/11/27)

>  <Rbt.Parameter_File>
/export/apps/rDock/src/rDock_2013.1_src/data/scripts/dock_solv.prm

>  <Rbt.Receptor>
prm/pocket_docking_7.prm

>  <SCORE>
-11.5539

>  <SCORE.INTER>
-11.5539

>  <SCORE.INTER.CONST>
1

>  <SCORE.INTER.POLAR>
0

>  <SCORE.INTER.ROT>
0

>  <SCORE.INTER.SOLV>
21.5364

>  <SCORE.INTER.VDW>
-18.4814

>  <SCORE.INTER.norm>
-1.05036

>  <SCORE.INTRA>
0

>  <SCORE.INTRA.DIHEDRAL>
0

>  <SCORE.INTRA.DIHEDRAL.0>
0

>  <SCORE.INTRA.POLAR>
0

>  <SCORE.INTRA.POLAR.0>
0

>  <SCORE.INTRA.REPUL>
0

>  <SCORE.INTRA.REPUL.0>
0

>  <SCORE.INTRA.SOLV>
0

>  <SCORE.INTRA.SOLV.lig_0>
-48.3454

>  <SCORE.INTRA.VDW>
0

>  <SCORE.INTRA.VDW.0>
0

>  <SCORE.INTRA.norm>
0

>  <SCORE.RESTR>
0

>  <SCORE.RESTR.CAVITY>
0

>  <SCORE.RESTR.norm>
0

>  <SCORE.SYSTEM>
0

>  <SCORE.SYSTEM.CONST>
0

>  <SCORE.SYSTEM.DIHEDRAL>
0

>  <SCORE.SYSTEM.SOLV>
0

>  <SCORE.SYSTEM.norm>
0

>  <SCORE.heavy>
11

>  <SCORE.norm>
-1.05036

>  <RMSD>
0.612

$$$$
ligand
 OpenBabel01301917033D
libRbt.so/2013.1/901 2013/11/27
 11 12  0  0  0  0  0  0  0  0999 V2000
  -11.8990  -12.7650    8.8346 N   0  0  0  0  0  0  0  0  0  0  0  0
  -11.5098  -14.0467    8.9262 C   0  0  0  0  0  0  0  0  0  0  0  0
  -11.5180  -14.6566   10.1081 N   0  0  0  0  0  0  0  0  0  0  0  0
  -11.1024  -14.7159    7.8365 N   0  0  0  0  0  0  0  0  0  0  0  0
  -11.0730  -14.1172    6.6367 C   0  0  0  0  0  0  0  0  0  0  0  0
  -11.4702  -12.7918    6.5140 C   0  0  0  0  0  0  0  0  0  0  0  0
  -11.8908  -12.1202    7.6572 C   0  0  0  0  0  0  0  0  0  0  0  0
  -12.2887  -10.8535    7.5837 N   0  0  0  0  0  0  0  0  0  0  0  0
  -11.3300  -12.4485    5.2371 N   0  0  0  0  0  0  0  0  0  0  0  0
  -10.8645  -13.5080    4.5793 C   0  0  0  0  0  0  0  0  0  0  0  0
  -10.7070  -14.5244    5.4247 N   0  0  0  0  0  0  0  0  0  0  0  0
  1  7  2  0  0  0  0
  1  2  1  0  0  0  0
  2  3  1  0  0  0  0
  2  4  2  0  0  0  0
  4  5  1  0  0  0  0
  5  6  2  0  0  0  0
  5 11  1  0  0  0  0
  6  7  1  0  0  0  0
  6  9  1  0  0  0  0
  7  8  1  0  0  0  0
  9 10  1  0  0  0  0
 10 11  2  0  0  0  0
M  END
>  <CHROM.1>
-11.42729475,-13.32291407,7.23678982,1.97569055,-1.21605292,2.09406642

>  <Name>
ligand

>  <RI>
0

>  <Rbt.Current_Directory>
/home/itssahil/PROJECTS/Mol_Feturizer/New_Systems/rnas/2b57

>  <Rbt.Executable>
rbdock ($Id: //depot/dev/client3/rdock/2013.1/src/exe/rbdock.cxx#4 $)

>  <Rbt.Library>
libRbt.so (2013.1, Build901 2013/11/27)

>  <Rbt.Parameter_File>
/export/apps/rDock/src/rDock_2013.1_src/data/scripts/dock_solv.prm

>  <Rbt.Receptor>
prm/pocket_docking_4.prm

>  <SCORE>
-11.4265

>  <SCORE.INTER>
-11.4265

>  <SCORE.INTER.CONST>
1

>  <SCORE.INTER.POLAR>
0

>  <SCORE.INTER.ROT>
0

>  <SCORE.INTER.SOLV>
21.1702

>  <SCORE.INTER.VDW>
-18.2744

>  <SCORE.INTER.norm>
-1.03877

>  <SCORE.INTRA>
0

>  <SCORE.INTRA.DIHEDRAL>
0

>  <SCORE.INTRA.DIHEDRAL.0>
0

>  <SCORE.INTRA.POLAR>
0

>  <SCORE.INTRA.POLAR.0>
0

>  <SCORE.INTRA.REPUL>
0

>  <SCORE.INTRA.REPUL.0>
0

>  <SCORE.INTRA.SOLV>
0

>  <SCORE.INTRA.SOLV.lig_0>
-48.3454

>  <SCORE.INTRA.VDW>
0

>  <SCORE.INTRA.VDW.0>
0

>  <SCORE.INTRA.norm>
0

>  <SCORE.RESTR>
0

>  <SCORE.RESTR.CAVITY>
0

>  <SCORE.RESTR.norm>
0

>  <SCORE.SYSTEM>
0

>  <SCORE.SYSTEM.CONST>
0

>  <SCORE.SYSTEM.DIHEDRAL>
0

>  <SCORE.SYSTEM.SOLV>
0

>  <SCORE.SYSTEM.norm>
0

>  <SCORE.heavy>
11

>  <SCORE.norm>
-1.03877

>  <RMSD>
0.613

$$$$
ligand
 OpenBabel01301917033D
libRbt.so/2013.1/901 2013/11/27
 11 12  0  0  0  0  0  0  0  0999 V2000
  -11.8669  -12.7766    8.8478 N   0  0  0  0  0  0  0  0  0  0  0  0
  -11.4821  -14.0603    8.9291 C   0  0  0  0  0  0  0  0  0  0  0  0
  -11.4923  -14.6796   10.1062 N   0  0  0  0  0  0  0  0  0  0  0  0
  -11.0772  -14.7222    7.8341 N   0  0  0  0  0  0  0  0  0  0  0  0
  -11.0459  -14.1141    6.6391 C   0  0  0  0  0  0  0  0  0  0  0  0
  -11.4385  -12.7863    6.5271 C   0  0  0  0  0  0  0  0  0  0  0  0
  -11.8567  -12.1224    7.6757 C   0  0  0  0  0  0  0  0  0  0  0  0
  -12.2501  -10.8539    7.6123 N   0  0  0  0  0  0  0  0  0  0  0  0
  -11.2973  -12.4334    5.2530 N   0  0  0  0  0  0  0  0  0  0  0  0
  -10.8355  -13.4892    4.5866 C   0  0  0  0  0  0  0  0  0  0  0  0
  -10.6814  -14.5128    5.4238 N   0  0  0  0  0  0  0  0  0  0  0  0
  1  7  2  0  0  0  0
  1  2  1  0  0  0  0
  2  3  1  0  0  0  0
  2  4  2  0  0  0  0
  4  5  1  0  0  0  0
  5  6  2  0  0  0  0
  5 11  1  0  0  0  0
  6  7  1  0  0  0  0
  6  9  1  0  0  0  0
  7  8  1  0  0  0  0
  9 10  1  0  0  0  0
 10 11  2  0  0  0  0
M  END
>  <CHROM.1>
-11.39733567,-13.32336678,7.24558207,1.98036134,-1.21909673,2.10643233

>  <Name>
ligand

>  <RI>
0

>  <Rbt.Current_Directory>
/home/itssahil/PROJECTS/Mol_Feturizer/New_Systems/rnas/2b57

>  <Rbt.Executable>
rbdock ($Id: //depot/dev/client3/rdock/2013.1/src/exe/rbdock.cxx#4 $)

>  <Rbt.Library>
libRbt.so (2013.1, Build901 2013/11/27)

>  <Rbt.Parameter_File>
/export/apps/rDock/src/rDock_2013.1_src/data/scripts/dock_solv.prm

>  <Rbt.Receptor>
prm/pocket_docking_4.prm

>  <SCORE>
-11.461

>  <SCORE.INTER>
-11.461

>  <SCORE.INTER.CONST>
1

>  <SCORE.INTER.POLAR>
0

>  <SCORE.INTER.ROT>
0

>  <SCORE.INTER.SOLV>
21.2902

>  <SCORE.INTER.VDW>
-18.3374

>  <SCORE.INTER.norm>
-1.04191

>  <SCORE.INTRA>
0

>  <SCORE.INTRA.DIHEDRAL>
0

>  <SCORE.INTRA.DIHEDRAL.0>
0

>  <SCORE.INTRA.POLAR>
0

>  <SCORE.INTRA.POLAR.0>
0

>  <SCORE.INTRA.REPUL>
0

>  <SCORE.INTRA.REPUL.0>
0

>  <SCORE.INTRA.SOLV>
0

>  <SCORE.INTRA.SOLV.lig_0>
-48.3454

>  <SCORE.INTRA.VDW>
0

>  <SCORE.INTRA.VDW.0>
0

>  <SCORE.INTRA.norm>
0

>  <SCORE.RESTR>
0

>  <SCORE.RESTR.CAVITY>
0

>  <SCORE.RESTR.norm>
0

>  <SCORE.SYSTEM>
0

>  <SCORE.SYSTEM.CONST>
0

>  <SCORE.SYSTEM.DIHEDRAL>
0

>  <SCORE.SYSTEM.SOLV>
0

>  <SCORE.SYSTEM.norm>
0

>  <SCORE.heavy>
11

>  <SCORE.norm>
-1.04191

>  <RMSD>
0.613

$$$$
ligand
 OpenBabel01301917033D
libRbt.so/2013.1/901 2013/11/27
 11 12  0  0  0  0  0  0  0  0999 V2000
  -11.8508  -12.7692    8.8524 N   0  0  0  0  0  0  0  0  0  0  0  0
  -11.5097  -14.0647    8.9409 C   0  0  0  0  0  0  0  0  0  0  0  0
  -11.5299  -14.6737   10.1232 N   0  0  0  0  0  0  0  0  0  0  0  0
  -11.1382  -14.7490    7.8478 N   0  0  0  0  0  0  0  0  0  0  0  0
  -11.0975  -14.1520    6.6474 C   0  0  0  0  0  0  0  0  0  0  0  0
  -11.4453  -12.8125    6.5279 C   0  0  0  0  0  0  0  0  0  0  0  0
  -11.8294  -12.1253    7.6747 C   0  0  0  0  0  0  0  0  0  0  0  0
  -12.1796  -10.8445    7.6043 N   0  0  0  0  0  0  0  0  0  0  0  0
  -11.3043  -12.4749    5.2496 N   0  0  0  0  0  0  0  0  0  0  0  0
  -10.8854  -13.5514    4.5879 C   0  0  0  0  0  0  0  0  0  0  0  0
  -10.7586  -14.5729    5.4322 N   0  0  0  0  0  0  0  0  0  0  0  0
  1  7  2  0  0  0  0
  1  2  1  0  0  0  0
  2  3  1  0  0  0  0
  2  4  2  0  0  0  0
  4  5  1  0  0  0  0
  5  6  2  0  0  0  0
  5 11  1  0  0  0  0
  6  7  1  0  0  0  0
  6  9  1  0  0  0  0
  7  8  1  0  0  0  0
  9 10  1  0  0  0  0
 10 11  2  0  0  0  0
M  END
>  <CHROM.1>
-11.41573455,-13.34477591,7.25046499,2.01023696,-1.25341487,2.12639075

>  <Name>
ligand

>  <RI>
0

>  <Rbt.Current_Directory>
/home/itssahil/PROJECTS/Mol_Feturizer/New_Systems/rnas/2b57

>  <Rbt.Executable>
rbdock ($Id: //depot/dev/client3/rdock/2013.1/src/exe/rbdock.cxx#4 $)

>  <Rbt.Library>
libRbt.so (2013.1, Build901 2013/11/27)

>  <Rbt.Parameter_File>
/export/apps/rDock/src/rDock_2013.1_src/data/scripts/dock_solv.prm

>  <Rbt.Receptor>
prm/pocket_docking_7.prm

>  <SCORE>
-11.5509

>  <SCORE.INTER>
-11.5509

>  <SCORE.INTER.CONST>
1

>  <SCORE.INTER.POLAR>
0

>  <SCORE.INTER.ROT>
0

>  <SCORE.INTER.SOLV>
21.5386

>  <SCORE.INTER.VDW>
-18.4801

>  <SCORE.INTER.norm>
-1.05008

>  <SCORE.INTRA>
0

>  <SCORE.INTRA.DIHEDRAL>
0

>  <SCORE.INTRA.DIHEDRAL.0>
0

>  <SCORE.INTRA.POLAR>
0

>  <SCORE.INTRA.POLAR.0>
0

>  <SCORE.INTRA.REPUL>
0

>  <SCORE.INTRA.REPUL.0>
0

>  <SCORE.INTRA.SOLV>
0

>  <SCORE.INTRA.SOLV.lig_0>
-48.3454

>  <SCORE.INTRA.VDW>
0

>  <SCORE.INTRA.VDW.0>
0

>  <SCORE.INTRA.norm>
0

>  <SCORE.RESTR>
0

>  <SCORE.RESTR.CAVITY>
0

>  <SCORE.RESTR.norm>
0

>  <SCORE.SYSTEM>
0

>  <SCORE.SYSTEM.CONST>
0

>  <SCORE.SYSTEM.DIHEDRAL>
0

>  <SCORE.SYSTEM.SOLV>
0

>  <SCORE.SYSTEM.norm>
0

>  <SCORE.heavy>
11

>  <SCORE.norm>
-1.05008

>  <RMSD>
0.613

$$$$
ligand
 OpenBabel01301917033D
libRbt.so/2013.1/901 2013/11/27
 11 12  0  0  0  0  0  0  0  0999 V2000
  -11.8411  -12.7644    8.8528 N   0  0  0  0  0  0  0  0  0  0  0  0
  -11.5056  -14.0614    8.9415 C   0  0  0  0  0  0  0  0  0  0  0  0
  -11.5274  -14.6698   10.1240 N   0  0  0  0  0  0  0  0  0  0  0  0
  -11.1381  -14.7476    7.8483 N   0  0  0  0  0  0  0  0  0  0  0  0
  -11.0958  -14.1513    6.6477 C   0  0  0  0  0  0  0  0  0  0  0  0
  -11.4378  -12.8103    6.5280 C   0  0  0  0  0  0  0  0  0  0  0  0
  -11.8178  -12.1210    7.6749 C   0  0  0  0  0  0  0  0  0  0  0  0
  -12.1625  -10.8387    7.6044 N   0  0  0  0  0  0  0  0  0  0  0  0
  -11.2964  -12.4738    5.2495 N   0  0  0  0  0  0  0  0  0  0  0  0
  -10.8829  -13.5523    4.5878 C   0  0  0  0  0  0  0  0  0  0  0  0
  -10.7598  -14.5741    5.4324 N   0  0  0  0  0  0  0  0  0  0  0  0
  1  7  2  0  0  0  0
  1  2  1  0  0  0  0
  2  3  1  0  0  0  0
  2  4  2  0  0  0  0
  4  5  1  0  0  0  0
  5  6  2  0  0  0  0
  5 11  1  0  0  0  0
  6  7  1  0  0  0  0
  6  9  1  0  0  0  0
  7  8  1  0  0  0  0
  9 10  1  0  0  0  0
 10 11  2  0  0  0  0
M  END
>  <CHROM.1>
-11.40994881,-13.34245030,7.25077282,2.01531059,-1.25761812,2.13085819

>  <Name>
ligand

>  <RI>
0

>  <Rbt.Current_Directory>
/home/itssahil/PROJECTS/Mol_Feturizer/New_Systems/rnas/2b57

>  <Rbt.Executable>
rbdock ($Id: //depot/dev/client3/rdock/2013.1/src/exe/rbdock.cxx#4 $)

>  <Rbt.Library>
libRbt.so (2013.1, Build901 2013/11/27)

>  <Rbt.Parameter_File>
/export/apps/rDock/src/rDock_2013.1_src/data/scripts/dock_solv.prm

>  <Rbt.Receptor>
prm/pocket_docking_4.prm

>  <SCORE>
-11.5506

>  <SCORE.INTER>
-11.5506

>  <SCORE.INTER.CONST>
1

>  <SCORE.INTER.POLAR>
0

>  <SCORE.INTER.ROT>
0

>  <SCORE.INTER.SOLV>
21.5948

>  <SCORE.INTER.VDW>
-18.4986

>  <SCORE.INTER.norm>
-1.05005

>  <SCORE.INTRA>
0

>  <SCORE.INTRA.DIHEDRAL>
0

>  <SCORE.INTRA.DIHEDRAL.0>
0

>  <SCORE.INTRA.POLAR>
0

>  <SCORE.INTRA.POLAR.0>
0

>  <SCORE.INTRA.REPUL>
0

>  <SCORE.INTRA.REPUL.0>
0

>  <SCORE.INTRA.SOLV>
0

>  <SCORE.INTRA.SOLV.lig_0>
-48.3454

>  <SCORE.INTRA.VDW>
0

>  <SCORE.INTRA.VDW.0>
0

>  <SCORE.INTRA.norm>
0

>  <SCORE.RESTR>
0

>  <SCORE.RESTR.CAVITY>
0

>  <SCORE.RESTR.norm>
0

>  <SCORE.SYSTEM>
0

>  <SCORE.SYSTEM.CONST>
0

>  <SCORE.SYSTEM.DIHEDRAL>
0

>  <SCORE.SYSTEM.SOLV>
0

>  <SCORE.SYSTEM.norm>
0

>  <SCORE.heavy>
11

>  <SCORE.norm>
-1.05005

>  <RMSD>
0.614

$$$$
ligand
 OpenBabel01301917033D
libRbt.so/2013.1/901 2013/11/27
 11 12  0  0  0  0  0  0  0  0999 V2000
  -11.8240  -12.7584    8.8599 N   0  0  0  0  0  0  0  0  0  0  0  0
  -11.5085  -14.0612    8.9361 C   0  0  0  0  0  0  0  0  0  0  0  0
  -11.5397  -14.6805   10.1127 N   0  0  0  0  0  0  0  0  0  0  0  0
  -11.1515  -14.7425    7.8363 N   0  0  0  0  0  0  0  0  0  0  0  0
  -11.1000  -14.1354    6.6415 C   0  0  0  0  0  0  0  0  0  0  0  0
  -11.4214  -12.7882    6.5347 C   0  0  0  0  0  0  0  0  0  0  0  0
  -11.7908  -12.1042    7.6881 C   0  0  0  0  0  0  0  0  0  0  0  0
  -12.1157  -10.8161    7.6299 N   0  0  0  0  0  0  0  0  0  0  0  0
  -11.2747  -12.4417    5.2594 N   0  0  0  0  0  0  0  0  0  0  0  0
  -10.8778  -13.5201    4.5874 C   0  0  0  0  0  0  0  0  0  0  0  0
  -10.7705  -14.5517    5.4221 N   0  0  0  0  0  0  0  0  0  0  0  0
  1  7  2  0  0  0  0
  1  2  1  0  0  0  0
  2  3  1  0  0  0  0
  2  4  2  0  0  0  0
  4  5  1  0  0  0  0
  5  6  2  0  0  0  0
  5 11  1  0  0  0  0
  6  7  1  0  0  0  0
  6  9  1  0  0  0  0
  7  8  1  0  0  0  0
  9 10  1  0  0  0  0
 10 11  2  0  0  0  0
M  END
>  <CHROM.1>
-11.40171993,-13.32764007,7.25229815,2.04308429,-1.27051160,2.16691805

>  <Name>
ligand

>  <RI>
0

>  <Rbt.Current_Directory>
/home/itssahil/PROJECTS/Mol_Feturizer/New_Systems/rnas/2b57

>  <Rbt.Executable>
rbdock ($Id: //depot/dev/client3/rdock/2013.1/src/exe/rbdock.cxx#4 $)

>  <Rbt.Library>
libRbt.so (2013.1, Build901 2013/11/27)

>  <Rbt.Parameter_File>
/export/apps/rDock/src/rDock_2013.1_src/data/scripts/dock_solv.prm

>  <Rbt.Receptor>
prm/pocket_docking_5.prm

>  <SCORE>
-11.4642

>  <SCORE.INTER>
-11.4642

>  <SCORE.INTER.CONST>
1

>  <SCORE.INTER.POLAR>
0

>  <SCORE.INTER.ROT>
0

>  <SCORE.INTER.SOLV>
21.8232

>  <SCORE.INTER.VDW>
-18.5172

>  <SCORE.INTER.norm>
-1.0422

>  <SCORE.INTRA>
0

>  <SCORE.INTRA.DIHEDRAL>
0

>  <SCORE.INTRA.DIHEDRAL.0>
0

>  <SCORE.INTRA.POLAR>
0

>  <SCORE.INTRA.POLAR.0>
0

>  <SCORE.INTRA.REPUL>
0

>  <SCORE.INTRA.REPUL.0>
0

>  <SCORE.INTRA.SOLV>
0

>  <SCORE.INTRA.SOLV.lig_0>
-48.3454

>  <SCORE.INTRA.VDW>
0

>  <SCORE.INTRA.VDW.0>
0

>  <SCORE.INTRA.norm>
0

>  <SCORE.RESTR>
0

>  <SCORE.RESTR.CAVITY>
0

>  <SCORE.RESTR.norm>
0

>  <SCORE.SYSTEM>
0

>  <SCORE.SYSTEM.CONST>
0

>  <SCORE.SYSTEM.DIHEDRAL>
0

>  <SCORE.SYSTEM.SOLV>
0

>  <SCORE.SYSTEM.norm>
0

>  <SCORE.heavy>
11

>  <SCORE.norm>
-1.0422

>  <RMSD>
0.614

$$$$
ligand
 OpenBabel01301917033D
libRbt.so/2013.1/901 2013/11/27
 11 12  0  0  0  0  0  0  0  0999 V2000
  -11.8317  -12.6934    8.8424 N   0  0  0  0  0  0  0  0  0  0  0  0
  -11.4983  -13.9917    8.9200 C   0  0  0  0  0  0  0  0  0  0  0  0
  -11.5313  -14.6129   10.0956 N   0  0  0  0  0  0  0  0  0  0  0  0
  -11.1218  -14.6665    7.8227 N   0  0  0  0  0  0  0  0  0  0  0  0
  -11.0681  -14.0571    6.6291 C   0  0  0  0  0  0  0  0  0  0  0  0
  -11.4077  -12.7145    6.5210 C   0  0  0  0  0  0  0  0  0  0  0  0
  -11.7972  -12.0373    7.6718 C   0  0  0  0  0  0  0  0  0  0  0  0
  -12.1399  -10.7539    7.6122 N   0  0  0  0  0  0  0  0  0  0  0  0
  -11.2546  -12.3643    5.2474 N   0  0  0  0  0  0  0  0  0  0  0  0
  -10.8363  -13.4360    4.5778 C   0  0  0  0  0  0  0  0  0  0  0  0
  -10.7218  -14.4671    5.4123 N   0  0  0  0  0  0  0  0  0  0  0  0
  1  7  2  0  0  0  0
  1  2  1  0  0  0  0
  2  3  1  0  0  0  0
  2  4  2  0  0  0  0
  4  5  1  0  0  0  0
  5  6  2  0  0  0  0
  5 11  1  0  0  0  0
  6  7  1  0  0  0  0
  6  9  1  0  0  0  0
  7  8  1  0  0  0  0
  9 10  1  0  0  0  0
 10 11  2  0  0  0  0
M  END
>  <CHROM.1>
-11.38683973,-13.25454674,7.23807816,2.04129748,-1.25365193,2.16643936

>  <Name>
ligand

>  <RI>
0

>  <Rbt.Current_Directory>
/home/itssahil/PROJECTS/Mol_Feturizer/New_Systems/rnas/2b57

>  <Rbt.Executable>
rbdock ($Id: //depot/dev/client3/rdock/2013.1/src/exe/rbdock.cxx#4 $)

>  <Rbt.Library>
libRbt.so (2013.1, Build901 2013/11/27)

>  <Rbt.Parameter_File>
/export/apps/rDock/src/rDock_2013.1_src/data/scripts/dock_solv.prm

>  <Rbt.Receptor>
prm/pocket_docking_6.prm

>  <SCORE>
-11.3985

>  <SCORE.INTER>
-11.3985

>  <SCORE.INTER.CONST>
1

>  <SCORE.INTER.POLAR>
0

>  <SCORE.INTER.ROT>
0

>  <SCORE.INTER.SOLV>
21.6763

>  <SCORE.INTER.VDW>
-18.4244

>  <SCORE.INTER.norm>
-1.03623

>  <SCORE.INTRA>
0

>  <SCORE.INTRA.DIHEDRAL>
0

>  <SCORE.INTRA.DIHEDRAL.0>
0

>  <SCORE.INTRA.POLAR>
0

>  <SCORE.INTRA.POLAR.0>
0

>  <SCORE.INTRA.REPUL>
0

>  <SCORE.INTRA.REPUL.0>
0

>  <SCORE.INTRA.SOLV>
0

>  <SCORE.INTRA.SOLV.lig_0>
-48.3454

>  <SCORE.INTRA.VDW>
0

>  <SCORE.INTRA.VDW.0>
0

>  <SCORE.INTRA.norm>
0

>  <SCORE.RESTR>
0

>  <SCORE.RESTR.CAVITY>
0

>  <SCORE.RESTR.norm>
0

>  <SCORE.SYSTEM>
0

>  <SCORE.SYSTEM.CONST>
0

>  <SCORE.SYSTEM.DIHEDRAL>
0

>  <SCORE.SYSTEM.SOLV>
0

>  <SCORE.SYSTEM.norm>
0

>  <SCORE.heavy>
11

>  <SCORE.norm>
-1.03623

>  <RMSD>
0.614

$$$$
ligand
 OpenBabel01301917033D
libRbt.so/2013.1/901 2013/11/27
 11 12  0  0  0  0  0  0  0  0999 V2000
  -11.8517  -12.7695    8.8473 N   0  0  0  0  0  0  0  0  0  0  0  0
  -11.4856  -14.0575    8.9457 C   0  0  0  0  0  0  0  0  0  0  0  0
  -11.4959  -14.6583   10.1323 N   0  0  0  0  0  0  0  0  0  0  0  0
  -11.0991  -14.7422    7.8581 N   0  0  0  0  0  0  0  0  0  0  0  0
  -11.0680  -14.1532    6.6535 C   0  0  0  0  0  0  0  0  0  0  0  0
  -11.4416  -12.8216    6.5239 C   0  0  0  0  0  0  0  0  0  0  0  0
  -11.8408  -12.1338    7.6651 C   0  0  0  0  0  0  0  0  0  0  0  0
  -12.2157  -10.8605    7.5849 N   0  0  0  0  0  0  0  0  0  0  0  0
  -11.3050  -12.4905    5.2434 N   0  0  0  0  0  0  0  0  0  0  0  0
  -10.8642  -13.5633    4.5901 C   0  0  0  0  0  0  0  0  0  0  0  0
  -10.7190  -14.5761    5.4419 N   0  0  0  0  0  0  0  0  0  0  0  0
  1  7  2  0  0  0  0
  1  2  1  0  0  0  0
  2  3  1  0  0  0  0
  2  4  2  0  0  0  0
  4  5  1  0  0  0  0
  5  6  2  0  0  0  0
  5 11  1  0  0  0  0
  6  7  1  0  0  0  0
  6  9  1  0  0  0  0
  7  8  1  0  0  0  0
  9 10  1  0  0  0  0
 10 11  2  0  0  0  0
M  END
>  <CHROM.1>
-11.40283024,-13.34799686,7.25029256,1.98326975,-1.23592254,2.09366030

>  <Name>
ligand

>  <RI>
0

>  <Rbt.Current_Directory>
/home/itssahil/PROJECTS/Mol_Feturizer/New_Systems/rnas/2b57

>  <Rbt.Executable>
rbdock ($Id: //depot/dev/client3/rdock/2013.1/src/exe/rbdock.cxx#4 $)

>  <Rbt.Library>
libRbt.so (2013.1, Build901 2013/11/27)

>  <Rbt.Parameter_File>
/export/apps/rDock/src/rDock_2013.1_src/data/scripts/dock_solv.prm

>  <Rbt.Receptor>
prm/pocket_docking_8.prm

>  <SCORE>
-11.4969

>  <SCORE.INTER>
-11.4969

>  <SCORE.INTER.CONST>
1

>  <SCORE.INTER.POLAR>
0

>  <SCORE.INTER.ROT>
0

>  <SCORE.INTER.SOLV>
21.3831

>  <SCORE.INTER.VDW>
-18.3923

>  <SCORE.INTER.norm>
-1.04518

>  <SCORE.INTRA>
0

>  <SCORE.INTRA.DIHEDRAL>
0

>  <SCORE.INTRA.DIHEDRAL.0>
0

>  <SCORE.INTRA.POLAR>
0

>  <SCORE.INTRA.POLAR.0>
0

>  <SCORE.INTRA.REPUL>
0

>  <SCORE.INTRA.REPUL.0>
0

>  <SCORE.INTRA.SOLV>
0

>  <SCORE.INTRA.SOLV.lig_0>
-48.3454

>  <SCORE.INTRA.VDW>
0

>  <SCORE.INTRA.VDW.0>
0

>  <SCORE.INTRA.norm>
0

>  <SCORE.RESTR>
0

>  <SCORE.RESTR.CAVITY>
0

>  <SCORE.RESTR.norm>
0

>  <SCORE.SYSTEM>
0

>  <SCORE.SYSTEM.CONST>
0

>  <SCORE.SYSTEM.DIHEDRAL>
0

>  <SCORE.SYSTEM.SOLV>
0

>  <SCORE.SYSTEM.norm>
0

>  <SCORE.heavy>
11

>  <SCORE.norm>
-1.04518

>  <RMSD>
0.614

$$$$
ligand
 OpenBabel01301917033D
libRbt.so/2013.1/901 2013/11/27
 11 12  0  0  0  0  0  0  0  0999 V2000
  -11.8430  -12.7656    8.8529 N   0  0  0  0  0  0  0  0  0  0  0  0
  -11.5113  -14.0638    8.9393 C   0  0  0  0  0  0  0  0  0  0  0  0
  -11.5346  -14.6742   10.1207 N   0  0  0  0  0  0  0  0  0  0  0  0
  -11.1461  -14.7493    7.8448 N   0  0  0  0  0  0  0  0  0  0  0  0
  -11.1024  -14.1510    6.6452 C   0  0  0  0  0  0  0  0  0  0  0  0
  -11.4406  -12.8087    6.5279 C   0  0  0  0  0  0  0  0  0  0  0  0
  -11.8182  -12.1203    7.6760 C   0  0  0  0  0  0  0  0  0  0  0  0
  -12.1591  -10.8369    7.6078 N   0  0  0  0  0  0  0  0  0  0  0  0
  -11.2985  -12.4705    5.2499 N   0  0  0  0  0  0  0  0  0  0  0  0
  -10.8884  -13.5491    4.5862 C   0  0  0  0  0  0  0  0  0  0  0  0
  -10.7681  -14.5727    5.4290 N   0  0  0  0  0  0  0  0  0  0  0  0
  1  7  2  0  0  0  0
  1  2  1  0  0  0  0
  2  3  1  0  0  0  0
  2  4  2  0  0  0  0
  4  5  1  0  0  0  0
  5  6  2  0  0  0  0
  5 11  1  0  0  0  0
  6  7  1  0  0  0  0
  6  9  1  0  0  0  0
  7  8  1  0  0  0  0
  9 10  1  0  0  0  0
 10 11  2  0  0  0  0
M  END
>  <CHROM.1>
-11.41403301,-13.34224123,7.24969739,2.01962074,-1.26025689,2.13668070

>  <Name>
ligand

>  <RI>
0

>  <Rbt.Current_Directory>
/home/itssahil/PROJECTS/Mol_Feturizer/New_Systems/rnas/2b57

>  <Rbt.Executable>
rbdock ($Id: //depot/dev/client3/rdock/2013.1/src/exe/rbdock.cxx#4 $)

>  <Rbt.Library>
libRbt.so (2013.1, Build901 2013/11/27)

>  <Rbt.Parameter_File>
/export/apps/rDock/src/rDock_2013.1_src/data/scripts/dock_solv.prm

>  <Rbt.Receptor>
prm/pocket_docking_5.prm

>  <SCORE>
-11.5494

>  <SCORE.INTER>
-11.5494

>  <SCORE.INTER.CONST>
1

>  <SCORE.INTER.POLAR>
0

>  <SCORE.INTER.ROT>
0

>  <SCORE.INTER.SOLV>
21.6199

>  <SCORE.INTER.VDW>
-18.5062

>  <SCORE.INTER.norm>
-1.04995

>  <SCORE.INTRA>
0

>  <SCORE.INTRA.DIHEDRAL>
0

>  <SCORE.INTRA.DIHEDRAL.0>
0

>  <SCORE.INTRA.POLAR>
0

>  <SCORE.INTRA.POLAR.0>
0

>  <SCORE.INTRA.REPUL>
0

>  <SCORE.INTRA.REPUL.0>
0

>  <SCORE.INTRA.SOLV>
0

>  <SCORE.INTRA.SOLV.lig_0>
-48.3454

>  <SCORE.INTRA.VDW>
0

>  <SCORE.INTRA.VDW.0>
0

>  <SCORE.INTRA.norm>
0

>  <SCORE.RESTR>
0

>  <SCORE.RESTR.CAVITY>
0

>  <SCORE.RESTR.norm>
0

>  <SCORE.SYSTEM>
0

>  <SCORE.SYSTEM.CONST>
0

>  <SCORE.SYSTEM.DIHEDRAL>
0

>  <SCORE.SYSTEM.SOLV>
0

>  <SCORE.SYSTEM.norm>
0

>  <SCORE.heavy>
11

>  <SCORE.norm>
-1.04995

>  <RMSD>
0.615

$$$$
ligand
 OpenBabel01301917033D
libRbt.so/2013.1/901 2013/11/27
 11 12  0  0  0  0  0  0  0  0999 V2000
  -11.8434  -12.7655    8.8509 N   0  0  0  0  0  0  0  0  0  0  0  0
  -11.5061  -14.0619    8.9422 C   0  0  0  0  0  0  0  0  0  0  0  0
  -11.5299  -14.6688   10.1254 N   0  0  0  0  0  0  0  0  0  0  0  0
  -11.1349  -14.7490    7.8508 N   0  0  0  0  0  0  0  0  0  0  0  0
  -11.0906  -14.1542    6.6495 C   0  0  0  0  0  0  0  0  0  0  0  0
  -11.4344  -12.8138    6.5272 C   0  0  0  0  0  0  0  0  0  0  0  0
  -11.8182  -12.1236    7.6722 C   0  0  0  0  0  0  0  0  0  0  0  0
  -12.1647  -10.8419    7.5991 N   0  0  0  0  0  0  0  0  0  0  0  0
  -11.2903  -12.4788    5.2485 N   0  0  0  0  0  0  0  0  0  0  0  0
  -10.8735  -13.5576    4.5893 C   0  0  0  0  0  0  0  0  0  0  0  0
  -10.7510  -14.5780    5.4355 N   0  0  0  0  0  0  0  0  0  0  0  0
  1  7  2  0  0  0  0
  1  2  1  0  0  0  0
  2  3  1  0  0  0  0
  2  4  2  0  0  0  0
  4  5  1  0  0  0  0
  5  6  2  0  0  0  0
  5 11  1  0  0  0  0
  6  7  1  0  0  0  0
  6  9  1  0  0  0  0
  7  8  1  0  0  0  0
  9 10  1  0  0  0  0
 10 11  2  0  0  0  0
M  END
>  <CHROM.1>
-11.40743607,-13.34500809,7.25068398,2.01936755,-1.25501008,2.13339706

>  <Name>
ligand

>  <RI>
0

>  <Rbt.Current_Directory>
/home/itssahil/PROJECTS/Mol_Feturizer/New_Systems/rnas/2b57

>  <Rbt.Executable>
rbdock ($Id: //depot/dev/client3/rdock/2013.1/src/exe/rbdock.cxx#4 $)

>  <Rbt.Library>
libRbt.so (2013.1, Build901 2013/11/27)

>  <Rbt.Parameter_File>
/export/apps/rDock/src/rDock_2013.1_src/data/scripts/dock_solv.prm

>  <Rbt.Receptor>
prm/pocket_docking_8.prm

>  <SCORE>
-11.5523

>  <SCORE.INTER>
-11.5523

>  <SCORE.INTER.CONST>
1

>  <SCORE.INTER.POLAR>
0

>  <SCORE.INTER.ROT>
0

>  <SCORE.INTER.SOLV>
21.5761

>  <SCORE.INTER.VDW>
-18.4936

>  <SCORE.INTER.norm>
-1.05021

>  <SCORE.INTRA>
0

>  <SCORE.INTRA.DIHEDRAL>
0

>  <SCORE.INTRA.DIHEDRAL.0>
0

>  <SCORE.INTRA.POLAR>
0

>  <SCORE.INTRA.POLAR.0>
0

>  <SCORE.INTRA.REPUL>
0

>  <SCORE.INTRA.REPUL.0>
0

>  <SCORE.INTRA.SOLV>
0

>  <SCORE.INTRA.SOLV.lig_0>
-48.3454

>  <SCORE.INTRA.VDW>
0

>  <SCORE.INTRA.VDW.0>
0

>  <SCORE.INTRA.norm>
0

>  <SCORE.RESTR>
0

>  <SCORE.RESTR.CAVITY>
0

>  <SCORE.RESTR.norm>
0

>  <SCORE.SYSTEM>
0

>  <SCORE.SYSTEM.CONST>
0

>  <SCORE.SYSTEM.DIHEDRAL>
0

>  <SCORE.SYSTEM.SOLV>
0

>  <SCORE.SYSTEM.norm>
0

>  <SCORE.heavy>
11

>  <SCORE.norm>
-1.05021

>  <RMSD>
0.615

$$$$
ligand
 OpenBabel01301917033D
libRbt.so/2013.1/901 2013/11/27
 11 12  0  0  0  0  0  0  0  0999 V2000
  -11.8482  -12.7677    8.8461 N   0  0  0  0  0  0  0  0  0  0  0  0
  -11.4908  -14.0593    8.9288 C   0  0  0  0  0  0  0  0  0  0  0  0
  -11.5162  -14.6776   10.1061 N   0  0  0  0  0  0  0  0  0  0  0  0
  -11.0979  -14.7301    7.8348 N   0  0  0  0  0  0  0  0  0  0  0  0
  -11.0516  -14.1235    6.6395 C   0  0  0  0  0  0  0  0  0  0  0  0
  -11.4159  -12.7878    6.5262 C   0  0  0  0  0  0  0  0  0  0  0  0
  -11.8220  -12.1146    7.6737 C   0  0  0  0  0  0  0  0  0  0  0  0
  -12.1885  -10.8380    7.6089 N   0  0  0  0  0  0  0  0  0  0  0  0
  -11.2649  -12.4385    5.2521 N   0  0  0  0  0  0  0  0  0  0  0  0
  -10.8243  -13.5042    4.5872 C   0  0  0  0  0  0  0  0  0  0  0  0
  -10.6934  -14.5305    5.4251 N   0  0  0  0  0  0  0  0  0  0  0  0
  1  7  2  0  0  0  0
  1  2  1  0  0  0  0
  2  3  1  0  0  0  0
  2  4  2  0  0  0  0
  4  5  1  0  0  0  0
  5  6  2  0  0  0  0
  5 11  1  0  0  0  0
  6  7  1  0  0  0  0
  6  9  1  0  0  0  0
  7  8  1  0  0  0  0
  9 10  1  0  0  0  0
 10 11  2  0  0  0  0
M  END
>  <CHROM.1>
-11.38737645,-13.32518395,7.24499472,2.01798955,-1.23611618,2.14136069

>  <Name>
ligand

>  <RI>
0

>  <Rbt.Current_Directory>
/home/itssahil/PROJECTS/Mol_Feturizer/New_Systems/rnas/2b57

>  <Rbt.Executable>
rbdock ($Id: //depot/dev/client3/rdock/2013.1/src/exe/rbdock.cxx#4 $)

>  <Rbt.Library>
libRbt.so (2013.1, Build901 2013/11/27)

>  <Rbt.Parameter_File>
/export/apps/rDock/src/rDock_2013.1_src/data/scripts/dock_solv.prm

>  <Rbt.Receptor>
prm/pocket_docking_3.prm

>  <SCORE>
-11.4908

>  <SCORE.INTER>
-11.4908

>  <SCORE.INTER.CONST>
1

>  <SCORE.INTER.POLAR>
0

>  <SCORE.INTER.ROT>
0

>  <SCORE.INTER.SOLV>
21.4974

>  <SCORE.INTER.VDW>
-18.4263

>  <SCORE.INTER.norm>
-1.04462

>  <SCORE.INTRA>
0

>  <SCORE.INTRA.DIHEDRAL>
0

>  <SCORE.INTRA.DIHEDRAL.0>
0

>  <SCORE.INTRA.POLAR>
0

>  <SCORE.INTRA.POLAR.0>
0

>  <SCORE.INTRA.REPUL>
0

>  <SCORE.INTRA.REPUL.0>
0

>  <SCORE.INTRA.SOLV>
0

>  <SCORE.INTRA.SOLV.lig_0>
-48.3454

>  <SCORE.INTRA.VDW>
0

>  <SCORE.INTRA.VDW.0>
0

>  <SCORE.INTRA.norm>
0

>  <SCORE.RESTR>
0

>  <SCORE.RESTR.CAVITY>
0

>  <SCORE.RESTR.norm>
0

>  <SCORE.SYSTEM>
0

>  <SCORE.SYSTEM.CONST>
0

>  <SCORE.SYSTEM.DIHEDRAL>
0

>  <SCORE.SYSTEM.SOLV>
0

>  <SCORE.SYSTEM.norm>
0

>  <SCORE.heavy>
11

>  <SCORE.norm>
-1.04462

>  <RMSD>
0.617

$$$$
ligand
 OpenBabel01301917033D
libRbt.so/2013.1/901 2013/11/27
 11 12  0  0  0  0  0  0  0  0999 V2000
  -11.8463  -12.7668    8.8492 N   0  0  0  0  0  0  0  0  0  0  0  0
  -11.5111  -14.0639    8.9375 C   0  0  0  0  0  0  0  0  0  0  0  0
  -11.5337  -14.6729   10.1197 N   0  0  0  0  0  0  0  0  0  0  0  0
  -11.1430  -14.7497    7.8442 N   0  0  0  0  0  0  0  0  0  0  0  0
  -11.0998  -14.1528    6.6439 C   0  0  0  0  0  0  0  0  0  0  0  0
  -11.4416  -12.8117    6.5246 C   0  0  0  0  0  0  0  0  0  0  0  0
  -11.8222  -12.1229    7.6716 C   0  0  0  0  0  0  0  0  0  0  0  0
  -12.1666  -10.8404    7.6014 N   0  0  0  0  0  0  0  0  0  0  0  0
  -11.2993  -12.4746    5.2463 N   0  0  0  0  0  0  0  0  0  0  0  0
  -10.8856  -13.5528    4.5844 C   0  0  0  0  0  0  0  0  0  0  0  0
  -10.7632  -14.5751    5.4285 N   0  0  0  0  0  0  0  0  0  0  0  0
  1  7  2  0  0  0  0
  1  2  1  0  0  0  0
  2  3  1  0  0  0  0
  2  4  2  0  0  0  0
  4  5  1  0  0  0  0
  5  6  2  0  0  0  0
  5 11  1  0  0  0  0
  6  7  1  0  0  0  0
  6  9  1  0  0  0  0
  7  8  1  0  0  0  0
  9 10  1  0  0  0  0
 10 11  2  0  0  0  0
M  END
>  <CHROM.1>
-11.41424441,-13.34418181,7.24711062,2.01730951,-1.25743061,2.13324153

>  <Name>
ligand

>  <RI>
0

>  <Rbt.Current_Directory>
/home/itssahil/PROJECTS/Mol_Feturizer/New_Systems/rnas/2b57

>  <Rbt.Executable>
rbdock ($Id: //depot/dev/client3/rdock/2013.1/src/exe/rbdock.cxx#4 $)

>  <Rbt.Library>
libRbt.so (2013.1, Build901 2013/11/27)

>  <Rbt.Parameter_File>
/export/apps/rDock/src/rDock_2013.1_src/data/scripts/dock_solv.prm

>  <Rbt.Receptor>
prm/pocket_docking_3.prm

>  <SCORE>
-11.5521

>  <SCORE.INTER>
-11.5521

>  <SCORE.INTER.CONST>
1

>  <SCORE.INTER.POLAR>
0

>  <SCORE.INTER.ROT>
0

>  <SCORE.INTER.SOLV>
21.5835

>  <SCORE.INTER.VDW>
-18.4959

>  <SCORE.INTER.norm>
-1.05019

>  <SCORE.INTRA>
0

>  <SCORE.INTRA.DIHEDRAL>
0

>  <SCORE.INTRA.DIHEDRAL.0>
0

>  <SCORE.INTRA.POLAR>
0

>  <SCORE.INTRA.POLAR.0>
0

>  <SCORE.INTRA.REPUL>
0

>  <SCORE.INTRA.REPUL.0>
0

>  <SCORE.INTRA.SOLV>
0

>  <SCORE.INTRA.SOLV.lig_0>
-48.3454

>  <SCORE.INTRA.VDW>
0

>  <SCORE.INTRA.VDW.0>
0

>  <SCORE.INTRA.norm>
0

>  <SCORE.RESTR>
0

>  <SCORE.RESTR.CAVITY>
0

>  <SCORE.RESTR.norm>
0

>  <SCORE.SYSTEM>
0

>  <SCORE.SYSTEM.CONST>
0

>  <SCORE.SYSTEM.DIHEDRAL>
0

>  <SCORE.SYSTEM.SOLV>
0

>  <SCORE.SYSTEM.norm>
0

>  <SCORE.heavy>
11

>  <SCORE.norm>
-1.05019

>  <RMSD>
0.617

$$$$
ligand
 OpenBabel01301917033D
libRbt.so/2013.1/901 2013/11/27
 11 12  0  0  0  0  0  0  0  0999 V2000
  -11.8441  -12.7270    8.8442 N   0  0  0  0  0  0  0  0  0  0  0  0
  -11.4847  -14.0187    8.9148 C   0  0  0  0  0  0  0  0  0  0  0  0
  -11.4916  -14.6429   10.0892 N   0  0  0  0  0  0  0  0  0  0  0  0
  -11.1081  -14.6836    7.8115 N   0  0  0  0  0  0  0  0  0  0  0  0
  -11.0804  -14.0708    6.6188 C   0  0  0  0  0  0  0  0  0  0  0  0
  -11.4474  -12.7349    6.5178 C   0  0  0  0  0  0  0  0  0  0  0  0
  -11.8363  -12.0678    7.6748 C   0  0  0  0  0  0  0  0  0  0  0  0
  -12.2047  -10.7912    7.6222 N   0  0  0  0  0  0  0  0  0  0  0  0
  -11.3162  -12.3791    5.2434 N   0  0  0  0  0  0  0  0  0  0  0  0
  -10.8850  -13.4410    4.5664 C   0  0  0  0  0  0  0  0  0  0  0  0
  -10.7406  -14.4714    5.3970 N   0  0  0  0  0  0  0  0  0  0  0  0
  1  7  2  0  0  0  0
  1  2  1  0  0  0  0
  2  3  1  0  0  0  0
  2  4  2  0  0  0  0
  4  5  1  0  0  0  0
  5  6  2  0  0  0  0
  5 11  1  0  0  0  0
  6  7  1  0  0  0  0
  6  9  1  0  0  0  0
  7  8  1  0  0  0  0
  9 10  1  0  0  0  0
 10 11  2  0  0  0  0
M  END
>  <CHROM.1>
-11.40748128,-13.27591741,7.23338185,1.97678203,-1.24353349,2.10747646

>  <Name>
ligand

>  <RI>
0

>  <Rbt.Current_Directory>
/home/itssahil/PROJECTS/Mol_Feturizer/New_Systems/rnas/2b57

>  <Rbt.Executable>
rbdock ($Id: //depot/dev/client3/rdock/2013.1/src/exe/rbdock.cxx#4 $)

>  <Rbt.Library>
libRbt.so (2013.1, Build901 2013/11/27)

>  <Rbt.Parameter_File>
/export/apps/rDock/src/rDock_2013.1_src/data/scripts/dock_solv.prm

>  <Rbt.Receptor>
prm/pocket_docking_4.prm

>  <SCORE>
-11.4607

>  <SCORE.INTER>
-11.4607

>  <SCORE.INTER.CONST>
1

>  <SCORE.INTER.POLAR>
0

>  <SCORE.INTER.ROT>
0

>  <SCORE.INTER.SOLV>
21.4774

>  <SCORE.INTER.VDW>
-18.3996

>  <SCORE.INTER.norm>
-1.04188

>  <SCORE.INTRA>
0

>  <SCORE.INTRA.DIHEDRAL>
0

>  <SCORE.INTRA.DIHEDRAL.0>
0

>  <SCORE.INTRA.POLAR>
0

>  <SCORE.INTRA.POLAR.0>
0

>  <SCORE.INTRA.REPUL>
0

>  <SCORE.INTRA.REPUL.0>
0

>  <SCORE.INTRA.SOLV>
0

>  <SCORE.INTRA.SOLV.lig_0>
-48.3454

>  <SCORE.INTRA.VDW>
0

>  <SCORE.INTRA.VDW.0>
0

>  <SCORE.INTRA.norm>
0

>  <SCORE.RESTR>
0

>  <SCORE.RESTR.CAVITY>
0

>  <SCORE.RESTR.norm>
0

>  <SCORE.SYSTEM>
0

>  <SCORE.SYSTEM.CONST>
0

>  <SCORE.SYSTEM.DIHEDRAL>
0

>  <SCORE.SYSTEM.SOLV>
0

>  <SCORE.SYSTEM.norm>
0

>  <SCORE.heavy>
11

>  <SCORE.norm>
-1.04188

>  <RMSD>
0.617

$$$$
ligand
 OpenBabel01301917033D
libRbt.so/2013.1/901 2013/11/27
 11 12  0  0  0  0  0  0  0  0999 V2000
  -11.8438  -12.7659    8.8498 N   0  0  0  0  0  0  0  0  0  0  0  0
  -11.5095  -14.0632    8.9384 C   0  0  0  0  0  0  0  0  0  0  0  0
  -11.5329  -14.6721   10.1206 N   0  0  0  0  0  0  0  0  0  0  0  0
  -11.1415  -14.7494    7.8453 N   0  0  0  0  0  0  0  0  0  0  0  0
  -11.0976  -14.1527    6.6449 C   0  0  0  0  0  0  0  0  0  0  0  0
  -11.4384  -12.8113    6.5254 C   0  0  0  0  0  0  0  0  0  0  0  0
  -11.8188  -12.1221    7.6721 C   0  0  0  0  0  0  0  0  0  0  0  0
  -12.1624  -10.8395    7.6017 N   0  0  0  0  0  0  0  0  0  0  0  0
  -11.2955  -12.4745    5.2471 N   0  0  0  0  0  0  0  0  0  0  0  0
  -10.8822  -13.5531    4.5854 C   0  0  0  0  0  0  0  0  0  0  0  0
  -10.7608  -14.5753    5.4297 N   0  0  0  0  0  0  0  0  0  0  0  0
  1  7  2  0  0  0  0
  1  2  1  0  0  0  0
  2  3  1  0  0  0  0
  2  4  2  0  0  0  0
  4  5  1  0  0  0  0
  5  6  2  0  0  0  0
  5 11  1  0  0  0  0
  6  7  1  0  0  0  0
  6  9  1  0  0  0  0
  7  8  1  0  0  0  0
  9 10  1  0  0  0  0
 10 11  2  0  0  0  0
M  END
>  <CHROM.1>
-11.41161501,-13.34376624,7.24795082,2.01936517,-1.25784038,2.13506947

>  <Name>
ligand

>  <RI>
0

>  <Rbt.Current_Directory>
/home/itssahil/PROJECTS/Mol_Feturizer/New_Systems/rnas/2b57

>  <Rbt.Executable>
rbdock ($Id: //depot/dev/client3/rdock/2013.1/src/exe/rbdock.cxx#4 $)

>  <Rbt.Library>
libRbt.so (2013.1, Build901 2013/11/27)

>  <Rbt.Parameter_File>
/export/apps/rDock/src/rDock_2013.1_src/data/scripts/dock_solv.prm

>  <Rbt.Receptor>
prm/pocket_docking_5.prm

>  <SCORE>
-11.5522

>  <SCORE.INTER>
-11.5522

>  <SCORE.INTER.CONST>
1

>  <SCORE.INTER.POLAR>
0

>  <SCORE.INTER.ROT>
0

>  <SCORE.INTER.SOLV>
21.5969

>  <SCORE.INTER.VDW>
-18.5004

>  <SCORE.INTER.norm>
-1.0502

>  <SCORE.INTRA>
0

>  <SCORE.INTRA.DIHEDRAL>
0

>  <SCORE.INTRA.DIHEDRAL.0>
0

>  <SCORE.INTRA.POLAR>
0

>  <SCORE.INTRA.POLAR.0>
0

>  <SCORE.INTRA.REPUL>
0

>  <SCORE.INTRA.REPUL.0>
0

>  <SCORE.INTRA.SOLV>
0

>  <SCORE.INTRA.SOLV.lig_0>
-48.3454

>  <SCORE.INTRA.VDW>
0

>  <SCORE.INTRA.VDW.0>
0

>  <SCORE.INTRA.norm>
0

>  <SCORE.RESTR>
0

>  <SCORE.RESTR.CAVITY>
0

>  <SCORE.RESTR.norm>
0

>  <SCORE.SYSTEM>
0

>  <SCORE.SYSTEM.CONST>
0

>  <SCORE.SYSTEM.DIHEDRAL>
0

>  <SCORE.SYSTEM.SOLV>
0

>  <SCORE.SYSTEM.norm>
0

>  <SCORE.heavy>
11

>  <SCORE.norm>
-1.0502

>  <RMSD>
0.617

$$$$
ligand
 OpenBabel01301917033D
libRbt.so/2013.1/901 2013/11/27
 11 12  0  0  0  0  0  0  0  0999 V2000
  -11.8967  -12.7208    8.8155 N   0  0  0  0  0  0  0  0  0  0  0  0
  -11.4945  -13.9973    8.9228 C   0  0  0  0  0  0  0  0  0  0  0  0
  -11.5085  -14.5967   10.1100 N   0  0  0  0  0  0  0  0  0  0  0  0
  -11.0681  -14.6715    7.8435 N   0  0  0  0  0  0  0  0  0  0  0  0
  -11.0326  -14.0833    6.6387 C   0  0  0  0  0  0  0  0  0  0  0  0
  -11.4431  -12.7635    6.5000 C   0  0  0  0  0  0  0  0  0  0  0  0
  -11.8832  -12.0865    7.6326 C   0  0  0  0  0  0  0  0  0  0  0  0
  -12.2942  -10.8250    7.5434 N   0  0  0  0  0  0  0  0  0  0  0  0
  -11.2931  -12.4300    5.2216 N   0  0  0  0  0  0  0  0  0  0  0  0
  -10.8089  -13.4901    4.5783 C   0  0  0  0  0  0  0  0  0  0  0  0
  -10.6492  -14.4971    5.4344 N   0  0  0  0  0  0  0  0  0  0  0  0
  1  7  2  0  0  0  0
  1  2  1  0  0  0  0
  2  3  1  0  0  0  0
  2  4  2  0  0  0  0
  4  5  1  0  0  0  0
  5  6  2  0  0  0  0
  5 11  1  0  0  0  0
  6  7  1  0  0  0  0
  6  9  1  0  0  0  0
  7  8  1  0  0  0  0
  9 10  1  0  0  0  0
 10 11  2  0  0  0  0
M  END
>  <CHROM.1>
-11.40196508,-13.28767331,7.22789094,1.98593152,-1.20115854,2.09469470

>  <Name>
ligand

>  <RI>
0

>  <Rbt.Current_Directory>
/home/itssahil/PROJECTS/Mol_Feturizer/New_Systems/rnas/2b57

>  <Rbt.Executable>
rbdock ($Id: //depot/dev/client3/rdock/2013.1/src/exe/rbdock.cxx#4 $)

>  <Rbt.Library>
libRbt.so (2013.1, Build901 2013/11/27)

>  <Rbt.Parameter_File>
/export/apps/rDock/src/rDock_2013.1_src/data/scripts/dock_solv.prm

>  <Rbt.Receptor>
prm/pocket_docking_5.prm

>  <SCORE>
-11.4235

>  <SCORE.INTER>
-11.4235

>  <SCORE.INTER.CONST>
1

>  <SCORE.INTER.POLAR>
0

>  <SCORE.INTER.ROT>
0

>  <SCORE.INTER.SOLV>
21.1256

>  <SCORE.INTER.VDW>
-18.2575

>  <SCORE.INTER.norm>
-1.0385

>  <SCORE.INTRA>
0

>  <SCORE.INTRA.DIHEDRAL>
0

>  <SCORE.INTRA.DIHEDRAL.0>
0

>  <SCORE.INTRA.POLAR>
0

>  <SCORE.INTRA.POLAR.0>
0

>  <SCORE.INTRA.REPUL>
0

>  <SCORE.INTRA.REPUL.0>
0

>  <SCORE.INTRA.SOLV>
0

>  <SCORE.INTRA.SOLV.lig_0>
-48.3454

>  <SCORE.INTRA.VDW>
0

>  <SCORE.INTRA.VDW.0>
0

>  <SCORE.INTRA.norm>
0

>  <SCORE.RESTR>
0

>  <SCORE.RESTR.CAVITY>
0

>  <SCORE.RESTR.norm>
0

>  <SCORE.SYSTEM>
0

>  <SCORE.SYSTEM.CONST>
0

>  <SCORE.SYSTEM.DIHEDRAL>
0

>  <SCORE.SYSTEM.SOLV>
0

>  <SCORE.SYSTEM.norm>
0

>  <SCORE.heavy>
11

>  <SCORE.norm>
-1.0385

>  <RMSD>
0.617

$$$$
ligand
 OpenBabel01301917033D
libRbt.so/2013.1/901 2013/11/27
 11 12  0  0  0  0  0  0  0  0999 V2000
  -11.8486  -12.7681    8.8478 N   0  0  0  0  0  0  0  0  0  0  0  0
  -11.5099  -14.0643    8.9369 C   0  0  0  0  0  0  0  0  0  0  0  0
  -11.5317  -14.6727   10.1194 N   0  0  0  0  0  0  0  0  0  0  0  0
  -11.1392  -14.7496    7.8442 N   0  0  0  0  0  0  0  0  0  0  0  0
  -11.0969  -14.1531    6.6437 C   0  0  0  0  0  0  0  0  0  0  0  0
  -11.4422  -12.8130    6.5235 C   0  0  0  0  0  0  0  0  0  0  0  0
  -11.8254  -12.1247    7.6699 C   0  0  0  0  0  0  0  0  0  0  0  0
  -12.1732  -10.8432    7.5989 N   0  0  0  0  0  0  0  0  0  0  0  0
  -11.2999  -12.4762    5.2451 N   0  0  0  0  0  0  0  0  0  0  0  0
  -10.8828  -13.5536    4.5840 C   0  0  0  0  0  0  0  0  0  0  0  0
  -10.7583  -14.5751    5.4288 N   0  0  0  0  0  0  0  0  0  0  0  0
  1  7  2  0  0  0  0
  1  2  1  0  0  0  0
  2  3  1  0  0  0  0
  2  4  2  0  0  0  0
  4  5  1  0  0  0  0
  5  6  2  0  0  0  0
  5 11  1  0  0  0  0
  6  7  1  0  0  0  0
  6  9  1  0  0  0  0
  7  8  1  0  0  0  0
  9 10  1  0  0  0  0
 10 11  2  0  0  0  0
M  END
>  <CHROM.1>
-11.41388287,-13.34509585,7.24628693,2.01454721,-1.25478304,2.13012079

>  <Name>
ligand

>  <RI>
0

>  <Rbt.Current_Directory>
/home/itssahil/PROJECTS/Mol_Feturizer/New_Systems/rnas/2b57

>  <Rbt.Executable>
rbdock ($Id: //depot/dev/client3/rdock/2013.1/src/exe/rbdock.cxx#4 $)

>  <Rbt.Library>
libRbt.so (2013.1, Build901 2013/11/27)

>  <Rbt.Parameter_File>
/export/apps/rDock/src/rDock_2013.1_src/data/scripts/dock_solv.prm

>  <Rbt.Receptor>
prm/pocket_docking_6.prm

>  <SCORE>
-11.5535

>  <SCORE.INTER>
-11.5535

>  <SCORE.INTER.CONST>
1

>  <SCORE.INTER.POLAR>
0

>  <SCORE.INTER.ROT>
0

>  <SCORE.INTER.SOLV>
21.5549

>  <SCORE.INTER.VDW>
-18.4873

>  <SCORE.INTER.norm>
-1.05032

>  <SCORE.INTRA>
0

>  <SCORE.INTRA.DIHEDRAL>
0

>  <SCORE.INTRA.DIHEDRAL.0>
0

>  <SCORE.INTRA.POLAR>
0

>  <SCORE.INTRA.POLAR.0>
0

>  <SCORE.INTRA.REPUL>
0

>  <SCORE.INTRA.REPUL.0>
0

>  <SCORE.INTRA.SOLV>
0

>  <SCORE.INTRA.SOLV.lig_0>
-48.3454

>  <SCORE.INTRA.VDW>
0

>  <SCORE.INTRA.VDW.0>
0

>  <SCORE.INTRA.norm>
0

>  <SCORE.RESTR>
0

>  <SCORE.RESTR.CAVITY>
0

>  <SCORE.RESTR.norm>
0

>  <SCORE.SYSTEM>
0

>  <SCORE.SYSTEM.CONST>
0

>  <SCORE.SYSTEM.DIHEDRAL>
0

>  <SCORE.SYSTEM.SOLV>
0

>  <SCORE.SYSTEM.norm>
0

>  <SCORE.heavy>
11

>  <SCORE.norm>
-1.05032

>  <RMSD>
0.617

$$$$
ligand
 OpenBabel01301917033D
libRbt.so/2013.1/901 2013/11/27
 11 12  0  0  0  0  0  0  0  0999 V2000
  -11.8420  -12.7651    8.8491 N   0  0  0  0  0  0  0  0  0  0  0  0
  -11.5044  -14.0615    8.9401 C   0  0  0  0  0  0  0  0  0  0  0  0
  -11.5270  -14.6683   10.1234 N   0  0  0  0  0  0  0  0  0  0  0  0
  -11.1339  -14.7486    7.8485 N   0  0  0  0  0  0  0  0  0  0  0  0
  -11.0908  -14.1538    6.6471 C   0  0  0  0  0  0  0  0  0  0  0  0
  -11.4350  -12.8135    6.5250 C   0  0  0  0  0  0  0  0  0  0  0  0
  -11.8180  -12.1233    7.6703 C   0  0  0  0  0  0  0  0  0  0  0  0
  -12.1648  -10.8417    7.5975 N   0  0  0  0  0  0  0  0  0  0  0  0
  -11.2921  -12.4785    5.2462 N   0  0  0  0  0  0  0  0  0  0  0  0
  -10.8756  -13.5572    4.5867 C   0  0  0  0  0  0  0  0  0  0  0  0
  -10.7521  -14.5776    5.4329 N   0  0  0  0  0  0  0  0  0  0  0  0
  1  7  2  0  0  0  0
  1  2  1  0  0  0  0
  2  3  1  0  0  0  0
  2  4  2  0  0  0  0
  4  5  1  0  0  0  0
  5  6  2  0  0  0  0
  5 11  1  0  0  0  0
  6  7  1  0  0  0  0
  6  9  1  0  0  0  0
  7  8  1  0  0  0  0
  9 10  1  0  0  0  0
 10 11  2  0  0  0  0
M  END
>  <CHROM.1>
-11.40729273,-13.34465686,7.24853920,2.01668605,-1.25529252,2.13080091

>  <Name>
ligand

>  <RI>
0

>  <Rbt.Current_Directory>
/home/itssahil/PROJECTS/Mol_Feturizer/New_Systems/rnas/2b57

>  <Rbt.Executable>
rbdock ($Id: //depot/dev/client3/rdock/2013.1/src/exe/rbdock.cxx#4 $)

>  <Rbt.Library>
libRbt.so (2013.1, Build901 2013/11/27)

>  <Rbt.Parameter_File>
/export/apps/rDock/src/rDock_2013.1_src/data/scripts/dock_solv.prm

>  <Rbt.Receptor>
prm/pocket_docking_7.prm

>  <SCORE>
-11.5515

>  <SCORE.INTER>
-11.5515

>  <SCORE.INTER.CONST>
1

>  <SCORE.INTER.POLAR>
0

>  <SCORE.INTER.ROT>
0

>  <SCORE.INTER.SOLV>
21.5749

>  <SCORE.INTER.VDW>
-18.4926

>  <SCORE.INTER.norm>
-1.05013

>  <SCORE.INTRA>
0

>  <SCORE.INTRA.DIHEDRAL>
0

>  <SCORE.INTRA.DIHEDRAL.0>
0

>  <SCORE.INTRA.POLAR>
0

>  <SCORE.INTRA.POLAR.0>
0

>  <SCORE.INTRA.REPUL>
0

>  <SCORE.INTRA.REPUL.0>
0

>  <SCORE.INTRA.SOLV>
0

>  <SCORE.INTRA.SOLV.lig_0>
-48.3454

>  <SCORE.INTRA.VDW>
0

>  <SCORE.INTRA.VDW.0>
0

>  <SCORE.INTRA.norm>
0

>  <SCORE.RESTR>
0

>  <SCORE.RESTR.CAVITY>
0

>  <SCORE.RESTR.norm>
0

>  <SCORE.SYSTEM>
0

>  <SCORE.SYSTEM.CONST>
0

>  <SCORE.SYSTEM.DIHEDRAL>
0

>  <SCORE.SYSTEM.SOLV>
0

>  <SCORE.SYSTEM.norm>
0

>  <SCORE.heavy>
11

>  <SCORE.norm>
-1.05013

>  <RMSD>
0.617

$$$$
ligand
 OpenBabel01301917033D
libRbt.so/2013.1/901 2013/11/27
 11 12  0  0  0  0  0  0  0  0999 V2000
  -11.8491  -12.7682    8.8460 N   0  0  0  0  0  0  0  0  0  0  0  0
  -11.4962  -14.0612    8.9257 C   0  0  0  0  0  0  0  0  0  0  0  0
  -11.5274  -14.6831   10.1009 N   0  0  0  0  0  0  0  0  0  0  0  0
  -11.1019  -14.7298    7.8309 N   0  0  0  0  0  0  0  0  0  0  0  0
  -11.0498  -14.1195    6.6377 C   0  0  0  0  0  0  0  0  0  0  0  0
  -11.4094  -12.7823    6.5274 C   0  0  0  0  0  0  0  0  0  0  0  0
  -11.8170  -12.1114    7.6757 C   0  0  0  0  0  0  0  0  0  0  0  0
  -12.1791  -10.8335    7.6138 N   0  0  0  0  0  0  0  0  0  0  0  0
  -11.2532  -12.4295    5.2549 N   0  0  0  0  0  0  0  0  0  0  0  0
  -10.8138  -13.4945    4.5880 C   0  0  0  0  0  0  0  0  0  0  0  0
  -10.6890  -14.5238    5.4232 N   0  0  0  0  0  0  0  0  0  0  0  0
  1  7  2  0  0  0  0
  1  2  1  0  0  0  0
  2  3  1  0  0  0  0
  2  4  2  0  0  0  0
  4  5  1  0  0  0  0
  5  6  2  0  0  0  0
  5 11  1  0  0  0  0
  6  7  1  0  0  0  0
  6  9  1  0  0  0  0
  7  8  1  0  0  0  0
  9 10  1  0  0  0  0
 10 11  2  0  0  0  0
M  END
>  <CHROM.1>
-11.38491054,-13.32206647,7.24458311,2.03165088,-1.23706859,2.15742754

>  <Name>
ligand

>  <RI>
0

>  <Rbt.Current_Directory>
/home/itssahil/PROJECTS/Mol_Feturizer/New_Systems/rnas/2b57

>  <Rbt.Executable>
rbdock ($Id: //depot/dev/client3/rdock/2013.1/src/exe/rbdock.cxx#4 $)

>  <Rbt.Library>
libRbt.so (2013.1, Build901 2013/11/27)

>  <Rbt.Parameter_File>
/export/apps/rDock/src/rDock_2013.1_src/data/scripts/dock_solv.prm

>  <Rbt.Receptor>
prm/blind_docking_100.prm

>  <SCORE>
-11.4811

>  <SCORE.INTER>
-11.4811

>  <SCORE.INTER.CONST>
1

>  <SCORE.INTER.POLAR>
0

>  <SCORE.INTER.ROT>
0

>  <SCORE.INTER.SOLV>
21.5429

>  <SCORE.INTER.VDW>
-18.435

>  <SCORE.INTER.norm>
-1.04374

>  <SCORE.INTRA>
0

>  <SCORE.INTRA.DIHEDRAL>
0

>  <SCORE.INTRA.DIHEDRAL.0>
0

>  <SCORE.INTRA.POLAR>
0

>  <SCORE.INTRA.POLAR.0>
0

>  <SCORE.INTRA.REPUL>
0

>  <SCORE.INTRA.REPUL.0>
0

>  <SCORE.INTRA.SOLV>
0

>  <SCORE.INTRA.SOLV.lig_0>
-48.3454

>  <SCORE.INTRA.VDW>
0

>  <SCORE.INTRA.VDW.0>
0

>  <SCORE.INTRA.norm>
0

>  <SCORE.RESTR>
0

>  <SCORE.RESTR.CAVITY>
0

>  <SCORE.RESTR.norm>
0

>  <SCORE.SYSTEM>
0

>  <SCORE.SYSTEM.CONST>
0

>  <SCORE.SYSTEM.DIHEDRAL>
0

>  <SCORE.SYSTEM.SOLV>
0

>  <SCORE.SYSTEM.norm>
0

>  <SCORE.heavy>
11

>  <SCORE.norm>
-1.04374

>  <RMSD>
0.618

$$$$
ligand
 OpenBabel01301917033D
libRbt.so/2013.1/901 2013/11/27
 11 12  0  0  0  0  0  0  0  0999 V2000
  -11.8463  -12.7669    8.8482 N   0  0  0  0  0  0  0  0  0  0  0  0
  -11.4966  -14.0610    8.9230 C   0  0  0  0  0  0  0  0  0  0  0  0
  -11.5201  -14.6846   10.0975 N   0  0  0  0  0  0  0  0  0  0  0  0
  -11.1132  -14.7290    7.8240 N   0  0  0  0  0  0  0  0  0  0  0  0
  -11.0689  -14.1170    6.6314 C   0  0  0  0  0  0  0  0  0  0  0  0
  -11.4255  -12.7786    6.5261 C   0  0  0  0  0  0  0  0  0  0  0  0
  -11.8218  -12.1083    7.6787 C   0  0  0  0  0  0  0  0  0  0  0  0
  -12.1807  -10.8292    7.6217 N   0  0  0  0  0  0  0  0  0  0  0  0
  -11.2786  -12.4243    5.2529 N   0  0  0  0  0  0  0  0  0  0  0  0
  -10.8478  -13.4895    4.5809 C   0  0  0  0  0  0  0  0  0  0  0  0
  -10.7192  -14.5205    5.4133 N   0  0  0  0  0  0  0  0  0  0  0  0
  1  7  2  0  0  0  0
  1  2  1  0  0  0  0
  2  3  1  0  0  0  0
  2  4  2  0  0  0  0
  4  5  1  0  0  0  0
  5  6  2  0  0  0  0
  5 11  1  0  0  0  0
  6  7  1  0  0  0  0
  6  9  1  0  0  0  0
  7  8  1  0  0  0  0
  9 10  1  0  0  0  0
 10 11  2  0  0  0  0
M  END
>  <CHROM.1>
-11.39679194,-13.31956067,7.24221233,2.01565700,-1.24395079,2.14386309

>  <Name>
ligand

>  <RI>
0

>  <Rbt.Current_Directory>
/home/itssahil/PROJECTS/Mol_Feturizer/New_Systems/rnas/2b57

>  <Rbt.Executable>
rbdock ($Id: //depot/dev/client3/rdock/2013.1/src/exe/rbdock.cxx#4 $)

>  <Rbt.Library>
libRbt.so (2013.1, Build901 2013/11/27)

>  <Rbt.Parameter_File>
/export/apps/rDock/src/rDock_2013.1_src/data/scripts/dock_solv.prm

>  <Rbt.Receptor>
prm/pocket_docking_3.prm

>  <SCORE>
-11.4629

>  <SCORE.INTER>
-11.4629

>  <SCORE.INTER.CONST>
1

>  <SCORE.INTER.POLAR>
0

>  <SCORE.INTER.ROT>
0

>  <SCORE.INTER.SOLV>
21.5605

>  <SCORE.INTER.VDW>
-18.4287

>  <SCORE.INTER.norm>
-1.04208

>  <SCORE.INTRA>
0

>  <SCORE.INTRA.DIHEDRAL>
0

>  <SCORE.INTRA.DIHEDRAL.0>
0

>  <SCORE.INTRA.POLAR>
0

>  <SCORE.INTRA.POLAR.0>
0

>  <SCORE.INTRA.REPUL>
0

>  <SCORE.INTRA.REPUL.0>
0

>  <SCORE.INTRA.SOLV>
0

>  <SCORE.INTRA.SOLV.lig_0>
-48.3454

>  <SCORE.INTRA.VDW>
0

>  <SCORE.INTRA.VDW.0>
0

>  <SCORE.INTRA.norm>
0

>  <SCORE.RESTR>
0

>  <SCORE.RESTR.CAVITY>
0

>  <SCORE.RESTR.norm>
0

>  <SCORE.SYSTEM>
0

>  <SCORE.SYSTEM.CONST>
0

>  <SCORE.SYSTEM.DIHEDRAL>
0

>  <SCORE.SYSTEM.SOLV>
0

>  <SCORE.SYSTEM.norm>
0

>  <SCORE.heavy>
11

>  <SCORE.norm>
-1.04208

>  <RMSD>
0.618

$$$$
ligand
 OpenBabel01301917033D
libRbt.so/2013.1/901 2013/11/27
 11 12  0  0  0  0  0  0  0  0999 V2000
  -11.8452  -12.7665    8.8485 N   0  0  0  0  0  0  0  0  0  0  0  0
  -11.5120  -14.0641    8.9370 C   0  0  0  0  0  0  0  0  0  0  0  0
  -11.5364  -14.6731   10.1191 N   0  0  0  0  0  0  0  0  0  0  0  0
  -11.1442  -14.7504    7.8439 N   0  0  0  0  0  0  0  0  0  0  0  0
  -11.0993  -14.1534    6.6436 C   0  0  0  0  0  0  0  0  0  0  0  0
  -11.4390  -12.8118    6.5243 C   0  0  0  0  0  0  0  0  0  0  0  0
  -11.8193  -12.1225    7.6710 C   0  0  0  0  0  0  0  0  0  0  0  0
  -12.1618  -10.8396    7.6007 N   0  0  0  0  0  0  0  0  0  0  0  0
  -11.2953  -12.4748    5.2460 N   0  0  0  0  0  0  0  0  0  0  0  0
  -10.8827  -13.5537    4.5844 C   0  0  0  0  0  0  0  0  0  0  0  0
  -10.7624  -14.5761    5.4285 N   0  0  0  0  0  0  0  0  0  0  0  0
  1  7  2  0  0  0  0
  1  2  1  0  0  0  0
  2  3  1  0  0  0  0
  2  4  2  0  0  0  0
  4  5  1  0  0  0  0
  5  6  2  0  0  0  0
  5 11  1  0  0  0  0
  6  7  1  0  0  0  0
  6  9  1  0  0  0  0
  7  8  1  0  0  0  0
  9 10  1  0  0  0  0
 10 11  2  0  0  0  0
M  END
>  <CHROM.1>
-11.41292674,-13.34438235,7.24672025,2.02183687,-1.25830914,2.13761705

>  <Name>
ligand

>  <RI>
0

>  <Rbt.Current_Directory>
/home/itssahil/PROJECTS/Mol_Feturizer/New_Systems/rnas/2b57

>  <Rbt.Executable>
rbdock ($Id: //depot/dev/client3/rdock/2013.1/src/exe/rbdock.cxx#4 $)

>  <Rbt.Library>
libRbt.so (2013.1, Build901 2013/11/27)

>  <Rbt.Parameter_File>
/export/apps/rDock/src/rDock_2013.1_src/data/scripts/dock_solv.prm

>  <Rbt.Receptor>
prm/pocket_docking_3.prm

>  <SCORE>
-11.5526

>  <SCORE.INTER>
-11.5526

>  <SCORE.INTER.CONST>
1

>  <SCORE.INTER.POLAR>
0

>  <SCORE.INTER.ROT>
0

>  <SCORE.INTER.SOLV>
21.601

>  <SCORE.INTER.VDW>
-18.5021

>  <SCORE.INTER.norm>
-1.05023

>  <SCORE.INTRA>
0

>  <SCORE.INTRA.DIHEDRAL>
0

>  <SCORE.INTRA.DIHEDRAL.0>
0

>  <SCORE.INTRA.POLAR>
0

>  <SCORE.INTRA.POLAR.0>
0

>  <SCORE.INTRA.REPUL>
0

>  <SCORE.INTRA.REPUL.0>
0

>  <SCORE.INTRA.SOLV>
0

>  <SCORE.INTRA.SOLV.lig_0>
-48.3454

>  <SCORE.INTRA.VDW>
0

>  <SCORE.INTRA.VDW.0>
0

>  <SCORE.INTRA.norm>
0

>  <SCORE.RESTR>
0

>  <SCORE.RESTR.CAVITY>
0

>  <SCORE.RESTR.norm>
0

>  <SCORE.SYSTEM>
0

>  <SCORE.SYSTEM.CONST>
0

>  <SCORE.SYSTEM.DIHEDRAL>
0

>  <SCORE.SYSTEM.SOLV>
0

>  <SCORE.SYSTEM.norm>
0

>  <SCORE.heavy>
11

>  <SCORE.norm>
-1.05023

>  <RMSD>
0.618

$$$$
ligand
 OpenBabel01301917033D
libRbt.so/2013.1/901 2013/11/27
 11 12  0  0  0  0  0  0  0  0999 V2000
  -11.8435  -12.7658    8.8479 N   0  0  0  0  0  0  0  0  0  0  0  0
  -11.5114  -14.0637    8.9370 C   0  0  0  0  0  0  0  0  0  0  0  0
  -11.5367  -14.6723   10.1194 N   0  0  0  0  0  0  0  0  0  0  0  0
  -11.1437  -14.7507    7.8443 N   0  0  0  0  0  0  0  0  0  0  0  0
  -11.0979  -14.1544    6.6438 C   0  0  0  0  0  0  0  0  0  0  0  0
  -11.4365  -12.8125    6.5238 C   0  0  0  0  0  0  0  0  0  0  0  0
  -11.8167  -12.1224    7.6701 C   0  0  0  0  0  0  0  0  0  0  0  0
  -12.1580  -10.8392    7.5991 N   0  0  0  0  0  0  0  0  0  0  0  0
  -11.2921  -12.4762    5.2455 N   0  0  0  0  0  0  0  0  0  0  0  0
  -10.8801  -13.5556    4.5844 C   0  0  0  0  0  0  0  0  0  0  0  0
  -10.7610  -14.5778    5.4290 N   0  0  0  0  0  0  0  0  0  0  0  0
  1  7  2  0  0  0  0
  1  2  1  0  0  0  0
  2  3  1  0  0  0  0
  2  4  2  0  0  0  0
  4  5  1  0  0  0  0
  5  6  2  0  0  0  0
  5 11  1  0  0  0  0
  6  7  1  0  0  0  0
  6  9  1  0  0  0  0
  7  8  1  0  0  0  0
  9 10  1  0  0  0  0
 10 11  2  0  0  0  0
M  END
>  <CHROM.1>
-11.41109826,-13.34480748,7.24645704,2.02423466,-1.25882223,2.13947649

>  <Name>
ligand

>  <RI>
0

>  <Rbt.Current_Directory>
/home/itssahil/PROJECTS/Mol_Feturizer/New_Systems/rnas/2b57

>  <Rbt.Executable>
rbdock ($Id: //depot/dev/client3/rdock/2013.1/src/exe/rbdock.cxx#4 $)

>  <Rbt.Library>
libRbt.so (2013.1, Build901 2013/11/27)

>  <Rbt.Parameter_File>
/export/apps/rDock/src/rDock_2013.1_src/data/scripts/dock_solv.prm

>  <Rbt.Receptor>
prm/pocket_docking_5.prm

>  <SCORE>
-11.5506

>  <SCORE.INTER>
-11.5506

>  <SCORE.INTER.CONST>
1

>  <SCORE.INTER.POLAR>
0

>  <SCORE.INTER.ROT>
0

>  <SCORE.INTER.SOLV>
21.6139

>  <SCORE.INTER.VDW>
-18.5051

>  <SCORE.INTER.norm>
-1.05006

>  <SCORE.INTRA>
0

>  <SCORE.INTRA.DIHEDRAL>
0

>  <SCORE.INTRA.DIHEDRAL.0>
0

>  <SCORE.INTRA.POLAR>
0

>  <SCORE.INTRA.POLAR.0>
0

>  <SCORE.INTRA.REPUL>
0

>  <SCORE.INTRA.REPUL.0>
0

>  <SCORE.INTRA.SOLV>
0

>  <SCORE.INTRA.SOLV.lig_0>
-48.3454

>  <SCORE.INTRA.VDW>
0

>  <SCORE.INTRA.VDW.0>
0

>  <SCORE.INTRA.norm>
0

>  <SCORE.RESTR>
0

>  <SCORE.RESTR.CAVITY>
0

>  <SCORE.RESTR.norm>
0

>  <SCORE.SYSTEM>
0

>  <SCORE.SYSTEM.CONST>
0

>  <SCORE.SYSTEM.DIHEDRAL>
0

>  <SCORE.SYSTEM.SOLV>
0

>  <SCORE.SYSTEM.norm>
0

>  <SCORE.heavy>
11

>  <SCORE.norm>
-1.05006

>  <RMSD>
0.618

$$$$
ligand
 OpenBabel01301917033D
libRbt.so/2013.1/901 2013/11/27
 11 12  0  0  0  0  0  0  0  0999 V2000
  -11.8363  -12.7655    8.8480 N   0  0  0  0  0  0  0  0  0  0  0  0
  -11.5012  -14.0621    8.9447 C   0  0  0  0  0  0  0  0  0  0  0  0
  -11.5311  -14.6653   10.1297 N   0  0  0  0  0  0  0  0  0  0  0  0
  -11.1260  -14.7530    7.8571 N   0  0  0  0  0  0  0  0  0  0  0  0
  -11.0755  -14.1619    6.6542 C   0  0  0  0  0  0  0  0  0  0  0  0
  -11.4170  -12.8215    6.5263 C   0  0  0  0  0  0  0  0  0  0  0  0
  -11.8050  -12.1273    7.6675 C   0  0  0  0  0  0  0  0  0  0  0  0
  -12.1495  -10.8454    7.5889 N   0  0  0  0  0  0  0  0  0  0  0  0
  -11.2668  -12.4906    5.2473 N   0  0  0  0  0  0  0  0  0  0  0  0
  -10.8484  -13.5719    4.5933 C   0  0  0  0  0  0  0  0  0  0  0  0
  -10.7310  -14.5900    5.4431 N   0  0  0  0  0  0  0  0  0  0  0  0
  1  7  2  0  0  0  0
  1  2  1  0  0  0  0
  2  3  1  0  0  0  0
  2  4  2  0  0  0  0
  4  5  1  0  0  0  0
  5  6  2  0  0  0  0
  5 11  1  0  0  0  0
  6  7  1  0  0  0  0
  6  9  1  0  0  0  0
  7  8  1  0  0  0  0
  9 10  1  0  0  0  0
 10 11  2  0  0  0  0
M  END
>  <CHROM.1>
-11.39397618,-13.35051998,7.25154922,2.03379566,-1.25371239,2.14405540

>  <Name>
ligand

>  <RI>
0

>  <Rbt.Current_Directory>
/home/itssahil/PROJECTS/Mol_Feturizer/New_Systems/rnas/2b57

>  <Rbt.Executable>
rbdock ($Id: //depot/dev/client3/rdock/2013.1/src/exe/rbdock.cxx#4 $)

>  <Rbt.Library>
libRbt.so (2013.1, Build901 2013/11/27)

>  <Rbt.Parameter_File>
/export/apps/rDock/src/rDock_2013.1_src/data/scripts/dock_solv.prm

>  <Rbt.Receptor>
prm/pocket_docking_6.prm

>  <SCORE>
-11.5643

>  <SCORE.INTER>
-11.5643

>  <SCORE.INTER.CONST>
1

>  <SCORE.INTER.POLAR>
0

>  <SCORE.INTER.ROT>
0

>  <SCORE.INTER.SOLV>
21.6173

>  <SCORE.INTER.VDW>
-18.5153

>  <SCORE.INTER.norm>
-1.0513

>  <SCORE.INTRA>
0

>  <SCORE.INTRA.DIHEDRAL>
0

>  <SCORE.INTRA.DIHEDRAL.0>
0

>  <SCORE.INTRA.POLAR>
0

>  <SCORE.INTRA.POLAR.0>
0

>  <SCORE.INTRA.REPUL>
0

>  <SCORE.INTRA.REPUL.0>
0

>  <SCORE.INTRA.SOLV>
0

>  <SCORE.INTRA.SOLV.lig_0>
-48.3454

>  <SCORE.INTRA.VDW>
0

>  <SCORE.INTRA.VDW.0>
0

>  <SCORE.INTRA.norm>
0

>  <SCORE.RESTR>
0

>  <SCORE.RESTR.CAVITY>
0

>  <SCORE.RESTR.norm>
0

>  <SCORE.SYSTEM>
0

>  <SCORE.SYSTEM.CONST>
0

>  <SCORE.SYSTEM.DIHEDRAL>
0

>  <SCORE.SYSTEM.SOLV>
0

>  <SCORE.SYSTEM.norm>
0

>  <SCORE.heavy>
11

>  <SCORE.norm>
-1.0513

>  <RMSD>
0.618

$$$$
ligand
 OpenBabel01301917033D
libRbt.so/2013.1/901 2013/11/27
 11 12  0  0  0  0  0  0  0  0999 V2000
  -11.8551  -12.7895    8.8512 N   0  0  0  0  0  0  0  0  0  0  0  0
  -11.5151  -14.0856    8.9357 C   0  0  0  0  0  0  0  0  0  0  0  0
  -11.5392  -14.6992   10.1155 N   0  0  0  0  0  0  0  0  0  0  0  0
  -11.1409  -14.7659    7.8410 N   0  0  0  0  0  0  0  0  0  0  0  0
  -11.0962  -14.1643    6.6431 C   0  0  0  0  0  0  0  0  0  0  0  0
  -11.4428  -12.8240    6.5278 C   0  0  0  0  0  0  0  0  0  0  0  0
  -11.8297  -12.1411    7.6761 C   0  0  0  0  0  0  0  0  0  0  0  0
  -12.1789  -10.8597    7.6096 N   0  0  0  0  0  0  0  0  0  0  0  0
  -11.2978  -12.4816    5.2512 N   0  0  0  0  0  0  0  0  0  0  0  0
  -10.8777  -13.5558    4.5866 C   0  0  0  0  0  0  0  0  0  0  0  0
  -10.7541  -14.5807    5.4273 N   0  0  0  0  0  0  0  0  0  0  0  0
  1  7  2  0  0  0  0
  1  2  1  0  0  0  0
  2  3  1  0  0  0  0
  2  4  2  0  0  0  0
  4  5  1  0  0  0  0
  5  6  2  0  0  0  0
  5 11  1  0  0  0  0
  6  7  1  0  0  0  0
  6  9  1  0  0  0  0
  7  8  1  0  0  0  0
  9 10  1  0  0  0  0
 10 11  2  0  0  0  0
M  END
>  <CHROM.1>
-11.41570035,-13.35917362,7.24833156,2.01936590,-1.25244447,2.13895679

>  <Name>
ligand

>  <RI>
0

>  <Rbt.Current_Directory>
/home/itssahil/PROJECTS/Mol_Feturizer/New_Systems/rnas/2b57

>  <Rbt.Executable>
rbdock ($Id: //depot/dev/client3/rdock/2013.1/src/exe/rbdock.cxx#4 $)

>  <Rbt.Library>
libRbt.so (2013.1, Build901 2013/11/27)

>  <Rbt.Parameter_File>
/export/apps/rDock/src/rDock_2013.1_src/data/scripts/dock_solv.prm

>  <Rbt.Receptor>
prm/blind_docking_60.prm

>  <SCORE>
-11.5551

>  <SCORE.INTER>
-11.5551

>  <SCORE.INTER.CONST>
1

>  <SCORE.INTER.POLAR>
0

>  <SCORE.INTER.ROT>
0

>  <SCORE.INTER.SOLV>
21.5667

>  <SCORE.INTER.VDW>
-18.4923

>  <SCORE.INTER.norm>
-1.05046

>  <SCORE.INTRA>
0

>  <SCORE.INTRA.DIHEDRAL>
0

>  <SCORE.INTRA.DIHEDRAL.0>
0

>  <SCORE.INTRA.POLAR>
0

>  <SCORE.INTRA.POLAR.0>
0

>  <SCORE.INTRA.REPUL>
0

>  <SCORE.INTRA.REPUL.0>
0

>  <SCORE.INTRA.SOLV>
0

>  <SCORE.INTRA.SOLV.lig_0>
-48.3454

>  <SCORE.INTRA.VDW>
0

>  <SCORE.INTRA.VDW.0>
0

>  <SCORE.INTRA.norm>
0

>  <SCORE.RESTR>
0

>  <SCORE.RESTR.CAVITY>
0

>  <SCORE.RESTR.norm>
0

>  <SCORE.SYSTEM>
0

>  <SCORE.SYSTEM.CONST>
0

>  <SCORE.SYSTEM.DIHEDRAL>
0

>  <SCORE.SYSTEM.SOLV>
0

>  <SCORE.SYSTEM.norm>
0

>  <SCORE.heavy>
11

>  <SCORE.norm>
-1.05046

>  <RMSD>
0.619

$$$$
ligand
 OpenBabel01301917033D
libRbt.so/2013.1/901 2013/11/27
 11 12  0  0  0  0  0  0  0  0999 V2000
  -11.8370  -12.7625    8.8479 N   0  0  0  0  0  0  0  0  0  0  0  0
  -11.5086  -14.0614    8.9368 C   0  0  0  0  0  0  0  0  0  0  0  0
  -11.5341  -14.6695   10.1194 N   0  0  0  0  0  0  0  0  0  0  0  0
  -11.1445  -14.7497    7.8438 N   0  0  0  0  0  0  0  0  0  0  0  0
  -11.0986  -14.1537    6.6432 C   0  0  0  0  0  0  0  0  0  0  0  0
  -11.4333  -12.8109    6.5232 C   0  0  0  0  0  0  0  0  0  0  0  0
  -11.8099  -12.1194    7.6699 C   0  0  0  0  0  0  0  0  0  0  0  0
  -12.1475  -10.8352    7.5991 N   0  0  0  0  0  0  0  0  0  0  0  0
  -11.2896  -12.4753    5.2447 N   0  0  0  0  0  0  0  0  0  0  0  0
  -10.8817  -13.5561    4.5833 C   0  0  0  0  0  0  0  0  0  0  0  0
  -10.7645  -14.5785    5.4280 N   0  0  0  0  0  0  0  0  0  0  0  0
  1  7  2  0  0  0  0
  1  2  1  0  0  0  0
  2  3  1  0  0  0  0
  2  4  2  0  0  0  0
  4  5  1  0  0  0  0
  5  6  2  0  0  0  0
  5 11  1  0  0  0  0
  6  7  1  0  0  0  0
  6  9  1  0  0  0  0
  7  8  1  0  0  0  0
  9 10  1  0  0  0  0
 10 11  2  0  0  0  0
M  END
>  <CHROM.1>
-11.40850781,-13.34311948,7.24602979,2.02574790,-1.26204804,2.14069332

>  <Name>
ligand

>  <RI>
0

>  <Rbt.Current_Directory>
/home/itssahil/PROJECTS/Mol_Feturizer/New_Systems/rnas/2b57

>  <Rbt.Executable>
rbdock ($Id: //depot/dev/client3/rdock/2013.1/src/exe/rbdock.cxx#4 $)

>  <Rbt.Library>
libRbt.so (2013.1, Build901 2013/11/27)

>  <Rbt.Parameter_File>
/export/apps/rDock/src/rDock_2013.1_src/data/scripts/dock_solv.prm

>  <Rbt.Receptor>
prm/pocket_docking_4.prm

>  <SCORE>
-11.5453

>  <SCORE.INTER>
-11.5453

>  <SCORE.INTER.CONST>
1

>  <SCORE.INTER.POLAR>
0

>  <SCORE.INTER.ROT>
0

>  <SCORE.INTER.SOLV>
21.656

>  <SCORE.INTER.VDW>
-18.5155

>  <SCORE.INTER.norm>
-1.04958

>  <SCORE.INTRA>
0

>  <SCORE.INTRA.DIHEDRAL>
0

>  <SCORE.INTRA.DIHEDRAL.0>
0

>  <SCORE.INTRA.POLAR>
0

>  <SCORE.INTRA.POLAR.0>
0

>  <SCORE.INTRA.REPUL>
0

>  <SCORE.INTRA.REPUL.0>
0

>  <SCORE.INTRA.SOLV>
0

>  <SCORE.INTRA.SOLV.lig_0>
-48.3454

>  <SCORE.INTRA.VDW>
0

>  <SCORE.INTRA.VDW.0>
0

>  <SCORE.INTRA.norm>
0

>  <SCORE.RESTR>
0

>  <SCORE.RESTR.CAVITY>
0

>  <SCORE.RESTR.norm>
0

>  <SCORE.SYSTEM>
0

>  <SCORE.SYSTEM.CONST>
0

>  <SCORE.SYSTEM.DIHEDRAL>
0

>  <SCORE.SYSTEM.SOLV>
0

>  <SCORE.SYSTEM.norm>
0

>  <SCORE.heavy>
11

>  <SCORE.norm>
-1.04958

>  <RMSD>
0.620

$$$$
ligand
 OpenBabel01301917033D
libRbt.so/2013.1/901 2013/11/27
 11 12  0  0  0  0  0  0  0  0999 V2000
  -11.8506  -12.7690    8.8433 N   0  0  0  0  0  0  0  0  0  0  0  0
  -11.4973  -14.0617    8.9255 C   0  0  0  0  0  0  0  0  0  0  0  0
  -11.5280  -14.6813   10.1020 N   0  0  0  0  0  0  0  0  0  0  0  0
  -11.1032  -14.7324    7.8319 N   0  0  0  0  0  0  0  0  0  0  0  0
  -11.0515  -14.1245    6.6375 C   0  0  0  0  0  0  0  0  0  0  0  0
  -11.4116  -12.7876    6.5246 C   0  0  0  0  0  0  0  0  0  0  0  0
  -11.8190  -12.1145    7.6717 C   0  0  0  0  0  0  0  0  0  0  0  0
  -12.1816  -10.8368    7.6074 N   0  0  0  0  0  0  0  0  0  0  0  0
  -11.2558  -12.4373    5.2514 N   0  0  0  0  0  0  0  0  0  0  0  0
  -10.8164  -13.5035    4.5865 C   0  0  0  0  0  0  0  0  0  0  0  0
  -10.6910  -14.5311    5.4237 N   0  0  0  0  0  0  0  0  0  0  0  0
  1  7  2  0  0  0  0
  1  2  1  0  0  0  0
  2  3  1  0  0  0  0
  2  4  2  0  0  0  0
  4  5  1  0  0  0  0
  5  6  2  0  0  0  0
  5 11  1  0  0  0  0
  6  7  1  0  0  0  0
  6  9  1  0  0  0  0
  7  8  1  0  0  0  0
  9 10  1  0  0  0  0
 10 11  2  0  0  0  0
M  END
>  <CHROM.1>
-11.38673624,-13.32591730,7.24287541,2.03043173,-1.23698273,2.15428665

>  <Name>
ligand

>  <RI>
0

>  <Rbt.Current_Directory>
/home/itssahil/PROJECTS/Mol_Feturizer/New_Systems/rnas/2b57

>  <Rbt.Executable>
rbdock ($Id: //depot/dev/client3/rdock/2013.1/src/exe/rbdock.cxx#4 $)

>  <Rbt.Library>
libRbt.so (2013.1, Build901 2013/11/27)

>  <Rbt.Parameter_File>
/export/apps/rDock/src/rDock_2013.1_src/data/scripts/dock_solv.prm

>  <Rbt.Receptor>
prm/pocket_docking_8.prm

>  <SCORE>
-11.4864

>  <SCORE.INTER>
-11.4864

>  <SCORE.INTER.CONST>
1

>  <SCORE.INTER.POLAR>
0

>  <SCORE.INTER.ROT>
0

>  <SCORE.INTER.SOLV>
21.5253

>  <SCORE.INTER.VDW>
-18.4327

>  <SCORE.INTER.norm>
-1.04422

>  <SCORE.INTRA>
0

>  <SCORE.INTRA.DIHEDRAL>
0

>  <SCORE.INTRA.DIHEDRAL.0>
0

>  <SCORE.INTRA.POLAR>
0

>  <SCORE.INTRA.POLAR.0>
0

>  <SCORE.INTRA.REPUL>
0

>  <SCORE.INTRA.REPUL.0>
0

>  <SCORE.INTRA.SOLV>
0

>  <SCORE.INTRA.SOLV.lig_0>
-48.3454

>  <SCORE.INTRA.VDW>
0

>  <SCORE.INTRA.VDW.0>
0

>  <SCORE.INTRA.norm>
0

>  <SCORE.RESTR>
0

>  <SCORE.RESTR.CAVITY>
0

>  <SCORE.RESTR.norm>
0

>  <SCORE.SYSTEM>
0

>  <SCORE.SYSTEM.CONST>
0

>  <SCORE.SYSTEM.DIHEDRAL>
0

>  <SCORE.SYSTEM.SOLV>
0

>  <SCORE.SYSTEM.norm>
0

>  <SCORE.heavy>
11

>  <SCORE.norm>
-1.04422

>  <RMSD>
0.620

$$$$
ligand
 OpenBabel01301917033D
libRbt.so/2013.1/901 2013/11/27
 11 12  0  0  0  0  0  0  0  0999 V2000
  -11.8407  -12.7645    8.8454 N   0  0  0  0  0  0  0  0  0  0  0  0
  -11.5116  -14.0631    8.9348 C   0  0  0  0  0  0  0  0  0  0  0  0
  -11.5369  -14.6709   10.1175 N   0  0  0  0  0  0  0  0  0  0  0  0
  -11.1470  -14.7516    7.8420 N   0  0  0  0  0  0  0  0  0  0  0  0
  -11.1012  -14.1559    6.6412 C   0  0  0  0  0  0  0  0  0  0  0  0
  -11.4367  -12.8133    6.5208 C   0  0  0  0  0  0  0  0  0  0  0  0
  -11.8138  -12.1217    7.6672 C   0  0  0  0  0  0  0  0  0  0  0  0
  -12.1522  -10.8378    7.5959 N   0  0  0  0  0  0  0  0  0  0  0  0
  -11.2931  -12.4781    5.2421 N   0  0  0  0  0  0  0  0  0  0  0  0
  -10.8845  -13.5589    4.5811 C   0  0  0  0  0  0  0  0  0  0  0  0
  -10.7668  -14.5809    5.4262 N   0  0  0  0  0  0  0  0  0  0  0  0
  1  7  2  0  0  0  0
  1  2  1  0  0  0  0
  2  3  1  0  0  0  0
  2  4  2  0  0  0  0
  4  5  1  0  0  0  0
  5  6  2  0  0  0  0
  5 11  1  0  0  0  0
  6  7  1  0  0  0  0
  6  9  1  0  0  0  0
  7  8  1  0  0  0  0
  9 10  1  0  0  0  0
 10 11  2  0  0  0  0
M  END
>  <CHROM.1>
-11.41169934,-13.34532727,7.24372811,2.02504078,-1.26150362,2.13969967

>  <Name>
ligand

>  <RI>
0

>  <Rbt.Current_Directory>
/home/itssahil/PROJECTS/Mol_Feturizer/New_Systems/rnas/2b57

>  <Rbt.Executable>
rbdock ($Id: //depot/dev/client3/rdock/2013.1/src/exe/rbdock.cxx#4 $)

>  <Rbt.Library>
libRbt.so (2013.1, Build901 2013/11/27)

>  <Rbt.Parameter_File>
/export/apps/rDock/src/rDock_2013.1_src/data/scripts/dock_solv.prm

>  <Rbt.Receptor>
prm/pocket_docking_7.prm

>  <SCORE>
-11.5451

>  <SCORE.INTER>
-11.5451

>  <SCORE.INTER.CONST>
1

>  <SCORE.INTER.POLAR>
0

>  <SCORE.INTER.ROT>
0

>  <SCORE.INTER.SOLV>
21.6371

>  <SCORE.INTER.VDW>
-18.5091

>  <SCORE.INTER.norm>
-1.04955

>  <SCORE.INTRA>
0

>  <SCORE.INTRA.DIHEDRAL>
0

>  <SCORE.INTRA.DIHEDRAL.0>
0

>  <SCORE.INTRA.POLAR>
0

>  <SCORE.INTRA.POLAR.0>
0

>  <SCORE.INTRA.REPUL>
0

>  <SCORE.INTRA.REPUL.0>
0

>  <SCORE.INTRA.SOLV>
0

>  <SCORE.INTRA.SOLV.lig_0>
-48.3454

>  <SCORE.INTRA.VDW>
0

>  <SCORE.INTRA.VDW.0>
0

>  <SCORE.INTRA.norm>
0

>  <SCORE.RESTR>
0

>  <SCORE.RESTR.CAVITY>
0

>  <SCORE.RESTR.norm>
0

>  <SCORE.SYSTEM>
0

>  <SCORE.SYSTEM.CONST>
0

>  <SCORE.SYSTEM.DIHEDRAL>
0

>  <SCORE.SYSTEM.SOLV>
0

>  <SCORE.SYSTEM.norm>
0

>  <SCORE.heavy>
11

>  <SCORE.norm>
-1.04955

>  <RMSD>
0.621

$$$$
ligand
 OpenBabel01301917033D
libRbt.so/2013.1/901 2013/11/27
 11 12  0  0  0  0  0  0  0  0999 V2000
  -11.8493  -12.7683    8.8432 N   0  0  0  0  0  0  0  0  0  0  0  0
  -11.5154  -14.0658    8.9304 C   0  0  0  0  0  0  0  0  0  0  0  0
  -11.5381  -14.6756   10.1122 N   0  0  0  0  0  0  0  0  0  0  0  0
  -11.1485  -14.7512    7.8365 N   0  0  0  0  0  0  0  0  0  0  0  0
  -11.1053  -14.1535    6.6366 C   0  0  0  0  0  0  0  0  0  0  0  0
  -11.4458  -12.8119    6.5184 C   0  0  0  0  0  0  0  0  0  0  0  0
  -11.8251  -12.1236    7.6660 C   0  0  0  0  0  0  0  0  0  0  0  0
  -12.1683  -10.8408    7.5969 N   0  0  0  0  0  0  0  0  0  0  0  0
  -11.3038  -12.4741    5.2403 N   0  0  0  0  0  0  0  0  0  0  0  0
  -10.8914  -13.5524    4.5774 C   0  0  0  0  0  0  0  0  0  0  0  0
  -10.7697  -14.5753    5.4208 N   0  0  0  0  0  0  0  0  0  0  0  0
  1  7  2  0  0  0  0
  1  2  1  0  0  0  0
  2  3  1  0  0  0  0
  2  4  2  0  0  0  0
  4  5  1  0  0  0  0
  5  6  2  0  0  0  0
  5 11  1  0  0  0  0
  6  7  1  0  0  0  0
  6  9  1  0  0  0  0
  7  8  1  0  0  0  0
  9 10  1  0  0  0  0
 10 11  2  0  0  0  0
M  END
>  <CHROM.1>
-11.41864261,-13.34500032,7.24052074,2.01773730,-1.25853526,2.13434038

>  <Name>
ligand

>  <RI>
0

>  <Rbt.Current_Directory>
/home/itssahil/PROJECTS/Mol_Feturizer/New_Systems/rnas/2b57

>  <Rbt.Executable>
rbdock ($Id: //depot/dev/client3/rdock/2013.1/src/exe/rbdock.cxx#4 $)

>  <Rbt.Library>
libRbt.so (2013.1, Build901 2013/11/27)

>  <Rbt.Parameter_File>
/export/apps/rDock/src/rDock_2013.1_src/data/scripts/dock_solv.prm

>  <Rbt.Receptor>
prm/pocket_docking_4.prm

>  <SCORE>
-11.5511

>  <SCORE.INTER>
-11.5511

>  <SCORE.INTER.CONST>
1

>  <SCORE.INTER.POLAR>
0

>  <SCORE.INTER.ROT>
0

>  <SCORE.INTER.SOLV>
21.5802

>  <SCORE.INTER.VDW>
-18.4942

>  <SCORE.INTER.norm>
-1.0501

>  <SCORE.INTRA>
0

>  <SCORE.INTRA.DIHEDRAL>
0

>  <SCORE.INTRA.DIHEDRAL.0>
0

>  <SCORE.INTRA.POLAR>
0

>  <SCORE.INTRA.POLAR.0>
0

>  <SCORE.INTRA.REPUL>
0

>  <SCORE.INTRA.REPUL.0>
0

>  <SCORE.INTRA.SOLV>
0

>  <SCORE.INTRA.SOLV.lig_0>
-48.3454

>  <SCORE.INTRA.VDW>
0

>  <SCORE.INTRA.VDW.0>
0

>  <SCORE.INTRA.norm>
0

>  <SCORE.RESTR>
0

>  <SCORE.RESTR.CAVITY>
0

>  <SCORE.RESTR.norm>
0

>  <SCORE.SYSTEM>
0

>  <SCORE.SYSTEM.CONST>
0

>  <SCORE.SYSTEM.DIHEDRAL>
0

>  <SCORE.SYSTEM.SOLV>
0

>  <SCORE.SYSTEM.norm>
0

>  <SCORE.heavy>
11

>  <SCORE.norm>
-1.0501

>  <RMSD>
0.622

$$$$
ligand
 OpenBabel01301917033D
libRbt.so/2013.1/901 2013/11/27
 11 12  0  0  0  0  0  0  0  0999 V2000
  -11.8210  -12.7772    8.8542 N   0  0  0  0  0  0  0  0  0  0  0  0
  -11.5196  -14.0818    8.9536 C   0  0  0  0  0  0  0  0  0  0  0  0
  -11.5686  -14.6825   10.1393 N   0  0  0  0  0  0  0  0  0  0  0  0
  -11.1590  -14.7837    7.8681 N   0  0  0  0  0  0  0  0  0  0  0  0
  -11.0896  -14.1958    6.6646 C   0  0  0  0  0  0  0  0  0  0  0  0
  -11.3961  -12.8472    6.5339 C   0  0  0  0  0  0  0  0  0  0  0  0
  -11.7696  -12.1417    7.6729 C   0  0  0  0  0  0  0  0  0  0  0  0
  -12.0807  -10.8514    7.5916 N   0  0  0  0  0  0  0  0  0  0  0  0
  -11.2335  -12.5221    5.2549 N   0  0  0  0  0  0  0  0  0  0  0  0
  -10.8411  -13.6147    4.6036 C   0  0  0  0  0  0  0  0  0  0  0  0
  -10.7526  -14.6342    5.4551 N   0  0  0  0  0  0  0  0  0  0  0  0
  1  7  2  0  0  0  0
  1  2  1  0  0  0  0
  2  3  1  0  0  0  0
  2  4  2  0  0  0  0
  4  5  1  0  0  0  0
  5  6  2  0  0  0  0
  5 11  1  0  0  0  0
  6  7  1  0  0  0  0
  6  9  1  0  0  0  0
  7  8  1  0  0  0  0
  9 10  1  0  0  0  0
 10 11  2  0  0  0  0
M  END
>  <CHROM.1>
-11.38893406,-13.37563849,7.25985453,2.09022426,-1.27324022,2.19649703

>  <Name>
ligand

>  <RI>
0

>  <Rbt.Current_Directory>
/home/itssahil/PROJECTS/Mol_Feturizer/New_Systems/rnas/2b57

>  <Rbt.Executable>
rbdock ($Id: //depot/dev/client3/rdock/2013.1/src/exe/rbdock.cxx#4 $)

>  <Rbt.Library>
libRbt.so (2013.1, Build901 2013/11/27)

>  <Rbt.Parameter_File>
/export/apps/rDock/src/rDock_2013.1_src/data/scripts/dock_solv.prm

>  <Rbt.Receptor>
prm/pocket_docking_4.prm

>  <SCORE>
-11.4138

>  <SCORE.INTER>
-11.4138

>  <SCORE.INTER.CONST>
1

>  <SCORE.INTER.POLAR>
0

>  <SCORE.INTER.ROT>
0

>  <SCORE.INTER.SOLV>
21.9155

>  <SCORE.INTER.VDW>
-18.5144

>  <SCORE.INTER.norm>
-1.03762

>  <SCORE.INTRA>
0

>  <SCORE.INTRA.DIHEDRAL>
0

>  <SCORE.INTRA.DIHEDRAL.0>
0

>  <SCORE.INTRA.POLAR>
0

>  <SCORE.INTRA.POLAR.0>
0

>  <SCORE.INTRA.REPUL>
0

>  <SCORE.INTRA.REPUL.0>
0

>  <SCORE.INTRA.SOLV>
0

>  <SCORE.INTRA.SOLV.lig_0>
-48.3454

>  <SCORE.INTRA.VDW>
0

>  <SCORE.INTRA.VDW.0>
0

>  <SCORE.INTRA.norm>
0

>  <SCORE.RESTR>
0

>  <SCORE.RESTR.CAVITY>
0

>  <SCORE.RESTR.norm>
0

>  <SCORE.SYSTEM>
0

>  <SCORE.SYSTEM.CONST>
0

>  <SCORE.SYSTEM.DIHEDRAL>
0

>  <SCORE.SYSTEM.SOLV>
0

>  <SCORE.SYSTEM.norm>
0

>  <SCORE.heavy>
11

>  <SCORE.norm>
-1.03762

>  <RMSD>
0.623

$$$$
ligand
 OpenBabel01301917033D
libRbt.so/2013.1/901 2013/11/27
 11 12  0  0  0  0  0  0  0  0999 V2000
  -11.8391  -12.7254    8.8385 N   0  0  0  0  0  0  0  0  0  0  0  0
  -11.4787  -14.0168    8.9105 C   0  0  0  0  0  0  0  0  0  0  0  0
  -11.4844  -14.6395   10.0858 N   0  0  0  0  0  0  0  0  0  0  0  0
  -11.1023  -14.6829    7.8079 N   0  0  0  0  0  0  0  0  0  0  0  0
  -11.0759  -14.0717    6.6144 C   0  0  0  0  0  0  0  0  0  0  0  0
  -11.4438  -12.7361    6.5119 C   0  0  0  0  0  0  0  0  0  0  0  0
  -11.8326  -12.0678    7.6682 C   0  0  0  0  0  0  0  0  0  0  0  0
  -12.2018  -10.7916    7.6142 N   0  0  0  0  0  0  0  0  0  0  0  0
  -11.3137  -12.3818    5.2369 N   0  0  0  0  0  0  0  0  0  0  0  0
  -10.8822  -13.4443    4.5610 C   0  0  0  0  0  0  0  0  0  0  0  0
  -10.7365  -14.4735    5.3929 N   0  0  0  0  0  0  0  0  0  0  0  0
  1  7  2  0  0  0  0
  1  2  1  0  0  0  0
  2  3  1  0  0  0  0
  2  4  2  0  0  0  0
  4  5  1  0  0  0  0
  5  6  2  0  0  0  0
  5 11  1  0  0  0  0
  6  7  1  0  0  0  0
  6  9  1  0  0  0  0
  7  8  1  0  0  0  0
  9 10  1  0  0  0  0
 10 11  2  0  0  0  0
M  END
>  <CHROM.1>
-11.40309554,-13.27616738,7.22812936,1.97393577,-1.24323022,2.10347790

>  <Name>
ligand

>  <RI>
0

>  <Rbt.Current_Directory>
/home/itssahil/PROJECTS/Mol_Feturizer/New_Systems/rnas/2b57

>  <Rbt.Executable>
rbdock ($Id: //depot/dev/client3/rdock/2013.1/src/exe/rbdock.cxx#4 $)

>  <Rbt.Library>
libRbt.so (2013.1, Build901 2013/11/27)

>  <Rbt.Parameter_File>
/export/apps/rDock/src/rDock_2013.1_src/data/scripts/dock_solv.prm

>  <Rbt.Receptor>
prm/pocket_docking_8.prm

>  <SCORE>
-11.4617

>  <SCORE.INTER>
-11.4617

>  <SCORE.INTER.CONST>
1

>  <SCORE.INTER.POLAR>
0

>  <SCORE.INTER.ROT>
0

>  <SCORE.INTER.SOLV>
21.4761

>  <SCORE.INTER.VDW>
-18.3999

>  <SCORE.INTER.norm>
-1.04197

>  <SCORE.INTRA>
0

>  <SCORE.INTRA.DIHEDRAL>
0

>  <SCORE.INTRA.DIHEDRAL.0>
0

>  <SCORE.INTRA.POLAR>
0

>  <SCORE.INTRA.POLAR.0>
0

>  <SCORE.INTRA.REPUL>
0

>  <SCORE.INTRA.REPUL.0>
0

>  <SCORE.INTRA.SOLV>
0

>  <SCORE.INTRA.SOLV.lig_0>
-48.3454

>  <SCORE.INTRA.VDW>
0

>  <SCORE.INTRA.VDW.0>
0

>  <SCORE.INTRA.norm>
0

>  <SCORE.RESTR>
0

>  <SCORE.RESTR.CAVITY>
0

>  <SCORE.RESTR.norm>
0

>  <SCORE.SYSTEM>
0

>  <SCORE.SYSTEM.CONST>
0

>  <SCORE.SYSTEM.DIHEDRAL>
0

>  <SCORE.SYSTEM.SOLV>
0

>  <SCORE.SYSTEM.norm>
0

>  <SCORE.heavy>
11

>  <SCORE.norm>
-1.04197

>  <RMSD>
0.623

$$$$
ligand
 OpenBabel01301917033D
libRbt.so/2013.1/901 2013/11/27
 11 12  0  0  0  0  0  0  0  0999 V2000
  -11.8385  -12.7637    8.8390 N   0  0  0  0  0  0  0  0  0  0  0  0
  -11.5076  -14.0615    8.9335 C   0  0  0  0  0  0  0  0  0  0  0  0
  -11.5369  -14.6660   10.1179 N   0  0  0  0  0  0  0  0  0  0  0  0
  -11.1373  -14.7526    7.8443 N   0  0  0  0  0  0  0  0  0  0  0  0
  -11.0876  -14.1604    6.6419 C   0  0  0  0  0  0  0  0  0  0  0  0
  -11.4247  -12.8187    6.5162 C   0  0  0  0  0  0  0  0  0  0  0  0
  -11.8077  -12.1244    7.6590 C   0  0  0  0  0  0  0  0  0  0  0  0
  -12.1479  -10.8412    7.5826 N   0  0  0  0  0  0  0  0  0  0  0  0
  -11.2763  -12.4870    5.2372 N   0  0  0  0  0  0  0  0  0  0  0  0
  -10.8633  -13.5690    4.5810 C   0  0  0  0  0  0  0  0  0  0  0  0
  -10.7474  -14.5884    5.4296 N   0  0  0  0  0  0  0  0  0  0  0  0
  1  7  2  0  0  0  0
  1  2  1  0  0  0  0
  2  3  1  0  0  0  0
  2  4  2  0  0  0  0
  4  5  1  0  0  0  0
  5  6  2  0  0  0  0
  5 11  1  0  0  0  0
  6  7  1  0  0  0  0
  6  9  1  0  0  0  0
  7  8  1  0  0  0  0
  9 10  1  0  0  0  0
 10 11  2  0  0  0  0
M  END
>  <CHROM.1>
-11.40186734,-13.34856078,7.24082601,2.03357597,-1.25787961,2.14490659

>  <Name>
ligand

>  <RI>
0

>  <Rbt.Current_Directory>
/home/itssahil/PROJECTS/Mol_Feturizer/New_Systems/rnas/2b57

>  <Rbt.Executable>
rbdock ($Id: //depot/dev/client3/rdock/2013.1/src/exe/rbdock.cxx#4 $)

>  <Rbt.Library>
libRbt.so (2013.1, Build901 2013/11/27)

>  <Rbt.Parameter_File>
/export/apps/rDock/src/rDock_2013.1_src/data/scripts/dock_solv.prm

>  <Rbt.Receptor>
prm/pocket_docking_4.prm

>  <SCORE>
-11.5407

>  <SCORE.INTER>
-11.5407

>  <SCORE.INTER.CONST>
1

>  <SCORE.INTER.POLAR>
0

>  <SCORE.INTER.ROT>
0

>  <SCORE.INTER.SOLV>
21.6316

>  <SCORE.INTER.VDW>
-18.5044

>  <SCORE.INTER.norm>
-1.04916

>  <SCORE.INTRA>
0

>  <SCORE.INTRA.DIHEDRAL>
0

>  <SCORE.INTRA.DIHEDRAL.0>
0

>  <SCORE.INTRA.POLAR>
0

>  <SCORE.INTRA.POLAR.0>
0

>  <SCORE.INTRA.REPUL>
0

>  <SCORE.INTRA.REPUL.0>
0

>  <SCORE.INTRA.SOLV>
0

>  <SCORE.INTRA.SOLV.lig_0>
-48.3454

>  <SCORE.INTRA.VDW>
0

>  <SCORE.INTRA.VDW.0>
0

>  <SCORE.INTRA.norm>
0

>  <SCORE.RESTR>
0

>  <SCORE.RESTR.CAVITY>
0

>  <SCORE.RESTR.norm>
0

>  <SCORE.SYSTEM>
0

>  <SCORE.SYSTEM.CONST>
0

>  <SCORE.SYSTEM.DIHEDRAL>
0

>  <SCORE.SYSTEM.SOLV>
0

>  <SCORE.SYSTEM.norm>
0

>  <SCORE.heavy>
11

>  <SCORE.norm>
-1.04916

>  <RMSD>
0.626

$$$$
ligand
 OpenBabel01301917033D
libRbt.so/2013.1/901 2013/11/27
 11 12  0  0  0  0  0  0  0  0999 V2000
  -11.8405  -12.7402    8.8349 N   0  0  0  0  0  0  0  0  0  0  0  0
  -11.4927  -14.0347    8.9125 C   0  0  0  0  0  0  0  0  0  0  0  0
  -11.5145  -14.6552   10.0887 N   0  0  0  0  0  0  0  0  0  0  0  0
  -11.1130  -14.7064    7.8144 N   0  0  0  0  0  0  0  0  0  0  0  0
  -11.0705  -14.0977    6.6200 C   0  0  0  0  0  0  0  0  0  0  0  0
  -11.4251  -12.7590    6.5119 C   0  0  0  0  0  0  0  0  0  0  0  0
  -11.8176  -12.0849    7.6636 C   0  0  0  0  0  0  0  0  0  0  0  0
  -12.1745  -10.8054    7.6040 N   0  0  0  0  0  0  0  0  0  0  0  0
  -11.2806  -12.4084    5.2375 N   0  0  0  0  0  0  0  0  0  0  0  0
  -10.8532  -13.4762    4.5673 C   0  0  0  0  0  0  0  0  0  0  0  0
  -10.7243  -14.5051    5.4023 N   0  0  0  0  0  0  0  0  0  0  0  0
  1  7  2  0  0  0  0
  1  2  1  0  0  0  0
  2  3  1  0  0  0  0
  2  4  2  0  0  0  0
  4  5  1  0  0  0  0
  5  6  2  0  0  0  0
  5 11  1  0  0  0  0
  6  7  1  0  0  0  0
  6  9  1  0  0  0  0
  7  8  1  0  0  0  0
  9 10  1  0  0  0  0
 10 11  2  0  0  0  0
M  END
>  <CHROM.1>
-11.39563364,-13.29806343,7.22944166,2.01232531,-1.24663164,2.13798440

>  <Name>
ligand

>  <RI>
0

>  <Rbt.Current_Directory>
/home/itssahil/PROJECTS/Mol_Feturizer/New_Systems/rnas/2b57

>  <Rbt.Executable>
rbdock ($Id: //depot/dev/client3/rdock/2013.1/src/exe/rbdock.cxx#4 $)

>  <Rbt.Library>
libRbt.so (2013.1, Build901 2013/11/27)

>  <Rbt.Parameter_File>
/export/apps/rDock/src/rDock_2013.1_src/data/scripts/dock_solv.prm

>  <Rbt.Receptor>
prm/pocket_docking_7.prm

>  <SCORE>
-11.4672

>  <SCORE.INTER>
-11.4672

>  <SCORE.INTER.CONST>
1

>  <SCORE.INTER.POLAR>
0

>  <SCORE.INTER.ROT>
0

>  <SCORE.INTER.SOLV>
21.5553

>  <SCORE.INTER.VDW>
-18.4299

>  <SCORE.INTER.norm>
-1.04248

>  <SCORE.INTRA>
0

>  <SCORE.INTRA.DIHEDRAL>
0

>  <SCORE.INTRA.DIHEDRAL.0>
0

>  <SCORE.INTRA.POLAR>
0

>  <SCORE.INTRA.POLAR.0>
0

>  <SCORE.INTRA.REPUL>
0

>  <SCORE.INTRA.REPUL.0>
0

>  <SCORE.INTRA.SOLV>
0

>  <SCORE.INTRA.SOLV.lig_0>
-48.3454

>  <SCORE.INTRA.VDW>
0

>  <SCORE.INTRA.VDW.0>
0

>  <SCORE.INTRA.norm>
0

>  <SCORE.RESTR>
0

>  <SCORE.RESTR.CAVITY>
0

>  <SCORE.RESTR.norm>
0

>  <SCORE.SYSTEM>
0

>  <SCORE.SYSTEM.CONST>
0

>  <SCORE.SYSTEM.DIHEDRAL>
0

>  <SCORE.SYSTEM.SOLV>
0

>  <SCORE.SYSTEM.norm>
0

>  <SCORE.heavy>
11

>  <SCORE.norm>
-1.04248

>  <RMSD>
0.626

$$$$
ligand
 OpenBabel01301917033D
libRbt.so/2013.1/901 2013/11/27
 11 12  0  0  0  0  0  0  0  0999 V2000
  -11.8802  -12.7897    8.8308 N   0  0  0  0  0  0  0  0  0  0  0  0
  -11.5340  -14.0829    8.9330 C   0  0  0  0  0  0  0  0  0  0  0  0
  -11.5719  -14.6850   10.1183 N   0  0  0  0  0  0  0  0  0  0  0  0
  -11.1398  -14.7716    7.8507 N   0  0  0  0  0  0  0  0  0  0  0  0
  -11.0811  -14.1814    6.6477 C   0  0  0  0  0  0  0  0  0  0  0  0
  -11.4336  -12.8444    6.5142 C   0  0  0  0  0  0  0  0  0  0  0  0
  -11.8413  -12.1526    7.6499 C   0  0  0  0  0  0  0  0  0  0  0  0
  -12.1968  -10.8740    7.5658 N   0  0  0  0  0  0  0  0  0  0  0  0
  -11.2718  -12.5136    5.2365 N   0  0  0  0  0  0  0  0  0  0  0  0
  -10.8359  -13.5917    4.5887 C   0  0  0  0  0  0  0  0  0  0  0  0
  -10.7187  -14.6076    5.4412 N   0  0  0  0  0  0  0  0  0  0  0  0
  1  7  2  0  0  0  0
  1  2  1  0  0  0  0
  2  3  1  0  0  0  0
  2  4  2  0  0  0  0
  4  5  1  0  0  0  0
  5  6  2  0  0  0  0
  5 11  1  0  0  0  0
  6  7  1  0  0  0  0
  6  9  1  0  0  0  0
  7  8  1  0  0  0  0
  9 10  1  0  0  0  0
 10 11  2  0  0  0  0
M  END
>  <CHROM.1>
-11.41400235,-13.37234438,7.24026536,2.04786939,-1.23955965,2.15617545

>  <Name>
ligand

>  <RI>
0

>  <Rbt.Current_Directory>
/home/itssahil/PROJECTS/Mol_Feturizer/New_Systems/rnas/2b57

>  <Rbt.Executable>
rbdock ($Id: //depot/dev/client3/rdock/2013.1/src/exe/rbdock.cxx#4 $)

>  <Rbt.Library>
libRbt.so (2013.1, Build901 2013/11/27)

>  <Rbt.Parameter_File>
/export/apps/rDock/src/rDock_2013.1_src/data/scripts/dock_solv.prm

>  <Rbt.Receptor>
prm/pocket_docking_3.prm

>  <SCORE>
-11.4847

>  <SCORE.INTER>
-11.4847

>  <SCORE.INTER.CONST>
1

>  <SCORE.INTER.POLAR>
0

>  <SCORE.INTER.ROT>
0

>  <SCORE.INTER.SOLV>
21.4627

>  <SCORE.INTER.VDW>
-18.4107

>  <SCORE.INTER.norm>
-1.04406

>  <SCORE.INTRA>
0

>  <SCORE.INTRA.DIHEDRAL>
0

>  <SCORE.INTRA.DIHEDRAL.0>
0

>  <SCORE.INTRA.POLAR>
0

>  <SCORE.INTRA.POLAR.0>
0

>  <SCORE.INTRA.REPUL>
0

>  <SCORE.INTRA.REPUL.0>
0

>  <SCORE.INTRA.SOLV>
0

>  <SCORE.INTRA.SOLV.lig_0>
-48.3454

>  <SCORE.INTRA.VDW>
0

>  <SCORE.INTRA.VDW.0>
0

>  <SCORE.INTRA.norm>
0

>  <SCORE.RESTR>
0

>  <SCORE.RESTR.CAVITY>
0

>  <SCORE.RESTR.norm>
0

>  <SCORE.SYSTEM>
0

>  <SCORE.SYSTEM.CONST>
0

>  <SCORE.SYSTEM.DIHEDRAL>
0

>  <SCORE.SYSTEM.SOLV>
0

>  <SCORE.SYSTEM.norm>
0

>  <SCORE.heavy>
11

>  <SCORE.norm>
-1.04406

>  <RMSD>
0.627

$$$$
ligand
 OpenBabel01301917033D
libRbt.so/2013.1/901 2013/11/27
 11 12  0  0  0  0  0  0  0  0999 V2000
  -11.8531  -12.7701    8.8386 N   0  0  0  0  0  0  0  0  0  0  0  0
  -11.4981  -14.0631    8.9087 C   0  0  0  0  0  0  0  0  0  0  0  0
  -11.5195  -14.6912   10.0809 N   0  0  0  0  0  0  0  0  0  0  0  0
  -11.1114  -14.7255    7.8074 N   0  0  0  0  0  0  0  0  0  0  0  0
  -11.0692  -14.1088    6.6171 C   0  0  0  0  0  0  0  0  0  0  0  0
  -11.4313  -12.7715    6.5166 C   0  0  0  0  0  0  0  0  0  0  0  0
  -11.8309  -12.1072    7.6715 C   0  0  0  0  0  0  0  0  0  0  0  0
  -12.1950  -10.8294    7.6192 N   0  0  0  0  0  0  0  0  0  0  0  0
  -11.2853  -12.4119    5.2449 N   0  0  0  0  0  0  0  0  0  0  0  0
  -10.8499  -13.4728    4.5690 C   0  0  0  0  0  0  0  0  0  0  0  0
  -10.7173  -14.5063    5.3977 N   0  0  0  0  0  0  0  0  0  0  0  0
  1  7  2  0  0  0  0
  1  2  1  0  0  0  0
  2  3  1  0  0  0  0
  2  4  2  0  0  0  0
  4  5  1  0  0  0  0
  5  6  2  0  0  0  0
  5 11  1  0  0  0  0
  6  7  1  0  0  0  0
  6  9  1  0  0  0  0
  7  8  1  0  0  0  0
  9 10  1  0  0  0  0
 10 11  2  0  0  0  0
M  END
>  <CHROM.1>
-11.40066121,-13.31500816,7.23074681,2.00981512,-1.24025566,2.14203893

>  <Name>
ligand

>  <RI>
0

>  <Rbt.Current_Directory>
/home/itssahil/PROJECTS/Mol_Feturizer/New_Systems/rnas/2b57

>  <Rbt.Executable>
rbdock ($Id: //depot/dev/client3/rdock/2013.1/src/exe/rbdock.cxx#4 $)

>  <Rbt.Library>
libRbt.so (2013.1, Build901 2013/11/27)

>  <Rbt.Parameter_File>
/export/apps/rDock/src/rDock_2013.1_src/data/scripts/dock_solv.prm

>  <Rbt.Receptor>
prm/pocket_docking_5.prm

>  <SCORE>
-11.4713

>  <SCORE.INTER>
-11.4713

>  <SCORE.INTER.CONST>
1

>  <SCORE.INTER.POLAR>
0

>  <SCORE.INTER.ROT>
0

>  <SCORE.INTER.SOLV>
21.5172

>  <SCORE.INTER.VDW>
-18.4199

>  <SCORE.INTER.norm>
-1.04284

>  <SCORE.INTRA>
0

>  <SCORE.INTRA.DIHEDRAL>
0

>  <SCORE.INTRA.DIHEDRAL.0>
0

>  <SCORE.INTRA.POLAR>
0

>  <SCORE.INTRA.POLAR.0>
0

>  <SCORE.INTRA.REPUL>
0

>  <SCORE.INTRA.REPUL.0>
0

>  <SCORE.INTRA.SOLV>
0

>  <SCORE.INTRA.SOLV.lig_0>
-48.3454

>  <SCORE.INTRA.VDW>
0

>  <SCORE.INTRA.VDW.0>
0

>  <SCORE.INTRA.norm>
0

>  <SCORE.RESTR>
0

>  <SCORE.RESTR.CAVITY>
0

>  <SCORE.RESTR.norm>
0

>  <SCORE.SYSTEM>
0

>  <SCORE.SYSTEM.CONST>
0

>  <SCORE.SYSTEM.DIHEDRAL>
0

>  <SCORE.SYSTEM.SOLV>
0

>  <SCORE.SYSTEM.norm>
0

>  <SCORE.heavy>
11

>  <SCORE.norm>
-1.04284

>  <RMSD>
0.627

$$$$
ligand
 OpenBabel01301917033D
libRbt.so/2013.1/901 2013/11/27
 11 12  0  0  0  0  0  0  0  0999 V2000
  -11.8394  -12.7403    8.8339 N   0  0  0  0  0  0  0  0  0  0  0  0
  -11.4923  -14.0350    8.9124 C   0  0  0  0  0  0  0  0  0  0  0  0
  -11.5116  -14.6538   10.0895 N   0  0  0  0  0  0  0  0  0  0  0  0
  -11.1156  -14.7084    7.8143 N   0  0  0  0  0  0  0  0  0  0  0  0
  -11.0756  -14.1013    6.6190 C   0  0  0  0  0  0  0  0  0  0  0  0
  -11.4295  -12.7625    6.5099 C   0  0  0  0  0  0  0  0  0  0  0  0
  -11.8188  -12.0866    7.6616 C   0  0  0  0  0  0  0  0  0  0  0  0
  -12.1750  -10.8069    7.6012 N   0  0  0  0  0  0  0  0  0  0  0  0
  -11.2878  -12.4137    5.2347 N   0  0  0  0  0  0  0  0  0  0  0  0
  -10.8627  -13.4826    4.5649 C   0  0  0  0  0  0  0  0  0  0  0  0
  -10.7325  -14.5105    5.4010 N   0  0  0  0  0  0  0  0  0  0  0  0
  1  7  2  0  0  0  0
  1  2  1  0  0  0  0
  2  3  1  0  0  0  0
  2  4  2  0  0  0  0
  4  5  1  0  0  0  0
  5  6  2  0  0  0  0
  5 11  1  0  0  0  0
  6  7  1  0  0  0  0
  6  9  1  0  0  0  0
  7  8  1  0  0  0  0
  9 10  1  0  0  0  0
 10 11  2  0  0  0  0
M  END
>  <CHROM.1>
-11.39870511,-13.30060809,7.22811448,2.00707489,-1.24846048,2.13167059

>  <Name>
ligand

>  <RI>
0

>  <Rbt.Current_Directory>
/home/itssahil/PROJECTS/Mol_Feturizer/New_Systems/rnas/2b57

>  <Rbt.Executable>
rbdock ($Id: //depot/dev/client3/rdock/2013.1/src/exe/rbdock.cxx#4 $)

>  <Rbt.Library>
libRbt.so (2013.1, Build901 2013/11/27)

>  <Rbt.Parameter_File>
/export/apps/rDock/src/rDock_2013.1_src/data/scripts/dock_solv.prm

>  <Rbt.Receptor>
prm/pocket_docking_5.prm

>  <SCORE>
-11.467

>  <SCORE.INTER>
-11.467

>  <SCORE.INTER.CONST>
1

>  <SCORE.INTER.POLAR>
0

>  <SCORE.INTER.ROT>
0

>  <SCORE.INTER.SOLV>
21.5525

>  <SCORE.INTER.VDW>
-18.4289

>  <SCORE.INTER.norm>
-1.04246

>  <SCORE.INTRA>
0

>  <SCORE.INTRA.DIHEDRAL>
0

>  <SCORE.INTRA.DIHEDRAL.0>
0

>  <SCORE.INTRA.POLAR>
0

>  <SCORE.INTRA.POLAR.0>
0

>  <SCORE.INTRA.REPUL>
0

>  <SCORE.INTRA.REPUL.0>
0

>  <SCORE.INTRA.SOLV>
0

>  <SCORE.INTRA.SOLV.lig_0>
-48.3454

>  <SCORE.INTRA.VDW>
0

>  <SCORE.INTRA.VDW.0>
0

>  <SCORE.INTRA.norm>
0

>  <SCORE.RESTR>
0

>  <SCORE.RESTR.CAVITY>
0

>  <SCORE.RESTR.norm>
0

>  <SCORE.SYSTEM>
0

>  <SCORE.SYSTEM.CONST>
0

>  <SCORE.SYSTEM.DIHEDRAL>
0

>  <SCORE.SYSTEM.SOLV>
0

>  <SCORE.SYSTEM.norm>
0

>  <SCORE.heavy>
11

>  <SCORE.norm>
-1.04246

>  <RMSD>
0.627

$$$$
ligand
 OpenBabel01301917033D
libRbt.so/2013.1/901 2013/11/27
 11 12  0  0  0  0  0  0  0  0999 V2000
  -11.8266  -12.7578    8.8397 N   0  0  0  0  0  0  0  0  0  0  0  0
  -11.4856  -14.0534    8.9279 C   0  0  0  0  0  0  0  0  0  0  0  0
  -11.4949  -14.6597   10.1117 N   0  0  0  0  0  0  0  0  0  0  0  0
  -11.1250  -14.7404    7.8328 N   0  0  0  0  0  0  0  0  0  0  0  0
  -11.0953  -14.1462    6.6308 C   0  0  0  0  0  0  0  0  0  0  0  0
  -11.4433  -12.8067    6.5115 C   0  0  0  0  0  0  0  0  0  0  0  0
  -11.8159  -12.1166    7.6604 C   0  0  0  0  0  0  0  0  0  0  0  0
  -12.1658  -10.8357    7.5904 N   0  0  0  0  0  0  0  0  0  0  0  0
  -11.3142  -12.4722    5.2312 N   0  0  0  0  0  0  0  0  0  0  0  0
  -10.9025  -13.5505    4.5680 C   0  0  0  0  0  0  0  0  0  0  0  0
  -10.7684  -14.5702    5.4134 N   0  0  0  0  0  0  0  0  0  0  0  0
  1  7  2  0  0  0  0
  1  2  1  0  0  0  0
  2  3  1  0  0  0  0
  2  4  2  0  0  0  0
  4  5  1  0  0  0  0
  5  6  2  0  0  0  0
  5 11  1  0  0  0  0
  6  7  1  0  0  0  0
  6  9  1  0  0  0  0
  7  8  1  0  0  0  0
  9 10  1  0  0  0  0
 10 11  2  0  0  0  0
M  END
>  <CHROM.1>
-11.40721356,-13.33740135,7.23500758,1.98502576,-1.25898321,2.10013525

>  <Name>
ligand

>  <RI>
0

>  <Rbt.Current_Directory>
/home/itssahil/PROJECTS/Mol_Feturizer/New_Systems/rnas/2b57

>  <Rbt.Executable>
rbdock ($Id: //depot/dev/client3/rdock/2013.1/src/exe/rbdock.cxx#4 $)

>  <Rbt.Library>
libRbt.so (2013.1, Build901 2013/11/27)

>  <Rbt.Parameter_File>
/export/apps/rDock/src/rDock_2013.1_src/data/scripts/dock_solv.prm

>  <Rbt.Receptor>
prm/pocket_docking_6.prm

>  <SCORE>
-11.4913

>  <SCORE.INTER>
-11.4913

>  <SCORE.INTER.CONST>
1

>  <SCORE.INTER.POLAR>
0

>  <SCORE.INTER.ROT>
0

>  <SCORE.INTER.SOLV>
21.5735

>  <SCORE.INTER.VDW>
-18.452

>  <SCORE.INTER.norm>
-1.04466

>  <SCORE.INTRA>
0

>  <SCORE.INTRA.DIHEDRAL>
0

>  <SCORE.INTRA.DIHEDRAL.0>
0

>  <SCORE.INTRA.POLAR>
0

>  <SCORE.INTRA.POLAR.0>
0

>  <SCORE.INTRA.REPUL>
0

>  <SCORE.INTRA.REPUL.0>
0

>  <SCORE.INTRA.SOLV>
0

>  <SCORE.INTRA.SOLV.lig_0>
-48.3454

>  <SCORE.INTRA.VDW>
0

>  <SCORE.INTRA.VDW.0>
0

>  <SCORE.INTRA.norm>
0

>  <SCORE.RESTR>
0

>  <SCORE.RESTR.CAVITY>
0

>  <SCORE.RESTR.norm>
0

>  <SCORE.SYSTEM>
0

>  <SCORE.SYSTEM.CONST>
0

>  <SCORE.SYSTEM.DIHEDRAL>
0

>  <SCORE.SYSTEM.SOLV>
0

>  <SCORE.SYSTEM.norm>
0

>  <SCORE.heavy>
11

>  <SCORE.norm>
-1.04466

>  <RMSD>
0.629

$$$$
ligand
 OpenBabel01301917033D
libRbt.so/2013.1/901 2013/11/27
 11 12  0  0  0  0  0  0  0  0999 V2000
  -11.9268  -12.7053    8.8088 N   0  0  0  0  0  0  0  0  0  0  0  0
  -11.5410  -13.9896    8.8741 C   0  0  0  0  0  0  0  0  0  0  0  0
  -11.5609  -14.6267   10.0415 N   0  0  0  0  0  0  0  0  0  0  0  0
  -11.1251  -14.6343    7.7729 N   0  0  0  0  0  0  0  0  0  0  0  0
  -11.0838  -14.0081    6.5875 C   0  0  0  0  0  0  0  0  0  0  0  0
  -11.4774  -12.6793    6.4921 C   0  0  0  0  0  0  0  0  0  0  0  0
  -11.9068  -12.0334    7.6468 C   0  0  0  0  0  0  0  0  0  0  0  0
  -12.3015  -10.7645    7.5991 N   0  0  0  0  0  0  0  0  0  0  0  0
  -11.3251  -12.3069    5.2248 N   0  0  0  0  0  0  0  0  0  0  0  0
  -10.8557  -13.3518    4.5468 C   0  0  0  0  0  0  0  0  0  0  0  0
  -10.7078  -14.3879    5.3698 N   0  0  0  0  0  0  0  0  0  0  0  0
  1  7  2  0  0  0  0
  1  2  1  0  0  0  0
  2  3  1  0  0  0  0
  2  4  2  0  0  0  0
  4  5  1  0  0  0  0
  5  6  2  0  0  0  0
  5 11  1  0  0  0  0
  6  7  1  0  0  0  0
  6  9  1  0  0  0  0
  7  8  1  0  0  0  0
  9 10  1  0  0  0  0
 10 11  2  0  0  0  0
M  END
>  <CHROM.1>
-11.44190690,-13.22710829,7.20274216,2.00060644,-1.21315882,2.14057719

>  <Name>
ligand

>  <RI>
0

>  <Rbt.Current_Directory>
/home/itssahil/PROJECTS/Mol_Feturizer/New_Systems/rnas/2b57

>  <Rbt.Executable>
rbdock ($Id: //depot/dev/client3/rdock/2013.1/src/exe/rbdock.cxx#4 $)

>  <Rbt.Library>
libRbt.so (2013.1, Build901 2013/11/27)

>  <Rbt.Parameter_File>
/export/apps/rDock/src/rDock_2013.1_src/data/scripts/dock_solv.prm

>  <Rbt.Receptor>
prm/pocket_docking_5.prm

>  <SCORE>
-11.4123

>  <SCORE.INTER>
-11.4123

>  <SCORE.INTER.CONST>
1

>  <SCORE.INTER.POLAR>
0

>  <SCORE.INTER.ROT>
0

>  <SCORE.INTER.SOLV>
21.1477

>  <SCORE.INTER.VDW>
-18.2575

>  <SCORE.INTER.norm>
-1.03748

>  <SCORE.INTRA>
0

>  <SCORE.INTRA.DIHEDRAL>
0

>  <SCORE.INTRA.DIHEDRAL.0>
0

>  <SCORE.INTRA.POLAR>
0

>  <SCORE.INTRA.POLAR.0>
0

>  <SCORE.INTRA.REPUL>
0

>  <SCORE.INTRA.REPUL.0>
0

>  <SCORE.INTRA.SOLV>
0

>  <SCORE.INTRA.SOLV.lig_0>
-48.3454

>  <SCORE.INTRA.VDW>
0

>  <SCORE.INTRA.VDW.0>
0

>  <SCORE.INTRA.norm>
0

>  <SCORE.RESTR>
0

>  <SCORE.RESTR.CAVITY>
0

>  <SCORE.RESTR.norm>
0

>  <SCORE.SYSTEM>
0

>  <SCORE.SYSTEM.CONST>
0

>  <SCORE.SYSTEM.DIHEDRAL>
0

>  <SCORE.SYSTEM.SOLV>
0

>  <SCORE.SYSTEM.norm>
0

>  <SCORE.heavy>
11

>  <SCORE.norm>
-1.03748

>  <RMSD>
0.631

$$$$
ligand
 OpenBabel01301917033D
libRbt.so/2013.1/901 2013/11/27
 11 12  0  0  0  0  0  0  0  0999 V2000
  -11.8489  -12.7683    8.8346 N   0  0  0  0  0  0  0  0  0  0  0  0
  -11.4984  -14.0622    8.9089 C   0  0  0  0  0  0  0  0  0  0  0  0
  -11.5206  -14.6861   10.0834 N   0  0  0  0  0  0  0  0  0  0  0  0
  -11.1155  -14.7298    7.8095 N   0  0  0  0  0  0  0  0  0  0  0  0
  -11.0725  -14.1176    6.6169 C   0  0  0  0  0  0  0  0  0  0  0  0
  -11.4300  -12.7793    6.5122 C   0  0  0  0  0  0  0  0  0  0  0  0
  -11.8257  -12.1095    7.6652 C   0  0  0  0  0  0  0  0  0  0  0  0
  -12.1854  -10.8306    7.6089 N   0  0  0  0  0  0  0  0  0  0  0  0
  -11.2843  -12.4247    5.2390 N   0  0  0  0  0  0  0  0  0  0  0  0
  -10.8534  -13.4895    4.5664 C   0  0  0  0  0  0  0  0  0  0  0  0
  -10.7236  -14.5206    5.3986 N   0  0  0  0  0  0  0  0  0  0  0  0
  1  7  2  0  0  0  0
  1  2  1  0  0  0  0
  2  3  1  0  0  0  0
  2  4  2  0  0  0  0
  4  5  1  0  0  0  0
  5  6  2  0  0  0  0
  5 11  1  0  0  0  0
  6  7  1  0  0  0  0
  6  9  1  0  0  0  0
  7  8  1  0  0  0  0
  9 10  1  0  0  0  0
 10 11  2  0  0  0  0
M  END
>  <CHROM.1>
-11.40038079,-13.32040544,7.22820881,2.01255671,-1.24391158,2.14111957

>  <Name>
ligand

>  <RI>
0

>  <Rbt.Current_Directory>
/home/itssahil/PROJECTS/Mol_Feturizer/New_Systems/rnas/2b57

>  <Rbt.Executable>
rbdock ($Id: //depot/dev/client3/rdock/2013.1/src/exe/rbdock.cxx#4 $)

>  <Rbt.Library>
libRbt.so (2013.1, Build901 2013/11/27)

>  <Rbt.Parameter_File>
/export/apps/rDock/src/rDock_2013.1_src/data/scripts/dock_solv.prm

>  <Rbt.Receptor>
prm/pocket_docking_6.prm

>  <SCORE>
-11.474

>  <SCORE.INTER>
-11.474

>  <SCORE.INTER.CONST>
1

>  <SCORE.INTER.POLAR>
0

>  <SCORE.INTER.ROT>
0

>  <SCORE.INTER.SOLV>
21.5361

>  <SCORE.INTER.VDW>
-18.4281

>  <SCORE.INTER.norm>
-1.04309

>  <SCORE.INTRA>
0

>  <SCORE.INTRA.DIHEDRAL>
0

>  <SCORE.INTRA.DIHEDRAL.0>
0

>  <SCORE.INTRA.POLAR>
0

>  <SCORE.INTRA.POLAR.0>
0

>  <SCORE.INTRA.REPUL>
0

>  <SCORE.INTRA.REPUL.0>
0

>  <SCORE.INTRA.SOLV>
0

>  <SCORE.INTRA.SOLV.lig_0>
-48.3454

>  <SCORE.INTRA.VDW>
0

>  <SCORE.INTRA.VDW.0>
0

>  <SCORE.INTRA.norm>
0

>  <SCORE.RESTR>
0

>  <SCORE.RESTR.CAVITY>
0

>  <SCORE.RESTR.norm>
0

>  <SCORE.SYSTEM>
0

>  <SCORE.SYSTEM.CONST>
0

>  <SCORE.SYSTEM.DIHEDRAL>
0

>  <SCORE.SYSTEM.SOLV>
0

>  <SCORE.SYSTEM.norm>
0

>  <SCORE.heavy>
11

>  <SCORE.norm>
-1.04309

>  <RMSD>
0.631

$$$$
ligand
 OpenBabel01301917033D
libRbt.so/2013.1/901 2013/11/27
 11 12  0  0  0  0  0  0  0  0999 V2000
  -11.8426  -12.7653    8.8349 N   0  0  0  0  0  0  0  0  0  0  0  0
  -11.4879  -14.0581    8.9084 C   0  0  0  0  0  0  0  0  0  0  0  0
  -11.5081  -14.6828   10.0825 N   0  0  0  0  0  0  0  0  0  0  0  0
  -11.1028  -14.7239    7.8086 N   0  0  0  0  0  0  0  0  0  0  0  0
  -11.0618  -14.1108    6.6164 C   0  0  0  0  0  0  0  0  0  0  0  0
  -11.4235  -12.7736    6.5124 C   0  0  0  0  0  0  0  0  0  0  0  0
  -11.8215  -12.1058    7.6658 C   0  0  0  0  0  0  0  0  0  0  0  0
  -12.1852  -10.8280    7.6102 N   0  0  0  0  0  0  0  0  0  0  0  0
  -11.2789  -12.4178    5.2394 N   0  0  0  0  0  0  0  0  0  0  0  0
  -10.8447  -13.4809    4.5662 C   0  0  0  0  0  0  0  0  0  0  0  0
  -10.7115  -14.5120    5.3978 N   0  0  0  0  0  0  0  0  0  0  0  0
  1  7  2  0  0  0  0
  1  2  1  0  0  0  0
  2  3  1  0  0  0  0
  2  4  2  0  0  0  0
  4  5  1  0  0  0  0
  5  6  2  0  0  0  0
  5 11  1  0  0  0  0
  6  7  1  0  0  0  0
  6  9  1  0  0  0  0
  7  8  1  0  0  0  0
  9 10  1  0  0  0  0
 10 11  2  0  0  0  0
M  END
>  <CHROM.1>
-11.39221171,-13.31505036,7.22810456,2.00728956,-1.24119702,2.13671475

>  <Name>
ligand

>  <RI>
0

>  <Rbt.Current_Directory>
/home/itssahil/PROJECTS/Mol_Feturizer/New_Systems/rnas/2b57

>  <Rbt.Executable>
rbdock ($Id: //depot/dev/client3/rdock/2013.1/src/exe/rbdock.cxx#4 $)

>  <Rbt.Library>
libRbt.so (2013.1, Build901 2013/11/27)

>  <Rbt.Parameter_File>
/export/apps/rDock/src/rDock_2013.1_src/data/scripts/dock_solv.prm

>  <Rbt.Receptor>
prm/pocket_docking_7.prm

>  <SCORE>
-11.468

>  <SCORE.INTER>
-11.468

>  <SCORE.INTER.CONST>
1

>  <SCORE.INTER.POLAR>
0

>  <SCORE.INTER.ROT>
0

>  <SCORE.INTER.SOLV>
21.5289

>  <SCORE.INTER.VDW>
-18.4216

>  <SCORE.INTER.norm>
-1.04255

>  <SCORE.INTRA>
0

>  <SCORE.INTRA.DIHEDRAL>
0

>  <SCORE.INTRA.DIHEDRAL.0>
0

>  <SCORE.INTRA.POLAR>
0

>  <SCORE.INTRA.POLAR.0>
0

>  <SCORE.INTRA.REPUL>
0

>  <SCORE.INTRA.REPUL.0>
0

>  <SCORE.INTRA.SOLV>
0

>  <SCORE.INTRA.SOLV.lig_0>
-48.3454

>  <SCORE.INTRA.VDW>
0

>  <SCORE.INTRA.VDW.0>
0

>  <SCORE.INTRA.norm>
0

>  <SCORE.RESTR>
0

>  <SCORE.RESTR.CAVITY>
0

>  <SCORE.RESTR.norm>
0

>  <SCORE.SYSTEM>
0

>  <SCORE.SYSTEM.CONST>
0

>  <SCORE.SYSTEM.DIHEDRAL>
0

>  <SCORE.SYSTEM.SOLV>
0

>  <SCORE.SYSTEM.norm>
0

>  <SCORE.heavy>
11

>  <SCORE.norm>
-1.04255

>  <RMSD>
0.631

$$$$
ligand
 OpenBabel01301917033D
libRbt.so/2013.1/901 2013/11/27
 11 12  0  0  0  0  0  0  0  0999 V2000
  -11.8490  -12.7686    8.8335 N   0  0  0  0  0  0  0  0  0  0  0  0
  -11.5023  -14.0634    8.9107 C   0  0  0  0  0  0  0  0  0  0  0  0
  -11.5257  -14.6845   10.0866 N   0  0  0  0  0  0  0  0  0  0  0  0
  -11.1221  -14.7348    7.8126 N   0  0  0  0  0  0  0  0  0  0  0  0
  -11.0780  -14.1255    6.6186 C   0  0  0  0  0  0  0  0  0  0  0  0
  -11.4315  -12.7864    6.5109 C   0  0  0  0  0  0  0  0  0  0  0  0
  -11.8245  -12.1127    7.6626 C   0  0  0  0  0  0  0  0  0  0  0  0
  -12.1804  -10.8328    7.6034 N   0  0  0  0  0  0  0  0  0  0  0  0
  -11.2855  -12.4352    5.2368 N   0  0  0  0  0  0  0  0  0  0  0  0
  -10.8582  -13.5030    4.5664 C   0  0  0  0  0  0  0  0  0  0  0  0
  -10.7310  -14.5324    5.4009 N   0  0  0  0  0  0  0  0  0  0  0  0
  1  7  2  0  0  0  0
  1  2  1  0  0  0  0
  2  3  1  0  0  0  0
  2  4  2  0  0  0  0
  4  5  1  0  0  0  0
  5  6  2  0  0  0  0
  5 11  1  0  0  0  0
  6  7  1  0  0  0  0
  6  9  1  0  0  0  0
  7  8  1  0  0  0  0
  9 10  1  0  0  0  0
 10 11  2  0  0  0  0
M  END
>  <CHROM.1>
-11.40307903,-13.32589721,7.22814490,2.01609935,-1.24677792,2.14210880

>  <Name>
ligand

>  <RI>
0

>  <Rbt.Current_Directory>
/home/itssahil/PROJECTS/Mol_Feturizer/New_Systems/rnas/2b57

>  <Rbt.Executable>
rbdock ($Id: //depot/dev/client3/rdock/2013.1/src/exe/rbdock.cxx#4 $)

>  <Rbt.Library>
libRbt.so (2013.1, Build901 2013/11/27)

>  <Rbt.Parameter_File>
/export/apps/rDock/src/rDock_2013.1_src/data/scripts/dock_solv.prm

>  <Rbt.Receptor>
prm/pocket_docking_8.prm

>  <SCORE>
-11.4738

>  <SCORE.INTER>
-11.4738

>  <SCORE.INTER.CONST>
1

>  <SCORE.INTER.POLAR>
0

>  <SCORE.INTER.ROT>
0

>  <SCORE.INTER.SOLV>
21.5482

>  <SCORE.INTER.VDW>
-18.4319

>  <SCORE.INTER.norm>
-1.04307

>  <SCORE.INTRA>
0

>  <SCORE.INTRA.DIHEDRAL>
0

>  <SCORE.INTRA.DIHEDRAL.0>
0

>  <SCORE.INTRA.POLAR>
0

>  <SCORE.INTRA.POLAR.0>
0

>  <SCORE.INTRA.REPUL>
0

>  <SCORE.INTRA.REPUL.0>
0

>  <SCORE.INTRA.SOLV>
0

>  <SCORE.INTRA.SOLV.lig_0>
-48.3454

>  <SCORE.INTRA.VDW>
0

>  <SCORE.INTRA.VDW.0>
0

>  <SCORE.INTRA.norm>
0

>  <SCORE.RESTR>
0

>  <SCORE.RESTR.CAVITY>
0

>  <SCORE.RESTR.norm>
0

>  <SCORE.SYSTEM>
0

>  <SCORE.SYSTEM.CONST>
0

>  <SCORE.SYSTEM.DIHEDRAL>
0

>  <SCORE.SYSTEM.SOLV>
0

>  <SCORE.SYSTEM.norm>
0

>  <SCORE.heavy>
11

>  <SCORE.norm>
-1.04307

>  <RMSD>
0.631

$$$$
ligand
 OpenBabel01301917033D
libRbt.so/2013.1/901 2013/11/27
 11 12  0  0  0  0  0  0  0  0999 V2000
  -11.8482  -12.7680    8.8328 N   0  0  0  0  0  0  0  0  0  0  0  0
  -11.4948  -14.0611    8.9068 C   0  0  0  0  0  0  0  0  0  0  0  0
  -11.5169  -14.6857   10.0809 N   0  0  0  0  0  0  0  0  0  0  0  0
  -11.1092  -14.7273    7.8074 N   0  0  0  0  0  0  0  0  0  0  0  0
  -11.0663  -14.1143    6.6153 C   0  0  0  0  0  0  0  0  0  0  0  0
  -11.4266  -12.7768    6.5108 C   0  0  0  0  0  0  0  0  0  0  0  0
  -11.8252  -12.1085    7.6638 C   0  0  0  0  0  0  0  0  0  0  0  0
  -12.1877  -10.8304    7.6077 N   0  0  0  0  0  0  0  0  0  0  0  0
  -11.2803  -12.4211    5.2380 N   0  0  0  0  0  0  0  0  0  0  0  0
  -10.8463  -13.4846    4.5653 C   0  0  0  0  0  0  0  0  0  0  0  0
  -10.7150  -14.5158    5.3971 N   0  0  0  0  0  0  0  0  0  0  0  0
  1  7  2  0  0  0  0
  1  2  1  0  0  0  0
  2  3  1  0  0  0  0
  2  4  2  0  0  0  0
  4  5  1  0  0  0  0
  5  6  2  0  0  0  0
  5 11  1  0  0  0  0
  6  7  1  0  0  0  0
  6  9  1  0  0  0  0
  7  8  1  0  0  0  0
  9 10  1  0  0  0  0
 10 11  2  0  0  0  0
M  END
>  <CHROM.1>
-11.39660896,-13.31819897,7.22658962,2.01170594,-1.24139056,2.14085602

>  <Name>
ligand

>  <RI>
0

>  <Rbt.Current_Directory>
/home/itssahil/PROJECTS/Mol_Feturizer/New_Systems/rnas/2b57

>  <Rbt.Executable>
rbdock ($Id: //depot/dev/client3/rdock/2013.1/src/exe/rbdock.cxx#4 $)

>  <Rbt.Library>
libRbt.so (2013.1, Build901 2013/11/27)

>  <Rbt.Parameter_File>
/export/apps/rDock/src/rDock_2013.1_src/data/scripts/dock_solv.prm

>  <Rbt.Receptor>
prm/pocket_docking_7.prm

>  <SCORE>
-11.4732

>  <SCORE.INTER>
-11.4732

>  <SCORE.INTER.CONST>
1

>  <SCORE.INTER.POLAR>
0

>  <SCORE.INTER.ROT>
0

>  <SCORE.INTER.SOLV>
21.5231

>  <SCORE.INTER.VDW>
-18.4232

>  <SCORE.INTER.norm>
-1.04302

>  <SCORE.INTRA>
0

>  <SCORE.INTRA.DIHEDRAL>
0

>  <SCORE.INTRA.DIHEDRAL.0>
0

>  <SCORE.INTRA.POLAR>
0

>  <SCORE.INTRA.POLAR.0>
0

>  <SCORE.INTRA.REPUL>
0

>  <SCORE.INTRA.REPUL.0>
0

>  <SCORE.INTRA.SOLV>
0

>  <SCORE.INTRA.SOLV.lig_0>
-48.3454

>  <SCORE.INTRA.VDW>
0

>  <SCORE.INTRA.VDW.0>
0

>  <SCORE.INTRA.norm>
0

>  <SCORE.RESTR>
0

>  <SCORE.RESTR.CAVITY>
0

>  <SCORE.RESTR.norm>
0

>  <SCORE.SYSTEM>
0

>  <SCORE.SYSTEM.CONST>
0

>  <SCORE.SYSTEM.DIHEDRAL>
0

>  <SCORE.SYSTEM.SOLV>
0

>  <SCORE.SYSTEM.norm>
0

>  <SCORE.heavy>
11

>  <SCORE.norm>
-1.04302

>  <RMSD>
0.632

$$$$
ligand
 OpenBabel01301917033D
libRbt.so/2013.1/901 2013/11/27
 11 12  0  0  0  0  0  0  0  0999 V2000
  -11.8443  -12.7664    8.8316 N   0  0  0  0  0  0  0  0  0  0  0  0
  -11.4963  -14.0607    8.9106 C   0  0  0  0  0  0  0  0  0  0  0  0
  -11.5239  -14.6814   10.0866 N   0  0  0  0  0  0  0  0  0  0  0  0
  -11.1106  -14.7320    7.8143 N   0  0  0  0  0  0  0  0  0  0  0  0
  -11.0623  -14.1230    6.6203 C   0  0  0  0  0  0  0  0  0  0  0  0
  -11.4170  -12.7844    6.5107 C   0  0  0  0  0  0  0  0  0  0  0  0
  -11.8157  -12.1108    7.6605 C   0  0  0  0  0  0  0  0  0  0  0  0
  -12.1729  -10.8314    7.5994 N   0  0  0  0  0  0  0  0  0  0  0  0
  -11.2660  -12.4334    5.2371 N   0  0  0  0  0  0  0  0  0  0  0  0
  -10.8346  -13.5008    4.5689 C   0  0  0  0  0  0  0  0  0  0  0  0
  -10.7096  -14.5298    5.4043 N   0  0  0  0  0  0  0  0  0  0  0  0
  1  7  2  0  0  0  0
  1  2  1  0  0  0  0
  2  3  1  0  0  0  0
  2  4  2  0  0  0  0
  4  5  1  0  0  0  0
  5  6  2  0  0  0  0
  5 11  1  0  0  0  0
  6  7  1  0  0  0  0
  6  9  1  0  0  0  0
  7  8  1  0  0  0  0
  9 10  1  0  0  0  0
 10 11  2  0  0  0  0
M  END
>  <CHROM.1>
-11.39091491,-13.32359035,7.22823717,2.02500754,-1.24341534,2.15023327

>  <Name>
ligand

>  <RI>
0

>  <Rbt.Current_Directory>
/home/itssahil/PROJECTS/Mol_Feturizer/New_Systems/rnas/2b57

>  <Rbt.Executable>
rbdock ($Id: //depot/dev/client3/rdock/2013.1/src/exe/rbdock.cxx#4 $)

>  <Rbt.Library>
libRbt.so (2013.1, Build901 2013/11/27)

>  <Rbt.Parameter_File>
/export/apps/rDock/src/rDock_2013.1_src/data/scripts/dock_solv.prm

>  <Rbt.Receptor>
prm/pocket_docking_3.prm

>  <SCORE>
-11.466

>  <SCORE.INTER>
-11.466

>  <SCORE.INTER.CONST>
1

>  <SCORE.INTER.POLAR>
0

>  <SCORE.INTER.ROT>
0

>  <SCORE.INTER.SOLV>
21.558

>  <SCORE.INTER.VDW>
-18.43

>  <SCORE.INTER.norm>
-1.04237

>  <SCORE.INTRA>
0

>  <SCORE.INTRA.DIHEDRAL>
0

>  <SCORE.INTRA.DIHEDRAL.0>
0

>  <SCORE.INTRA.POLAR>
0

>  <SCORE.INTRA.POLAR.0>
0

>  <SCORE.INTRA.REPUL>
0

>  <SCORE.INTRA.REPUL.0>
0

>  <SCORE.INTRA.SOLV>
0

>  <SCORE.INTRA.SOLV.lig_0>
-48.3454

>  <SCORE.INTRA.VDW>
0

>  <SCORE.INTRA.VDW.0>
0

>  <SCORE.INTRA.norm>
0

>  <SCORE.RESTR>
0

>  <SCORE.RESTR.CAVITY>
0

>  <SCORE.RESTR.norm>
0

>  <SCORE.SYSTEM>
0

>  <SCORE.SYSTEM.CONST>
0

>  <SCORE.SYSTEM.DIHEDRAL>
0

>  <SCORE.SYSTEM.SOLV>
0

>  <SCORE.SYSTEM.norm>
0

>  <SCORE.heavy>
11

>  <SCORE.norm>
-1.04237

>  <RMSD>
0.633

$$$$
ligand
 OpenBabel01301917033D
libRbt.so/2013.1/901 2013/11/27
 11 12  0  0  0  0  0  0  0  0999 V2000
  -11.8473  -12.7675    8.8339 N   0  0  0  0  0  0  0  0  0  0  0  0
  -11.4892  -14.0597    8.9025 C   0  0  0  0  0  0  0  0  0  0  0  0
  -11.5037  -14.6877   10.0749 N   0  0  0  0  0  0  0  0  0  0  0  0
  -11.1065  -14.7215    7.7995 N   0  0  0  0  0  0  0  0  0  0  0  0
  -11.0712  -14.1050    6.6089 C   0  0  0  0  0  0  0  0  0  0  0  0
  -11.4365  -12.7684    6.5099 C   0  0  0  0  0  0  0  0  0  0  0  0
  -11.8319  -12.1047    7.6666 C   0  0  0  0  0  0  0  0  0  0  0  0
  -12.1990  -10.8277    7.6159 N   0  0  0  0  0  0  0  0  0  0  0  0
  -11.2974  -12.4087    5.2374 N   0  0  0  0  0  0  0  0  0  0  0  0
  -10.8630  -13.4688    4.5597 C   0  0  0  0  0  0  0  0  0  0  0  0
  -10.7243  -14.5019    5.3879 N   0  0  0  0  0  0  0  0  0  0  0  0
  1  7  2  0  0  0  0
  1  2  1  0  0  0  0
  2  3  1  0  0  0  0
  2  4  2  0  0  0  0
  4  5  1  0  0  0  0
  5  6  2  0  0  0  0
  5 11  1  0  0  0  0
  6  7  1  0  0  0  0
  6  9  1  0  0  0  0
  7  8  1  0  0  0  0
  9 10  1  0  0  0  0
 10 11  2  0  0  0  0
M  END
>  <CHROM.1>
-11.40134952,-13.31173953,7.22398765,1.99395179,-1.24106328,2.12688727

>  <Name>
ligand

>  <RI>
0

>  <Rbt.Current_Directory>
/home/itssahil/PROJECTS/Mol_Feturizer/New_Systems/rnas/2b57

>  <Rbt.Executable>
rbdock ($Id: //depot/dev/client3/rdock/2013.1/src/exe/rbdock.cxx#4 $)

>  <Rbt.Library>
libRbt.so (2013.1, Build901 2013/11/27)

>  <Rbt.Parameter_File>
/export/apps/rDock/src/rDock_2013.1_src/data/scripts/dock_solv.prm

>  <Rbt.Receptor>
prm/pocket_docking_6.prm

>  <SCORE>
-11.469

>  <SCORE.INTER>
-11.469

>  <SCORE.INTER.CONST>
1

>  <SCORE.INTER.POLAR>
0

>  <SCORE.INTER.ROT>
0

>  <SCORE.INTER.SOLV>
21.4976

>  <SCORE.INTER.VDW>
-18.4119

>  <SCORE.INTER.norm>
-1.04264

>  <SCORE.INTRA>
0

>  <SCORE.INTRA.DIHEDRAL>
0

>  <SCORE.INTRA.DIHEDRAL.0>
0

>  <SCORE.INTRA.POLAR>
0

>  <SCORE.INTRA.POLAR.0>
0

>  <SCORE.INTRA.REPUL>
0

>  <SCORE.INTRA.REPUL.0>
0

>  <SCORE.INTRA.SOLV>
0

>  <SCORE.INTRA.SOLV.lig_0>
-48.3454

>  <SCORE.INTRA.VDW>
0

>  <SCORE.INTRA.VDW.0>
0

>  <SCORE.INTRA.norm>
0

>  <SCORE.RESTR>
0

>  <SCORE.RESTR.CAVITY>
0

>  <SCORE.RESTR.norm>
0

>  <SCORE.SYSTEM>
0

>  <SCORE.SYSTEM.CONST>
0

>  <SCORE.SYSTEM.DIHEDRAL>
0

>  <SCORE.SYSTEM.SOLV>
0

>  <SCORE.SYSTEM.norm>
0

>  <SCORE.heavy>
11

>  <SCORE.norm>
-1.04264

>  <RMSD>
0.633

$$$$
ligand
 OpenBabel01301917033D
libRbt.so/2013.1/901 2013/11/27
 11 12  0  0  0  0  0  0  0  0999 V2000
  -11.8454  -12.7669    8.8311 N   0  0  0  0  0  0  0  0  0  0  0  0
  -11.4957  -14.0610    8.9066 C   0  0  0  0  0  0  0  0  0  0  0  0
  -11.5187  -14.6839   10.0815 N   0  0  0  0  0  0  0  0  0  0  0  0
  -11.1129  -14.7298    7.8078 N   0  0  0  0  0  0  0  0  0  0  0  0
  -11.0691  -14.1186    6.6148 C   0  0  0  0  0  0  0  0  0  0  0  0
  -11.4256  -12.7802    6.5088 C   0  0  0  0  0  0  0  0  0  0  0  0
  -11.8214  -12.1091    7.6612 C   0  0  0  0  0  0  0  0  0  0  0  0
  -12.1801  -10.8300    7.6036 N   0  0  0  0  0  0  0  0  0  0  0  0
  -11.2793  -12.4267    5.2354 N   0  0  0  0  0  0  0  0  0  0  0  0
  -10.8489  -13.4924    4.5637 C   0  0  0  0  0  0  0  0  0  0  0  0
  -10.7200  -14.5228    5.3968 N   0  0  0  0  0  0  0  0  0  0  0  0
  1  7  2  0  0  0  0
  1  2  1  0  0  0  0
  2  3  1  0  0  0  0
  2  4  2  0  0  0  0
  4  5  1  0  0  0  0
  5  6  2  0  0  0  0
  5 11  1  0  0  0  0
  6  7  1  0  0  0  0
  6  9  1  0  0  0  0
  7  8  1  0  0  0  0
  9 10  1  0  0  0  0
 10 11  2  0  0  0  0
M  END
>  <CHROM.1>
-11.39664806,-13.32067173,7.22526166,2.01457806,-1.24429180,2.14220834

>  <Name>
ligand

>  <RI>
0

>  <Rbt.Current_Directory>
/home/itssahil/PROJECTS/Mol_Feturizer/New_Systems/rnas/2b57

>  <Rbt.Executable>
rbdock ($Id: //depot/dev/client3/rdock/2013.1/src/exe/rbdock.cxx#4 $)

>  <Rbt.Library>
libRbt.so (2013.1, Build901 2013/11/27)

>  <Rbt.Parameter_File>
/export/apps/rDock/src/rDock_2013.1_src/data/scripts/dock_solv.prm

>  <Rbt.Receptor>
prm/pocket_docking_4.prm

>  <SCORE>
-11.4733

>  <SCORE.INTER>
-11.4733

>  <SCORE.INTER.CONST>
1

>  <SCORE.INTER.POLAR>
0

>  <SCORE.INTER.ROT>
0

>  <SCORE.INTER.SOLV>
21.5451

>  <SCORE.INTER.VDW>
-18.4305

>  <SCORE.INTER.norm>
-1.04303

>  <SCORE.INTRA>
0

>  <SCORE.INTRA.DIHEDRAL>
0

>  <SCORE.INTRA.DIHEDRAL.0>
0

>  <SCORE.INTRA.POLAR>
0

>  <SCORE.INTRA.POLAR.0>
0

>  <SCORE.INTRA.REPUL>
0

>  <SCORE.INTRA.REPUL.0>
0

>  <SCORE.INTRA.SOLV>
0

>  <SCORE.INTRA.SOLV.lig_0>
-48.3454

>  <SCORE.INTRA.VDW>
0

>  <SCORE.INTRA.VDW.0>
0

>  <SCORE.INTRA.norm>
0

>  <SCORE.RESTR>
0

>  <SCORE.RESTR.CAVITY>
0

>  <SCORE.RESTR.norm>
0

>  <SCORE.SYSTEM>
0

>  <SCORE.SYSTEM.CONST>
0

>  <SCORE.SYSTEM.DIHEDRAL>
0

>  <SCORE.SYSTEM.SOLV>
0

>  <SCORE.SYSTEM.norm>
0

>  <SCORE.heavy>
11

>  <SCORE.norm>
-1.04303

>  <RMSD>
0.634

$$$$
ligand
 OpenBabel01301917033D
libRbt.so/2013.1/901 2013/11/27
 11 12  0  0  0  0  0  0  0  0999 V2000
  -11.9017  -12.7421    8.8112 N   0  0  0  0  0  0  0  0  0  0  0  0
  -11.4705  -14.0112    8.8898 C   0  0  0  0  0  0  0  0  0  0  0  0
  -11.4792  -14.6403   10.0617 N   0  0  0  0  0  0  0  0  0  0  0  0
  -11.0208  -14.6483    7.7976 N   0  0  0  0  0  0  0  0  0  0  0  0
  -10.9903  -14.0294    6.6080 C   0  0  0  0  0  0  0  0  0  0  0  0
  -11.4304  -12.7164    6.4989 C   0  0  0  0  0  0  0  0  0  0  0  0
  -11.8944  -12.0783    7.6444 C   0  0  0  0  0  0  0  0  0  0  0  0
  -12.3340  -10.8249    7.5834 N   0  0  0  0  0  0  0  0  0  0  0  0
  -11.2790  -12.3478    5.2304 N   0  0  0  0  0  0  0  0  0  0  0  0
  -10.7656  -13.3799    4.5648 C   0  0  0  0  0  0  0  0  0  0  0  0
  -10.5886  -14.4040    5.3968 N   0  0  0  0  0  0  0  0  0  0  0  0
  1  7  2  0  0  0  0
  1  2  1  0  0  0  0
  2  3  1  0  0  0  0
  2  4  2  0  0  0  0
  4  5  1  0  0  0  0
  5  6  2  0  0  0  0
  5 11  1  0  0  0  0
  6  7  1  0  0  0  0
  6  9  1  0  0  0  0
  7  8  1  0  0  0  0
  9 10  1  0  0  0  0
 10 11  2  0  0  0  0
M  END
>  <CHROM.1>
-11.38235232,-13.25753865,7.21387402,1.97181341,-1.17729333,2.10649339

>  <Name>
ligand

>  <RI>
0

>  <Rbt.Current_Directory>
/home/itssahil/PROJECTS/Mol_Feturizer/New_Systems/rnas/2b57

>  <Rbt.Executable>
rbdock ($Id: //depot/dev/client3/rdock/2013.1/src/exe/rbdock.cxx#4 $)

>  <Rbt.Library>
libRbt.so (2013.1, Build901 2013/11/27)

>  <Rbt.Parameter_File>
/export/apps/rDock/src/rDock_2013.1_src/data/scripts/dock_solv.prm

>  <Rbt.Receptor>
prm/pocket_docking_6.prm

>  <SCORE>
-11.4524

>  <SCORE.INTER>
-11.4524

>  <SCORE.INTER.CONST>
1

>  <SCORE.INTER.POLAR>
0

>  <SCORE.INTER.ROT>
0

>  <SCORE.INTER.SOLV>
21.0149

>  <SCORE.INTER.VDW>
-18.2399

>  <SCORE.INTER.norm>
-1.04113

>  <SCORE.INTRA>
0

>  <SCORE.INTRA.DIHEDRAL>
0

>  <SCORE.INTRA.DIHEDRAL.0>
0

>  <SCORE.INTRA.POLAR>
0

>  <SCORE.INTRA.POLAR.0>
0

>  <SCORE.INTRA.REPUL>
0

>  <SCORE.INTRA.REPUL.0>
0

>  <SCORE.INTRA.SOLV>
0

>  <SCORE.INTRA.SOLV.lig_0>
-48.3454

>  <SCORE.INTRA.VDW>
0

>  <SCORE.INTRA.VDW.0>
0

>  <SCORE.INTRA.norm>
0

>  <SCORE.RESTR>
0

>  <SCORE.RESTR.CAVITY>
0

>  <SCORE.RESTR.norm>
0

>  <SCORE.SYSTEM>
0

>  <SCORE.SYSTEM.CONST>
0

>  <SCORE.SYSTEM.DIHEDRAL>
0

>  <SCORE.SYSTEM.SOLV>
0

>  <SCORE.SYSTEM.norm>
0

>  <SCORE.heavy>
11

>  <SCORE.norm>
-1.04113

>  <RMSD>
0.634

$$$$
ligand
 OpenBabel01301917033D
libRbt.so/2013.1/901 2013/11/27
 11 12  0  0  0  0  0  0  0  0999 V2000
  -11.8688  -12.6881    8.8017 N   0  0  0  0  0  0  0  0  0  0  0  0
  -11.5061  -13.9769    8.9015 C   0  0  0  0  0  0  0  0  0  0  0  0
  -11.5302  -14.5800   10.0867 N   0  0  0  0  0  0  0  0  0  0  0  0
  -11.1089  -14.6601    7.8168 N   0  0  0  0  0  0  0  0  0  0  0  0
  -11.0638  -14.0688    6.6138 C   0  0  0  0  0  0  0  0  0  0  0  0
  -11.4337  -12.7363    6.4827 C   0  0  0  0  0  0  0  0  0  0  0  0
  -11.8440  -12.0500    7.6209 C   0  0  0  0  0  0  0  0  0  0  0  0
  -12.2159  -10.7760    7.5392 N   0  0  0  0  0  0  0  0  0  0  0  0
  -11.2826  -12.4029    5.2044 N   0  0  0  0  0  0  0  0  0  0  0  0
  -10.8366  -13.4752    4.5539 C   0  0  0  0  0  0  0  0  0  0  0  0
  -10.7023  -14.4900    5.4052 N   0  0  0  0  0  0  0  0  0  0  0  0
  1  7  2  0  0  0  0
  1  2  1  0  0  0  0
  2  3  1  0  0  0  0
  2  4  2  0  0  0  0
  4  5  1  0  0  0  0
  5  6  2  0  0  0  0
  5 11  1  0  0  0  0
  6  7  1  0  0  0  0
  6  9  1  0  0  0  0
  7  8  1  0  0  0  0
  9 10  1  0  0  0  0
 10 11  2  0  0  0  0
M  END
>  <CHROM.1>
-11.40369247,-13.26420904,7.20847854,2.01413984,-1.23184349,2.12476913

>  <Name>
ligand

>  <RI>
0

>  <Rbt.Current_Directory>
/home/itssahil/PROJECTS/Mol_Feturizer/New_Systems/rnas/2b57

>  <Rbt.Executable>
rbdock ($Id: //depot/dev/client3/rdock/2013.1/src/exe/rbdock.cxx#4 $)

>  <Rbt.Library>
libRbt.so (2013.1, Build901 2013/11/27)

>  <Rbt.Parameter_File>
/export/apps/rDock/src/rDock_2013.1_src/data/scripts/dock_solv.prm

>  <Rbt.Receptor>
prm/pocket_docking_7.prm

>  <SCORE>
-11.4776

>  <SCORE.INTER>
-11.4776

>  <SCORE.INTER.CONST>
1

>  <SCORE.INTER.POLAR>
0

>  <SCORE.INTER.ROT>
0

>  <SCORE.INTER.SOLV>
21.3188

>  <SCORE.INTER.VDW>
-18.358

>  <SCORE.INTER.norm>
-1.04342

>  <SCORE.INTRA>
0

>  <SCORE.INTRA.DIHEDRAL>
0

>  <SCORE.INTRA.DIHEDRAL.0>
0

>  <SCORE.INTRA.POLAR>
0

>  <SCORE.INTRA.POLAR.0>
0

>  <SCORE.INTRA.REPUL>
0

>  <SCORE.INTRA.REPUL.0>
0

>  <SCORE.INTRA.SOLV>
0

>  <SCORE.INTRA.SOLV.lig_0>
-48.3454

>  <SCORE.INTRA.VDW>
0

>  <SCORE.INTRA.VDW.0>
0

>  <SCORE.INTRA.norm>
0

>  <SCORE.RESTR>
0

>  <SCORE.RESTR.CAVITY>
0

>  <SCORE.RESTR.norm>
0

>  <SCORE.SYSTEM>
0

>  <SCORE.SYSTEM.CONST>
0

>  <SCORE.SYSTEM.DIHEDRAL>
0

>  <SCORE.SYSTEM.SOLV>
0

>  <SCORE.SYSTEM.norm>
0

>  <SCORE.heavy>
11

>  <SCORE.norm>
-1.04342

>  <RMSD>
0.634

$$$$
ligand
 OpenBabel01301917033D
libRbt.so/2013.1/901 2013/11/27
 11 12  0  0  0  0  0  0  0  0999 V2000
  -11.8699  -12.6912    8.8018 N   0  0  0  0  0  0  0  0  0  0  0  0
  -11.5098  -13.9809    8.9003 C   0  0  0  0  0  0  0  0  0  0  0  0
  -11.5324  -14.5843   10.0854 N   0  0  0  0  0  0  0  0  0  0  0  0
  -11.1169  -14.6647    7.8144 N   0  0  0  0  0  0  0  0  0  0  0  0
  -11.0734  -14.0731    6.6114 C   0  0  0  0  0  0  0  0  0  0  0  0
  -11.4406  -12.7397    6.4817 C   0  0  0  0  0  0  0  0  0  0  0  0
  -11.8466  -12.0529    7.6211 C   0  0  0  0  0  0  0  0  0  0  0  0
  -12.2158  -10.7780    7.5408 N   0  0  0  0  0  0  0  0  0  0  0  0
  -11.2921  -12.4063    5.2032 N   0  0  0  0  0  0  0  0  0  0  0  0
  -10.8501  -13.4793    4.5511 C   0  0  0  0  0  0  0  0  0  0  0  0
  -10.7160  -14.4946    5.4018 N   0  0  0  0  0  0  0  0  0  0  0  0
  1  7  2  0  0  0  0
  1  2  1  0  0  0  0
  2  3  1  0  0  0  0
  2  4  2  0  0  0  0
  4  5  1  0  0  0  0
  5  6  2  0  0  0  0
  5 11  1  0  0  0  0
  6  7  1  0  0  0  0
  6  9  1  0  0  0  0
  7  8  1  0  0  0  0
  9 10  1  0  0  0  0
 10 11  2  0  0  0  0
M  END
>  <CHROM.1>
-11.41005512,-13.26789411,7.20723473,2.01126427,-1.23509453,2.12237619

>  <Name>
ligand

>  <RI>
0

>  <Rbt.Current_Directory>
/home/itssahil/PROJECTS/Mol_Feturizer/New_Systems/rnas/2b57

>  <Rbt.Executable>
rbdock ($Id: //depot/dev/client3/rdock/2013.1/src/exe/rbdock.cxx#4 $)

>  <Rbt.Library>
libRbt.so (2013.1, Build901 2013/11/27)

>  <Rbt.Parameter_File>
/export/apps/rDock/src/rDock_2013.1_src/data/scripts/dock_solv.prm

>  <Rbt.Receptor>
prm/blind_docking_80.prm

>  <SCORE>
-11.4786

>  <SCORE.INTER>
-11.4786

>  <SCORE.INTER.CONST>
1

>  <SCORE.INTER.POLAR>
0

>  <SCORE.INTER.ROT>
0

>  <SCORE.INTER.SOLV>
21.3267

>  <SCORE.INTER.VDW>
-18.3613

>  <SCORE.INTER.norm>
-1.04351

>  <SCORE.INTRA>
0

>  <SCORE.INTRA.DIHEDRAL>
0

>  <SCORE.INTRA.DIHEDRAL.0>
0

>  <SCORE.INTRA.POLAR>
0

>  <SCORE.INTRA.POLAR.0>
0

>  <SCORE.INTRA.REPUL>
0

>  <SCORE.INTRA.REPUL.0>
0

>  <SCORE.INTRA.SOLV>
0

>  <SCORE.INTRA.SOLV.lig_0>
-48.3454

>  <SCORE.INTRA.VDW>
0

>  <SCORE.INTRA.VDW.0>
0

>  <SCORE.INTRA.norm>
0

>  <SCORE.RESTR>
0

>  <SCORE.RESTR.CAVITY>
0

>  <SCORE.RESTR.norm>
0

>  <SCORE.SYSTEM>
0

>  <SCORE.SYSTEM.CONST>
0

>  <SCORE.SYSTEM.DIHEDRAL>
0

>  <SCORE.SYSTEM.SOLV>
0

>  <SCORE.SYSTEM.norm>
0

>  <SCORE.heavy>
11

>  <SCORE.norm>
-1.04351

>  <RMSD>
0.635

$$$$
ligand
 OpenBabel01301917033D
libRbt.so/2013.1/901 2013/11/27
 11 12  0  0  0  0  0  0  0  0999 V2000
  -11.8693  -12.6901    8.8016 N   0  0  0  0  0  0  0  0  0  0  0  0
  -11.5100  -13.9800    8.9009 C   0  0  0  0  0  0  0  0  0  0  0  0
  -11.5324  -14.5824   10.0865 N   0  0  0  0  0  0  0  0  0  0  0  0
  -11.1183  -14.6649    7.8153 N   0  0  0  0  0  0  0  0  0  0  0  0
  -11.0750  -14.0743    6.6119 C   0  0  0  0  0  0  0  0  0  0  0  0
  -11.4414  -12.7408    6.4813 C   0  0  0  0  0  0  0  0  0  0  0  0
  -11.8462  -12.0527    7.6204 C   0  0  0  0  0  0  0  0  0  0  0  0
  -12.2145  -10.7777    7.5392 N   0  0  0  0  0  0  0  0  0  0  0  0
  -11.2933  -12.4085    5.2024 N   0  0  0  0  0  0  0  0  0  0  0  0
  -10.8524  -13.4824    4.5510 C   0  0  0  0  0  0  0  0  0  0  0  0
  -10.7186  -14.4971    5.4024 N   0  0  0  0  0  0  0  0  0  0  0  0
  1  7  2  0  0  0  0
  1  2  1  0  0  0  0
  2  3  1  0  0  0  0
  2  4  2  0  0  0  0
  4  5  1  0  0  0  0
  5  6  2  0  0  0  0
  5 11  1  0  0  0  0
  6  7  1  0  0  0  0
  6  9  1  0  0  0  0
  7  8  1  0  0  0  0
  9 10  1  0  0  0  0
 10 11  2  0  0  0  0
M  END
>  <CHROM.1>
-11.41074744,-13.26841789,7.20721308,2.01096841,-1.23597619,2.12129017

>  <Name>
ligand

>  <RI>
0

>  <Rbt.Current_Directory>
/home/itssahil/PROJECTS/Mol_Feturizer/New_Systems/rnas/2b57

>  <Rbt.Executable>
rbdock ($Id: //depot/dev/client3/rdock/2013.1/src/exe/rbdock.cxx#4 $)

>  <Rbt.Library>
libRbt.so (2013.1, Build901 2013/11/27)

>  <Rbt.Parameter_File>
/export/apps/rDock/src/rDock_2013.1_src/data/scripts/dock_solv.prm

>  <Rbt.Receptor>
prm/pocket_docking_3.prm

>  <SCORE>
-11.4788

>  <SCORE.INTER>
-11.4788

>  <SCORE.INTER.CONST>
1

>  <SCORE.INTER.POLAR>
0

>  <SCORE.INTER.ROT>
0

>  <SCORE.INTER.SOLV>
21.3291

>  <SCORE.INTER.VDW>
-18.3622

>  <SCORE.INTER.norm>
-1.04352

>  <SCORE.INTRA>
0

>  <SCORE.INTRA.DIHEDRAL>
0

>  <SCORE.INTRA.DIHEDRAL.0>
0

>  <SCORE.INTRA.POLAR>
0

>  <SCORE.INTRA.POLAR.0>
0

>  <SCORE.INTRA.REPUL>
0

>  <SCORE.INTRA.REPUL.0>
0

>  <SCORE.INTRA.SOLV>
0

>  <SCORE.INTRA.SOLV.lig_0>
-48.3454

>  <SCORE.INTRA.VDW>
0

>  <SCORE.INTRA.VDW.0>
0

>  <SCORE.INTRA.norm>
0

>  <SCORE.RESTR>
0

>  <SCORE.RESTR.CAVITY>
0

>  <SCORE.RESTR.norm>
0

>  <SCORE.SYSTEM>
0

>  <SCORE.SYSTEM.CONST>
0

>  <SCORE.SYSTEM.DIHEDRAL>
0

>  <SCORE.SYSTEM.SOLV>
0

>  <SCORE.SYSTEM.norm>
0

>  <SCORE.heavy>
11

>  <SCORE.norm>
-1.04352

>  <RMSD>
0.635

$$$$
ligand
 OpenBabel01301917033D
libRbt.so/2013.1/901 2013/11/27
 11 12  0  0  0  0  0  0  0  0999 V2000
  -11.8672  -12.6893    8.8029 N   0  0  0  0  0  0  0  0  0  0  0  0
  -11.5084  -13.9792    8.9028 C   0  0  0  0  0  0  0  0  0  0  0  0
  -11.5267  -14.5799   10.0894 N   0  0  0  0  0  0  0  0  0  0  0  0
  -11.1210  -14.6660    7.8168 N   0  0  0  0  0  0  0  0  0  0  0  0
  -11.0818  -14.0772    6.6124 C   0  0  0  0  0  0  0  0  0  0  0  0
  -11.4478  -12.7436    6.4812 C   0  0  0  0  0  0  0  0  0  0  0  0
  -11.8480  -12.0537    7.6207 C   0  0  0  0  0  0  0  0  0  0  0  0
  -12.2159  -10.7785    7.5390 N   0  0  0  0  0  0  0  0  0  0  0  0
  -11.3042  -12.4133    5.2012 N   0  0  0  0  0  0  0  0  0  0  0  0
  -10.8665  -13.4885    4.5498 C   0  0  0  0  0  0  0  0  0  0  0  0
  -10.7301  -14.5020    5.4022 N   0  0  0  0  0  0  0  0  0  0  0  0
  1  7  2  0  0  0  0
  1  2  1  0  0  0  0
  2  3  1  0  0  0  0
  2  4  2  0  0  0  0
  4  5  1  0  0  0  0
  5  6  2  0  0  0  0
  5 11  1  0  0  0  0
  6  7  1  0  0  0  0
  6  9  1  0  0  0  0
  7  8  1  0  0  0  0
  9 10  1  0  0  0  0
 10 11  2  0  0  0  0
M  END
>  <CHROM.1>
-11.41486000,-13.27023752,7.20775006,2.00235665,-1.23843188,2.11166737

>  <Name>
ligand

>  <RI>
0

>  <Rbt.Current_Directory>
/home/itssahil/PROJECTS/Mol_Feturizer/New_Systems/rnas/2b57

>  <Rbt.Executable>
rbdock ($Id: //depot/dev/client3/rdock/2013.1/src/exe/rbdock.cxx#4 $)

>  <Rbt.Library>
libRbt.so (2013.1, Build901 2013/11/27)

>  <Rbt.Parameter_File>
/export/apps/rDock/src/rDock_2013.1_src/data/scripts/dock_solv.prm

>  <Rbt.Receptor>
prm/pocket_docking_4.prm

>  <SCORE>
-11.4713

>  <SCORE.INTER>
-11.4713

>  <SCORE.INTER.CONST>
1

>  <SCORE.INTER.POLAR>
0

>  <SCORE.INTER.ROT>
0

>  <SCORE.INTER.SOLV>
21.3282

>  <SCORE.INTER.VDW>
-18.357

>  <SCORE.INTER.norm>
-1.04285

>  <SCORE.INTRA>
0

>  <SCORE.INTRA.DIHEDRAL>
0

>  <SCORE.INTRA.DIHEDRAL.0>
0

>  <SCORE.INTRA.POLAR>
0

>  <SCORE.INTRA.POLAR.0>
0

>  <SCORE.INTRA.REPUL>
0

>  <SCORE.INTRA.REPUL.0>
0

>  <SCORE.INTRA.SOLV>
0

>  <SCORE.INTRA.SOLV.lig_0>
-48.3454

>  <SCORE.INTRA.VDW>
0

>  <SCORE.INTRA.VDW.0>
0

>  <SCORE.INTRA.norm>
0

>  <SCORE.RESTR>
0

>  <SCORE.RESTR.CAVITY>
0

>  <SCORE.RESTR.norm>
0

>  <SCORE.SYSTEM>
0

>  <SCORE.SYSTEM.CONST>
0

>  <SCORE.SYSTEM.DIHEDRAL>
0

>  <SCORE.SYSTEM.SOLV>
0

>  <SCORE.SYSTEM.norm>
0

>  <SCORE.heavy>
11

>  <SCORE.norm>
-1.04285

>  <RMSD>
0.635

$$$$
ligand
 OpenBabel01301917033D
libRbt.so/2013.1/901 2013/11/27
 11 12  0  0  0  0  0  0  0  0999 V2000
  -11.8403  -12.7644    8.8274 N   0  0  0  0  0  0  0  0  0  0  0  0
  -11.4644  -14.0503    8.9150 C   0  0  0  0  0  0  0  0  0  0  0  0
  -11.4714  -14.6614   10.0963 N   0  0  0  0  0  0  0  0  0  0  0  0
  -11.0714  -14.7226    7.8220 N   0  0  0  0  0  0  0  0  0  0  0  0
  -11.0434  -14.1229    6.6226 C   0  0  0  0  0  0  0  0  0  0  0  0
  -11.4271  -12.7931    6.5040 C   0  0  0  0  0  0  0  0  0  0  0  0
  -11.8329  -12.1183    7.6507 C   0  0  0  0  0  0  0  0  0  0  0  0
  -12.2175  -10.8474    7.5812 N   0  0  0  0  0  0  0  0  0  0  0  0
  -11.2916  -12.4499    5.2266 N   0  0  0  0  0  0  0  0  0  0  0  0
  -10.8419  -13.5136    4.5646 C   0  0  0  0  0  0  0  0  0  0  0  0
  -10.6898  -14.5326    5.4078 N   0  0  0  0  0  0  0  0  0  0  0  0
  1  7  2  0  0  0  0
  1  2  1  0  0  0  0
  2  3  1  0  0  0  0
  2  4  2  0  0  0  0
  4  5  1  0  0  0  0
  5  6  2  0  0  0  0
  5 11  1  0  0  0  0
  6  7  1  0  0  0  0
  6  9  1  0  0  0  0
  7  8  1  0  0  0  0
  9 10  1  0  0  0  0
 10 11  2  0  0  0  0
M  END
>  <CHROM.1>
-11.38517356,-13.32551195,7.22590709,1.97479294,-1.22868636,2.09434764

>  <Name>
ligand

>  <RI>
0

>  <Rbt.Current_Directory>
/home/itssahil/PROJECTS/Mol_Feturizer/New_Systems/rnas/2b57

>  <Rbt.Executable>
rbdock ($Id: //depot/dev/client3/rdock/2013.1/src/exe/rbdock.cxx#4 $)

>  <Rbt.Library>
libRbt.so (2013.1, Build901 2013/11/27)

>  <Rbt.Parameter_File>
/export/apps/rDock/src/rDock_2013.1_src/data/scripts/dock_solv.prm

>  <Rbt.Receptor>
prm/pocket_docking_4.prm

>  <SCORE>
-11.4464

>  <SCORE.INTER>
-11.4464

>  <SCORE.INTER.CONST>
1

>  <SCORE.INTER.POLAR>
0

>  <SCORE.INTER.ROT>
0

>  <SCORE.INTER.SOLV>
21.3736

>  <SCORE.INTER.VDW>
-18.3554

>  <SCORE.INTER.norm>
-1.04058

>  <SCORE.INTRA>
0

>  <SCORE.INTRA.DIHEDRAL>
0

>  <SCORE.INTRA.DIHEDRAL.0>
0

>  <SCORE.INTRA.POLAR>
0

>  <SCORE.INTRA.POLAR.0>
0

>  <SCORE.INTRA.REPUL>
0

>  <SCORE.INTRA.REPUL.0>
0

>  <SCORE.INTRA.SOLV>
0

>  <SCORE.INTRA.SOLV.lig_0>
-48.3454

>  <SCORE.INTRA.VDW>
0

>  <SCORE.INTRA.VDW.0>
0

>  <SCORE.INTRA.norm>
0

>  <SCORE.RESTR>
0

>  <SCORE.RESTR.CAVITY>
0

>  <SCORE.RESTR.norm>
0

>  <SCORE.SYSTEM>
0

>  <SCORE.SYSTEM.CONST>
0

>  <SCORE.SYSTEM.DIHEDRAL>
0

>  <SCORE.SYSTEM.SOLV>
0

>  <SCORE.SYSTEM.norm>
0

>  <SCORE.heavy>
11

>  <SCORE.norm>
-1.04058

>  <RMSD>
0.635

$$$$
ligand
 OpenBabel01301917033D
libRbt.so/2013.1/901 2013/11/27
 11 12  0  0  0  0  0  0  0  0999 V2000
  -11.8701  -12.6891    8.8010 N   0  0  0  0  0  0  0  0  0  0  0  0
  -11.5100  -13.9787    8.9008 C   0  0  0  0  0  0  0  0  0  0  0  0
  -11.5315  -14.5806   10.0867 N   0  0  0  0  0  0  0  0  0  0  0  0
  -11.1181  -14.6639    7.8154 N   0  0  0  0  0  0  0  0  0  0  0  0
  -11.0756  -14.0738    6.6117 C   0  0  0  0  0  0  0  0  0  0  0  0
  -11.4429  -12.7406    6.4806 C   0  0  0  0  0  0  0  0  0  0  0  0
  -11.8478  -12.0523    7.6195 C   0  0  0  0  0  0  0  0  0  0  0  0
  -12.2171  -10.7775    7.5379 N   0  0  0  0  0  0  0  0  0  0  0  0
  -11.2954  -12.4088    5.2015 N   0  0  0  0  0  0  0  0  0  0  0  0
  -10.8541  -13.4827    4.5504 C   0  0  0  0  0  0  0  0  0  0  0  0
  -10.7193  -14.4969    5.4023 N   0  0  0  0  0  0  0  0  0  0  0  0
  1  7  2  0  0  0  0
  1  2  1  0  0  0  0
  2  3  1  0  0  0  0
  2  4  2  0  0  0  0
  4  5  1  0  0  0  0
  5  6  2  0  0  0  0
  5 11  1  0  0  0  0
  6  7  1  0  0  0  0
  6  9  1  0  0  0  0
  7  8  1  0  0  0  0
  9 10  1  0  0  0  0
 10 11  2  0  0  0  0
M  END
>  <CHROM.1>
-11.41171464,-13.26786243,7.20675867,2.00906109,-1.23558247,2.11901987

>  <Name>
ligand

>  <RI>
0

>  <Rbt.Current_Directory>
/home/itssahil/PROJECTS/Mol_Feturizer/New_Systems/rnas/2b57

>  <Rbt.Executable>
rbdock ($Id: //depot/dev/client3/rdock/2013.1/src/exe/rbdock.cxx#4 $)

>  <Rbt.Library>
libRbt.so (2013.1, Build901 2013/11/27)

>  <Rbt.Parameter_File>
/export/apps/rDock/src/rDock_2013.1_src/data/scripts/dock_solv.prm

>  <Rbt.Receptor>
prm/pocket_docking_6.prm

>  <SCORE>
-11.4771

>  <SCORE.INTER>
-11.4771

>  <SCORE.INTER.CONST>
1

>  <SCORE.INTER.POLAR>
0

>  <SCORE.INTER.ROT>
0

>  <SCORE.INTER.SOLV>
21.3229

>  <SCORE.INTER.VDW>
-18.3591

>  <SCORE.INTER.norm>
-1.04338

>  <SCORE.INTRA>
0

>  <SCORE.INTRA.DIHEDRAL>
0

>  <SCORE.INTRA.DIHEDRAL.0>
0

>  <SCORE.INTRA.POLAR>
0

>  <SCORE.INTRA.POLAR.0>
0

>  <SCORE.INTRA.REPUL>
0

>  <SCORE.INTRA.REPUL.0>
0

>  <SCORE.INTRA.SOLV>
0

>  <SCORE.INTRA.SOLV.lig_0>
-48.3454

>  <SCORE.INTRA.VDW>
0

>  <SCORE.INTRA.VDW.0>
0

>  <SCORE.INTRA.norm>
0

>  <SCORE.RESTR>
0

>  <SCORE.RESTR.CAVITY>
0

>  <SCORE.RESTR.norm>
0

>  <SCORE.SYSTEM>
0

>  <SCORE.SYSTEM.CONST>
0

>  <SCORE.SYSTEM.DIHEDRAL>
0

>  <SCORE.SYSTEM.SOLV>
0

>  <SCORE.SYSTEM.norm>
0

>  <SCORE.heavy>
11

>  <SCORE.norm>
-1.04338

>  <RMSD>
0.635

$$$$
ligand
 OpenBabel01301917033D
libRbt.so/2013.1/901 2013/11/27
 11 12  0  0  0  0  0  0  0  0999 V2000
  -11.8679  -12.6882    8.8005 N   0  0  0  0  0  0  0  0  0  0  0  0
  -11.5093  -13.9783    8.8997 C   0  0  0  0  0  0  0  0  0  0  0  0
  -11.5323  -14.5809   10.0852 N   0  0  0  0  0  0  0  0  0  0  0  0
  -11.1174  -14.6632    7.8142 N   0  0  0  0  0  0  0  0  0  0  0  0
  -11.0735  -14.0724    6.6109 C   0  0  0  0  0  0  0  0  0  0  0  0
  -11.4392  -12.7386    6.4804 C   0  0  0  0  0  0  0  0  0  0  0  0
  -11.8442  -12.0506    7.6194 C   0  0  0  0  0  0  0  0  0  0  0  0
  -12.2119  -10.7754    7.5384 N   0  0  0  0  0  0  0  0  0  0  0  0
  -11.2905  -12.4062    5.2016 N   0  0  0  0  0  0  0  0  0  0  0  0
  -10.8499  -13.4802    4.5501 C   0  0  0  0  0  0  0  0  0  0  0  0
  -10.7168  -14.4951    5.4014 N   0  0  0  0  0  0  0  0  0  0  0  0
  1  7  2  0  0  0  0
  1  2  1  0  0  0  0
  2  3  1  0  0  0  0
  2  4  2  0  0  0  0
  4  5  1  0  0  0  0
  5  6  2  0  0  0  0
  5 11  1  0  0  0  0
  6  7  1  0  0  0  0
  6  9  1  0  0  0  0
  7  8  1  0  0  0  0
  9 10  1  0  0  0  0
 10 11  2  0  0  0  0
M  END
>  <CHROM.1>
-11.40907810,-13.26643006,7.20621368,2.01253351,-1.23617177,2.12293707

>  <Name>
ligand

>  <RI>
0

>  <Rbt.Current_Directory>
/home/itssahil/PROJECTS/Mol_Feturizer/New_Systems/rnas/2b57

>  <Rbt.Executable>
rbdock ($Id: //depot/dev/client3/rdock/2013.1/src/exe/rbdock.cxx#4 $)

>  <Rbt.Library>
libRbt.so (2013.1, Build901 2013/11/27)

>  <Rbt.Parameter_File>
/export/apps/rDock/src/rDock_2013.1_src/data/scripts/dock_solv.prm

>  <Rbt.Receptor>
prm/blind_docking_40.prm

>  <SCORE>
-11.479

>  <SCORE.INTER>
-11.479

>  <SCORE.INTER.CONST>
1

>  <SCORE.INTER.POLAR>
0

>  <SCORE.INTER.ROT>
0

>  <SCORE.INTER.SOLV>
21.3354

>  <SCORE.INTER.VDW>
-18.3645

>  <SCORE.INTER.norm>
-1.04355

>  <SCORE.INTRA>
0

>  <SCORE.INTRA.DIHEDRAL>
0

>  <SCORE.INTRA.DIHEDRAL.0>
0

>  <SCORE.INTRA.POLAR>
0

>  <SCORE.INTRA.POLAR.0>
0

>  <SCORE.INTRA.REPUL>
0

>  <SCORE.INTRA.REPUL.0>
0

>  <SCORE.INTRA.SOLV>
0

>  <SCORE.INTRA.SOLV.lig_0>
-48.3454

>  <SCORE.INTRA.VDW>
0

>  <SCORE.INTRA.VDW.0>
0

>  <SCORE.INTRA.norm>
0

>  <SCORE.RESTR>
0

>  <SCORE.RESTR.CAVITY>
0

>  <SCORE.RESTR.norm>
0

>  <SCORE.SYSTEM>
0

>  <SCORE.SYSTEM.CONST>
0

>  <SCORE.SYSTEM.DIHEDRAL>
0

>  <SCORE.SYSTEM.SOLV>
0

>  <SCORE.SYSTEM.norm>
0

>  <SCORE.heavy>
11

>  <SCORE.norm>
-1.04355

>  <RMSD>
0.636

$$$$
ligand
 OpenBabel01301917033D
libRbt.so/2013.1/901 2013/11/27
 11 12  0  0  0  0  0  0  0  0999 V2000
  -11.8679  -12.6878    8.8011 N   0  0  0  0  0  0  0  0  0  0  0  0
  -11.5096  -13.9779    8.9005 C   0  0  0  0  0  0  0  0  0  0  0  0
  -11.5319  -14.5801   10.0862 N   0  0  0  0  0  0  0  0  0  0  0  0
  -11.1190  -14.6634    7.8148 N   0  0  0  0  0  0  0  0  0  0  0  0
  -11.0759  -14.0730    6.6113 C   0  0  0  0  0  0  0  0  0  0  0  0
  -11.4412  -12.7392    6.4806 C   0  0  0  0  0  0  0  0  0  0  0  0
  -11.8449  -12.0506    7.6198 C   0  0  0  0  0  0  0  0  0  0  0  0
  -12.2122  -10.7752    7.5386 N   0  0  0  0  0  0  0  0  0  0  0  0
  -11.2935  -12.4073    5.2015 N   0  0  0  0  0  0  0  0  0  0  0  0
  -10.8539  -13.4817    4.5501 C   0  0  0  0  0  0  0  0  0  0  0  0
  -10.7204  -14.4963    5.4017 N   0  0  0  0  0  0  0  0  0  0  0  0
  1  7  2  0  0  0  0
  1  2  1  0  0  0  0
  2  3  1  0  0  0  0
  2  4  2  0  0  0  0
  4  5  1  0  0  0  0
  5  6  2  0  0  0  0
  5 11  1  0  0  0  0
  6  7  1  0  0  0  0
  6  9  1  0  0  0  0
  7  8  1  0  0  0  0
  9 10  1  0  0  0  0
 10 11  2  0  0  0  0
M  END
>  <CHROM.1>
-11.41062773,-13.26673870,7.20660689,2.01093371,-1.23695143,2.12106526

>  <Name>
ligand

>  <RI>
0

>  <Rbt.Current_Directory>
/home/itssahil/PROJECTS/Mol_Feturizer/New_Systems/rnas/2b57

>  <Rbt.Executable>
rbdock ($Id: //depot/dev/client3/rdock/2013.1/src/exe/rbdock.cxx#4 $)

>  <Rbt.Library>
libRbt.so (2013.1, Build901 2013/11/27)

>  <Rbt.Parameter_File>
/export/apps/rDock/src/rDock_2013.1_src/data/scripts/dock_solv.prm

>  <Rbt.Receptor>
prm/blind_docking_80.prm

>  <SCORE>
-11.4786

>  <SCORE.INTER>
-11.4786

>  <SCORE.INTER.CONST>
1

>  <SCORE.INTER.POLAR>
0

>  <SCORE.INTER.ROT>
0

>  <SCORE.INTER.SOLV>
21.3352

>  <SCORE.INTER.VDW>
-18.3641

>  <SCORE.INTER.norm>
-1.04351

>  <SCORE.INTRA>
0

>  <SCORE.INTRA.DIHEDRAL>
0

>  <SCORE.INTRA.DIHEDRAL.0>
0

>  <SCORE.INTRA.POLAR>
0

>  <SCORE.INTRA.POLAR.0>
0

>  <SCORE.INTRA.REPUL>
0

>  <SCORE.INTRA.REPUL.0>
0

>  <SCORE.INTRA.SOLV>
0

>  <SCORE.INTRA.SOLV.lig_0>
-48.3454

>  <SCORE.INTRA.VDW>
0

>  <SCORE.INTRA.VDW.0>
0

>  <SCORE.INTRA.norm>
0

>  <SCORE.RESTR>
0

>  <SCORE.RESTR.CAVITY>
0

>  <SCORE.RESTR.norm>
0

>  <SCORE.SYSTEM>
0

>  <SCORE.SYSTEM.CONST>
0

>  <SCORE.SYSTEM.DIHEDRAL>
0

>  <SCORE.SYSTEM.SOLV>
0

>  <SCORE.SYSTEM.norm>
0

>  <SCORE.heavy>
11

>  <SCORE.norm>
-1.04351

>  <RMSD>
0.636

$$$$
ligand
 OpenBabel01301917033D
libRbt.so/2013.1/901 2013/11/27
 11 12  0  0  0  0  0  0  0  0999 V2000
  -11.8383  -12.7636    8.8310 N   0  0  0  0  0  0  0  0  0  0  0  0
  -11.4889  -14.0577    8.9068 C   0  0  0  0  0  0  0  0  0  0  0  0
  -11.5089  -14.6794   10.0824 N   0  0  0  0  0  0  0  0  0  0  0  0
  -11.1093  -14.7278    7.8077 N   0  0  0  0  0  0  0  0  0  0  0  0
  -11.0686  -14.1177    6.6139 C   0  0  0  0  0  0  0  0  0  0  0  0
  -11.4249  -12.7793    6.5076 C   0  0  0  0  0  0  0  0  0  0  0  0
  -11.8173  -12.1070    7.6603 C   0  0  0  0  0  0  0  0  0  0  0  0
  -12.1758  -10.8278    7.6024 N   0  0  0  0  0  0  0  0  0  0  0  0
  -11.2819  -12.4272    5.2334 N   0  0  0  0  0  0  0  0  0  0  0  0
  -10.8538  -13.4937    4.5617 C   0  0  0  0  0  0  0  0  0  0  0  0
  -10.7229  -14.5233    5.3955 N   0  0  0  0  0  0  0  0  0  0  0  0
  1  7  2  0  0  0  0
  1  2  1  0  0  0  0
  2  3  1  0  0  0  0
  2  4  2  0  0  0  0
  4  5  1  0  0  0  0
  5  6  2  0  0  0  0
  5 11  1  0  0  0  0
  6  7  1  0  0  0  0
  6  9  1  0  0  0  0
  7  8  1  0  0  0  0
  9 10  1  0  0  0  0
 10 11  2  0  0  0  0
M  END
>  <CHROM.1>
-11.39417083,-13.31911175,7.22448895,2.00795016,-1.24604179,2.13490774

>  <Name>
ligand

>  <RI>
0

>  <Rbt.Current_Directory>
/home/itssahil/PROJECTS/Mol_Feturizer/New_Systems/rnas/2b57

>  <Rbt.Executable>
rbdock ($Id: //depot/dev/client3/rdock/2013.1/src/exe/rbdock.cxx#4 $)

>  <Rbt.Library>
libRbt.so (2013.1, Build901 2013/11/27)

>  <Rbt.Parameter_File>
/export/apps/rDock/src/rDock_2013.1_src/data/scripts/dock_solv.prm

>  <Rbt.Receptor>
prm/pocket_docking_3.prm

>  <SCORE>
-11.4706

>  <SCORE.INTER>
-11.4706

>  <SCORE.INTER.CONST>
1

>  <SCORE.INTER.POLAR>
0

>  <SCORE.INTER.ROT>
0

>  <SCORE.INTER.SOLV>
21.5541

>  <SCORE.INTER.VDW>
-18.4318

>  <SCORE.INTER.norm>
-1.04278

>  <SCORE.INTRA>
0

>  <SCORE.INTRA.DIHEDRAL>
0

>  <SCORE.INTRA.DIHEDRAL.0>
0

>  <SCORE.INTRA.POLAR>
0

>  <SCORE.INTRA.POLAR.0>
0

>  <SCORE.INTRA.REPUL>
0

>  <SCORE.INTRA.REPUL.0>
0

>  <SCORE.INTRA.SOLV>
0

>  <SCORE.INTRA.SOLV.lig_0>
-48.3454

>  <SCORE.INTRA.VDW>
0

>  <SCORE.INTRA.VDW.0>
0

>  <SCORE.INTRA.norm>
0

>  <SCORE.RESTR>
0

>  <SCORE.RESTR.CAVITY>
0

>  <SCORE.RESTR.norm>
0

>  <SCORE.SYSTEM>
0

>  <SCORE.SYSTEM.CONST>
0

>  <SCORE.SYSTEM.DIHEDRAL>
0

>  <SCORE.SYSTEM.SOLV>
0

>  <SCORE.SYSTEM.norm>
0

>  <SCORE.heavy>
11

>  <SCORE.norm>
-1.04278

>  <RMSD>
0.636

$$$$
ligand
 OpenBabel01301917033D
libRbt.so/2013.1/901 2013/11/27
 11 12  0  0  0  0  0  0  0  0999 V2000
  -11.8677  -12.6855    8.8001 N   0  0  0  0  0  0  0  0  0  0  0  0
  -11.5066  -13.9748    8.9002 C   0  0  0  0  0  0  0  0  0  0  0  0
  -11.5302  -14.5771   10.0858 N   0  0  0  0  0  0  0  0  0  0  0  0
  -11.1119  -14.6593    7.8154 N   0  0  0  0  0  0  0  0  0  0  0  0
  -11.0674  -14.0688    6.6120 C   0  0  0  0  0  0  0  0  0  0  0  0
  -11.4355  -12.7358    6.4806 C   0  0  0  0  0  0  0  0  0  0  0  0
  -11.8434  -12.0483    7.6188 C   0  0  0  0  0  0  0  0  0  0  0  0
  -12.2135  -10.7737    7.5369 N   0  0  0  0  0  0  0  0  0  0  0  0
  -11.2856  -12.4035    5.2019 N   0  0  0  0  0  0  0  0  0  0  0  0
  -10.8420  -13.4768    4.5514 C   0  0  0  0  0  0  0  0  0  0  0  0
  -10.7082  -14.4912    5.4032 N   0  0  0  0  0  0  0  0  0  0  0  0
  1  7  2  0  0  0  0
  1  2  1  0  0  0  0
  2  3  1  0  0  0  0
  2  4  2  0  0  0  0
  4  5  1  0  0  0  0
  5  6  2  0  0  0  0
  5 11  1  0  0  0  0
  6  7  1  0  0  0  0
  6  9  1  0  0  0  0
  7  8  1  0  0  0  0
  9 10  1  0  0  0  0
 10 11  2  0  0  0  0
M  END
>  <CHROM.1>
-11.40539829,-13.26332784,7.20659747,2.01317855,-1.23376779,2.12324651

>  <Name>
ligand

>  <RI>
0

>  <Rbt.Current_Directory>
/home/itssahil/PROJECTS/Mol_Feturizer/New_Systems/rnas/2b57

>  <Rbt.Executable>
rbdock ($Id: //depot/dev/client3/rdock/2013.1/src/exe/rbdock.cxx#4 $)

>  <Rbt.Library>
libRbt.so (2013.1, Build901 2013/11/27)

>  <Rbt.Parameter_File>
/export/apps/rDock/src/rDock_2013.1_src/data/scripts/dock_solv.prm

>  <Rbt.Receptor>
prm/pocket_docking_4.prm

>  <SCORE>
-11.4785

>  <SCORE.INTER>
-11.4785

>  <SCORE.INTER.CONST>
1

>  <SCORE.INTER.POLAR>
0

>  <SCORE.INTER.ROT>
0

>  <SCORE.INTER.SOLV>
21.3255

>  <SCORE.INTER.VDW>
-18.3608

>  <SCORE.INTER.norm>
-1.0435

>  <SCORE.INTRA>
0

>  <SCORE.INTRA.DIHEDRAL>
0

>  <SCORE.INTRA.DIHEDRAL.0>
0

>  <SCORE.INTRA.POLAR>
0

>  <SCORE.INTRA.POLAR.0>
0

>  <SCORE.INTRA.REPUL>
0

>  <SCORE.INTRA.REPUL.0>
0

>  <SCORE.INTRA.SOLV>
0

>  <SCORE.INTRA.SOLV.lig_0>
-48.3454

>  <SCORE.INTRA.VDW>
0

>  <SCORE.INTRA.VDW.0>
0

>  <SCORE.INTRA.norm>
0

>  <SCORE.RESTR>
0

>  <SCORE.RESTR.CAVITY>
0

>  <SCORE.RESTR.norm>
0

>  <SCORE.SYSTEM>
0

>  <SCORE.SYSTEM.CONST>
0

>  <SCORE.SYSTEM.DIHEDRAL>
0

>  <SCORE.SYSTEM.SOLV>
0

>  <SCORE.SYSTEM.norm>
0

>  <SCORE.heavy>
11

>  <SCORE.norm>
-1.0435

>  <RMSD>
0.636

$$$$
ligand
 OpenBabel01301917033D
libRbt.so/2013.1/901 2013/11/27
 11 12  0  0  0  0  0  0  0  0999 V2000
  -11.8693  -12.6889    8.8008 N   0  0  0  0  0  0  0  0  0  0  0  0
  -11.5094  -13.9786    8.9006 C   0  0  0  0  0  0  0  0  0  0  0  0
  -11.5329  -14.5810   10.0861 N   0  0  0  0  0  0  0  0  0  0  0  0
  -11.1158  -14.6633    7.8155 N   0  0  0  0  0  0  0  0  0  0  0  0
  -11.0714  -14.0726    6.6121 C   0  0  0  0  0  0  0  0  0  0  0  0
  -11.4384  -12.7393    6.4811 C   0  0  0  0  0  0  0  0  0  0  0  0
  -11.8451  -12.0515    7.6196 C   0  0  0  0  0  0  0  0  0  0  0  0
  -12.2141  -10.7766    7.5380 N   0  0  0  0  0  0  0  0  0  0  0  0
  -11.2888  -12.4069    5.2024 N   0  0  0  0  0  0  0  0  0  0  0  0
  -10.8465  -13.4806    4.5515 C   0  0  0  0  0  0  0  0  0  0  0  0
  -10.7131  -14.4952    5.4031 N   0  0  0  0  0  0  0  0  0  0  0  0
  1  7  2  0  0  0  0
  1  2  1  0  0  0  0
  2  3  1  0  0  0  0
  2  4  2  0  0  0  0
  4  5  1  0  0  0  0
  5  6  2  0  0  0  0
  5 11  1  0  0  0  0
  6  7  1  0  0  0  0
  6  9  1  0  0  0  0
  7  8  1  0  0  0  0
  9 10  1  0  0  0  0
 10 11  2  0  0  0  0
M  END
>  <CHROM.1>
-11.40837312,-13.26692368,7.20703799,2.01329113,-1.23478976,2.12348098

>  <Name>
ligand

>  <RI>
0

>  <Rbt.Current_Directory>
/home/itssahil/PROJECTS/Mol_Feturizer/New_Systems/rnas/2b57

>  <Rbt.Executable>
rbdock ($Id: //depot/dev/client3/rdock/2013.1/src/exe/rbdock.cxx#4 $)

>  <Rbt.Library>
libRbt.so (2013.1, Build901 2013/11/27)

>  <Rbt.Parameter_File>
/export/apps/rDock/src/rDock_2013.1_src/data/scripts/dock_solv.prm

>  <Rbt.Receptor>
prm/pocket_docking_5.prm

>  <SCORE>
-11.4796

>  <SCORE.INTER>
-11.4796

>  <SCORE.INTER.CONST>
1

>  <SCORE.INTER.POLAR>
0

>  <SCORE.INTER.ROT>
0

>  <SCORE.INTER.SOLV>
21.3275

>  <SCORE.INTER.VDW>
-18.3622

>  <SCORE.INTER.norm>
-1.0436

>  <SCORE.INTRA>
0

>  <SCORE.INTRA.DIHEDRAL>
0

>  <SCORE.INTRA.DIHEDRAL.0>
0

>  <SCORE.INTRA.POLAR>
0

>  <SCORE.INTRA.POLAR.0>
0

>  <SCORE.INTRA.REPUL>
0

>  <SCORE.INTRA.REPUL.0>
0

>  <SCORE.INTRA.SOLV>
0

>  <SCORE.INTRA.SOLV.lig_0>
-48.3454

>  <SCORE.INTRA.VDW>
0

>  <SCORE.INTRA.VDW.0>
0

>  <SCORE.INTRA.norm>
0

>  <SCORE.RESTR>
0

>  <SCORE.RESTR.CAVITY>
0

>  <SCORE.RESTR.norm>
0

>  <SCORE.SYSTEM>
0

>  <SCORE.SYSTEM.CONST>
0

>  <SCORE.SYSTEM.DIHEDRAL>
0

>  <SCORE.SYSTEM.SOLV>
0

>  <SCORE.SYSTEM.norm>
0

>  <SCORE.heavy>
11

>  <SCORE.norm>
-1.0436

>  <RMSD>
0.636

$$$$
ligand
 OpenBabel01301917033D
libRbt.so/2013.1/901 2013/11/27
 11 12  0  0  0  0  0  0  0  0999 V2000
  -11.8700  -12.6889    8.8004 N   0  0  0  0  0  0  0  0  0  0  0  0
  -11.5082  -13.9780    8.8998 C   0  0  0  0  0  0  0  0  0  0  0  0
  -11.5318  -14.5811   10.0850 N   0  0  0  0  0  0  0  0  0  0  0  0
  -11.1127  -14.6616    7.8147 N   0  0  0  0  0  0  0  0  0  0  0  0
  -11.0682  -14.0703    6.6117 C   0  0  0  0  0  0  0  0  0  0  0  0
  -11.4371  -12.7374    6.4810 C   0  0  0  0  0  0  0  0  0  0  0  0
  -11.8458  -12.0509    7.6196 C   0  0  0  0  0  0  0  0  0  0  0  0
  -12.2167  -10.7765    7.5383 N   0  0  0  0  0  0  0  0  0  0  0  0
  -11.2870  -12.4042    5.2026 N   0  0  0  0  0  0  0  0  0  0  0  0
  -10.8425  -13.4768    4.5516 C   0  0  0  0  0  0  0  0  0  0  0  0
  -10.7082  -14.4917    5.4028 N   0  0  0  0  0  0  0  0  0  0  0  0
  1  7  2  0  0  0  0
  1  2  1  0  0  0  0
  2  3  1  0  0  0  0
  2  4  2  0  0  0  0
  4  5  1  0  0  0  0
  5  6  2  0  0  0  0
  5 11  1  0  0  0  0
  6  7  1  0  0  0  0
  6  9  1  0  0  0  0
  7  8  1  0  0  0  0
  9 10  1  0  0  0  0
 10 11  2  0  0  0  0
M  END
>  <CHROM.1>
-11.40686345,-13.26537998,7.20671878,2.01301135,-1.23304387,2.12372411

>  <Name>
ligand

>  <RI>
0

>  <Rbt.Current_Directory>
/home/itssahil/PROJECTS/Mol_Feturizer/New_Systems/rnas/2b57

>  <Rbt.Executable>
rbdock ($Id: //depot/dev/client3/rdock/2013.1/src/exe/rbdock.cxx#4 $)

>  <Rbt.Library>
libRbt.so (2013.1, Build901 2013/11/27)

>  <Rbt.Parameter_File>
/export/apps/rDock/src/rDock_2013.1_src/data/scripts/dock_solv.prm

>  <Rbt.Receptor>
prm/pocket_docking_5.prm

>  <SCORE>
-11.4782

>  <SCORE.INTER>
-11.4782

>  <SCORE.INTER.CONST>
1

>  <SCORE.INTER.POLAR>
0

>  <SCORE.INTER.ROT>
0

>  <SCORE.INTER.SOLV>
21.3203

>  <SCORE.INTER.VDW>
-18.3589

>  <SCORE.INTER.norm>
-1.04347

>  <SCORE.INTRA>
0

>  <SCORE.INTRA.DIHEDRAL>
0

>  <SCORE.INTRA.DIHEDRAL.0>
0

>  <SCORE.INTRA.POLAR>
0

>  <SCORE.INTRA.POLAR.0>
0

>  <SCORE.INTRA.REPUL>
0

>  <SCORE.INTRA.REPUL.0>
0

>  <SCORE.INTRA.SOLV>
0

>  <SCORE.INTRA.SOLV.lig_0>
-48.3454

>  <SCORE.INTRA.VDW>
0

>  <SCORE.INTRA.VDW.0>
0

>  <SCORE.INTRA.norm>
0

>  <SCORE.RESTR>
0

>  <SCORE.RESTR.CAVITY>
0

>  <SCORE.RESTR.norm>
0

>  <SCORE.SYSTEM>
0

>  <SCORE.SYSTEM.CONST>
0

>  <SCORE.SYSTEM.DIHEDRAL>
0

>  <SCORE.SYSTEM.SOLV>
0

>  <SCORE.SYSTEM.norm>
0

>  <SCORE.heavy>
11

>  <SCORE.norm>
-1.04347

>  <RMSD>
0.636

$$$$
ligand
 OpenBabel01301917033D
libRbt.so/2013.1/901 2013/11/27
 11 12  0  0  0  0  0  0  0  0999 V2000
  -11.8896  -12.7678    8.8195 N   0  0  0  0  0  0  0  0  0  0  0  0
  -11.4669  -14.0405    8.8854 C   0  0  0  0  0  0  0  0  0  0  0  0
  -11.4748  -14.6795   10.0518 N   0  0  0  0  0  0  0  0  0  0  0  0
  -11.0262  -14.6711    7.7857 N   0  0  0  0  0  0  0  0  0  0  0  0
  -10.9966  -14.0422    6.6014 C   0  0  0  0  0  0  0  0  0  0  0  0
  -11.4281  -12.7253    6.5055 C   0  0  0  0  0  0  0  0  0  0  0  0
  -11.8827  -12.0940    7.6586 C   0  0  0  0  0  0  0  0  0  0  0  0
  -12.3140  -10.8371    7.6103 N   0  0  0  0  0  0  0  0  0  0  0  0
  -11.2797  -12.3468    5.2396 N   0  0  0  0  0  0  0  0  0  0  0  0
  -10.7762  -13.3766    4.5629 C   0  0  0  0  0  0  0  0  0  0  0  0
  -10.6028  -14.4091    5.3853 N   0  0  0  0  0  0  0  0  0  0  0  0
  1  7  2  0  0  0  0
  1  2  1  0  0  0  0
  2  3  1  0  0  0  0
  2  4  2  0  0  0  0
  4  5  1  0  0  0  0
  5  6  2  0  0  0  0
  5 11  1  0  0  0  0
  6  7  1  0  0  0  0
  6  9  1  0  0  0  0
  7  8  1  0  0  0  0
  9 10  1  0  0  0  0
 10 11  2  0  0  0  0
M  END
>  <CHROM.1>
-11.38071526,-13.27293457,7.21560538,1.97133144,-1.18542396,2.11468419

>  <Name>
ligand

>  <RI>
0

>  <Rbt.Current_Directory>
/home/itssahil/PROJECTS/Mol_Feturizer/New_Systems/rnas/2b57

>  <Rbt.Executable>
rbdock ($Id: //depot/dev/client3/rdock/2013.1/src/exe/rbdock.cxx#4 $)

>  <Rbt.Library>
libRbt.so (2013.1, Build901 2013/11/27)

>  <Rbt.Parameter_File>
/export/apps/rDock/src/rDock_2013.1_src/data/scripts/dock_solv.prm

>  <Rbt.Receptor>
prm/blind_docking_100.prm

>  <SCORE>
-11.432

>  <SCORE.INTER>
-11.432

>  <SCORE.INTER.CONST>
1

>  <SCORE.INTER.POLAR>
0

>  <SCORE.INTER.ROT>
0

>  <SCORE.INTER.SOLV>
21.0846

>  <SCORE.INTER.VDW>
-18.2496

>  <SCORE.INTER.norm>
-1.03928

>  <SCORE.INTRA>
0

>  <SCORE.INTRA.DIHEDRAL>
0

>  <SCORE.INTRA.DIHEDRAL.0>
0

>  <SCORE.INTRA.POLAR>
0

>  <SCORE.INTRA.POLAR.0>
0

>  <SCORE.INTRA.REPUL>
0

>  <SCORE.INTRA.REPUL.0>
0

>  <SCORE.INTRA.SOLV>
0

>  <SCORE.INTRA.SOLV.lig_0>
-48.3454

>  <SCORE.INTRA.VDW>
0

>  <SCORE.INTRA.VDW.0>
0

>  <SCORE.INTRA.norm>
0

>  <SCORE.RESTR>
0

>  <SCORE.RESTR.CAVITY>
0

>  <SCORE.RESTR.norm>
0

>  <SCORE.SYSTEM>
0

>  <SCORE.SYSTEM.CONST>
0

>  <SCORE.SYSTEM.DIHEDRAL>
0

>  <SCORE.SYSTEM.SOLV>
0

>  <SCORE.SYSTEM.norm>
0

>  <SCORE.heavy>
11

>  <SCORE.norm>
-1.03928

>  <RMSD>
0.637

$$$$
ligand
 OpenBabel01301917033D
libRbt.so/2013.1/901 2013/11/27
 11 12  0  0  0  0  0  0  0  0999 V2000
  -11.8388  -12.7636    8.8299 N   0  0  0  0  0  0  0  0  0  0  0  0
  -11.4909  -14.0583    8.9039 C   0  0  0  0  0  0  0  0  0  0  0  0
  -11.5104  -14.6813   10.0788 N   0  0  0  0  0  0  0  0  0  0  0  0
  -11.1133  -14.7276    7.8036 N   0  0  0  0  0  0  0  0  0  0  0  0
  -11.0732  -14.1163    6.6105 C   0  0  0  0  0  0  0  0  0  0  0  0
  -11.4279  -12.7773    6.5060 C   0  0  0  0  0  0  0  0  0  0  0  0
  -11.8181  -12.1058    7.6599 C   0  0  0  0  0  0  0  0  0  0  0  0
  -12.1751  -10.8261    7.6038 N   0  0  0  0  0  0  0  0  0  0  0  0
  -11.2859  -12.4239    5.2320 N   0  0  0  0  0  0  0  0  0  0  0  0
  -10.8598  -13.4903    4.5587 C   0  0  0  0  0  0  0  0  0  0  0  0
  -10.7294  -14.5210    5.3912 N   0  0  0  0  0  0  0  0  0  0  0  0
  1  7  2  0  0  0  0
  1  2  1  0  0  0  0
  2  3  1  0  0  0  0
  2  4  2  0  0  0  0
  4  5  1  0  0  0  0
  5  6  2  0  0  0  0
  5 11  1  0  0  0  0
  6  7  1  0  0  0  0
  6  9  1  0  0  0  0
  7  8  1  0  0  0  0
  9 10  1  0  0  0  0
 10 11  2  0  0  0  0
M  END
>  <CHROM.1>
-11.39706181,-13.31794217,7.22227457,2.00721145,-1.24771179,2.13531475

>  <Name>
ligand

>  <RI>
0

>  <Rbt.Current_Directory>
/home/itssahil/PROJECTS/Mol_Feturizer/New_Systems/rnas/2b57

>  <Rbt.Executable>
rbdock ($Id: //depot/dev/client3/rdock/2013.1/src/exe/rbdock.cxx#4 $)

>  <Rbt.Library>
libRbt.so (2013.1, Build901 2013/11/27)

>  <Rbt.Parameter_File>
/export/apps/rDock/src/rDock_2013.1_src/data/scripts/dock_solv.prm

>  <Rbt.Receptor>
prm/pocket_docking_3.prm

>  <SCORE>
-11.472

>  <SCORE.INTER>
-11.472

>  <SCORE.INTER.CONST>
1

>  <SCORE.INTER.POLAR>
0

>  <SCORE.INTER.ROT>
0

>  <SCORE.INTER.SOLV>
21.5638

>  <SCORE.INTER.VDW>
-18.4359

>  <SCORE.INTER.norm>
-1.04291

>  <SCORE.INTRA>
0

>  <SCORE.INTRA.DIHEDRAL>
0

>  <SCORE.INTRA.DIHEDRAL.0>
0

>  <SCORE.INTRA.POLAR>
0

>  <SCORE.INTRA.POLAR.0>
0

>  <SCORE.INTRA.REPUL>
0

>  <SCORE.INTRA.REPUL.0>
0

>  <SCORE.INTRA.SOLV>
0

>  <SCORE.INTRA.SOLV.lig_0>
-48.3454

>  <SCORE.INTRA.VDW>
0

>  <SCORE.INTRA.VDW.0>
0

>  <SCORE.INTRA.norm>
0

>  <SCORE.RESTR>
0

>  <SCORE.RESTR.CAVITY>
0

>  <SCORE.RESTR.norm>
0

>  <SCORE.SYSTEM>
0

>  <SCORE.SYSTEM.CONST>
0

>  <SCORE.SYSTEM.DIHEDRAL>
0

>  <SCORE.SYSTEM.SOLV>
0

>  <SCORE.SYSTEM.norm>
0

>  <SCORE.heavy>
11

>  <SCORE.norm>
-1.04291

>  <RMSD>
0.637

$$$$
ligand
 OpenBabel01301917033D
libRbt.so/2013.1/901 2013/11/27
 11 12  0  0  0  0  0  0  0  0999 V2000
  -11.8632  -12.6863    8.8009 N   0  0  0  0  0  0  0  0  0  0  0  0
  -11.5036  -13.9760    8.9010 C   0  0  0  0  0  0  0  0  0  0  0  0
  -11.5231  -14.5769   10.0874 N   0  0  0  0  0  0  0  0  0  0  0  0
  -11.1145  -14.6623    7.8153 N   0  0  0  0  0  0  0  0  0  0  0  0
  -11.0742  -14.0732    6.6110 C   0  0  0  0  0  0  0  0  0  0  0  0
  -11.4409  -12.7399    6.4797 C   0  0  0  0  0  0  0  0  0  0  0  0
  -11.8430  -12.0504    7.6189 C   0  0  0  0  0  0  0  0  0  0  0  0
  -12.2115  -10.7754    7.5370 N   0  0  0  0  0  0  0  0  0  0  0  0
  -11.2959  -12.4092    5.2000 N   0  0  0  0  0  0  0  0  0  0  0  0
  -10.8567  -13.4839    4.5488 C   0  0  0  0  0  0  0  0  0  0  0  0
  -10.7207  -14.4976    5.4012 N   0  0  0  0  0  0  0  0  0  0  0  0
  1  7  2  0  0  0  0
  1  2  1  0  0  0  0
  2  3  1  0  0  0  0
  2  4  2  0  0  0  0
  4  5  1  0  0  0  0
  5  6  2  0  0  0  0
  5 11  1  0  0  0  0
  6  7  1  0  0  0  0
  6  9  1  0  0  0  0
  7  8  1  0  0  0  0
  9 10  1  0  0  0  0
 10 11  2  0  0  0  0
M  END
>  <CHROM.1>
-11.40849933,-13.26659896,7.20616611,2.00455531,-1.23723578,2.11396457

>  <Name>
ligand

>  <RI>
0

>  <Rbt.Current_Directory>
/home/itssahil/PROJECTS/Mol_Feturizer/New_Systems/rnas/2b57

>  <Rbt.Executable>
rbdock ($Id: //depot/dev/client3/rdock/2013.1/src/exe/rbdock.cxx#4 $)

>  <Rbt.Library>
libRbt.so (2013.1, Build901 2013/11/27)

>  <Rbt.Parameter_File>
/export/apps/rDock/src/rDock_2013.1_src/data/scripts/dock_solv.prm

>  <Rbt.Receptor>
prm/pocket_docking_3.prm

>  <SCORE>
-11.4738

>  <SCORE.INTER>
-11.4738

>  <SCORE.INTER.CONST>
1

>  <SCORE.INTER.POLAR>
0

>  <SCORE.INTER.ROT>
0

>  <SCORE.INTER.SOLV>
21.3355

>  <SCORE.INTER.VDW>
-18.361

>  <SCORE.INTER.norm>
-1.04307

>  <SCORE.INTRA>
0

>  <SCORE.INTRA.DIHEDRAL>
0

>  <SCORE.INTRA.DIHEDRAL.0>
0

>  <SCORE.INTRA.POLAR>
0

>  <SCORE.INTRA.POLAR.0>
0

>  <SCORE.INTRA.REPUL>
0

>  <SCORE.INTRA.REPUL.0>
0

>  <SCORE.INTRA.SOLV>
0

>  <SCORE.INTRA.SOLV.lig_0>
-48.3454

>  <SCORE.INTRA.VDW>
0

>  <SCORE.INTRA.VDW.0>
0

>  <SCORE.INTRA.norm>
0

>  <SCORE.RESTR>
0

>  <SCORE.RESTR.CAVITY>
0

>  <SCORE.RESTR.norm>
0

>  <SCORE.SYSTEM>
0

>  <SCORE.SYSTEM.CONST>
0

>  <SCORE.SYSTEM.DIHEDRAL>
0

>  <SCORE.SYSTEM.SOLV>
0

>  <SCORE.SYSTEM.norm>
0

>  <SCORE.heavy>
11

>  <SCORE.norm>
-1.04307

>  <RMSD>
0.637

$$$$
ligand
 OpenBabel01301917033D
libRbt.so/2013.1/901 2013/11/27
 11 12  0  0  0  0  0  0  0  0999 V2000
  -11.8673  -12.6867    8.7995 N   0  0  0  0  0  0  0  0  0  0  0  0
  -11.5067  -13.9762    8.8989 C   0  0  0  0  0  0  0  0  0  0  0  0
  -11.5296  -14.5789   10.0843 N   0  0  0  0  0  0  0  0  0  0  0  0
  -11.1131  -14.6604    7.8135 N   0  0  0  0  0  0  0  0  0  0  0  0
  -11.0693  -14.0695    6.6103 C   0  0  0  0  0  0  0  0  0  0  0  0
  -11.4370  -12.7363    6.4796 C   0  0  0  0  0  0  0  0  0  0  0  0
  -11.8437  -12.0490    7.6185 C   0  0  0  0  0  0  0  0  0  0  0  0
  -12.2134  -10.7743    7.5372 N   0  0  0  0  0  0  0  0  0  0  0  0
  -11.2879  -12.4035    5.2009 N   0  0  0  0  0  0  0  0  0  0  0  0
  -10.8453  -13.4768    4.5497 C   0  0  0  0  0  0  0  0  0  0  0  0
  -10.7111  -14.4916    5.4011 N   0  0  0  0  0  0  0  0  0  0  0  0
  1  7  2  0  0  0  0
  1  2  1  0  0  0  0
  2  3  1  0  0  0  0
  2  4  2  0  0  0  0
  4  5  1  0  0  0  0
  5  6  2  0  0  0  0
  5 11  1  0  0  0  0
  6  7  1  0  0  0  0
  6  9  1  0  0  0  0
  7  8  1  0  0  0  0
  9 10  1  0  0  0  0
 10 11  2  0  0  0  0
M  END
>  <CHROM.1>
-11.40650267,-13.26407194,7.20545916,2.01181143,-1.23450137,2.12231763

>  <Name>
ligand

>  <RI>
0

>  <Rbt.Current_Directory>
/home/itssahil/PROJECTS/Mol_Feturizer/New_Systems/rnas/2b57

>  <Rbt.Executable>
rbdock ($Id: //depot/dev/client3/rdock/2013.1/src/exe/rbdock.cxx#4 $)

>  <Rbt.Library>
libRbt.so (2013.1, Build901 2013/11/27)

>  <Rbt.Parameter_File>
/export/apps/rDock/src/rDock_2013.1_src/data/scripts/dock_solv.prm

>  <Rbt.Receptor>
prm/pocket_docking_3.prm

>  <SCORE>
-11.4781

>  <SCORE.INTER>
-11.4781

>  <SCORE.INTER.CONST>
1

>  <SCORE.INTER.POLAR>
0

>  <SCORE.INTER.ROT>
0

>  <SCORE.INTER.SOLV>
21.3279

>  <SCORE.INTER.VDW>
-18.3613

>  <SCORE.INTER.norm>
-1.04346

>  <SCORE.INTRA>
0

>  <SCORE.INTRA.DIHEDRAL>
0

>  <SCORE.INTRA.DIHEDRAL.0>
0

>  <SCORE.INTRA.POLAR>
0

>  <SCORE.INTRA.POLAR.0>
0

>  <SCORE.INTRA.REPUL>
0

>  <SCORE.INTRA.REPUL.0>
0

>  <SCORE.INTRA.SOLV>
0

>  <SCORE.INTRA.SOLV.lig_0>
-48.3454

>  <SCORE.INTRA.VDW>
0

>  <SCORE.INTRA.VDW.0>
0

>  <SCORE.INTRA.norm>
0

>  <SCORE.RESTR>
0

>  <SCORE.RESTR.CAVITY>
0

>  <SCORE.RESTR.norm>
0

>  <SCORE.SYSTEM>
0

>  <SCORE.SYSTEM.CONST>
0

>  <SCORE.SYSTEM.DIHEDRAL>
0

>  <SCORE.SYSTEM.SOLV>
0

>  <SCORE.SYSTEM.norm>
0

>  <SCORE.heavy>
11

>  <SCORE.norm>
-1.04346

>  <RMSD>
0.637

$$$$
ligand
 OpenBabel01301917033D
libRbt.so/2013.1/901 2013/11/27
 11 12  0  0  0  0  0  0  0  0999 V2000
  -11.8661  -12.6872    8.7998 N   0  0  0  0  0  0  0  0  0  0  0  0
  -11.5044  -13.9763    8.8999 C   0  0  0  0  0  0  0  0  0  0  0  0
  -11.5251  -14.5778   10.0859 N   0  0  0  0  0  0  0  0  0  0  0  0
  -11.1117  -14.6613    7.8147 N   0  0  0  0  0  0  0  0  0  0  0  0
  -11.0700  -14.0714    6.6108 C   0  0  0  0  0  0  0  0  0  0  0  0
  -11.4389  -12.7387    6.4794 C   0  0  0  0  0  0  0  0  0  0  0  0
  -11.8447  -12.0506    7.6181 C   0  0  0  0  0  0  0  0  0  0  0  0
  -12.2155  -10.7763    7.5361 N   0  0  0  0  0  0  0  0  0  0  0  0
  -11.2919  -12.4071    5.2002 N   0  0  0  0  0  0  0  0  0  0  0  0
  -10.8493  -13.4806    4.5494 C   0  0  0  0  0  0  0  0  0  0  0  0
  -10.7132  -14.4945    5.4015 N   0  0  0  0  0  0  0  0  0  0  0  0
  1  7  2  0  0  0  0
  1  2  1  0  0  0  0
  2  3  1  0  0  0  0
  2  4  2  0  0  0  0
  4  5  1  0  0  0  0
  5  6  2  0  0  0  0
  5 11  1  0  0  0  0
  6  7  1  0  0  0  0
  6  9  1  0  0  0  0
  7  8  1  0  0  0  0
  9 10  1  0  0  0  0
 10 11  2  0  0  0  0
M  END
>  <CHROM.1>
-11.40704202,-13.26575334,7.20568282,2.00698531,-1.23452603,2.11678825

>  <Name>
ligand

>  <RI>
0

>  <Rbt.Current_Directory>
/home/itssahil/PROJECTS/Mol_Feturizer/New_Systems/rnas/2b57

>  <Rbt.Executable>
rbdock ($Id: //depot/dev/client3/rdock/2013.1/src/exe/rbdock.cxx#4 $)

>  <Rbt.Library>
libRbt.so (2013.1, Build901 2013/11/27)

>  <Rbt.Parameter_File>
/export/apps/rDock/src/rDock_2013.1_src/data/scripts/dock_solv.prm

>  <Rbt.Receptor>
prm/pocket_docking_5.prm

>  <SCORE>
-11.4746

>  <SCORE.INTER>
-11.4746

>  <SCORE.INTER.CONST>
1

>  <SCORE.INTER.POLAR>
0

>  <SCORE.INTER.ROT>
0

>  <SCORE.INTER.SOLV>
21.3242

>  <SCORE.INTER.VDW>
-18.3578

>  <SCORE.INTER.norm>
-1.04314

>  <SCORE.INTRA>
0

>  <SCORE.INTRA.DIHEDRAL>
0

>  <SCORE.INTRA.DIHEDRAL.0>
0

>  <SCORE.INTRA.POLAR>
0

>  <SCORE.INTRA.POLAR.0>
0

>  <SCORE.INTRA.REPUL>
0

>  <SCORE.INTRA.REPUL.0>
0

>  <SCORE.INTRA.SOLV>
0

>  <SCORE.INTRA.SOLV.lig_0>
-48.3454

>  <SCORE.INTRA.VDW>
0

>  <SCORE.INTRA.VDW.0>
0

>  <SCORE.INTRA.norm>
0

>  <SCORE.RESTR>
0

>  <SCORE.RESTR.CAVITY>
0

>  <SCORE.RESTR.norm>
0

>  <SCORE.SYSTEM>
0

>  <SCORE.SYSTEM.CONST>
0

>  <SCORE.SYSTEM.DIHEDRAL>
0

>  <SCORE.SYSTEM.SOLV>
0

>  <SCORE.SYSTEM.norm>
0

>  <SCORE.heavy>
11

>  <SCORE.norm>
-1.04314

>  <RMSD>
0.637

$$$$
ligand
 OpenBabel01301917033D
libRbt.so/2013.1/901 2013/11/27
 11 12  0  0  0  0  0  0  0  0999 V2000
  -11.8878  -12.6982    8.7961 N   0  0  0  0  0  0  0  0  0  0  0  0
  -11.5086  -13.9822    8.8977 C   0  0  0  0  0  0  0  0  0  0  0  0
  -11.5217  -14.5828   10.0843 N   0  0  0  0  0  0  0  0  0  0  0  0
  -11.1063  -14.6629    7.8133 N   0  0  0  0  0  0  0  0  0  0  0  0
  -11.0721  -14.0738    6.6089 C   0  0  0  0  0  0  0  0  0  0  0  0
  -11.4590  -12.7463    6.4759 C   0  0  0  0  0  0  0  0  0  0  0  0
  -11.8745  -12.0626    7.6137 C   0  0  0  0  0  0  0  0  0  0  0  0
  -12.2625  -10.7935    7.5303 N   0  0  0  0  0  0  0  0  0  0  0  0
  -11.3159  -12.4141    5.1964 N   0  0  0  0  0  0  0  0  0  0  0  0
  -10.8585  -13.4822    4.5469 C   0  0  0  0  0  0  0  0  0  0  0  0
  -10.7091  -14.4932    5.4002 N   0  0  0  0  0  0  0  0  0  0  0  0
  1  7  2  0  0  0  0
  1  2  1  0  0  0  0
  2  3  1  0  0  0  0
  2  4  2  0  0  0  0
  4  5  1  0  0  0  0
  5  6  2  0  0  0  0
  5 11  1  0  0  0  0
  6  7  1  0  0  0  0
  6  9  1  0  0  0  0
  7  8  1  0  0  0  0
  9 10  1  0  0  0  0
 10 11  2  0  0  0  0
M  END
>  <CHROM.1>
-11.42025041,-13.27217502,7.20275309,1.98741144,-1.22268071,2.09731041

>  <Name>
ligand

>  <RI>
0

>  <Rbt.Current_Directory>
/home/itssahil/PROJECTS/Mol_Feturizer/New_Systems/rnas/2b57

>  <Rbt.Executable>
rbdock ($Id: //depot/dev/client3/rdock/2013.1/src/exe/rbdock.cxx#4 $)

>  <Rbt.Library>
libRbt.so (2013.1, Build901 2013/11/27)

>  <Rbt.Parameter_File>
/export/apps/rDock/src/rDock_2013.1_src/data/scripts/dock_solv.prm

>  <Rbt.Receptor>
prm/pocket_docking_6.prm

>  <SCORE>
-11.4454

>  <SCORE.INTER>
-11.4454

>  <SCORE.INTER.CONST>
1

>  <SCORE.INTER.POLAR>
0

>  <SCORE.INTER.ROT>
0

>  <SCORE.INTER.SOLV>
21.2238

>  <SCORE.INTER.VDW>
-18.3049

>  <SCORE.INTER.norm>
-1.04049

>  <SCORE.INTRA>
0

>  <SCORE.INTRA.DIHEDRAL>
0

>  <SCORE.INTRA.DIHEDRAL.0>
0

>  <SCORE.INTRA.POLAR>
0

>  <SCORE.INTRA.POLAR.0>
0

>  <SCORE.INTRA.REPUL>
0

>  <SCORE.INTRA.REPUL.0>
0

>  <SCORE.INTRA.SOLV>
0

>  <SCORE.INTRA.SOLV.lig_0>
-48.3454

>  <SCORE.INTRA.VDW>
0

>  <SCORE.INTRA.VDW.0>
0

>  <SCORE.INTRA.norm>
0

>  <SCORE.RESTR>
0

>  <SCORE.RESTR.CAVITY>
0

>  <SCORE.RESTR.norm>
0

>  <SCORE.SYSTEM>
0

>  <SCORE.SYSTEM.CONST>
0

>  <SCORE.SYSTEM.DIHEDRAL>
0

>  <SCORE.SYSTEM.SOLV>
0

>  <SCORE.SYSTEM.norm>
0

>  <SCORE.heavy>
11

>  <SCORE.norm>
-1.04049

>  <RMSD>
0.637

$$$$
ligand
 OpenBabel01301917033D
libRbt.so/2013.1/901 2013/11/27
 11 12  0  0  0  0  0  0  0  0999 V2000
  -11.8639  -12.6841    8.8004 N   0  0  0  0  0  0  0  0  0  0  0  0
  -11.5041  -13.9738    8.9006 C   0  0  0  0  0  0  0  0  0  0  0  0
  -11.5236  -14.5746   10.0870 N   0  0  0  0  0  0  0  0  0  0  0  0
  -11.1146  -14.6601    7.8151 N   0  0  0  0  0  0  0  0  0  0  0  0
  -11.0743  -14.0711    6.6108 C   0  0  0  0  0  0  0  0  0  0  0  0
  -11.4413  -12.7378    6.4792 C   0  0  0  0  0  0  0  0  0  0  0  0
  -11.8437  -12.0484    7.6183 C   0  0  0  0  0  0  0  0  0  0  0  0
  -12.2126  -10.7735    7.5363 N   0  0  0  0  0  0  0  0  0  0  0  0
  -11.2962  -12.4072    5.1995 N   0  0  0  0  0  0  0  0  0  0  0  0
  -10.8566  -13.4819    4.5485 C   0  0  0  0  0  0  0  0  0  0  0  0
  -10.7205  -14.4954    5.4010 N   0  0  0  0  0  0  0  0  0  0  0  0
  1  7  2  0  0  0  0
  1  2  1  0  0  0  0
  2  3  1  0  0  0  0
  2  4  2  0  0  0  0
  4  5  1  0  0  0  0
  5  6  2  0  0  0  0
  5 11  1  0  0  0  0
  6  7  1  0  0  0  0
  6  9  1  0  0  0  0
  7  8  1  0  0  0  0
  9 10  1  0  0  0  0
 10 11  2  0  0  0  0
M  END
>  <CHROM.1>
-11.40887272,-13.26446360,7.20576875,2.00457846,-1.23693706,2.11390957

>  <Name>
ligand

>  <RI>
0

>  <Rbt.Current_Directory>
/home/itssahil/PROJECTS/Mol_Feturizer/New_Systems/rnas/2b57

>  <Rbt.Executable>
rbdock ($Id: //depot/dev/client3/rdock/2013.1/src/exe/rbdock.cxx#4 $)

>  <Rbt.Library>
libRbt.so (2013.1, Build901 2013/11/27)

>  <Rbt.Parameter_File>
/export/apps/rDock/src/rDock_2013.1_src/data/scripts/dock_solv.prm

>  <Rbt.Receptor>
prm/pocket_docking_7.prm

>  <SCORE>
-11.4746

>  <SCORE.INTER>
-11.4746

>  <SCORE.INTER.CONST>
1

>  <SCORE.INTER.POLAR>
0

>  <SCORE.INTER.ROT>
0

>  <SCORE.INTER.SOLV>
21.3307

>  <SCORE.INTER.VDW>
-18.36

>  <SCORE.INTER.norm>
-1.04315

>  <SCORE.INTRA>
0

>  <SCORE.INTRA.DIHEDRAL>
0

>  <SCORE.INTRA.DIHEDRAL.0>
0

>  <SCORE.INTRA.POLAR>
0

>  <SCORE.INTRA.POLAR.0>
0

>  <SCORE.INTRA.REPUL>
0

>  <SCORE.INTRA.REPUL.0>
0

>  <SCORE.INTRA.SOLV>
0

>  <SCORE.INTRA.SOLV.lig_0>
-48.3454

>  <SCORE.INTRA.VDW>
0

>  <SCORE.INTRA.VDW.0>
0

>  <SCORE.INTRA.norm>
0

>  <SCORE.RESTR>
0

>  <SCORE.RESTR.CAVITY>
0

>  <SCORE.RESTR.norm>
0

>  <SCORE.SYSTEM>
0

>  <SCORE.SYSTEM.CONST>
0

>  <SCORE.SYSTEM.DIHEDRAL>
0

>  <SCORE.SYSTEM.SOLV>
0

>  <SCORE.SYSTEM.norm>
0

>  <SCORE.heavy>
11

>  <SCORE.norm>
-1.04315

>  <RMSD>
0.637

$$$$
ligand
 OpenBabel01301917033D
libRbt.so/2013.1/901 2013/11/27
 11 12  0  0  0  0  0  0  0  0999 V2000
  -11.8706  -12.6940    8.8001 N   0  0  0  0  0  0  0  0  0  0  0  0
  -11.5062  -13.9826    8.8971 C   0  0  0  0  0  0  0  0  0  0  0  0
  -11.5297  -14.5882   10.0810 N   0  0  0  0  0  0  0  0  0  0  0  0
  -11.1080  -14.6629    7.8110 N   0  0  0  0  0  0  0  0  0  0  0  0
  -11.0634  -14.0689    6.6093 C   0  0  0  0  0  0  0  0  0  0  0  0
  -11.4350  -12.7366    6.4811 C   0  0  0  0  0  0  0  0  0  0  0  0
  -11.8464  -12.0533    7.6207 C   0  0  0  0  0  0  0  0  0  0  0  0
  -12.2199  -10.7796    7.5418 N   0  0  0  0  0  0  0  0  0  0  0  0
  -11.2842  -12.4002    5.2036 N   0  0  0  0  0  0  0  0  0  0  0  0
  -10.8368  -13.4705    4.5507 C   0  0  0  0  0  0  0  0  0  0  0  0
  -10.7014  -14.4869    5.3999 N   0  0  0  0  0  0  0  0  0  0  0  0
  1  7  2  0  0  0  0
  1  2  1  0  0  0  0
  2  3  1  0  0  0  0
  2  4  2  0  0  0  0
  4  5  1  0  0  0  0
  5  6  2  0  0  0  0
  5 11  1  0  0  0  0
  6  7  1  0  0  0  0
  6  9  1  0  0  0  0
  7  8  1  0  0  0  0
  9 10  1  0  0  0  0
 10 11  2  0  0  0  0
M  END
>  <CHROM.1>
-11.40447883,-13.26603579,7.20570122,2.01246233,-1.23069992,2.12537272

>  <Name>
ligand

>  <RI>
0

>  <Rbt.Current_Directory>
/home/itssahil/PROJECTS/Mol_Feturizer/New_Systems/rnas/2b57

>  <Rbt.Executable>
rbdock ($Id: //depot/dev/client3/rdock/2013.1/src/exe/rbdock.cxx#4 $)

>  <Rbt.Library>
libRbt.so (2013.1, Build901 2013/11/27)

>  <Rbt.Parameter_File>
/export/apps/rDock/src/rDock_2013.1_src/data/scripts/dock_solv.prm

>  <Rbt.Receptor>
prm/pocket_docking_7.prm

>  <SCORE>
-11.4746

>  <SCORE.INTER>
-11.4746

>  <SCORE.INTER.CONST>
1

>  <SCORE.INTER.POLAR>
0

>  <SCORE.INTER.ROT>
0

>  <SCORE.INTER.SOLV>
21.3143

>  <SCORE.INTER.VDW>
-18.3545

>  <SCORE.INTER.norm>
-1.04315

>  <SCORE.INTRA>
0

>  <SCORE.INTRA.DIHEDRAL>
0

>  <SCORE.INTRA.DIHEDRAL.0>
0

>  <SCORE.INTRA.POLAR>
0

>  <SCORE.INTRA.POLAR.0>
0

>  <SCORE.INTRA.REPUL>
0

>  <SCORE.INTRA.REPUL.0>
0

>  <SCORE.INTRA.SOLV>
0

>  <SCORE.INTRA.SOLV.lig_0>
-48.3454

>  <SCORE.INTRA.VDW>
0

>  <SCORE.INTRA.VDW.0>
0

>  <SCORE.INTRA.norm>
0

>  <SCORE.RESTR>
0

>  <SCORE.RESTR.CAVITY>
0

>  <SCORE.RESTR.norm>
0

>  <SCORE.SYSTEM>
0

>  <SCORE.SYSTEM.CONST>
0

>  <SCORE.SYSTEM.DIHEDRAL>
0

>  <SCORE.SYSTEM.SOLV>
0

>  <SCORE.SYSTEM.norm>
0

>  <SCORE.heavy>
11

>  <SCORE.norm>
-1.04315

>  <RMSD>
0.637

$$$$
ligand
 OpenBabel01301917033D
libRbt.so/2013.1/901 2013/11/27
 11 12  0  0  0  0  0  0  0  0999 V2000
  -11.8389  -12.7639    8.8309 N   0  0  0  0  0  0  0  0  0  0  0  0
  -11.4774  -14.0551    8.8992 C   0  0  0  0  0  0  0  0  0  0  0  0
  -11.4880  -14.6828   10.0717 N   0  0  0  0  0  0  0  0  0  0  0  0
  -11.0952  -14.7162    7.7955 N   0  0  0  0  0  0  0  0  0  0  0  0
  -11.0639  -14.0998    6.6047 C   0  0  0  0  0  0  0  0  0  0  0  0
  -11.4328  -12.7643    6.5062 C   0  0  0  0  0  0  0  0  0  0  0  0
  -11.8276  -12.1013    7.6635 C   0  0  0  0  0  0  0  0  0  0  0  0
  -12.1980  -10.8252    7.6131 N   0  0  0  0  0  0  0  0  0  0  0  0
  -11.2971  -12.4045    5.2333 N   0  0  0  0  0  0  0  0  0  0  0  0
  -10.8613  -13.4636    4.5549 C   0  0  0  0  0  0  0  0  0  0  0  0
  -10.7184  -14.4962    5.3831 N   0  0  0  0  0  0  0  0  0  0  0  0
  1  7  2  0  0  0  0
  1  2  1  0  0  0  0
  2  3  1  0  0  0  0
  2  4  2  0  0  0  0
  4  5  1  0  0  0  0
  5  6  2  0  0  0  0
  5 11  1  0  0  0  0
  6  7  1  0  0  0  0
  6  9  1  0  0  0  0
  7  8  1  0  0  0  0
  9 10  1  0  0  0  0
 10 11  2  0  0  0  0
M  END
>  <CHROM.1>
-11.39483735,-13.30731089,7.22027037,1.98458218,-1.23991772,2.11778734

>  <Name>
ligand

>  <RI>
0

>  <Rbt.Current_Directory>
/home/itssahil/PROJECTS/Mol_Feturizer/New_Systems/rnas/2b57

>  <Rbt.Executable>
rbdock ($Id: //depot/dev/client3/rdock/2013.1/src/exe/rbdock.cxx#4 $)

>  <Rbt.Library>
libRbt.so (2013.1, Build901 2013/11/27)

>  <Rbt.Parameter_File>
/export/apps/rDock/src/rDock_2013.1_src/data/scripts/dock_solv.prm

>  <Rbt.Receptor>
prm/pocket_docking_8.prm

>  <SCORE>
-11.4633

>  <SCORE.INTER>
-11.4633

>  <SCORE.INTER.CONST>
1

>  <SCORE.INTER.POLAR>
0

>  <SCORE.INTER.ROT>
0

>  <SCORE.INTER.SOLV>
21.4883

>  <SCORE.INTER.VDW>
-18.405

>  <SCORE.INTER.norm>
-1.04212

>  <SCORE.INTRA>
0

>  <SCORE.INTRA.DIHEDRAL>
0

>  <SCORE.INTRA.DIHEDRAL.0>
0

>  <SCORE.INTRA.POLAR>
0

>  <SCORE.INTRA.POLAR.0>
0

>  <SCORE.INTRA.REPUL>
0

>  <SCORE.INTRA.REPUL.0>
0

>  <SCORE.INTRA.SOLV>
0

>  <SCORE.INTRA.SOLV.lig_0>
-48.3454

>  <SCORE.INTRA.VDW>
0

>  <SCORE.INTRA.VDW.0>
0

>  <SCORE.INTRA.norm>
0

>  <SCORE.RESTR>
0

>  <SCORE.RESTR.CAVITY>
0

>  <SCORE.RESTR.norm>
0

>  <SCORE.SYSTEM>
0

>  <SCORE.SYSTEM.CONST>
0

>  <SCORE.SYSTEM.DIHEDRAL>
0

>  <SCORE.SYSTEM.SOLV>
0

>  <SCORE.SYSTEM.norm>
0

>  <SCORE.heavy>
11

>  <SCORE.norm>
-1.04212

>  <RMSD>
0.637

$$$$
ligand
 OpenBabel01301917033D
libRbt.so/2013.1/901 2013/11/27
 11 12  0  0  0  0  0  0  0  0999 V2000
  -11.8429  -12.7656    8.8292 N   0  0  0  0  0  0  0  0  0  0  0  0
  -11.4961  -14.0607    8.9009 C   0  0  0  0  0  0  0  0  0  0  0  0
  -11.5158  -14.6856   10.0748 N   0  0  0  0  0  0  0  0  0  0  0  0
  -11.1193  -14.7284    7.7994 N   0  0  0  0  0  0  0  0  0  0  0  0
  -11.0790  -14.1151    6.6073 C   0  0  0  0  0  0  0  0  0  0  0  0
  -11.4327  -12.7757    6.5052 C   0  0  0  0  0  0  0  0  0  0  0  0
  -11.8221  -12.1058    7.6603 C   0  0  0  0  0  0  0  0  0  0  0  0
  -12.1781  -10.8257    7.6065 N   0  0  0  0  0  0  0  0  0  0  0  0
  -11.2907  -12.4203    5.2318 N   0  0  0  0  0  0  0  0  0  0  0  0
  -10.8657  -13.4858    4.5565 C   0  0  0  0  0  0  0  0  0  0  0  0
  -10.7358  -14.5181    5.3873 N   0  0  0  0  0  0  0  0  0  0  0  0
  1  7  2  0  0  0  0
  1  2  1  0  0  0  0
  2  3  1  0  0  0  0
  2  4  2  0  0  0  0
  4  5  1  0  0  0  0
  5  6  2  0  0  0  0
  5 11  1  0  0  0  0
  6  7  1  0  0  0  0
  6  9  1  0  0  0  0
  7  8  1  0  0  0  0
  9 10  1  0  0  0  0
 10 11  2  0  0  0  0
M  END
>  <CHROM.1>
-11.40210185,-13.31756657,7.22056458,2.00781733,-1.24850999,2.13758064

>  <Name>
ligand

>  <RI>
0

>  <Rbt.Current_Directory>
/home/itssahil/PROJECTS/Mol_Feturizer/New_Systems/rnas/2b57

>  <Rbt.Executable>
rbdock ($Id: //depot/dev/client3/rdock/2013.1/src/exe/rbdock.cxx#4 $)

>  <Rbt.Library>
libRbt.so (2013.1, Build901 2013/11/27)

>  <Rbt.Parameter_File>
/export/apps/rDock/src/rDock_2013.1_src/data/scripts/dock_solv.prm

>  <Rbt.Receptor>
prm/blind_docking_100.prm

>  <SCORE>
-11.4731

>  <SCORE.INTER>
-11.4731

>  <SCORE.INTER.CONST>
1

>  <SCORE.INTER.POLAR>
0

>  <SCORE.INTER.ROT>
0

>  <SCORE.INTER.SOLV>
21.565

>  <SCORE.INTER.VDW>
-18.437

>  <SCORE.INTER.norm>
-1.043

>  <SCORE.INTRA>
0

>  <SCORE.INTRA.DIHEDRAL>
0

>  <SCORE.INTRA.DIHEDRAL.0>
0

>  <SCORE.INTRA.POLAR>
0

>  <SCORE.INTRA.POLAR.0>
0

>  <SCORE.INTRA.REPUL>
0

>  <SCORE.INTRA.REPUL.0>
0

>  <SCORE.INTRA.SOLV>
0

>  <SCORE.INTRA.SOLV.lig_0>
-48.3454

>  <SCORE.INTRA.VDW>
0

>  <SCORE.INTRA.VDW.0>
0

>  <SCORE.INTRA.norm>
0

>  <SCORE.RESTR>
0

>  <SCORE.RESTR.CAVITY>
0

>  <SCORE.RESTR.norm>
0

>  <SCORE.SYSTEM>
0

>  <SCORE.SYSTEM.CONST>
0

>  <SCORE.SYSTEM.DIHEDRAL>
0

>  <SCORE.SYSTEM.SOLV>
0

>  <SCORE.SYSTEM.norm>
0

>  <SCORE.heavy>
11

>  <SCORE.norm>
-1.043

>  <RMSD>
0.638

$$$$
ligand
 OpenBabel01301917033D
libRbt.so/2013.1/901 2013/11/27
 11 12  0  0  0  0  0  0  0  0999 V2000
  -11.8374  -12.7632    8.8280 N   0  0  0  0  0  0  0  0  0  0  0  0
  -11.4952  -14.0593    8.9041 C   0  0  0  0  0  0  0  0  0  0  0  0
  -11.5216  -14.6815   10.0793 N   0  0  0  0  0  0  0  0  0  0  0  0
  -11.1165  -14.7308    7.8056 N   0  0  0  0  0  0  0  0  0  0  0  0
  -11.0694  -14.1204    6.6122 C   0  0  0  0  0  0  0  0  0  0  0  0
  -11.4182  -12.7800    6.5057 C   0  0  0  0  0  0  0  0  0  0  0  0
  -11.8098  -12.1062    7.6578 C   0  0  0  0  0  0  0  0  0  0  0  0
  -12.1612  -10.8250    7.5997 N   0  0  0  0  0  0  0  0  0  0  0  0
  -11.2701  -12.4280    5.2321 N   0  0  0  0  0  0  0  0  0  0  0  0
  -10.8460  -13.4965    4.5609 C   0  0  0  0  0  0  0  0  0  0  0  0
  -10.7229  -14.5272    5.3944 N   0  0  0  0  0  0  0  0  0  0  0  0
  1  7  2  0  0  0  0
  1  2  1  0  0  0  0
  2  3  1  0  0  0  0
  2  4  2  0  0  0  0
  4  5  1  0  0  0  0
  5  6  2  0  0  0  0
  5 11  1  0  0  0  0
  6  7  1  0  0  0  0
  6  9  1  0  0  0  0
  7  8  1  0  0  0  0
  9 10  1  0  0  0  0
 10 11  2  0  0  0  0
M  END
>  <CHROM.1>
-11.39219935,-13.32033641,7.22239880,2.02394106,-1.24924203,2.15060004

>  <Name>
ligand

>  <RI>
0

>  <Rbt.Current_Directory>
/home/itssahil/PROJECTS/Mol_Feturizer/New_Systems/rnas/2b57

>  <Rbt.Executable>
rbdock ($Id: //depot/dev/client3/rdock/2013.1/src/exe/rbdock.cxx#4 $)

>  <Rbt.Library>
libRbt.so (2013.1, Build901 2013/11/27)

>  <Rbt.Parameter_File>
/export/apps/rDock/src/rDock_2013.1_src/data/scripts/dock_solv.prm

>  <Rbt.Receptor>
prm/pocket_docking_3.prm

>  <SCORE>
-11.4696

>  <SCORE.INTER>
-11.4696

>  <SCORE.INTER.CONST>
1

>  <SCORE.INTER.POLAR>
0

>  <SCORE.INTER.ROT>
0

>  <SCORE.INTER.SOLV>
21.6069

>  <SCORE.INTER.VDW>
-18.4487

>  <SCORE.INTER.norm>
-1.04269

>  <SCORE.INTRA>
0

>  <SCORE.INTRA.DIHEDRAL>
0

>  <SCORE.INTRA.DIHEDRAL.0>
0

>  <SCORE.INTRA.POLAR>
0

>  <SCORE.INTRA.POLAR.0>
0

>  <SCORE.INTRA.REPUL>
0

>  <SCORE.INTRA.REPUL.0>
0

>  <SCORE.INTRA.SOLV>
0

>  <SCORE.INTRA.SOLV.lig_0>
-48.3454

>  <SCORE.INTRA.VDW>
0

>  <SCORE.INTRA.VDW.0>
0

>  <SCORE.INTRA.norm>
0

>  <SCORE.RESTR>
0

>  <SCORE.RESTR.CAVITY>
0

>  <SCORE.RESTR.norm>
0

>  <SCORE.SYSTEM>
0

>  <SCORE.SYSTEM.CONST>
0

>  <SCORE.SYSTEM.DIHEDRAL>
0

>  <SCORE.SYSTEM.SOLV>
0

>  <SCORE.SYSTEM.norm>
0

>  <SCORE.heavy>
11

>  <SCORE.norm>
-1.04269

>  <RMSD>
0.638

$$$$
ligand
 OpenBabel01301917033D
libRbt.so/2013.1/901 2013/11/27
 11 12  0  0  0  0  0  0  0  0999 V2000
  -11.8700  -12.6892    8.7984 N   0  0  0  0  0  0  0  0  0  0  0  0
  -11.5093  -13.9786    8.8990 C   0  0  0  0  0  0  0  0  0  0  0  0
  -11.5312  -14.5799   10.0852 N   0  0  0  0  0  0  0  0  0  0  0  0
  -11.1165  -14.6641    7.8142 N   0  0  0  0  0  0  0  0  0  0  0  0
  -11.0737  -14.0746    6.6102 C   0  0  0  0  0  0  0  0  0  0  0  0
  -11.4415  -12.7416    6.4783 C   0  0  0  0  0  0  0  0  0  0  0  0
  -11.8474  -12.0529    7.6166 C   0  0  0  0  0  0  0  0  0  0  0  0
  -12.2171  -10.7783    7.5341 N   0  0  0  0  0  0  0  0  0  0  0  0
  -11.2935  -12.4103    5.1991 N   0  0  0  0  0  0  0  0  0  0  0  0
  -10.8513  -13.4844    4.5488 C   0  0  0  0  0  0  0  0  0  0  0  0
  -10.7165  -14.4981    5.4012 N   0  0  0  0  0  0  0  0  0  0  0  0
  1  7  2  0  0  0  0
  1  2  1  0  0  0  0
  2  3  1  0  0  0  0
  2  4  2  0  0  0  0
  4  5  1  0  0  0  0
  5  6  2  0  0  0  0
  5 11  1  0  0  0  0
  6  7  1  0  0  0  0
  6  9  1  0  0  0  0
  7  8  1  0  0  0  0
  9 10  1  0  0  0  0
 10 11  2  0  0  0  0
M  END
>  <CHROM.1>
-11.41044473,-13.26849232,7.20468640,2.00973008,-1.23491313,2.11916329

>  <Name>
ligand

>  <RI>
0

>  <Rbt.Current_Directory>
/home/itssahil/PROJECTS/Mol_Feturizer/New_Systems/rnas/2b57

>  <Rbt.Executable>
rbdock ($Id: //depot/dev/client3/rdock/2013.1/src/exe/rbdock.cxx#4 $)

>  <Rbt.Library>
libRbt.so (2013.1, Build901 2013/11/27)

>  <Rbt.Parameter_File>
/export/apps/rDock/src/rDock_2013.1_src/data/scripts/dock_solv.prm

>  <Rbt.Receptor>
prm/pocket_docking_4.prm

>  <SCORE>
-11.4749

>  <SCORE.INTER>
-11.4749

>  <SCORE.INTER.CONST>
1

>  <SCORE.INTER.POLAR>
0

>  <SCORE.INTER.ROT>
0

>  <SCORE.INTER.SOLV>
21.3239

>  <SCORE.INTER.VDW>
-18.3579

>  <SCORE.INTER.norm>
-1.04317

>  <SCORE.INTRA>
0

>  <SCORE.INTRA.DIHEDRAL>
0

>  <SCORE.INTRA.DIHEDRAL.0>
0

>  <SCORE.INTRA.POLAR>
0

>  <SCORE.INTRA.POLAR.0>
0

>  <SCORE.INTRA.REPUL>
0

>  <SCORE.INTRA.REPUL.0>
0

>  <SCORE.INTRA.SOLV>
0

>  <SCORE.INTRA.SOLV.lig_0>
-48.3454

>  <SCORE.INTRA.VDW>
0

>  <SCORE.INTRA.VDW.0>
0

>  <SCORE.INTRA.norm>
0

>  <SCORE.RESTR>
0

>  <SCORE.RESTR.CAVITY>
0

>  <SCORE.RESTR.norm>
0

>  <SCORE.SYSTEM>
0

>  <SCORE.SYSTEM.CONST>
0

>  <SCORE.SYSTEM.DIHEDRAL>
0

>  <SCORE.SYSTEM.SOLV>
0

>  <SCORE.SYSTEM.norm>
0

>  <SCORE.heavy>
11

>  <SCORE.norm>
-1.04317

>  <RMSD>
0.638

$$$$
ligand
 OpenBabel01301917033D
libRbt.so/2013.1/901 2013/11/27
 11 12  0  0  0  0  0  0  0  0999 V2000
  -11.8386  -12.7636    8.8283 N   0  0  0  0  0  0  0  0  0  0  0  0
  -11.4862  -14.0571    8.9023 C   0  0  0  0  0  0  0  0  0  0  0  0
  -11.5049  -14.6805   10.0770 N   0  0  0  0  0  0  0  0  0  0  0  0
  -11.1050  -14.7246    7.8022 N   0  0  0  0  0  0  0  0  0  0  0  0
  -11.0656  -14.1127    6.6094 C   0  0  0  0  0  0  0  0  0  0  0  0
  -11.4250  -12.7750    6.5049 C   0  0  0  0  0  0  0  0  0  0  0  0
  -11.8190  -12.1053    7.6586 C   0  0  0  0  0  0  0  0  0  0  0  0
  -12.1805  -10.8268    7.6026 N   0  0  0  0  0  0  0  0  0  0  0  0
  -11.2828  -12.4207    5.2313 N   0  0  0  0  0  0  0  0  0  0  0  0
  -10.8521  -13.4852    4.5580 C   0  0  0  0  0  0  0  0  0  0  0  0
  -10.7190  -14.5158    5.3903 N   0  0  0  0  0  0  0  0  0  0  0  0
  1  7  2  0  0  0  0
  1  2  1  0  0  0  0
  2  3  1  0  0  0  0
  2  4  2  0  0  0  0
  4  5  1  0  0  0  0
  5  6  2  0  0  0  0
  5 11  1  0  0  0  0
  6  7  1  0  0  0  0
  6  9  1  0  0  0  0
  7  8  1  0  0  0  0
  9 10  1  0  0  0  0
 10 11  2  0  0  0  0
M  END
>  <CHROM.1>
-11.39308168,-13.31576620,7.22107558,2.00429129,-1.24405939,2.13290529

>  <Name>
ligand

>  <RI>
0

>  <Rbt.Current_Directory>
/home/itssahil/PROJECTS/Mol_Feturizer/New_Systems/rnas/2b57

>  <Rbt.Executable>
rbdock ($Id: //depot/dev/client3/rdock/2013.1/src/exe/rbdock.cxx#4 $)

>  <Rbt.Library>
libRbt.so (2013.1, Build901 2013/11/27)

>  <Rbt.Parameter_File>
/export/apps/rDock/src/rDock_2013.1_src/data/scripts/dock_solv.prm

>  <Rbt.Receptor>
prm/pocket_docking_4.prm

>  <SCORE>
-11.4715

>  <SCORE.INTER>
-11.4715

>  <SCORE.INTER.CONST>
1

>  <SCORE.INTER.POLAR>
0

>  <SCORE.INTER.ROT>
0

>  <SCORE.INTER.SOLV>
21.5382

>  <SCORE.INTER.VDW>
-18.4271

>  <SCORE.INTER.norm>
-1.04287

>  <SCORE.INTRA>
0

>  <SCORE.INTRA.DIHEDRAL>
0

>  <SCORE.INTRA.DIHEDRAL.0>
0

>  <SCORE.INTRA.POLAR>
0

>  <SCORE.INTRA.POLAR.0>
0

>  <SCORE.INTRA.REPUL>
0

>  <SCORE.INTRA.REPUL.0>
0

>  <SCORE.INTRA.SOLV>
0

>  <SCORE.INTRA.SOLV.lig_0>
-48.3454

>  <SCORE.INTRA.VDW>
0

>  <SCORE.INTRA.VDW.0>
0

>  <SCORE.INTRA.norm>
0

>  <SCORE.RESTR>
0

>  <SCORE.RESTR.CAVITY>
0

>  <SCORE.RESTR.norm>
0

>  <SCORE.SYSTEM>
0

>  <SCORE.SYSTEM.CONST>
0

>  <SCORE.SYSTEM.DIHEDRAL>
0

>  <SCORE.SYSTEM.SOLV>
0

>  <SCORE.SYSTEM.norm>
0

>  <SCORE.heavy>
11

>  <SCORE.norm>
-1.04287

>  <RMSD>
0.638

$$$$
ligand
 OpenBabel01301917033D
libRbt.so/2013.1/901 2013/11/27
 11 12  0  0  0  0  0  0  0  0999 V2000
  -11.8670  -12.6860    8.7990 N   0  0  0  0  0  0  0  0  0  0  0  0
  -11.5072  -13.9757    8.8986 C   0  0  0  0  0  0  0  0  0  0  0  0
  -11.5295  -14.5779   10.0842 N   0  0  0  0  0  0  0  0  0  0  0  0
  -11.1148  -14.6607    7.8132 N   0  0  0  0  0  0  0  0  0  0  0  0
  -11.0716  -14.0703    6.6097 C   0  0  0  0  0  0  0  0  0  0  0  0
  -11.4385  -12.7369    6.4788 C   0  0  0  0  0  0  0  0  0  0  0  0
  -11.8439  -12.0488    7.6177 C   0  0  0  0  0  0  0  0  0  0  0  0
  -12.2128  -10.7739    7.5362 N   0  0  0  0  0  0  0  0  0  0  0  0
  -11.2902  -12.4048    5.1998 N   0  0  0  0  0  0  0  0  0  0  0  0
  -10.8488  -13.4786    4.5487 C   0  0  0  0  0  0  0  0  0  0  0  0
  -10.7147  -14.4931    5.4004 N   0  0  0  0  0  0  0  0  0  0  0  0
  1  7  2  0  0  0  0
  1  2  1  0  0  0  0
  2  3  1  0  0  0  0
  2  4  2  0  0  0  0
  4  5  1  0  0  0  0
  5  6  2  0  0  0  0
  5 11  1  0  0  0  0
  6  7  1  0  0  0  0
  6  9  1  0  0  0  0
  7  8  1  0  0  0  0
  9 10  1  0  0  0  0
 10 11  2  0  0  0  0
M  END
>  <CHROM.1>
-11.40780024,-13.26440125,7.20479257,2.01085100,-1.23548357,2.12100483

>  <Name>
ligand

>  <RI>
0

>  <Rbt.Current_Directory>
/home/itssahil/PROJECTS/Mol_Feturizer/New_Systems/rnas/2b57

>  <Rbt.Executable>
rbdock ($Id: //depot/dev/client3/rdock/2013.1/src/exe/rbdock.cxx#4 $)

>  <Rbt.Library>
libRbt.so (2013.1, Build901 2013/11/27)

>  <Rbt.Parameter_File>
/export/apps/rDock/src/rDock_2013.1_src/data/scripts/dock_solv.prm

>  <Rbt.Receptor>
prm/pocket_docking_6.prm

>  <SCORE>
-11.4778

>  <SCORE.INTER>
-11.4778

>  <SCORE.INTER.CONST>
1

>  <SCORE.INTER.POLAR>
0

>  <SCORE.INTER.ROT>
0

>  <SCORE.INTER.SOLV>
21.3304

>  <SCORE.INTER.VDW>
-18.362

>  <SCORE.INTER.norm>
-1.04343

>  <SCORE.INTRA>
0

>  <SCORE.INTRA.DIHEDRAL>
0

>  <SCORE.INTRA.DIHEDRAL.0>
0

>  <SCORE.INTRA.POLAR>
0

>  <SCORE.INTRA.POLAR.0>
0

>  <SCORE.INTRA.REPUL>
0

>  <SCORE.INTRA.REPUL.0>
0

>  <SCORE.INTRA.SOLV>
0

>  <SCORE.INTRA.SOLV.lig_0>
-48.3454

>  <SCORE.INTRA.VDW>
0

>  <SCORE.INTRA.VDW.0>
0

>  <SCORE.INTRA.norm>
0

>  <SCORE.RESTR>
0

>  <SCORE.RESTR.CAVITY>
0

>  <SCORE.RESTR.norm>
0

>  <SCORE.SYSTEM>
0

>  <SCORE.SYSTEM.CONST>
0

>  <SCORE.SYSTEM.DIHEDRAL>
0

>  <SCORE.SYSTEM.SOLV>
0

>  <SCORE.SYSTEM.norm>
0

>  <SCORE.heavy>
11

>  <SCORE.norm>
-1.04343

>  <RMSD>
0.638

$$$$
ligand
 OpenBabel01301917033D
libRbt.so/2013.1/901 2013/11/27
 11 12  0  0  0  0  0  0  0  0999 V2000
  -11.8669  -12.6856    8.7979 N   0  0  0  0  0  0  0  0  0  0  0  0
  -11.5074  -13.9753    8.8986 C   0  0  0  0  0  0  0  0  0  0  0  0
  -11.5321  -14.5771   10.0845 N   0  0  0  0  0  0  0  0  0  0  0  0
  -11.1131  -14.6607    7.8143 N   0  0  0  0  0  0  0  0  0  0  0  0
  -11.0675  -14.0707    6.6106 C   0  0  0  0  0  0  0  0  0  0  0  0
  -11.4341  -12.7373    6.4785 C   0  0  0  0  0  0  0  0  0  0  0  0
  -11.8416  -12.0488    7.6164 C   0  0  0  0  0  0  0  0  0  0  0  0
  -12.2102  -10.7739    7.5338 N   0  0  0  0  0  0  0  0  0  0  0  0
  -11.2834  -12.4057    5.1998 N   0  0  0  0  0  0  0  0  0  0  0  0
  -10.8407  -13.4798    4.5499 C   0  0  0  0  0  0  0  0  0  0  0  0
  -10.7083  -14.4940    5.4021 N   0  0  0  0  0  0  0  0  0  0  0  0
  1  7  2  0  0  0  0
  1  2  1  0  0  0  0
  2  3  1  0  0  0  0
  2  4  2  0  0  0  0
  4  5  1  0  0  0  0
  5  6  2  0  0  0  0
  5 11  1  0  0  0  0
  6  7  1  0  0  0  0
  6  9  1  0  0  0  0
  7  8  1  0  0  0  0
  9 10  1  0  0  0  0
 10 11  2  0  0  0  0
M  END
>  <CHROM.1>
-11.40478867,-13.26457144,7.20479604,2.01586017,-1.23455197,2.12537276

>  <Name>
ligand

>  <RI>
0

>  <Rbt.Current_Directory>
/home/itssahil/PROJECTS/Mol_Feturizer/New_Systems/rnas/2b57

>  <Rbt.Executable>
rbdock ($Id: //depot/dev/client3/rdock/2013.1/src/exe/rbdock.cxx#4 $)

>  <Rbt.Library>
libRbt.so (2013.1, Build901 2013/11/27)

>  <Rbt.Parameter_File>
/export/apps/rDock/src/rDock_2013.1_src/data/scripts/dock_solv.prm

>  <Rbt.Receptor>
prm/pocket_docking_7.prm

>  <SCORE>
-11.4782

>  <SCORE.INTER>
-11.4782

>  <SCORE.INTER.CONST>
1

>  <SCORE.INTER.POLAR>
0

>  <SCORE.INTER.ROT>
0

>  <SCORE.INTER.SOLV>
21.3347

>  <SCORE.INTER.VDW>
-18.3637

>  <SCORE.INTER.norm>
-1.04347

>  <SCORE.INTRA>
0

>  <SCORE.INTRA.DIHEDRAL>
0

>  <SCORE.INTRA.DIHEDRAL.0>
0

>  <SCORE.INTRA.POLAR>
0

>  <SCORE.INTRA.POLAR.0>
0

>  <SCORE.INTRA.REPUL>
0

>  <SCORE.INTRA.REPUL.0>
0

>  <SCORE.INTRA.SOLV>
0

>  <SCORE.INTRA.SOLV.lig_0>
-48.3454

>  <SCORE.INTRA.VDW>
0

>  <SCORE.INTRA.VDW.0>
0

>  <SCORE.INTRA.norm>
0

>  <SCORE.RESTR>
0

>  <SCORE.RESTR.CAVITY>
0

>  <SCORE.RESTR.norm>
0

>  <SCORE.SYSTEM>
0

>  <SCORE.SYSTEM.CONST>
0

>  <SCORE.SYSTEM.DIHEDRAL>
0

>  <SCORE.SYSTEM.SOLV>
0

>  <SCORE.SYSTEM.norm>
0

>  <SCORE.heavy>
11

>  <SCORE.norm>
-1.04347

>  <RMSD>
0.638

$$$$
ligand
 OpenBabel01301917033D
libRbt.so/2013.1/901 2013/11/27
 11 12  0  0  0  0  0  0  0  0999 V2000
  -11.8422  -12.7652    8.8293 N   0  0  0  0  0  0  0  0  0  0  0  0
  -11.4869  -14.0580    8.9004 C   0  0  0  0  0  0  0  0  0  0  0  0
  -11.5035  -14.6840   10.0738 N   0  0  0  0  0  0  0  0  0  0  0  0
  -11.1048  -14.7224    7.7987 N   0  0  0  0  0  0  0  0  0  0  0  0
  -11.0675  -14.1079    6.6070 C   0  0  0  0  0  0  0  0  0  0  0  0
  -11.4300  -12.7708    6.5057 C   0  0  0  0  0  0  0  0  0  0  0  0
  -11.8248  -12.1044    7.6610 C   0  0  0  0  0  0  0  0  0  0  0  0
  -12.1891  -10.8266    7.6079 N   0  0  0  0  0  0  0  0  0  0  0  0
  -11.2892  -12.4134    5.2327 N   0  0  0  0  0  0  0  0  0  0  0  0
  -10.8566  -13.4756    4.5569 C   0  0  0  0  0  0  0  0  0  0  0  0
  -10.7207  -14.5076    5.3870 N   0  0  0  0  0  0  0  0  0  0  0  0
  1  7  2  0  0  0  0
  1  2  1  0  0  0  0
  2  3  1  0  0  0  0
  2  4  2  0  0  0  0
  4  5  1  0  0  0  0
  5  6  2  0  0  0  0
  5 11  1  0  0  0  0
  6  7  1  0  0  0  0
  6  9  1  0  0  0  0
  7  8  1  0  0  0  0
  9 10  1  0  0  0  0
 10 11  2  0  0  0  0
M  END
>  <CHROM.1>
-11.39639846,-13.31299246,7.22064236,1.99907801,-1.24247696,2.13008264

>  <Name>
ligand

>  <RI>
0

>  <Rbt.Current_Directory>
/home/itssahil/PROJECTS/Mol_Feturizer/New_Systems/rnas/2b57

>  <Rbt.Executable>
rbdock ($Id: //depot/dev/client3/rdock/2013.1/src/exe/rbdock.cxx#4 $)

>  <Rbt.Library>
libRbt.so (2013.1, Build901 2013/11/27)

>  <Rbt.Parameter_File>
/export/apps/rDock/src/rDock_2013.1_src/data/scripts/dock_solv.prm

>  <Rbt.Receptor>
prm/pocket_docking_7.prm

>  <SCORE>
-11.4717

>  <SCORE.INTER>
-11.4717

>  <SCORE.INTER.CONST>
1

>  <SCORE.INTER.POLAR>
0

>  <SCORE.INTER.ROT>
0

>  <SCORE.INTER.SOLV>
21.5185

>  <SCORE.INTER.VDW>
-18.4206

>  <SCORE.INTER.norm>
-1.04288

>  <SCORE.INTRA>
0

>  <SCORE.INTRA.DIHEDRAL>
0

>  <SCORE.INTRA.DIHEDRAL.0>
0

>  <SCORE.INTRA.POLAR>
0

>  <SCORE.INTRA.POLAR.0>
0

>  <SCORE.INTRA.REPUL>
0

>  <SCORE.INTRA.REPUL.0>
0

>  <SCORE.INTRA.SOLV>
0

>  <SCORE.INTRA.SOLV.lig_0>
-48.3454

>  <SCORE.INTRA.VDW>
0

>  <SCORE.INTRA.VDW.0>
0

>  <SCORE.INTRA.norm>
0

>  <SCORE.RESTR>
0

>  <SCORE.RESTR.CAVITY>
0

>  <SCORE.RESTR.norm>
0

>  <SCORE.SYSTEM>
0

>  <SCORE.SYSTEM.CONST>
0

>  <SCORE.SYSTEM.DIHEDRAL>
0

>  <SCORE.SYSTEM.SOLV>
0

>  <SCORE.SYSTEM.norm>
0

>  <SCORE.heavy>
11

>  <SCORE.norm>
-1.04288

>  <RMSD>
0.638

$$$$
ligand
 OpenBabel01301917033D
libRbt.so/2013.1/901 2013/11/27
 11 12  0  0  0  0  0  0  0  0999 V2000
  -11.8364  -12.7625    8.8299 N   0  0  0  0  0  0  0  0  0  0  0  0
  -11.4946  -14.0590    8.8999 C   0  0  0  0  0  0  0  0  0  0  0  0
  -11.5160  -14.6852   10.0731 N   0  0  0  0  0  0  0  0  0  0  0  0
  -11.1210  -14.7269    7.7974 N   0  0  0  0  0  0  0  0  0  0  0  0
  -11.0789  -14.1124    6.6060 C   0  0  0  0  0  0  0  0  0  0  0  0
  -11.4275  -12.7715    6.5056 C   0  0  0  0  0  0  0  0  0  0  0  0
  -11.8137  -12.1014    7.6618 C   0  0  0  0  0  0  0  0  0  0  0  0
  -12.1647  -10.8200    7.6096 N   0  0  0  0  0  0  0  0  0  0  0  0
  -11.2848  -12.4152    5.2326 N   0  0  0  0  0  0  0  0  0  0  0  0
  -10.8643  -13.4815    4.5558 C   0  0  0  0  0  0  0  0  0  0  0  0
  -10.7380  -14.5152    5.3853 N   0  0  0  0  0  0  0  0  0  0  0  0
  1  7  2  0  0  0  0
  1  2  1  0  0  0  0
  2  3  1  0  0  0  0
  2  4  2  0  0  0  0
  4  5  1  0  0  0  0
  5  6  2  0  0  0  0
  5 11  1  0  0  0  0
  6  7  1  0  0  0  0
  6  9  1  0  0  0  0
  7  8  1  0  0  0  0
  9 10  1  0  0  0  0
 10 11  2  0  0  0  0
M  END
>  <CHROM.1>
-11.39860671,-13.31431672,7.22035974,2.01301352,-1.25207135,2.14367550

>  <Name>
ligand

>  <RI>
0

>  <Rbt.Current_Directory>
/home/itssahil/PROJECTS/Mol_Feturizer/New_Systems/rnas/2b57

>  <Rbt.Executable>
rbdock ($Id: //depot/dev/client3/rdock/2013.1/src/exe/rbdock.cxx#4 $)

>  <Rbt.Library>
libRbt.so (2013.1, Build901 2013/11/27)

>  <Rbt.Parameter_File>
/export/apps/rDock/src/rDock_2013.1_src/data/scripts/dock_solv.prm

>  <Rbt.Receptor>
prm/pocket_docking_6.prm

>  <SCORE>
-11.47

>  <SCORE.INTER>
-11.47

>  <SCORE.INTER.CONST>
1

>  <SCORE.INTER.POLAR>
0

>  <SCORE.INTER.ROT>
0

>  <SCORE.INTER.SOLV>
21.6163

>  <SCORE.INTER.VDW>
-18.4521

>  <SCORE.INTER.norm>
-1.04273

>  <SCORE.INTRA>
0

>  <SCORE.INTRA.DIHEDRAL>
0

>  <SCORE.INTRA.DIHEDRAL.0>
0

>  <SCORE.INTRA.POLAR>
0

>  <SCORE.INTRA.POLAR.0>
0

>  <SCORE.INTRA.REPUL>
0

>  <SCORE.INTRA.REPUL.0>
0

>  <SCORE.INTRA.SOLV>
0

>  <SCORE.INTRA.SOLV.lig_0>
-48.3454

>  <SCORE.INTRA.VDW>
0

>  <SCORE.INTRA.VDW.0>
0

>  <SCORE.INTRA.norm>
0

>  <SCORE.RESTR>
0

>  <SCORE.RESTR.CAVITY>
0

>  <SCORE.RESTR.norm>
0

>  <SCORE.SYSTEM>
0

>  <SCORE.SYSTEM.CONST>
0

>  <SCORE.SYSTEM.DIHEDRAL>
0

>  <SCORE.SYSTEM.SOLV>
0

>  <SCORE.SYSTEM.norm>
0

>  <SCORE.heavy>
11

>  <SCORE.norm>
-1.04273

>  <RMSD>
0.639

$$$$
ligand
 OpenBabel01301917033D
libRbt.so/2013.1/901 2013/11/27
 11 12  0  0  0  0  0  0  0  0999 V2000
  -11.8134  -12.7519    8.8328 N   0  0  0  0  0  0  0  0  0  0  0  0
  -11.4587  -14.0447    8.9084 C   0  0  0  0  0  0  0  0  0  0  0  0
  -11.4606  -14.6623   10.0863 N   0  0  0  0  0  0  0  0  0  0  0  0
  -11.0919  -14.7173    7.8065 N   0  0  0  0  0  0  0  0  0  0  0  0
  -11.0695  -14.1114    6.6102 C   0  0  0  0  0  0  0  0  0  0  0  0
  -11.4317  -12.7745    6.5040 C   0  0  0  0  0  0  0  0  0  0  0  0
  -11.8105  -12.0994    7.6597 C   0  0  0  0  0  0  0  0  0  0  0  0
  -12.1741  -10.8217    7.6022 N   0  0  0  0  0  0  0  0  0  0  0  0
  -11.3072  -12.4264    5.2268 N   0  0  0  0  0  0  0  0  0  0  0  0
  -10.8847  -13.4939    4.5530 C   0  0  0  0  0  0  0  0  0  0  0  0
  -10.7391  -14.5201    5.3885 N   0  0  0  0  0  0  0  0  0  0  0  0
  1  7  2  0  0  0  0
  1  2  1  0  0  0  0
  2  3  1  0  0  0  0
  2  4  2  0  0  0  0
  4  5  1  0  0  0  0
  5  6  2  0  0  0  0
  5 11  1  0  0  0  0
  6  7  1  0  0  0  0
  6  9  1  0  0  0  0
  7  8  1  0  0  0  0
  9 10  1  0  0  0  0
 10 11  2  0  0  0  0
M  END
>  <CHROM.1>
-11.38935680,-13.31169165,7.22234167,1.96574824,-1.25023661,2.09138531

>  <Name>
ligand

>  <RI>
0

>  <Rbt.Current_Directory>
/home/itssahil/PROJECTS/Mol_Feturizer/New_Systems/rnas/2b57

>  <Rbt.Executable>
rbdock ($Id: //depot/dev/client3/rdock/2013.1/src/exe/rbdock.cxx#4 $)

>  <Rbt.Library>
libRbt.so (2013.1, Build901 2013/11/27)

>  <Rbt.Parameter_File>
/export/apps/rDock/src/rDock_2013.1_src/data/scripts/dock_solv.prm

>  <Rbt.Receptor>
prm/pocket_docking_8.prm

>  <SCORE>
-11.4324

>  <SCORE.INTER>
-11.4324

>  <SCORE.INTER.CONST>
1

>  <SCORE.INTER.POLAR>
0

>  <SCORE.INTER.ROT>
0

>  <SCORE.INTER.SOLV>
21.5553

>  <SCORE.INTER.VDW>
-18.4067

>  <SCORE.INTER.norm>
-1.03931

>  <SCORE.INTRA>
0

>  <SCORE.INTRA.DIHEDRAL>
0

>  <SCORE.INTRA.DIHEDRAL.0>
0

>  <SCORE.INTRA.POLAR>
0

>  <SCORE.INTRA.POLAR.0>
0

>  <SCORE.INTRA.REPUL>
0

>  <SCORE.INTRA.REPUL.0>
0

>  <SCORE.INTRA.SOLV>
0

>  <SCORE.INTRA.SOLV.lig_0>
-48.3454

>  <SCORE.INTRA.VDW>
0

>  <SCORE.INTRA.VDW.0>
0

>  <SCORE.INTRA.norm>
0

>  <SCORE.RESTR>
0

>  <SCORE.RESTR.CAVITY>
0

>  <SCORE.RESTR.norm>
0

>  <SCORE.SYSTEM>
0

>  <SCORE.SYSTEM.CONST>
0

>  <SCORE.SYSTEM.DIHEDRAL>
0

>  <SCORE.SYSTEM.SOLV>
0

>  <SCORE.SYSTEM.norm>
0

>  <SCORE.heavy>
11

>  <SCORE.norm>
-1.03931

>  <RMSD>
0.639

$$$$
ligand
 OpenBabel01301917033D
libRbt.so/2013.1/901 2013/11/27
 11 12  0  0  0  0  0  0  0  0999 V2000
  -11.8360  -12.7626    8.8273 N   0  0  0  0  0  0  0  0  0  0  0  0
  -11.4910  -14.0582    8.8997 C   0  0  0  0  0  0  0  0  0  0  0  0
  -11.5180  -14.6843   10.0729 N   0  0  0  0  0  0  0  0  0  0  0  0
  -11.1090  -14.7253    7.7996 N   0  0  0  0  0  0  0  0  0  0  0  0
  -11.0614  -14.1109    6.6084 C   0  0  0  0  0  0  0  0  0  0  0  0
  -11.4129  -12.7709    6.5056 C   0  0  0  0  0  0  0  0  0  0  0  0
  -11.8079  -12.1017    7.6592 C   0  0  0  0  0  0  0  0  0  0  0  0
  -12.1620  -10.8212    7.6047 N   0  0  0  0  0  0  0  0  0  0  0  0
  -11.2635  -12.4145    5.2334 N   0  0  0  0  0  0  0  0  0  0  0  0
  -10.8359  -13.4798    4.5594 C   0  0  0  0  0  0  0  0  0  0  0  0
  -10.7119  -14.5130    5.3898 N   0  0  0  0  0  0  0  0  0  0  0  0
  1  7  2  0  0  0  0
  1  2  1  0  0  0  0
  2  3  1  0  0  0  0
  2  4  2  0  0  0  0
  4  5  1  0  0  0  0
  5  6  2  0  0  0  0
  5 11  1  0  0  0  0
  6  7  1  0  0  0  0
  6  9  1  0  0  0  0
  7  8  1  0  0  0  0
  9 10  1  0  0  0  0
 10 11  2  0  0  0  0
M  END
>  <CHROM.1>
-11.38690789,-13.31354088,7.22059350,2.02445458,-1.24649934,2.15433784

>  <Name>
ligand

>  <RI>
0

>  <Rbt.Current_Directory>
/home/itssahil/PROJECTS/Mol_Feturizer/New_Systems/rnas/2b57

>  <Rbt.Executable>
rbdock ($Id: //depot/dev/client3/rdock/2013.1/src/exe/rbdock.cxx#4 $)

>  <Rbt.Library>
libRbt.so (2013.1, Build901 2013/11/27)

>  <Rbt.Parameter_File>
/export/apps/rDock/src/rDock_2013.1_src/data/scripts/dock_solv.prm

>  <Rbt.Receptor>
prm/pocket_docking_3.prm

>  <SCORE>
-11.4634

>  <SCORE.INTER>
-11.4634

>  <SCORE.INTER.CONST>
1

>  <SCORE.INTER.POLAR>
0

>  <SCORE.INTER.ROT>
0

>  <SCORE.INTER.SOLV>
21.6093

>  <SCORE.INTER.VDW>
-18.4454

>  <SCORE.INTER.norm>
-1.04213

>  <SCORE.INTRA>
0

>  <SCORE.INTRA.DIHEDRAL>
0

>  <SCORE.INTRA.DIHEDRAL.0>
0

>  <SCORE.INTRA.POLAR>
0

>  <SCORE.INTRA.POLAR.0>
0

>  <SCORE.INTRA.REPUL>
0

>  <SCORE.INTRA.REPUL.0>
0

>  <SCORE.INTRA.SOLV>
0

>  <SCORE.INTRA.SOLV.lig_0>
-48.3454

>  <SCORE.INTRA.VDW>
0

>  <SCORE.INTRA.VDW.0>
0

>  <SCORE.INTRA.norm>
0

>  <SCORE.RESTR>
0

>  <SCORE.RESTR.CAVITY>
0

>  <SCORE.RESTR.norm>
0

>  <SCORE.SYSTEM>
0

>  <SCORE.SYSTEM.CONST>
0

>  <SCORE.SYSTEM.DIHEDRAL>
0

>  <SCORE.SYSTEM.SOLV>
0

>  <SCORE.SYSTEM.norm>
0

>  <SCORE.heavy>
11

>  <SCORE.norm>
-1.04213

>  <RMSD>
0.640

$$$$
ligand
 OpenBabel01301917033D
libRbt.so/2013.1/901 2013/11/27
 11 12  0  0  0  0  0  0  0  0999 V2000
  -11.8370  -12.6966    8.8117 N   0  0  0  0  0  0  0  0  0  0  0  0
  -11.5016  -13.9938    8.8988 C   0  0  0  0  0  0  0  0  0  0  0  0
  -11.5242  -14.6039   10.0804 N   0  0  0  0  0  0  0  0  0  0  0  0
  -11.1335  -14.6785    7.8048 N   0  0  0  0  0  0  0  0  0  0  0  0
  -11.0905  -14.0804    6.6051 C   0  0  0  0  0  0  0  0  0  0  0  0
  -11.4324  -12.7392    6.4871 C   0  0  0  0  0  0  0  0  0  0  0  0
  -11.8130  -12.0515    7.6347 C   0  0  0  0  0  0  0  0  0  0  0  0
  -12.1575  -10.7691    7.5658 N   0  0  0  0  0  0  0  0  0  0  0  0
  -11.2902  -12.4009    5.2091 N   0  0  0  0  0  0  0  0  0  0  0  0
  -10.8763  -13.4785    4.5461 C   0  0  0  0  0  0  0  0  0  0  0  0
  -10.7539  -14.5015    5.3893 N   0  0  0  0  0  0  0  0  0  0  0  0
  1  7  2  0  0  0  0
  1  2  1  0  0  0  0
  2  3  1  0  0  0  0
  2  4  2  0  0  0  0
  4  5  1  0  0  0  0
  5  6  2  0  0  0  0
  5 11  1  0  0  0  0
  6  7  1  0  0  0  0
  6  9  1  0  0  0  0
  7  8  1  0  0  0  0
  9 10  1  0  0  0  0
 10 11  2  0  0  0  0
M  END
>  <CHROM.1>
-11.40493050,-13.27242372,7.20907022,2.01704381,-1.25737545,2.13392647

>  <Name>
ligand

>  <RI>
0

>  <Rbt.Current_Directory>
/home/itssahil/PROJECTS/Mol_Feturizer/New_Systems/rnas/2b57

>  <Rbt.Executable>
rbdock ($Id: //depot/dev/client3/rdock/2013.1/src/exe/rbdock.cxx#4 $)

>  <Rbt.Library>
libRbt.so (2013.1, Build901 2013/11/27)

>  <Rbt.Parameter_File>
/export/apps/rDock/src/rDock_2013.1_src/data/scripts/dock_solv.prm

>  <Rbt.Receptor>
prm/pocket_docking_3.prm

>  <SCORE>
-11.4333

>  <SCORE.INTER>
-11.4333

>  <SCORE.INTER.CONST>
1

>  <SCORE.INTER.POLAR>
0

>  <SCORE.INTER.ROT>
0

>  <SCORE.INTER.SOLV>
21.5792

>  <SCORE.INTER.VDW>
-18.4153

>  <SCORE.INTER.norm>
-1.03939

>  <SCORE.INTRA>
0

>  <SCORE.INTRA.DIHEDRAL>
0

>  <SCORE.INTRA.DIHEDRAL.0>
0

>  <SCORE.INTRA.POLAR>
0

>  <SCORE.INTRA.POLAR.0>
0

>  <SCORE.INTRA.REPUL>
0

>  <SCORE.INTRA.REPUL.0>
0

>  <SCORE.INTRA.SOLV>
0

>  <SCORE.INTRA.SOLV.lig_0>
-48.3454

>  <SCORE.INTRA.VDW>
0

>  <SCORE.INTRA.VDW.0>
0

>  <SCORE.INTRA.norm>
0

>  <SCORE.RESTR>
0

>  <SCORE.RESTR.CAVITY>
0

>  <SCORE.RESTR.norm>
0

>  <SCORE.SYSTEM>
0

>  <SCORE.SYSTEM.CONST>
0

>  <SCORE.SYSTEM.DIHEDRAL>
0

>  <SCORE.SYSTEM.SOLV>
0

>  <SCORE.SYSTEM.norm>
0

>  <SCORE.heavy>
11

>  <SCORE.norm>
-1.03939

>  <RMSD>
0.640

$$$$
ligand
 OpenBabel01301917033D
libRbt.so/2013.1/901 2013/11/27
 11 12  0  0  0  0  0  0  0  0999 V2000
  -11.8639  -12.6810    8.7969 N   0  0  0  0  0  0  0  0  0  0  0  0
  -11.5028  -13.9702    8.8971 C   0  0  0  0  0  0  0  0  0  0  0  0
  -11.5240  -14.5717   10.0832 N   0  0  0  0  0  0  0  0  0  0  0  0
  -11.1103  -14.6555    7.8120 N   0  0  0  0  0  0  0  0  0  0  0  0
  -11.0681  -14.0658    6.6081 C   0  0  0  0  0  0  0  0  0  0  0  0
  -11.4364  -12.7328    6.4765 C   0  0  0  0  0  0  0  0  0  0  0  0
  -11.8420  -12.0445    7.6151 C   0  0  0  0  0  0  0  0  0  0  0  0
  -12.2122  -10.7700    7.5330 N   0  0  0  0  0  0  0  0  0  0  0  0
  -11.2890  -12.4014    5.1973 N   0  0  0  0  0  0  0  0  0  0  0  0
  -10.8468  -13.4752    4.5467 C   0  0  0  0  0  0  0  0  0  0  0  0
  -10.7113  -14.4890    5.3989 N   0  0  0  0  0  0  0  0  0  0  0  0
  1  7  2  0  0  0  0
  1  2  1  0  0  0  0
  2  3  1  0  0  0  0
  2  4  2  0  0  0  0
  4  5  1  0  0  0  0
  5  6  2  0  0  0  0
  5 11  1  0  0  0  0
  6  7  1  0  0  0  0
  6  9  1  0  0  0  0
  7  8  1  0  0  0  0
  9 10  1  0  0  0  0
 10 11  2  0  0  0  0
M  END
>  <CHROM.1>
-11.40488629,-13.25987703,7.20285051,2.00814619,-1.23486732,2.11782795

>  <Name>
ligand

>  <RI>
0

>  <Rbt.Current_Directory>
/home/itssahil/PROJECTS/Mol_Feturizer/New_Systems/rnas/2b57

>  <Rbt.Executable>
rbdock ($Id: //depot/dev/client3/rdock/2013.1/src/exe/rbdock.cxx#4 $)

>  <Rbt.Library>
libRbt.so (2013.1, Build901 2013/11/27)

>  <Rbt.Parameter_File>
/export/apps/rDock/src/rDock_2013.1_src/data/scripts/dock_solv.prm

>  <Rbt.Receptor>
prm/pocket_docking_3.prm

>  <SCORE>
-11.4745

>  <SCORE.INTER>
-11.4745

>  <SCORE.INTER.CONST>
1

>  <SCORE.INTER.POLAR>
0

>  <SCORE.INTER.ROT>
0

>  <SCORE.INTER.SOLV>
21.3287

>  <SCORE.INTER.VDW>
-18.3592

>  <SCORE.INTER.norm>
-1.04313

>  <SCORE.INTRA>
0

>  <SCORE.INTRA.DIHEDRAL>
0

>  <SCORE.INTRA.DIHEDRAL.0>
0

>  <SCORE.INTRA.POLAR>
0

>  <SCORE.INTRA.POLAR.0>
0

>  <SCORE.INTRA.REPUL>
0

>  <SCORE.INTRA.REPUL.0>
0

>  <SCORE.INTRA.SOLV>
0

>  <SCORE.INTRA.SOLV.lig_0>
-48.3454

>  <SCORE.INTRA.VDW>
0

>  <SCORE.INTRA.VDW.0>
0

>  <SCORE.INTRA.norm>
0

>  <SCORE.RESTR>
0

>  <SCORE.RESTR.CAVITY>
0

>  <SCORE.RESTR.norm>
0

>  <SCORE.SYSTEM>
0

>  <SCORE.SYSTEM.CONST>
0

>  <SCORE.SYSTEM.DIHEDRAL>
0

>  <SCORE.SYSTEM.SOLV>
0

>  <SCORE.SYSTEM.norm>
0

>  <SCORE.heavy>
11

>  <SCORE.norm>
-1.04313

>  <RMSD>
0.640

$$$$
ligand
 OpenBabel01301917033D
libRbt.so/2013.1/901 2013/11/27
 11 12  0  0  0  0  0  0  0  0999 V2000
  -11.8669  -12.7081    8.8027 N   0  0  0  0  0  0  0  0  0  0  0  0
  -11.5083  -13.9986    8.8954 C   0  0  0  0  0  0  0  0  0  0  0  0
  -11.5273  -14.6061   10.0785 N   0  0  0  0  0  0  0  0  0  0  0  0
  -11.1204  -14.6792    7.8057 N   0  0  0  0  0  0  0  0  0  0  0  0
  -11.0805  -14.0835    6.6046 C   0  0  0  0  0  0  0  0  0  0  0  0
  -11.4464  -12.7492    6.4809 C   0  0  0  0  0  0  0  0  0  0  0  0
  -11.8471  -12.0657    7.6241 C   0  0  0  0  0  0  0  0  0  0  0  0
  -12.2148  -10.7901    7.5496 N   0  0  0  0  0  0  0  0  0  0  0  0
  -11.3021  -12.4116    5.2029 N   0  0  0  0  0  0  0  0  0  0  0  0
  -10.8640  -13.4830    4.5456 C   0  0  0  0  0  0  0  0  0  0  0  0
  -10.7282  -14.5014    5.3923 N   0  0  0  0  0  0  0  0  0  0  0  0
  1  7  2  0  0  0  0
  1  2  1  0  0  0  0
  2  3  1  0  0  0  0
  2  4  2  0  0  0  0
  4  5  1  0  0  0  0
  5  6  2  0  0  0  0
  5 11  1  0  0  0  0
  6  7  1  0  0  0  0
  6  9  1  0  0  0  0
  7  8  1  0  0  0  0
  9 10  1  0  0  0  0
 10 11  2  0  0  0  0
M  END
>  <CHROM.1>
-11.41382294,-13.27993909,7.20444802,2.00382308,-1.23821892,2.11878127

>  <Name>
ligand

>  <RI>
0

>  <Rbt.Current_Directory>
/home/itssahil/PROJECTS/Mol_Feturizer/New_Systems/rnas/2b57

>  <Rbt.Executable>
rbdock ($Id: //depot/dev/client3/rdock/2013.1/src/exe/rbdock.cxx#4 $)

>  <Rbt.Library>
libRbt.so (2013.1, Build901 2013/11/27)

>  <Rbt.Parameter_File>
/export/apps/rDock/src/rDock_2013.1_src/data/scripts/dock_solv.prm

>  <Rbt.Receptor>
prm/pocket_docking_6.prm

>  <SCORE>
-11.4623

>  <SCORE.INTER>
-11.4623

>  <SCORE.INTER.CONST>
1

>  <SCORE.INTER.POLAR>
0

>  <SCORE.INTER.ROT>
0

>  <SCORE.INTER.SOLV>
21.3541

>  <SCORE.INTER.VDW>
-18.3595

>  <SCORE.INTER.norm>
-1.04202

>  <SCORE.INTRA>
0

>  <SCORE.INTRA.DIHEDRAL>
0

>  <SCORE.INTRA.DIHEDRAL.0>
0

>  <SCORE.INTRA.POLAR>
0

>  <SCORE.INTRA.POLAR.0>
0

>  <SCORE.INTRA.REPUL>
0

>  <SCORE.INTRA.REPUL.0>
0

>  <SCORE.INTRA.SOLV>
0

>  <SCORE.INTRA.SOLV.lig_0>
-48.3454

>  <SCORE.INTRA.VDW>
0

>  <SCORE.INTRA.VDW.0>
0

>  <SCORE.INTRA.norm>
0

>  <SCORE.RESTR>
0

>  <SCORE.RESTR.CAVITY>
0

>  <SCORE.RESTR.norm>
0

>  <SCORE.SYSTEM>
0

>  <SCORE.SYSTEM.CONST>
0

>  <SCORE.SYSTEM.DIHEDRAL>
0

>  <SCORE.SYSTEM.SOLV>
0

>  <SCORE.SYSTEM.norm>
0

>  <SCORE.heavy>
11

>  <SCORE.norm>
-1.04202

>  <RMSD>
0.640

$$$$
ligand
 OpenBabel01301917033D
libRbt.so/2013.1/901 2013/11/27
 11 12  0  0  0  0  0  0  0  0999 V2000
  -11.8205  -12.7264    8.8227 N   0  0  0  0  0  0  0  0  0  0  0  0
  -11.4660  -14.0193    8.8975 C   0  0  0  0  0  0  0  0  0  0  0  0
  -11.4714  -14.6385   10.0746 N   0  0  0  0  0  0  0  0  0  0  0  0
  -11.0960  -14.6904    7.7958 N   0  0  0  0  0  0  0  0  0  0  0  0
  -11.0701  -14.0828    6.6004 C   0  0  0  0  0  0  0  0  0  0  0  0
  -11.4319  -12.7458    6.4950 C   0  0  0  0  0  0  0  0  0  0  0  0
  -11.8141  -12.0723    7.6505 C   0  0  0  0  0  0  0  0  0  0  0  0
  -12.1774  -10.7944    7.5938 N   0  0  0  0  0  0  0  0  0  0  0  0
  -11.3037  -12.3959    5.2187 N   0  0  0  0  0  0  0  0  0  0  0  0
  -10.8793  -13.4625    4.5446 C   0  0  0  0  0  0  0  0  0  0  0  0
  -10.7361  -14.4899    5.3791 N   0  0  0  0  0  0  0  0  0  0  0  0
  1  7  2  0  0  0  0
  1  2  1  0  0  0  0
  2  3  1  0  0  0  0
  2  4  2  0  0  0  0
  4  5  1  0  0  0  0
  5  6  2  0  0  0  0
  5 11  1  0  0  0  0
  6  7  1  0  0  0  0
  6  9  1  0  0  0  0
  7  8  1  0  0  0  0
  9 10  1  0  0  0  0
 10 11  2  0  0  0  0
M  END
>  <CHROM.1>
-11.39170426,-13.28395773,7.21272387,1.97381780,-1.24881331,2.10042808

>  <Name>
ligand

>  <RI>
0

>  <Rbt.Current_Directory>
/home/itssahil/PROJECTS/Mol_Feturizer/New_Systems/rnas/2b57

>  <Rbt.Executable>
rbdock ($Id: //depot/dev/client3/rdock/2013.1/src/exe/rbdock.cxx#4 $)

>  <Rbt.Library>
libRbt.so (2013.1, Build901 2013/11/27)

>  <Rbt.Parameter_File>
/export/apps/rDock/src/rDock_2013.1_src/data/scripts/dock_solv.prm

>  <Rbt.Receptor>
prm/blind_docking_60.prm

>  <SCORE>
-11.4819

>  <SCORE.INTER>
-11.4819

>  <SCORE.INTER.CONST>
1

>  <SCORE.INTER.POLAR>
0

>  <SCORE.INTER.ROT>
0

>  <SCORE.INTER.SOLV>
21.5367

>  <SCORE.INTER.VDW>
-18.4335

>  <SCORE.INTER.norm>
-1.04381

>  <SCORE.INTRA>
0

>  <SCORE.INTRA.DIHEDRAL>
0

>  <SCORE.INTRA.DIHEDRAL.0>
0

>  <SCORE.INTRA.POLAR>
0

>  <SCORE.INTRA.POLAR.0>
0

>  <SCORE.INTRA.REPUL>
0

>  <SCORE.INTRA.REPUL.0>
0

>  <SCORE.INTRA.SOLV>
0

>  <SCORE.INTRA.SOLV.lig_0>
-48.3454

>  <SCORE.INTRA.VDW>
0

>  <SCORE.INTRA.VDW.0>
0

>  <SCORE.INTRA.norm>
0

>  <SCORE.RESTR>
0

>  <SCORE.RESTR.CAVITY>
0

>  <SCORE.RESTR.norm>
0

>  <SCORE.SYSTEM>
0

>  <SCORE.SYSTEM.CONST>
0

>  <SCORE.SYSTEM.DIHEDRAL>
0

>  <SCORE.SYSTEM.SOLV>
0

>  <SCORE.SYSTEM.norm>
0

>  <SCORE.heavy>
11

>  <SCORE.norm>
-1.04381

>  <RMSD>
0.642

$$$$
ligand
 OpenBabel01301917033D
libRbt.so/2013.1/901 2013/11/27
 11 12  0  0  0  0  0  0  0  0999 V2000
  -11.8622  -12.6865    8.7965 N   0  0  0  0  0  0  0  0  0  0  0  0
  -11.5038  -13.9767    8.8945 C   0  0  0  0  0  0  0  0  0  0  0  0
  -11.5265  -14.5802   10.0795 N   0  0  0  0  0  0  0  0  0  0  0  0
  -11.1125  -14.6608    7.8082 N   0  0  0  0  0  0  0  0  0  0  0  0
  -11.0690  -14.0690    6.6054 C   0  0  0  0  0  0  0  0  0  0  0  0
  -11.4345  -12.7351    6.4761 C   0  0  0  0  0  0  0  0  0  0  0  0
  -11.8388  -12.0479    7.6159 C   0  0  0  0  0  0  0  0  0  0  0  0
  -12.2064  -10.7725    7.5360 N   0  0  0  0  0  0  0  0  0  0  0  0
  -11.2863  -12.4016    5.1975 N   0  0  0  0  0  0  0  0  0  0  0  0
  -10.8462  -13.4752    4.5450 C   0  0  0  0  0  0  0  0  0  0  0  0
  -10.7129  -14.4908    5.3954 N   0  0  0  0  0  0  0  0  0  0  0  0
  1  7  2  0  0  0  0
  1  2  1  0  0  0  0
  2  3  1  0  0  0  0
  2  4  2  0  0  0  0
  4  5  1  0  0  0  0
  5  6  2  0  0  0  0
  5 11  1  0  0  0  0
  6  7  1  0  0  0  0
  6  9  1  0  0  0  0
  7  8  1  0  0  0  0
  9 10  1  0  0  0  0
 10 11  2  0  0  0  0
M  END
>  <CHROM.1>
-11.40417250,-13.26347471,7.20150938,2.01181281,-1.23655889,2.12307874

>  <Name>
ligand

>  <RI>
0

>  <Rbt.Current_Directory>
/home/itssahil/PROJECTS/Mol_Feturizer/New_Systems/rnas/2b57

>  <Rbt.Executable>
rbdock ($Id: //depot/dev/client3/rdock/2013.1/src/exe/rbdock.cxx#4 $)

>  <Rbt.Library>
libRbt.so (2013.1, Build901 2013/11/27)

>  <Rbt.Parameter_File>
/export/apps/rDock/src/rDock_2013.1_src/data/scripts/dock_solv.prm

>  <Rbt.Receptor>
prm/pocket_docking_4.prm

>  <SCORE>
-11.4744

>  <SCORE.INTER>
-11.4744

>  <SCORE.INTER.CONST>
1

>  <SCORE.INTER.POLAR>
0

>  <SCORE.INTER.ROT>
0

>  <SCORE.INTER.SOLV>
21.3507

>  <SCORE.INTER.VDW>
-18.3665

>  <SCORE.INTER.norm>
-1.04313

>  <SCORE.INTRA>
0

>  <SCORE.INTRA.DIHEDRAL>
0

>  <SCORE.INTRA.DIHEDRAL.0>
0

>  <SCORE.INTRA.POLAR>
0

>  <SCORE.INTRA.POLAR.0>
0

>  <SCORE.INTRA.REPUL>
0

>  <SCORE.INTRA.REPUL.0>
0

>  <SCORE.INTRA.SOLV>
0

>  <SCORE.INTRA.SOLV.lig_0>
-48.3454

>  <SCORE.INTRA.VDW>
0

>  <SCORE.INTRA.VDW.0>
0

>  <SCORE.INTRA.norm>
0

>  <SCORE.RESTR>
0

>  <SCORE.RESTR.CAVITY>
0

>  <SCORE.RESTR.norm>
0

>  <SCORE.SYSTEM>
0

>  <SCORE.SYSTEM.CONST>
0

>  <SCORE.SYSTEM.DIHEDRAL>
0

>  <SCORE.SYSTEM.SOLV>
0

>  <SCORE.SYSTEM.norm>
0

>  <SCORE.heavy>
11

>  <SCORE.norm>
-1.04313

>  <RMSD>
0.642

$$$$
ligand
 OpenBabel01301917033D
libRbt.so/2013.1/901 2013/11/27
 11 12  0  0  0  0  0  0  0  0999 V2000
  -11.8298  -12.7432    8.8252 N   0  0  0  0  0  0  0  0  0  0  0  0
  -11.4842  -14.0388    8.8937 C   0  0  0  0  0  0  0  0  0  0  0  0
  -11.4954  -14.6641   10.0675 N   0  0  0  0  0  0  0  0  0  0  0  0
  -11.1173  -14.7066    7.7890 N   0  0  0  0  0  0  0  0  0  0  0  0
  -11.0856  -14.0930    6.5968 C   0  0  0  0  0  0  0  0  0  0  0  0
  -11.4382  -12.7530    6.4980 C   0  0  0  0  0  0  0  0  0  0  0  0
  -11.8174  -12.0830    7.6565 C   0  0  0  0  0  0  0  0  0  0  0  0
  -12.1719  -10.8024    7.6060 N   0  0  0  0  0  0  0  0  0  0  0  0
  -11.3059  -12.3973    5.2237 N   0  0  0  0  0  0  0  0  0  0  0  0
  -10.8878  -13.4632    4.5446 C   0  0  0  0  0  0  0  0  0  0  0  0
  -10.7528  -14.4959    5.3739 N   0  0  0  0  0  0  0  0  0  0  0  0
  1  7  2  0  0  0  0
  1  2  1  0  0  0  0
  2  3  1  0  0  0  0
  2  4  2  0  0  0  0
  4  5  1  0  0  0  0
  5  6  2  0  0  0  0
  5 11  1  0  0  0  0
  6  7  1  0  0  0  0
  6  9  1  0  0  0  0
  7  8  1  0  0  0  0
  9 10  1  0  0  0  0
 10 11  2  0  0  0  0
M  END
>  <CHROM.1>
-11.40263036,-13.29516687,7.21292474,1.98859770,-1.25396985,2.11969793

>  <Name>
ligand

>  <RI>
0

>  <Rbt.Current_Directory>
/home/itssahil/PROJECTS/Mol_Feturizer/New_Systems/rnas/2b57

>  <Rbt.Executable>
rbdock ($Id: //depot/dev/client3/rdock/2013.1/src/exe/rbdock.cxx#4 $)

>  <Rbt.Library>
libRbt.so (2013.1, Build901 2013/11/27)

>  <Rbt.Parameter_File>
/export/apps/rDock/src/rDock_2013.1_src/data/scripts/dock_solv.prm

>  <Rbt.Receptor>
prm/pocket_docking_5.prm

>  <SCORE>
-11.4766

>  <SCORE.INTER>
-11.4766

>  <SCORE.INTER.CONST>
1

>  <SCORE.INTER.POLAR>
0

>  <SCORE.INTER.ROT>
0

>  <SCORE.INTER.SOLV>
21.5837

>  <SCORE.INTER.VDW>
-18.4457

>  <SCORE.INTER.norm>
-1.04333

>  <SCORE.INTRA>
0

>  <SCORE.INTRA.DIHEDRAL>
0

>  <SCORE.INTRA.DIHEDRAL.0>
0

>  <SCORE.INTRA.POLAR>
0

>  <SCORE.INTRA.POLAR.0>
0

>  <SCORE.INTRA.REPUL>
0

>  <SCORE.INTRA.REPUL.0>
0

>  <SCORE.INTRA.SOLV>
0

>  <SCORE.INTRA.SOLV.lig_0>
-48.3454

>  <SCORE.INTRA.VDW>
0

>  <SCORE.INTRA.VDW.0>
0

>  <SCORE.INTRA.norm>
0

>  <SCORE.RESTR>
0

>  <SCORE.RESTR.CAVITY>
0

>  <SCORE.RESTR.norm>
0

>  <SCORE.SYSTEM>
0

>  <SCORE.SYSTEM.CONST>
0

>  <SCORE.SYSTEM.DIHEDRAL>
0

>  <SCORE.SYSTEM.SOLV>
0

>  <SCORE.SYSTEM.norm>
0

>  <SCORE.heavy>
11

>  <SCORE.norm>
-1.04333

>  <RMSD>
0.642

$$$$
ligand
 OpenBabel01301917033D
libRbt.so/2013.1/901 2013/11/27
 11 12  0  0  0  0  0  0  0  0999 V2000
  -11.8764  -12.6911    8.7933 N   0  0  0  0  0  0  0  0  0  0  0  0
  -11.5204  -13.9821    8.8892 C   0  0  0  0  0  0  0  0  0  0  0  0
  -11.5506  -14.5894   10.0721 N   0  0  0  0  0  0  0  0  0  0  0  0
  -11.1242  -14.6634    7.8030 N   0  0  0  0  0  0  0  0  0  0  0  0
  -11.0731  -14.0678    6.6023 C   0  0  0  0  0  0  0  0  0  0  0  0
  -11.4358  -12.7330    6.4752 C   0  0  0  0  0  0  0  0  0  0  0  0
  -11.8454  -12.0488    7.6150 C   0  0  0  0  0  0  0  0  0  0  0  0
  -12.2106  -10.7726    7.5371 N   0  0  0  0  0  0  0  0  0  0  0  0
  -11.2800  -12.3957    5.1986 N   0  0  0  0  0  0  0  0  0  0  0  0
  -10.8379  -13.4678    4.5451 C   0  0  0  0  0  0  0  0  0  0  0  0
  -10.7109  -14.4864    5.3930 N   0  0  0  0  0  0  0  0  0  0  0  0
  1  7  2  0  0  0  0
  1  2  1  0  0  0  0
  2  3  1  0  0  0  0
  2  4  2  0  0  0  0
  4  5  1  0  0  0  0
  5  6  2  0  0  0  0
  5 11  1  0  0  0  0
  6  7  1  0  0  0  0
  6  9  1  0  0  0  0
  7  8  1  0  0  0  0
  9 10  1  0  0  0  0
 10 11  2  0  0  0  0
M  END
>  <CHROM.1>
-11.41033317,-13.26370575,7.19910837,2.02856596,-1.23488624,2.14207303

>  <Name>
ligand

>  <RI>
0

>  <Rbt.Current_Directory>
/home/itssahil/PROJECTS/Mol_Feturizer/New_Systems/rnas/2b57

>  <Rbt.Executable>
rbdock ($Id: //depot/dev/client3/rdock/2013.1/src/exe/rbdock.cxx#4 $)

>  <Rbt.Library>
libRbt.so (2013.1, Build901 2013/11/27)

>  <Rbt.Parameter_File>
/export/apps/rDock/src/rDock_2013.1_src/data/scripts/dock_solv.prm

>  <Rbt.Receptor>
prm/pocket_docking_8.prm

>  <SCORE>
-11.4485

>  <SCORE.INTER>
-11.4485

>  <SCORE.INTER.CONST>
1

>  <SCORE.INTER.POLAR>
0

>  <SCORE.INTER.ROT>
0

>  <SCORE.INTER.SOLV>
21.3412

>  <SCORE.INTER.VDW>
-18.346

>  <SCORE.INTER.norm>
-1.04077

>  <SCORE.INTRA>
0

>  <SCORE.INTRA.DIHEDRAL>
0

>  <SCORE.INTRA.DIHEDRAL.0>
0

>  <SCORE.INTRA.POLAR>
0

>  <SCORE.INTRA.POLAR.0>
0

>  <SCORE.INTRA.REPUL>
0

>  <SCORE.INTRA.REPUL.0>
0

>  <SCORE.INTRA.SOLV>
0

>  <SCORE.INTRA.SOLV.lig_0>
-48.3454

>  <SCORE.INTRA.VDW>
0

>  <SCORE.INTRA.VDW.0>
0

>  <SCORE.INTRA.norm>
0

>  <SCORE.RESTR>
0

>  <SCORE.RESTR.CAVITY>
0

>  <SCORE.RESTR.norm>
0

>  <SCORE.SYSTEM>
0

>  <SCORE.SYSTEM.CONST>
0

>  <SCORE.SYSTEM.DIHEDRAL>
0

>  <SCORE.SYSTEM.SOLV>
0

>  <SCORE.SYSTEM.norm>
0

>  <SCORE.heavy>
11

>  <SCORE.norm>
-1.04077

>  <RMSD>
0.642

$$$$
ligand
 OpenBabel01301917033D
libRbt.so/2013.1/901 2013/11/27
 11 12  0  0  0  0  0  0  0  0999 V2000
  -11.8642  -12.7173    8.8035 N   0  0  0  0  0  0  0  0  0  0  0  0
  -11.5223  -14.0129    8.8879 C   0  0  0  0  0  0  0  0  0  0  0  0
  -11.5573  -14.6298   10.0658 N   0  0  0  0  0  0  0  0  0  0  0  0
  -11.1354  -14.6893    7.7953 N   0  0  0  0  0  0  0  0  0  0  0  0
  -11.0796  -14.0843    6.5996 C   0  0  0  0  0  0  0  0  0  0  0  0
  -11.4279  -12.7445    6.4844 C   0  0  0  0  0  0  0  0  0  0  0  0
  -11.8281  -12.0655    7.6305 C   0  0  0  0  0  0  0  0  0  0  0  0
  -12.1793  -10.7848    7.5640 N   0  0  0  0  0  0  0  0  0  0  0  0
  -11.2704  -12.3983    5.2103 N   0  0  0  0  0  0  0  0  0  0  0  0
  -10.8412  -13.4697    4.5471 C   0  0  0  0  0  0  0  0  0  0  0  0
  -10.7241  -14.4966    5.3862 N   0  0  0  0  0  0  0  0  0  0  0  0
  1  7  2  0  0  0  0
  1  2  1  0  0  0  0
  2  3  1  0  0  0  0
  2  4  2  0  0  0  0
  4  5  1  0  0  0  0
  5  6  2  0  0  0  0
  5 11  1  0  0  0  0
  6  7  1  0  0  0  0
  6  9  1  0  0  0  0
  7  8  1  0  0  0  0
  9 10  1  0  0  0  0
 10 11  2  0  0  0  0
M  END
>  <CHROM.1>
-11.40705844,-13.28158574,7.20372247,2.04292428,-1.24500069,2.16405444

>  <Name>
ligand

>  <RI>
0

>  <Rbt.Current_Directory>
/home/itssahil/PROJECTS/Mol_Feturizer/New_Systems/rnas/2b57

>  <Rbt.Executable>
rbdock ($Id: //depot/dev/client3/rdock/2013.1/src/exe/rbdock.cxx#4 $)

>  <Rbt.Library>
libRbt.so (2013.1, Build901 2013/11/27)

>  <Rbt.Parameter_File>
/export/apps/rDock/src/rDock_2013.1_src/data/scripts/dock_solv.prm

>  <Rbt.Receptor>
prm/pocket_docking_8.prm

>  <SCORE>
-11.4573

>  <SCORE.INTER>
-11.4573

>  <SCORE.INTER.CONST>
1

>  <SCORE.INTER.POLAR>
0

>  <SCORE.INTER.ROT>
0

>  <SCORE.INTER.SOLV>
21.4965

>  <SCORE.INTER.VDW>
-18.4037

>  <SCORE.INTER.norm>
-1.04157

>  <SCORE.INTRA>
0

>  <SCORE.INTRA.DIHEDRAL>
0

>  <SCORE.INTRA.DIHEDRAL.0>
0

>  <SCORE.INTRA.POLAR>
0

>  <SCORE.INTRA.POLAR.0>
0

>  <SCORE.INTRA.REPUL>
0

>  <SCORE.INTRA.REPUL.0>
0

>  <SCORE.INTRA.SOLV>
0

>  <SCORE.INTRA.SOLV.lig_0>
-48.3454

>  <SCORE.INTRA.VDW>
0

>  <SCORE.INTRA.VDW.0>
0

>  <SCORE.INTRA.norm>
0

>  <SCORE.RESTR>
0

>  <SCORE.RESTR.CAVITY>
0

>  <SCORE.RESTR.norm>
0

>  <SCORE.SYSTEM>
0

>  <SCORE.SYSTEM.CONST>
0

>  <SCORE.SYSTEM.DIHEDRAL>
0

>  <SCORE.SYSTEM.SOLV>
0

>  <SCORE.SYSTEM.norm>
0

>  <SCORE.heavy>
11

>  <SCORE.norm>
-1.04157

>  <RMSD>
0.643

$$$$
ligand
 OpenBabel01301917033D
libRbt.so/2013.1/901 2013/11/27
 11 12  0  0  0  0  0  0  0  0999 V2000
  -11.8341  -12.7616    8.8237 N   0  0  0  0  0  0  0  0  0  0  0  0
  -11.4878  -14.0569    8.8946 C   0  0  0  0  0  0  0  0  0  0  0  0
  -11.5122  -14.6838   10.0674 N   0  0  0  0  0  0  0  0  0  0  0  0
  -11.1070  -14.7229    7.7934 N   0  0  0  0  0  0  0  0  0  0  0  0
  -11.0620  -14.1076    6.6025 C   0  0  0  0  0  0  0  0  0  0  0  0
  -11.4150  -12.7679    6.5013 C   0  0  0  0  0  0  0  0  0  0  0  0
  -11.8086  -12.0999    7.6560 C   0  0  0  0  0  0  0  0  0  0  0  0
  -12.1640  -10.8196    7.6030 N   0  0  0  0  0  0  0  0  0  0  0  0
  -11.2680  -12.4104    5.2290 N   0  0  0  0  0  0  0  0  0  0  0  0
  -10.8406  -13.4749    4.5536 C   0  0  0  0  0  0  0  0  0  0  0  0
  -10.7142  -14.5086    5.3831 N   0  0  0  0  0  0  0  0  0  0  0  0
  1  7  2  0  0  0  0
  1  2  1  0  0  0  0
  2  3  1  0  0  0  0
  2  4  2  0  0  0  0
  4  5  1  0  0  0  0
  5  6  2  0  0  0  0
  5 11  1  0  0  0  0
  6  7  1  0  0  0  0
  6  9  1  0  0  0  0
  7  8  1  0  0  0  0
  9 10  1  0  0  0  0
 10 11  2  0  0  0  0
M  END
>  <CHROM.1>
-11.38722736,-13.31099648,7.21585498,2.01842893,-1.24664585,2.14931885

>  <Name>
ligand

>  <RI>
0

>  <Rbt.Current_Directory>
/home/itssahil/PROJECTS/Mol_Feturizer/New_Systems/rnas/2b57

>  <Rbt.Executable>
rbdock ($Id: //depot/dev/client3/rdock/2013.1/src/exe/rbdock.cxx#4 $)

>  <Rbt.Library>
libRbt.so (2013.1, Build901 2013/11/27)

>  <Rbt.Parameter_File>
/export/apps/rDock/src/rDock_2013.1_src/data/scripts/dock_solv.prm

>  <Rbt.Receptor>
prm/pocket_docking_3.prm

>  <SCORE>
-11.4661

>  <SCORE.INTER>
-11.4661

>  <SCORE.INTER.CONST>
1

>  <SCORE.INTER.POLAR>
0

>  <SCORE.INTER.ROT>
0

>  <SCORE.INTER.SOLV>
21.6021

>  <SCORE.INTER.VDW>
-18.4447

>  <SCORE.INTER.norm>
-1.04237

>  <SCORE.INTRA>
0

>  <SCORE.INTRA.DIHEDRAL>
0

>  <SCORE.INTRA.DIHEDRAL.0>
0

>  <SCORE.INTRA.POLAR>
0

>  <SCORE.INTRA.POLAR.0>
0

>  <SCORE.INTRA.REPUL>
0

>  <SCORE.INTRA.REPUL.0>
0

>  <SCORE.INTRA.SOLV>
0

>  <SCORE.INTRA.SOLV.lig_0>
-48.3454

>  <SCORE.INTRA.VDW>
0

>  <SCORE.INTRA.VDW.0>
0

>  <SCORE.INTRA.norm>
0

>  <SCORE.RESTR>
0

>  <SCORE.RESTR.CAVITY>
0

>  <SCORE.RESTR.norm>
0

>  <SCORE.SYSTEM>
0

>  <SCORE.SYSTEM.CONST>
0

>  <SCORE.SYSTEM.DIHEDRAL>
0

>  <SCORE.SYSTEM.SOLV>
0

>  <SCORE.SYSTEM.norm>
0

>  <SCORE.heavy>
11

>  <SCORE.norm>
-1.04237

>  <RMSD>
0.644

$$$$
ligand
 OpenBabel01301917033D
libRbt.so/2013.1/901 2013/11/27
 11 12  0  0  0  0  0  0  0  0999 V2000
  -11.8451  -12.7115    8.8073 N   0  0  0  0  0  0  0  0  0  0  0  0
  -11.5002  -14.0062    8.8938 C   0  0  0  0  0  0  0  0  0  0  0  0
  -11.5193  -14.6173   10.0750 N   0  0  0  0  0  0  0  0  0  0  0  0
  -11.1260  -14.6875    7.7997 N   0  0  0  0  0  0  0  0  0  0  0  0
  -11.0864  -14.0883    6.6004 C   0  0  0  0  0  0  0  0  0  0  0  0
  -11.4382  -12.7496    6.4830 C   0  0  0  0  0  0  0  0  0  0  0  0
  -11.8249  -12.0656    7.6307 C   0  0  0  0  0  0  0  0  0  0  0  0
  -12.1789  -10.7857    7.5623 N   0  0  0  0  0  0  0  0  0  0  0  0
  -11.2974  -12.4095    5.2053 N   0  0  0  0  0  0  0  0  0  0  0  0
  -10.8749  -13.4835    4.5421 C   0  0  0  0  0  0  0  0  0  0  0  0
  -10.7455  -14.5061    5.3847 N   0  0  0  0  0  0  0  0  0  0  0  0
  1  7  2  0  0  0  0
  1  2  1  0  0  0  0
  2  3  1  0  0  0  0
  2  4  2  0  0  0  0
  4  5  1  0  0  0  0
  5  6  2  0  0  0  0
  5 11  1  0  0  0  0
  6  7  1  0  0  0  0
  6  9  1  0  0  0  0
  7  8  1  0  0  0  0
  9 10  1  0  0  0  0
 10 11  2  0  0  0  0
M  END
>  <CHROM.1>
-11.40739637,-13.28308991,7.20464325,2.00679350,-1.25057381,2.12483250

>  <Name>
ligand

>  <RI>
0

>  <Rbt.Current_Directory>
/home/itssahil/PROJECTS/Mol_Feturizer/New_Systems/rnas/2b57

>  <Rbt.Executable>
rbdock ($Id: //depot/dev/client3/rdock/2013.1/src/exe/rbdock.cxx#4 $)

>  <Rbt.Library>
libRbt.so (2013.1, Build901 2013/11/27)

>  <Rbt.Parameter_File>
/export/apps/rDock/src/rDock_2013.1_src/data/scripts/dock_solv.prm

>  <Rbt.Receptor>
prm/pocket_docking_6.prm

>  <SCORE>
-11.4757

>  <SCORE.INTER>
-11.4757

>  <SCORE.INTER.CONST>
1

>  <SCORE.INTER.POLAR>
0

>  <SCORE.INTER.ROT>
0

>  <SCORE.INTER.SOLV>
21.4923

>  <SCORE.INTER.VDW>
-18.4145

>  <SCORE.INTER.norm>
-1.04324

>  <SCORE.INTRA>
0

>  <SCORE.INTRA.DIHEDRAL>
0

>  <SCORE.INTRA.DIHEDRAL.0>
0

>  <SCORE.INTRA.POLAR>
0

>  <SCORE.INTRA.POLAR.0>
0

>  <SCORE.INTRA.REPUL>
0

>  <SCORE.INTRA.REPUL.0>
0

>  <SCORE.INTRA.SOLV>
0

>  <SCORE.INTRA.SOLV.lig_0>
-48.3454

>  <SCORE.INTRA.VDW>
0

>  <SCORE.INTRA.VDW.0>
0

>  <SCORE.INTRA.norm>
0

>  <SCORE.RESTR>
0

>  <SCORE.RESTR.CAVITY>
0

>  <SCORE.RESTR.norm>
0

>  <SCORE.SYSTEM>
0

>  <SCORE.SYSTEM.CONST>
0

>  <SCORE.SYSTEM.DIHEDRAL>
0

>  <SCORE.SYSTEM.SOLV>
0

>  <SCORE.SYSTEM.norm>
0

>  <SCORE.heavy>
11

>  <SCORE.norm>
-1.04324

>  <RMSD>
0.644

$$$$
ligand
 OpenBabel01301917033D
libRbt.so/2013.1/901 2013/11/27
 11 12  0  0  0  0  0  0  0  0999 V2000
  -11.8790  -12.7074    8.7927 N   0  0  0  0  0  0  0  0  0  0  0  0
  -11.5227  -13.9985    8.8867 C   0  0  0  0  0  0  0  0  0  0  0  0
  -11.5539  -14.6079   10.0685 N   0  0  0  0  0  0  0  0  0  0  0  0
  -11.1249  -14.6777    7.7997 N   0  0  0  0  0  0  0  0  0  0  0  0
  -11.0727  -14.0800    6.6001 C   0  0  0  0  0  0  0  0  0  0  0  0
  -11.4358  -12.7450    6.4751 C   0  0  0  0  0  0  0  0  0  0  0  0
  -11.8469  -12.0631    7.6156 C   0  0  0  0  0  0  0  0  0  0  0  0
  -12.2124  -10.7869    7.5396 N   0  0  0  0  0  0  0  0  0  0  0  0
  -11.2786  -12.4054    5.1992 N   0  0  0  0  0  0  0  0  0  0  0  0
  -10.8354  -13.4763    4.5443 C   0  0  0  0  0  0  0  0  0  0  0  0
  -10.7090  -14.4963    5.3905 N   0  0  0  0  0  0  0  0  0  0  0  0
  1  7  2  0  0  0  0
  1  2  1  0  0  0  0
  2  3  1  0  0  0  0
  2  4  2  0  0  0  0
  4  5  1  0  0  0  0
  5  6  2  0  0  0  0
  5 11  1  0  0  0  0
  6  7  1  0  0  0  0
  6  9  1  0  0  0  0
  7  8  1  0  0  0  0
  9 10  1  0  0  0  0
 10 11  2  0  0  0  0
M  END
>  <CHROM.1>
-11.41088663,-13.27707029,7.19802478,2.03086982,-1.23397629,2.14603817

>  <Name>
ligand

>  <RI>
0

>  <Rbt.Current_Directory>
/home/itssahil/PROJECTS/Mol_Feturizer/New_Systems/rnas/2b57

>  <Rbt.Executable>
rbdock ($Id: //depot/dev/client3/rdock/2013.1/src/exe/rbdock.cxx#4 $)

>  <Rbt.Library>
libRbt.so (2013.1, Build901 2013/11/27)

>  <Rbt.Parameter_File>
/export/apps/rDock/src/rDock_2013.1_src/data/scripts/dock_solv.prm

>  <Rbt.Receptor>
prm/pocket_docking_7.prm

>  <SCORE>
-11.4432

>  <SCORE.INTER>
-11.4432

>  <SCORE.INTER.CONST>
1

>  <SCORE.INTER.POLAR>
0

>  <SCORE.INTER.ROT>
0

>  <SCORE.INTER.SOLV>
21.3481

>  <SCORE.INTER.VDW>
-18.3449

>  <SCORE.INTER.norm>
-1.0403

>  <SCORE.INTRA>
0

>  <SCORE.INTRA.DIHEDRAL>
0

>  <SCORE.INTRA.DIHEDRAL.0>
0

>  <SCORE.INTRA.POLAR>
0

>  <SCORE.INTRA.POLAR.0>
0

>  <SCORE.INTRA.REPUL>
0

>  <SCORE.INTRA.REPUL.0>
0

>  <SCORE.INTRA.SOLV>
0

>  <SCORE.INTRA.SOLV.lig_0>
-48.3454

>  <SCORE.INTRA.VDW>
0

>  <SCORE.INTRA.VDW.0>
0

>  <SCORE.INTRA.norm>
0

>  <SCORE.RESTR>
0

>  <SCORE.RESTR.CAVITY>
0

>  <SCORE.RESTR.norm>
0

>  <SCORE.SYSTEM>
0

>  <SCORE.SYSTEM.CONST>
0

>  <SCORE.SYSTEM.DIHEDRAL>
0

>  <SCORE.SYSTEM.SOLV>
0

>  <SCORE.SYSTEM.norm>
0

>  <SCORE.heavy>
11

>  <SCORE.norm>
-1.0403

>  <RMSD>
0.645

$$$$
ligand
 OpenBabel01301917033D
libRbt.so/2013.1/901 2013/11/27
 11 12  0  0  0  0  0  0  0  0999 V2000
  -11.8349  -12.7621    8.8230 N   0  0  0  0  0  0  0  0  0  0  0  0
  -11.4800  -14.0555    8.8852 C   0  0  0  0  0  0  0  0  0  0  0  0
  -11.4872  -14.6868   10.0558 N   0  0  0  0  0  0  0  0  0  0  0  0
  -11.1078  -14.7151    7.7773 N   0  0  0  0  0  0  0  0  0  0  0  0
  -11.0800  -14.0953    6.5882 C   0  0  0  0  0  0  0  0  0  0  0  0
  -11.4422  -12.7574    6.4959 C   0  0  0  0  0  0  0  0  0  0  0  0
  -11.8267  -12.0959    7.6576 C   0  0  0  0  0  0  0  0  0  0  0  0
  -12.1904  -10.8177    7.6133 N   0  0  0  0  0  0  0  0  0  0  0  0
  -11.3119  -12.3944    5.2235 N   0  0  0  0  0  0  0  0  0  0  0  0
  -10.8858  -13.4538    4.5393 C   0  0  0  0  0  0  0  0  0  0  0  0
  -10.7438  -14.4897    5.3634 N   0  0  0  0  0  0  0  0  0  0  0  0
  1  7  2  0  0  0  0
  1  2  1  0  0  0  0
  2  3  1  0  0  0  0
  2  4  2  0  0  0  0
  4  5  1  0  0  0  0
  5  6  2  0  0  0  0
  5 11  1  0  0  0  0
  6  7  1  0  0  0  0
  6  9  1  0  0  0  0
  7  8  1  0  0  0  0
  9 10  1  0  0  0  0
 10 11  2  0  0  0  0
M  END
>  <CHROM.1>
-11.40304596,-13.30287262,7.20813813,1.97797915,-1.24759334,2.11464097

>  <Name>
ligand

>  <RI>
0

>  <Rbt.Current_Directory>
/home/itssahil/PROJECTS/Mol_Feturizer/New_Systems/rnas/2b57

>  <Rbt.Executable>
rbdock ($Id: //depot/dev/client3/rdock/2013.1/src/exe/rbdock.cxx#4 $)

>  <Rbt.Library>
libRbt.so (2013.1, Build901 2013/11/27)

>  <Rbt.Parameter_File>
/export/apps/rDock/src/rDock_2013.1_src/data/scripts/dock_solv.prm

>  <Rbt.Receptor>
prm/pocket_docking_5.prm

>  <SCORE>
-11.4877

>  <SCORE.INTER>
-11.4877

>  <SCORE.INTER.CONST>
1

>  <SCORE.INTER.POLAR>
0

>  <SCORE.INTER.ROT>
0

>  <SCORE.INTER.SOLV>
21.5317

>  <SCORE.INTER.VDW>
-18.4357

>  <SCORE.INTER.norm>
-1.04433

>  <SCORE.INTRA>
0

>  <SCORE.INTRA.DIHEDRAL>
0

>  <SCORE.INTRA.DIHEDRAL.0>
0

>  <SCORE.INTRA.POLAR>
0

>  <SCORE.INTRA.POLAR.0>
0

>  <SCORE.INTRA.REPUL>
0

>  <SCORE.INTRA.REPUL.0>
0

>  <SCORE.INTRA.SOLV>
0

>  <SCORE.INTRA.SOLV.lig_0>
-48.3454

>  <SCORE.INTRA.VDW>
0

>  <SCORE.INTRA.VDW.0>
0

>  <SCORE.INTRA.norm>
0

>  <SCORE.RESTR>
0

>  <SCORE.RESTR.CAVITY>
0

>  <SCORE.RESTR.norm>
0

>  <SCORE.SYSTEM>
0

>  <SCORE.SYSTEM.CONST>
0

>  <SCORE.SYSTEM.DIHEDRAL>
0

>  <SCORE.SYSTEM.SOLV>
0

>  <SCORE.SYSTEM.norm>
0

>  <SCORE.heavy>
11

>  <SCORE.norm>
-1.04433

>  <RMSD>
0.648

$$$$
ligand
 OpenBabel01301917033D
libRbt.so/2013.1/901 2013/11/27
 11 12  0  0  0  0  0  0  0  0999 V2000
  -11.8221  -12.7560    8.8265 N   0  0  0  0  0  0  0  0  0  0  0  0
  -11.4814  -14.0533    8.8852 C   0  0  0  0  0  0  0  0  0  0  0  0
  -11.5020  -14.6894   10.0531 N   0  0  0  0  0  0  0  0  0  0  0  0
  -11.1099  -14.7123    7.7766 N   0  0  0  0  0  0  0  0  0  0  0  0
  -11.0687  -14.0878    6.5904 C   0  0  0  0  0  0  0  0  0  0  0  0
  -11.4161  -12.7457    6.5018 C   0  0  0  0  0  0  0  0  0  0  0  0
  -11.8002  -12.0851    7.6640 C   0  0  0  0  0  0  0  0  0  0  0  0
  -12.1500  -10.8029    7.6231 N   0  0  0  0  0  0  0  0  0  0  0  0
  -11.2747  -12.3788    5.2316 N   0  0  0  0  0  0  0  0  0  0  0  0
  -10.8561  -13.4398    4.5453 C   0  0  0  0  0  0  0  0  0  0  0  0
  -10.7297  -14.4806    5.3659 N   0  0  0  0  0  0  0  0  0  0  0  0
  1  7  2  0  0  0  0
  1  2  1  0  0  0  0
  2  3  1  0  0  0  0
  2  4  2  0  0  0  0
  4  5  1  0  0  0  0
  5  6  2  0  0  0  0
  5 11  1  0  0  0  0
  6  7  1  0  0  0  0
  6  9  1  0  0  0  0
  7  8  1  0  0  0  0
  9 10  1  0  0  0  0
 10 11  2  0  0  0  0
M  END
>  <CHROM.1>
-11.38684034,-13.29459079,7.21184193,2.01126306,-1.25357925,2.15044521

>  <Name>
ligand

>  <RI>
0

>  <Rbt.Current_Directory>
/home/itssahil/PROJECTS/Mol_Feturizer/New_Systems/rnas/2b57

>  <Rbt.Executable>
rbdock ($Id: //depot/dev/client3/rdock/2013.1/src/exe/rbdock.cxx#4 $)

>  <Rbt.Library>
libRbt.so (2013.1, Build901 2013/11/27)

>  <Rbt.Parameter_File>
/export/apps/rDock/src/rDock_2013.1_src/data/scripts/dock_solv.prm

>  <Rbt.Receptor>
prm/pocket_docking_8.prm

>  <SCORE>
-11.4824

>  <SCORE.INTER>
-11.4824

>  <SCORE.INTER.CONST>
1

>  <SCORE.INTER.POLAR>
0

>  <SCORE.INTER.ROT>
0

>  <SCORE.INTER.SOLV>
21.6916

>  <SCORE.INTER.VDW>
-18.4854

>  <SCORE.INTER.norm>
-1.04385

>  <SCORE.INTRA>
0

>  <SCORE.INTRA.DIHEDRAL>
0

>  <SCORE.INTRA.DIHEDRAL.0>
0

>  <SCORE.INTRA.POLAR>
0

>  <SCORE.INTRA.POLAR.0>
0

>  <SCORE.INTRA.REPUL>
0

>  <SCORE.INTRA.REPUL.0>
0

>  <SCORE.INTRA.SOLV>
0

>  <SCORE.INTRA.SOLV.lig_0>
-48.3454

>  <SCORE.INTRA.VDW>
0

>  <SCORE.INTRA.VDW.0>
0

>  <SCORE.INTRA.norm>
0

>  <SCORE.RESTR>
0

>  <SCORE.RESTR.CAVITY>
0

>  <SCORE.RESTR.norm>
0

>  <SCORE.SYSTEM>
0

>  <SCORE.SYSTEM.CONST>
0

>  <SCORE.SYSTEM.DIHEDRAL>
0

>  <SCORE.SYSTEM.SOLV>
0

>  <SCORE.SYSTEM.norm>
0

>  <SCORE.heavy>
11

>  <SCORE.norm>
-1.04385

>  <RMSD>
0.648

$$$$
ligand
 OpenBabel01301917033D
libRbt.so/2013.1/901 2013/11/27
 11 12  0  0  0  0  0  0  0  0999 V2000
  -11.8521  -12.7394    8.8083 N   0  0  0  0  0  0  0  0  0  0  0  0
  -11.4920  -14.0307    8.8829 C   0  0  0  0  0  0  0  0  0  0  0  0
  -11.5078  -14.6539   10.0578 N   0  0  0  0  0  0  0  0  0  0  0  0
  -11.1059  -14.6962    7.7833 N   0  0  0  0  0  0  0  0  0  0  0  0
  -11.0692  -14.0845    6.5903 C   0  0  0  0  0  0  0  0  0  0  0  0
  -11.4366  -12.7489    6.4852 C   0  0  0  0  0  0  0  0  0  0  0  0
  -11.8355  -12.0813    7.6384 C   0  0  0  0  0  0  0  0  0  0  0  0
  -12.2046  -10.8051    7.5817 N   0  0  0  0  0  0  0  0  0  0  0  0
  -11.2955  -12.3941    5.2116 N   0  0  0  0  0  0  0  0  0  0  0  0
  -10.8579  -13.4562    4.5390 C   0  0  0  0  0  0  0  0  0  0  0  0
  -10.7192  -14.4858    5.3717 N   0  0  0  0  0  0  0  0  0  0  0  0
  1  7  2  0  0  0  0
  1  2  1  0  0  0  0
  2  3  1  0  0  0  0
  2  4  2  0  0  0  0
  4  5  1  0  0  0  0
  5  6  2  0  0  0  0
  5 11  1  0  0  0  0
  6  7  1  0  0  0  0
  6  9  1  0  0  0  0
  7  8  1  0  0  0  0
  9 10  1  0  0  0  0
 10 11  2  0  0  0  0
M  END
>  <CHROM.1>
-11.40197174,-13.28931682,7.20152978,1.99654443,-1.23854517,2.12529739

>  <Name>
ligand

>  <RI>
0

>  <Rbt.Current_Directory>
/home/itssahil/PROJECTS/Mol_Feturizer/New_Systems/rnas/2b57

>  <Rbt.Executable>
rbdock ($Id: //depot/dev/client3/rdock/2013.1/src/exe/rbdock.cxx#4 $)

>  <Rbt.Library>
libRbt.so (2013.1, Build901 2013/11/27)

>  <Rbt.Parameter_File>
/export/apps/rDock/src/rDock_2013.1_src/data/scripts/dock_solv.prm

>  <Rbt.Receptor>
prm/pocket_docking_4.prm

>  <SCORE>
-11.4902

>  <SCORE.INTER>
-11.4902

>  <SCORE.INTER.CONST>
1

>  <SCORE.INTER.POLAR>
0

>  <SCORE.INTER.ROT>
0

>  <SCORE.INTER.SOLV>
21.4309

>  <SCORE.INTER.VDW>
-18.4037

>  <SCORE.INTER.norm>
-1.04456

>  <SCORE.INTRA>
0

>  <SCORE.INTRA.DIHEDRAL>
0

>  <SCORE.INTRA.DIHEDRAL.0>
0

>  <SCORE.INTRA.POLAR>
0

>  <SCORE.INTRA.POLAR.0>
0

>  <SCORE.INTRA.REPUL>
0

>  <SCORE.INTRA.REPUL.0>
0

>  <SCORE.INTRA.SOLV>
0

>  <SCORE.INTRA.SOLV.lig_0>
-48.3454

>  <SCORE.INTRA.VDW>
0

>  <SCORE.INTRA.VDW.0>
0

>  <SCORE.INTRA.norm>
0

>  <SCORE.RESTR>
0

>  <SCORE.RESTR.CAVITY>
0

>  <SCORE.RESTR.norm>
0

>  <SCORE.SYSTEM>
0

>  <SCORE.SYSTEM.CONST>
0

>  <SCORE.SYSTEM.DIHEDRAL>
0

>  <SCORE.SYSTEM.SOLV>
0

>  <SCORE.SYSTEM.norm>
0

>  <SCORE.heavy>
11

>  <SCORE.norm>
-1.04456

>  <RMSD>
0.649

$$$$
ligand
 OpenBabel01301917033D
libRbt.so/2013.1/901 2013/11/27
 11 12  0  0  0  0  0  0  0  0999 V2000
  -11.8528  -12.7405    8.8073 N   0  0  0  0  0  0  0  0  0  0  0  0
  -11.4929  -14.0318    8.8824 C   0  0  0  0  0  0  0  0  0  0  0  0
  -11.5106  -14.6551   10.0573 N   0  0  0  0  0  0  0  0  0  0  0  0
  -11.1051  -14.6974    7.7834 N   0  0  0  0  0  0  0  0  0  0  0  0
  -11.0666  -14.0856    6.5905 C   0  0  0  0  0  0  0  0  0  0  0  0
  -11.4337  -12.7500    6.4849 C   0  0  0  0  0  0  0  0  0  0  0  0
  -11.8344  -12.0824    7.6374 C   0  0  0  0  0  0  0  0  0  0  0  0
  -12.2033  -10.8061    7.5802 N   0  0  0  0  0  0  0  0  0  0  0  0
  -11.2905  -12.3952    5.2114 N   0  0  0  0  0  0  0  0  0  0  0  0
  -10.8520  -13.4573    4.5395 C   0  0  0  0  0  0  0  0  0  0  0  0
  -10.7146  -14.4869    5.3724 N   0  0  0  0  0  0  0  0  0  0  0  0
  1  7  2  0  0  0  0
  1  2  1  0  0  0  0
  2  3  1  0  0  0  0
  2  4  2  0  0  0  0
  4  5  1  0  0  0  0
  5  6  2  0  0  0  0
  5 11  1  0  0  0  0
  6  7  1  0  0  0  0
  6  9  1  0  0  0  0
  7  8  1  0  0  0  0
  9 10  1  0  0  0  0
 10 11  2  0  0  0  0
M  END
>  <CHROM.1>
-11.40020561,-13.29043514,7.20121827,2.00067665,-1.23776998,2.12921844

>  <Name>
ligand

>  <RI>
0

>  <Rbt.Current_Directory>
/home/itssahil/PROJECTS/Mol_Feturizer/New_Systems/rnas/2b57

>  <Rbt.Executable>
rbdock ($Id: //depot/dev/client3/rdock/2013.1/src/exe/rbdock.cxx#4 $)

>  <Rbt.Library>
libRbt.so (2013.1, Build901 2013/11/27)

>  <Rbt.Parameter_File>
/export/apps/rDock/src/rDock_2013.1_src/data/scripts/dock_solv.prm

>  <Rbt.Receptor>
prm/pocket_docking_6.prm

>  <SCORE>
-11.4917

>  <SCORE.INTER>
-11.4917

>  <SCORE.INTER.CONST>
1

>  <SCORE.INTER.POLAR>
0

>  <SCORE.INTER.ROT>
0

>  <SCORE.INTER.SOLV>
21.4332

>  <SCORE.INTER.VDW>
-18.4055

>  <SCORE.INTER.norm>
-1.0447

>  <SCORE.INTRA>
0

>  <SCORE.INTRA.DIHEDRAL>
0

>  <SCORE.INTRA.DIHEDRAL.0>
0

>  <SCORE.INTRA.POLAR>
0

>  <SCORE.INTRA.POLAR.0>
0

>  <SCORE.INTRA.REPUL>
0

>  <SCORE.INTRA.REPUL.0>
0

>  <SCORE.INTRA.SOLV>
0

>  <SCORE.INTRA.SOLV.lig_0>
-48.3454

>  <SCORE.INTRA.VDW>
0

>  <SCORE.INTRA.VDW.0>
0

>  <SCORE.INTRA.norm>
0

>  <SCORE.RESTR>
0

>  <SCORE.RESTR.CAVITY>
0

>  <SCORE.RESTR.norm>
0

>  <SCORE.SYSTEM>
0

>  <SCORE.SYSTEM.CONST>
0

>  <SCORE.SYSTEM.DIHEDRAL>
0

>  <SCORE.SYSTEM.SOLV>
0

>  <SCORE.SYSTEM.norm>
0

>  <SCORE.heavy>
11

>  <SCORE.norm>
-1.0447

>  <RMSD>
0.649

$$$$
ligand
 OpenBabel01301917033D
libRbt.so/2013.1/901 2013/11/27
 11 12  0  0  0  0  0  0  0  0999 V2000
  -11.8139  -12.7523    8.8257 N   0  0  0  0  0  0  0  0  0  0  0  0
  -11.4724  -14.0494    8.8872 C   0  0  0  0  0  0  0  0  0  0  0  0
  -11.4863  -14.6812   10.0575 N   0  0  0  0  0  0  0  0  0  0  0  0
  -11.1067  -14.7122    7.7791 N   0  0  0  0  0  0  0  0  0  0  0  0
  -11.0723  -14.0920    6.5903 C   0  0  0  0  0  0  0  0  0  0  0  0
  -11.4208  -12.7505    6.4987 C   0  0  0  0  0  0  0  0  0  0  0  0
  -11.7987  -12.0857    7.6606 C   0  0  0  0  0  0  0  0  0  0  0  0
  -12.1492  -10.8038    7.6170 N   0  0  0  0  0  0  0  0  0  0  0  0
  -11.2864  -12.3881    5.2264 N   0  0  0  0  0  0  0  0  0  0  0  0
  -10.8711  -13.4515    4.5418 C   0  0  0  0  0  0  0  0  0  0  0  0
  -10.7399  -14.4892    5.3654 N   0  0  0  0  0  0  0  0  0  0  0  0
  1  7  2  0  0  0  0
  1  2  1  0  0  0  0
  2  3  1  0  0  0  0
  2  4  2  0  0  0  0
  4  5  1  0  0  0  0
  5  6  2  0  0  0  0
  5 11  1  0  0  0  0
  6  7  1  0  0  0  0
  6  9  1  0  0  0  0
  7  8  1  0  0  0  0
  9 10  1  0  0  0  0
 10 11  2  0  0  0  0
M  END
>  <CHROM.1>
-11.38734383,-13.29669845,7.21061510,1.99573697,-1.25621360,2.13203288

>  <Name>
ligand

>  <RI>
0

>  <Rbt.Current_Directory>
/home/itssahil/PROJECTS/Mol_Feturizer/New_Systems/rnas/2b57

>  <Rbt.Executable>
rbdock ($Id: //depot/dev/client3/rdock/2013.1/src/exe/rbdock.cxx#4 $)

>  <Rbt.Library>
libRbt.so (2013.1, Build901 2013/11/27)

>  <Rbt.Parameter_File>
/export/apps/rDock/src/rDock_2013.1_src/data/scripts/dock_solv.prm

>  <Rbt.Receptor>
prm/pocket_docking_3.prm

>  <SCORE>
-11.4853

>  <SCORE.INTER>
-11.4853

>  <SCORE.INTER.CONST>
1

>  <SCORE.INTER.POLAR>
0

>  <SCORE.INTER.ROT>
0

>  <SCORE.INTER.SOLV>
21.6728

>  <SCORE.INTER.VDW>
-18.4811

>  <SCORE.INTER.norm>
-1.04412

>  <SCORE.INTRA>
0

>  <SCORE.INTRA.DIHEDRAL>
0

>  <SCORE.INTRA.DIHEDRAL.0>
0

>  <SCORE.INTRA.POLAR>
0

>  <SCORE.INTRA.POLAR.0>
0

>  <SCORE.INTRA.REPUL>
0

>  <SCORE.INTRA.REPUL.0>
0

>  <SCORE.INTRA.SOLV>
0

>  <SCORE.INTRA.SOLV.lig_0>
-48.3454

>  <SCORE.INTRA.VDW>
0

>  <SCORE.INTRA.VDW.0>
0

>  <SCORE.INTRA.norm>
0

>  <SCORE.RESTR>
0

>  <SCORE.RESTR.CAVITY>
0

>  <SCORE.RESTR.norm>
0

>  <SCORE.SYSTEM>
0

>  <SCORE.SYSTEM.CONST>
0

>  <SCORE.SYSTEM.DIHEDRAL>
0

>  <SCORE.SYSTEM.SOLV>
0

>  <SCORE.SYSTEM.norm>
0

>  <SCORE.heavy>
11

>  <SCORE.norm>
-1.04412

>  <RMSD>
0.650

$$$$
ligand
 OpenBabel01301917033D
libRbt.so/2013.1/901 2013/11/27
 11 12  0  0  0  0  0  0  0  0999 V2000
  -11.8516  -12.7392    8.8053 N   0  0  0  0  0  0  0  0  0  0  0  0
  -11.4910  -14.0303    8.8800 C   0  0  0  0  0  0  0  0  0  0  0  0
  -11.5099  -14.6545   10.0543 N   0  0  0  0  0  0  0  0  0  0  0  0
  -11.1014  -14.6948    7.7810 N   0  0  0  0  0  0  0  0  0  0  0  0
  -11.0616  -14.0821    6.5885 C   0  0  0  0  0  0  0  0  0  0  0  0
  -11.4294  -12.7467    6.4834 C   0  0  0  0  0  0  0  0  0  0  0  0
  -11.8320  -12.0801    7.6360 C   0  0  0  0  0  0  0  0  0  0  0  0
  -12.2016  -10.8041    7.5792 N   0  0  0  0  0  0  0  0  0  0  0  0
  -11.2848  -12.3908    5.2105 N   0  0  0  0  0  0  0  0  0  0  0  0
  -10.8447  -13.4522    4.5383 C   0  0  0  0  0  0  0  0  0  0  0  0
  -10.7079  -14.4822    5.3706 N   0  0  0  0  0  0  0  0  0  0  0  0
  1  7  2  0  0  0  0
  1  2  1  0  0  0  0
  2  3  1  0  0  0  0
  2  4  2  0  0  0  0
  4  5  1  0  0  0  0
  5  6  2  0  0  0  0
  5 11  1  0  0  0  0
  6  7  1  0  0  0  0
  6  9  1  0  0  0  0
  7  8  1  0  0  0  0
  9 10  1  0  0  0  0
 10 11  2  0  0  0  0
M  END
>  <CHROM.1>
-11.39655694,-13.28759939,7.19943163,2.00308612,-1.23656002,2.13225219

>  <Name>
ligand

>  <RI>
0

>  <Rbt.Current_Directory>
/home/itssahil/PROJECTS/Mol_Feturizer/New_Systems/rnas/2b57

>  <Rbt.Executable>
rbdock ($Id: //depot/dev/client3/rdock/2013.1/src/exe/rbdock.cxx#4 $)

>  <Rbt.Library>
libRbt.so (2013.1, Build901 2013/11/27)

>  <Rbt.Parameter_File>
/export/apps/rDock/src/rDock_2013.1_src/data/scripts/dock_solv.prm

>  <Rbt.Receptor>
prm/pocket_docking_6.prm

>  <SCORE>
-11.49

>  <SCORE.INTER>
-11.49

>  <SCORE.INTER.CONST>
1

>  <SCORE.INTER.POLAR>
0

>  <SCORE.INTER.ROT>
0

>  <SCORE.INTER.SOLV>
21.4365

>  <SCORE.INTER.VDW>
-18.4055

>  <SCORE.INTER.norm>
-1.04454

>  <SCORE.INTRA>
0

>  <SCORE.INTRA.DIHEDRAL>
0

>  <SCORE.INTRA.DIHEDRAL.0>
0

>  <SCORE.INTRA.POLAR>
0

>  <SCORE.INTRA.POLAR.0>
0

>  <SCORE.INTRA.REPUL>
0

>  <SCORE.INTRA.REPUL.0>
0

>  <SCORE.INTRA.SOLV>
0

>  <SCORE.INTRA.SOLV.lig_0>
-48.3454

>  <SCORE.INTRA.VDW>
0

>  <SCORE.INTRA.VDW.0>
0

>  <SCORE.INTRA.norm>
0

>  <SCORE.RESTR>
0

>  <SCORE.RESTR.CAVITY>
0

>  <SCORE.RESTR.norm>
0

>  <SCORE.SYSTEM>
0

>  <SCORE.SYSTEM.CONST>
0

>  <SCORE.SYSTEM.DIHEDRAL>
0

>  <SCORE.SYSTEM.SOLV>
0

>  <SCORE.SYSTEM.norm>
0

>  <SCORE.heavy>
11

>  <SCORE.norm>
-1.04454

>  <RMSD>
0.651

$$$$
ligand
 OpenBabel01301917033D
libRbt.so/2013.1/901 2013/11/27
 11 12  0  0  0  0  0  0  0  0999 V2000
  -11.8209  -12.7556    8.8216 N   0  0  0  0  0  0  0  0  0  0  0  0
  -11.4571  -14.0464    8.8859 C   0  0  0  0  0  0  0  0  0  0  0  0
  -11.4551  -14.6744   10.0583 N   0  0  0  0  0  0  0  0  0  0  0  0
  -11.0850  -14.7066    7.7783 N   0  0  0  0  0  0  0  0  0  0  0  0
  -11.0664  -14.0899    6.5874 C   0  0  0  0  0  0  0  0  0  0  0  0
  -11.4380  -12.7548    6.4929 C   0  0  0  0  0  0  0  0  0  0  0  0
  -11.8222  -12.0927    7.6543 C   0  0  0  0  0  0  0  0  0  0  0  0
  -12.1947  -10.8171    7.6080 N   0  0  0  0  0  0  0  0  0  0  0  0
  -11.3155  -12.3945    5.2189 N   0  0  0  0  0  0  0  0  0  0  0  0
  -10.8851  -13.4529    4.5359 C   0  0  0  0  0  0  0  0  0  0  0  0
  -10.7326  -14.4855    5.3623 N   0  0  0  0  0  0  0  0  0  0  0  0
  1  7  2  0  0  0  0
  1  2  1  0  0  0  0
  2  3  1  0  0  0  0
  2  4  2  0  0  0  0
  4  5  1  0  0  0  0
  5  6  2  0  0  0  0
  5 11  1  0  0  0  0
  6  7  1  0  0  0  0
  6  9  1  0  0  0  0
  7  8  1  0  0  0  0
  9 10  1  0  0  0  0
 10 11  2  0  0  0  0
M  END
>  <CHROM.1>
-11.39220524,-13.29798657,7.20647119,1.95592062,-1.24385679,2.09093862

>  <Name>
ligand

>  <RI>
0

>  <Rbt.Current_Directory>
/home/itssahil/PROJECTS/Mol_Feturizer/New_Systems/rnas/2b57

>  <Rbt.Executable>
rbdock ($Id: //depot/dev/client3/rdock/2013.1/src/exe/rbdock.cxx#4 $)

>  <Rbt.Library>
libRbt.so (2013.1, Build901 2013/11/27)

>  <Rbt.Parameter_File>
/export/apps/rDock/src/rDock_2013.1_src/data/scripts/dock_solv.prm

>  <Rbt.Receptor>
prm/pocket_docking_7.prm

>  <SCORE>
-11.4677

>  <SCORE.INTER>
-11.4677

>  <SCORE.INTER.CONST>
1

>  <SCORE.INTER.POLAR>
0

>  <SCORE.INTER.ROT>
0

>  <SCORE.INTER.SOLV>
21.4974

>  <SCORE.INTER.VDW>
-18.411

>  <SCORE.INTER.norm>
-1.04252

>  <SCORE.INTRA>
0

>  <SCORE.INTRA.DIHEDRAL>
0

>  <SCORE.INTRA.DIHEDRAL.0>
0

>  <SCORE.INTRA.POLAR>
0

>  <SCORE.INTRA.POLAR.0>
0

>  <SCORE.INTRA.REPUL>
0

>  <SCORE.INTRA.REPUL.0>
0

>  <SCORE.INTRA.SOLV>
0

>  <SCORE.INTRA.SOLV.lig_0>
-48.3454

>  <SCORE.INTRA.VDW>
0

>  <SCORE.INTRA.VDW.0>
0

>  <SCORE.INTRA.norm>
0

>  <SCORE.RESTR>
0

>  <SCORE.RESTR.CAVITY>
0

>  <SCORE.RESTR.norm>
0

>  <SCORE.SYSTEM>
0

>  <SCORE.SYSTEM.CONST>
0

>  <SCORE.SYSTEM.DIHEDRAL>
0

>  <SCORE.SYSTEM.SOLV>
0

>  <SCORE.SYSTEM.norm>
0

>  <SCORE.heavy>
11

>  <SCORE.norm>
-1.04252

>  <RMSD>
0.651

$$$$
ligand
 OpenBabel01301917033D
libRbt.so/2013.1/901 2013/11/27
 11 12  0  0  0  0  0  0  0  0999 V2000
  -11.8478  -12.7389    8.8051 N   0  0  0  0  0  0  0  0  0  0  0  0
  -11.4888  -14.0304    8.8810 C   0  0  0  0  0  0  0  0  0  0  0  0
  -11.5052  -14.6525   10.0565 N   0  0  0  0  0  0  0  0  0  0  0  0
  -11.1034  -14.6974    7.7821 N   0  0  0  0  0  0  0  0  0  0  0  0
  -11.0662  -14.0869    6.5884 C   0  0  0  0  0  0  0  0  0  0  0  0
  -11.4324  -12.7511    6.4820 C   0  0  0  0  0  0  0  0  0  0  0  0
  -11.8307  -12.0820    7.6346 C   0  0  0  0  0  0  0  0  0  0  0  0
  -12.1987  -10.8055    7.5766 N   0  0  0  0  0  0  0  0  0  0  0  0
  -11.2910  -12.3977    5.2080 N   0  0  0  0  0  0  0  0  0  0  0  0
  -10.8544  -13.4609    4.5365 C   0  0  0  0  0  0  0  0  0  0  0  0
  -10.7166  -14.4897    5.3702 N   0  0  0  0  0  0  0  0  0  0  0  0
  1  7  2  0  0  0  0
  1  2  1  0  0  0  0
  2  3  1  0  0  0  0
  2  4  2  0  0  0  0
  4  5  1  0  0  0  0
  5  6  2  0  0  0  0
  5 11  1  0  0  0  0
  6  7  1  0  0  0  0
  6  9  1  0  0  0  0
  7  8  1  0  0  0  0
  9 10  1  0  0  0  0
 10 11  2  0  0  0  0
M  END
>  <CHROM.1>
-11.39824395,-13.29083229,7.19890096,1.99784331,-1.23931113,2.12552694

>  <Name>
ligand

>  <RI>
0

>  <Rbt.Current_Directory>
/home/itssahil/PROJECTS/Mol_Feturizer/New_Systems/rnas/2b57

>  <Rbt.Executable>
rbdock ($Id: //depot/dev/client3/rdock/2013.1/src/exe/rbdock.cxx#4 $)

>  <Rbt.Library>
libRbt.so (2013.1, Build901 2013/11/27)

>  <Rbt.Parameter_File>
/export/apps/rDock/src/rDock_2013.1_src/data/scripts/dock_solv.prm

>  <Rbt.Receptor>
prm/blind_docking_40.prm

>  <SCORE>
-11.4884

>  <SCORE.INTER>
-11.4884

>  <SCORE.INTER.CONST>
1

>  <SCORE.INTER.POLAR>
0

>  <SCORE.INTER.ROT>
0

>  <SCORE.INTER.SOLV>
21.4451

>  <SCORE.INTER.VDW>
-18.4073

>  <SCORE.INTER.norm>
-1.0444

>  <SCORE.INTRA>
0

>  <SCORE.INTRA.DIHEDRAL>
0

>  <SCORE.INTRA.DIHEDRAL.0>
0

>  <SCORE.INTRA.POLAR>
0

>  <SCORE.INTRA.POLAR.0>
0

>  <SCORE.INTRA.REPUL>
0

>  <SCORE.INTRA.REPUL.0>
0

>  <SCORE.INTRA.SOLV>
0

>  <SCORE.INTRA.SOLV.lig_0>
-48.3454

>  <SCORE.INTRA.VDW>
0

>  <SCORE.INTRA.VDW.0>
0

>  <SCORE.INTRA.norm>
0

>  <SCORE.RESTR>
0

>  <SCORE.RESTR.CAVITY>
0

>  <SCORE.RESTR.norm>
0

>  <SCORE.SYSTEM>
0

>  <SCORE.SYSTEM.CONST>
0

>  <SCORE.SYSTEM.DIHEDRAL>
0

>  <SCORE.SYSTEM.SOLV>
0

>  <SCORE.SYSTEM.norm>
0

>  <SCORE.heavy>
11

>  <SCORE.norm>
-1.0444

>  <RMSD>
0.652

$$$$
ligand
 OpenBabel01301917033D
libRbt.so/2013.1/901 2013/11/27
 11 12  0  0  0  0  0  0  0  0999 V2000
  -11.8279  -12.7588    8.8188 N   0  0  0  0  0  0  0  0  0  0  0  0
  -11.4825  -14.0547    8.8815 C   0  0  0  0  0  0  0  0  0  0  0  0
  -11.4987  -14.6867   10.0517 N   0  0  0  0  0  0  0  0  0  0  0  0
  -11.1107  -14.7163    7.7746 N   0  0  0  0  0  0  0  0  0  0  0  0
  -11.0739  -14.0959    6.5861 C   0  0  0  0  0  0  0  0  0  0  0  0
  -11.4263  -12.7554    6.4933 C   0  0  0  0  0  0  0  0  0  0  0  0
  -11.8105  -12.0920    7.6539 C   0  0  0  0  0  0  0  0  0  0  0  0
  -12.1649  -10.8111    7.6091 N   0  0  0  0  0  0  0  0  0  0  0  0
  -11.2884  -12.3925    5.2216 N   0  0  0  0  0  0  0  0  0  0  0  0
  -10.8673  -13.4545    4.5383 C   0  0  0  0  0  0  0  0  0  0  0  0
  -10.7358  -14.4919    5.3623 N   0  0  0  0  0  0  0  0  0  0  0  0
  1  7  2  0  0  0  0
  1  2  1  0  0  0  0
  2  3  1  0  0  0  0
  2  4  2  0  0  0  0
  4  5  1  0  0  0  0
  5  6  2  0  0  0  0
  5 11  1  0  0  0  0
  6  7  1  0  0  0  0
  6  9  1  0  0  0  0
  7  8  1  0  0  0  0
  9 10  1  0  0  0  0
 10 11  2  0  0  0  0
M  END
>  <CHROM.1>
-11.39372015,-13.30160175,7.20529333,2.00023938,-1.25160227,2.13642617

>  <Name>
ligand

>  <RI>
0

>  <Rbt.Current_Directory>
/home/itssahil/PROJECTS/Mol_Feturizer/New_Systems/rnas/2b57

>  <Rbt.Executable>
rbdock ($Id: //depot/dev/client3/rdock/2013.1/src/exe/rbdock.cxx#4 $)

>  <Rbt.Library>
libRbt.so (2013.1, Build901 2013/11/27)

>  <Rbt.Parameter_File>
/export/apps/rDock/src/rDock_2013.1_src/data/scripts/dock_solv.prm

>  <Rbt.Receptor>
prm/pocket_docking_8.prm

>  <SCORE>
-11.497

>  <SCORE.INTER>
-11.497

>  <SCORE.INTER.CONST>
1

>  <SCORE.INTER.POLAR>
0

>  <SCORE.INTER.ROT>
0

>  <SCORE.INTER.SOLV>
21.6218

>  <SCORE.INTER.VDW>
-18.4719

>  <SCORE.INTER.norm>
-1.04518

>  <SCORE.INTRA>
0

>  <SCORE.INTRA.DIHEDRAL>
0

>  <SCORE.INTRA.DIHEDRAL.0>
0

>  <SCORE.INTRA.POLAR>
0

>  <SCORE.INTRA.POLAR.0>
0

>  <SCORE.INTRA.REPUL>
0

>  <SCORE.INTRA.REPUL.0>
0

>  <SCORE.INTRA.SOLV>
0

>  <SCORE.INTRA.SOLV.lig_0>
-48.3454

>  <SCORE.INTRA.VDW>
0

>  <SCORE.INTRA.VDW.0>
0

>  <SCORE.INTRA.norm>
0

>  <SCORE.RESTR>
0

>  <SCORE.RESTR.CAVITY>
0

>  <SCORE.RESTR.norm>
0

>  <SCORE.SYSTEM>
0

>  <SCORE.SYSTEM.CONST>
0

>  <SCORE.SYSTEM.DIHEDRAL>
0

>  <SCORE.SYSTEM.SOLV>
0

>  <SCORE.SYSTEM.norm>
0

>  <SCORE.heavy>
11

>  <SCORE.norm>
-1.04518

>  <RMSD>
0.653

$$$$
ligand
 OpenBabel01301917033D
libRbt.so/2013.1/901 2013/11/27
 11 12  0  0  0  0  0  0  0  0999 V2000
  -11.8465  -12.7397    8.8021 N   0  0  0  0  0  0  0  0  0  0  0  0
  -11.4896  -14.0318    8.8781 C   0  0  0  0  0  0  0  0  0  0  0  0
  -11.5095  -14.6545   10.0533 N   0  0  0  0  0  0  0  0  0  0  0  0
  -11.1027  -14.6988    7.7797 N   0  0  0  0  0  0  0  0  0  0  0  0
  -11.0620  -14.0877    6.5865 C   0  0  0  0  0  0  0  0  0  0  0  0
  -11.4260  -12.7514    6.4800 C   0  0  0  0  0  0  0  0  0  0  0  0
  -11.8258  -12.0822    7.6320 C   0  0  0  0  0  0  0  0  0  0  0  0
  -12.1917  -10.8052    7.5739 N   0  0  0  0  0  0  0  0  0  0  0  0
  -11.2812  -12.3975    5.2065 N   0  0  0  0  0  0  0  0  0  0  0  0
  -10.8446  -13.4610    4.5353 C   0  0  0  0  0  0  0  0  0  0  0  0
  -10.7102  -14.4904    5.3688 N   0  0  0  0  0  0  0  0  0  0  0  0
  1  7  2  0  0  0  0
  1  2  1  0  0  0  0
  2  3  1  0  0  0  0
  2  4  2  0  0  0  0
  4  5  1  0  0  0  0
  5  6  2  0  0  0  0
  5 11  1  0  0  0  0
  6  7  1  0  0  0  0
  6  9  1  0  0  0  0
  7  8  1  0  0  0  0
  9 10  1  0  0  0  0
 10 11  2  0  0  0  0
M  END
>  <CHROM.1>
-11.39417029,-13.29148443,7.19661227,2.00610288,-1.23939444,2.13385586

>  <Name>
ligand

>  <RI>
0

>  <Rbt.Current_Directory>
/home/itssahil/PROJECTS/Mol_Feturizer/New_Systems/rnas/2b57

>  <Rbt.Executable>
rbdock ($Id: //depot/dev/client3/rdock/2013.1/src/exe/rbdock.cxx#4 $)

>  <Rbt.Library>
libRbt.so (2013.1, Build901 2013/11/27)

>  <Rbt.Parameter_File>
/export/apps/rDock/src/rDock_2013.1_src/data/scripts/dock_solv.prm

>  <Rbt.Receptor>
prm/blind_docking_60.prm

>  <SCORE>
-11.4875

>  <SCORE.INTER>
-11.4875

>  <SCORE.INTER.CONST>
1

>  <SCORE.INTER.POLAR>
0

>  <SCORE.INTER.ROT>
0

>  <SCORE.INTER.SOLV>
21.4654

>  <SCORE.INTER.VDW>
-18.4135

>  <SCORE.INTER.norm>
-1.04432

>  <SCORE.INTRA>
0

>  <SCORE.INTRA.DIHEDRAL>
0

>  <SCORE.INTRA.DIHEDRAL.0>
0

>  <SCORE.INTRA.POLAR>
0

>  <SCORE.INTRA.POLAR.0>
0

>  <SCORE.INTRA.REPUL>
0

>  <SCORE.INTRA.REPUL.0>
0

>  <SCORE.INTRA.SOLV>
0

>  <SCORE.INTRA.SOLV.lig_0>
-48.3454

>  <SCORE.INTRA.VDW>
0

>  <SCORE.INTRA.VDW.0>
0

>  <SCORE.INTRA.norm>
0

>  <SCORE.RESTR>
0

>  <SCORE.RESTR.CAVITY>
0

>  <SCORE.RESTR.norm>
0

>  <SCORE.SYSTEM>
0

>  <SCORE.SYSTEM.CONST>
0

>  <SCORE.SYSTEM.DIHEDRAL>
0

>  <SCORE.SYSTEM.SOLV>
0

>  <SCORE.SYSTEM.norm>
0

>  <SCORE.heavy>
11

>  <SCORE.norm>
-1.04432

>  <RMSD>
0.655

$$$$
ligand
 OpenBabel01301917033D
libRbt.so/2013.1/901 2013/11/27
 11 12  0  0  0  0  0  0  0  0999 V2000
  -11.8197  -12.7551    8.8167 N   0  0  0  0  0  0  0  0  0  0  0  0
  -11.4714  -14.0502    8.8804 C   0  0  0  0  0  0  0  0  0  0  0  0
  -11.4849  -14.6809   10.0513 N   0  0  0  0  0  0  0  0  0  0  0  0
  -11.0995  -14.7122    7.7738 N   0  0  0  0  0  0  0  0  0  0  0  0
  -11.0655  -14.0930    6.5845 C   0  0  0  0  0  0  0  0  0  0  0  0
  -11.4209  -12.7534    6.4907 C   0  0  0  0  0  0  0  0  0  0  0  0
  -11.8051  -12.0895    7.6510 C   0  0  0  0  0  0  0  0  0  0  0  0
  -12.1624  -10.8095    7.6052 N   0  0  0  0  0  0  0  0  0  0  0  0
  -11.2854  -12.3916    5.2184 N   0  0  0  0  0  0  0  0  0  0  0  0
  -10.8627  -13.4534    4.5358 C   0  0  0  0  0  0  0  0  0  0  0  0
  -10.7280  -14.4896    5.3608 N   0  0  0  0  0  0  0  0  0  0  0  0
  1  7  2  0  0  0  0
  1  2  1  0  0  0  0
  2  3  1  0  0  0  0
  2  4  2  0  0  0  0
  4  5  1  0  0  0  0
  5  6  2  0  0  0  0
  5 11  1  0  0  0  0
  6  7  1  0  0  0  0
  6  9  1  0  0  0  0
  7  8  1  0  0  0  0
  9 10  1  0  0  0  0
 10 11  2  0  0  0  0
M  END
>  <CHROM.1>
-11.38628253,-13.29874482,7.20324663,1.99333386,-1.25041371,2.12875698

>  <Name>
ligand

>  <RI>
0

>  <Rbt.Current_Directory>
/home/itssahil/PROJECTS/Mol_Feturizer/New_Systems/rnas/2b57

>  <Rbt.Executable>
rbdock ($Id: //depot/dev/client3/rdock/2013.1/src/exe/rbdock.cxx#4 $)

>  <Rbt.Library>
libRbt.so (2013.1, Build901 2013/11/27)

>  <Rbt.Parameter_File>
/export/apps/rDock/src/rDock_2013.1_src/data/scripts/dock_solv.prm

>  <Rbt.Receptor>
prm/pocket_docking_5.prm

>  <SCORE>
-11.4941

>  <SCORE.INTER>
-11.4941

>  <SCORE.INTER.CONST>
1

>  <SCORE.INTER.POLAR>
0

>  <SCORE.INTER.ROT>
0

>  <SCORE.INTER.SOLV>
21.6109

>  <SCORE.INTER.VDW>
-18.4664

>  <SCORE.INTER.norm>
-1.04492

>  <SCORE.INTRA>
0

>  <SCORE.INTRA.DIHEDRAL>
0

>  <SCORE.INTRA.DIHEDRAL.0>
0

>  <SCORE.INTRA.POLAR>
0

>  <SCORE.INTRA.POLAR.0>
0

>  <SCORE.INTRA.REPUL>
0

>  <SCORE.INTRA.REPUL.0>
0

>  <SCORE.INTRA.SOLV>
0

>  <SCORE.INTRA.SOLV.lig_0>
-48.3454

>  <SCORE.INTRA.VDW>
0

>  <SCORE.INTRA.VDW.0>
0

>  <SCORE.INTRA.norm>
0

>  <SCORE.RESTR>
0

>  <SCORE.RESTR.CAVITY>
0

>  <SCORE.RESTR.norm>
0

>  <SCORE.SYSTEM>
0

>  <SCORE.SYSTEM.CONST>
0

>  <SCORE.SYSTEM.DIHEDRAL>
0

>  <SCORE.SYSTEM.SOLV>
0

>  <SCORE.SYSTEM.norm>
0

>  <SCORE.heavy>
11

>  <SCORE.norm>
-1.04492

>  <RMSD>
0.656

$$$$
ligand
 OpenBabel01301917033D
libRbt.so/2013.1/901 2013/11/27
 11 12  0  0  0  0  0  0  0  0999 V2000
  -11.8086  -12.7500    8.8174 N   0  0  0  0  0  0  0  0  0  0  0  0
  -11.4620  -14.0457    8.8799 C   0  0  0  0  0  0  0  0  0  0  0  0
  -11.4688  -14.6754   10.0513 N   0  0  0  0  0  0  0  0  0  0  0  0
  -11.0984  -14.7091    7.7714 N   0  0  0  0  0  0  0  0  0  0  0  0
  -11.0712  -14.0910    6.5814 C   0  0  0  0  0  0  0  0  0  0  0  0
  -11.4250  -12.7509    6.4888 C   0  0  0  0  0  0  0  0  0  0  0  0
  -11.8006  -12.0854    7.6511 C   0  0  0  0  0  0  0  0  0  0  0  0
  -12.1562  -10.8049    7.6066 N   0  0  0  0  0  0  0  0  0  0  0  0
  -11.2973  -12.3903    5.2154 N   0  0  0  0  0  0  0  0  0  0  0  0
  -10.8809  -13.4534    4.5309 C   0  0  0  0  0  0  0  0  0  0  0  0
  -10.7424  -14.4891    5.3559 N   0  0  0  0  0  0  0  0  0  0  0  0
  1  7  2  0  0  0  0
  1  2  1  0  0  0  0
  2  3  1  0  0  0  0
  2  4  2  0  0  0  0
  4  5  1  0  0  0  0
  5  6  2  0  0  0  0
  5 11  1  0  0  0  0
  6  7  1  0  0  0  0
  6  9  1  0  0  0  0
  7  8  1  0  0  0  0
  9 10  1  0  0  0  0
 10 11  2  0  0  0  0
M  END
>  <CHROM.1>
-11.38664851,-13.29570435,7.20158643,1.97811270,-1.25519927,2.11348532

>  <Name>
ligand

>  <RI>
0

>  <Rbt.Current_Directory>
/home/itssahil/PROJECTS/Mol_Feturizer/New_Systems/rnas/2b57

>  <Rbt.Executable>
rbdock ($Id: //depot/dev/client3/rdock/2013.1/src/exe/rbdock.cxx#4 $)

>  <Rbt.Library>
libRbt.so (2013.1, Build901 2013/11/27)

>  <Rbt.Parameter_File>
/export/apps/rDock/src/rDock_2013.1_src/data/scripts/dock_solv.prm

>  <Rbt.Receptor>
prm/pocket_docking_3.prm

>  <SCORE>
-11.4751

>  <SCORE.INTER>
-11.4751

>  <SCORE.INTER.CONST>
1

>  <SCORE.INTER.POLAR>
0

>  <SCORE.INTER.ROT>
0

>  <SCORE.INTER.SOLV>
21.6366

>  <SCORE.INTER.VDW>
-18.4623

>  <SCORE.INTER.norm>
-1.04319

>  <SCORE.INTRA>
0

>  <SCORE.INTRA.DIHEDRAL>
0

>  <SCORE.INTRA.DIHEDRAL.0>
0

>  <SCORE.INTRA.POLAR>
0

>  <SCORE.INTRA.POLAR.0>
0

>  <SCORE.INTRA.REPUL>
0

>  <SCORE.INTRA.REPUL.0>
0

>  <SCORE.INTRA.SOLV>
0

>  <SCORE.INTRA.SOLV.lig_0>
-48.3454

>  <SCORE.INTRA.VDW>
0

>  <SCORE.INTRA.VDW.0>
0

>  <SCORE.INTRA.norm>
0

>  <SCORE.RESTR>
0

>  <SCORE.RESTR.CAVITY>
0

>  <SCORE.RESTR.norm>
0

>  <SCORE.SYSTEM>
0

>  <SCORE.SYSTEM.CONST>
0

>  <SCORE.SYSTEM.DIHEDRAL>
0

>  <SCORE.SYSTEM.SOLV>
0

>  <SCORE.SYSTEM.norm>
0

>  <SCORE.heavy>
11

>  <SCORE.norm>
-1.04319

>  <RMSD>
0.658

$$$$
ligand
 OpenBabel01301917033D
libRbt.so/2013.1/901 2013/11/27
 11 12  0  0  0  0  0  0  0  0999 V2000
  -11.8046  -12.7516    8.8178 N   0  0  0  0  0  0  0  0  0  0  0  0
  -11.4422  -14.0427    8.8840 C   0  0  0  0  0  0  0  0  0  0  0  0
  -11.4318  -14.6663   10.0587 N   0  0  0  0  0  0  0  0  0  0  0  0
  -11.0800  -14.7077    7.7760 N   0  0  0  0  0  0  0  0  0  0  0  0
  -11.0700  -14.0955    6.5826 C   0  0  0  0  0  0  0  0  0  0  0  0
  -11.4403  -12.7601    6.4861 C   0  0  0  0  0  0  0  0  0  0  0  0
  -11.8141  -12.0931    7.6480 C   0  0  0  0  0  0  0  0  0  0  0  0
  -12.1851  -10.8171    7.5999 N   0  0  0  0  0  0  0  0  0  0  0  0
  -11.3275  -12.4048    5.2098 N   0  0  0  0  0  0  0  0  0  0  0  0
  -10.9042  -13.4665    4.5273 C   0  0  0  0  0  0  0  0  0  0  0  0
  -10.7467  -14.4962    5.3564 N   0  0  0  0  0  0  0  0  0  0  0  0
  1  7  2  0  0  0  0
  1  2  1  0  0  0  0
  2  3  1  0  0  0  0
  2  4  2  0  0  0  0
  4  5  1  0  0  0  0
  5  6  2  0  0  0  0
  5 11  1  0  0  0  0
  6  7  1  0  0  0  0
  6  9  1  0  0  0  0
  7  8  1  0  0  0  0
  9 10  1  0  0  0  0
 10 11  2  0  0  0  0
M  END
>  <CHROM.1>
-11.38963088,-13.30073154,7.20129744,1.93634968,-1.24912889,2.06861352

>  <Name>
ligand

>  <RI>
0

>  <Rbt.Current_Directory>
/home/itssahil/PROJECTS/Mol_Feturizer/New_Systems/rnas/2b57

>  <Rbt.Executable>
rbdock ($Id: //depot/dev/client3/rdock/2013.1/src/exe/rbdock.cxx#4 $)

>  <Rbt.Library>
libRbt.so (2013.1, Build901 2013/11/27)

>  <Rbt.Parameter_File>
/export/apps/rDock/src/rDock_2013.1_src/data/scripts/dock_solv.prm

>  <Rbt.Receptor>
prm/pocket_docking_7.prm

>  <SCORE>
-11.4271

>  <SCORE.INTER>
-11.4271

>  <SCORE.INTER.CONST>
1

>  <SCORE.INTER.POLAR>
0

>  <SCORE.INTER.ROT>
0

>  <SCORE.INTER.SOLV>
21.52

>  <SCORE.INTER.VDW>
-18.3914

>  <SCORE.INTER.norm>
-1.03883

>  <SCORE.INTRA>
0

>  <SCORE.INTRA.DIHEDRAL>
0

>  <SCORE.INTRA.DIHEDRAL.0>
0

>  <SCORE.INTRA.POLAR>
0

>  <SCORE.INTRA.POLAR.0>
0

>  <SCORE.INTRA.REPUL>
0

>  <SCORE.INTRA.REPUL.0>
0

>  <SCORE.INTRA.SOLV>
0

>  <SCORE.INTRA.SOLV.lig_0>
-48.3454

>  <SCORE.INTRA.VDW>
0

>  <SCORE.INTRA.VDW.0>
0

>  <SCORE.INTRA.norm>
0

>  <SCORE.RESTR>
0

>  <SCORE.RESTR.CAVITY>
0

>  <SCORE.RESTR.norm>
0

>  <SCORE.SYSTEM>
0

>  <SCORE.SYSTEM.CONST>
0

>  <SCORE.SYSTEM.DIHEDRAL>
0

>  <SCORE.SYSTEM.SOLV>
0

>  <SCORE.SYSTEM.norm>
0

>  <SCORE.heavy>
11

>  <SCORE.norm>
-1.03883

>  <RMSD>
0.659

$$$$
ligand
 OpenBabel01301917033D
libRbt.so/2013.1/901 2013/11/27
 11 12  0  0  0  0  0  0  0  0999 V2000
  -11.8312  -12.7348    8.7951 N   0  0  0  0  0  0  0  0  0  0  0  0
  -11.4766  -14.0274    8.8737 C   0  0  0  0  0  0  0  0  0  0  0  0
  -11.4952  -14.6469   10.0505 N   0  0  0  0  0  0  0  0  0  0  0  0
  -11.0933  -14.6979    7.7762 N   0  0  0  0  0  0  0  0  0  0  0  0
  -11.0540  -14.0900    6.5813 C   0  0  0  0  0  0  0  0  0  0  0  0
  -11.4156  -12.7533    6.4721 C   0  0  0  0  0  0  0  0  0  0  0  0
  -11.8118  -12.0804    7.6232 C   0  0  0  0  0  0  0  0  0  0  0  0
  -12.1754  -10.8028    7.5625 N   0  0  0  0  0  0  0  0  0  0  0  0
  -11.2729  -12.4030    5.1973 N   0  0  0  0  0  0  0  0  0  0  0  0
  -10.8398  -13.4691    4.5281 C   0  0  0  0  0  0  0  0  0  0  0  0
  -10.7055  -14.4966    5.3639 N   0  0  0  0  0  0  0  0  0  0  0  0
  1  7  2  0  0  0  0
  1  2  1  0  0  0  0
  2  3  1  0  0  0  0
  2  4  2  0  0  0  0
  4  5  1  0  0  0  0
  5  6  2  0  0  0  0
  5 11  1  0  0  0  0
  6  7  1  0  0  0  0
  6  9  1  0  0  0  0
  7  8  1  0  0  0  0
  9 10  1  0  0  0  0
 10 11  2  0  0  0  0
M  END
>  <CHROM.1>
-11.38334193,-13.29158865,7.19005533,2.00364207,-1.24212149,2.12891701

>  <Name>
ligand

>  <RI>
0

>  <Rbt.Current_Directory>
/home/itssahil/PROJECTS/Mol_Feturizer/New_Systems/rnas/2b57

>  <Rbt.Executable>
rbdock ($Id: //depot/dev/client3/rdock/2013.1/src/exe/rbdock.cxx#4 $)

>  <Rbt.Library>
libRbt.so (2013.1, Build901 2013/11/27)

>  <Rbt.Parameter_File>
/export/apps/rDock/src/rDock_2013.1_src/data/scripts/dock_solv.prm

>  <Rbt.Receptor>
prm/pocket_docking_5.prm

>  <SCORE>
-11.4729

>  <SCORE.INTER>
-11.4729

>  <SCORE.INTER.CONST>
1

>  <SCORE.INTER.POLAR>
0

>  <SCORE.INTER.ROT>
0

>  <SCORE.INTER.SOLV>
21.5062

>  <SCORE.INTER.VDW>
-18.4174

>  <SCORE.INTER.norm>
-1.04299

>  <SCORE.INTRA>
0

>  <SCORE.INTRA.DIHEDRAL>
0

>  <SCORE.INTRA.DIHEDRAL.0>
0

>  <SCORE.INTRA.POLAR>
0

>  <SCORE.INTRA.POLAR.0>
0

>  <SCORE.INTRA.REPUL>
0

>  <SCORE.INTRA.REPUL.0>
0

>  <SCORE.INTRA.SOLV>
0

>  <SCORE.INTRA.SOLV.lig_0>
-48.3454

>  <SCORE.INTRA.VDW>
0

>  <SCORE.INTRA.VDW.0>
0

>  <SCORE.INTRA.norm>
0

>  <SCORE.RESTR>
0

>  <SCORE.RESTR.CAVITY>
0

>  <SCORE.RESTR.norm>
0

>  <SCORE.SYSTEM>
0

>  <SCORE.SYSTEM.CONST>
0

>  <SCORE.SYSTEM.DIHEDRAL>
0

>  <SCORE.SYSTEM.SOLV>
0

>  <SCORE.SYSTEM.norm>
0

>  <SCORE.heavy>
11

>  <SCORE.norm>
-1.04299

>  <RMSD>
0.664

$$$$
ligand
 OpenBabel01301917033D
libRbt.so/2013.1/901 2013/11/27
 11 12  0  0  0  0  0  0  0  0999 V2000
  -12.3340  -12.2092    9.0894 N   0  0  0  0  0  0  0  0  0  0  0  0
  -12.6443  -11.3471    8.1080 C   0  0  0  0  0  0  0  0  0  0  0  0
  -13.3396  -10.2487    8.3891 N   0  0  0  0  0  0  0  0  0  0  0  0
  -12.2679  -11.5890    6.8427 N   0  0  0  0  0  0  0  0  0  0  0  0
  -11.5778  -12.6967    6.5336 C   0  0  0  0  0  0  0  0  0  0  0  0
  -11.2439  -13.6053    7.5299 C   0  0  0  0  0  0  0  0  0  0  0  0
  -11.6430  -13.3314    8.8339 C   0  0  0  0  0  0  0  0  0  0  0  0
  -11.3363  -14.1691    9.8200 N   0  0  0  0  0  0  0  0  0  0  0  0
  -10.5833  -14.6054    6.9544 N   0  0  0  0  0  0  0  0  0  0  0  0
  -10.5021  -14.3437    5.6517 C   0  0  0  0  0  0  0  0  0  0  0  0
  -11.1042  -13.1853    5.3909 N   0  0  0  0  0  0  0  0  0  0  0  0
  1  7  2  0  0  0  0
  1  2  1  0  0  0  0
  2  3  1  0  0  0  0
  2  4  2  0  0  0  0
  4  5  1  0  0  0  0
  5  6  2  0  0  0  0
  5 11  1  0  0  0  0
  6  7  1  0  0  0  0
  6  9  1  0  0  0  0
  7  8  1  0  0  0  0
  9 10  1  0  0  0  0
 10 11  2  0  0  0  0
M  END
>  <CHROM.1>
-11.70029149,-12.83325601,7.57423097,-2.82978537,1.03058877,-1.26512954

>  <Name>
ligand

>  <RI>
0

>  <Rbt.Current_Directory>
/home/itssahil/PROJECTS/Mol_Feturizer/New_Systems/rnas/2b57

>  <Rbt.Executable>
rbdock ($Id: //depot/dev/client3/rdock/2013.1/src/exe/rbdock.cxx#4 $)

>  <Rbt.Library>
libRbt.so (2013.1, Build901 2013/11/27)

>  <Rbt.Parameter_File>
/export/apps/rDock/src/rDock_2013.1_src/data/scripts/dock_solv.prm

>  <Rbt.Receptor>
prm/pocket_docking_4.prm

>  <SCORE>
-8.32084

>  <SCORE.INTER>
-8.32084

>  <SCORE.INTER.CONST>
1

>  <SCORE.INTER.POLAR>
0

>  <SCORE.INTER.ROT>
0

>  <SCORE.INTER.SOLV>
18.7368

>  <SCORE.INTER.VDW>
-15.3928

>  <SCORE.INTER.norm>
-0.75644

>  <SCORE.INTRA>
0

>  <SCORE.INTRA.DIHEDRAL>
0

>  <SCORE.INTRA.DIHEDRAL.0>
0

>  <SCORE.INTRA.POLAR>
0

>  <SCORE.INTRA.POLAR.0>
0

>  <SCORE.INTRA.REPUL>
0

>  <SCORE.INTRA.REPUL.0>
0

>  <SCORE.INTRA.SOLV>
0

>  <SCORE.INTRA.SOLV.lig_0>
-48.3454

>  <SCORE.INTRA.VDW>
0

>  <SCORE.INTRA.VDW.0>
0

>  <SCORE.INTRA.norm>
0

>  <SCORE.RESTR>
0

>  <SCORE.RESTR.CAVITY>
0

>  <SCORE.RESTR.norm>
0

>  <SCORE.SYSTEM>
0

>  <SCORE.SYSTEM.CONST>
0

>  <SCORE.SYSTEM.DIHEDRAL>
0

>  <SCORE.SYSTEM.SOLV>
0

>  <SCORE.SYSTEM.norm>
0

>  <SCORE.heavy>
11

>  <SCORE.norm>
-0.75644

>  <RMSD>
2.704

$$$$
ligand
 OpenBabel01301917033D
libRbt.so/2013.1/901 2013/11/27
 11 12  0  0  0  0  0  0  0  0999 V2000
  -12.3222  -12.0727    9.1012 N   0  0  0  0  0  0  0  0  0  0  0  0
  -12.6148  -11.2688    8.0664 C   0  0  0  0  0  0  0  0  0  0  0  0
  -13.2767  -10.1347    8.2777 N   0  0  0  0  0  0  0  0  0  0  0  0
  -12.2544  -11.6046    6.8180 N   0  0  0  0  0  0  0  0  0  0  0  0
  -11.5982  -12.7498    6.5795 C   0  0  0  0  0  0  0  0  0  0  0  0
  -11.2831  -13.5996    7.6321 C   0  0  0  0  0  0  0  0  0  0  0  0
  -11.6650  -13.2287    8.9171 C   0  0  0  0  0  0  0  0  0  0  0  0
  -11.3752  -14.0078    9.9550 N   0  0  0  0  0  0  0  0  0  0  0  0
  -10.6552  -14.6542    7.1207 N   0  0  0  0  0  0  0  0  0  0  0  0
  -10.5758  -14.4817    5.8032 C   0  0  0  0  0  0  0  0  0  0  0  0
  -11.1468  -13.3262    5.4693 N   0  0  0  0  0  0  0  0  0  0  0  0
  1  7  2  0  0  0  0
  1  2  1  0  0  0  0
  2  3  1  0  0  0  0
  2  4  2  0  0  0  0
  4  5  1  0  0  0  0
  5  6  2  0  0  0  0
  5 11  1  0  0  0  0
  6  7  1  0  0  0  0
  6  9  1  0  0  0  0
  7  8  1  0  0  0  0
  9 10  1  0  0  0  0
 10 11  2  0  0  0  0
M  END
>  <CHROM.1>
-11.71711211,-12.81356565,7.62749610,-2.83340732,1.05974150,-1.32828596

>  <Name>
ligand

>  <RI>
0

>  <Rbt.Current_Directory>
/home/itssahil/PROJECTS/Mol_Feturizer/New_Systems/rnas/2b57

>  <Rbt.Executable>
rbdock ($Id: //depot/dev/client3/rdock/2013.1/src/exe/rbdock.cxx#4 $)

>  <Rbt.Library>
libRbt.so (2013.1, Build901 2013/11/27)

>  <Rbt.Parameter_File>
/export/apps/rDock/src/rDock_2013.1_src/data/scripts/dock_solv.prm

>  <Rbt.Receptor>
prm/pocket_docking_7.prm

>  <SCORE>
-8.35254

>  <SCORE.INTER>
-8.35254

>  <SCORE.INTER.CONST>
1

>  <SCORE.INTER.POLAR>
0

>  <SCORE.INTER.ROT>
0

>  <SCORE.INTER.SOLV>
18.7147

>  <SCORE.INTER.VDW>
-15.4066

>  <SCORE.INTER.norm>
-0.759322

>  <SCORE.INTRA>
0

>  <SCORE.INTRA.DIHEDRAL>
0

>  <SCORE.INTRA.DIHEDRAL.0>
0

>  <SCORE.INTRA.POLAR>
0

>  <SCORE.INTRA.POLAR.0>
0

>  <SCORE.INTRA.REPUL>
0

>  <SCORE.INTRA.REPUL.0>
0

>  <SCORE.INTRA.SOLV>
0

>  <SCORE.INTRA.SOLV.lig_0>
-48.3454

>  <SCORE.INTRA.VDW>
0

>  <SCORE.INTRA.VDW.0>
0

>  <SCORE.INTRA.norm>
0

>  <SCORE.RESTR>
0

>  <SCORE.RESTR.CAVITY>
0

>  <SCORE.RESTR.norm>
0

>  <SCORE.SYSTEM>
0

>  <SCORE.SYSTEM.CONST>
0

>  <SCORE.SYSTEM.DIHEDRAL>
0

>  <SCORE.SYSTEM.SOLV>
0

>  <SCORE.SYSTEM.norm>
0

>  <SCORE.heavy>
11

>  <SCORE.norm>
-0.759322

>  <RMSD>
2.728

$$$$
ligand
 OpenBabel01301917033D
libRbt.so/2013.1/901 2013/11/27
 11 12  0  0  0  0  0  0  0  0999 V2000
  -11.8732  -12.0631    8.8735 N   0  0  0  0  0  0  0  0  0  0  0  0
  -12.1082  -11.1282    7.9389 C   0  0  0  0  0  0  0  0  0  0  0  0
  -12.5977   -9.9446    8.2971 N   0  0  0  0  0  0  0  0  0  0  0  0
  -11.8631  -11.3811    6.6438 N   0  0  0  0  0  0  0  0  0  0  0  0
  -11.3821  -12.5722    6.2579 C   0  0  0  0  0  0  0  0  0  0  0  0
  -11.1303  -13.5571    7.2046 C   0  0  0  0  0  0  0  0  0  0  0  0
  -11.3899  -13.2704    8.5407 C   0  0  0  0  0  0  0  0  0  0  0  0
  -11.1543  -14.1808    9.4808 N   0  0  0  0  0  0  0  0  0  0  0  0
  -10.6794  -14.6278    6.5578 N   0  0  0  0  0  0  0  0  0  0  0  0
  -10.6471  -14.3357    5.2595 C   0  0  0  0  0  0  0  0  0  0  0  0
  -11.0725  -13.0882    5.0720 N   0  0  0  0  0  0  0  0  0  0  0  0
  1  7  2  0  0  0  0
  1  2  1  0  0  0  0
  2  3  1  0  0  0  0
  2  4  2  0  0  0  0
  4  5  1  0  0  0  0
  5  6  2  0  0  0  0
  5 11  1  0  0  0  0
  6  7  1  0  0  0  0
  6  9  1  0  0  0  0
  7  8  1  0  0  0  0
  9 10  1  0  0  0  0
 10 11  2  0  0  0  0
M  END
>  <CHROM.1>
-11.45312766,-12.72477222,7.30113511,-2.78139047,1.20441394,-1.27849221

>  <Name>
ligand

>  <RI>
0

>  <Rbt.Current_Directory>
/home/itssahil/PROJECTS/Mol_Feturizer/New_Systems/rnas/2b57

>  <Rbt.Executable>
rbdock ($Id: //depot/dev/client3/rdock/2013.1/src/exe/rbdock.cxx#4 $)

>  <Rbt.Library>
libRbt.so (2013.1, Build901 2013/11/27)

>  <Rbt.Parameter_File>
/export/apps/rDock/src/rDock_2013.1_src/data/scripts/dock_solv.prm

>  <Rbt.Receptor>
prm/blind_docking_20.prm

>  <SCORE>
-6.17435

>  <SCORE.INTER>
-6.92388

>  <SCORE.INTER.CONST>
1

>  <SCORE.INTER.POLAR>
0

>  <SCORE.INTER.ROT>
0

>  <SCORE.INTER.SOLV>
19.5314

>  <SCORE.INTER.VDW>
-14.7264

>  <SCORE.INTER.norm>
-0.629444

>  <SCORE.INTRA>
0

>  <SCORE.INTRA.DIHEDRAL>
0

>  <SCORE.INTRA.DIHEDRAL.0>
0

>  <SCORE.INTRA.POLAR>
0

>  <SCORE.INTRA.POLAR.0>
0

>  <SCORE.INTRA.REPUL>
0

>  <SCORE.INTRA.REPUL.0>
0

>  <SCORE.INTRA.SOLV>
0

>  <SCORE.INTRA.SOLV.lig_0>
-48.3454

>  <SCORE.INTRA.VDW>
0

>  <SCORE.INTRA.VDW.0>
0

>  <SCORE.INTRA.norm>
0

>  <SCORE.RESTR>
0.749535

>  <SCORE.RESTR.CAVITY>
0.749535

>  <SCORE.RESTR.norm>
0.0681395

>  <SCORE.SYSTEM>
0

>  <SCORE.SYSTEM.CONST>
0

>  <SCORE.SYSTEM.DIHEDRAL>
0

>  <SCORE.SYSTEM.SOLV>
0

>  <SCORE.SYSTEM.norm>
0

>  <SCORE.heavy>
11

>  <SCORE.norm>
-0.561304

>  <RMSD>
2.756

$$$$
ligand
 OpenBabel01301917033D
libRbt.so/2013.1/901 2013/11/27
 11 12  0  0  0  0  0  0  0  0999 V2000
  -11.9321  -11.8960    8.9757 N   0  0  0  0  0  0  0  0  0  0  0  0
  -12.0016  -11.0490    7.9362 C   0  0  0  0  0  0  0  0  0  0  0  0
  -12.3194   -9.7742    8.1431 N   0  0  0  0  0  0  0  0  0  0  0  0
  -11.7631  -11.4798    6.6878 N   0  0  0  0  0  0  0  0  0  0  0  0
  -11.4541  -12.7638    6.4539 C   0  0  0  0  0  0  0  0  0  0  0  0
  -11.3757  -13.6611    7.5114 C   0  0  0  0  0  0  0  0  0  0  0  0
  -11.6246  -13.1903    8.7964 C   0  0  0  0  0  0  0  0  0  0  0  0
  -11.5509  -14.0126    9.8388 N   0  0  0  0  0  0  0  0  0  0  0  0
  -11.0718  -14.8520    7.0042 N   0  0  0  0  0  0  0  0  0  0  0  0
  -10.9628  -14.7167    5.6844 C   0  0  0  0  0  0  0  0  0  0  0  0
  -11.1936  -13.4502    5.3450 N   0  0  0  0  0  0  0  0  0  0  0  0
  1  7  2  0  0  0  0
  1  2  1  0  0  0  0
  2  3  1  0  0  0  0
  2  4  2  0  0  0  0
  4  5  1  0  0  0  0
  5  6  2  0  0  0  0
  5 11  1  0  0  0  0
  6  7  1  0  0  0  0
  6  9  1  0  0  0  0
  7  8  1  0  0  0  0
  9 10  1  0  0  0  0
 10 11  2  0  0  0  0
M  END
>  <CHROM.1>
-11.57400530,-12.78531703,7.50350227,-3.06872605,1.33002942,-1.11531251

>  <Name>
ligand

>  <RI>
0

>  <Rbt.Current_Directory>
/home/itssahil/PROJECTS/Mol_Feturizer/New_Systems/rnas/2b57

>  <Rbt.Executable>
rbdock ($Id: //depot/dev/client3/rdock/2013.1/src/exe/rbdock.cxx#4 $)

>  <Rbt.Library>
libRbt.so (2013.1, Build901 2013/11/27)

>  <Rbt.Parameter_File>
/export/apps/rDock/src/rDock_2013.1_src/data/scripts/dock_solv.prm

>  <Rbt.Receptor>
prm/blind_docking_40.prm

>  <SCORE>
-8.79043

>  <SCORE.INTER>
-8.79043

>  <SCORE.INTER.CONST>
1

>  <SCORE.INTER.POLAR>
0

>  <SCORE.INTER.ROT>
0

>  <SCORE.INTER.SOLV>
20.5057

>  <SCORE.INTER.VDW>
-16.2955

>  <SCORE.INTER.norm>
-0.79913

>  <SCORE.INTRA>
0

>  <SCORE.INTRA.DIHEDRAL>
0

>  <SCORE.INTRA.DIHEDRAL.0>
0

>  <SCORE.INTRA.POLAR>
0

>  <SCORE.INTRA.POLAR.0>
0

>  <SCORE.INTRA.REPUL>
0

>  <SCORE.INTRA.REPUL.0>
0

>  <SCORE.INTRA.SOLV>
0

>  <SCORE.INTRA.SOLV.lig_0>
-48.3454

>  <SCORE.INTRA.VDW>
0

>  <SCORE.INTRA.VDW.0>
0

>  <SCORE.INTRA.norm>
0

>  <SCORE.RESTR>
0

>  <SCORE.RESTR.CAVITY>
0

>  <SCORE.RESTR.norm>
0

>  <SCORE.SYSTEM>
0

>  <SCORE.SYSTEM.CONST>
0

>  <SCORE.SYSTEM.DIHEDRAL>
0

>  <SCORE.SYSTEM.SOLV>
0

>  <SCORE.SYSTEM.norm>
0

>  <SCORE.heavy>
11

>  <SCORE.norm>
-0.79913

>  <RMSD>
2.775

$$$$
ligand
 OpenBabel01301917033D
libRbt.so/2013.1/901 2013/11/27
 11 12  0  0  0  0  0  0  0  0999 V2000
  -11.9252  -11.8944    8.9754 N   0  0  0  0  0  0  0  0  0  0  0  0
  -11.9913  -11.0469    7.9362 C   0  0  0  0  0  0  0  0  0  0  0  0
  -12.3051   -9.7711    8.1433 N   0  0  0  0  0  0  0  0  0  0  0  0
  -11.7534  -11.4779    6.6877 N   0  0  0  0  0  0  0  0  0  0  0  0
  -11.4484  -12.7628    6.4535 C   0  0  0  0  0  0  0  0  0  0  0  0
  -11.3735  -13.6607    7.5107 C   0  0  0  0  0  0  0  0  0  0  0  0
  -11.6217  -13.1896    8.7958 C   0  0  0  0  0  0  0  0  0  0  0  0
  -11.5513  -14.0126    9.8378 N   0  0  0  0  0  0  0  0  0  0  0  0
  -11.0732  -14.8524    7.0032 N   0  0  0  0  0  0  0  0  0  0  0  0
  -10.9630  -14.7170    5.6835 C   0  0  0  0  0  0  0  0  0  0  0  0
  -11.1895  -13.4497    5.3444 N   0  0  0  0  0  0  0  0  0  0  0  0
  1  7  2  0  0  0  0
  1  2  1  0  0  0  0
  2  3  1  0  0  0  0
  2  4  2  0  0  0  0
  4  5  1  0  0  0  0
  5  6  2  0  0  0  0
  5 11  1  0  0  0  0
  6  7  1  0  0  0  0
  6  9  1  0  0  0  0
  7  8  1  0  0  0  0
  9 10  1  0  0  0  0
 10 11  2  0  0  0  0
M  END
>  <CHROM.1>
-11.56902994,-12.78433693,7.50301839,-3.07704707,1.33266331,-1.10684326

>  <Name>
ligand

>  <RI>
0

>  <Rbt.Current_Directory>
/home/itssahil/PROJECTS/Mol_Feturizer/New_Systems/rnas/2b57

>  <Rbt.Executable>
rbdock ($Id: //depot/dev/client3/rdock/2013.1/src/exe/rbdock.cxx#4 $)

>  <Rbt.Library>
libRbt.so (2013.1, Build901 2013/11/27)

>  <Rbt.Parameter_File>
/export/apps/rDock/src/rDock_2013.1_src/data/scripts/dock_solv.prm

>  <Rbt.Receptor>
prm/pocket_docking_5.prm

>  <SCORE>
-8.78912

>  <SCORE.INTER>
-8.78912

>  <SCORE.INTER.CONST>
1

>  <SCORE.INTER.POLAR>
0

>  <SCORE.INTER.ROT>
0

>  <SCORE.INTER.SOLV>
20.5711

>  <SCORE.INTER.VDW>
-16.3164

>  <SCORE.INTER.norm>
-0.799011

>  <SCORE.INTRA>
0

>  <SCORE.INTRA.DIHEDRAL>
0

>  <SCORE.INTRA.DIHEDRAL.0>
0

>  <SCORE.INTRA.POLAR>
0

>  <SCORE.INTRA.POLAR.0>
0

>  <SCORE.INTRA.REPUL>
0

>  <SCORE.INTRA.REPUL.0>
0

>  <SCORE.INTRA.SOLV>
0

>  <SCORE.INTRA.SOLV.lig_0>
-48.3454

>  <SCORE.INTRA.VDW>
0

>  <SCORE.INTRA.VDW.0>
0

>  <SCORE.INTRA.norm>
0

>  <SCORE.RESTR>
0

>  <SCORE.RESTR.CAVITY>
0

>  <SCORE.RESTR.norm>
0

>  <SCORE.SYSTEM>
0

>  <SCORE.SYSTEM.CONST>
0

>  <SCORE.SYSTEM.DIHEDRAL>
0

>  <SCORE.SYSTEM.SOLV>
0

>  <SCORE.SYSTEM.norm>
0

>  <SCORE.heavy>
11

>  <SCORE.norm>
-0.799011

>  <RMSD>
2.775

$$$$
ligand
 OpenBabel01301917033D
libRbt.so/2013.1/901 2013/11/27
 11 12  0  0  0  0  0  0  0  0999 V2000
  -11.9257  -11.8952    8.9762 N   0  0  0  0  0  0  0  0  0  0  0  0
  -11.9923  -11.0469    7.9376 C   0  0  0  0  0  0  0  0  0  0  0  0
  -12.3057   -9.7712    8.1459 N   0  0  0  0  0  0  0  0  0  0  0  0
  -11.7555  -11.4771    6.6887 N   0  0  0  0  0  0  0  0  0  0  0  0
  -11.4510  -12.7619    6.4533 C   0  0  0  0  0  0  0  0  0  0  0  0
  -11.3756  -13.6606    7.5099 C   0  0  0  0  0  0  0  0  0  0  0  0
  -11.6226  -13.1904    8.7954 C   0  0  0  0  0  0  0  0  0  0  0  0
  -11.5517  -14.0141    9.8369 N   0  0  0  0  0  0  0  0  0  0  0  0
  -11.0759  -14.8520    7.0012 N   0  0  0  0  0  0  0  0  0  0  0  0
  -10.9667  -14.7157    5.6816 C   0  0  0  0  0  0  0  0  0  0  0  0
  -11.1931  -13.4480    5.3436 N   0  0  0  0  0  0  0  0  0  0  0  0
  1  7  2  0  0  0  0
  1  2  1  0  0  0  0
  2  3  1  0  0  0  0
  2  4  2  0  0  0  0
  4  5  1  0  0  0  0
  5  6  2  0  0  0  0
  5 11  1  0  0  0  0
  6  7  1  0  0  0  0
  6  9  1  0  0  0  0
  7  8  1  0  0  0  0
  9 10  1  0  0  0  0
 10 11  2  0  0  0  0
M  END
>  <CHROM.1>
-11.57086574,-12.78417535,7.50294152,-3.07468394,1.33322394,-1.10841921

>  <Name>
ligand

>  <RI>
0

>  <Rbt.Current_Directory>
/home/itssahil/PROJECTS/Mol_Feturizer/New_Systems/rnas/2b57

>  <Rbt.Executable>
rbdock ($Id: //depot/dev/client3/rdock/2013.1/src/exe/rbdock.cxx#4 $)

>  <Rbt.Library>
libRbt.so (2013.1, Build901 2013/11/27)

>  <Rbt.Parameter_File>
/export/apps/rDock/src/rDock_2013.1_src/data/scripts/dock_solv.prm

>  <Rbt.Receptor>
prm/pocket_docking_7.prm

>  <SCORE>
-8.78704

>  <SCORE.INTER>
-8.78704

>  <SCORE.INTER.CONST>
1

>  <SCORE.INTER.POLAR>
0

>  <SCORE.INTER.ROT>
0

>  <SCORE.INTER.SOLV>
20.5749

>  <SCORE.INTER.VDW>
-16.3163

>  <SCORE.INTER.norm>
-0.798821

>  <SCORE.INTRA>
0

>  <SCORE.INTRA.DIHEDRAL>
0

>  <SCORE.INTRA.DIHEDRAL.0>
0

>  <SCORE.INTRA.POLAR>
0

>  <SCORE.INTRA.POLAR.0>
0

>  <SCORE.INTRA.REPUL>
0

>  <SCORE.INTRA.REPUL.0>
0

>  <SCORE.INTRA.SOLV>
0

>  <SCORE.INTRA.SOLV.lig_0>
-48.3454

>  <SCORE.INTRA.VDW>
0

>  <SCORE.INTRA.VDW.0>
0

>  <SCORE.INTRA.norm>
0

>  <SCORE.RESTR>
0

>  <SCORE.RESTR.CAVITY>
0

>  <SCORE.RESTR.norm>
0

>  <SCORE.SYSTEM>
0

>  <SCORE.SYSTEM.CONST>
0

>  <SCORE.SYSTEM.DIHEDRAL>
0

>  <SCORE.SYSTEM.SOLV>
0

>  <SCORE.SYSTEM.norm>
0

>  <SCORE.heavy>
11

>  <SCORE.norm>
-0.798821

>  <RMSD>
2.775

$$$$
ligand
 OpenBabel01301917033D
libRbt.so/2013.1/901 2013/11/27
 11 12  0  0  0  0  0  0  0  0999 V2000
  -11.8940  -11.8846    8.9856 N   0  0  0  0  0  0  0  0  0  0  0  0
  -11.9447  -11.0276    7.9533 C   0  0  0  0  0  0  0  0  0  0  0  0
  -12.2392   -9.7489    8.1704 N   0  0  0  0  0  0  0  0  0  0  0  0
  -11.7106  -11.4519    6.7018 N   0  0  0  0  0  0  0  0  0  0  0  0
  -11.4250  -12.7394    6.4576 C   0  0  0  0  0  0  0  0  0  0  0  0
  -11.3663  -13.6470    7.5075 C   0  0  0  0  0  0  0  0  0  0  0  0
  -11.6101  -13.1828    8.7959 C   0  0  0  0  0  0  0  0  0  0  0  0
  -11.5549  -14.0154    9.8312 N   0  0  0  0  0  0  0  0  0  0  0  0
  -11.0833  -14.8390    6.9907 N   0  0  0  0  0  0  0  0  0  0  0  0
  -10.9680  -14.6944    5.6725 C   0  0  0  0  0  0  0  0  0  0  0  0
  -11.1742  -13.4209    5.3435 N   0  0  0  0  0  0  0  0  0  0  0  0
  1  7  2  0  0  0  0
  1  2  1  0  0  0  0
  2  3  1  0  0  0  0
  2  4  2  0  0  0  0
  4  5  1  0  0  0  0
  5  6  2  0  0  0  0
  5 11  1  0  0  0  0
  6  7  1  0  0  0  0
  6  9  1  0  0  0  0
  7  8  1  0  0  0  0
  9 10  1  0  0  0  0
 10 11  2  0  0  0  0
M  END
>  <CHROM.1>
-11.54828208,-12.76771026,7.50668556,-3.11705684,1.34526082,-1.05960710

>  <Name>
ligand

>  <RI>
0

>  <Rbt.Current_Directory>
/home/itssahil/PROJECTS/Mol_Feturizer/New_Systems/rnas/2b57

>  <Rbt.Executable>
rbdock ($Id: //depot/dev/client3/rdock/2013.1/src/exe/rbdock.cxx#4 $)

>  <Rbt.Library>
libRbt.so (2013.1, Build901 2013/11/27)

>  <Rbt.Parameter_File>
/export/apps/rDock/src/rDock_2013.1_src/data/scripts/dock_solv.prm

>  <Rbt.Receptor>
prm/pocket_docking_8.prm

>  <SCORE>
-8.80484

>  <SCORE.INTER>
-8.80484

>  <SCORE.INTER.CONST>
1

>  <SCORE.INTER.POLAR>
0

>  <SCORE.INTER.ROT>
0

>  <SCORE.INTER.SOLV>
20.9146

>  <SCORE.INTER.VDW>
-16.4414

>  <SCORE.INTER.norm>
-0.80044

>  <SCORE.INTRA>
0

>  <SCORE.INTRA.DIHEDRAL>
0

>  <SCORE.INTRA.DIHEDRAL.0>
0

>  <SCORE.INTRA.POLAR>
0

>  <SCORE.INTRA.POLAR.0>
0

>  <SCORE.INTRA.REPUL>
0

>  <SCORE.INTRA.REPUL.0>
0

>  <SCORE.INTRA.SOLV>
0

>  <SCORE.INTRA.SOLV.lig_0>
-48.3454

>  <SCORE.INTRA.VDW>
0

>  <SCORE.INTRA.VDW.0>
0

>  <SCORE.INTRA.norm>
0

>  <SCORE.RESTR>
0

>  <SCORE.RESTR.CAVITY>
0

>  <SCORE.RESTR.norm>
0

>  <SCORE.SYSTEM>
0

>  <SCORE.SYSTEM.CONST>
0

>  <SCORE.SYSTEM.DIHEDRAL>
0

>  <SCORE.SYSTEM.SOLV>
0

>  <SCORE.SYSTEM.norm>
0

>  <SCORE.heavy>
11

>  <SCORE.norm>
-0.80044

>  <RMSD>
2.775

$$$$
ligand
 OpenBabel01301917033D
libRbt.so/2013.1/901 2013/11/27
 11 12  0  0  0  0  0  0  0  0999 V2000
  -12.0588  -11.8678    8.9761 N   0  0  0  0  0  0  0  0  0  0  0  0
  -12.0398  -11.0063    7.9465 C   0  0  0  0  0  0  0  0  0  0  0  0
  -12.3424   -9.7272    8.1499 N   0  0  0  0  0  0  0  0  0  0  0  0
  -11.7279  -11.4264    6.7106 N   0  0  0  0  0  0  0  0  0  0  0  0
  -11.4325  -12.7141    6.4794 C   0  0  0  0  0  0  0  0  0  0  0  0
  -11.4450  -13.6264    7.5270 C   0  0  0  0  0  0  0  0  0  0  0  0
  -11.7687  -13.1665    8.7991 C   0  0  0  0  0  0  0  0  0  0  0  0
  -11.7833  -14.0035    9.8322 N   0  0  0  0  0  0  0  0  0  0  0  0
  -11.1343  -14.8174    7.0240 N   0  0  0  0  0  0  0  0  0  0  0  0
  -10.9343  -14.6678    5.7165 C   0  0  0  0  0  0  0  0  0  0  0  0
  -11.1138  -13.3921    5.3806 N   0  0  0  0  0  0  0  0  0  0  0  0
  1  7  2  0  0  0  0
  1  2  1  0  0  0  0
  2  3  1  0  0  0  0
  2  4  2  0  0  0  0
  4  5  1  0  0  0  0
  5  6  2  0  0  0  0
  5 11  1  0  0  0  0
  6  7  1  0  0  0  0
  6  9  1  0  0  0  0
  7  8  1  0  0  0  0
  9 10  1  0  0  0  0
 10 11  2  0  0  0  0
M  END
>  <CHROM.1>
-11.62283852,-12.74626520,7.51836287,2.93900877,1.31112630,-0.83475219

>  <Name>
ligand

>  <RI>
0

>  <Rbt.Current_Directory>
/home/itssahil/PROJECTS/Mol_Feturizer/New_Systems/rnas/2b57

>  <Rbt.Executable>
rbdock ($Id: //depot/dev/client3/rdock/2013.1/src/exe/rbdock.cxx#4 $)

>  <Rbt.Library>
libRbt.so (2013.1, Build901 2013/11/27)

>  <Rbt.Parameter_File>
/export/apps/rDock/src/rDock_2013.1_src/data/scripts/dock_solv.prm

>  <Rbt.Receptor>
prm/pocket_docking_8.prm

>  <SCORE>
-8.79605

>  <SCORE.INTER>
-8.79605

>  <SCORE.INTER.CONST>
1

>  <SCORE.INTER.POLAR>
0

>  <SCORE.INTER.ROT>
0

>  <SCORE.INTER.SOLV>
20.1513

>  <SCORE.INTER.VDW>
-16.1811

>  <SCORE.INTER.norm>
-0.799641

>  <SCORE.INTRA>
0

>  <SCORE.INTRA.DIHEDRAL>
0

>  <SCORE.INTRA.DIHEDRAL.0>
0

>  <SCORE.INTRA.POLAR>
0

>  <SCORE.INTRA.POLAR.0>
0

>  <SCORE.INTRA.REPUL>
0

>  <SCORE.INTRA.REPUL.0>
0

>  <SCORE.INTRA.SOLV>
0

>  <SCORE.INTRA.SOLV.lig_0>
-48.3454

>  <SCORE.INTRA.VDW>
0

>  <SCORE.INTRA.VDW.0>
0

>  <SCORE.INTRA.norm>
0

>  <SCORE.RESTR>
0

>  <SCORE.RESTR.CAVITY>
0

>  <SCORE.RESTR.norm>
0

>  <SCORE.SYSTEM>
0

>  <SCORE.SYSTEM.CONST>
0

>  <SCORE.SYSTEM.DIHEDRAL>
0

>  <SCORE.SYSTEM.SOLV>
0

>  <SCORE.SYSTEM.norm>
0

>  <SCORE.heavy>
11

>  <SCORE.norm>
-0.799641

>  <RMSD>
2.775

$$$$
ligand
 OpenBabel01301917033D
libRbt.so/2013.1/901 2013/11/27
 11 12  0  0  0  0  0  0  0  0999 V2000
  -12.0407  -11.8670    8.9683 N   0  0  0  0  0  0  0  0  0  0  0  0
  -12.0106  -11.0034    7.9406 C   0  0  0  0  0  0  0  0  0  0  0  0
  -12.3030   -9.7223    8.1457 N   0  0  0  0  0  0  0  0  0  0  0  0
  -11.6978  -11.4236    6.7050 N   0  0  0  0  0  0  0  0  0  0  0  0
  -11.4125  -12.7133    6.4721 C   0  0  0  0  0  0  0  0  0  0  0  0
  -11.4365  -13.6276    7.5176 C   0  0  0  0  0  0  0  0  0  0  0  0
  -11.7610  -13.1677    8.7896 C   0  0  0  0  0  0  0  0  0  0  0  0
  -11.7864  -14.0068    9.8207 N   0  0  0  0  0  0  0  0  0  0  0  0
  -11.1341  -14.8202    7.0132 N   0  0  0  0  0  0  0  0  0  0  0  0
  -10.9280  -14.6695    5.7068 C   0  0  0  0  0  0  0  0  0  0  0  0
  -11.0954  -13.3916    5.3730 N   0  0  0  0  0  0  0  0  0  0  0  0
  1  7  2  0  0  0  0
  1  2  1  0  0  0  0
  2  3  1  0  0  0  0
  2  4  2  0  0  0  0
  4  5  1  0  0  0  0
  5  6  2  0  0  0  0
  5 11  1  0  0  0  0
  6  7  1  0  0  0  0
  6  9  1  0  0  0  0
  7  8  1  0  0  0  0
  9 10  1  0  0  0  0
 10 11  2  0  0  0  0
M  END
>  <CHROM.1>
-11.60682972,-12.74600166,7.51025004,2.90576700,1.31481876,-0.80046010

>  <Name>
ligand

>  <RI>
0

>  <Rbt.Current_Directory>
/home/itssahil/PROJECTS/Mol_Feturizer/New_Systems/rnas/2b57

>  <Rbt.Executable>
rbdock ($Id: //depot/dev/client3/rdock/2013.1/src/exe/rbdock.cxx#4 $)

>  <Rbt.Library>
libRbt.so (2013.1, Build901 2013/11/27)

>  <Rbt.Parameter_File>
/export/apps/rDock/src/rDock_2013.1_src/data/scripts/dock_solv.prm

>  <Rbt.Receptor>
prm/blind_docking_40.prm

>  <SCORE>
-8.79941

>  <SCORE.INTER>
-8.79941

>  <SCORE.INTER.CONST>
1

>  <SCORE.INTER.POLAR>
0

>  <SCORE.INTER.ROT>
0

>  <SCORE.INTER.SOLV>
20.3111

>  <SCORE.INTER.VDW>
-16.2367

>  <SCORE.INTER.norm>
-0.799946

>  <SCORE.INTRA>
0

>  <SCORE.INTRA.DIHEDRAL>
0

>  <SCORE.INTRA.DIHEDRAL.0>
0

>  <SCORE.INTRA.POLAR>
0

>  <SCORE.INTRA.POLAR.0>
0

>  <SCORE.INTRA.REPUL>
0

>  <SCORE.INTRA.REPUL.0>
0

>  <SCORE.INTRA.SOLV>
0

>  <SCORE.INTRA.SOLV.lig_0>
-48.3454

>  <SCORE.INTRA.VDW>
0

>  <SCORE.INTRA.VDW.0>
0

>  <SCORE.INTRA.norm>
0

>  <SCORE.RESTR>
0

>  <SCORE.RESTR.CAVITY>
0

>  <SCORE.RESTR.norm>
0

>  <SCORE.SYSTEM>
0

>  <SCORE.SYSTEM.CONST>
0

>  <SCORE.SYSTEM.DIHEDRAL>
0

>  <SCORE.SYSTEM.SOLV>
0

>  <SCORE.SYSTEM.norm>
0

>  <SCORE.heavy>
11

>  <SCORE.norm>
-0.799946

>  <RMSD>
2.776

$$$$
ligand
 OpenBabel01301917033D
libRbt.so/2013.1/901 2013/11/27
 11 12  0  0  0  0  0  0  0  0999 V2000
  -11.9613  -11.8584    8.9832 N   0  0  0  0  0  0  0  0  0  0  0  0
  -11.9566  -10.9973    7.9530 C   0  0  0  0  0  0  0  0  0  0  0  0
  -12.2380   -9.7145    8.1633 N   0  0  0  0  0  0  0  0  0  0  0  0
  -11.6804  -11.4215    6.7101 N   0  0  0  0  0  0  0  0  0  0  0  0
  -11.4070  -12.7129    6.4724 C   0  0  0  0  0  0  0  0  0  0  0  0
  -11.4052  -13.6248    7.5203 C   0  0  0  0  0  0  0  0  0  0  0  0
  -11.6920  -13.1607    8.7998 C   0  0  0  0  0  0  0  0  0  0  0  0
  -11.6918  -13.9974    9.8332 N   0  0  0  0  0  0  0  0  0  0  0  0
  -11.1220  -14.8197    7.0104 N   0  0  0  0  0  0  0  0  0  0  0  0
  -10.9522  -14.6728    5.6983 C   0  0  0  0  0  0  0  0  0  0  0  0
  -11.1238  -13.3950    5.3664 N   0  0  0  0  0  0  0  0  0  0  0  0
  1  7  2  0  0  0  0
  1  2  1  0  0  0  0
  2  3  1  0  0  0  0
  2  4  2  0  0  0  0
  4  5  1  0  0  0  0
  5  6  2  0  0  0  0
  5 11  1  0  0  0  0
  6  7  1  0  0  0  0
  6  9  1  0  0  0  0
  7  8  1  0  0  0  0
  9 10  1  0  0  0  0
 10 11  2  0  0  0  0
M  END
>  <CHROM.1>
-11.57218101,-12.74250345,7.51563669,2.98076522,1.33669031,-0.87553068

>  <Name>
ligand

>  <RI>
0

>  <Rbt.Current_Directory>
/home/itssahil/PROJECTS/Mol_Feturizer/New_Systems/rnas/2b57

>  <Rbt.Executable>
rbdock ($Id: //depot/dev/client3/rdock/2013.1/src/exe/rbdock.cxx#4 $)

>  <Rbt.Library>
libRbt.so (2013.1, Build901 2013/11/27)

>  <Rbt.Parameter_File>
/export/apps/rDock/src/rDock_2013.1_src/data/scripts/dock_solv.prm

>  <Rbt.Receptor>
prm/blind_docking_60.prm

>  <SCORE>
-8.73981

>  <SCORE.INTER>
-8.73981

>  <SCORE.INTER.CONST>
1

>  <SCORE.INTER.POLAR>
0

>  <SCORE.INTER.ROT>
0

>  <SCORE.INTER.SOLV>
20.723

>  <SCORE.INTER.VDW>
-16.3342

>  <SCORE.INTER.norm>
-0.794529

>  <SCORE.INTRA>
0

>  <SCORE.INTRA.DIHEDRAL>
0

>  <SCORE.INTRA.DIHEDRAL.0>
0

>  <SCORE.INTRA.POLAR>
0

>  <SCORE.INTRA.POLAR.0>
0

>  <SCORE.INTRA.REPUL>
0

>  <SCORE.INTRA.REPUL.0>
0

>  <SCORE.INTRA.SOLV>
0

>  <SCORE.INTRA.SOLV.lig_0>
-48.3454

>  <SCORE.INTRA.VDW>
0

>  <SCORE.INTRA.VDW.0>
0

>  <SCORE.INTRA.norm>
0

>  <SCORE.RESTR>
0

>  <SCORE.RESTR.CAVITY>
0

>  <SCORE.RESTR.norm>
0

>  <SCORE.SYSTEM>
0

>  <SCORE.SYSTEM.CONST>
0

>  <SCORE.SYSTEM.DIHEDRAL>
0

>  <SCORE.SYSTEM.SOLV>
0

>  <SCORE.SYSTEM.norm>
0

>  <SCORE.heavy>
11

>  <SCORE.norm>
-0.794529

>  <RMSD>
2.776

$$$$
ligand
 OpenBabel01301917033D
libRbt.so/2013.1/901 2013/11/27
 11 12  0  0  0  0  0  0  0  0999 V2000
  -12.0688  -11.8675    8.9754 N   0  0  0  0  0  0  0  0  0  0  0  0
  -12.0308  -11.0169    7.9372 C   0  0  0  0  0  0  0  0  0  0  0  0
  -12.3229   -9.7329    8.1244 N   0  0  0  0  0  0  0  0  0  0  0  0
  -11.7104  -11.4528    6.7091 N   0  0  0  0  0  0  0  0  0  0  0  0
  -11.4253  -12.7457    6.4942 C   0  0  0  0  0  0  0  0  0  0  0  0
  -11.4574  -13.6468    7.5508 C   0  0  0  0  0  0  0  0  0  0  0  0
  -11.7897  -13.1707    8.8148 C   0  0  0  0  0  0  0  0  0  0  0  0
  -11.8230  -13.9968    9.8562 N   0  0  0  0  0  0  0  0  0  0  0  0
  -11.1532  -14.8460    7.0634 N   0  0  0  0  0  0  0  0  0  0  0  0
  -10.9384  -14.7119    5.7566 C   0  0  0  0  0  0  0  0  0  0  0  0
  -11.1019  -13.4381    5.4058 N   0  0  0  0  0  0  0  0  0  0  0  0
  1  7  2  0  0  0  0
  1  2  1  0  0  0  0
  2  3  1  0  0  0  0
  2  4  2  0  0  0  0
  4  5  1  0  0  0  0
  5  6  2  0  0  0  0
  5 11  1  0  0  0  0
  6  7  1  0  0  0  0
  6  9  1  0  0  0  0
  7  8  1  0  0  0  0
  9 10  1  0  0  0  0
 10 11  2  0  0  0  0
M  END
>  <CHROM.1>
-11.62652702,-12.76518706,7.53137314,2.88379167,1.31111296,-0.79170518

>  <Name>
ligand

>  <RI>
0

>  <Rbt.Current_Directory>
/home/itssahil/PROJECTS/Mol_Feturizer/New_Systems/rnas/2b57

>  <Rbt.Executable>
rbdock ($Id: //depot/dev/client3/rdock/2013.1/src/exe/rbdock.cxx#4 $)

>  <Rbt.Library>
libRbt.so (2013.1, Build901 2013/11/27)

>  <Rbt.Parameter_File>
/export/apps/rDock/src/rDock_2013.1_src/data/scripts/dock_solv.prm

>  <Rbt.Receptor>
prm/pocket_docking_6.prm

>  <SCORE>
-8.71065

>  <SCORE.INTER>
-8.71065

>  <SCORE.INTER.CONST>
1

>  <SCORE.INTER.POLAR>
0

>  <SCORE.INTER.ROT>
0

>  <SCORE.INTER.SOLV>
20.1845

>  <SCORE.INTER.VDW>
-16.1353

>  <SCORE.INTER.norm>
-0.791878

>  <SCORE.INTRA>
0

>  <SCORE.INTRA.DIHEDRAL>
0

>  <SCORE.INTRA.DIHEDRAL.0>
0

>  <SCORE.INTRA.POLAR>
0

>  <SCORE.INTRA.POLAR.0>
0

>  <SCORE.INTRA.REPUL>
0

>  <SCORE.INTRA.REPUL.0>
0

>  <SCORE.INTRA.SOLV>
0

>  <SCORE.INTRA.SOLV.lig_0>
-48.3454

>  <SCORE.INTRA.VDW>
0

>  <SCORE.INTRA.VDW.0>
0

>  <SCORE.INTRA.norm>
0

>  <SCORE.RESTR>
0

>  <SCORE.RESTR.CAVITY>
0

>  <SCORE.RESTR.norm>
0

>  <SCORE.SYSTEM>
0

>  <SCORE.SYSTEM.CONST>
0

>  <SCORE.SYSTEM.DIHEDRAL>
0

>  <SCORE.SYSTEM.SOLV>
0

>  <SCORE.SYSTEM.norm>
0

>  <SCORE.heavy>
11

>  <SCORE.norm>
-0.791878

>  <RMSD>
2.776

$$$$
ligand
 OpenBabel01301917033D
libRbt.so/2013.1/901 2013/11/27
 11 12  0  0  0  0  0  0  0  0999 V2000
  -12.0500  -11.8630    8.9737 N   0  0  0  0  0  0  0  0  0  0  0  0
  -12.0305  -11.0085    7.9383 C   0  0  0  0  0  0  0  0  0  0  0  0
  -12.3395   -9.7294    8.1318 N   0  0  0  0  0  0  0  0  0  0  0  0
  -11.7119  -11.4356    6.7066 N   0  0  0  0  0  0  0  0  0  0  0  0
  -11.4099  -12.7236    6.4854 C   0  0  0  0  0  0  0  0  0  0  0  0
  -11.4226  -13.6288    7.5391 C   0  0  0  0  0  0  0  0  0  0  0  0
  -11.7535  -13.1616    8.8068 C   0  0  0  0  0  0  0  0  0  0  0  0
  -11.7686  -13.9917    9.8455 N   0  0  0  0  0  0  0  0  0  0  0  0
  -11.1047  -14.8218    7.0456 N   0  0  0  0  0  0  0  0  0  0  0  0
  -10.9001  -14.6803    5.7379 C   0  0  0  0  0  0  0  0  0  0  0  0
  -11.0838  -13.4077    5.3926 N   0  0  0  0  0  0  0  0  0  0  0  0
  1  7  2  0  0  0  0
  1  2  1  0  0  0  0
  2  3  1  0  0  0  0
  2  4  2  0  0  0  0
  4  5  1  0  0  0  0
  5  6  2  0  0  0  0
  5 11  1  0  0  0  0
  6  7  1  0  0  0  0
  6  9  1  0  0  0  0
  7  8  1  0  0  0  0
  9 10  1  0  0  0  0
 10 11  2  0  0  0  0
M  END
>  <CHROM.1>
-11.60427168,-12.74950264,7.52376964,2.93872420,1.30517954,-0.84129910

>  <Name>
ligand

>  <RI>
0

>  <Rbt.Current_Directory>
/home/itssahil/PROJECTS/Mol_Feturizer/New_Systems/rnas/2b57

>  <Rbt.Executable>
rbdock ($Id: //depot/dev/client3/rdock/2013.1/src/exe/rbdock.cxx#4 $)

>  <Rbt.Library>
libRbt.so (2013.1, Build901 2013/11/27)

>  <Rbt.Parameter_File>
/export/apps/rDock/src/rDock_2013.1_src/data/scripts/dock_solv.prm

>  <Rbt.Receptor>
prm/blind_docking_100.prm

>  <SCORE>
-8.7985

>  <SCORE.INTER>
-8.7985

>  <SCORE.INTER.CONST>
1

>  <SCORE.INTER.POLAR>
0

>  <SCORE.INTER.ROT>
0

>  <SCORE.INTER.SOLV>
20.1186

>  <SCORE.INTER.VDW>
-16.1719

>  <SCORE.INTER.norm>
-0.799864

>  <SCORE.INTRA>
0

>  <SCORE.INTRA.DIHEDRAL>
0

>  <SCORE.INTRA.DIHEDRAL.0>
0

>  <SCORE.INTRA.POLAR>
0

>  <SCORE.INTRA.POLAR.0>
0

>  <SCORE.INTRA.REPUL>
0

>  <SCORE.INTRA.REPUL.0>
0

>  <SCORE.INTRA.SOLV>
0

>  <SCORE.INTRA.SOLV.lig_0>
-48.3454

>  <SCORE.INTRA.VDW>
0

>  <SCORE.INTRA.VDW.0>
0

>  <SCORE.INTRA.norm>
0

>  <SCORE.RESTR>
0

>  <SCORE.RESTR.CAVITY>
0

>  <SCORE.RESTR.norm>
0

>  <SCORE.SYSTEM>
0

>  <SCORE.SYSTEM.CONST>
0

>  <SCORE.SYSTEM.DIHEDRAL>
0

>  <SCORE.SYSTEM.SOLV>
0

>  <SCORE.SYSTEM.norm>
0

>  <SCORE.heavy>
11

>  <SCORE.norm>
-0.799864

>  <RMSD>
2.777

$$$$
ligand
 OpenBabel01301917033D
libRbt.so/2013.1/901 2013/11/27
 11 12  0  0  0  0  0  0  0  0999 V2000
  -11.9748  -11.8625    8.9935 N   0  0  0  0  0  0  0  0  0  0  0  0
  -12.0200  -11.0235    7.9463 C   0  0  0  0  0  0  0  0  0  0  0  0
  -12.3374   -9.7460    8.1367 N   0  0  0  0  0  0  0  0  0  0  0  0
  -11.7575  -11.4648    6.7063 N   0  0  0  0  0  0  0  0  0  0  0  0
  -11.4484  -12.7516    6.4887 C   0  0  0  0  0  0  0  0  0  0  0  0
  -11.3948  -13.6408    7.5546 C   0  0  0  0  0  0  0  0  0  0  0  0
  -11.6683  -13.1592    8.8305 C   0  0  0  0  0  0  0  0  0  0  0  0
  -11.6190  -13.9736    9.8805 N   0  0  0  0  0  0  0  0  0  0  0  0
  -11.0849  -14.8367    7.0628 N   0  0  0  0  0  0  0  0  0  0  0  0
  -10.9484  -14.7121    5.7446 C   0  0  0  0  0  0  0  0  0  0  0  0
  -11.1677  -13.4475    5.3907 N   0  0  0  0  0  0  0  0  0  0  0  0
  1  7  2  0  0  0  0
  1  2  1  0  0  0  0
  2  3  1  0  0  0  0
  2  4  2  0  0  0  0
  4  5  1  0  0  0  0
  5  6  2  0  0  0  0
  5 11  1  0  0  0  0
  6  7  1  0  0  0  0
  6  9  1  0  0  0  0
  7  8  1  0  0  0  0
  9 10  1  0  0  0  0
 10 11  2  0  0  0  0
M  END
>  <CHROM.1>
-11.58982865,-12.76450833,7.53582354,3.13283797,1.32343919,-1.04385965

>  <Name>
ligand

>  <RI>
0

>  <Rbt.Current_Directory>
/home/itssahil/PROJECTS/Mol_Feturizer/New_Systems/rnas/2b57

>  <Rbt.Executable>
rbdock ($Id: //depot/dev/client3/rdock/2013.1/src/exe/rbdock.cxx#4 $)

>  <Rbt.Library>
libRbt.so (2013.1, Build901 2013/11/27)

>  <Rbt.Parameter_File>
/export/apps/rDock/src/rDock_2013.1_src/data/scripts/dock_solv.prm

>  <Rbt.Receptor>
prm/blind_docking_40.prm

>  <SCORE>
-8.72573

>  <SCORE.INTER>
-8.72573

>  <SCORE.INTER.CONST>
1

>  <SCORE.INTER.POLAR>
0

>  <SCORE.INTER.ROT>
0

>  <SCORE.INTER.SOLV>
20.3756

>  <SCORE.INTER.VDW>
-16.209

>  <SCORE.INTER.norm>
-0.793248

>  <SCORE.INTRA>
0

>  <SCORE.INTRA.DIHEDRAL>
0

>  <SCORE.INTRA.DIHEDRAL.0>
0

>  <SCORE.INTRA.POLAR>
0

>  <SCORE.INTRA.POLAR.0>
0

>  <SCORE.INTRA.REPUL>
0

>  <SCORE.INTRA.REPUL.0>
0

>  <SCORE.INTRA.SOLV>
0

>  <SCORE.INTRA.SOLV.lig_0>
-48.3454

>  <SCORE.INTRA.VDW>
0

>  <SCORE.INTRA.VDW.0>
0

>  <SCORE.INTRA.norm>
0

>  <SCORE.RESTR>
0

>  <SCORE.RESTR.CAVITY>
0

>  <SCORE.RESTR.norm>
0

>  <SCORE.SYSTEM>
0

>  <SCORE.SYSTEM.CONST>
0

>  <SCORE.SYSTEM.DIHEDRAL>
0

>  <SCORE.SYSTEM.SOLV>
0

>  <SCORE.SYSTEM.norm>
0

>  <SCORE.heavy>
11

>  <SCORE.norm>
-0.793248

>  <RMSD>
2.778

$$$$
ligand
 OpenBabel01301917033D
libRbt.so/2013.1/901 2013/11/27
 11 12  0  0  0  0  0  0  0  0999 V2000
  -12.0306  -11.8577    8.9810 N   0  0  0  0  0  0  0  0  0  0  0  0
  -12.0225  -11.0107    7.9392 C   0  0  0  0  0  0  0  0  0  0  0  0
  -12.3274   -9.7298    8.1271 N   0  0  0  0  0  0  0  0  0  0  0  0
  -11.7191  -11.4473    6.7069 N   0  0  0  0  0  0  0  0  0  0  0  0
  -11.4216  -12.7372    6.4916 C   0  0  0  0  0  0  0  0  0  0  0  0
  -11.4228  -13.6347    7.5519 C   0  0  0  0  0  0  0  0  0  0  0  0
  -11.7379  -13.1579    8.8200 C   0  0  0  0  0  0  0  0  0  0  0  0
  -11.7416  -13.9803    9.8648 N   0  0  0  0  0  0  0  0  0  0  0  0
  -11.1124  -14.8317    7.0633 N   0  0  0  0  0  0  0  0  0  0  0  0
  -10.9233  -14.6999    5.7522 C   0  0  0  0  0  0  0  0  0  0  0  0
  -11.1094  -13.4296    5.3999 N   0  0  0  0  0  0  0  0  0  0  0  0
  1  7  2  0  0  0  0
  1  2  1  0  0  0  0
  2  3  1  0  0  0  0
  2  4  2  0  0  0  0
  4  5  1  0  0  0  0
  5  6  2  0  0  0  0
  5 11  1  0  0  0  0
  6  7  1  0  0  0  0
  6  9  1  0  0  0  0
  7  8  1  0  0  0  0
  9 10  1  0  0  0  0
 10 11  2  0  0  0  0
M  END
>  <CHROM.1>
-11.60349789,-12.75528970,7.53231313,2.97041558,1.31401857,-0.87918331

>  <Name>
ligand

>  <RI>
0

>  <Rbt.Current_Directory>
/home/itssahil/PROJECTS/Mol_Feturizer/New_Systems/rnas/2b57

>  <Rbt.Executable>
rbdock ($Id: //depot/dev/client3/rdock/2013.1/src/exe/rbdock.cxx#4 $)

>  <Rbt.Library>
libRbt.so (2013.1, Build901 2013/11/27)

>  <Rbt.Parameter_File>
/export/apps/rDock/src/rDock_2013.1_src/data/scripts/dock_solv.prm

>  <Rbt.Receptor>
prm/blind_docking_60.prm

>  <SCORE>
-8.77796

>  <SCORE.INTER>
-8.77796

>  <SCORE.INTER.CONST>
1

>  <SCORE.INTER.POLAR>
0

>  <SCORE.INTER.ROT>
0

>  <SCORE.INTER.SOLV>
20.2102

>  <SCORE.INTER.VDW>
-16.1887

>  <SCORE.INTER.norm>
-0.797996

>  <SCORE.INTRA>
0

>  <SCORE.INTRA.DIHEDRAL>
0

>  <SCORE.INTRA.DIHEDRAL.0>
0

>  <SCORE.INTRA.POLAR>
0

>  <SCORE.INTRA.POLAR.0>
0

>  <SCORE.INTRA.REPUL>
0

>  <SCORE.INTRA.REPUL.0>
0

>  <SCORE.INTRA.SOLV>
0

>  <SCORE.INTRA.SOLV.lig_0>
-48.3454

>  <SCORE.INTRA.VDW>
0

>  <SCORE.INTRA.VDW.0>
0

>  <SCORE.INTRA.norm>
0

>  <SCORE.RESTR>
0

>  <SCORE.RESTR.CAVITY>
0

>  <SCORE.RESTR.norm>
0

>  <SCORE.SYSTEM>
0

>  <SCORE.SYSTEM.CONST>
0

>  <SCORE.SYSTEM.DIHEDRAL>
0

>  <SCORE.SYSTEM.SOLV>
0

>  <SCORE.SYSTEM.norm>
0

>  <SCORE.heavy>
11

>  <SCORE.norm>
-0.797996

>  <RMSD>
2.778

$$$$
ligand
 OpenBabel01301917033D
libRbt.so/2013.1/901 2013/11/27
 11 12  0  0  0  0  0  0  0  0999 V2000
  -11.9540  -11.8528    8.9898 N   0  0  0  0  0  0  0  0  0  0  0  0
  -11.9660  -11.0022    7.9510 C   0  0  0  0  0  0  0  0  0  0  0  0
  -12.2523   -9.7189    8.1515 N   0  0  0  0  0  0  0  0  0  0  0  0
  -11.7016  -11.4374    6.7093 N   0  0  0  0  0  0  0  0  0  0  0  0
  -11.4235  -12.7295    6.4815 C   0  0  0  0  0  0  0  0  0  0  0  0
  -11.4046  -13.6308    7.5384 C   0  0  0  0  0  0  0  0  0  0  0  0
  -11.6794  -13.1553    8.8164 C   0  0  0  0  0  0  0  0  0  0  0  0
  -11.6626  -13.9815    9.8582 N   0  0  0  0  0  0  0  0  0  0  0  0
  -11.1204  -14.8292    7.0374 N   0  0  0  0  0  0  0  0  0  0  0  0
  -10.9664  -14.6946    5.7221 C   0  0  0  0  0  0  0  0  0  0  0  0
  -11.1491  -13.4212    5.3792 N   0  0  0  0  0  0  0  0  0  0  0  0
  1  7  2  0  0  0  0
  1  2  1  0  0  0  0
  2  3  1  0  0  0  0
  2  4  2  0  0  0  0
  4  5  1  0  0  0  0
  5  6  2  0  0  0  0
  5 11  1  0  0  0  0
  6  7  1  0  0  0  0
  6  9  1  0  0  0  0
  7  8  1  0  0  0  0
  9 10  1  0  0  0  0
 10 11  2  0  0  0  0
M  END
>  <CHROM.1>
-11.57664811,-12.74950686,7.52682310,3.03494917,1.33928989,-0.93835613

>  <Name>
ligand

>  <RI>
0

>  <Rbt.Current_Directory>
/home/itssahil/PROJECTS/Mol_Feturizer/New_Systems/rnas/2b57

>  <Rbt.Executable>
rbdock ($Id: //depot/dev/client3/rdock/2013.1/src/exe/rbdock.cxx#4 $)

>  <Rbt.Library>
libRbt.so (2013.1, Build901 2013/11/27)

>  <Rbt.Parameter_File>
/export/apps/rDock/src/rDock_2013.1_src/data/scripts/dock_solv.prm

>  <Rbt.Receptor>
prm/pocket_docking_6.prm

>  <SCORE>
-8.79802

>  <SCORE.INTER>
-8.79802

>  <SCORE.INTER.CONST>
1

>  <SCORE.INTER.POLAR>
0

>  <SCORE.INTER.ROT>
0

>  <SCORE.INTER.SOLV>
20.7126

>  <SCORE.INTER.VDW>
-16.3696

>  <SCORE.INTER.norm>
-0.79982

>  <SCORE.INTRA>
0

>  <SCORE.INTRA.DIHEDRAL>
0

>  <SCORE.INTRA.DIHEDRAL.0>
0

>  <SCORE.INTRA.POLAR>
0

>  <SCORE.INTRA.POLAR.0>
0

>  <SCORE.INTRA.REPUL>
0

>  <SCORE.INTRA.REPUL.0>
0

>  <SCORE.INTRA.SOLV>
0

>  <SCORE.INTRA.SOLV.lig_0>
-48.3454

>  <SCORE.INTRA.VDW>
0

>  <SCORE.INTRA.VDW.0>
0

>  <SCORE.INTRA.norm>
0

>  <SCORE.RESTR>
0

>  <SCORE.RESTR.CAVITY>
0

>  <SCORE.RESTR.norm>
0

>  <SCORE.SYSTEM>
0

>  <SCORE.SYSTEM.CONST>
0

>  <SCORE.SYSTEM.DIHEDRAL>
0

>  <SCORE.SYSTEM.SOLV>
0

>  <SCORE.SYSTEM.norm>
0

>  <SCORE.heavy>
11

>  <SCORE.norm>
-0.79982

>  <RMSD>
2.778

$$$$
ligand
 OpenBabel01301917033D
libRbt.so/2013.1/901 2013/11/27
 11 12  0  0  0  0  0  0  0  0999 V2000
  -12.0707  -11.8451    8.9766 N   0  0  0  0  0  0  0  0  0  0  0  0
  -12.0409  -10.9869    7.9444 C   0  0  0  0  0  0  0  0  0  0  0  0
  -12.3359   -9.7052    8.1425 N   0  0  0  0  0  0  0  0  0  0  0  0
  -11.7259  -11.4129    6.7114 N   0  0  0  0  0  0  0  0  0  0  0  0
  -11.4381  -12.7033    6.4856 C   0  0  0  0  0  0  0  0  0  0  0  0
  -11.4617  -13.6122    7.5359 C   0  0  0  0  0  0  0  0  0  0  0  0
  -11.7885  -13.1462    8.8050 C   0  0  0  0  0  0  0  0  0  0  0  0
  -11.8137  -13.9800    9.8406 N   0  0  0  0  0  0  0  0  0  0  0  0
  -11.1566  -14.8068    7.0381 N   0  0  0  0  0  0  0  0  0  0  0  0
  -10.9492  -14.6627    5.7312 C   0  0  0  0  0  0  0  0  0  0  0  0
  -11.1185  -13.3868    5.3905 N   0  0  0  0  0  0  0  0  0  0  0  0
  1  7  2  0  0  0  0
  1  2  1  0  0  0  0
  2  3  1  0  0  0  0
  2  4  2  0  0  0  0
  4  5  1  0  0  0  0
  5  6  2  0  0  0  0
  5 11  1  0  0  0  0
  6  7  1  0  0  0  0
  6  9  1  0  0  0  0
  7  8  1  0  0  0  0
  9 10  1  0  0  0  0
 10 11  2  0  0  0  0
M  END
>  <CHROM.1>
-11.63359267,-12.73096313,7.52372041,2.90729151,1.31271157,-0.80717394

>  <Name>
ligand

>  <RI>
0

>  <Rbt.Current_Directory>
/home/itssahil/PROJECTS/Mol_Feturizer/New_Systems/rnas/2b57

>  <Rbt.Executable>
rbdock ($Id: //depot/dev/client3/rdock/2013.1/src/exe/rbdock.cxx#4 $)

>  <Rbt.Library>
libRbt.so (2013.1, Build901 2013/11/27)

>  <Rbt.Parameter_File>
/export/apps/rDock/src/rDock_2013.1_src/data/scripts/dock_solv.prm

>  <Rbt.Receptor>
prm/pocket_docking_7.prm

>  <SCORE>
-8.80452

>  <SCORE.INTER>
-8.80452

>  <SCORE.INTER.CONST>
1

>  <SCORE.INTER.POLAR>
0

>  <SCORE.INTER.ROT>
0

>  <SCORE.INTER.SOLV>
20.0994

>  <SCORE.INTER.VDW>
-16.1695

>  <SCORE.INTER.norm>
-0.800411

>  <SCORE.INTRA>
0

>  <SCORE.INTRA.DIHEDRAL>
0

>  <SCORE.INTRA.DIHEDRAL.0>
0

>  <SCORE.INTRA.POLAR>
0

>  <SCORE.INTRA.POLAR.0>
0

>  <SCORE.INTRA.REPUL>
0

>  <SCORE.INTRA.REPUL.0>
0

>  <SCORE.INTRA.SOLV>
0

>  <SCORE.INTRA.SOLV.lig_0>
-48.3454

>  <SCORE.INTRA.VDW>
0

>  <SCORE.INTRA.VDW.0>
0

>  <SCORE.INTRA.norm>
0

>  <SCORE.RESTR>
0

>  <SCORE.RESTR.CAVITY>
0

>  <SCORE.RESTR.norm>
0

>  <SCORE.SYSTEM>
0

>  <SCORE.SYSTEM.CONST>
0

>  <SCORE.SYSTEM.DIHEDRAL>
0

>  <SCORE.SYSTEM.SOLV>
0

>  <SCORE.SYSTEM.norm>
0

>  <SCORE.heavy>
11

>  <SCORE.norm>
-0.800411

>  <RMSD>
2.779

$$$$
ligand
 OpenBabel01301917033D
libRbt.so/2013.1/901 2013/11/27
 11 12  0  0  0  0  0  0  0  0999 V2000
  -11.9527  -11.8485    8.9885 N   0  0  0  0  0  0  0  0  0  0  0  0
  -11.9600  -10.9987    7.9490 C   0  0  0  0  0  0  0  0  0  0  0  0
  -12.2418   -9.7142    8.1480 N   0  0  0  0  0  0  0  0  0  0  0  0
  -11.6953  -11.4360    6.7081 N   0  0  0  0  0  0  0  0  0  0  0  0
  -11.4217  -12.7294    6.4818 C   0  0  0  0  0  0  0  0  0  0  0  0
  -11.4077  -13.6297    7.5396 C   0  0  0  0  0  0  0  0  0  0  0  0
  -11.6827  -13.1521    8.8167 C   0  0  0  0  0  0  0  0  0  0  0  0
  -11.6706  -13.9774    9.8592 N   0  0  0  0  0  0  0  0  0  0  0  0
  -11.1272  -14.8296    7.0401 N   0  0  0  0  0  0  0  0  0  0  0  0
  -10.9707  -14.6968    5.7248 C   0  0  0  0  0  0  0  0  0  0  0  0
  -11.1481  -13.4230    5.3806 N   0  0  0  0  0  0  0  0  0  0  0  0
  1  7  2  0  0  0  0
  1  2  1  0  0  0  0
  2  3  1  0  0  0  0
  2  4  2  0  0  0  0
  4  5  1  0  0  0  0
  5  6  2  0  0  0  0
  5 11  1  0  0  0  0
  6  7  1  0  0  0  0
  6  9  1  0  0  0  0
  7  8  1  0  0  0  0
  9 10  1  0  0  0  0
 10 11  2  0  0  0  0
M  END
>  <CHROM.1>
-11.57646177,-12.74785088,7.52696032,3.01981296,1.34134883,-0.92449190

>  <Name>
ligand

>  <RI>
0

>  <Rbt.Current_Directory>
/home/itssahil/PROJECTS/Mol_Feturizer/New_Systems/rnas/2b57

>  <Rbt.Executable>
rbdock ($Id: //depot/dev/client3/rdock/2013.1/src/exe/rbdock.cxx#4 $)

>  <Rbt.Library>
libRbt.so (2013.1, Build901 2013/11/27)

>  <Rbt.Parameter_File>
/export/apps/rDock/src/rDock_2013.1_src/data/scripts/dock_solv.prm

>  <Rbt.Receptor>
prm/pocket_docking_8.prm

>  <SCORE>
-8.80309

>  <SCORE.INTER>
-8.80309

>  <SCORE.INTER.CONST>
1

>  <SCORE.INTER.POLAR>
0

>  <SCORE.INTER.ROT>
0

>  <SCORE.INTER.SOLV>
20.7404

>  <SCORE.INTER.VDW>
-16.3822

>  <SCORE.INTER.norm>
-0.800281

>  <SCORE.INTRA>
0

>  <SCORE.INTRA.DIHEDRAL>
0

>  <SCORE.INTRA.DIHEDRAL.0>
0

>  <SCORE.INTRA.POLAR>
0

>  <SCORE.INTRA.POLAR.0>
0

>  <SCORE.INTRA.REPUL>
0

>  <SCORE.INTRA.REPUL.0>
0

>  <SCORE.INTRA.SOLV>
0

>  <SCORE.INTRA.SOLV.lig_0>
-48.3454

>  <SCORE.INTRA.VDW>
0

>  <SCORE.INTRA.VDW.0>
0

>  <SCORE.INTRA.norm>
0

>  <SCORE.RESTR>
0

>  <SCORE.RESTR.CAVITY>
0

>  <SCORE.RESTR.norm>
0

>  <SCORE.SYSTEM>
0

>  <SCORE.SYSTEM.CONST>
0

>  <SCORE.SYSTEM.DIHEDRAL>
0

>  <SCORE.SYSTEM.SOLV>
0

>  <SCORE.SYSTEM.norm>
0

>  <SCORE.heavy>
11

>  <SCORE.norm>
-0.800281

>  <RMSD>
2.779

$$$$
ligand
 OpenBabel01301917033D
libRbt.so/2013.1/901 2013/11/27
 11 12  0  0  0  0  0  0  0  0999 V2000
  -11.9537  -11.8483    8.9869 N   0  0  0  0  0  0  0  0  0  0  0  0
  -11.9707  -11.0016    7.9451 C   0  0  0  0  0  0  0  0  0  0  0  0
  -12.2572   -9.7178    8.1420 N   0  0  0  0  0  0  0  0  0  0  0  0
  -11.7110  -11.4412    6.7039 N   0  0  0  0  0  0  0  0  0  0  0  0
  -11.4328  -12.7340    6.4798 C   0  0  0  0  0  0  0  0  0  0  0  0
  -11.4088  -13.6312    7.5400 C   0  0  0  0  0  0  0  0  0  0  0  0
  -11.6787  -13.1513    8.8173 C   0  0  0  0  0  0  0  0  0  0  0  0
  -11.6569  -13.9735    9.8621 N   0  0  0  0  0  0  0  0  0  0  0  0
  -11.1256  -14.8313    7.0423 N   0  0  0  0  0  0  0  0  0  0  0  0
  -10.9772  -14.7016    5.7258 C   0  0  0  0  0  0  0  0  0  0  0  0
  -11.1623  -13.4296    5.3790 N   0  0  0  0  0  0  0  0  0  0  0  0
  1  7  2  0  0  0  0
  1  2  1  0  0  0  0
  2  3  1  0  0  0  0
  2  4  2  0  0  0  0
  4  5  1  0  0  0  0
  5  6  2  0  0  0  0
  5 11  1  0  0  0  0
  6  7  1  0  0  0  0
  6  9  1  0  0  0  0
  7  8  1  0  0  0  0
  9 10  1  0  0  0  0
 10 11  2  0  0  0  0
M  END
>  <CHROM.1>
-11.58160634,-12.75019716,7.52580407,3.05168548,1.34101393,-0.95838197

>  <Name>
ligand

>  <RI>
0

>  <Rbt.Current_Directory>
/home/itssahil/PROJECTS/Mol_Feturizer/New_Systems/rnas/2b57

>  <Rbt.Executable>
rbdock ($Id: //depot/dev/client3/rdock/2013.1/src/exe/rbdock.cxx#4 $)

>  <Rbt.Library>
libRbt.so (2013.1, Build901 2013/11/27)

>  <Rbt.Parameter_File>
/export/apps/rDock/src/rDock_2013.1_src/data/scripts/dock_solv.prm

>  <Rbt.Receptor>
prm/blind_docking_100.prm

>  <SCORE>
-8.81928

>  <SCORE.INTER>
-8.81928

>  <SCORE.INTER.CONST>
1

>  <SCORE.INTER.POLAR>
0

>  <SCORE.INTER.ROT>
0

>  <SCORE.INTER.SOLV>
20.6777

>  <SCORE.INTER.VDW>
-16.3721

>  <SCORE.INTER.norm>
-0.801753

>  <SCORE.INTRA>
0

>  <SCORE.INTRA.DIHEDRAL>
0

>  <SCORE.INTRA.DIHEDRAL.0>
0

>  <SCORE.INTRA.POLAR>
0

>  <SCORE.INTRA.POLAR.0>
0

>  <SCORE.INTRA.REPUL>
0

>  <SCORE.INTRA.REPUL.0>
0

>  <SCORE.INTRA.SOLV>
0

>  <SCORE.INTRA.SOLV.lig_0>
-48.3454

>  <SCORE.INTRA.VDW>
0

>  <SCORE.INTRA.VDW.0>
0

>  <SCORE.INTRA.norm>
0

>  <SCORE.RESTR>
0

>  <SCORE.RESTR.CAVITY>
0

>  <SCORE.RESTR.norm>
0

>  <SCORE.SYSTEM>
0

>  <SCORE.SYSTEM.CONST>
0

>  <SCORE.SYSTEM.DIHEDRAL>
0

>  <SCORE.SYSTEM.SOLV>
0

>  <SCORE.SYSTEM.norm>
0

>  <SCORE.heavy>
11

>  <SCORE.norm>
-0.801753

>  <RMSD>
2.780

$$$$
ligand
 OpenBabel01301917033D
libRbt.so/2013.1/901 2013/11/27
 11 12  0  0  0  0  0  0  0  0999 V2000
  -11.9507  -11.8504    8.9869 N   0  0  0  0  0  0  0  0  0  0  0  0
  -11.9679  -11.0031    7.9455 C   0  0  0  0  0  0  0  0  0  0  0  0
  -12.2538   -9.7193    8.1433 N   0  0  0  0  0  0  0  0  0  0  0  0
  -11.7092  -11.4422    6.7040 N   0  0  0  0  0  0  0  0  0  0  0  0
  -11.4317  -12.7350    6.4790 C   0  0  0  0  0  0  0  0  0  0  0  0
  -11.4075  -13.6328    7.5387 C   0  0  0  0  0  0  0  0  0  0  0  0
  -11.6765  -13.1534    8.8164 C   0  0  0  0  0  0  0  0  0  0  0  0
  -11.6545  -13.9762    9.8607 N   0  0  0  0  0  0  0  0  0  0  0  0
  -11.1252  -14.8327    7.0402 N   0  0  0  0  0  0  0  0  0  0  0  0
  -10.9774  -14.7023    5.7237 C   0  0  0  0  0  0  0  0  0  0  0  0
  -11.1621  -13.4300    5.3777 N   0  0  0  0  0  0  0  0  0  0  0  0
  1  7  2  0  0  0  0
  1  2  1  0  0  0  0
  2  3  1  0  0  0  0
  2  4  2  0  0  0  0
  4  5  1  0  0  0  0
  5  6  2  0  0  0  0
  5 11  1  0  0  0  0
  6  7  1  0  0  0  0
  6  9  1  0  0  0  0
  7  8  1  0  0  0  0
  9 10  1  0  0  0  0
 10 11  2  0  0  0  0
M  END
>  <CHROM.1>
-11.57990011,-12.75164251,7.52507594,3.05253736,1.34171853,-0.95866722

>  <Name>
ligand

>  <RI>
0

>  <Rbt.Current_Directory>
/home/itssahil/PROJECTS/Mol_Feturizer/New_Systems/rnas/2b57

>  <Rbt.Executable>
rbdock ($Id: //depot/dev/client3/rdock/2013.1/src/exe/rbdock.cxx#4 $)

>  <Rbt.Library>
libRbt.so (2013.1, Build901 2013/11/27)

>  <Rbt.Parameter_File>
/export/apps/rDock/src/rDock_2013.1_src/data/scripts/dock_solv.prm

>  <Rbt.Receptor>
prm/blind_docking_100.prm

>  <SCORE>
-8.81623

>  <SCORE.INTER>
-8.81623

>  <SCORE.INTER.CONST>
1

>  <SCORE.INTER.POLAR>
0

>  <SCORE.INTER.ROT>
0

>  <SCORE.INTER.SOLV>
20.7007

>  <SCORE.INTER.VDW>
-16.3777

>  <SCORE.INTER.norm>
-0.801476

>  <SCORE.INTRA>
0

>  <SCORE.INTRA.DIHEDRAL>
0

>  <SCORE.INTRA.DIHEDRAL.0>
0

>  <SCORE.INTRA.POLAR>
0

>  <SCORE.INTRA.POLAR.0>
0

>  <SCORE.INTRA.REPUL>
0

>  <SCORE.INTRA.REPUL.0>
0

>  <SCORE.INTRA.SOLV>
0

>  <SCORE.INTRA.SOLV.lig_0>
-48.3454

>  <SCORE.INTRA.VDW>
0

>  <SCORE.INTRA.VDW.0>
0

>  <SCORE.INTRA.norm>
0

>  <SCORE.RESTR>
0

>  <SCORE.RESTR.CAVITY>
0

>  <SCORE.RESTR.norm>
0

>  <SCORE.SYSTEM>
0

>  <SCORE.SYSTEM.CONST>
0

>  <SCORE.SYSTEM.DIHEDRAL>
0

>  <SCORE.SYSTEM.SOLV>
0

>  <SCORE.SYSTEM.norm>
0

>  <SCORE.heavy>
11

>  <SCORE.norm>
-0.801476

>  <RMSD>
2.780

$$$$
ligand
 OpenBabel01301917033D
libRbt.so/2013.1/901 2013/11/27
 11 12  0  0  0  0  0  0  0  0999 V2000
  -12.0749  -11.8444    8.9777 N   0  0  0  0  0  0  0  0  0  0  0  0
  -12.0464  -10.9937    7.9393 C   0  0  0  0  0  0  0  0  0  0  0  0
  -12.3567   -9.7138    8.1253 N   0  0  0  0  0  0  0  0  0  0  0  0
  -11.7174  -11.4257    6.7120 N   0  0  0  0  0  0  0  0  0  0  0  0
  -11.4140  -12.7145    6.4983 C   0  0  0  0  0  0  0  0  0  0  0  0
  -11.4358  -13.6156    7.5552 C   0  0  0  0  0  0  0  0  0  0  0  0
  -11.7773  -13.1436    8.8182 C   0  0  0  0  0  0  0  0  0  0  0  0
  -11.8014  -13.9697    9.8599 N   0  0  0  0  0  0  0  0  0  0  0  0
  -11.1141  -14.8106    7.0689 N   0  0  0  0  0  0  0  0  0  0  0  0
  -10.8984  -14.6741    5.7625 C   0  0  0  0  0  0  0  0  0  0  0  0
  -11.0788  -13.4028    5.4108 N   0  0  0  0  0  0  0  0  0  0  0  0
  1  7  2  0  0  0  0
  1  2  1  0  0  0  0
  2  3  1  0  0  0  0
  2  4  2  0  0  0  0
  4  5  1  0  0  0  0
  5  6  2  0  0  0  0
  5 11  1  0  0  0  0
  6  7  1  0  0  0  0
  6  9  1  0  0  0  0
  7  8  1  0  0  0  0
  9 10  1  0  0  0  0
 10 11  2  0  0  0  0
M  END
>  <CHROM.1>
-11.61712219,-12.73642388,7.53500114,2.91447405,1.29965875,-0.82171329

>  <Name>
ligand

>  <RI>
0

>  <Rbt.Current_Directory>
/home/itssahil/PROJECTS/Mol_Feturizer/New_Systems/rnas/2b57

>  <Rbt.Executable>
rbdock ($Id: //depot/dev/client3/rdock/2013.1/src/exe/rbdock.cxx#4 $)

>  <Rbt.Library>
libRbt.so (2013.1, Build901 2013/11/27)

>  <Rbt.Parameter_File>
/export/apps/rDock/src/rDock_2013.1_src/data/scripts/dock_solv.prm

>  <Rbt.Receptor>
prm/blind_docking_80.prm

>  <SCORE>
-8.79043

>  <SCORE.INTER>
-8.79043

>  <SCORE.INTER.CONST>
1

>  <SCORE.INTER.POLAR>
0

>  <SCORE.INTER.ROT>
0

>  <SCORE.INTER.SOLV>
19.962

>  <SCORE.INTER.VDW>
-16.1143

>  <SCORE.INTER.norm>
-0.79913

>  <SCORE.INTRA>
0

>  <SCORE.INTRA.DIHEDRAL>
0

>  <SCORE.INTRA.DIHEDRAL.0>
0

>  <SCORE.INTRA.POLAR>
0

>  <SCORE.INTRA.POLAR.0>
0

>  <SCORE.INTRA.REPUL>
0

>  <SCORE.INTRA.REPUL.0>
0

>  <SCORE.INTRA.SOLV>
0

>  <SCORE.INTRA.SOLV.lig_0>
-48.3454

>  <SCORE.INTRA.VDW>
0

>  <SCORE.INTRA.VDW.0>
0

>  <SCORE.INTRA.norm>
0

>  <SCORE.RESTR>
0

>  <SCORE.RESTR.CAVITY>
0

>  <SCORE.RESTR.norm>
0

>  <SCORE.SYSTEM>
0

>  <SCORE.SYSTEM.CONST>
0

>  <SCORE.SYSTEM.DIHEDRAL>
0

>  <SCORE.SYSTEM.SOLV>
0

>  <SCORE.SYSTEM.norm>
0

>  <SCORE.heavy>
11

>  <SCORE.norm>
-0.79913

>  <RMSD>
2.780

$$$$
ligand
 OpenBabel01301917033D
libRbt.so/2013.1/901 2013/11/27
 11 12  0  0  0  0  0  0  0  0999 V2000
  -11.9679  -11.8489    8.9881 N   0  0  0  0  0  0  0  0  0  0  0  0
  -11.9790  -11.0052    7.9436 C   0  0  0  0  0  0  0  0  0  0  0  0
  -12.2722   -9.7220    8.1343 N   0  0  0  0  0  0  0  0  0  0  0  0
  -11.7068  -11.4474    6.7061 N   0  0  0  0  0  0  0  0  0  0  0  0
  -11.4217  -12.7398    6.4881 C   0  0  0  0  0  0  0  0  0  0  0  0
  -11.4035  -13.6338    7.5511 C   0  0  0  0  0  0  0  0  0  0  0  0
  -11.6865  -13.1512    8.8246 C   0  0  0  0  0  0  0  0  0  0  0  0
  -11.6707  -13.9704    9.8719 N   0  0  0  0  0  0  0  0  0  0  0  0
  -11.1115  -14.8342    7.0594 N   0  0  0  0  0  0  0  0  0  0  0  0
  -10.9519  -14.7077    5.7439 C   0  0  0  0  0  0  0  0  0  0  0  0
  -11.1389  -13.4374    5.3918 N   0  0  0  0  0  0  0  0  0  0  0  0
  1  7  2  0  0  0  0
  1  2  1  0  0  0  0
  2  3  1  0  0  0  0
  2  4  2  0  0  0  0
  4  5  1  0  0  0  0
  5  6  2  0  0  0  0
  5 11  1  0  0  0  0
  6  7  1  0  0  0  0
  6  9  1  0  0  0  0
  7  8  1  0  0  0  0
  9 10  1  0  0  0  0
 10 11  2  0  0  0  0
M  END
>  <CHROM.1>
-11.57959485,-12.75350297,7.53286833,3.03054225,1.33279213,-0.94070056

>  <Name>
ligand

>  <RI>
0

>  <Rbt.Current_Directory>
/home/itssahil/PROJECTS/Mol_Feturizer/New_Systems/rnas/2b57

>  <Rbt.Executable>
rbdock ($Id: //depot/dev/client3/rdock/2013.1/src/exe/rbdock.cxx#4 $)

>  <Rbt.Library>
libRbt.so (2013.1, Build901 2013/11/27)

>  <Rbt.Parameter_File>
/export/apps/rDock/src/rDock_2013.1_src/data/scripts/dock_solv.prm

>  <Rbt.Receptor>
prm/blind_docking_80.prm

>  <SCORE>
-8.79347

>  <SCORE.INTER>
-8.79347

>  <SCORE.INTER.CONST>
1

>  <SCORE.INTER.POLAR>
0

>  <SCORE.INTER.ROT>
0

>  <SCORE.INTER.SOLV>
20.5874

>  <SCORE.INTER.VDW>
-16.3248

>  <SCORE.INTER.norm>
-0.799406

>  <SCORE.INTRA>
0

>  <SCORE.INTRA.DIHEDRAL>
0

>  <SCORE.INTRA.DIHEDRAL.0>
0

>  <SCORE.INTRA.POLAR>
0

>  <SCORE.INTRA.POLAR.0>
0

>  <SCORE.INTRA.REPUL>
0

>  <SCORE.INTRA.REPUL.0>
0

>  <SCORE.INTRA.SOLV>
0

>  <SCORE.INTRA.SOLV.lig_0>
-48.3454

>  <SCORE.INTRA.VDW>
0

>  <SCORE.INTRA.VDW.0>
0

>  <SCORE.INTRA.norm>
0

>  <SCORE.RESTR>
0

>  <SCORE.RESTR.CAVITY>
0

>  <SCORE.RESTR.norm>
0

>  <SCORE.SYSTEM>
0

>  <SCORE.SYSTEM.CONST>
0

>  <SCORE.SYSTEM.DIHEDRAL>
0

>  <SCORE.SYSTEM.SOLV>
0

>  <SCORE.SYSTEM.norm>
0

>  <SCORE.heavy>
11

>  <SCORE.norm>
-0.799406

>  <RMSD>
2.780

$$$$
ligand
 OpenBabel01301917033D
libRbt.so/2013.1/901 2013/11/27
 11 12  0  0  0  0  0  0  0  0999 V2000
  -11.9433  -11.8550    8.9894 N   0  0  0  0  0  0  0  0  0  0  0  0
  -11.9582  -11.0119    7.9445 C   0  0  0  0  0  0  0  0  0  0  0  0
  -12.2310   -9.7247    8.1384 N   0  0  0  0  0  0  0  0  0  0  0  0
  -11.7102  -11.4586    6.7035 N   0  0  0  0  0  0  0  0  0  0  0  0
  -11.4460  -12.7548    6.4825 C   0  0  0  0  0  0  0  0  0  0  0  0
  -11.4245  -13.6484    7.5459 C   0  0  0  0  0  0  0  0  0  0  0  0
  -11.6821  -13.1611    8.8230 C   0  0  0  0  0  0  0  0  0  0  0  0
  -11.6622  -13.9797    9.8706 N   0  0  0  0  0  0  0  0  0  0  0  0
  -11.1560  -14.8530    7.0510 N   0  0  0  0  0  0  0  0  0  0  0  0
  -11.0141  -14.7295    5.7332 C   0  0  0  0  0  0  0  0  0  0  0  0
  -11.1888  -13.4570    5.3828 N   0  0  0  0  0  0  0  0  0  0  0  0
  1  7  2  0  0  0  0
  1  2  1  0  0  0  0
  2  3  1  0  0  0  0
  2  4  2  0  0  0  0
  4  5  1  0  0  0  0
  5  6  2  0  0  0  0
  5 11  1  0  0  0  0
  6  7  1  0  0  0  0
  6  9  1  0  0  0  0
  7  8  1  0  0  0  0
  9 10  1  0  0  0  0
 10 11  2  0  0  0  0
M  END
>  <CHROM.1>
-11.58872700,-12.76574511,7.52946466,3.04809985,1.35243579,-0.95855761

>  <Name>
ligand

>  <RI>
0

>  <Rbt.Current_Directory>
/home/itssahil/PROJECTS/Mol_Feturizer/New_Systems/rnas/2b57

>  <Rbt.Executable>
rbdock ($Id: //depot/dev/client3/rdock/2013.1/src/exe/rbdock.cxx#4 $)

>  <Rbt.Library>
libRbt.so (2013.1, Build901 2013/11/27)

>  <Rbt.Parameter_File>
/export/apps/rDock/src/rDock_2013.1_src/data/scripts/dock_solv.prm

>  <Rbt.Receptor>
prm/blind_docking_80.prm

>  <SCORE>
-8.7732

>  <SCORE.INTER>
-8.7732

>  <SCORE.INTER.CONST>
1

>  <SCORE.INTER.POLAR>
0

>  <SCORE.INTER.ROT>
0

>  <SCORE.INTER.SOLV>
20.839

>  <SCORE.INTER.VDW>
-16.3951

>  <SCORE.INTER.norm>
-0.797563

>  <SCORE.INTRA>
0

>  <SCORE.INTRA.DIHEDRAL>
0

>  <SCORE.INTRA.DIHEDRAL.0>
0

>  <SCORE.INTRA.POLAR>
0

>  <SCORE.INTRA.POLAR.0>
0

>  <SCORE.INTRA.REPUL>
0

>  <SCORE.INTRA.REPUL.0>
0

>  <SCORE.INTRA.SOLV>
0

>  <SCORE.INTRA.SOLV.lig_0>
-48.3454

>  <SCORE.INTRA.VDW>
0

>  <SCORE.INTRA.VDW.0>
0

>  <SCORE.INTRA.norm>
0

>  <SCORE.RESTR>
0

>  <SCORE.RESTR.CAVITY>
0

>  <SCORE.RESTR.norm>
0

>  <SCORE.SYSTEM>
0

>  <SCORE.SYSTEM.CONST>
0

>  <SCORE.SYSTEM.DIHEDRAL>
0

>  <SCORE.SYSTEM.SOLV>
0

>  <SCORE.SYSTEM.norm>
0

>  <SCORE.heavy>
11

>  <SCORE.norm>
-0.797563

>  <RMSD>
2.780

$$$$
ligand
 OpenBabel01301917033D
libRbt.so/2013.1/901 2013/11/27
 11 12  0  0  0  0  0  0  0  0999 V2000
  -11.9699  -11.8414    8.9926 N   0  0  0  0  0  0  0  0  0  0  0  0
  -11.9805  -10.9940    7.9512 C   0  0  0  0  0  0  0  0  0  0  0  0
  -12.2680   -9.7102    8.1473 N   0  0  0  0  0  0  0  0  0  0  0  0
  -11.7135  -11.4328    6.7114 N   0  0  0  0  0  0  0  0  0  0  0  0
  -11.4342  -12.7255    6.4880 C   0  0  0  0  0  0  0  0  0  0  0  0
  -11.4167  -13.6234    7.5477 C   0  0  0  0  0  0  0  0  0  0  0  0
  -11.6941  -13.1443    8.8237 C   0  0  0  0  0  0  0  0  0  0  0  0
  -11.6788  -13.9672    9.8680 N   0  0  0  0  0  0  0  0  0  0  0  0
  -11.1308  -14.8232    7.0509 N   0  0  0  0  0  0  0  0  0  0  0  0
  -10.9744  -14.6926    5.7354 C   0  0  0  0  0  0  0  0  0  0  0  0
  -11.1572  -13.4203    5.3884 N   0  0  0  0  0  0  0  0  0  0  0  0
  1  7  2  0  0  0  0
  1  2  1  0  0  0  0
  2  3  1  0  0  0  0
  2  4  2  0  0  0  0
  4  5  1  0  0  0  0
  5  6  2  0  0  0  0
  5 11  1  0  0  0  0
  6  7  1  0  0  0  0
  6  9  1  0  0  0  0
  7  8  1  0  0  0  0
  9 10  1  0  0  0  0
 10 11  2  0  0  0  0
M  END
>  <CHROM.1>
-11.58923219,-12.74233069,7.53310936,3.02996083,1.33766655,-0.93655086

>  <Name>
ligand

>  <RI>
0

>  <Rbt.Current_Directory>
/home/itssahil/PROJECTS/Mol_Feturizer/New_Systems/rnas/2b57

>  <Rbt.Executable>
rbdock ($Id: //depot/dev/client3/rdock/2013.1/src/exe/rbdock.cxx#4 $)

>  <Rbt.Library>
libRbt.so (2013.1, Build901 2013/11/27)

>  <Rbt.Parameter_File>
/export/apps/rDock/src/rDock_2013.1_src/data/scripts/dock_solv.prm

>  <Rbt.Receptor>
prm/blind_docking_80.prm

>  <SCORE>
-8.79144

>  <SCORE.INTER>
-8.79144

>  <SCORE.INTER.CONST>
1

>  <SCORE.INTER.POLAR>
0

>  <SCORE.INTER.ROT>
0

>  <SCORE.INTER.SOLV>
20.6156

>  <SCORE.INTER.VDW>
-16.3328

>  <SCORE.INTER.norm>
-0.799222

>  <SCORE.INTRA>
0

>  <SCORE.INTRA.DIHEDRAL>
0

>  <SCORE.INTRA.DIHEDRAL.0>
0

>  <SCORE.INTRA.POLAR>
0

>  <SCORE.INTRA.POLAR.0>
0

>  <SCORE.INTRA.REPUL>
0

>  <SCORE.INTRA.REPUL.0>
0

>  <SCORE.INTRA.SOLV>
0

>  <SCORE.INTRA.SOLV.lig_0>
-48.3454

>  <SCORE.INTRA.VDW>
0

>  <SCORE.INTRA.VDW.0>
0

>  <SCORE.INTRA.norm>
0

>  <SCORE.RESTR>
0

>  <SCORE.RESTR.CAVITY>
0

>  <SCORE.RESTR.norm>
0

>  <SCORE.SYSTEM>
0

>  <SCORE.SYSTEM.CONST>
0

>  <SCORE.SYSTEM.DIHEDRAL>
0

>  <SCORE.SYSTEM.SOLV>
0

>  <SCORE.SYSTEM.norm>
0

>  <SCORE.heavy>
11

>  <SCORE.norm>
-0.799222

>  <RMSD>
2.780

$$$$
ligand
 OpenBabel01301917033D
libRbt.so/2013.1/901 2013/11/27
 11 12  0  0  0  0  0  0  0  0999 V2000
  -11.9732  -11.8464    8.9911 N   0  0  0  0  0  0  0  0  0  0  0  0
  -11.9859  -11.0045    7.9452 C   0  0  0  0  0  0  0  0  0  0  0  0
  -12.2826   -9.7217    8.1336 N   0  0  0  0  0  0  0  0  0  0  0  0
  -11.7117  -11.4480    6.7086 N   0  0  0  0  0  0  0  0  0  0  0  0
  -11.4231  -12.7399    6.4930 C   0  0  0  0  0  0  0  0  0  0  0  0
  -11.4032  -13.6322    7.5574 C   0  0  0  0  0  0  0  0  0  0  0  0
  -11.6882  -13.1482    8.8299 C   0  0  0  0  0  0  0  0  0  0  0  0
  -11.6709  -13.9656    9.8786 N   0  0  0  0  0  0  0  0  0  0  0  0
  -11.1076  -14.8326    7.0679 N   0  0  0  0  0  0  0  0  0  0  0  0
  -10.9477  -14.7078    5.7523 C   0  0  0  0  0  0  0  0  0  0  0  0
  -11.1377  -13.4386    5.3980 N   0  0  0  0  0  0  0  0  0  0  0  0
  1  7  2  0  0  0  0
  1  2  1  0  0  0  0
  2  3  1  0  0  0  0
  2  4  2  0  0  0  0
  4  5  1  0  0  0  0
  5  6  2  0  0  0  0
  5 11  1  0  0  0  0
  6  7  1  0  0  0  0
  6  9  1  0  0  0  0
  7  8  1  0  0  0  0
  9 10  1  0  0  0  0
 10 11  2  0  0  0  0
M  END
>  <CHROM.1>
-11.58158487,-12.75233970,7.53761437,3.03501481,1.33028955,-0.94669822

>  <Name>
ligand

>  <RI>
0

>  <Rbt.Current_Directory>
/home/itssahil/PROJECTS/Mol_Feturizer/New_Systems/rnas/2b57

>  <Rbt.Executable>
rbdock ($Id: //depot/dev/client3/rdock/2013.1/src/exe/rbdock.cxx#4 $)

>  <Rbt.Library>
libRbt.so (2013.1, Build901 2013/11/27)

>  <Rbt.Parameter_File>
/export/apps/rDock/src/rDock_2013.1_src/data/scripts/dock_solv.prm

>  <Rbt.Receptor>
prm/pocket_docking_4.prm

>  <SCORE>
-8.79732

>  <SCORE.INTER>
-8.79732

>  <SCORE.INTER.CONST>
1

>  <SCORE.INTER.POLAR>
0

>  <SCORE.INTER.ROT>
0

>  <SCORE.INTER.SOLV>
20.5451

>  <SCORE.INTER.VDW>
-16.3133

>  <SCORE.INTER.norm>
-0.799756

>  <SCORE.INTRA>
0

>  <SCORE.INTRA.DIHEDRAL>
0

>  <SCORE.INTRA.DIHEDRAL.0>
0

>  <SCORE.INTRA.POLAR>
0

>  <SCORE.INTRA.POLAR.0>
0

>  <SCORE.INTRA.REPUL>
0

>  <SCORE.INTRA.REPUL.0>
0

>  <SCORE.INTRA.SOLV>
0

>  <SCORE.INTRA.SOLV.lig_0>
-48.3454

>  <SCORE.INTRA.VDW>
0

>  <SCORE.INTRA.VDW.0>
0

>  <SCORE.INTRA.norm>
0

>  <SCORE.RESTR>
0

>  <SCORE.RESTR.CAVITY>
0

>  <SCORE.RESTR.norm>
0

>  <SCORE.SYSTEM>
0

>  <SCORE.SYSTEM.CONST>
0

>  <SCORE.SYSTEM.DIHEDRAL>
0

>  <SCORE.SYSTEM.SOLV>
0

>  <SCORE.SYSTEM.norm>
0

>  <SCORE.heavy>
11

>  <SCORE.norm>
-0.799756

>  <RMSD>
2.780

$$$$
ligand
 OpenBabel01301917033D
libRbt.so/2013.1/901 2013/11/27
 11 12  0  0  0  0  0  0  0  0999 V2000
  -12.0697  -11.8394    8.9808 N   0  0  0  0  0  0  0  0  0  0  0  0
  -12.0481  -10.9838    7.9463 C   0  0  0  0  0  0  0  0  0  0  0  0
  -12.3506   -9.7035    8.1418 N   0  0  0  0  0  0  0  0  0  0  0  0
  -11.7337  -11.4111    6.7136 N   0  0  0  0  0  0  0  0  0  0  0  0
  -11.4383  -12.7002    6.4904 C   0  0  0  0  0  0  0  0  0  0  0  0
  -11.4534  -13.6065    7.5431 C   0  0  0  0  0  0  0  0  0  0  0  0
  -11.7797  -13.1392    8.8119 C   0  0  0  0  0  0  0  0  0  0  0  0
  -11.7968  -13.9703    9.8497 N   0  0  0  0  0  0  0  0  0  0  0  0
  -11.1421  -14.8005    7.0477 N   0  0  0  0  0  0  0  0  0  0  0  0
  -10.9392  -14.6584    5.7398 C   0  0  0  0  0  0  0  0  0  0  0  0
  -11.1175  -13.3846    5.3962 N   0  0  0  0  0  0  0  0  0  0  0  0
  1  7  2  0  0  0  0
  1  2  1  0  0  0  0
  2  3  1  0  0  0  0
  2  4  2  0  0  0  0
  4  5  1  0  0  0  0
  5  6  2  0  0  0  0
  5 11  1  0  0  0  0
  6  7  1  0  0  0  0
  6  9  1  0  0  0  0
  7  8  1  0  0  0  0
  9 10  1  0  0  0  0
 10 11  2  0  0  0  0
M  END
>  <CHROM.1>
-11.63088976,-12.72636391,7.52909535,2.93178827,1.30995102,-0.83348642

>  <Name>
ligand

>  <RI>
0

>  <Rbt.Current_Directory>
/home/itssahil/PROJECTS/Mol_Feturizer/New_Systems/rnas/2b57

>  <Rbt.Executable>
rbdock ($Id: //depot/dev/client3/rdock/2013.1/src/exe/rbdock.cxx#4 $)

>  <Rbt.Library>
libRbt.so (2013.1, Build901 2013/11/27)

>  <Rbt.Parameter_File>
/export/apps/rDock/src/rDock_2013.1_src/data/scripts/dock_solv.prm

>  <Rbt.Receptor>
prm/pocket_docking_6.prm

>  <SCORE>
-8.81099

>  <SCORE.INTER>
-8.81099

>  <SCORE.INTER.CONST>
1

>  <SCORE.INTER.POLAR>
0

>  <SCORE.INTER.ROT>
0

>  <SCORE.INTER.SOLV>
20.0285

>  <SCORE.INTER.VDW>
-16.1502

>  <SCORE.INTER.norm>
-0.800999

>  <SCORE.INTRA>
0

>  <SCORE.INTRA.DIHEDRAL>
0

>  <SCORE.INTRA.DIHEDRAL.0>
0

>  <SCORE.INTRA.POLAR>
0

>  <SCORE.INTRA.POLAR.0>
0

>  <SCORE.INTRA.REPUL>
0

>  <SCORE.INTRA.REPUL.0>
0

>  <SCORE.INTRA.SOLV>
0

>  <SCORE.INTRA.SOLV.lig_0>
-48.3454

>  <SCORE.INTRA.VDW>
0

>  <SCORE.INTRA.VDW.0>
0

>  <SCORE.INTRA.norm>
0

>  <SCORE.RESTR>
0

>  <SCORE.RESTR.CAVITY>
0

>  <SCORE.RESTR.norm>
0

>  <SCORE.SYSTEM>
0

>  <SCORE.SYSTEM.CONST>
0

>  <SCORE.SYSTEM.DIHEDRAL>
0

>  <SCORE.SYSTEM.SOLV>
0

>  <SCORE.SYSTEM.norm>
0

>  <SCORE.heavy>
11

>  <SCORE.norm>
-0.800999

>  <RMSD>
2.780

$$$$
ligand
 OpenBabel01301917033D
libRbt.so/2013.1/901 2013/11/27
 11 12  0  0  0  0  0  0  0  0999 V2000
  -12.0757  -11.8402    8.9773 N   0  0  0  0  0  0  0  0  0  0  0  0
  -12.0458  -10.9881    7.9401 C   0  0  0  0  0  0  0  0  0  0  0  0
  -12.3510   -9.7073    8.1286 N   0  0  0  0  0  0  0  0  0  0  0  0
  -11.7205  -11.4193    6.7116 N   0  0  0  0  0  0  0  0  0  0  0  0
  -11.4222  -12.7090    6.4954 C   0  0  0  0  0  0  0  0  0  0  0  0
  -11.4457  -13.6117    7.5510 C   0  0  0  0  0  0  0  0  0  0  0  0
  -11.7833  -13.1403    8.8154 C   0  0  0  0  0  0  0  0  0  0  0  0
  -11.8088  -13.9679    9.8558 N   0  0  0  0  0  0  0  0  0  0  0  0
  -11.1293  -14.8071    7.0624 N   0  0  0  0  0  0  0  0  0  0  0  0
  -10.9152  -14.6694    5.7558 C   0  0  0  0  0  0  0  0  0  0  0  0
  -11.0914  -13.3969    5.4064 N   0  0  0  0  0  0  0  0  0  0  0  0
  1  7  2  0  0  0  0
  1  2  1  0  0  0  0
  2  3  1  0  0  0  0
  2  4  2  0  0  0  0
  4  5  1  0  0  0  0
  5  6  2  0  0  0  0
  5 11  1  0  0  0  0
  6  7  1  0  0  0  0
  6  9  1  0  0  0  0
  7  8  1  0  0  0  0
  9 10  1  0  0  0  0
 10 11  2  0  0  0  0
M  END
>  <CHROM.1>
-11.62373289,-12.73173627,7.53247944,2.90945617,1.30353463,-0.81535144

>  <Name>
ligand

>  <RI>
0

>  <Rbt.Current_Directory>
/home/itssahil/PROJECTS/Mol_Feturizer/New_Systems/rnas/2b57

>  <Rbt.Executable>
rbdock ($Id: //depot/dev/client3/rdock/2013.1/src/exe/rbdock.cxx#4 $)

>  <Rbt.Library>
libRbt.so (2013.1, Build901 2013/11/27)

>  <Rbt.Parameter_File>
/export/apps/rDock/src/rDock_2013.1_src/data/scripts/dock_solv.prm

>  <Rbt.Receptor>
prm/pocket_docking_7.prm

>  <SCORE>
-8.79363

>  <SCORE.INTER>
-8.79363

>  <SCORE.INTER.CONST>
1

>  <SCORE.INTER.POLAR>
0

>  <SCORE.INTER.ROT>
0

>  <SCORE.INTER.SOLV>
19.983

>  <SCORE.INTER.VDW>
-16.1234

>  <SCORE.INTER.norm>
-0.799421

>  <SCORE.INTRA>
0

>  <SCORE.INTRA.DIHEDRAL>
0

>  <SCORE.INTRA.DIHEDRAL.0>
0

>  <SCORE.INTRA.POLAR>
0

>  <SCORE.INTRA.POLAR.0>
0

>  <SCORE.INTRA.REPUL>
0

>  <SCORE.INTRA.REPUL.0>
0

>  <SCORE.INTRA.SOLV>
0

>  <SCORE.INTRA.SOLV.lig_0>
-48.3454

>  <SCORE.INTRA.VDW>
0

>  <SCORE.INTRA.VDW.0>
0

>  <SCORE.INTRA.norm>
0

>  <SCORE.RESTR>
0

>  <SCORE.RESTR.CAVITY>
0

>  <SCORE.RESTR.norm>
0

>  <SCORE.SYSTEM>
0

>  <SCORE.SYSTEM.CONST>
0

>  <SCORE.SYSTEM.DIHEDRAL>
0

>  <SCORE.SYSTEM.SOLV>
0

>  <SCORE.SYSTEM.norm>
0

>  <SCORE.heavy>
11

>  <SCORE.norm>
-0.799421

>  <RMSD>
2.780

$$$$
ligand
 OpenBabel01301917033D
libRbt.so/2013.1/901 2013/11/27
 11 12  0  0  0  0  0  0  0  0999 V2000
  -12.0408  -11.8589    8.9597 N   0  0  0  0  0  0  0  0  0  0  0  0
  -12.0378  -11.0083    7.9209 C   0  0  0  0  0  0  0  0  0  0  0  0
  -12.3401   -9.7277    8.1150 N   0  0  0  0  0  0  0  0  0  0  0  0
  -11.7424  -11.4409    6.6853 N   0  0  0  0  0  0  0  0  0  0  0  0
  -11.4477  -12.7305    6.4636 C   0  0  0  0  0  0  0  0  0  0  0  0
  -11.4437  -13.6316    7.5208 C   0  0  0  0  0  0  0  0  0  0  0  0
  -11.7506  -13.1589    8.7924 C   0  0  0  0  0  0  0  0  0  0  0  0
  -11.7491  -13.9850    9.8344 N   0  0  0  0  0  0  0  0  0  0  0  0
  -11.1377  -14.8273    7.0262 N   0  0  0  0  0  0  0  0  0  0  0  0
  -10.9563  -14.6912    5.7145 C   0  0  0  0  0  0  0  0  0  0  0  0
  -11.1429  -13.4195    5.3677 N   0  0  0  0  0  0  0  0  0  0  0  0
  1  7  2  0  0  0  0
  1  2  1  0  0  0  0
  2  3  1  0  0  0  0
  2  4  2  0  0  0  0
  4  5  1  0  0  0  0
  5  6  2  0  0  0  0
  5 11  1  0  0  0  0
  6  7  1  0  0  0  0
  6  9  1  0  0  0  0
  7  8  1  0  0  0  0
  9 10  1  0  0  0  0
 10 11  2  0  0  0  0
M  END
>  <CHROM.1>
-11.62342858,-12.75197735,7.50539862,2.98576717,1.31875528,-0.89055286

>  <Name>
ligand

>  <RI>
0

>  <Rbt.Current_Directory>
/home/itssahil/PROJECTS/Mol_Feturizer/New_Systems/rnas/2b57

>  <Rbt.Executable>
rbdock ($Id: //depot/dev/client3/rdock/2013.1/src/exe/rbdock.cxx#4 $)

>  <Rbt.Library>
libRbt.so (2013.1, Build901 2013/11/27)

>  <Rbt.Parameter_File>
/export/apps/rDock/src/rDock_2013.1_src/data/scripts/dock_solv.prm

>  <Rbt.Receptor>
prm/pocket_docking_8.prm

>  <SCORE>
-8.73396

>  <SCORE.INTER>
-8.73396

>  <SCORE.INTER.CONST>
1

>  <SCORE.INTER.POLAR>
0

>  <SCORE.INTER.ROT>
0

>  <SCORE.INTER.SOLV>
20.0751

>  <SCORE.INTER.VDW>
-16.1143

>  <SCORE.INTER.norm>
-0.793996

>  <SCORE.INTRA>
0

>  <SCORE.INTRA.DIHEDRAL>
0

>  <SCORE.INTRA.DIHEDRAL.0>
0

>  <SCORE.INTRA.POLAR>
0

>  <SCORE.INTRA.POLAR.0>
0

>  <SCORE.INTRA.REPUL>
0

>  <SCORE.INTRA.REPUL.0>
0

>  <SCORE.INTRA.SOLV>
0

>  <SCORE.INTRA.SOLV.lig_0>
-48.3454

>  <SCORE.INTRA.VDW>
0

>  <SCORE.INTRA.VDW.0>
0

>  <SCORE.INTRA.norm>
0

>  <SCORE.RESTR>
0

>  <SCORE.RESTR.CAVITY>
0

>  <SCORE.RESTR.norm>
0

>  <SCORE.SYSTEM>
0

>  <SCORE.SYSTEM.CONST>
0

>  <SCORE.SYSTEM.DIHEDRAL>
0

>  <SCORE.SYSTEM.SOLV>
0

>  <SCORE.SYSTEM.norm>
0

>  <SCORE.heavy>
11

>  <SCORE.norm>
-0.793996

>  <RMSD>
2.780

$$$$
ligand
 OpenBabel01301917033D
libRbt.so/2013.1/901 2013/11/27
 11 12  0  0  0  0  0  0  0  0999 V2000
  -12.0387  -11.8236    8.9635 N   0  0  0  0  0  0  0  0  0  0  0  0
  -12.0132  -10.9729    7.9251 C   0  0  0  0  0  0  0  0  0  0  0  0
  -12.3044   -9.6892    8.1157 N   0  0  0  0  0  0  0  0  0  0  0  0
  -11.7063  -11.4084    6.6933 N   0  0  0  0  0  0  0  0  0  0  0  0
  -11.4225  -12.7009    6.4751 C   0  0  0  0  0  0  0  0  0  0  0  0
  -11.4418  -13.6023    7.5319 C   0  0  0  0  0  0  0  0  0  0  0  0
  -11.7602  -13.1265    8.7996 C   0  0  0  0  0  0  0  0  0  0  0  0
  -11.7811  -13.9529    9.8412 N   0  0  0  0  0  0  0  0  0  0  0  0
  -11.1421  -14.8011    7.0409 N   0  0  0  0  0  0  0  0  0  0  0  0
  -10.9422  -14.6666    5.7317 C   0  0  0  0  0  0  0  0  0  0  0  0
  -11.1108  -13.3929    5.3830 N   0  0  0  0  0  0  0  0  0  0  0  0
  1  7  2  0  0  0  0
  1  2  1  0  0  0  0
  2  3  1  0  0  0  0
  2  4  2  0  0  0  0
  4  5  1  0  0  0  0
  5  6  2  0  0  0  0
  5 11  1  0  0  0  0
  6  7  1  0  0  0  0
  6  9  1  0  0  0  0
  7  8  1  0  0  0  0
  9 10  1  0  0  0  0
 10 11  2  0  0  0  0
M  END
>  <CHROM.1>
-11.61196700,-12.72076714,7.51444476,2.91846607,1.31826111,-0.82511007

>  <Name>
ligand

>  <RI>
0

>  <Rbt.Current_Directory>
/home/itssahil/PROJECTS/Mol_Feturizer/New_Systems/rnas/2b57

>  <Rbt.Executable>
rbdock ($Id: //depot/dev/client3/rdock/2013.1/src/exe/rbdock.cxx#4 $)

>  <Rbt.Library>
libRbt.so (2013.1, Build901 2013/11/27)

>  <Rbt.Parameter_File>
/export/apps/rDock/src/rDock_2013.1_src/data/scripts/dock_solv.prm

>  <Rbt.Receptor>
prm/blind_docking_100.prm

>  <SCORE>
-8.7754

>  <SCORE.INTER>
-8.7754

>  <SCORE.INTER.CONST>
1

>  <SCORE.INTER.POLAR>
0

>  <SCORE.INTER.ROT>
0

>  <SCORE.INTER.SOLV>
20.1454

>  <SCORE.INTER.VDW>
-16.1654

>  <SCORE.INTER.norm>
-0.797763

>  <SCORE.INTRA>
0

>  <SCORE.INTRA.DIHEDRAL>
0

>  <SCORE.INTRA.DIHEDRAL.0>
0

>  <SCORE.INTRA.POLAR>
0

>  <SCORE.INTRA.POLAR.0>
0

>  <SCORE.INTRA.REPUL>
0

>  <SCORE.INTRA.REPUL.0>
0

>  <SCORE.INTRA.SOLV>
0

>  <SCORE.INTRA.SOLV.lig_0>
-48.3454

>  <SCORE.INTRA.VDW>
0

>  <SCORE.INTRA.VDW.0>
0

>  <SCORE.INTRA.norm>
0

>  <SCORE.RESTR>
0

>  <SCORE.RESTR.CAVITY>
0

>  <SCORE.RESTR.norm>
0

>  <SCORE.SYSTEM>
0

>  <SCORE.SYSTEM.CONST>
0

>  <SCORE.SYSTEM.DIHEDRAL>
0

>  <SCORE.SYSTEM.SOLV>
0

>  <SCORE.SYSTEM.norm>
0

>  <SCORE.heavy>
11

>  <SCORE.norm>
-0.797763

>  <RMSD>
2.784

$$$$
ligand
 OpenBabel01301917033D
libRbt.so/2013.1/901 2013/11/27
 11 12  0  0  0  0  0  0  0  0999 V2000
  -12.0593  -11.8210    8.9537 N   0  0  0  0  0  0  0  0  0  0  0  0
  -12.0108  -10.9763    7.9111 C   0  0  0  0  0  0  0  0  0  0  0  0
  -12.3018   -9.6907    8.0887 N   0  0  0  0  0  0  0  0  0  0  0  0
  -11.6811  -11.4198    6.6881 N   0  0  0  0  0  0  0  0  0  0  0  0
  -11.3969  -12.7144    6.4829 C   0  0  0  0  0  0  0  0  0  0  0  0
  -11.4397  -13.6096    7.5443 C   0  0  0  0  0  0  0  0  0  0  0  0
  -11.7815  -13.1256    8.8027 C   0  0  0  0  0  0  0  0  0  0  0  0
  -11.8253  -13.9458    9.8484 N   0  0  0  0  0  0  0  0  0  0  0  0
  -11.1340  -14.8121    7.0661 N   0  0  0  0  0  0  0  0  0  0  0  0
  -10.9080  -14.6858    5.7604 C   0  0  0  0  0  0  0  0  0  0  0  0
  -11.0659  -13.4136    5.4011 N   0  0  0  0  0  0  0  0  0  0  0  0
  1  7  2  0  0  0  0
  1  2  1  0  0  0  0
  2  3  1  0  0  0  0
  2  4  2  0  0  0  0
  4  5  1  0  0  0  0
  5  6  2  0  0  0  0
  5 11  1  0  0  0  0
  6  7  1  0  0  0  0
  6  9  1  0  0  0  0
  7  8  1  0  0  0  0
  9 10  1  0  0  0  0
 10 11  2  0  0  0  0
M  END
>  <CHROM.1>
-11.60681337,-12.72771849,7.51846571,2.85539585,1.30663502,-0.76988310

>  <Name>
ligand

>  <RI>
0

>  <Rbt.Current_Directory>
/home/itssahil/PROJECTS/Mol_Feturizer/New_Systems/rnas/2b57

>  <Rbt.Executable>
rbdock ($Id: //depot/dev/client3/rdock/2013.1/src/exe/rbdock.cxx#4 $)

>  <Rbt.Library>
libRbt.so (2013.1, Build901 2013/11/27)

>  <Rbt.Parameter_File>
/export/apps/rDock/src/rDock_2013.1_src/data/scripts/dock_solv.prm

>  <Rbt.Receptor>
prm/blind_docking_100.prm

>  <SCORE>
-8.7851

>  <SCORE.INTER>
-8.7851

>  <SCORE.INTER.CONST>
1

>  <SCORE.INTER.POLAR>
0

>  <SCORE.INTER.ROT>
0

>  <SCORE.INTER.SOLV>
20.0331

>  <SCORE.INTER.VDW>
-16.1344

>  <SCORE.INTER.norm>
-0.798646

>  <SCORE.INTRA>
0

>  <SCORE.INTRA.DIHEDRAL>
0

>  <SCORE.INTRA.DIHEDRAL.0>
0

>  <SCORE.INTRA.POLAR>
0

>  <SCORE.INTRA.POLAR.0>
0

>  <SCORE.INTRA.REPUL>
0

>  <SCORE.INTRA.REPUL.0>
0

>  <SCORE.INTRA.SOLV>
0

>  <SCORE.INTRA.SOLV.lig_0>
-48.3454

>  <SCORE.INTRA.VDW>
0

>  <SCORE.INTRA.VDW.0>
0

>  <SCORE.INTRA.norm>
0

>  <SCORE.RESTR>
0

>  <SCORE.RESTR.CAVITY>
0

>  <SCORE.RESTR.norm>
0

>  <SCORE.SYSTEM>
0

>  <SCORE.SYSTEM.CONST>
0

>  <SCORE.SYSTEM.DIHEDRAL>
0

>  <SCORE.SYSTEM.SOLV>
0

>  <SCORE.SYSTEM.norm>
0

>  <SCORE.heavy>
11

>  <SCORE.norm>
-0.798646

>  <RMSD>
2.785

$$$$
ligand
 OpenBabel01301917033D
libRbt.so/2013.1/901 2013/11/27
 11 12  0  0  0  0  0  0  0  0999 V2000
  -12.0519  -11.8213    8.9574 N   0  0  0  0  0  0  0  0  0  0  0  0
  -12.0153  -10.9708    7.9191 C   0  0  0  0  0  0  0  0  0  0  0  0
  -12.3016   -9.6857    8.1076 N   0  0  0  0  0  0  0  0  0  0  0  0
  -11.7022  -11.4079    6.6894 N   0  0  0  0  0  0  0  0  0  0  0  0
  -11.4230  -12.7018    6.4732 C   0  0  0  0  0  0  0  0  0  0  0  0
  -11.4538  -13.6029    7.5300 C   0  0  0  0  0  0  0  0  0  0  0  0
  -11.7785  -13.1255    8.7954 C   0  0  0  0  0  0  0  0  0  0  0  0
  -11.8103  -13.9516    9.8369 N   0  0  0  0  0  0  0  0  0  0  0  0
  -11.1565  -14.8032    7.0411 N   0  0  0  0  0  0  0  0  0  0  0  0
  -10.9471  -14.6698    5.7333 C   0  0  0  0  0  0  0  0  0  0  0  0
  -11.1073  -13.3953    5.3833 N   0  0  0  0  0  0  0  0  0  0  0  0
  1  7  2  0  0  0  0
  1  2  1  0  0  0  0
  2  3  1  0  0  0  0
  2  4  2  0  0  0  0
  4  5  1  0  0  0  0
  5  6  2  0  0  0  0
  5 11  1  0  0  0  0
  6  7  1  0  0  0  0
  6  9  1  0  0  0  0
  7  8  1  0  0  0  0
  9 10  1  0  0  0  0
 10 11  2  0  0  0  0
M  END
>  <CHROM.1>
-11.61964445,-12.72059551,7.51130531,2.88583865,1.31704851,-0.79362593

>  <Name>
ligand

>  <RI>
0

>  <Rbt.Current_Directory>
/home/itssahil/PROJECTS/Mol_Feturizer/New_Systems/rnas/2b57

>  <Rbt.Executable>
rbdock ($Id: //depot/dev/client3/rdock/2013.1/src/exe/rbdock.cxx#4 $)

>  <Rbt.Library>
libRbt.so (2013.1, Build901 2013/11/27)

>  <Rbt.Parameter_File>
/export/apps/rDock/src/rDock_2013.1_src/data/scripts/dock_solv.prm

>  <Rbt.Receptor>
prm/blind_docking_40.prm

>  <SCORE>
-8.78439

>  <SCORE.INTER>
-8.78439

>  <SCORE.INTER.CONST>
1

>  <SCORE.INTER.POLAR>
0

>  <SCORE.INTER.ROT>
0

>  <SCORE.INTER.SOLV>
20.099

>  <SCORE.INTER.VDW>
-16.1559

>  <SCORE.INTER.norm>
-0.798581

>  <SCORE.INTRA>
0

>  <SCORE.INTRA.DIHEDRAL>
0

>  <SCORE.INTRA.DIHEDRAL.0>
0

>  <SCORE.INTRA.POLAR>
0

>  <SCORE.INTRA.POLAR.0>
0

>  <SCORE.INTRA.REPUL>
0

>  <SCORE.INTRA.REPUL.0>
0

>  <SCORE.INTRA.SOLV>
0

>  <SCORE.INTRA.SOLV.lig_0>
-48.3454

>  <SCORE.INTRA.VDW>
0

>  <SCORE.INTRA.VDW.0>
0

>  <SCORE.INTRA.norm>
0

>  <SCORE.RESTR>
0

>  <SCORE.RESTR.CAVITY>
0

>  <SCORE.RESTR.norm>
0

>  <SCORE.SYSTEM>
0

>  <SCORE.SYSTEM.CONST>
0

>  <SCORE.SYSTEM.DIHEDRAL>
0

>  <SCORE.SYSTEM.SOLV>
0

>  <SCORE.SYSTEM.norm>
0

>  <SCORE.heavy>
11

>  <SCORE.norm>
-0.798581

>  <RMSD>
2.785

$$$$
ligand
 OpenBabel01301917033D
libRbt.so/2013.1/901 2013/11/27
 11 12  0  0  0  0  0  0  0  0999 V2000
  -12.0626  -11.8171    8.9481 N   0  0  0  0  0  0  0  0  0  0  0  0
  -12.0187  -10.9755    7.9029 C   0  0  0  0  0  0  0  0  0  0  0  0
  -12.3148   -9.6906    8.0767 N   0  0  0  0  0  0  0  0  0  0  0  0
  -11.6884  -11.4214    6.6809 N   0  0  0  0  0  0  0  0  0  0  0  0
  -11.3991  -12.7155    6.4794 C   0  0  0  0  0  0  0  0  0  0  0  0
  -11.4371  -13.6075    7.5436 C   0  0  0  0  0  0  0  0  0  0  0  0
  -11.7796  -13.1210    8.8009 C   0  0  0  0  0  0  0  0  0  0  0  0
  -11.8189  -13.9382    9.8492 N   0  0  0  0  0  0  0  0  0  0  0  0
  -11.1269  -14.8102    7.0689 N   0  0  0  0  0  0  0  0  0  0  0  0
  -10.9028  -14.6870    5.7625 C   0  0  0  0  0  0  0  0  0  0  0  0
  -11.0663  -13.4166    5.3995 N   0  0  0  0  0  0  0  0  0  0  0  0
  1  7  2  0  0  0  0
  1  2  1  0  0  0  0
  2  3  1  0  0  0  0
  2  4  2  0  0  0  0
  4  5  1  0  0  0  0
  5  6  2  0  0  0  0
  5 11  1  0  0  0  0
  6  7  1  0  0  0  0
  6  9  1  0  0  0  0
  7  8  1  0  0  0  0
  9 10  1  0  0  0  0
 10 11  2  0  0  0  0
M  END
>  <CHROM.1>
-11.60787978,-12.72641292,7.51520945,2.86940369,1.30448200,-0.78651618

>  <Name>
ligand

>  <RI>
0

>  <Rbt.Current_Directory>
/home/itssahil/PROJECTS/Mol_Feturizer/New_Systems/rnas/2b57

>  <Rbt.Executable>
rbdock ($Id: //depot/dev/client3/rdock/2013.1/src/exe/rbdock.cxx#4 $)

>  <Rbt.Library>
libRbt.so (2013.1, Build901 2013/11/27)

>  <Rbt.Parameter_File>
/export/apps/rDock/src/rDock_2013.1_src/data/scripts/dock_solv.prm

>  <Rbt.Receptor>
prm/pocket_docking_8.prm

>  <SCORE>
-8.7878

>  <SCORE.INTER>
-8.7878

>  <SCORE.INTER.CONST>
1

>  <SCORE.INTER.POLAR>
0

>  <SCORE.INTER.ROT>
0

>  <SCORE.INTER.SOLV>
19.9379

>  <SCORE.INTER.VDW>
-16.1045

>  <SCORE.INTER.norm>
-0.79889

>  <SCORE.INTRA>
0

>  <SCORE.INTRA.DIHEDRAL>
0

>  <SCORE.INTRA.DIHEDRAL.0>
0

>  <SCORE.INTRA.POLAR>
0

>  <SCORE.INTRA.POLAR.0>
0

>  <SCORE.INTRA.REPUL>
0

>  <SCORE.INTRA.REPUL.0>
0

>  <SCORE.INTRA.SOLV>
0

>  <SCORE.INTRA.SOLV.lig_0>
-48.3454

>  <SCORE.INTRA.VDW>
0

>  <SCORE.INTRA.VDW.0>
0

>  <SCORE.INTRA.norm>
0

>  <SCORE.RESTR>
0

>  <SCORE.RESTR.CAVITY>
0

>  <SCORE.RESTR.norm>
0

>  <SCORE.SYSTEM>
0

>  <SCORE.SYSTEM.CONST>
0

>  <SCORE.SYSTEM.DIHEDRAL>
0

>  <SCORE.SYSTEM.SOLV>
0

>  <SCORE.SYSTEM.norm>
0

>  <SCORE.heavy>
11

>  <SCORE.norm>
-0.79889

>  <RMSD>
2.787

$$$$
ligand
 OpenBabel01301917033D
libRbt.so/2013.1/901 2013/11/27
 11 12  0  0  0  0  0  0  0  0999 V2000
  -12.1774  -11.6743    9.0588 N   0  0  0  0  0  0  0  0  0  0  0  0
  -12.1157  -10.8948    7.9674 C   0  0  0  0  0  0  0  0  0  0  0  0
  -12.4137   -9.6020    8.0614 N   0  0  0  0  0  0  0  0  0  0  0  0
  -11.7658  -11.4109    6.7790 N   0  0  0  0  0  0  0  0  0  0  0  0
  -11.4740  -12.7144    6.6577 C   0  0  0  0  0  0  0  0  0  0  0  0
  -11.5301  -13.5431    7.7712 C   0  0  0  0  0  0  0  0  0  0  0  0
  -11.8929  -12.9845    8.9923 C   0  0  0  0  0  0  0  0  0  0  0  0
  -11.9499  -13.7394   10.0855 N   0  0  0  0  0  0  0  0  0  0  0  0
  -11.2131  -14.7713    7.3723 N   0  0  0  0  0  0  0  0  0  0  0  0
  -10.9674  -14.7241    6.0648 C   0  0  0  0  0  0  0  0  0  0  0  0
  -11.1241  -13.4770    5.6259 N   0  0  0  0  0  0  0  0  0  0  0  0
  1  7  2  0  0  0  0
  1  2  1  0  0  0  0
  2  3  1  0  0  0  0
  2  4  2  0  0  0  0
  4  5  1  0  0  0  0
  5  6  2  0  0  0  0
  5 11  1  0  0  0  0
  6  7  1  0  0  0  0
  6  9  1  0  0  0  0
  7  8  1  0  0  0  0
  9 10  1  0  0  0  0
 10 11  2  0  0  0  0
M  END
>  <CHROM.1>
-11.69982629,-12.66520852,7.68886178,2.82521619,1.29312591,-0.80206583

>  <Name>
ligand

>  <RI>
0

>  <Rbt.Current_Directory>
/home/itssahil/PROJECTS/Mol_Feturizer/New_Systems/rnas/2b57

>  <Rbt.Executable>
rbdock ($Id: //depot/dev/client3/rdock/2013.1/src/exe/rbdock.cxx#4 $)

>  <Rbt.Library>
libRbt.so (2013.1, Build901 2013/11/27)

>  <Rbt.Parameter_File>
/export/apps/rDock/src/rDock_2013.1_src/data/scripts/dock_solv.prm

>  <Rbt.Receptor>
prm/blind_docking_60.prm

>  <SCORE>
-8.63531

>  <SCORE.INTER>
-8.63531

>  <SCORE.INTER.CONST>
1

>  <SCORE.INTER.POLAR>
0

>  <SCORE.INTER.ROT>
0

>  <SCORE.INTER.SOLV>
19.5296

>  <SCORE.INTER.VDW>
-15.8667

>  <SCORE.INTER.norm>
-0.785029

>  <SCORE.INTRA>
0

>  <SCORE.INTRA.DIHEDRAL>
0

>  <SCORE.INTRA.DIHEDRAL.0>
0

>  <SCORE.INTRA.POLAR>
0

>  <SCORE.INTRA.POLAR.0>
0

>  <SCORE.INTRA.REPUL>
0

>  <SCORE.INTRA.REPUL.0>
0

>  <SCORE.INTRA.SOLV>
0

>  <SCORE.INTRA.SOLV.lig_0>
-48.3454

>  <SCORE.INTRA.VDW>
0

>  <SCORE.INTRA.VDW.0>
0

>  <SCORE.INTRA.norm>
0

>  <SCORE.RESTR>
0

>  <SCORE.RESTR.CAVITY>
0

>  <SCORE.RESTR.norm>
0

>  <SCORE.SYSTEM>
0

>  <SCORE.SYSTEM.CONST>
0

>  <SCORE.SYSTEM.DIHEDRAL>
0

>  <SCORE.SYSTEM.SOLV>
0

>  <SCORE.SYSTEM.norm>
0

>  <SCORE.heavy>
11

>  <SCORE.norm>
-0.785029

>  <RMSD>
2.813

$$$$
ligand
 OpenBabel01301917033D
libRbt.so/2013.1/901 2013/11/27
 11 12  0  0  0  0  0  0  0  0999 V2000
  -11.6296  -12.3831    6.2569 N   0  0  0  0  0  0  0  0  0  0  0  0
  -10.8813  -13.4882    6.1104 C   0  0  0  0  0  0  0  0  0  0  0  0
  -10.3153  -13.7517    4.9360 N   0  0  0  0  0  0  0  0  0  0  0  0
  -10.7075  -14.3358    7.1363 N   0  0  0  0  0  0  0  0  0  0  0  0
  -11.2796  -14.0975    8.3257 C   0  0  0  0  0  0  0  0  0  0  0  0
  -12.0588  -12.9614    8.5043 C   0  0  0  0  0  0  0  0  0  0  0  0
  -12.2221  -12.0968    7.4269 C   0  0  0  0  0  0  0  0  0  0  0  0
  -12.9518  -10.9928    7.5566 N   0  0  0  0  0  0  0  0  0  0  0  0
  -12.5103  -12.9783    9.7548 N   0  0  0  0  0  0  0  0  0  0  0  0
  -12.0393  -14.0756   10.3431 C   0  0  0  0  0  0  0  0  0  0  0  0
  -11.2909  -14.7587    9.4795 N   0  0  0  0  0  0  0  0  0  0  0  0
  1  7  2  0  0  0  0
  1  2  1  0  0  0  0
  2  3  1  0  0  0  0
  2  4  2  0  0  0  0
  4  5  1  0  0  0  0
  5  6  2  0  0  0  0
  5 11  1  0  0  0  0
  6  7  1  0  0  0  0
  6  9  1  0  0  0  0
  7  8  1  0  0  0  0
  9 10  1  0  0  0  0
 10 11  2  0  0  0  0
M  END
>  <CHROM.1>
-11.62118132,-13.26000094,7.77925887,1.09108362,0.94742635,-1.05197818

>  <Name>
ligand

>  <RI>
0

>  <Rbt.Current_Directory>
/home/itssahil/PROJECTS/Mol_Feturizer/New_Systems/rnas/2b57

>  <Rbt.Executable>
rbdock ($Id: //depot/dev/client3/rdock/2013.1/src/exe/rbdock.cxx#4 $)

>  <Rbt.Library>
libRbt.so (2013.1, Build901 2013/11/27)

>  <Rbt.Parameter_File>
/export/apps/rDock/src/rDock_2013.1_src/data/scripts/dock_solv.prm

>  <Rbt.Receptor>
prm/blind_docking_40.prm

>  <SCORE>
-10.3034

>  <SCORE.INTER>
-10.3034

>  <SCORE.INTER.CONST>
1

>  <SCORE.INTER.POLAR>
0

>  <SCORE.INTER.ROT>
0

>  <SCORE.INTER.SOLV>
18.1249

>  <SCORE.INTER.VDW>
-16.5106

>  <SCORE.INTER.norm>
-0.936677

>  <SCORE.INTRA>
0

>  <SCORE.INTRA.DIHEDRAL>
0

>  <SCORE.INTRA.DIHEDRAL.0>
0

>  <SCORE.INTRA.POLAR>
0

>  <SCORE.INTRA.POLAR.0>
0

>  <SCORE.INTRA.REPUL>
0

>  <SCORE.INTRA.REPUL.0>
0

>  <SCORE.INTRA.SOLV>
0

>  <SCORE.INTRA.SOLV.lig_0>
-48.3454

>  <SCORE.INTRA.VDW>
0

>  <SCORE.INTRA.VDW.0>
0

>  <SCORE.INTRA.norm>
0

>  <SCORE.RESTR>
0

>  <SCORE.RESTR.CAVITY>
0

>  <SCORE.RESTR.norm>
0

>  <SCORE.SYSTEM>
0

>  <SCORE.SYSTEM.CONST>
0

>  <SCORE.SYSTEM.DIHEDRAL>
0

>  <SCORE.SYSTEM.SOLV>
0

>  <SCORE.SYSTEM.norm>
0

>  <SCORE.heavy>
11

>  <SCORE.norm>
-0.936677

>  <RMSD>
3.341

$$$$
ligand
 OpenBabel01301917033D
libRbt.so/2013.1/901 2013/11/27
 11 12  0  0  0  0  0  0  0  0999 V2000
  -11.6228  -12.3807    6.2583 N   0  0  0  0  0  0  0  0  0  0  0  0
  -10.8763  -13.4874    6.1143 C   0  0  0  0  0  0  0  0  0  0  0  0
  -10.3081  -13.7528    4.9414 N   0  0  0  0  0  0  0  0  0  0  0  0
  -10.7066  -14.3346    7.1412 N   0  0  0  0  0  0  0  0  0  0  0  0
  -11.2811  -14.0943    8.3291 C   0  0  0  0  0  0  0  0  0  0  0  0
  -12.0585  -12.9566    8.5050 C   0  0  0  0  0  0  0  0  0  0  0  0
  -12.2175  -12.0925    7.4267 C   0  0  0  0  0  0  0  0  0  0  0  0
  -12.9454  -10.9870    7.5538 N   0  0  0  0  0  0  0  0  0  0  0  0
  -12.5130  -12.9717    9.7545 N   0  0  0  0  0  0  0  0  0  0  0  0
  -12.0456  -14.0696   10.3447 C   0  0  0  0  0  0  0  0  0  0  0  0
  -11.2964  -14.7547    9.4834 N   0  0  0  0  0  0  0  0  0  0  0  0
  1  7  2  0  0  0  0
  1  2  1  0  0  0  0
  2  3  1  0  0  0  0
  2  4  2  0  0  0  0
  4  5  1  0  0  0  0
  5  6  2  0  0  0  0
  5 11  1  0  0  0  0
  6  7  1  0  0  0  0
  6  9  1  0  0  0  0
  7  8  1  0  0  0  0
  9 10  1  0  0  0  0
 10 11  2  0  0  0  0
M  END
>  <CHROM.1>
-11.61972424,-13.25660700,7.78128974,1.08586926,0.94794081,-1.04844839

>  <Name>
ligand

>  <RI>
0

>  <Rbt.Current_Directory>
/home/itssahil/PROJECTS/Mol_Feturizer/New_Systems/rnas/2b57

>  <Rbt.Executable>
rbdock ($Id: //depot/dev/client3/rdock/2013.1/src/exe/rbdock.cxx#4 $)

>  <Rbt.Library>
libRbt.so (2013.1, Build901 2013/11/27)

>  <Rbt.Parameter_File>
/export/apps/rDock/src/rDock_2013.1_src/data/scripts/dock_solv.prm

>  <Rbt.Receptor>
prm/blind_docking_80.prm

>  <SCORE>
-10.3035

>  <SCORE.INTER>
-10.3035

>  <SCORE.INTER.CONST>
1

>  <SCORE.INTER.POLAR>
0

>  <SCORE.INTER.ROT>
0

>  <SCORE.INTER.SOLV>
18.0901

>  <SCORE.INTER.VDW>
-16.499

>  <SCORE.INTER.norm>
-0.936681

>  <SCORE.INTRA>
0

>  <SCORE.INTRA.DIHEDRAL>
0

>  <SCORE.INTRA.DIHEDRAL.0>
0

>  <SCORE.INTRA.POLAR>
0

>  <SCORE.INTRA.POLAR.0>
0

>  <SCORE.INTRA.REPUL>
0

>  <SCORE.INTRA.REPUL.0>
0

>  <SCORE.INTRA.SOLV>
0

>  <SCORE.INTRA.SOLV.lig_0>
-48.3454

>  <SCORE.INTRA.VDW>
0

>  <SCORE.INTRA.VDW.0>
0

>  <SCORE.INTRA.norm>
0

>  <SCORE.RESTR>
0

>  <SCORE.RESTR.CAVITY>
0

>  <SCORE.RESTR.norm>
0

>  <SCORE.SYSTEM>
0

>  <SCORE.SYSTEM.CONST>
0

>  <SCORE.SYSTEM.DIHEDRAL>
0

>  <SCORE.SYSTEM.SOLV>
0

>  <SCORE.SYSTEM.norm>
0

>  <SCORE.heavy>
11

>  <SCORE.norm>
-0.936681

>  <RMSD>
3.341

$$$$
ligand
 OpenBabel01301917033D
libRbt.so/2013.1/901 2013/11/27
 11 12  0  0  0  0  0  0  0  0999 V2000
  -11.6350  -12.3843    6.2630 N   0  0  0  0  0  0  0  0  0  0  0  0
  -10.8859  -13.4884    6.1128 C   0  0  0  0  0  0  0  0  0  0  0  0
  -10.3236  -13.7499    4.9362 N   0  0  0  0  0  0  0  0  0  0  0  0
  -10.7075  -14.3368    7.1372 N   0  0  0  0  0  0  0  0  0  0  0  0
  -11.2758  -14.1004    8.3289 C   0  0  0  0  0  0  0  0  0  0  0  0
  -12.0558  -12.9655    8.5113 C   0  0  0  0  0  0  0  0  0  0  0  0
  -12.2238  -12.1000    7.4354 C   0  0  0  0  0  0  0  0  0  0  0  0
  -12.9545  -10.9971    7.5687 N   0  0  0  0  0  0  0  0  0  0  0  0
  -12.5029  -12.9842    9.7633 N   0  0  0  0  0  0  0  0  0  0  0  0
  -12.0286  -14.0816   10.3488 C   0  0  0  0  0  0  0  0  0  0  0  0
  -11.2823  -14.7629    9.4820 N   0  0  0  0  0  0  0  0  0  0  0  0
  1  7  2  0  0  0  0
  1  2  1  0  0  0  0
  2  3  1  0  0  0  0
  2  4  2  0  0  0  0
  4  5  1  0  0  0  0
  5  6  2  0  0  0  0
  5 11  1  0  0  0  0
  6  7  1  0  0  0  0
  6  9  1  0  0  0  0
  7  8  1  0  0  0  0
  9 10  1  0  0  0  0
 10 11  2  0  0  0  0
M  END
>  <CHROM.1>
-11.62030479,-13.26282040,7.78444717,1.09724873,0.94805188,-1.05594790

>  <Name>
ligand

>  <RI>
0

>  <Rbt.Current_Directory>
/home/itssahil/PROJECTS/Mol_Feturizer/New_Systems/rnas/2b57

>  <Rbt.Executable>
rbdock ($Id: //depot/dev/client3/rdock/2013.1/src/exe/rbdock.cxx#4 $)

>  <Rbt.Library>
libRbt.so (2013.1, Build901 2013/11/27)

>  <Rbt.Parameter_File>
/export/apps/rDock/src/rDock_2013.1_src/data/scripts/dock_solv.prm

>  <Rbt.Receptor>
prm/pocket_docking_5.prm

>  <SCORE>
-10.299

>  <SCORE.INTER>
-10.299

>  <SCORE.INTER.CONST>
1

>  <SCORE.INTER.POLAR>
0

>  <SCORE.INTER.ROT>
0

>  <SCORE.INTER.SOLV>
18.1368

>  <SCORE.INTER.VDW>
-16.5116

>  <SCORE.INTER.norm>
-0.936277

>  <SCORE.INTRA>
0

>  <SCORE.INTRA.DIHEDRAL>
0

>  <SCORE.INTRA.DIHEDRAL.0>
0

>  <SCORE.INTRA.POLAR>
0

>  <SCORE.INTRA.POLAR.0>
0

>  <SCORE.INTRA.REPUL>
0

>  <SCORE.INTRA.REPUL.0>
0

>  <SCORE.INTRA.SOLV>
0

>  <SCORE.INTRA.SOLV.lig_0>
-48.3454

>  <SCORE.INTRA.VDW>
0

>  <SCORE.INTRA.VDW.0>
0

>  <SCORE.INTRA.norm>
0

>  <SCORE.RESTR>
0

>  <SCORE.RESTR.CAVITY>
0

>  <SCORE.RESTR.norm>
0

>  <SCORE.SYSTEM>
0

>  <SCORE.SYSTEM.CONST>
0

>  <SCORE.SYSTEM.DIHEDRAL>
0

>  <SCORE.SYSTEM.SOLV>
0

>  <SCORE.SYSTEM.norm>
0

>  <SCORE.heavy>
11

>  <SCORE.norm>
-0.936277

>  <RMSD>
3.341

$$$$
ligand
 OpenBabel01301917033D
libRbt.so/2013.1/901 2013/11/27
 11 12  0  0  0  0  0  0  0  0999 V2000
  -11.6282  -12.3801    6.2625 N   0  0  0  0  0  0  0  0  0  0  0  0
  -10.8825  -13.4866    6.1127 C   0  0  0  0  0  0  0  0  0  0  0  0
  -10.3191  -13.7492    4.9369 N   0  0  0  0  0  0  0  0  0  0  0  0
  -10.7088  -14.3363    7.1369 N   0  0  0  0  0  0  0  0  0  0  0  0
  -11.2784  -14.0988    8.3277 C   0  0  0  0  0  0  0  0  0  0  0  0
  -12.0548  -12.9614    8.5096 C   0  0  0  0  0  0  0  0  0  0  0  0
  -12.2181  -12.0946    7.4340 C   0  0  0  0  0  0  0  0  0  0  0  0
  -12.9452  -10.9893    7.5668 N   0  0  0  0  0  0  0  0  0  0  0  0
  -12.5042  -12.9795    9.7608 N   0  0  0  0  0  0  0  0  0  0  0  0
  -12.0346  -14.0789   10.3464 C   0  0  0  0  0  0  0  0  0  0  0  0
  -11.2891  -14.7621    9.4804 N   0  0  0  0  0  0  0  0  0  0  0  0
  1  7  2  0  0  0  0
  1  2  1  0  0  0  0
  2  3  1  0  0  0  0
  2  4  2  0  0  0  0
  4  5  1  0  0  0  0
  5  6  2  0  0  0  0
  5 11  1  0  0  0  0
  6  7  1  0  0  0  0
  6  9  1  0  0  0  0
  7  8  1  0  0  0  0
  9 10  1  0  0  0  0
 10 11  2  0  0  0  0
M  END
>  <CHROM.1>
-11.61906425,-13.25970570,7.78329069,1.09179939,0.95012383,-1.05082269

>  <Name>
ligand

>  <RI>
0

>  <Rbt.Current_Directory>
/home/itssahil/PROJECTS/Mol_Feturizer/New_Systems/rnas/2b57

>  <Rbt.Executable>
rbdock ($Id: //depot/dev/client3/rdock/2013.1/src/exe/rbdock.cxx#4 $)

>  <Rbt.Library>
libRbt.so (2013.1, Build901 2013/11/27)

>  <Rbt.Parameter_File>
/export/apps/rDock/src/rDock_2013.1_src/data/scripts/dock_solv.prm

>  <Rbt.Receptor>
prm/pocket_docking_7.prm

>  <SCORE>
-10.3017

>  <SCORE.INTER>
-10.3017

>  <SCORE.INTER.CONST>
1

>  <SCORE.INTER.POLAR>
0

>  <SCORE.INTER.ROT>
0

>  <SCORE.INTER.SOLV>
18.1324

>  <SCORE.INTER.VDW>
-16.512

>  <SCORE.INTER.norm>
-0.936519

>  <SCORE.INTRA>
0

>  <SCORE.INTRA.DIHEDRAL>
0

>  <SCORE.INTRA.DIHEDRAL.0>
0

>  <SCORE.INTRA.POLAR>
0

>  <SCORE.INTRA.POLAR.0>
0

>  <SCORE.INTRA.REPUL>
0

>  <SCORE.INTRA.REPUL.0>
0

>  <SCORE.INTRA.SOLV>
0

>  <SCORE.INTRA.SOLV.lig_0>
-48.3454

>  <SCORE.INTRA.VDW>
0

>  <SCORE.INTRA.VDW.0>
0

>  <SCORE.INTRA.norm>
0

>  <SCORE.RESTR>
0

>  <SCORE.RESTR.CAVITY>
0

>  <SCORE.RESTR.norm>
0

>  <SCORE.SYSTEM>
0

>  <SCORE.SYSTEM.CONST>
0

>  <SCORE.SYSTEM.DIHEDRAL>
0

>  <SCORE.SYSTEM.SOLV>
0

>  <SCORE.SYSTEM.norm>
0

>  <SCORE.heavy>
11

>  <SCORE.norm>
-0.936519

>  <RMSD>
3.341

$$$$
ligand
 OpenBabel01301917033D
libRbt.so/2013.1/901 2013/11/27
 11 12  0  0  0  0  0  0  0  0999 V2000
  -11.6768  -12.4001    6.2801 N   0  0  0  0  0  0  0  0  0  0  0  0
  -10.9537  -13.5203    6.1225 C   0  0  0  0  0  0  0  0  0  0  0  0
  -10.4073  -13.7931    4.9409 N   0  0  0  0  0  0  0  0  0  0  0  0
  -10.7855  -14.3736    7.1447 N   0  0  0  0  0  0  0  0  0  0  0  0
  -11.3382  -14.1258    8.3413 C   0  0  0  0  0  0  0  0  0  0  0  0
  -12.0913  -12.9741    8.5313 C   0  0  0  0  0  0  0  0  0  0  0  0
  -12.2492  -12.1040    7.4576 C   0  0  0  0  0  0  0  0  0  0  0  0
  -12.9540  -10.9852    7.5981 N   0  0  0  0  0  0  0  0  0  0  0  0
  -12.5280  -12.9842    9.7871 N   0  0  0  0  0  0  0  0  0  0  0  0
  -12.0732  -14.0924   10.3677 C   0  0  0  0  0  0  0  0  0  0  0  0
  -11.3496  -14.7892    9.4939 N   0  0  0  0  0  0  0  0  0  0  0  0
  1  7  2  0  0  0  0
  1  2  1  0  0  0  0
  2  3  1  0  0  0  0
  2  4  2  0  0  0  0
  4  5  1  0  0  0  0
  5  6  2  0  0  0  0
  5 11  1  0  0  0  0
  6  7  1  0  0  0  0
  6  9  1  0  0  0  0
  7  8  1  0  0  0  0
  9 10  1  0  0  0  0
 10 11  2  0  0  0  0
M  END
>  <CHROM.1>
-11.66864306,-13.28024261,7.80057062,1.09098643,0.97154937,-1.04988813

>  <Name>
ligand

>  <RI>
0

>  <Rbt.Current_Directory>
/home/itssahil/PROJECTS/Mol_Feturizer/New_Systems/rnas/2b57

>  <Rbt.Executable>
rbdock ($Id: //depot/dev/client3/rdock/2013.1/src/exe/rbdock.cxx#4 $)

>  <Rbt.Library>
libRbt.so (2013.1, Build901 2013/11/27)

>  <Rbt.Parameter_File>
/export/apps/rDock/src/rDock_2013.1_src/data/scripts/dock_solv.prm

>  <Rbt.Receptor>
prm/pocket_docking_6.prm

>  <SCORE>
-10.2605

>  <SCORE.INTER>
-10.2605

>  <SCORE.INTER.CONST>
1

>  <SCORE.INTER.POLAR>
0

>  <SCORE.INTER.ROT>
0

>  <SCORE.INTER.SOLV>
18.2866

>  <SCORE.INTER.VDW>
-16.5358

>  <SCORE.INTER.norm>
-0.932771

>  <SCORE.INTRA>
0

>  <SCORE.INTRA.DIHEDRAL>
0

>  <SCORE.INTRA.DIHEDRAL.0>
0

>  <SCORE.INTRA.POLAR>
0

>  <SCORE.INTRA.POLAR.0>
0

>  <SCORE.INTRA.REPUL>
0

>  <SCORE.INTRA.REPUL.0>
0

>  <SCORE.INTRA.SOLV>
0

>  <SCORE.INTRA.SOLV.lig_0>
-48.3454

>  <SCORE.INTRA.VDW>
0

>  <SCORE.INTRA.VDW.0>
0

>  <SCORE.INTRA.norm>
0

>  <SCORE.RESTR>
0

>  <SCORE.RESTR.CAVITY>
0

>  <SCORE.RESTR.norm>
0

>  <SCORE.SYSTEM>
0

>  <SCORE.SYSTEM.CONST>
0

>  <SCORE.SYSTEM.DIHEDRAL>
0

>  <SCORE.SYSTEM.SOLV>
0

>  <SCORE.SYSTEM.norm>
0

>  <SCORE.heavy>
11

>  <SCORE.norm>
-0.932771

>  <RMSD>
3.342

$$$$
ligand
 OpenBabel01301917033D
libRbt.so/2013.1/901 2013/11/27
 11 12  0  0  0  0  0  0  0  0999 V2000
  -11.6595  -12.4095    6.3044 N   0  0  0  0  0  0  0  0  0  0  0  0
  -10.9414  -13.5324    6.1427 C   0  0  0  0  0  0  0  0  0  0  0  0
  -10.3893  -13.7991    4.9625 N   0  0  0  0  0  0  0  0  0  0  0  0
  -10.7841  -14.3943    7.1593 N   0  0  0  0  0  0  0  0  0  0  0  0
  -11.3430  -14.1528    8.3544 C   0  0  0  0  0  0  0  0  0  0  0  0
  -12.0909  -12.9984    8.5486 C   0  0  0  0  0  0  0  0  0  0  0  0
  -12.2375  -12.1193    7.4807 C   0  0  0  0  0  0  0  0  0  0  0  0
  -12.9372  -10.9978    7.6254 N   0  0  0  0  0  0  0  0  0  0  0  0
  -12.5355  -13.0157    9.8016 N   0  0  0  0  0  0  0  0  0  0  0  0
  -12.0902  -14.1308   10.3764 C   0  0  0  0  0  0  0  0  0  0  0  0
  -11.3650  -14.8248    9.5018 N   0  0  0  0  0  0  0  0  0  0  0  0
  1  7  2  0  0  0  0
  1  2  1  0  0  0  0
  2  3  1  0  0  0  0
  2  4  2  0  0  0  0
  4  5  1  0  0  0  0
  5  6  2  0  0  0  0
  5 11  1  0  0  0  0
  6  7  1  0  0  0  0
  6  9  1  0  0  0  0
  7  8  1  0  0  0  0
  9 10  1  0  0  0  0
 10 11  2  0  0  0  0
M  END
>  <CHROM.1>
-11.66545570,-13.30128687,7.81815335,1.07671295,0.97308592,-1.03044001

>  <Name>
ligand

>  <RI>
0

>  <Rbt.Current_Directory>
/home/itssahil/PROJECTS/Mol_Feturizer/New_Systems/rnas/2b57

>  <Rbt.Executable>
rbdock ($Id: //depot/dev/client3/rdock/2013.1/src/exe/rbdock.cxx#4 $)

>  <Rbt.Library>
libRbt.so (2013.1, Build901 2013/11/27)

>  <Rbt.Parameter_File>
/export/apps/rDock/src/rDock_2013.1_src/data/scripts/dock_solv.prm

>  <Rbt.Receptor>
prm/pocket_docking_7.prm

>  <SCORE>
-10.2576

>  <SCORE.INTER>
-10.2576

>  <SCORE.INTER.CONST>
1

>  <SCORE.INTER.POLAR>
0

>  <SCORE.INTER.ROT>
0

>  <SCORE.INTER.SOLV>
18.1654

>  <SCORE.INTER.VDW>
-16.4935

>  <SCORE.INTER.norm>
-0.932508

>  <SCORE.INTRA>
0

>  <SCORE.INTRA.DIHEDRAL>
0

>  <SCORE.INTRA.DIHEDRAL.0>
0

>  <SCORE.INTRA.POLAR>
0

>  <SCORE.INTRA.POLAR.0>
0

>  <SCORE.INTRA.REPUL>
0

>  <SCORE.INTRA.REPUL.0>
0

>  <SCORE.INTRA.SOLV>
0

>  <SCORE.INTRA.SOLV.lig_0>
-48.3454

>  <SCORE.INTRA.VDW>
0

>  <SCORE.INTRA.VDW.0>
0

>  <SCORE.INTRA.norm>
0

>  <SCORE.RESTR>
0

>  <SCORE.RESTR.CAVITY>
0

>  <SCORE.RESTR.norm>
0

>  <SCORE.SYSTEM>
0

>  <SCORE.SYSTEM.CONST>
0

>  <SCORE.SYSTEM.DIHEDRAL>
0

>  <SCORE.SYSTEM.SOLV>
0

>  <SCORE.SYSTEM.norm>
0

>  <SCORE.heavy>
11

>  <SCORE.norm>
-0.932508

>  <RMSD>
3.342

$$$$
ligand
 OpenBabel01301917033D
libRbt.so/2013.1/901 2013/11/27
 11 12  0  0  0  0  0  0  0  0999 V2000
  -11.6842  -12.4106    6.2520 N   0  0  0  0  0  0  0  0  0  0  0  0
  -10.9487  -13.5221    6.0897 C   0  0  0  0  0  0  0  0  0  0  0  0
  -10.4360  -13.8063    4.8958 N   0  0  0  0  0  0  0  0  0  0  0  0
  -10.7346  -14.3553    7.1198 N   0  0  0  0  0  0  0  0  0  0  0  0
  -11.2530  -14.0959    8.3293 C   0  0  0  0  0  0  0  0  0  0  0  0
  -12.0177  -12.9528    8.5245 C   0  0  0  0  0  0  0  0  0  0  0  0
  -12.2235  -12.1035    7.4423 C   0  0  0  0  0  0  0  0  0  0  0  0
  -12.9412  -10.9935    7.5870 N   0  0  0  0  0  0  0  0  0  0  0  0
  -12.4142  -12.9485    9.7936 N   0  0  0  0  0  0  0  0  0  0  0  0
  -11.9236  -14.0396   10.3773 C   0  0  0  0  0  0  0  0  0  0  0  0
  -11.2171  -14.7398    9.4924 N   0  0  0  0  0  0  0  0  0  0  0  0
  1  7  2  0  0  0  0
  1  2  1  0  0  0  0
  2  3  1  0  0  0  0
  2  4  2  0  0  0  0
  4  5  1  0  0  0  0
  5  6  2  0  0  0  0
  5 11  1  0  0  0  0
  6  7  1  0  0  0  0
  6  9  1  0  0  0  0
  7  8  1  0  0  0  0
  9 10  1  0  0  0  0
 10 11  2  0  0  0  0
M  END
>  <CHROM.1>
-11.61376377,-13.26475193,7.78565998,1.15402118,0.97267200,-1.11857038

>  <Name>
ligand

>  <RI>
0

>  <Rbt.Current_Directory>
/home/itssahil/PROJECTS/Mol_Feturizer/New_Systems/rnas/2b57

>  <Rbt.Executable>
rbdock ($Id: //depot/dev/client3/rdock/2013.1/src/exe/rbdock.cxx#4 $)

>  <Rbt.Library>
libRbt.so (2013.1, Build901 2013/11/27)

>  <Rbt.Parameter_File>
/export/apps/rDock/src/rDock_2013.1_src/data/scripts/dock_solv.prm

>  <Rbt.Receptor>
prm/pocket_docking_7.prm

>  <SCORE>
-10.3561

>  <SCORE.INTER>
-10.3561

>  <SCORE.INTER.CONST>
1

>  <SCORE.INTER.POLAR>
0

>  <SCORE.INTER.ROT>
0

>  <SCORE.INTER.SOLV>
18.529

>  <SCORE.INTER.VDW>
-16.6804

>  <SCORE.INTER.norm>
-0.941459

>  <SCORE.INTRA>
0

>  <SCORE.INTRA.DIHEDRAL>
0

>  <SCORE.INTRA.DIHEDRAL.0>
0

>  <SCORE.INTRA.POLAR>
0

>  <SCORE.INTRA.POLAR.0>
0

>  <SCORE.INTRA.REPUL>
0

>  <SCORE.INTRA.REPUL.0>
0

>  <SCORE.INTRA.SOLV>
0

>  <SCORE.INTRA.SOLV.lig_0>
-48.3454

>  <SCORE.INTRA.VDW>
0

>  <SCORE.INTRA.VDW.0>
0

>  <SCORE.INTRA.norm>
0

>  <SCORE.RESTR>
0

>  <SCORE.RESTR.CAVITY>
0

>  <SCORE.RESTR.norm>
0

>  <SCORE.SYSTEM>
0

>  <SCORE.SYSTEM.CONST>
0

>  <SCORE.SYSTEM.DIHEDRAL>
0

>  <SCORE.SYSTEM.SOLV>
0

>  <SCORE.SYSTEM.norm>
0

>  <SCORE.heavy>
11

>  <SCORE.norm>
-0.941459

>  <RMSD>
3.343

$$$$
ligand
 OpenBabel01301917033D
libRbt.so/2013.1/901 2013/11/27
 11 12  0  0  0  0  0  0  0  0999 V2000
  -11.6885  -12.4120    6.2508 N   0  0  0  0  0  0  0  0  0  0  0  0
  -10.9504  -13.5217    6.0883 C   0  0  0  0  0  0  0  0  0  0  0  0
  -10.4379  -13.8050    4.8941 N   0  0  0  0  0  0  0  0  0  0  0  0
  -10.7333  -14.3540    7.1185 N   0  0  0  0  0  0  0  0  0  0  0  0
  -11.2513  -14.0955    8.3284 C   0  0  0  0  0  0  0  0  0  0  0  0
  -12.0188  -12.9543    8.5237 C   0  0  0  0  0  0  0  0  0  0  0  0
  -12.2276  -12.1059    7.4414 C   0  0  0  0  0  0  0  0  0  0  0  0
  -12.9480  -10.9976    7.5863 N   0  0  0  0  0  0  0  0  0  0  0  0
  -12.4142  -12.9505    9.7932 N   0  0  0  0  0  0  0  0  0  0  0  0
  -11.9204  -14.0402   10.3769 C   0  0  0  0  0  0  0  0  0  0  0  0
  -11.2129  -14.7389    9.4916 N   0  0  0  0  0  0  0  0  0  0  0  0
  1  7  2  0  0  0  0
  1  2  1  0  0  0  0
  2  3  1  0  0  0  0
  2  4  2  0  0  0  0
  4  5  1  0  0  0  0
  5  6  2  0  0  0  0
  5 11  1  0  0  0  0
  6  7  1  0  0  0  0
  6  9  1  0  0  0  0
  7  8  1  0  0  0  0
  9 10  1  0  0  0  0
 10 11  2  0  0  0  0
M  END
>  <CHROM.1>
-11.61465831,-13.26546453,7.78470531,1.15731214,0.97072569,-1.12165655

>  <Name>
ligand

>  <RI>
0

>  <Rbt.Current_Directory>
/home/itssahil/PROJECTS/Mol_Feturizer/New_Systems/rnas/2b57

>  <Rbt.Executable>
rbdock ($Id: //depot/dev/client3/rdock/2013.1/src/exe/rbdock.cxx#4 $)

>  <Rbt.Library>
libRbt.so (2013.1, Build901 2013/11/27)

>  <Rbt.Parameter_File>
/export/apps/rDock/src/rDock_2013.1_src/data/scripts/dock_solv.prm

>  <Rbt.Receptor>
prm/pocket_docking_8.prm

>  <SCORE>
-10.3528

>  <SCORE.INTER>
-10.3528

>  <SCORE.INTER.CONST>
1

>  <SCORE.INTER.POLAR>
0

>  <SCORE.INTER.ROT>
0

>  <SCORE.INTER.SOLV>
18.5365

>  <SCORE.INTER.VDW>
-16.6807

>  <SCORE.INTER.norm>
-0.941162

>  <SCORE.INTRA>
0

>  <SCORE.INTRA.DIHEDRAL>
0

>  <SCORE.INTRA.DIHEDRAL.0>
0

>  <SCORE.INTRA.POLAR>
0

>  <SCORE.INTRA.POLAR.0>
0

>  <SCORE.INTRA.REPUL>
0

>  <SCORE.INTRA.REPUL.0>
0

>  <SCORE.INTRA.SOLV>
0

>  <SCORE.INTRA.SOLV.lig_0>
-48.3454

>  <SCORE.INTRA.VDW>
0

>  <SCORE.INTRA.VDW.0>
0

>  <SCORE.INTRA.norm>
0

>  <SCORE.RESTR>
0

>  <SCORE.RESTR.CAVITY>
0

>  <SCORE.RESTR.norm>
0

>  <SCORE.SYSTEM>
0

>  <SCORE.SYSTEM.CONST>
0

>  <SCORE.SYSTEM.DIHEDRAL>
0

>  <SCORE.SYSTEM.SOLV>
0

>  <SCORE.SYSTEM.norm>
0

>  <SCORE.heavy>
11

>  <SCORE.norm>
-0.941162

>  <RMSD>
3.343

$$$$
ligand
 OpenBabel01301917033D
libRbt.so/2013.1/901 2013/11/27
 11 12  0  0  0  0  0  0  0  0999 V2000
  -11.6298  -12.4161    6.2448 N   0  0  0  0  0  0  0  0  0  0  0  0
  -10.8645  -13.5092    6.0954 C   0  0  0  0  0  0  0  0  0  0  0  0
  -10.3283  -13.7829    4.9095 N   0  0  0  0  0  0  0  0  0  0  0  0
  -10.6438  -14.3345    7.1304 N   0  0  0  0  0  0  0  0  0  0  0  0
  -11.1852  -14.0856    8.3321 C   0  0  0  0  0  0  0  0  0  0  0  0
  -11.9811  -12.9617    8.5138 C   0  0  0  0  0  0  0  0  0  0  0  0
  -12.1930  -12.1201    7.4268 C   0  0  0  0  0  0  0  0  0  0  0  0
  -12.9403  -11.0282    7.5587 N   0  0  0  0  0  0  0  0  0  0  0  0
  -12.3950  -12.9646    9.7773 N   0  0  0  0  0  0  0  0  0  0  0  0
  -11.8853  -14.0418   10.3705 C   0  0  0  0  0  0  0  0  0  0  0  0
  -11.1493  -14.7259    9.4971 N   0  0  0  0  0  0  0  0  0  0  0  0
  1  7  2  0  0  0  0
  1  2  1  0  0  0  0
  2  3  1  0  0  0  0
  2  4  2  0  0  0  0
  4  5  1  0  0  0  0
  5  6  2  0  0  0  0
  5 11  1  0  0  0  0
  6  7  1  0  0  0  0
  6  9  1  0  0  0  0
  7  8  1  0  0  0  0
  9 10  1  0  0  0  0
 10 11  2  0  0  0  0
M  END
>  <CHROM.1>
-11.55917539,-13.26496078,7.78140248,1.15146993,0.94403505,-1.11881328

>  <Name>
ligand

>  <RI>
0

>  <Rbt.Current_Directory>
/home/itssahil/PROJECTS/Mol_Feturizer/New_Systems/rnas/2b57

>  <Rbt.Executable>
rbdock ($Id: //depot/dev/client3/rdock/2013.1/src/exe/rbdock.cxx#4 $)

>  <Rbt.Library>
libRbt.so (2013.1, Build901 2013/11/27)

>  <Rbt.Parameter_File>
/export/apps/rDock/src/rDock_2013.1_src/data/scripts/dock_solv.prm

>  <Rbt.Receptor>
prm/blind_docking_100.prm

>  <SCORE>
-10.3183

>  <SCORE.INTER>
-10.3183

>  <SCORE.INTER.CONST>
1

>  <SCORE.INTER.POLAR>
0

>  <SCORE.INTER.ROT>
0

>  <SCORE.INTER.SOLV>
18.2502

>  <SCORE.INTER.VDW>
-16.5623

>  <SCORE.INTER.norm>
-0.93803

>  <SCORE.INTRA>
0

>  <SCORE.INTRA.DIHEDRAL>
0

>  <SCORE.INTRA.DIHEDRAL.0>
0

>  <SCORE.INTRA.POLAR>
0

>  <SCORE.INTRA.POLAR.0>
0

>  <SCORE.INTRA.REPUL>
0

>  <SCORE.INTRA.REPUL.0>
0

>  <SCORE.INTRA.SOLV>
0

>  <SCORE.INTRA.SOLV.lig_0>
-48.3454

>  <SCORE.INTRA.VDW>
0

>  <SCORE.INTRA.VDW.0>
0

>  <SCORE.INTRA.norm>
0

>  <SCORE.RESTR>
0

>  <SCORE.RESTR.CAVITY>
0

>  <SCORE.RESTR.norm>
0

>  <SCORE.SYSTEM>
0

>  <SCORE.SYSTEM.CONST>
0

>  <SCORE.SYSTEM.DIHEDRAL>
0

>  <SCORE.SYSTEM.SOLV>
0

>  <SCORE.SYSTEM.norm>
0

>  <SCORE.heavy>
11

>  <SCORE.norm>
-0.93803

>  <RMSD>
3.344

$$$$
ligand
 OpenBabel01301917033D
libRbt.so/2013.1/901 2013/11/27
 11 12  0  0  0  0  0  0  0  0999 V2000
  -11.6135  -12.4025    6.2578 N   0  0  0  0  0  0  0  0  0  0  0  0
  -10.8380  -13.4888    6.1119 C   0  0  0  0  0  0  0  0  0  0  0  0
  -10.2856  -13.7521    4.9311 N   0  0  0  0  0  0  0  0  0  0  0  0
  -10.6233  -14.3180    7.1451 N   0  0  0  0  0  0  0  0  0  0  0  0
  -11.1809  -14.0797    8.3415 C   0  0  0  0  0  0  0  0  0  0  0  0
  -11.9876  -12.9629    8.5196 C   0  0  0  0  0  0  0  0  0  0  0  0
  -12.1931  -12.1172    7.4345 C   0  0  0  0  0  0  0  0  0  0  0  0
  -12.9503  -11.0317    7.5633 N   0  0  0  0  0  0  0  0  0  0  0  0
  -12.4166  -12.9757    9.7780 N   0  0  0  0  0  0  0  0  0  0  0  0
  -11.9057  -14.0522   10.3716 C   0  0  0  0  0  0  0  0  0  0  0  0
  -11.1540  -14.7259    9.5035 N   0  0  0  0  0  0  0  0  0  0  0  0
  1  7  2  0  0  0  0
  1  2  1  0  0  0  0
  2  3  1  0  0  0  0
  2  4  2  0  0  0  0
  4  5  1  0  0  0  0
  5  6  2  0  0  0  0
  5 11  1  0  0  0  0
  6  7  1  0  0  0  0
  6  9  1  0  0  0  0
  7  8  1  0  0  0  0
  9 10  1  0  0  0  0
 10 11  2  0  0  0  0
M  END
>  <CHROM.1>
-11.55465049,-13.25899290,7.79070924,1.13912816,0.93181111,-1.10355376

>  <Name>
ligand

>  <RI>
0

>  <Rbt.Current_Directory>
/home/itssahil/PROJECTS/Mol_Feturizer/New_Systems/rnas/2b57

>  <Rbt.Executable>
rbdock ($Id: //depot/dev/client3/rdock/2013.1/src/exe/rbdock.cxx#4 $)

>  <Rbt.Library>
libRbt.so (2013.1, Build901 2013/11/27)

>  <Rbt.Parameter_File>
/export/apps/rDock/src/rDock_2013.1_src/data/scripts/dock_solv.prm

>  <Rbt.Receptor>
prm/pocket_docking_3.prm

>  <SCORE>
-10.3536

>  <SCORE.INTER>
-10.3536

>  <SCORE.INTER.CONST>
1

>  <SCORE.INTER.POLAR>
0

>  <SCORE.INTER.ROT>
0

>  <SCORE.INTER.SOLV>
18.0543

>  <SCORE.INTER.VDW>
-16.5205

>  <SCORE.INTER.norm>
-0.941236

>  <SCORE.INTRA>
0

>  <SCORE.INTRA.DIHEDRAL>
0

>  <SCORE.INTRA.DIHEDRAL.0>
0

>  <SCORE.INTRA.POLAR>
0

>  <SCORE.INTRA.POLAR.0>
0

>  <SCORE.INTRA.REPUL>
0

>  <SCORE.INTRA.REPUL.0>
0

>  <SCORE.INTRA.SOLV>
0

>  <SCORE.INTRA.SOLV.lig_0>
-48.3454

>  <SCORE.INTRA.VDW>
0

>  <SCORE.INTRA.VDW.0>
0

>  <SCORE.INTRA.norm>
0

>  <SCORE.RESTR>
0

>  <SCORE.RESTR.CAVITY>
0

>  <SCORE.RESTR.norm>
0

>  <SCORE.SYSTEM>
0

>  <SCORE.SYSTEM.CONST>
0

>  <SCORE.SYSTEM.DIHEDRAL>
0

>  <SCORE.SYSTEM.SOLV>
0

>  <SCORE.SYSTEM.norm>
0

>  <SCORE.heavy>
11

>  <SCORE.norm>
-0.941236

>  <RMSD>
3.344

$$$$
ligand
 OpenBabel01301917033D
libRbt.so/2013.1/901 2013/11/27
 11 12  0  0  0  0  0  0  0  0999 V2000
  -11.6526  -12.4004    6.2578 N   0  0  0  0  0  0  0  0  0  0  0  0
  -10.8815  -13.4901    6.1137 C   0  0  0  0  0  0  0  0  0  0  0  0
  -10.3150  -13.7475    4.9382 N   0  0  0  0  0  0  0  0  0  0  0  0
  -10.6853  -14.3283    7.1432 N   0  0  0  0  0  0  0  0  0  0  0  0
  -11.2573  -14.0960    8.3339 C   0  0  0  0  0  0  0  0  0  0  0  0
  -12.0599  -12.9760    8.5099 C   0  0  0  0  0  0  0  0  0  0  0  0
  -12.2461  -12.1207    7.4289 C   0  0  0  0  0  0  0  0  0  0  0  0
  -12.9987  -11.0319    7.5560 N   0  0  0  0  0  0  0  0  0  0  0  0
  -12.5055  -12.9959    9.7625 N   0  0  0  0  0  0  0  0  0  0  0  0
  -12.0087  -14.0798   10.3544 C   0  0  0  0  0  0  0  0  0  0  0  0
  -11.2495  -14.7513    9.4911 N   0  0  0  0  0  0  0  0  0  0  0  0
  1  7  2  0  0  0  0
  1  2  1  0  0  0  0
  2  3  1  0  0  0  0
  2  4  2  0  0  0  0
  4  5  1  0  0  0  0
  5  6  2  0  0  0  0
  5 11  1  0  0  0  0
  6  7  1  0  0  0  0
  6  9  1  0  0  0  0
  7  8  1  0  0  0  0
  9 10  1  0  0  0  0
 10 11  2  0  0  0  0
M  END
>  <CHROM.1>
-11.61901334,-13.26895028,7.78458375,1.11502059,0.93082045,-1.07649511

>  <Name>
ligand

>  <RI>
0

>  <Rbt.Current_Directory>
/home/itssahil/PROJECTS/Mol_Feturizer/New_Systems/rnas/2b57

>  <Rbt.Executable>
rbdock ($Id: //depot/dev/client3/rdock/2013.1/src/exe/rbdock.cxx#4 $)

>  <Rbt.Library>
libRbt.so (2013.1, Build901 2013/11/27)

>  <Rbt.Parameter_File>
/export/apps/rDock/src/rDock_2013.1_src/data/scripts/dock_solv.prm

>  <Rbt.Receptor>
prm/pocket_docking_5.prm

>  <SCORE>
-10.3201

>  <SCORE.INTER>
-10.3201

>  <SCORE.INTER.CONST>
1

>  <SCORE.INTER.POLAR>
0

>  <SCORE.INTER.ROT>
0

>  <SCORE.INTER.SOLV>
18.0687

>  <SCORE.INTER.VDW>
-16.5029

>  <SCORE.INTER.norm>
-0.938187

>  <SCORE.INTRA>
0

>  <SCORE.INTRA.DIHEDRAL>
0

>  <SCORE.INTRA.DIHEDRAL.0>
0

>  <SCORE.INTRA.POLAR>
0

>  <SCORE.INTRA.POLAR.0>
0

>  <SCORE.INTRA.REPUL>
0

>  <SCORE.INTRA.REPUL.0>
0

>  <SCORE.INTRA.SOLV>
0

>  <SCORE.INTRA.SOLV.lig_0>
-48.3454

>  <SCORE.INTRA.VDW>
0

>  <SCORE.INTRA.VDW.0>
0

>  <SCORE.INTRA.norm>
0

>  <SCORE.RESTR>
0

>  <SCORE.RESTR.CAVITY>
0

>  <SCORE.RESTR.norm>
0

>  <SCORE.SYSTEM>
0

>  <SCORE.SYSTEM.CONST>
0

>  <SCORE.SYSTEM.DIHEDRAL>
0

>  <SCORE.SYSTEM.SOLV>
0

>  <SCORE.SYSTEM.norm>
0

>  <SCORE.heavy>
11

>  <SCORE.norm>
-0.938187

>  <RMSD>
3.344

$$$$
ligand
 OpenBabel01301917033D
libRbt.so/2013.1/901 2013/11/27
 11 12  0  0  0  0  0  0  0  0999 V2000
  -11.6647  -12.4035    6.2585 N   0  0  0  0  0  0  0  0  0  0  0  0
  -10.9067  -13.5011    6.1049 C   0  0  0  0  0  0  0  0  0  0  0  0
  -10.3739  -13.7748    4.9174 N   0  0  0  0  0  0  0  0  0  0  0  0
  -10.6900  -14.3308    7.1372 N   0  0  0  0  0  0  0  0  0  0  0  0
  -11.2282  -14.0820    8.3402 C   0  0  0  0  0  0  0  0  0  0  0  0
  -12.0165  -12.9535    8.5263 C   0  0  0  0  0  0  0  0  0  0  0  0
  -12.2245  -12.1074    7.4421 C   0  0  0  0  0  0  0  0  0  0  0  0
  -12.9645  -11.0110    7.5782 N   0  0  0  0  0  0  0  0  0  0  0  0
  -12.4288  -12.9574    9.7905 N   0  0  0  0  0  0  0  0  0  0  0  0
  -11.9253  -14.0396   10.3797 C   0  0  0  0  0  0  0  0  0  0  0  0
  -11.1949  -14.7260    9.5034 N   0  0  0  0  0  0  0  0  0  0  0  0
  1  7  2  0  0  0  0
  1  2  1  0  0  0  0
  2  3  1  0  0  0  0
  2  4  2  0  0  0  0
  4  5  1  0  0  0  0
  5  6  2  0  0  0  0
  5 11  1  0  0  0  0
  6  7  1  0  0  0  0
  6  9  1  0  0  0  0
  7  8  1  0  0  0  0
  9 10  1  0  0  0  0
 10 11  2  0  0  0  0
M  END
>  <CHROM.1>
-11.59757713,-13.25733332,7.79249950,1.14868988,0.95044260,-1.11362973

>  <Name>
ligand

>  <RI>
0

>  <Rbt.Current_Directory>
/home/itssahil/PROJECTS/Mol_Feturizer/New_Systems/rnas/2b57

>  <Rbt.Executable>
rbdock ($Id: //depot/dev/client3/rdock/2013.1/src/exe/rbdock.cxx#4 $)

>  <Rbt.Library>
libRbt.so (2013.1, Build901 2013/11/27)

>  <Rbt.Parameter_File>
/export/apps/rDock/src/rDock_2013.1_src/data/scripts/dock_solv.prm

>  <Rbt.Receptor>
prm/pocket_docking_7.prm

>  <SCORE>
-10.3274

>  <SCORE.INTER>
-10.3274

>  <SCORE.INTER.CONST>
1

>  <SCORE.INTER.POLAR>
0

>  <SCORE.INTER.ROT>
0

>  <SCORE.INTER.SOLV>
18.288

>  <SCORE.INTER.VDW>
-16.5809

>  <SCORE.INTER.norm>
-0.938851

>  <SCORE.INTRA>
0

>  <SCORE.INTRA.DIHEDRAL>
0

>  <SCORE.INTRA.DIHEDRAL.0>
0

>  <SCORE.INTRA.POLAR>
0

>  <SCORE.INTRA.POLAR.0>
0

>  <SCORE.INTRA.REPUL>
0

>  <SCORE.INTRA.REPUL.0>
0

>  <SCORE.INTRA.SOLV>
0

>  <SCORE.INTRA.SOLV.lig_0>
-48.3454

>  <SCORE.INTRA.VDW>
0

>  <SCORE.INTRA.VDW.0>
0

>  <SCORE.INTRA.norm>
0

>  <SCORE.RESTR>
0

>  <SCORE.RESTR.CAVITY>
0

>  <SCORE.RESTR.norm>
0

>  <SCORE.SYSTEM>
0

>  <SCORE.SYSTEM.CONST>
0

>  <SCORE.SYSTEM.DIHEDRAL>
0

>  <SCORE.SYSTEM.SOLV>
0

>  <SCORE.SYSTEM.norm>
0

>  <SCORE.heavy>
11

>  <SCORE.norm>
-0.938851

>  <RMSD>
3.344

$$$$
ligand
 OpenBabel01301917033D
libRbt.so/2013.1/901 2013/11/27
 11 12  0  0  0  0  0  0  0  0999 V2000
  -11.6696  -12.4063    6.2070 N   0  0  0  0  0  0  0  0  0  0  0  0
  -10.9043  -13.4991    6.0559 C   0  0  0  0  0  0  0  0  0  0  0  0
  -10.3735  -13.7746    4.8679 N   0  0  0  0  0  0  0  0  0  0  0  0
  -10.6784  -14.3226    7.0912 N   0  0  0  0  0  0  0  0  0  0  0  0
  -11.2144  -14.0721    8.2949 C   0  0  0  0  0  0  0  0  0  0  0  0
  -12.0100  -12.9483    8.4784 C   0  0  0  0  0  0  0  0  0  0  0  0
  -12.2276  -12.1087    7.3910 C   0  0  0  0  0  0  0  0  0  0  0  0
  -12.9748  -11.0169    7.5246 N   0  0  0  0  0  0  0  0  0  0  0  0
  -12.4182  -12.9493    9.7439 N   0  0  0  0  0  0  0  0  0  0  0  0
  -11.9051  -14.0253   10.3364 C   0  0  0  0  0  0  0  0  0  0  0  0
  -11.1728  -14.7105    9.4608 N   0  0  0  0  0  0  0  0  0  0  0  0
  1  7  2  0  0  0  0
  1  2  1  0  0  0  0
  2  3  1  0  0  0  0
  2  4  2  0  0  0  0
  4  5  1  0  0  0  0
  5  6  2  0  0  0  0
  5 11  1  0  0  0  0
  6  7  1  0  0  0  0
  6  9  1  0  0  0  0
  7  8  1  0  0  0  0
  9 10  1  0  0  0  0
 10 11  2  0  0  0  0
M  END
>  <CHROM.1>
-11.59138104,-13.25254359,7.74462077,1.15901304,0.94550973,-1.12657451

>  <Name>
ligand

>  <RI>
0

>  <Rbt.Current_Directory>
/home/itssahil/PROJECTS/Mol_Feturizer/New_Systems/rnas/2b57

>  <Rbt.Executable>
rbdock ($Id: //depot/dev/client3/rdock/2013.1/src/exe/rbdock.cxx#4 $)

>  <Rbt.Library>
libRbt.so (2013.1, Build901 2013/11/27)

>  <Rbt.Parameter_File>
/export/apps/rDock/src/rDock_2013.1_src/data/scripts/dock_solv.prm

>  <Rbt.Receptor>
prm/blind_docking_40.prm

>  <SCORE>
-10.295

>  <SCORE.INTER>
-10.295

>  <SCORE.INTER.CONST>
1

>  <SCORE.INTER.POLAR>
0

>  <SCORE.INTER.ROT>
0

>  <SCORE.INTER.SOLV>
18.5235

>  <SCORE.INTER.VDW>
-16.6379

>  <SCORE.INTER.norm>
-0.935909

>  <SCORE.INTRA>
0

>  <SCORE.INTRA.DIHEDRAL>
0

>  <SCORE.INTRA.DIHEDRAL.0>
0

>  <SCORE.INTRA.POLAR>
0

>  <SCORE.INTRA.POLAR.0>
0

>  <SCORE.INTRA.REPUL>
0

>  <SCORE.INTRA.REPUL.0>
0

>  <SCORE.INTRA.SOLV>
0

>  <SCORE.INTRA.SOLV.lig_0>
-48.3454

>  <SCORE.INTRA.VDW>
0

>  <SCORE.INTRA.VDW.0>
0

>  <SCORE.INTRA.norm>
0

>  <SCORE.RESTR>
0

>  <SCORE.RESTR.CAVITY>
0

>  <SCORE.RESTR.norm>
0

>  <SCORE.SYSTEM>
0

>  <SCORE.SYSTEM.CONST>
0

>  <SCORE.SYSTEM.DIHEDRAL>
0

>  <SCORE.SYSTEM.SOLV>
0

>  <SCORE.SYSTEM.norm>
0

>  <SCORE.heavy>
11

>  <SCORE.norm>
-0.935909

>  <RMSD>
3.345

$$$$
ligand
 OpenBabel01301917033D
libRbt.so/2013.1/901 2013/11/27
 11 12  0  0  0  0  0  0  0  0999 V2000
  -11.6817  -12.4200    6.2506 N   0  0  0  0  0  0  0  0  0  0  0  0
  -10.9069  -13.5072    6.1082 C   0  0  0  0  0  0  0  0  0  0  0  0
  -10.3468  -13.7694    4.9306 N   0  0  0  0  0  0  0  0  0  0  0  0
  -10.7003  -14.3382    7.1415 N   0  0  0  0  0  0  0  0  0  0  0  0
  -11.2656  -14.1011    8.3344 C   0  0  0  0  0  0  0  0  0  0  0  0
  -12.0719  -12.9834    8.5088 C   0  0  0  0  0  0  0  0  0  0  0  0
  -12.2689  -12.1357    7.4238 C   0  0  0  0  0  0  0  0  0  0  0  0
  -13.0254  -11.0493    7.5491 N   0  0  0  0  0  0  0  0  0  0  0  0
  -12.5094  -12.9976    9.7644 N   0  0  0  0  0  0  0  0  0  0  0  0
  -12.0040  -14.0756   10.3596 C   0  0  0  0  0  0  0  0  0  0  0  0
  -11.2475  -14.7492    9.4956 N   0  0  0  0  0  0  0  0  0  0  0  0
  1  7  2  0  0  0  0
  1  2  1  0  0  0  0
  2  3  1  0  0  0  0
  2  4  2  0  0  0  0
  4  5  1  0  0  0  0
  5  6  2  0  0  0  0
  5 11  1  0  0  0  0
  6  7  1  0  0  0  0
  6  9  1  0  0  0  0
  7  8  1  0  0  0  0
  9 10  1  0  0  0  0
 10 11  2  0  0  0  0
M  END
>  <CHROM.1>
-11.63448055,-13.27894123,7.78246334,1.12798664,0.93001973,-1.09304224

>  <Name>
ligand

>  <RI>
0

>  <Rbt.Current_Directory>
/home/itssahil/PROJECTS/Mol_Feturizer/New_Systems/rnas/2b57

>  <Rbt.Executable>
rbdock ($Id: //depot/dev/client3/rdock/2013.1/src/exe/rbdock.cxx#4 $)

>  <Rbt.Library>
libRbt.so (2013.1, Build901 2013/11/27)

>  <Rbt.Parameter_File>
/export/apps/rDock/src/rDock_2013.1_src/data/scripts/dock_solv.prm

>  <Rbt.Receptor>
prm/blind_docking_100.prm

>  <SCORE>
-10.2785

>  <SCORE.INTER>
-10.2785

>  <SCORE.INTER.CONST>
1

>  <SCORE.INTER.POLAR>
0

>  <SCORE.INTER.ROT>
0

>  <SCORE.INTER.SOLV>
18.1363

>  <SCORE.INTER.VDW>
-16.4978

>  <SCORE.INTER.norm>
-0.934411

>  <SCORE.INTRA>
0

>  <SCORE.INTRA.DIHEDRAL>
0

>  <SCORE.INTRA.DIHEDRAL.0>
0

>  <SCORE.INTRA.POLAR>
0

>  <SCORE.INTRA.POLAR.0>
0

>  <SCORE.INTRA.REPUL>
0

>  <SCORE.INTRA.REPUL.0>
0

>  <SCORE.INTRA.SOLV>
0

>  <SCORE.INTRA.SOLV.lig_0>
-48.3454

>  <SCORE.INTRA.VDW>
0

>  <SCORE.INTRA.VDW.0>
0

>  <SCORE.INTRA.norm>
0

>  <SCORE.RESTR>
0

>  <SCORE.RESTR.CAVITY>
0

>  <SCORE.RESTR.norm>
0

>  <SCORE.SYSTEM>
0

>  <SCORE.SYSTEM.CONST>
0

>  <SCORE.SYSTEM.DIHEDRAL>
0

>  <SCORE.SYSTEM.SOLV>
0

>  <SCORE.SYSTEM.norm>
0

>  <SCORE.heavy>
11

>  <SCORE.norm>
-0.934411

>  <RMSD>
3.346

$$$$
ligand
 OpenBabel01301917033D
libRbt.so/2013.1/901 2013/11/27
 11 12  0  0  0  0  0  0  0  0999 V2000
  -11.6696  -12.4223    6.2446 N   0  0  0  0  0  0  0  0  0  0  0  0
  -10.8901  -13.5058    6.0992 C   0  0  0  0  0  0  0  0  0  0  0  0
  -10.3510  -13.7773    4.9139 N   0  0  0  0  0  0  0  0  0  0  0  0
  -10.6580  -14.3241    7.1373 N   0  0  0  0  0  0  0  0  0  0  0  0
  -11.2019  -14.0776    8.3382 C   0  0  0  0  0  0  0  0  0  0  0  0
  -12.0124  -12.9635    8.5160 C   0  0  0  0  0  0  0  0  0  0  0  0
  -12.2360  -12.1291    7.4258 C   0  0  0  0  0  0  0  0  0  0  0  0
  -12.9974  -11.0465    7.5539 N   0  0  0  0  0  0  0  0  0  0  0  0
  -12.4255  -12.9667    9.7798 N   0  0  0  0  0  0  0  0  0  0  0  0
  -11.9014  -14.0348   10.3769 C   0  0  0  0  0  0  0  0  0  0  0  0
  -11.1570  -14.7127    9.5058 N   0  0  0  0  0  0  0  0  0  0  0  0
  1  7  2  0  0  0  0
  1  2  1  0  0  0  0
  2  3  1  0  0  0  0
  2  4  2  0  0  0  0
  4  5  1  0  0  0  0
  5  6  2  0  0  0  0
  5 11  1  0  0  0  0
  6  7  1  0  0  0  0
  6  9  1  0  0  0  0
  7  8  1  0  0  0  0
  9 10  1  0  0  0  0
 10 11  2  0  0  0  0
M  END
>  <CHROM.1>
-11.58697951,-13.26406029,7.78457046,1.16195988,0.93245501,-1.13124990

>  <Name>
ligand

>  <RI>
0

>  <Rbt.Current_Directory>
/home/itssahil/PROJECTS/Mol_Feturizer/New_Systems/rnas/2b57

>  <Rbt.Executable>
rbdock ($Id: //depot/dev/client3/rdock/2013.1/src/exe/rbdock.cxx#4 $)

>  <Rbt.Library>
libRbt.so (2013.1, Build901 2013/11/27)

>  <Rbt.Parameter_File>
/export/apps/rDock/src/rDock_2013.1_src/data/scripts/dock_solv.prm

>  <Rbt.Receptor>
prm/blind_docking_40.prm

>  <SCORE>
-10.3749

>  <SCORE.INTER>
-10.3749

>  <SCORE.INTER.CONST>
1

>  <SCORE.INTER.POLAR>
0

>  <SCORE.INTER.ROT>
0

>  <SCORE.INTER.SOLV>
18.2269

>  <SCORE.INTER.VDW>
-16.5922

>  <SCORE.INTER.norm>
-0.943174

>  <SCORE.INTRA>
0

>  <SCORE.INTRA.DIHEDRAL>
0

>  <SCORE.INTRA.DIHEDRAL.0>
0

>  <SCORE.INTRA.POLAR>
0

>  <SCORE.INTRA.POLAR.0>
0

>  <SCORE.INTRA.REPUL>
0

>  <SCORE.INTRA.REPUL.0>
0

>  <SCORE.INTRA.SOLV>
0

>  <SCORE.INTRA.SOLV.lig_0>
-48.3454

>  <SCORE.INTRA.VDW>
0

>  <SCORE.INTRA.VDW.0>
0

>  <SCORE.INTRA.norm>
0

>  <SCORE.RESTR>
0

>  <SCORE.RESTR.CAVITY>
0

>  <SCORE.RESTR.norm>
0

>  <SCORE.SYSTEM>
0

>  <SCORE.SYSTEM.CONST>
0

>  <SCORE.SYSTEM.DIHEDRAL>
0

>  <SCORE.SYSTEM.SOLV>
0

>  <SCORE.SYSTEM.norm>
0

>  <SCORE.heavy>
11

>  <SCORE.norm>
-0.943174

>  <RMSD>
3.346

$$$$
ligand
 OpenBabel01301917033D
libRbt.so/2013.1/901 2013/11/27
 11 12  0  0  0  0  0  0  0  0999 V2000
  -11.6679  -12.4199    6.2365 N   0  0  0  0  0  0  0  0  0  0  0  0
  -10.8873  -13.5030    6.0942 C   0  0  0  0  0  0  0  0  0  0  0  0
  -10.3470  -13.7767    4.9100 N   0  0  0  0  0  0  0  0  0  0  0  0
  -10.6553  -14.3186    7.1344 N   0  0  0  0  0  0  0  0  0  0  0  0
  -11.2004  -14.0698    8.3343 C   0  0  0  0  0  0  0  0  0  0  0  0
  -12.0120  -12.9560    8.5088 C   0  0  0  0  0  0  0  0  0  0  0  0
  -12.2355  -12.1244    7.4165 C   0  0  0  0  0  0  0  0  0  0  0  0
  -12.9980  -11.0422    7.5415 N   0  0  0  0  0  0  0  0  0  0  0  0
  -12.4262  -12.9567    9.7723 N   0  0  0  0  0  0  0  0  0  0  0  0
  -11.9016  -14.0229   10.3723 C   0  0  0  0  0  0  0  0  0  0  0  0
  -11.1559  -14.7022    9.5034 N   0  0  0  0  0  0  0  0  0  0  0  0
  1  7  2  0  0  0  0
  1  2  1  0  0  0  0
  2  3  1  0  0  0  0
  2  4  2  0  0  0  0
  4  5  1  0  0  0  0
  5  6  2  0  0  0  0
  5 11  1  0  0  0  0
  6  7  1  0  0  0  0
  6  9  1  0  0  0  0
  7  8  1  0  0  0  0
  9 10  1  0  0  0  0
 10 11  2  0  0  0  0
M  END
>  <CHROM.1>
-11.58575499,-13.25794112,7.77846116,1.16137679,0.93128895,-1.13310455

>  <Name>
ligand

>  <RI>
0

>  <Rbt.Current_Directory>
/home/itssahil/PROJECTS/Mol_Feturizer/New_Systems/rnas/2b57

>  <Rbt.Executable>
rbdock ($Id: //depot/dev/client3/rdock/2013.1/src/exe/rbdock.cxx#4 $)

>  <Rbt.Library>
libRbt.so (2013.1, Build901 2013/11/27)

>  <Rbt.Parameter_File>
/export/apps/rDock/src/rDock_2013.1_src/data/scripts/dock_solv.prm

>  <Rbt.Receptor>
prm/blind_docking_40.prm

>  <SCORE>
-10.3757

>  <SCORE.INTER>
-10.3757

>  <SCORE.INTER.CONST>
1

>  <SCORE.INTER.POLAR>
0

>  <SCORE.INTER.ROT>
0

>  <SCORE.INTER.SOLV>
18.2399

>  <SCORE.INTER.VDW>
-16.5971

>  <SCORE.INTER.norm>
-0.943249

>  <SCORE.INTRA>
0

>  <SCORE.INTRA.DIHEDRAL>
0

>  <SCORE.INTRA.DIHEDRAL.0>
0

>  <SCORE.INTRA.POLAR>
0

>  <SCORE.INTRA.POLAR.0>
0

>  <SCORE.INTRA.REPUL>
0

>  <SCORE.INTRA.REPUL.0>
0

>  <SCORE.INTRA.SOLV>
0

>  <SCORE.INTRA.SOLV.lig_0>
-48.3454

>  <SCORE.INTRA.VDW>
0

>  <SCORE.INTRA.VDW.0>
0

>  <SCORE.INTRA.norm>
0

>  <SCORE.RESTR>
0

>  <SCORE.RESTR.CAVITY>
0

>  <SCORE.RESTR.norm>
0

>  <SCORE.SYSTEM>
0

>  <SCORE.SYSTEM.CONST>
0

>  <SCORE.SYSTEM.DIHEDRAL>
0

>  <SCORE.SYSTEM.SOLV>
0

>  <SCORE.SYSTEM.norm>
0

>  <SCORE.heavy>
11

>  <SCORE.norm>
-0.943249

>  <RMSD>
3.346

$$$$
ligand
 OpenBabel01301917033D
libRbt.so/2013.1/901 2013/11/27
 11 12  0  0  0  0  0  0  0  0999 V2000
  -11.6764  -12.4164    6.2203 N   0  0  0  0  0  0  0  0  0  0  0  0
  -10.8956  -13.5005    6.0874 C   0  0  0  0  0  0  0  0  0  0  0  0
  -10.3430  -13.7761    4.9094 N   0  0  0  0  0  0  0  0  0  0  0  0
  -10.6756  -14.3152    7.1310 N   0  0  0  0  0  0  0  0  0  0  0  0
  -11.2332  -14.0645    8.3248 C   0  0  0  0  0  0  0  0  0  0  0  0
  -12.0454  -12.9496    8.4894 C   0  0  0  0  0  0  0  0  0  0  0  0
  -12.2563  -12.1189    7.3939 C   0  0  0  0  0  0  0  0  0  0  0  0
  -13.0189  -11.0358    7.5095 N   0  0  0  0  0  0  0  0  0  0  0  0
  -12.4730  -12.9485    9.7484 N   0  0  0  0  0  0  0  0  0  0  0  0
  -11.9560  -14.0146   10.3551 C   0  0  0  0  0  0  0  0  0  0  0  0
  -11.2018  -14.6956    9.4949 N   0  0  0  0  0  0  0  0  0  0  0  0
  1  7  2  0  0  0  0
  1  2  1  0  0  0  0
  2  3  1  0  0  0  0
  2  4  2  0  0  0  0
  4  5  1  0  0  0  0
  5  6  2  0  0  0  0
  5 11  1  0  0  0  0
  6  7  1  0  0  0  0
  6  9  1  0  0  0  0
  7  8  1  0  0  0  0
  9 10  1  0  0  0  0
 10 11  2  0  0  0  0
M  END
>  <CHROM.1>
-11.61166939,-13.25281584,7.76392861,1.14450877,0.92770701,-1.12069035

>  <Name>
ligand

>  <RI>
0

>  <Rbt.Current_Directory>
/home/itssahil/PROJECTS/Mol_Feturizer/New_Systems/rnas/2b57

>  <Rbt.Executable>
rbdock ($Id: //depot/dev/client3/rdock/2013.1/src/exe/rbdock.cxx#4 $)

>  <Rbt.Library>
libRbt.so (2013.1, Build901 2013/11/27)

>  <Rbt.Parameter_File>
/export/apps/rDock/src/rDock_2013.1_src/data/scripts/dock_solv.prm

>  <Rbt.Receptor>
prm/pocket_docking_5.prm

>  <SCORE>
-10.3774

>  <SCORE.INTER>
-10.3774

>  <SCORE.INTER.CONST>
1

>  <SCORE.INTER.POLAR>
0

>  <SCORE.INTER.ROT>
0

>  <SCORE.INTER.SOLV>
18.2337

>  <SCORE.INTER.VDW>
-16.5962

>  <SCORE.INTER.norm>
-0.943399

>  <SCORE.INTRA>
0

>  <SCORE.INTRA.DIHEDRAL>
0

>  <SCORE.INTRA.DIHEDRAL.0>
0

>  <SCORE.INTRA.POLAR>
0

>  <SCORE.INTRA.POLAR.0>
0

>  <SCORE.INTRA.REPUL>
0

>  <SCORE.INTRA.REPUL.0>
0

>  <SCORE.INTRA.SOLV>
0

>  <SCORE.INTRA.SOLV.lig_0>
-48.3454

>  <SCORE.INTRA.VDW>
0

>  <SCORE.INTRA.VDW.0>
0

>  <SCORE.INTRA.norm>
0

>  <SCORE.RESTR>
0

>  <SCORE.RESTR.CAVITY>
0

>  <SCORE.RESTR.norm>
0

>  <SCORE.SYSTEM>
0

>  <SCORE.SYSTEM.CONST>
0

>  <SCORE.SYSTEM.DIHEDRAL>
0

>  <SCORE.SYSTEM.SOLV>
0

>  <SCORE.SYSTEM.norm>
0

>  <SCORE.heavy>
11

>  <SCORE.norm>
-0.943399

>  <RMSD>
3.346

$$$$
ligand
 OpenBabel01301917033D
libRbt.so/2013.1/901 2013/11/27
 11 12  0  0  0  0  0  0  0  0999 V2000
  -11.6749  -12.4166    6.2228 N   0  0  0  0  0  0  0  0  0  0  0  0
  -10.8899  -13.4976    6.0893 C   0  0  0  0  0  0  0  0  0  0  0  0
  -10.3358  -13.7700    4.9113 N   0  0  0  0  0  0  0  0  0  0  0  0
  -10.6673  -14.3124    7.1322 N   0  0  0  0  0  0  0  0  0  0  0  0
  -11.2264  -14.0649    8.3260 C   0  0  0  0  0  0  0  0  0  0  0  0
  -12.0429  -12.9533    8.4913 C   0  0  0  0  0  0  0  0  0  0  0  0
  -12.2565  -12.1224    7.3964 C   0  0  0  0  0  0  0  0  0  0  0  0
  -13.0232  -11.0423    7.5127 N   0  0  0  0  0  0  0  0  0  0  0  0
  -12.4711  -12.9550    9.7501 N   0  0  0  0  0  0  0  0  0  0  0  0
  -11.9504  -14.0197   10.3560 C   0  0  0  0  0  0  0  0  0  0  0  0
  -11.1932  -14.6970    9.4956 N   0  0  0  0  0  0  0  0  0  0  0  0
  1  7  2  0  0  0  0
  1  2  1  0  0  0  0
  2  3  1  0  0  0  0
  2  4  2  0  0  0  0
  4  5  1  0  0  0  0
  5  6  2  0  0  0  0
  5 11  1  0  0  0  0
  6  7  1  0  0  0  0
  6  9  1  0  0  0  0
  7  8  1  0  0  0  0
  9 10  1  0  0  0  0
 10 11  2  0  0  0  0
M  END
>  <CHROM.1>
-11.60772916,-13.25419241,7.76570048,1.14654342,0.92409948,-1.12138734

>  <Name>
ligand

>  <RI>
0

>  <Rbt.Current_Directory>
/home/itssahil/PROJECTS/Mol_Feturizer/New_Systems/rnas/2b57

>  <Rbt.Executable>
rbdock ($Id: //depot/dev/client3/rdock/2013.1/src/exe/rbdock.cxx#4 $)

>  <Rbt.Library>
libRbt.so (2013.1, Build901 2013/11/27)

>  <Rbt.Parameter_File>
/export/apps/rDock/src/rDock_2013.1_src/data/scripts/dock_solv.prm

>  <Rbt.Receptor>
prm/pocket_docking_5.prm

>  <SCORE>
-10.3787

>  <SCORE.INTER>
-10.3787

>  <SCORE.INTER.CONST>
1

>  <SCORE.INTER.POLAR>
0

>  <SCORE.INTER.ROT>
0

>  <SCORE.INTER.SOLV>
18.203

>  <SCORE.INTER.VDW>
-16.5868

>  <SCORE.INTER.norm>
-0.94352

>  <SCORE.INTRA>
0

>  <SCORE.INTRA.DIHEDRAL>
0

>  <SCORE.INTRA.DIHEDRAL.0>
0

>  <SCORE.INTRA.POLAR>
0

>  <SCORE.INTRA.POLAR.0>
0

>  <SCORE.INTRA.REPUL>
0

>  <SCORE.INTRA.REPUL.0>
0

>  <SCORE.INTRA.SOLV>
0

>  <SCORE.INTRA.SOLV.lig_0>
-48.3454

>  <SCORE.INTRA.VDW>
0

>  <SCORE.INTRA.VDW.0>
0

>  <SCORE.INTRA.norm>
0

>  <SCORE.RESTR>
0

>  <SCORE.RESTR.CAVITY>
0

>  <SCORE.RESTR.norm>
0

>  <SCORE.SYSTEM>
0

>  <SCORE.SYSTEM.CONST>
0

>  <SCORE.SYSTEM.DIHEDRAL>
0

>  <SCORE.SYSTEM.SOLV>
0

>  <SCORE.SYSTEM.norm>
0

>  <SCORE.heavy>
11

>  <SCORE.norm>
-0.94352

>  <RMSD>
3.346

$$$$
ligand
 OpenBabel01301917033D
libRbt.so/2013.1/901 2013/11/27
 11 12  0  0  0  0  0  0  0  0999 V2000
  -11.6742  -12.4201    6.2311 N   0  0  0  0  0  0  0  0  0  0  0  0
  -10.8909  -13.5016    6.0914 C   0  0  0  0  0  0  0  0  0  0  0  0
  -10.3497  -13.7767    4.9080 N   0  0  0  0  0  0  0  0  0  0  0  0
  -10.6570  -14.3142    7.1336 N   0  0  0  0  0  0  0  0  0  0  0  0
  -11.2030  -14.0640    8.3328 C   0  0  0  0  0  0  0  0  0  0  0  0
  -12.0174  -12.9519    8.5046 C   0  0  0  0  0  0  0  0  0  0  0  0
  -12.2428  -12.1233    7.4103 C   0  0  0  0  0  0  0  0  0  0  0  0
  -13.0081  -11.0428    7.5326 N   0  0  0  0  0  0  0  0  0  0  0  0
  -12.4319  -12.9507    9.7680 N   0  0  0  0  0  0  0  0  0  0  0  0
  -11.9047  -14.0142   10.3706 C   0  0  0  0  0  0  0  0  0  0  0  0
  -11.1571  -14.6936    9.5034 N   0  0  0  0  0  0  0  0  0  0  0  0
  1  7  2  0  0  0  0
  1  2  1  0  0  0  0
  2  3  1  0  0  0  0
  2  4  2  0  0  0  0
  4  5  1  0  0  0  0
  5  6  2  0  0  0  0
  5 11  1  0  0  0  0
  6  7  1  0  0  0  0
  6  9  1  0  0  0  0
  7  8  1  0  0  0  0
  9 10  1  0  0  0  0
 10 11  2  0  0  0  0
M  END
>  <CHROM.1>
-11.59028254,-13.25442156,7.77500150,1.16284632,0.92893580,-1.13659834

>  <Name>
ligand

>  <RI>
0

>  <Rbt.Current_Directory>
/home/itssahil/PROJECTS/Mol_Feturizer/New_Systems/rnas/2b57

>  <Rbt.Executable>
rbdock ($Id: //depot/dev/client3/rdock/2013.1/src/exe/rbdock.cxx#4 $)

>  <Rbt.Library>
libRbt.so (2013.1, Build901 2013/11/27)

>  <Rbt.Parameter_File>
/export/apps/rDock/src/rDock_2013.1_src/data/scripts/dock_solv.prm

>  <Rbt.Receptor>
prm/pocket_docking_6.prm

>  <SCORE>
-10.3773

>  <SCORE.INTER>
-10.3773

>  <SCORE.INTER.CONST>
1

>  <SCORE.INTER.POLAR>
0

>  <SCORE.INTER.ROT>
0

>  <SCORE.INTER.SOLV>
18.2472

>  <SCORE.INTER.VDW>
-16.6006

>  <SCORE.INTER.norm>
-0.943392

>  <SCORE.INTRA>
0

>  <SCORE.INTRA.DIHEDRAL>
0

>  <SCORE.INTRA.DIHEDRAL.0>
0

>  <SCORE.INTRA.POLAR>
0

>  <SCORE.INTRA.POLAR.0>
0

>  <SCORE.INTRA.REPUL>
0

>  <SCORE.INTRA.REPUL.0>
0

>  <SCORE.INTRA.SOLV>
0

>  <SCORE.INTRA.SOLV.lig_0>
-48.3454

>  <SCORE.INTRA.VDW>
0

>  <SCORE.INTRA.VDW.0>
0

>  <SCORE.INTRA.norm>
0

>  <SCORE.RESTR>
0

>  <SCORE.RESTR.CAVITY>
0

>  <SCORE.RESTR.norm>
0

>  <SCORE.SYSTEM>
0

>  <SCORE.SYSTEM.CONST>
0

>  <SCORE.SYSTEM.DIHEDRAL>
0

>  <SCORE.SYSTEM.SOLV>
0

>  <SCORE.SYSTEM.norm>
0

>  <SCORE.heavy>
11

>  <SCORE.norm>
-0.943392

>  <RMSD>
3.346

$$$$
ligand
 OpenBabel01301917033D
libRbt.so/2013.1/901 2013/11/27
 11 12  0  0  0  0  0  0  0  0999 V2000
  -11.6860  -12.4234    6.2435 N   0  0  0  0  0  0  0  0  0  0  0  0
  -10.9010  -13.5031    6.0997 C   0  0  0  0  0  0  0  0  0  0  0  0
  -10.3612  -13.7741    4.9147 N   0  0  0  0  0  0  0  0  0  0  0  0
  -10.6641  -14.3182    7.1392 N   0  0  0  0  0  0  0  0  0  0  0  0
  -11.2087  -14.0721    8.3400 C   0  0  0  0  0  0  0  0  0  0  0  0
  -12.0248  -12.9619    8.5161 C   0  0  0  0  0  0  0  0  0  0  0  0
  -12.2533  -12.1308    7.4244 C   0  0  0  0  0  0  0  0  0  0  0  0
  -13.0202  -11.0519    7.5508 N   0  0  0  0  0  0  0  0  0  0  0  0
  -12.4372  -12.9649    9.7801 N   0  0  0  0  0  0  0  0  0  0  0  0
  -11.9073  -14.0291   10.3790 C   0  0  0  0  0  0  0  0  0  0  0  0
  -11.1599  -14.7048    9.5088 N   0  0  0  0  0  0  0  0  0  0  0  0
  1  7  2  0  0  0  0
  1  2  1  0  0  0  0
  2  3  1  0  0  0  0
  2  4  2  0  0  0  0
  4  5  1  0  0  0  0
  5  6  2  0  0  0  0
  5 11  1  0  0  0  0
  6  7  1  0  0  0  0
  6  9  1  0  0  0  0
  7  8  1  0  0  0  0
  9 10  1  0  0  0  0
 10 11  2  0  0  0  0
M  END
>  <CHROM.1>
-11.59822011,-13.26170789,7.78498075,1.16641809,0.92800667,-1.13674867

>  <Name>
ligand

>  <RI>
0

>  <Rbt.Current_Directory>
/home/itssahil/PROJECTS/Mol_Feturizer/New_Systems/rnas/2b57

>  <Rbt.Executable>
rbdock ($Id: //depot/dev/client3/rdock/2013.1/src/exe/rbdock.cxx#4 $)

>  <Rbt.Library>
libRbt.so (2013.1, Build901 2013/11/27)

>  <Rbt.Parameter_File>
/export/apps/rDock/src/rDock_2013.1_src/data/scripts/dock_solv.prm

>  <Rbt.Receptor>
prm/blind_docking_100.prm

>  <SCORE>
-10.3814

>  <SCORE.INTER>
-10.3814

>  <SCORE.INTER.CONST>
1

>  <SCORE.INTER.POLAR>
0

>  <SCORE.INTER.ROT>
0

>  <SCORE.INTER.SOLV>
18.2226

>  <SCORE.INTER.VDW>
-16.5951

>  <SCORE.INTER.norm>
-0.943763

>  <SCORE.INTRA>
0

>  <SCORE.INTRA.DIHEDRAL>
0

>  <SCORE.INTRA.DIHEDRAL.0>
0

>  <SCORE.INTRA.POLAR>
0

>  <SCORE.INTRA.POLAR.0>
0

>  <SCORE.INTRA.REPUL>
0

>  <SCORE.INTRA.REPUL.0>
0

>  <SCORE.INTRA.SOLV>
0

>  <SCORE.INTRA.SOLV.lig_0>
-48.3454

>  <SCORE.INTRA.VDW>
0

>  <SCORE.INTRA.VDW.0>
0

>  <SCORE.INTRA.norm>
0

>  <SCORE.RESTR>
0

>  <SCORE.RESTR.CAVITY>
0

>  <SCORE.RESTR.norm>
0

>  <SCORE.SYSTEM>
0

>  <SCORE.SYSTEM.CONST>
0

>  <SCORE.SYSTEM.DIHEDRAL>
0

>  <SCORE.SYSTEM.SOLV>
0

>  <SCORE.SYSTEM.norm>
0

>  <SCORE.heavy>
11

>  <SCORE.norm>
-0.943763

>  <RMSD>
3.347

$$$$
ligand
 OpenBabel01301917033D
libRbt.so/2013.1/901 2013/11/27
 11 12  0  0  0  0  0  0  0  0999 V2000
  -11.6419  -12.4132    6.2498 N   0  0  0  0  0  0  0  0  0  0  0  0
  -10.8464  -13.4862    6.1141 C   0  0  0  0  0  0  0  0  0  0  0  0
  -10.2847  -13.7474    4.9371 N   0  0  0  0  0  0  0  0  0  0  0  0
  -10.6208  -14.3045    7.1537 N   0  0  0  0  0  0  0  0  0  0  0  0
  -11.1872  -14.0684    8.3463 C   0  0  0  0  0  0  0  0  0  0  0  0
  -12.0146  -12.9652    8.5138 C   0  0  0  0  0  0  0  0  0  0  0  0
  -12.2311  -12.1306    7.4224 C   0  0  0  0  0  0  0  0  0  0  0  0
  -13.0083  -11.0581    7.5409 N   0  0  0  0  0  0  0  0  0  0  0  0
  -12.4481  -12.9774    9.7707 N   0  0  0  0  0  0  0  0  0  0  0  0
  -11.9202  -14.0404   10.3734 C   0  0  0  0  0  0  0  0  0  0  0  0
  -11.1532  -14.7063    9.5127 N   0  0  0  0  0  0  0  0  0  0  0  0
  1  7  2  0  0  0  0
  1  2  1  0  0  0  0
  2  3  1  0  0  0  0
  2  4  2  0  0  0  0
  4  5  1  0  0  0  0
  5  6  2  0  0  0  0
  5 11  1  0  0  0  0
  6  7  1  0  0  0  0
  6  9  1  0  0  0  0
  7  8  1  0  0  0  0
  9 10  1  0  0  0  0
 10 11  2  0  0  0  0
M  END
>  <CHROM.1>
-11.57356302,-13.25824058,7.78858616,1.14677634,0.91393837,-1.11633682

>  <Name>
ligand

>  <RI>
0

>  <Rbt.Current_Directory>
/home/itssahil/PROJECTS/Mol_Feturizer/New_Systems/rnas/2b57

>  <Rbt.Executable>
rbdock ($Id: //depot/dev/client3/rdock/2013.1/src/exe/rbdock.cxx#4 $)

>  <Rbt.Library>
libRbt.so (2013.1, Build901 2013/11/27)

>  <Rbt.Parameter_File>
/export/apps/rDock/src/rDock_2013.1_src/data/scripts/dock_solv.prm

>  <Rbt.Receptor>
prm/blind_docking_60.prm

>  <SCORE>
-10.3478

>  <SCORE.INTER>
-10.3478

>  <SCORE.INTER.CONST>
1

>  <SCORE.INTER.POLAR>
0

>  <SCORE.INTER.ROT>
0

>  <SCORE.INTER.SOLV>
17.9805

>  <SCORE.INTER.VDW>
-16.492

>  <SCORE.INTER.norm>
-0.940709

>  <SCORE.INTRA>
0

>  <SCORE.INTRA.DIHEDRAL>
0

>  <SCORE.INTRA.DIHEDRAL.0>
0

>  <SCORE.INTRA.POLAR>
0

>  <SCORE.INTRA.POLAR.0>
0

>  <SCORE.INTRA.REPUL>
0

>  <SCORE.INTRA.REPUL.0>
0

>  <SCORE.INTRA.SOLV>
0

>  <SCORE.INTRA.SOLV.lig_0>
-48.3454

>  <SCORE.INTRA.VDW>
0

>  <SCORE.INTRA.VDW.0>
0

>  <SCORE.INTRA.norm>
0

>  <SCORE.RESTR>
0

>  <SCORE.RESTR.CAVITY>
0

>  <SCORE.RESTR.norm>
0

>  <SCORE.SYSTEM>
0

>  <SCORE.SYSTEM.CONST>
0

>  <SCORE.SYSTEM.DIHEDRAL>
0

>  <SCORE.SYSTEM.SOLV>
0

>  <SCORE.SYSTEM.norm>
0

>  <SCORE.heavy>
11

>  <SCORE.norm>
-0.940709

>  <RMSD>
3.347

$$$$
ligand
 OpenBabel01301917033D
libRbt.so/2013.1/901 2013/11/27
 11 12  0  0  0  0  0  0  0  0999 V2000
  -11.6455  -12.4394    6.2366 N   0  0  0  0  0  0  0  0  0  0  0  0
  -10.8548  -13.5170    6.1090 C   0  0  0  0  0  0  0  0  0  0  0  0
  -10.2966  -13.7910    4.9332 N   0  0  0  0  0  0  0  0  0  0  0  0
  -10.6305  -14.3268    7.1554 N   0  0  0  0  0  0  0  0  0  0  0  0
  -11.1936  -14.0777    8.3469 C   0  0  0  0  0  0  0  0  0  0  0  0
  -12.0160  -12.9695    8.5062 C   0  0  0  0  0  0  0  0  0  0  0  0
  -12.2312  -12.1438    7.4077 C   0  0  0  0  0  0  0  0  0  0  0  0
  -13.0035  -11.0671    7.5183 N   0  0  0  0  0  0  0  0  0  0  0  0
  -12.4470  -12.9686    9.7640 N   0  0  0  0  0  0  0  0  0  0  0  0
  -11.9224  -14.0285   10.3752 C   0  0  0  0  0  0  0  0  0  0  0  0
  -11.1599  -14.7052    9.5190 N   0  0  0  0  0  0  0  0  0  0  0  0
  1  7  2  0  0  0  0
  1  2  1  0  0  0  0
  2  3  1  0  0  0  0
  2  4  2  0  0  0  0
  4  5  1  0  0  0  0
  5  6  2  0  0  0  0
  5 11  1  0  0  0  0
  6  7  1  0  0  0  0
  6  9  1  0  0  0  0
  7  8  1  0  0  0  0
  9 10  1  0  0  0  0
 10 11  2  0  0  0  0
M  END
>  <CHROM.1>
-11.57763158,-13.27093063,7.78277353,1.14670976,0.91862002,-1.12525092

>  <Name>
ligand

>  <RI>
0

>  <Rbt.Current_Directory>
/home/itssahil/PROJECTS/Mol_Feturizer/New_Systems/rnas/2b57

>  <Rbt.Executable>
rbdock ($Id: //depot/dev/client3/rdock/2013.1/src/exe/rbdock.cxx#4 $)

>  <Rbt.Library>
libRbt.so (2013.1, Build901 2013/11/27)

>  <Rbt.Parameter_File>
/export/apps/rDock/src/rDock_2013.1_src/data/scripts/dock_solv.prm

>  <Rbt.Receptor>
prm/blind_docking_80.prm

>  <SCORE>
-10.3774

>  <SCORE.INTER>
-10.3774

>  <SCORE.INTER.CONST>
1

>  <SCORE.INTER.POLAR>
0

>  <SCORE.INTER.ROT>
0

>  <SCORE.INTER.SOLV>
18.0182

>  <SCORE.INTER.VDW>
-16.5244

>  <SCORE.INTER.norm>
-0.943402

>  <SCORE.INTRA>
0

>  <SCORE.INTRA.DIHEDRAL>
0

>  <SCORE.INTRA.DIHEDRAL.0>
0

>  <SCORE.INTRA.POLAR>
0

>  <SCORE.INTRA.POLAR.0>
0

>  <SCORE.INTRA.REPUL>
0

>  <SCORE.INTRA.REPUL.0>
0

>  <SCORE.INTRA.SOLV>
0

>  <SCORE.INTRA.SOLV.lig_0>
-48.3454

>  <SCORE.INTRA.VDW>
0

>  <SCORE.INTRA.VDW.0>
0

>  <SCORE.INTRA.norm>
0

>  <SCORE.RESTR>
0

>  <SCORE.RESTR.CAVITY>
0

>  <SCORE.RESTR.norm>
0

>  <SCORE.SYSTEM>
0

>  <SCORE.SYSTEM.CONST>
0

>  <SCORE.SYSTEM.DIHEDRAL>
0

>  <SCORE.SYSTEM.SOLV>
0

>  <SCORE.SYSTEM.norm>
0

>  <SCORE.heavy>
11

>  <SCORE.norm>
-0.943402

>  <RMSD>
3.347

$$$$
ligand
 OpenBabel01301917033D
libRbt.so/2013.1/901 2013/11/27
 11 12  0  0  0  0  0  0  0  0999 V2000
  -11.6470  -12.4239    6.2375 N   0  0  0  0  0  0  0  0  0  0  0  0
  -10.8458  -13.4934    6.1075 C   0  0  0  0  0  0  0  0  0  0  0  0
  -10.2818  -13.7572    4.9322 N   0  0  0  0  0  0  0  0  0  0  0  0
  -10.6166  -14.3055    7.1511 N   0  0  0  0  0  0  0  0  0  0  0  0
  -11.1852  -14.0667    8.3422 C   0  0  0  0  0  0  0  0  0  0  0  0
  -12.0185  -12.9671    8.5038 C   0  0  0  0  0  0  0  0  0  0  0  0
  -12.2386  -12.1388    7.4083 C   0  0  0  0  0  0  0  0  0  0  0  0
  -13.0215  -11.0699    7.5211 N   0  0  0  0  0  0  0  0  0  0  0  0
  -12.4530  -12.9755    9.7605 N   0  0  0  0  0  0  0  0  0  0  0  0
  -11.9199  -14.0329   10.3686 C   0  0  0  0  0  0  0  0  0  0  0  0
  -11.1487  -14.6988    9.5117 N   0  0  0  0  0  0  0  0  0  0  0  0
  1  7  2  0  0  0  0
  1  2  1  0  0  0  0
  2  3  1  0  0  0  0
  2  4  2  0  0  0  0
  4  5  1  0  0  0  0
  5  6  2  0  0  0  0
  5 11  1  0  0  0  0
  6  7  1  0  0  0  0
  6  9  1  0  0  0  0
  7  8  1  0  0  0  0
  9 10  1  0  0  0  0
 10 11  2  0  0  0  0
M  END
>  <CHROM.1>
-11.57540520,-13.26125401,7.78035782,1.14943351,0.90886815,-1.12322416

>  <Name>
ligand

>  <RI>
0

>  <Rbt.Current_Directory>
/home/itssahil/PROJECTS/Mol_Feturizer/New_Systems/rnas/2b57

>  <Rbt.Executable>
rbdock ($Id: //depot/dev/client3/rdock/2013.1/src/exe/rbdock.cxx#4 $)

>  <Rbt.Library>
libRbt.so (2013.1, Build901 2013/11/27)

>  <Rbt.Parameter_File>
/export/apps/rDock/src/rDock_2013.1_src/data/scripts/dock_solv.prm

>  <Rbt.Receptor>
prm/pocket_docking_3.prm

>  <SCORE>
-10.388

>  <SCORE.INTER>
-10.388

>  <SCORE.INTER.CONST>
1

>  <SCORE.INTER.POLAR>
0

>  <SCORE.INTER.ROT>
0

>  <SCORE.INTER.SOLV>
17.9808

>  <SCORE.INTER.VDW>
-16.5189

>  <SCORE.INTER.norm>
-0.944361

>  <SCORE.INTRA>
0

>  <SCORE.INTRA.DIHEDRAL>
0

>  <SCORE.INTRA.DIHEDRAL.0>
0

>  <SCORE.INTRA.POLAR>
0

>  <SCORE.INTRA.POLAR.0>
0

>  <SCORE.INTRA.REPUL>
0

>  <SCORE.INTRA.REPUL.0>
0

>  <SCORE.INTRA.SOLV>
0

>  <SCORE.INTRA.SOLV.lig_0>
-48.3454

>  <SCORE.INTRA.VDW>
0

>  <SCORE.INTRA.VDW.0>
0

>  <SCORE.INTRA.norm>
0

>  <SCORE.RESTR>
0

>  <SCORE.RESTR.CAVITY>
0

>  <SCORE.RESTR.norm>
0

>  <SCORE.SYSTEM>
0

>  <SCORE.SYSTEM.CONST>
0

>  <SCORE.SYSTEM.DIHEDRAL>
0

>  <SCORE.SYSTEM.SOLV>
0

>  <SCORE.SYSTEM.norm>
0

>  <SCORE.heavy>
11

>  <SCORE.norm>
-0.944361

>  <RMSD>
3.347

$$$$
ligand
 OpenBabel01301917033D
libRbt.so/2013.1/901 2013/11/27
 11 12  0  0  0  0  0  0  0  0999 V2000
  -11.6399  -12.4169    6.2396 N   0  0  0  0  0  0  0  0  0  0  0  0
  -10.8415  -13.4890    6.1133 C   0  0  0  0  0  0  0  0  0  0  0  0
  -10.2725  -13.7543    4.9407 N   0  0  0  0  0  0  0  0  0  0  0  0
  -10.6202  -14.3020    7.1578 N   0  0  0  0  0  0  0  0  0  0  0  0
  -11.1940  -14.0617    8.3461 C   0  0  0  0  0  0  0  0  0  0  0  0
  -12.0245  -12.9594    8.5039 C   0  0  0  0  0  0  0  0  0  0  0  0
  -12.2364  -12.1302    7.4074 C   0  0  0  0  0  0  0  0  0  0  0  0
  -13.0163  -11.0588    7.5167 N   0  0  0  0  0  0  0  0  0  0  0  0
  -12.4653  -12.9668    9.7583 N   0  0  0  0  0  0  0  0  0  0  0  0
  -11.9387  -14.0261   10.3688 C   0  0  0  0  0  0  0  0  0  0  0  0
  -11.1654  -14.6943    9.5155 N   0  0  0  0  0  0  0  0  0  0  0  0
  1  7  2  0  0  0  0
  1  2  1  0  0  0  0
  2  3  1  0  0  0  0
  2  4  2  0  0  0  0
  4  5  1  0  0  0  0
  5  6  2  0  0  0  0
  5 11  1  0  0  0  0
  6  7  1  0  0  0  0
  6  9  1  0  0  0  0
  7  8  1  0  0  0  0
  9 10  1  0  0  0  0
 10 11  2  0  0  0  0
M  END
>  <CHROM.1>
-11.57874802,-13.25487357,7.78252810,1.13976296,0.90963057,-1.11530908

>  <Name>
ligand

>  <RI>
0

>  <Rbt.Current_Directory>
/home/itssahil/PROJECTS/Mol_Feturizer/New_Systems/rnas/2b57

>  <Rbt.Executable>
rbdock ($Id: //depot/dev/client3/rdock/2013.1/src/exe/rbdock.cxx#4 $)

>  <Rbt.Library>
libRbt.so (2013.1, Build901 2013/11/27)

>  <Rbt.Parameter_File>
/export/apps/rDock/src/rDock_2013.1_src/data/scripts/dock_solv.prm

>  <Rbt.Receptor>
prm/pocket_docking_3.prm

>  <SCORE>
-10.3579

>  <SCORE.INTER>
-10.3579

>  <SCORE.INTER.CONST>
1

>  <SCORE.INTER.POLAR>
0

>  <SCORE.INTER.ROT>
0

>  <SCORE.INTER.SOLV>
17.9322

>  <SCORE.INTER.VDW>
-16.4827

>  <SCORE.INTER.norm>
-0.941628

>  <SCORE.INTRA>
0

>  <SCORE.INTRA.DIHEDRAL>
0

>  <SCORE.INTRA.DIHEDRAL.0>
0

>  <SCORE.INTRA.POLAR>
0

>  <SCORE.INTRA.POLAR.0>
0

>  <SCORE.INTRA.REPUL>
0

>  <SCORE.INTRA.REPUL.0>
0

>  <SCORE.INTRA.SOLV>
0

>  <SCORE.INTRA.SOLV.lig_0>
-48.3454

>  <SCORE.INTRA.VDW>
0

>  <SCORE.INTRA.VDW.0>
0

>  <SCORE.INTRA.norm>
0

>  <SCORE.RESTR>
0

>  <SCORE.RESTR.CAVITY>
0

>  <SCORE.RESTR.norm>
0

>  <SCORE.SYSTEM>
0

>  <SCORE.SYSTEM.CONST>
0

>  <SCORE.SYSTEM.DIHEDRAL>
0

>  <SCORE.SYSTEM.SOLV>
0

>  <SCORE.SYSTEM.norm>
0

>  <SCORE.heavy>
11

>  <SCORE.norm>
-0.941628

>  <RMSD>
3.347

$$$$
ligand
 OpenBabel01301917033D
libRbt.so/2013.1/901 2013/11/27
 11 12  0  0  0  0  0  0  0  0999 V2000
  -11.7095  -12.4289    6.2356 N   0  0  0  0  0  0  0  0  0  0  0  0
  -10.9325  -13.5140    6.0885 C   0  0  0  0  0  0  0  0  0  0  0  0
  -10.4013  -13.7899    4.9008 N   0  0  0  0  0  0  0  0  0  0  0  0
  -10.6951  -14.3294    7.1277 N   0  0  0  0  0  0  0  0  0  0  0  0
  -11.2311  -14.0785    8.3313 C   0  0  0  0  0  0  0  0  0  0  0  0
  -12.0388  -12.9626    8.5107 C   0  0  0  0  0  0  0  0  0  0  0  0
  -12.2680  -12.1312    7.4194 C   0  0  0  0  0  0  0  0  0  0  0  0
  -13.0270  -11.0471    7.5489 N   0  0  0  0  0  0  0  0  0  0  0  0
  -12.4440  -12.9614    9.7771 N   0  0  0  0  0  0  0  0  0  0  0  0
  -11.9177  -14.0284   10.3741 C   0  0  0  0  0  0  0  0  0  0  0  0
  -11.1798  -14.7101    9.5005 N   0  0  0  0  0  0  0  0  0  0  0  0
  1  7  2  0  0  0  0
  1  2  1  0  0  0  0
  2  3  1  0  0  0  0
  2  4  2  0  0  0  0
  4  5  1  0  0  0  0
  5  6  2  0  0  0  0
  5 11  1  0  0  0  0
  6  7  1  0  0  0  0
  6  9  1  0  0  0  0
  7  8  1  0  0  0  0
  9 10  1  0  0  0  0
 10 11  2  0  0  0  0
M  END
>  <CHROM.1>
-11.61844105,-13.26606868,7.77752890,1.17048993,0.93645550,-1.14117716

>  <Name>
ligand

>  <RI>
0

>  <Rbt.Current_Directory>
/home/itssahil/PROJECTS/Mol_Feturizer/New_Systems/rnas/2b57

>  <Rbt.Executable>
rbdock ($Id: //depot/dev/client3/rdock/2013.1/src/exe/rbdock.cxx#4 $)

>  <Rbt.Library>
libRbt.so (2013.1, Build901 2013/11/27)

>  <Rbt.Parameter_File>
/export/apps/rDock/src/rDock_2013.1_src/data/scripts/dock_solv.prm

>  <Rbt.Receptor>
prm/pocket_docking_3.prm

>  <SCORE>
-10.3491

>  <SCORE.INTER>
-10.3491

>  <SCORE.INTER.CONST>
1

>  <SCORE.INTER.POLAR>
0

>  <SCORE.INTER.ROT>
0

>  <SCORE.INTER.SOLV>
18.3646

>  <SCORE.INTER.VDW>
-16.621

>  <SCORE.INTER.norm>
-0.94083

>  <SCORE.INTRA>
0

>  <SCORE.INTRA.DIHEDRAL>
0

>  <SCORE.INTRA.DIHEDRAL.0>
0

>  <SCORE.INTRA.POLAR>
0

>  <SCORE.INTRA.POLAR.0>
0

>  <SCORE.INTRA.REPUL>
0

>  <SCORE.INTRA.REPUL.0>
0

>  <SCORE.INTRA.SOLV>
0

>  <SCORE.INTRA.SOLV.lig_0>
-48.3454

>  <SCORE.INTRA.VDW>
0

>  <SCORE.INTRA.VDW.0>
0

>  <SCORE.INTRA.norm>
0

>  <SCORE.RESTR>
0

>  <SCORE.RESTR.CAVITY>
0

>  <SCORE.RESTR.norm>
0

>  <SCORE.SYSTEM>
0

>  <SCORE.SYSTEM.CONST>
0

>  <SCORE.SYSTEM.DIHEDRAL>
0

>  <SCORE.SYSTEM.SOLV>
0

>  <SCORE.SYSTEM.norm>
0

>  <SCORE.heavy>
11

>  <SCORE.norm>
-0.94083

>  <RMSD>
3.347

$$$$
ligand
 OpenBabel01301917033D
libRbt.so/2013.1/901 2013/11/27
 11 12  0  0  0  0  0  0  0  0999 V2000
  -11.6891  -12.3972    6.2581 N   0  0  0  0  0  0  0  0  0  0  0  0
  -10.9004  -13.4725    6.1017 C   0  0  0  0  0  0  0  0  0  0  0  0
  -10.3609  -13.7286    4.9133 N   0  0  0  0  0  0  0  0  0  0  0  0
  -10.6595  -14.2979    7.1322 N   0  0  0  0  0  0  0  0  0  0  0  0
  -11.2037  -14.0668    8.3361 C   0  0  0  0  0  0  0  0  0  0  0  0
  -12.0235  -12.9615    8.5250 C   0  0  0  0  0  0  0  0  0  0  0  0
  -12.2562  -12.1194    7.4427 C   0  0  0  0  0  0  0  0  0  0  0  0
  -13.0268  -11.0447    7.5815 N   0  0  0  0  0  0  0  0  0  0  0  0
  -12.4346  -12.9796    9.7894 N   0  0  0  0  0  0  0  0  0  0  0  0
  -11.9002  -14.0483   10.3761 C   0  0  0  0  0  0  0  0  0  0  0  0
  -11.1513  -14.7119    9.4979 N   0  0  0  0  0  0  0  0  0  0  0  0
  1  7  2  0  0  0  0
  1  2  1  0  0  0  0
  2  3  1  0  0  0  0
  2  4  2  0  0  0  0
  4  5  1  0  0  0  0
  5  6  2  0  0  0  0
  5 11  1  0  0  0  0
  6  7  1  0  0  0  0
  6  9  1  0  0  0  0
  7  8  1  0  0  0  0
  9 10  1  0  0  0  0
 10 11  2  0  0  0  0
M  END
>  <CHROM.1>
-11.59667252,-13.25181319,7.79029082,1.17053868,0.92523573,-1.12920675

>  <Name>
ligand

>  <RI>
0

>  <Rbt.Current_Directory>
/home/itssahil/PROJECTS/Mol_Feturizer/New_Systems/rnas/2b57

>  <Rbt.Executable>
rbdock ($Id: //depot/dev/client3/rdock/2013.1/src/exe/rbdock.cxx#4 $)

>  <Rbt.Library>
libRbt.so (2013.1, Build901 2013/11/27)

>  <Rbt.Parameter_File>
/export/apps/rDock/src/rDock_2013.1_src/data/scripts/dock_solv.prm

>  <Rbt.Receptor>
prm/pocket_docking_4.prm

>  <SCORE>
-10.3745

>  <SCORE.INTER>
-10.3745

>  <SCORE.INTER.CONST>
1

>  <SCORE.INTER.POLAR>
0

>  <SCORE.INTER.ROT>
0

>  <SCORE.INTER.SOLV>
18.2521

>  <SCORE.INTER.VDW>
-16.6004

>  <SCORE.INTER.norm>
-0.943138

>  <SCORE.INTRA>
0

>  <SCORE.INTRA.DIHEDRAL>
0

>  <SCORE.INTRA.DIHEDRAL.0>
0

>  <SCORE.INTRA.POLAR>
0

>  <SCORE.INTRA.POLAR.0>
0

>  <SCORE.INTRA.REPUL>
0

>  <SCORE.INTRA.REPUL.0>
0

>  <SCORE.INTRA.SOLV>
0

>  <SCORE.INTRA.SOLV.lig_0>
-48.3454

>  <SCORE.INTRA.VDW>
0

>  <SCORE.INTRA.VDW.0>
0

>  <SCORE.INTRA.norm>
0

>  <SCORE.RESTR>
0

>  <SCORE.RESTR.CAVITY>
0

>  <SCORE.RESTR.norm>
0

>  <SCORE.SYSTEM>
0

>  <SCORE.SYSTEM.CONST>
0

>  <SCORE.SYSTEM.DIHEDRAL>
0

>  <SCORE.SYSTEM.SOLV>
0

>  <SCORE.SYSTEM.norm>
0

>  <SCORE.heavy>
11

>  <SCORE.norm>
-0.943138

>  <RMSD>
3.347

$$$$
ligand
 OpenBabel01301917033D
libRbt.so/2013.1/901 2013/11/27
 11 12  0  0  0  0  0  0  0  0999 V2000
  -11.6734  -12.4244    6.2206 N   0  0  0  0  0  0  0  0  0  0  0  0
  -10.8813  -13.5005    6.0894 C   0  0  0  0  0  0  0  0  0  0  0  0
  -10.3313  -13.7759    4.9102 N   0  0  0  0  0  0  0  0  0  0  0  0
  -10.6474  -14.3075    7.1359 N   0  0  0  0  0  0  0  0  0  0  0  0
  -11.2021  -14.0569    8.3311 C   0  0  0  0  0  0  0  0  0  0  0  0
  -12.0257  -12.9503    8.4941 C   0  0  0  0  0  0  0  0  0  0  0  0
  -12.2510  -12.1274    7.3954 C   0  0  0  0  0  0  0  0  0  0  0  0
  -13.0249  -11.0522    7.5093 N   0  0  0  0  0  0  0  0  0  0  0  0
  -12.4474  -12.9475    9.7551 N   0  0  0  0  0  0  0  0  0  0  0  0
  -11.9158  -14.0048   10.3646 C   0  0  0  0  0  0  0  0  0  0  0  0
  -11.1583  -14.6818    9.5042 N   0  0  0  0  0  0  0  0  0  0  0  0
  1  7  2  0  0  0  0
  1  2  1  0  0  0  0
  2  3  1  0  0  0  0
  2  4  2  0  0  0  0
  4  5  1  0  0  0  0
  5  6  2  0  0  0  0
  5 11  1  0  0  0  0
  6  7  1  0  0  0  0
  6  9  1  0  0  0  0
  7  8  1  0  0  0  0
  9 10  1  0  0  0  0
 10 11  2  0  0  0  0
M  END
>  <CHROM.1>
-11.59217337,-13.25230127,7.76804567,1.15942316,0.91979035,-1.13758261

>  <Name>
ligand

>  <RI>
0

>  <Rbt.Current_Directory>
/home/itssahil/PROJECTS/Mol_Feturizer/New_Systems/rnas/2b57

>  <Rbt.Executable>
rbdock ($Id: //depot/dev/client3/rdock/2013.1/src/exe/rbdock.cxx#4 $)

>  <Rbt.Library>
libRbt.so (2013.1, Build901 2013/11/27)

>  <Rbt.Parameter_File>
/export/apps/rDock/src/rDock_2013.1_src/data/scripts/dock_solv.prm

>  <Rbt.Receptor>
prm/pocket_docking_6.prm

>  <SCORE>
-10.3776

>  <SCORE.INTER>
-10.3776

>  <SCORE.INTER.CONST>
1

>  <SCORE.INTER.POLAR>
0

>  <SCORE.INTER.ROT>
0

>  <SCORE.INTER.SOLV>
18.1936

>  <SCORE.INTER.VDW>
-16.5829

>  <SCORE.INTER.norm>
-0.943418

>  <SCORE.INTRA>
0

>  <SCORE.INTRA.DIHEDRAL>
0

>  <SCORE.INTRA.DIHEDRAL.0>
0

>  <SCORE.INTRA.POLAR>
0

>  <SCORE.INTRA.POLAR.0>
0

>  <SCORE.INTRA.REPUL>
0

>  <SCORE.INTRA.REPUL.0>
0

>  <SCORE.INTRA.SOLV>
0

>  <SCORE.INTRA.SOLV.lig_0>
-48.3454

>  <SCORE.INTRA.VDW>
0

>  <SCORE.INTRA.VDW.0>
0

>  <SCORE.INTRA.norm>
0

>  <SCORE.RESTR>
0

>  <SCORE.RESTR.CAVITY>
0

>  <SCORE.RESTR.norm>
0

>  <SCORE.SYSTEM>
0

>  <SCORE.SYSTEM.CONST>
0

>  <SCORE.SYSTEM.DIHEDRAL>
0

>  <SCORE.SYSTEM.SOLV>
0

>  <SCORE.SYSTEM.norm>
0

>  <SCORE.heavy>
11

>  <SCORE.norm>
-0.943418

>  <RMSD>
3.347

$$$$
ligand
 OpenBabel01301917033D
libRbt.so/2013.1/901 2013/11/27
 11 12  0  0  0  0  0  0  0  0999 V2000
  -11.7261  -12.4255    6.2570 N   0  0  0  0  0  0  0  0  0  0  0  0
  -10.9576  -13.5154    6.1014 C   0  0  0  0  0  0  0  0  0  0  0  0
  -10.4348  -13.7902    4.9096 N   0  0  0  0  0  0  0  0  0  0  0  0
  -10.7202  -14.3365    7.1360 N   0  0  0  0  0  0  0  0  0  0  0  0
  -11.2478  -14.0866    8.3435 C   0  0  0  0  0  0  0  0  0  0  0  0
  -12.0466  -12.9658    8.5318 C   0  0  0  0  0  0  0  0  0  0  0  0
  -12.2760  -12.1285    7.4450 C   0  0  0  0  0  0  0  0  0  0  0  0
  -13.0267  -11.0397    7.5830 N   0  0  0  0  0  0  0  0  0  0  0  0
  -12.4448  -12.9668    9.8004 N   0  0  0  0  0  0  0  0  0  0  0  0
  -11.9228  -14.0399   10.3903 C   0  0  0  0  0  0  0  0  0  0  0  0
  -11.1945  -14.7232    9.5099 N   0  0  0  0  0  0  0  0  0  0  0  0
  1  7  2  0  0  0  0
  1  2  1  0  0  0  0
  2  3  1  0  0  0  0
  2  4  2  0  0  0  0
  4  5  1  0  0  0  0
  5  6  2  0  0  0  0
  5 11  1  0  0  0  0
  6  7  1  0  0  0  0
  6  9  1  0  0  0  0
  7  8  1  0  0  0  0
  9 10  1  0  0  0  0
 10 11  2  0  0  0  0
M  END
>  <CHROM.1>
-11.63242019,-13.26933441,7.79510066,1.17403851,0.94510637,-1.14008287

>  <Name>
ligand

>  <RI>
0

>  <Rbt.Current_Directory>
/home/itssahil/PROJECTS/Mol_Feturizer/New_Systems/rnas/2b57

>  <Rbt.Executable>
rbdock ($Id: //depot/dev/client3/rdock/2013.1/src/exe/rbdock.cxx#4 $)

>  <Rbt.Library>
libRbt.so (2013.1, Build901 2013/11/27)

>  <Rbt.Parameter_File>
/export/apps/rDock/src/rDock_2013.1_src/data/scripts/dock_solv.prm

>  <Rbt.Receptor>
prm/pocket_docking_7.prm

>  <SCORE>
-10.3347

>  <SCORE.INTER>
-10.3347

>  <SCORE.INTER.CONST>
1

>  <SCORE.INTER.POLAR>
0

>  <SCORE.INTER.ROT>
0

>  <SCORE.INTER.SOLV>
18.3945

>  <SCORE.INTER.VDW>
-16.6213

>  <SCORE.INTER.norm>
-0.93952

>  <SCORE.INTRA>
0

>  <SCORE.INTRA.DIHEDRAL>
0

>  <SCORE.INTRA.DIHEDRAL.0>
0

>  <SCORE.INTRA.POLAR>
0

>  <SCORE.INTRA.POLAR.0>
0

>  <SCORE.INTRA.REPUL>
0

>  <SCORE.INTRA.REPUL.0>
0

>  <SCORE.INTRA.SOLV>
0

>  <SCORE.INTRA.SOLV.lig_0>
-48.3454

>  <SCORE.INTRA.VDW>
0

>  <SCORE.INTRA.VDW.0>
0

>  <SCORE.INTRA.norm>
0

>  <SCORE.RESTR>
0

>  <SCORE.RESTR.CAVITY>
0

>  <SCORE.RESTR.norm>
0

>  <SCORE.SYSTEM>
0

>  <SCORE.SYSTEM.CONST>
0

>  <SCORE.SYSTEM.DIHEDRAL>
0

>  <SCORE.SYSTEM.SOLV>
0

>  <SCORE.SYSTEM.norm>
0

>  <SCORE.heavy>
11

>  <SCORE.norm>
-0.93952

>  <RMSD>
3.347

$$$$
ligand
 OpenBabel01301917033D
libRbt.so/2013.1/901 2013/11/27
 11 12  0  0  0  0  0  0  0  0999 V2000
  -11.6904  -12.4237    6.2485 N   0  0  0  0  0  0  0  0  0  0  0  0
  -10.9052  -13.5030    6.1032 C   0  0  0  0  0  0  0  0  0  0  0  0
  -10.3660  -13.7727    4.9176 N   0  0  0  0  0  0  0  0  0  0  0  0
  -10.6674  -14.3189    7.1419 N   0  0  0  0  0  0  0  0  0  0  0  0
  -11.2113  -14.0742    8.3432 C   0  0  0  0  0  0  0  0  0  0  0  0
  -12.0277  -12.9644    8.5208 C   0  0  0  0  0  0  0  0  0  0  0  0
  -12.2571  -12.1323    7.4300 C   0  0  0  0  0  0  0  0  0  0  0  0
  -13.0244  -11.0539    7.5578 N   0  0  0  0  0  0  0  0  0  0  0  0
  -12.4394  -12.9686    9.7851 N   0  0  0  0  0  0  0  0  0  0  0  0
  -11.9087  -14.0332   10.3826 C   0  0  0  0  0  0  0  0  0  0  0  0
  -11.1616  -14.7079    9.5114 N   0  0  0  0  0  0  0  0  0  0  0  0
  1  7  2  0  0  0  0
  1  2  1  0  0  0  0
  2  3  1  0  0  0  0
  2  4  2  0  0  0  0
  4  5  1  0  0  0  0
  5  6  2  0  0  0  0
  5 11  1  0  0  0  0
  6  7  1  0  0  0  0
  6  9  1  0  0  0  0
  7  8  1  0  0  0  0
  9 10  1  0  0  0  0
 10 11  2  0  0  0  0
M  END
>  <CHROM.1>
-11.60145094,-13.26338404,7.78915081,1.16758751,0.92794837,-1.13678046

>  <Name>
ligand

>  <RI>
0

>  <Rbt.Current_Directory>
/home/itssahil/PROJECTS/Mol_Feturizer/New_Systems/rnas/2b57

>  <Rbt.Executable>
rbdock ($Id: //depot/dev/client3/rdock/2013.1/src/exe/rbdock.cxx#4 $)

>  <Rbt.Library>
libRbt.so (2013.1, Build901 2013/11/27)

>  <Rbt.Parameter_File>
/export/apps/rDock/src/rDock_2013.1_src/data/scripts/dock_solv.prm

>  <Rbt.Receptor>
prm/pocket_docking_8.prm

>  <SCORE>
-10.3809

>  <SCORE.INTER>
-10.3809

>  <SCORE.INTER.CONST>
1

>  <SCORE.INTER.POLAR>
0

>  <SCORE.INTER.ROT>
0

>  <SCORE.INTER.SOLV>
18.2142

>  <SCORE.INTER.VDW>
-16.592

>  <SCORE.INTER.norm>
-0.943719

>  <SCORE.INTRA>
0

>  <SCORE.INTRA.DIHEDRAL>
0

>  <SCORE.INTRA.DIHEDRAL.0>
0

>  <SCORE.INTRA.POLAR>
0

>  <SCORE.INTRA.POLAR.0>
0

>  <SCORE.INTRA.REPUL>
0

>  <SCORE.INTRA.REPUL.0>
0

>  <SCORE.INTRA.SOLV>
0

>  <SCORE.INTRA.SOLV.lig_0>
-48.3454

>  <SCORE.INTRA.VDW>
0

>  <SCORE.INTRA.VDW.0>
0

>  <SCORE.INTRA.norm>
0

>  <SCORE.RESTR>
0

>  <SCORE.RESTR.CAVITY>
0

>  <SCORE.RESTR.norm>
0

>  <SCORE.SYSTEM>
0

>  <SCORE.SYSTEM.CONST>
0

>  <SCORE.SYSTEM.DIHEDRAL>
0

>  <SCORE.SYSTEM.SOLV>
0

>  <SCORE.SYSTEM.norm>
0

>  <SCORE.heavy>
11

>  <SCORE.norm>
-0.943719

>  <RMSD>
3.347

$$$$
ligand
 OpenBabel01301917033D
libRbt.so/2013.1/901 2013/11/27
 11 12  0  0  0  0  0  0  0  0999 V2000
  -11.6772  -12.4314    6.2377 N   0  0  0  0  0  0  0  0  0  0  0  0
  -10.8778  -13.5019    6.1040 C   0  0  0  0  0  0  0  0  0  0  0  0
  -10.3227  -13.7685    4.9251 N   0  0  0  0  0  0  0  0  0  0  0  0
  -10.6418  -14.3121    7.1475 N   0  0  0  0  0  0  0  0  0  0  0  0
  -11.2016  -14.0705    8.3422 C   0  0  0  0  0  0  0  0  0  0  0  0
  -12.0327  -12.9698    8.5078 C   0  0  0  0  0  0  0  0  0  0  0  0
  -12.2600  -12.1435    7.4122 C   0  0  0  0  0  0  0  0  0  0  0  0
  -13.0411  -11.0737    7.5287 N   0  0  0  0  0  0  0  0  0  0  0  0
  -12.4580  -12.9755    9.7676 N   0  0  0  0  0  0  0  0  0  0  0  0
  -11.9215  -14.0321   10.3738 C   0  0  0  0  0  0  0  0  0  0  0  0
  -11.1571  -14.7004    9.5126 N   0  0  0  0  0  0  0  0  0  0  0  0
  1  7  2  0  0  0  0
  1  2  1  0  0  0  0
  2  3  1  0  0  0  0
  2  4  2  0  0  0  0
  4  5  1  0  0  0  0
  5  6  2  0  0  0  0
  5 11  1  0  0  0  0
  6  7  1  0  0  0  0
  6  9  1  0  0  0  0
  7  8  1  0  0  0  0
  9 10  1  0  0  0  0
 10 11  2  0  0  0  0
M  END
>  <CHROM.1>
-11.59511345,-13.26581557,7.78166673,1.15951140,0.91278145,-1.13313097

>  <Name>
ligand

>  <RI>
0

>  <Rbt.Current_Directory>
/home/itssahil/PROJECTS/Mol_Feturizer/New_Systems/rnas/2b57

>  <Rbt.Executable>
rbdock ($Id: //depot/dev/client3/rdock/2013.1/src/exe/rbdock.cxx#4 $)

>  <Rbt.Library>
libRbt.so (2013.1, Build901 2013/11/27)

>  <Rbt.Parameter_File>
/export/apps/rDock/src/rDock_2013.1_src/data/scripts/dock_solv.prm

>  <Rbt.Receptor>
prm/blind_docking_40.prm

>  <SCORE>
-10.3925

>  <SCORE.INTER>
-10.3925

>  <SCORE.INTER.CONST>
1

>  <SCORE.INTER.POLAR>
0

>  <SCORE.INTER.ROT>
0

>  <SCORE.INTER.SOLV>
18.0785

>  <SCORE.INTER.VDW>
-16.5545

>  <SCORE.INTER.norm>
-0.944777

>  <SCORE.INTRA>
0

>  <SCORE.INTRA.DIHEDRAL>
0

>  <SCORE.INTRA.DIHEDRAL.0>
0

>  <SCORE.INTRA.POLAR>
0

>  <SCORE.INTRA.POLAR.0>
0

>  <SCORE.INTRA.REPUL>
0

>  <SCORE.INTRA.REPUL.0>
0

>  <SCORE.INTRA.SOLV>
0

>  <SCORE.INTRA.SOLV.lig_0>
-48.3454

>  <SCORE.INTRA.VDW>
0

>  <SCORE.INTRA.VDW.0>
0

>  <SCORE.INTRA.norm>
0

>  <SCORE.RESTR>
0

>  <SCORE.RESTR.CAVITY>
0

>  <SCORE.RESTR.norm>
0

>  <SCORE.SYSTEM>
0

>  <SCORE.SYSTEM.CONST>
0

>  <SCORE.SYSTEM.DIHEDRAL>
0

>  <SCORE.SYSTEM.SOLV>
0

>  <SCORE.SYSTEM.norm>
0

>  <SCORE.heavy>
11

>  <SCORE.norm>
-0.944777

>  <RMSD>
3.348

$$$$
ligand
 OpenBabel01301917033D
libRbt.so/2013.1/901 2013/11/27
 11 12  0  0  0  0  0  0  0  0999 V2000
  -11.6902  -12.4278    6.2318 N   0  0  0  0  0  0  0  0  0  0  0  0
  -10.8905  -13.4979    6.0978 C   0  0  0  0  0  0  0  0  0  0  0  0
  -10.3391  -13.7667    4.9177 N   0  0  0  0  0  0  0  0  0  0  0  0
  -10.6505  -14.3057    7.1423 N   0  0  0  0  0  0  0  0  0  0  0  0
  -11.2065  -14.0619    8.3383 C   0  0  0  0  0  0  0  0  0  0  0  0
  -12.0378  -12.9614    8.5041 C   0  0  0  0  0  0  0  0  0  0  0  0
  -12.2694  -12.1377    7.4075 C   0  0  0  0  0  0  0  0  0  0  0  0
  -13.0509  -11.0682    7.5242 N   0  0  0  0  0  0  0  0  0  0  0  0
  -12.4590  -12.9646    9.7653 N   0  0  0  0  0  0  0  0  0  0  0  0
  -11.9197  -14.0195   10.3722 C   0  0  0  0  0  0  0  0  0  0  0  0
  -11.1577  -14.6891    9.5099 N   0  0  0  0  0  0  0  0  0  0  0  0
  1  7  2  0  0  0  0
  1  2  1  0  0  0  0
  2  3  1  0  0  0  0
  2  4  2  0  0  0  0
  4  5  1  0  0  0  0
  5  6  2  0  0  0  0
  5 11  1  0  0  0  0
  6  7  1  0  0  0  0
  6  9  1  0  0  0  0
  7  8  1  0  0  0  0
  9 10  1  0  0  0  0
 10 11  2  0  0  0  0
M  END
>  <CHROM.1>
-11.60242253,-13.25869590,7.77725449,1.16490677,0.91351477,-1.13960784

>  <Name>
ligand

>  <RI>
0

>  <Rbt.Current_Directory>
/home/itssahil/PROJECTS/Mol_Feturizer/New_Systems/rnas/2b57

>  <Rbt.Executable>
rbdock ($Id: //depot/dev/client3/rdock/2013.1/src/exe/rbdock.cxx#4 $)

>  <Rbt.Library>
libRbt.so (2013.1, Build901 2013/11/27)

>  <Rbt.Parameter_File>
/export/apps/rDock/src/rDock_2013.1_src/data/scripts/dock_solv.prm

>  <Rbt.Receptor>
prm/blind_docking_60.prm

>  <SCORE>
-10.3905

>  <SCORE.INTER>
-10.3905

>  <SCORE.INTER.CONST>
1

>  <SCORE.INTER.POLAR>
0

>  <SCORE.INTER.ROT>
0

>  <SCORE.INTER.SOLV>
18.1391

>  <SCORE.INTER.VDW>
-16.5734

>  <SCORE.INTER.norm>
-0.944594

>  <SCORE.INTRA>
0

>  <SCORE.INTRA.DIHEDRAL>
0

>  <SCORE.INTRA.DIHEDRAL.0>
0

>  <SCORE.INTRA.POLAR>
0

>  <SCORE.INTRA.POLAR.0>
0

>  <SCORE.INTRA.REPUL>
0

>  <SCORE.INTRA.REPUL.0>
0

>  <SCORE.INTRA.SOLV>
0

>  <SCORE.INTRA.SOLV.lig_0>
-48.3454

>  <SCORE.INTRA.VDW>
0

>  <SCORE.INTRA.VDW.0>
0

>  <SCORE.INTRA.norm>
0

>  <SCORE.RESTR>
0

>  <SCORE.RESTR.CAVITY>
0

>  <SCORE.RESTR.norm>
0

>  <SCORE.SYSTEM>
0

>  <SCORE.SYSTEM.CONST>
0

>  <SCORE.SYSTEM.DIHEDRAL>
0

>  <SCORE.SYSTEM.SOLV>
0

>  <SCORE.SYSTEM.norm>
0

>  <SCORE.heavy>
11

>  <SCORE.norm>
-0.944594

>  <RMSD>
3.348

$$$$
ligand
 OpenBabel01301917033D
libRbt.so/2013.1/901 2013/11/27
 11 12  0  0  0  0  0  0  0  0999 V2000
  -11.6860  -12.4353    6.2274 N   0  0  0  0  0  0  0  0  0  0  0  0
  -10.8901  -13.5078    6.0892 C   0  0  0  0  0  0  0  0  0  0  0  0
  -10.3423  -13.7758    4.9073 N   0  0  0  0  0  0  0  0  0  0  0  0
  -10.6502  -14.3185    7.1315 N   0  0  0  0  0  0  0  0  0  0  0  0
  -11.2026  -14.0755    8.3293 C   0  0  0  0  0  0  0  0  0  0  0  0
  -12.0300  -12.9727    8.4994 C   0  0  0  0  0  0  0  0  0  0  0  0
  -12.2615  -12.1459    7.4051 C   0  0  0  0  0  0  0  0  0  0  0  0
  -13.0392  -11.0742    7.5260 N   0  0  0  0  0  0  0  0  0  0  0  0
  -12.4482  -12.9773    9.7616 N   0  0  0  0  0  0  0  0  0  0  0  0
  -11.9109  -14.0352   10.3649 C   0  0  0  0  0  0  0  0  0  0  0  0
  -11.1531  -14.7054    9.4995 N   0  0  0  0  0  0  0  0  0  0  0  0
  1  7  2  0  0  0  0
  1  2  1  0  0  0  0
  2  3  1  0  0  0  0
  2  4  2  0  0  0  0
  4  5  1  0  0  0  0
  5  6  2  0  0  0  0
  5 11  1  0  0  0  0
  6  7  1  0  0  0  0
  6  9  1  0  0  0  0
  7  8  1  0  0  0  0
  9 10  1  0  0  0  0
 10 11  2  0  0  0  0
M  END
>  <CHROM.1>
-11.59728855,-13.26985257,7.77090294,1.16617102,0.91742746,-1.13845590

>  <Name>
ligand

>  <RI>
0

>  <Rbt.Current_Directory>
/home/itssahil/PROJECTS/Mol_Feturizer/New_Systems/rnas/2b57

>  <Rbt.Executable>
rbdock ($Id: //depot/dev/client3/rdock/2013.1/src/exe/rbdock.cxx#4 $)

>  <Rbt.Library>
libRbt.so (2013.1, Build901 2013/11/27)

>  <Rbt.Parameter_File>
/export/apps/rDock/src/rDock_2013.1_src/data/scripts/dock_solv.prm

>  <Rbt.Receptor>
prm/blind_docking_80.prm

>  <SCORE>
-10.3944

>  <SCORE.INTER>
-10.3944

>  <SCORE.INTER.CONST>
1

>  <SCORE.INTER.POLAR>
0

>  <SCORE.INTER.ROT>
0

>  <SCORE.INTER.SOLV>
18.2061

>  <SCORE.INTER.VDW>
-16.5983

>  <SCORE.INTER.norm>
-0.944948

>  <SCORE.INTRA>
0

>  <SCORE.INTRA.DIHEDRAL>
0

>  <SCORE.INTRA.DIHEDRAL.0>
0

>  <SCORE.INTRA.POLAR>
0

>  <SCORE.INTRA.POLAR.0>
0

>  <SCORE.INTRA.REPUL>
0

>  <SCORE.INTRA.REPUL.0>
0

>  <SCORE.INTRA.SOLV>
0

>  <SCORE.INTRA.SOLV.lig_0>
-48.3454

>  <SCORE.INTRA.VDW>
0

>  <SCORE.INTRA.VDW.0>
0

>  <SCORE.INTRA.norm>
0

>  <SCORE.RESTR>
0

>  <SCORE.RESTR.CAVITY>
0

>  <SCORE.RESTR.norm>
0

>  <SCORE.SYSTEM>
0

>  <SCORE.SYSTEM.CONST>
0

>  <SCORE.SYSTEM.DIHEDRAL>
0

>  <SCORE.SYSTEM.SOLV>
0

>  <SCORE.SYSTEM.norm>
0

>  <SCORE.heavy>
11

>  <SCORE.norm>
-0.944948

>  <RMSD>
3.348

$$$$
ligand
 OpenBabel01301917033D
libRbt.so/2013.1/901 2013/11/27
 11 12  0  0  0  0  0  0  0  0999 V2000
  -11.7021  -12.4113    6.2419 N   0  0  0  0  0  0  0  0  0  0  0  0
  -10.9029  -13.4800    6.0941 C   0  0  0  0  0  0  0  0  0  0  0  0
  -10.3577  -13.7381    4.9087 N   0  0  0  0  0  0  0  0  0  0  0  0
  -10.6571  -14.2970    7.1301 N   0  0  0  0  0  0  0  0  0  0  0  0
  -11.2067  -14.0640    8.3311 C   0  0  0  0  0  0  0  0  0  0  0  0
  -12.0375  -12.9654    8.5113 C   0  0  0  0  0  0  0  0  0  0  0  0
  -12.2751  -12.1319    7.4233 C   0  0  0  0  0  0  0  0  0  0  0  0
  -13.0562  -11.0638    7.5537 N   0  0  0  0  0  0  0  0  0  0  0  0
  -12.4518  -12.9799    9.7746 N   0  0  0  0  0  0  0  0  0  0  0  0
  -11.9090  -14.0400   10.3691 C   0  0  0  0  0  0  0  0  0  0  0  0
  -11.1515  -14.7017    9.4969 N   0  0  0  0  0  0  0  0  0  0  0  0
  1  7  2  0  0  0  0
  1  2  1  0  0  0  0
  2  3  1  0  0  0  0
  2  4  2  0  0  0  0
  4  5  1  0  0  0  0
  5  6  2  0  0  0  0
  5 11  1  0  0  0  0
  6  7  1  0  0  0  0
  6  9  1  0  0  0  0
  7  8  1  0  0  0  0
  9 10  1  0  0  0  0
 10 11  2  0  0  0  0
M  END
>  <CHROM.1>
-11.60587353,-13.25599229,7.77944145,1.17308097,0.91550030,-1.13715717

>  <Name>
ligand

>  <RI>
0

>  <Rbt.Current_Directory>
/home/itssahil/PROJECTS/Mol_Feturizer/New_Systems/rnas/2b57

>  <Rbt.Executable>
rbdock ($Id: //depot/dev/client3/rdock/2013.1/src/exe/rbdock.cxx#4 $)

>  <Rbt.Library>
libRbt.so (2013.1, Build901 2013/11/27)

>  <Rbt.Parameter_File>
/export/apps/rDock/src/rDock_2013.1_src/data/scripts/dock_solv.prm

>  <Rbt.Receptor>
prm/blind_docking_80.prm

>  <SCORE>
-10.3901

>  <SCORE.INTER>
-10.3901

>  <SCORE.INTER.CONST>
1

>  <SCORE.INTER.POLAR>
0

>  <SCORE.INTER.ROT>
0

>  <SCORE.INTER.SOLV>
18.2308

>  <SCORE.INTER.VDW>
-16.6037

>  <SCORE.INTER.norm>
-0.944559

>  <SCORE.INTRA>
0

>  <SCORE.INTRA.DIHEDRAL>
0

>  <SCORE.INTRA.DIHEDRAL.0>
0

>  <SCORE.INTRA.POLAR>
0

>  <SCORE.INTRA.POLAR.0>
0

>  <SCORE.INTRA.REPUL>
0

>  <SCORE.INTRA.REPUL.0>
0

>  <SCORE.INTRA.SOLV>
0

>  <SCORE.INTRA.SOLV.lig_0>
-48.3454

>  <SCORE.INTRA.VDW>
0

>  <SCORE.INTRA.VDW.0>
0

>  <SCORE.INTRA.norm>
0

>  <SCORE.RESTR>
0

>  <SCORE.RESTR.CAVITY>
0

>  <SCORE.RESTR.norm>
0

>  <SCORE.SYSTEM>
0

>  <SCORE.SYSTEM.CONST>
0

>  <SCORE.SYSTEM.DIHEDRAL>
0

>  <SCORE.SYSTEM.SOLV>
0

>  <SCORE.SYSTEM.norm>
0

>  <SCORE.heavy>
11

>  <SCORE.norm>
-0.944559

>  <RMSD>
3.348

$$$$
ligand
 OpenBabel01301917033D
libRbt.so/2013.1/901 2013/11/27
 11 12  0  0  0  0  0  0  0  0999 V2000
  -11.6814  -12.4342    6.2399 N   0  0  0  0  0  0  0  0  0  0  0  0
  -10.8803  -13.5033    6.1057 C   0  0  0  0  0  0  0  0  0  0  0  0
  -10.3249  -13.7685    4.9266 N   0  0  0  0  0  0  0  0  0  0  0  0
  -10.6429  -14.3135    7.1489 N   0  0  0  0  0  0  0  0  0  0  0  0
  -11.2029  -14.0732    8.3437 C   0  0  0  0  0  0  0  0  0  0  0  0
  -12.0358  -12.9740    8.5098 C   0  0  0  0  0  0  0  0  0  0  0  0
  -12.2646  -12.1476    7.4145 C   0  0  0  0  0  0  0  0  0  0  0  0
  -13.0474  -11.0791    7.5315 N   0  0  0  0  0  0  0  0  0  0  0  0
  -12.4609  -12.9808    9.7696 N   0  0  0  0  0  0  0  0  0  0  0  0
  -11.9226  -14.0368   10.3754 C   0  0  0  0  0  0  0  0  0  0  0  0
  -11.1572  -14.7035    9.5139 N   0  0  0  0  0  0  0  0  0  0  0  0
  1  7  2  0  0  0  0
  1  2  1  0  0  0  0
  2  3  1  0  0  0  0
  2  4  2  0  0  0  0
  4  5  1  0  0  0  0
  5  6  2  0  0  0  0
  5 11  1  0  0  0  0
  6  7  1  0  0  0  0
  6  9  1  0  0  0  0
  7  8  1  0  0  0  0
  9 10  1  0  0  0  0
 10 11  2  0  0  0  0
M  END
>  <CHROM.1>
-11.59778872,-13.26898102,7.78350486,1.16082252,0.91136363,-1.13380140

>  <Name>
ligand

>  <RI>
0

>  <Rbt.Current_Directory>
/home/itssahil/PROJECTS/Mol_Feturizer/New_Systems/rnas/2b57

>  <Rbt.Executable>
rbdock ($Id: //depot/dev/client3/rdock/2013.1/src/exe/rbdock.cxx#4 $)

>  <Rbt.Library>
libRbt.so (2013.1, Build901 2013/11/27)

>  <Rbt.Parameter_File>
/export/apps/rDock/src/rDock_2013.1_src/data/scripts/dock_solv.prm

>  <Rbt.Receptor>
prm/blind_docking_80.prm

>  <SCORE>
-10.3934

>  <SCORE.INTER>
-10.3934

>  <SCORE.INTER.CONST>
1

>  <SCORE.INTER.POLAR>
0

>  <SCORE.INTER.ROT>
0

>  <SCORE.INTER.SOLV>
18.0696

>  <SCORE.INTER.VDW>
-16.5521

>  <SCORE.INTER.norm>
-0.944855

>  <SCORE.INTRA>
0

>  <SCORE.INTRA.DIHEDRAL>
0

>  <SCORE.INTRA.DIHEDRAL.0>
0

>  <SCORE.INTRA.POLAR>
0

>  <SCORE.INTRA.POLAR.0>
0

>  <SCORE.INTRA.REPUL>
0

>  <SCORE.INTRA.REPUL.0>
0

>  <SCORE.INTRA.SOLV>
0

>  <SCORE.INTRA.SOLV.lig_0>
-48.3454

>  <SCORE.INTRA.VDW>
0

>  <SCORE.INTRA.VDW.0>
0

>  <SCORE.INTRA.norm>
0

>  <SCORE.RESTR>
0

>  <SCORE.RESTR.CAVITY>
0

>  <SCORE.RESTR.norm>
0

>  <SCORE.SYSTEM>
0

>  <SCORE.SYSTEM.CONST>
0

>  <SCORE.SYSTEM.DIHEDRAL>
0

>  <SCORE.SYSTEM.SOLV>
0

>  <SCORE.SYSTEM.norm>
0

>  <SCORE.heavy>
11

>  <SCORE.norm>
-0.944855

>  <RMSD>
3.348

$$$$
ligand
 OpenBabel01301917033D
libRbt.so/2013.1/901 2013/11/27
 11 12  0  0  0  0  0  0  0  0999 V2000
  -11.6605  -12.4465    6.2463 N   0  0  0  0  0  0  0  0  0  0  0  0
  -10.8596  -13.5163    6.1171 C   0  0  0  0  0  0  0  0  0  0  0  0
  -10.3014  -13.7852    4.9402 N   0  0  0  0  0  0  0  0  0  0  0  0
  -10.6250  -14.3236    7.1632 N   0  0  0  0  0  0  0  0  0  0  0  0
  -11.1877  -14.0796    8.3560 C   0  0  0  0  0  0  0  0  0  0  0  0
  -12.0205  -12.9795    8.5169 C   0  0  0  0  0  0  0  0  0  0  0  0
  -12.2463  -12.1563    7.4187 C   0  0  0  0  0  0  0  0  0  0  0  0
  -13.0290  -11.0871    7.5307 N   0  0  0  0  0  0  0  0  0  0  0  0
  -12.4487  -12.9825    9.7757 N   0  0  0  0  0  0  0  0  0  0  0  0
  -11.9123  -14.0370   10.3859 C   0  0  0  0  0  0  0  0  0  0  0  0
  -11.1452  -14.7065    9.5281 N   0  0  0  0  0  0  0  0  0  0  0  0
  1  7  2  0  0  0  0
  1  2  1  0  0  0  0
  2  3  1  0  0  0  0
  2  4  2  0  0  0  0
  4  5  1  0  0  0  0
  5  6  2  0  0  0  0
  5 11  1  0  0  0  0
  6  7  1  0  0  0  0
  6  9  1  0  0  0  0
  7  8  1  0  0  0  0
  9 10  1  0  0  0  0
 10 11  2  0  0  0  0
M  END
>  <CHROM.1>
-11.58094866,-13.27683965,7.79252921,1.15694683,0.91074742,-1.13363827

>  <Name>
ligand

>  <RI>
0

>  <Rbt.Current_Directory>
/home/itssahil/PROJECTS/Mol_Feturizer/New_Systems/rnas/2b57

>  <Rbt.Executable>
rbdock ($Id: //depot/dev/client3/rdock/2013.1/src/exe/rbdock.cxx#4 $)

>  <Rbt.Library>
libRbt.so (2013.1, Build901 2013/11/27)

>  <Rbt.Parameter_File>
/export/apps/rDock/src/rDock_2013.1_src/data/scripts/dock_solv.prm

>  <Rbt.Receptor>
prm/pocket_docking_5.prm

>  <SCORE>
-10.3697

>  <SCORE.INTER>
-10.3697

>  <SCORE.INTER.CONST>
1

>  <SCORE.INTER.POLAR>
0

>  <SCORE.INTER.ROT>
0

>  <SCORE.INTER.SOLV>
17.9645

>  <SCORE.INTER.VDW>
-16.5013

>  <SCORE.INTER.norm>
-0.942699

>  <SCORE.INTRA>
0

>  <SCORE.INTRA.DIHEDRAL>
0

>  <SCORE.INTRA.DIHEDRAL.0>
0

>  <SCORE.INTRA.POLAR>
0

>  <SCORE.INTRA.POLAR.0>
0

>  <SCORE.INTRA.REPUL>
0

>  <SCORE.INTRA.REPUL.0>
0

>  <SCORE.INTRA.SOLV>
0

>  <SCORE.INTRA.SOLV.lig_0>
-48.3454

>  <SCORE.INTRA.VDW>
0

>  <SCORE.INTRA.VDW.0>
0

>  <SCORE.INTRA.norm>
0

>  <SCORE.RESTR>
0

>  <SCORE.RESTR.CAVITY>
0

>  <SCORE.RESTR.norm>
0

>  <SCORE.SYSTEM>
0

>  <SCORE.SYSTEM.CONST>
0

>  <SCORE.SYSTEM.DIHEDRAL>
0

>  <SCORE.SYSTEM.SOLV>
0

>  <SCORE.SYSTEM.norm>
0

>  <SCORE.heavy>
11

>  <SCORE.norm>
-0.942699

>  <RMSD>
3.348

$$$$
ligand
 OpenBabel01301917033D
libRbt.so/2013.1/901 2013/11/27
 11 12  0  0  0  0  0  0  0  0999 V2000
  -11.6610  -12.4288    6.2435 N   0  0  0  0  0  0  0  0  0  0  0  0
  -10.8550  -13.4948    6.1144 C   0  0  0  0  0  0  0  0  0  0  0  0
  -10.2907  -13.7576    4.9391 N   0  0  0  0  0  0  0  0  0  0  0  0
  -10.6214  -14.3043    7.1590 N   0  0  0  0  0  0  0  0  0  0  0  0
  -11.1903  -14.0665    8.3501 C   0  0  0  0  0  0  0  0  0  0  0  0
  -12.0285  -12.9705    8.5109 C   0  0  0  0  0  0  0  0  0  0  0  0
  -12.2531  -12.1447    7.4143 C   0  0  0  0  0  0  0  0  0  0  0  0
  -13.0407  -11.0793    7.5263 N   0  0  0  0  0  0  0  0  0  0  0  0
  -12.4620  -12.9792    9.7678 N   0  0  0  0  0  0  0  0  0  0  0  0
  -11.9237  -14.0333   10.3770 C   0  0  0  0  0  0  0  0  0  0  0  0
  -11.1501  -14.6968    9.5205 N   0  0  0  0  0  0  0  0  0  0  0  0
  1  7  2  0  0  0  0
  1  2  1  0  0  0  0
  2  3  1  0  0  0  0
  2  4  2  0  0  0  0
  4  5  1  0  0  0  0
  5  6  2  0  0  0  0
  5 11  1  0  0  0  0
  6  7  1  0  0  0  0
  6  9  1  0  0  0  0
  7  8  1  0  0  0  0
  9 10  1  0  0  0  0
 10 11  2  0  0  0  0
M  END
>  <CHROM.1>
-11.58451458,-13.26363036,7.78747967,1.15362768,0.90507484,-1.12790407

>  <Name>
ligand

>  <RI>
0

>  <Rbt.Current_Directory>
/home/itssahil/PROJECTS/Mol_Feturizer/New_Systems/rnas/2b57

>  <Rbt.Executable>
rbdock ($Id: //depot/dev/client3/rdock/2013.1/src/exe/rbdock.cxx#4 $)

>  <Rbt.Library>
libRbt.so (2013.1, Build901 2013/11/27)

>  <Rbt.Parameter_File>
/export/apps/rDock/src/rDock_2013.1_src/data/scripts/dock_solv.prm

>  <Rbt.Receptor>
prm/pocket_docking_5.prm

>  <SCORE>
-10.3905

>  <SCORE.INTER>
-10.3905

>  <SCORE.INTER.CONST>
1

>  <SCORE.INTER.POLAR>
0

>  <SCORE.INTER.ROT>
0

>  <SCORE.INTER.SOLV>
17.95

>  <SCORE.INTER.VDW>
-16.5103

>  <SCORE.INTER.norm>
-0.944594

>  <SCORE.INTRA>
0

>  <SCORE.INTRA.DIHEDRAL>
0

>  <SCORE.INTRA.DIHEDRAL.0>
0

>  <SCORE.INTRA.POLAR>
0

>  <SCORE.INTRA.POLAR.0>
0

>  <SCORE.INTRA.REPUL>
0

>  <SCORE.INTRA.REPUL.0>
0

>  <SCORE.INTRA.SOLV>
0

>  <SCORE.INTRA.SOLV.lig_0>
-48.3454

>  <SCORE.INTRA.VDW>
0

>  <SCORE.INTRA.VDW.0>
0

>  <SCORE.INTRA.norm>
0

>  <SCORE.RESTR>
0

>  <SCORE.RESTR.CAVITY>
0

>  <SCORE.RESTR.norm>
0

>  <SCORE.SYSTEM>
0

>  <SCORE.SYSTEM.CONST>
0

>  <SCORE.SYSTEM.DIHEDRAL>
0

>  <SCORE.SYSTEM.SOLV>
0

>  <SCORE.SYSTEM.norm>
0

>  <SCORE.heavy>
11

>  <SCORE.norm>
-0.944594

>  <RMSD>
3.348

$$$$
ligand
 OpenBabel01301917033D
libRbt.so/2013.1/901 2013/11/27
 11 12  0  0  0  0  0  0  0  0999 V2000
  -11.6864  -12.4390    6.2285 N   0  0  0  0  0  0  0  0  0  0  0  0
  -10.8930  -13.5134    6.0917 C   0  0  0  0  0  0  0  0  0  0  0  0
  -10.3465  -13.7847    4.9099 N   0  0  0  0  0  0  0  0  0  0  0  0
  -10.6543  -14.3229    7.1352 N   0  0  0  0  0  0  0  0  0  0  0  0
  -11.2054  -14.0766    8.3329 C   0  0  0  0  0  0  0  0  0  0  0  0
  -12.0303  -12.9717    8.5017 C   0  0  0  0  0  0  0  0  0  0  0  0
  -12.2606  -12.1462    7.4061 C   0  0  0  0  0  0  0  0  0  0  0  0
  -13.0359  -11.0726    7.5255 N   0  0  0  0  0  0  0  0  0  0  0  0
  -12.4477  -12.9731    9.7641 N   0  0  0  0  0  0  0  0  0  0  0  0
  -11.9124  -14.0312   10.3689 C   0  0  0  0  0  0  0  0  0  0  0  0
  -11.1566  -14.7046    9.5042 N   0  0  0  0  0  0  0  0  0  0  0  0
  1  7  2  0  0  0  0
  1  2  1  0  0  0  0
  2  3  1  0  0  0  0
  2  4  2  0  0  0  0
  4  5  1  0  0  0  0
  5  6  2  0  0  0  0
  5 11  1  0  0  0  0
  6  7  1  0  0  0  0
  6  9  1  0  0  0  0
  7  8  1  0  0  0  0
  9 10  1  0  0  0  0
 10 11  2  0  0  0  0
M  END
>  <CHROM.1>
-11.59865365,-13.27101335,7.77338165,1.16556714,0.91969204,-1.13971867

>  <Name>
ligand

>  <RI>
0

>  <Rbt.Current_Directory>
/home/itssahil/PROJECTS/Mol_Feturizer/New_Systems/rnas/2b57

>  <Rbt.Executable>
rbdock ($Id: //depot/dev/client3/rdock/2013.1/src/exe/rbdock.cxx#4 $)

>  <Rbt.Library>
libRbt.so (2013.1, Build901 2013/11/27)

>  <Rbt.Parameter_File>
/export/apps/rDock/src/rDock_2013.1_src/data/scripts/dock_solv.prm

>  <Rbt.Receptor>
prm/pocket_docking_6.prm

>  <SCORE>
-10.4185

>  <SCORE.INTER>
-10.4185

>  <SCORE.INTER.CONST>
1

>  <SCORE.INTER.POLAR>
0

>  <SCORE.INTER.ROT>
0

>  <SCORE.INTER.SOLV>
18.204

>  <SCORE.INTER.VDW>
-16.6137

>  <SCORE.INTER.norm>
-0.947134

>  <SCORE.INTRA>
0

>  <SCORE.INTRA.DIHEDRAL>
0

>  <SCORE.INTRA.DIHEDRAL.0>
0

>  <SCORE.INTRA.POLAR>
0

>  <SCORE.INTRA.POLAR.0>
0

>  <SCORE.INTRA.REPUL>
0

>  <SCORE.INTRA.REPUL.0>
0

>  <SCORE.INTRA.SOLV>
0

>  <SCORE.INTRA.SOLV.lig_0>
-48.3454

>  <SCORE.INTRA.VDW>
0

>  <SCORE.INTRA.VDW.0>
0

>  <SCORE.INTRA.norm>
0

>  <SCORE.RESTR>
0

>  <SCORE.RESTR.CAVITY>
0

>  <SCORE.RESTR.norm>
0

>  <SCORE.SYSTEM>
0

>  <SCORE.SYSTEM.CONST>
0

>  <SCORE.SYSTEM.DIHEDRAL>
0

>  <SCORE.SYSTEM.SOLV>
0

>  <SCORE.SYSTEM.norm>
0

>  <SCORE.heavy>
11

>  <SCORE.norm>
-0.947134

>  <RMSD>
3.348

$$$$
ligand
 OpenBabel01301917033D
libRbt.so/2013.1/901 2013/11/27
 11 12  0  0  0  0  0  0  0  0999 V2000
  -11.6974  -12.4364    6.2269 N   0  0  0  0  0  0  0  0  0  0  0  0
  -10.9005  -13.5085    6.0913 C   0  0  0  0  0  0  0  0  0  0  0  0
  -10.3537  -13.7797    4.9096 N   0  0  0  0  0  0  0  0  0  0  0  0
  -10.6587  -14.3156    7.1358 N   0  0  0  0  0  0  0  0  0  0  0  0
  -11.2100  -14.0693    8.3334 C   0  0  0  0  0  0  0  0  0  0  0  0
  -12.0384  -12.9669    8.5010 C   0  0  0  0  0  0  0  0  0  0  0  0
  -12.2719  -12.1438    7.4043 C   0  0  0  0  0  0  0  0  0  0  0  0
  -13.0506  -11.0725    7.5226 N   0  0  0  0  0  0  0  0  0  0  0  0
  -12.4552  -12.9678    9.7636 N   0  0  0  0  0  0  0  0  0  0  0  0
  -11.9161  -14.0233   10.3697 C   0  0  0  0  0  0  0  0  0  0  0  0
  -11.1586  -14.6955    9.5056 N   0  0  0  0  0  0  0  0  0  0  0  0
  1  7  2  0  0  0  0
  1  2  1  0  0  0  0
  2  3  1  0  0  0  0
  2  4  2  0  0  0  0
  4  5  1  0  0  0  0
  5  6  2  0  0  0  0
  5 11  1  0  0  0  0
  6  7  1  0  0  0  0
  6  9  1  0  0  0  0
  7  8  1  0  0  0  0
  9 10  1  0  0  0  0
 10 11  2  0  0  0  0
M  END
>  <CHROM.1>
-11.60613930,-13.26588710,7.77293137,1.16853887,0.91694055,-1.14353555

>  <Name>
ligand

>  <RI>
0

>  <Rbt.Current_Directory>
/home/itssahil/PROJECTS/Mol_Feturizer/New_Systems/rnas/2b57

>  <Rbt.Executable>
rbdock ($Id: //depot/dev/client3/rdock/2013.1/src/exe/rbdock.cxx#4 $)

>  <Rbt.Library>
libRbt.so (2013.1, Build901 2013/11/27)

>  <Rbt.Parameter_File>
/export/apps/rDock/src/rDock_2013.1_src/data/scripts/dock_solv.prm

>  <Rbt.Receptor>
prm/pocket_docking_6.prm

>  <SCORE>
-10.4222

>  <SCORE.INTER>
-10.4222

>  <SCORE.INTER.CONST>
1

>  <SCORE.INTER.POLAR>
0

>  <SCORE.INTER.ROT>
0

>  <SCORE.INTER.SOLV>
18.2064

>  <SCORE.INTER.VDW>
-16.6169

>  <SCORE.INTER.norm>
-0.947472

>  <SCORE.INTRA>
0

>  <SCORE.INTRA.DIHEDRAL>
0

>  <SCORE.INTRA.DIHEDRAL.0>
0

>  <SCORE.INTRA.POLAR>
0

>  <SCORE.INTRA.POLAR.0>
0

>  <SCORE.INTRA.REPUL>
0

>  <SCORE.INTRA.REPUL.0>
0

>  <SCORE.INTRA.SOLV>
0

>  <SCORE.INTRA.SOLV.lig_0>
-48.3454

>  <SCORE.INTRA.VDW>
0

>  <SCORE.INTRA.VDW.0>
0

>  <SCORE.INTRA.norm>
0

>  <SCORE.RESTR>
0

>  <SCORE.RESTR.CAVITY>
0

>  <SCORE.RESTR.norm>
0

>  <SCORE.SYSTEM>
0

>  <SCORE.SYSTEM.CONST>
0

>  <SCORE.SYSTEM.DIHEDRAL>
0

>  <SCORE.SYSTEM.SOLV>
0

>  <SCORE.SYSTEM.norm>
0

>  <SCORE.heavy>
11

>  <SCORE.norm>
-0.947472

>  <RMSD>
3.348

$$$$
ligand
 OpenBabel01301917033D
libRbt.so/2013.1/901 2013/11/27
 11 12  0  0  0  0  0  0  0  0999 V2000
  -11.6906  -12.4383    6.2280 N   0  0  0  0  0  0  0  0  0  0  0  0
  -10.8957  -13.5117    6.0914 C   0  0  0  0  0  0  0  0  0  0  0  0
  -10.3494  -13.7828    4.9094 N   0  0  0  0  0  0  0  0  0  0  0  0
  -10.6553  -14.3203    7.1352 N   0  0  0  0  0  0  0  0  0  0  0  0
  -11.2061  -14.0741    8.3330 C   0  0  0  0  0  0  0  0  0  0  0  0
  -12.0325  -12.9703    8.5016 C   0  0  0  0  0  0  0  0  0  0  0  0
  -12.2646  -12.1458    7.4057 C   0  0  0  0  0  0  0  0  0  0  0  0
  -13.0414  -11.0732    7.5249 N   0  0  0  0  0  0  0  0  0  0  0  0
  -12.4494  -12.9716    9.7643 N   0  0  0  0  0  0  0  0  0  0  0  0
  -11.9122  -14.0286   10.3694 C   0  0  0  0  0  0  0  0  0  0  0  0
  -11.1558  -14.7014    9.5046 N   0  0  0  0  0  0  0  0  0  0  0  0
  1  7  2  0  0  0  0
  1  2  1  0  0  0  0
  2  3  1  0  0  0  0
  2  4  2  0  0  0  0
  4  5  1  0  0  0  0
  5  6  2  0  0  0  0
  5 11  1  0  0  0  0
  6  7  1  0  0  0  0
  6  9  1  0  0  0  0
  7  8  1  0  0  0  0
  9 10  1  0  0  0  0
 10 11  2  0  0  0  0
M  END
>  <CHROM.1>
-11.60083267,-13.26939422,7.77327651,1.16730717,0.91857737,-1.14164791

>  <Name>
ligand

>  <RI>
0

>  <Rbt.Current_Directory>
/home/itssahil/PROJECTS/Mol_Feturizer/New_Systems/rnas/2b57

>  <Rbt.Executable>
rbdock ($Id: //depot/dev/client3/rdock/2013.1/src/exe/rbdock.cxx#4 $)

>  <Rbt.Library>
libRbt.so (2013.1, Build901 2013/11/27)

>  <Rbt.Parameter_File>
/export/apps/rDock/src/rDock_2013.1_src/data/scripts/dock_solv.prm

>  <Rbt.Receptor>
prm/pocket_docking_6.prm

>  <SCORE>
-10.419

>  <SCORE.INTER>
-10.419

>  <SCORE.INTER.CONST>
1

>  <SCORE.INTER.POLAR>
0

>  <SCORE.INTER.ROT>
0

>  <SCORE.INTER.SOLV>
18.2065

>  <SCORE.INTER.VDW>
-16.6148

>  <SCORE.INTER.norm>
-0.947178

>  <SCORE.INTRA>
0

>  <SCORE.INTRA.DIHEDRAL>
0

>  <SCORE.INTRA.DIHEDRAL.0>
0

>  <SCORE.INTRA.POLAR>
0

>  <SCORE.INTRA.POLAR.0>
0

>  <SCORE.INTRA.REPUL>
0

>  <SCORE.INTRA.REPUL.0>
0

>  <SCORE.INTRA.SOLV>
0

>  <SCORE.INTRA.SOLV.lig_0>
-48.3454

>  <SCORE.INTRA.VDW>
0

>  <SCORE.INTRA.VDW.0>
0

>  <SCORE.INTRA.norm>
0

>  <SCORE.RESTR>
0

>  <SCORE.RESTR.CAVITY>
0

>  <SCORE.RESTR.norm>
0

>  <SCORE.SYSTEM>
0

>  <SCORE.SYSTEM.CONST>
0

>  <SCORE.SYSTEM.DIHEDRAL>
0

>  <SCORE.SYSTEM.SOLV>
0

>  <SCORE.SYSTEM.norm>
0

>  <SCORE.heavy>
11

>  <SCORE.norm>
-0.947178

>  <RMSD>
3.348

$$$$
ligand
 OpenBabel01301917033D
libRbt.so/2013.1/901 2013/11/27
 11 12  0  0  0  0  0  0  0  0999 V2000
  -11.6774  -12.4342    6.2235 N   0  0  0  0  0  0  0  0  0  0  0  0
  -10.8826  -13.5075    6.0857 C   0  0  0  0  0  0  0  0  0  0  0  0
  -10.3342  -13.7758    4.9041 N   0  0  0  0  0  0  0  0  0  0  0  0
  -10.6444  -14.3187    7.1280 N   0  0  0  0  0  0  0  0  0  0  0  0
  -11.1974  -14.0754    8.3254 C   0  0  0  0  0  0  0  0  0  0  0  0
  -12.0238  -12.9718    8.4952 C   0  0  0  0  0  0  0  0  0  0  0  0
  -12.2535  -12.1444    7.4009 C   0  0  0  0  0  0  0  0  0  0  0  0
  -13.0302  -11.0719    7.5213 N   0  0  0  0  0  0  0  0  0  0  0  0
  -12.4430  -12.9761    9.7570 N   0  0  0  0  0  0  0  0  0  0  0  0
  -11.9073  -14.0348   10.3605 C   0  0  0  0  0  0  0  0  0  0  0  0
  -11.1495  -14.7056    9.4955 N   0  0  0  0  0  0  0  0  0  0  0  0
  1  7  2  0  0  0  0
  1  2  1  0  0  0  0
  2  3  1  0  0  0  0
  2  4  2  0  0  0  0
  4  5  1  0  0  0  0
  5  6  2  0  0  0  0
  5 11  1  0  0  0  0
  6  7  1  0  0  0  0
  6  9  1  0  0  0  0
  7  8  1  0  0  0  0
  9 10  1  0  0  0  0
 10 11  2  0  0  0  0
M  END
>  <CHROM.1>
-11.59082999,-13.26917566,7.76689729,1.16429520,0.91807619,-1.13675388

>  <Name>
ligand

>  <RI>
0

>  <Rbt.Current_Directory>
/home/itssahil/PROJECTS/Mol_Feturizer/New_Systems/rnas/2b57

>  <Rbt.Executable>
rbdock ($Id: //depot/dev/client3/rdock/2013.1/src/exe/rbdock.cxx#4 $)

>  <Rbt.Library>
libRbt.so (2013.1, Build901 2013/11/27)

>  <Rbt.Parameter_File>
/export/apps/rDock/src/rDock_2013.1_src/data/scripts/dock_solv.prm

>  <Rbt.Receptor>
prm/pocket_docking_7.prm

>  <SCORE>
-10.3906

>  <SCORE.INTER>
-10.3906

>  <SCORE.INTER.CONST>
1

>  <SCORE.INTER.POLAR>
0

>  <SCORE.INTER.ROT>
0

>  <SCORE.INTER.SOLV>
18.2148

>  <SCORE.INTER.VDW>
-16.5987

>  <SCORE.INTER.norm>
-0.944604

>  <SCORE.INTRA>
0

>  <SCORE.INTRA.DIHEDRAL>
0

>  <SCORE.INTRA.DIHEDRAL.0>
0

>  <SCORE.INTRA.POLAR>
0

>  <SCORE.INTRA.POLAR.0>
0

>  <SCORE.INTRA.REPUL>
0

>  <SCORE.INTRA.REPUL.0>
0

>  <SCORE.INTRA.SOLV>
0

>  <SCORE.INTRA.SOLV.lig_0>
-48.3454

>  <SCORE.INTRA.VDW>
0

>  <SCORE.INTRA.VDW.0>
0

>  <SCORE.INTRA.norm>
0

>  <SCORE.RESTR>
0

>  <SCORE.RESTR.CAVITY>
0

>  <SCORE.RESTR.norm>
0

>  <SCORE.SYSTEM>
0

>  <SCORE.SYSTEM.CONST>
0

>  <SCORE.SYSTEM.DIHEDRAL>
0

>  <SCORE.SYSTEM.SOLV>
0

>  <SCORE.SYSTEM.norm>
0

>  <SCORE.heavy>
11

>  <SCORE.norm>
-0.944604

>  <RMSD>
3.348

$$$$
ligand
 OpenBabel01301917033D
libRbt.so/2013.1/901 2013/11/27
 11 12  0  0  0  0  0  0  0  0999 V2000
  -11.6945  -12.4342    6.2292 N   0  0  0  0  0  0  0  0  0  0  0  0
  -10.8987  -13.5067    6.0910 C   0  0  0  0  0  0  0  0  0  0  0  0
  -10.3527  -13.7761    4.9084 N   0  0  0  0  0  0  0  0  0  0  0  0
  -10.6571  -14.3163    7.1337 N   0  0  0  0  0  0  0  0  0  0  0  0
  -11.2076  -14.0719    8.3321 C   0  0  0  0  0  0  0  0  0  0  0  0
  -12.0349  -12.9690    8.5024 C   0  0  0  0  0  0  0  0  0  0  0  0
  -12.2681  -12.1435    7.4075 C   0  0  0  0  0  0  0  0  0  0  0  0
  -13.0458  -11.0717    7.5283 N   0  0  0  0  0  0  0  0  0  0  0  0
  -12.4510  -12.9722    9.7652 N   0  0  0  0  0  0  0  0  0  0  0  0
  -11.9127  -14.0294   10.3689 C   0  0  0  0  0  0  0  0  0  0  0  0
  -11.1562  -14.7005    9.5030 N   0  0  0  0  0  0  0  0  0  0  0  0
  1  7  2  0  0  0  0
  1  2  1  0  0  0  0
  2  3  1  0  0  0  0
  2  4  2  0  0  0  0
  4  5  1  0  0  0  0
  5  6  2  0  0  0  0
  5 11  1  0  0  0  0
  6  7  1  0  0  0  0
  6  9  1  0  0  0  0
  7  8  1  0  0  0  0
  9 10  1  0  0  0  0
 10 11  2  0  0  0  0
M  END
>  <CHROM.1>
-11.60324794,-13.26695052,7.77347723,1.16863837,0.91800028,-1.14157145

>  <Name>
ligand

>  <RI>
0

>  <Rbt.Current_Directory>
/home/itssahil/PROJECTS/Mol_Feturizer/New_Systems/rnas/2b57

>  <Rbt.Executable>
rbdock ($Id: //depot/dev/client3/rdock/2013.1/src/exe/rbdock.cxx#4 $)

>  <Rbt.Library>
libRbt.so (2013.1, Build901 2013/11/27)

>  <Rbt.Parameter_File>
/export/apps/rDock/src/rDock_2013.1_src/data/scripts/dock_solv.prm

>  <Rbt.Receptor>
prm/pocket_docking_8.prm

>  <SCORE>
-10.4228

>  <SCORE.INTER>
-10.4228

>  <SCORE.INTER.CONST>
1

>  <SCORE.INTER.POLAR>
0

>  <SCORE.INTER.ROT>
0

>  <SCORE.INTER.SOLV>
18.2142

>  <SCORE.INTER.VDW>
-16.6199

>  <SCORE.INTER.norm>
-0.947526

>  <SCORE.INTRA>
0

>  <SCORE.INTRA.DIHEDRAL>
0

>  <SCORE.INTRA.DIHEDRAL.0>
0

>  <SCORE.INTRA.POLAR>
0

>  <SCORE.INTRA.POLAR.0>
0

>  <SCORE.INTRA.REPUL>
0

>  <SCORE.INTRA.REPUL.0>
0

>  <SCORE.INTRA.SOLV>
0

>  <SCORE.INTRA.SOLV.lig_0>
-48.3454

>  <SCORE.INTRA.VDW>
0

>  <SCORE.INTRA.VDW.0>
0

>  <SCORE.INTRA.norm>
0

>  <SCORE.RESTR>
0

>  <SCORE.RESTR.CAVITY>
0

>  <SCORE.RESTR.norm>
0

>  <SCORE.SYSTEM>
0

>  <SCORE.SYSTEM.CONST>
0

>  <SCORE.SYSTEM.DIHEDRAL>
0

>  <SCORE.SYSTEM.SOLV>
0

>  <SCORE.SYSTEM.norm>
0

>  <SCORE.heavy>
11

>  <SCORE.norm>
-0.947526

>  <RMSD>
3.348

$$$$
ligand
 OpenBabel01301917033D
libRbt.so/2013.1/901 2013/11/27
 11 12  0  0  0  0  0  0  0  0999 V2000
  -11.7151  -12.4403    6.2296 N   0  0  0  0  0  0  0  0  0  0  0  0
  -10.9116  -13.5074    6.0935 C   0  0  0  0  0  0  0  0  0  0  0  0
  -10.3640  -13.7752    4.9114 N   0  0  0  0  0  0  0  0  0  0  0  0
  -10.6639  -14.3130    7.1379 N   0  0  0  0  0  0  0  0  0  0  0  0
  -11.2158  -14.0701    8.3359 C   0  0  0  0  0  0  0  0  0  0  0  0
  -12.0510  -12.9729    8.5041 C   0  0  0  0  0  0  0  0  0  0  0  0
  -12.2905  -12.1513    7.4075 C   0  0  0  0  0  0  0  0  0  0  0  0
  -13.0759  -11.0849    7.5263 N   0  0  0  0  0  0  0  0  0  0  0  0
  -12.4668  -12.9763    9.7670 N   0  0  0  0  0  0  0  0  0  0  0  0
  -11.9207  -14.0284   10.3727 C   0  0  0  0  0  0  0  0  0  0  0  0
  -11.1596  -14.6958    9.5080 N   0  0  0  0  0  0  0  0  0  0  0  0
  1  7  2  0  0  0  0
  1  2  1  0  0  0  0
  2  3  1  0  0  0  0
  2  4  2  0  0  0  0
  4  5  1  0  0  0  0
  5  6  2  0  0  0  0
  5 11  1  0  0  0  0
  6  7  1  0  0  0  0
  6  9  1  0  0  0  0
  7  8  1  0  0  0  0
  9 10  1  0  0  0  0
 10 11  2  0  0  0  0
M  END
>  <CHROM.1>
-11.61745429,-13.26915861,7.77567162,1.17393241,0.91152910,-1.14785281

>  <Name>
ligand

>  <RI>
0

>  <Rbt.Current_Directory>
/home/itssahil/PROJECTS/Mol_Feturizer/New_Systems/rnas/2b57

>  <Rbt.Executable>
rbdock ($Id: //depot/dev/client3/rdock/2013.1/src/exe/rbdock.cxx#4 $)

>  <Rbt.Library>
libRbt.so (2013.1, Build901 2013/11/27)

>  <Rbt.Parameter_File>
/export/apps/rDock/src/rDock_2013.1_src/data/scripts/dock_solv.prm

>  <Rbt.Receptor>
prm/blind_docking_100.prm

>  <SCORE>
-10.4251

>  <SCORE.INTER>
-10.4251

>  <SCORE.INTER.CONST>
1

>  <SCORE.INTER.POLAR>
0

>  <SCORE.INTER.ROT>
0

>  <SCORE.INTER.SOLV>
18.1904

>  <SCORE.INTER.VDW>
-16.6136

>  <SCORE.INTER.norm>
-0.94774

>  <SCORE.INTRA>
0

>  <SCORE.INTRA.DIHEDRAL>
0

>  <SCORE.INTRA.DIHEDRAL.0>
0

>  <SCORE.INTRA.POLAR>
0

>  <SCORE.INTRA.POLAR.0>
0

>  <SCORE.INTRA.REPUL>
0

>  <SCORE.INTRA.REPUL.0>
0

>  <SCORE.INTRA.SOLV>
0

>  <SCORE.INTRA.SOLV.lig_0>
-48.3454

>  <SCORE.INTRA.VDW>
0

>  <SCORE.INTRA.VDW.0>
0

>  <SCORE.INTRA.norm>
0

>  <SCORE.RESTR>
0

>  <SCORE.RESTR.CAVITY>
0

>  <SCORE.RESTR.norm>
0

>  <SCORE.SYSTEM>
0

>  <SCORE.SYSTEM.CONST>
0

>  <SCORE.SYSTEM.DIHEDRAL>
0

>  <SCORE.SYSTEM.SOLV>
0

>  <SCORE.SYSTEM.norm>
0

>  <SCORE.heavy>
11

>  <SCORE.norm>
-0.94774

>  <RMSD>
3.349

$$$$
ligand
 OpenBabel01301917033D
libRbt.so/2013.1/901 2013/11/27
 11 12  0  0  0  0  0  0  0  0999 V2000
  -11.6970  -12.4440    6.2254 N   0  0  0  0  0  0  0  0  0  0  0  0
  -10.8951  -13.5120    6.0877 C   0  0  0  0  0  0  0  0  0  0  0  0
  -10.3457  -13.7774    4.9058 N   0  0  0  0  0  0  0  0  0  0  0  0
  -10.6507  -14.3210    7.1302 N   0  0  0  0  0  0  0  0  0  0  0  0
  -11.2045  -14.0806    8.3279 C   0  0  0  0  0  0  0  0  0  0  0  0
  -12.0381  -12.9825    8.4976 C   0  0  0  0  0  0  0  0  0  0  0  0
  -12.2742  -12.1574    7.4030 C   0  0  0  0  0  0  0  0  0  0  0  0
  -13.0580  -11.0900    7.5234 N   0  0  0  0  0  0  0  0  0  0  0  0
  -12.4564  -12.9889    9.7598 N   0  0  0  0  0  0  0  0  0  0  0  0
  -11.9131  -14.0436   10.3635 C   0  0  0  0  0  0  0  0  0  0  0  0
  -11.1515  -14.7098    9.4983 N   0  0  0  0  0  0  0  0  0  0  0  0
  1  7  2  0  0  0  0
  1  2  1  0  0  0  0
  2  3  1  0  0  0  0
  2  4  2  0  0  0  0
  4  5  1  0  0  0  0
  5  6  2  0  0  0  0
  5 11  1  0  0  0  0
  6  7  1  0  0  0  0
  6  9  1  0  0  0  0
  7  8  1  0  0  0  0
  9 10  1  0  0  0  0
 10 11  2  0  0  0  0
M  END
>  <CHROM.1>
-11.60367104,-13.27743980,7.76918892,1.16996712,0.91228362,-1.14184109

>  <Name>
ligand

>  <RI>
0

>  <Rbt.Current_Directory>
/home/itssahil/PROJECTS/Mol_Feturizer/New_Systems/rnas/2b57

>  <Rbt.Executable>
rbdock ($Id: //depot/dev/client3/rdock/2013.1/src/exe/rbdock.cxx#4 $)

>  <Rbt.Library>
libRbt.so (2013.1, Build901 2013/11/27)

>  <Rbt.Parameter_File>
/export/apps/rDock/src/rDock_2013.1_src/data/scripts/dock_solv.prm

>  <Rbt.Receptor>
prm/blind_docking_40.prm

>  <SCORE>
-10.3935

>  <SCORE.INTER>
-10.3935

>  <SCORE.INTER.CONST>
1

>  <SCORE.INTER.POLAR>
0

>  <SCORE.INTER.ROT>
0

>  <SCORE.INTER.SOLV>
18.1999

>  <SCORE.INTER.VDW>
-16.5956

>  <SCORE.INTER.norm>
-0.94486

>  <SCORE.INTRA>
0

>  <SCORE.INTRA.DIHEDRAL>
0

>  <SCORE.INTRA.DIHEDRAL.0>
0

>  <SCORE.INTRA.POLAR>
0

>  <SCORE.INTRA.POLAR.0>
0

>  <SCORE.INTRA.REPUL>
0

>  <SCORE.INTRA.REPUL.0>
0

>  <SCORE.INTRA.SOLV>
0

>  <SCORE.INTRA.SOLV.lig_0>
-48.3454

>  <SCORE.INTRA.VDW>
0

>  <SCORE.INTRA.VDW.0>
0

>  <SCORE.INTRA.norm>
0

>  <SCORE.RESTR>
0

>  <SCORE.RESTR.CAVITY>
0

>  <SCORE.RESTR.norm>
0

>  <SCORE.SYSTEM>
0

>  <SCORE.SYSTEM.CONST>
0

>  <SCORE.SYSTEM.DIHEDRAL>
0

>  <SCORE.SYSTEM.SOLV>
0

>  <SCORE.SYSTEM.norm>
0

>  <SCORE.heavy>
11

>  <SCORE.norm>
-0.94486

>  <RMSD>
3.349

$$$$
ligand
 OpenBabel01301917033D
libRbt.so/2013.1/901 2013/11/27
 11 12  0  0  0  0  0  0  0  0999 V2000
  -11.7151  -12.4400    6.2317 N   0  0  0  0  0  0  0  0  0  0  0  0
  -10.9124  -13.5076    6.0953 C   0  0  0  0  0  0  0  0  0  0  0  0
  -10.3650  -13.7756    4.9131 N   0  0  0  0  0  0  0  0  0  0  0  0
  -10.6653  -14.3136    7.1395 N   0  0  0  0  0  0  0  0  0  0  0  0
  -11.2170  -14.0705    8.3376 C   0  0  0  0  0  0  0  0  0  0  0  0
  -12.0514  -12.9728    8.5060 C   0  0  0  0  0  0  0  0  0  0  0  0
  -12.2903  -12.1508    7.4096 C   0  0  0  0  0  0  0  0  0  0  0  0
  -13.0749  -11.0838    7.5287 N   0  0  0  0  0  0  0  0  0  0  0  0
  -12.4672  -12.9762    9.7690 N   0  0  0  0  0  0  0  0  0  0  0  0
  -11.9218  -14.0288   10.3745 C   0  0  0  0  0  0  0  0  0  0  0  0
  -11.1612  -14.6966    9.5096 N   0  0  0  0  0  0  0  0  0  0  0  0
  1  7  2  0  0  0  0
  1  2  1  0  0  0  0
  2  3  1  0  0  0  0
  2  4  2  0  0  0  0
  4  5  1  0  0  0  0
  5  6  2  0  0  0  0
  5 11  1  0  0  0  0
  6  7  1  0  0  0  0
  6  9  1  0  0  0  0
  7  8  1  0  0  0  0
  9 10  1  0  0  0  0
 10 11  2  0  0  0  0
M  END
>  <CHROM.1>
-11.61804907,-13.26922275,7.77755643,1.17344465,0.91219962,-1.14725888

>  <Name>
ligand

>  <RI>
0

>  <Rbt.Current_Directory>
/home/itssahil/PROJECTS/Mol_Feturizer/New_Systems/rnas/2b57

>  <Rbt.Executable>
rbdock ($Id: //depot/dev/client3/rdock/2013.1/src/exe/rbdock.cxx#4 $)

>  <Rbt.Library>
libRbt.so (2013.1, Build901 2013/11/27)

>  <Rbt.Parameter_File>
/export/apps/rDock/src/rDock_2013.1_src/data/scripts/dock_solv.prm

>  <Rbt.Receptor>
prm/blind_docking_40.prm

>  <SCORE>
-10.4254

>  <SCORE.INTER>
-10.4254

>  <SCORE.INTER.CONST>
1

>  <SCORE.INTER.POLAR>
0

>  <SCORE.INTER.ROT>
0

>  <SCORE.INTER.SOLV>
18.1845

>  <SCORE.INTER.VDW>
-16.6118

>  <SCORE.INTER.norm>
-0.947765

>  <SCORE.INTRA>
0

>  <SCORE.INTRA.DIHEDRAL>
0

>  <SCORE.INTRA.DIHEDRAL.0>
0

>  <SCORE.INTRA.POLAR>
0

>  <SCORE.INTRA.POLAR.0>
0

>  <SCORE.INTRA.REPUL>
0

>  <SCORE.INTRA.REPUL.0>
0

>  <SCORE.INTRA.SOLV>
0

>  <SCORE.INTRA.SOLV.lig_0>
-48.3454

>  <SCORE.INTRA.VDW>
0

>  <SCORE.INTRA.VDW.0>
0

>  <SCORE.INTRA.norm>
0

>  <SCORE.RESTR>
0

>  <SCORE.RESTR.CAVITY>
0

>  <SCORE.RESTR.norm>
0

>  <SCORE.SYSTEM>
0

>  <SCORE.SYSTEM.CONST>
0

>  <SCORE.SYSTEM.DIHEDRAL>
0

>  <SCORE.SYSTEM.SOLV>
0

>  <SCORE.SYSTEM.norm>
0

>  <SCORE.heavy>
11

>  <SCORE.norm>
-0.947765

>  <RMSD>
3.349

$$$$
ligand
 OpenBabel01301917033D
libRbt.so/2013.1/901 2013/11/27
 11 12  0  0  0  0  0  0  0  0999 V2000
  -11.6838  -12.4335    6.2368 N   0  0  0  0  0  0  0  0  0  0  0  0
  -10.8799  -13.5002    6.1009 C   0  0  0  0  0  0  0  0  0  0  0  0
  -10.3240  -13.7623    4.9214 N   0  0  0  0  0  0  0  0  0  0  0  0
  -10.6400  -14.3113    7.1429 N   0  0  0  0  0  0  0  0  0  0  0  0
  -11.2004  -14.0742    8.3382 C   0  0  0  0  0  0  0  0  0  0  0  0
  -12.0362  -12.9774    8.5060 C   0  0  0  0  0  0  0  0  0  0  0  0
  -12.2675  -12.1502    7.4120 C   0  0  0  0  0  0  0  0  0  0  0  0
  -13.0532  -11.0840    7.5306 N   0  0  0  0  0  0  0  0  0  0  0  0
  -12.4610  -12.9871    9.7659 N   0  0  0  0  0  0  0  0  0  0  0  0
  -11.9197  -14.0425   10.3702 C   0  0  0  0  0  0  0  0  0  0  0  0
  -11.1527  -14.7059    9.5075 N   0  0  0  0  0  0  0  0  0  0  0  0
  1  7  2  0  0  0  0
  1  2  1  0  0  0  0
  2  3  1  0  0  0  0
  2  4  2  0  0  0  0
  4  5  1  0  0  0  0
  5  6  2  0  0  0  0
  5 11  1  0  0  0  0
  6  7  1  0  0  0  0
  6  9  1  0  0  0  0
  7  8  1  0  0  0  0
  9 10  1  0  0  0  0
 10 11  2  0  0  0  0
M  END
>  <CHROM.1>
-11.59758850,-13.27023086,7.77923299,1.16303670,0.90900346,-1.13414927

>  <Name>
ligand

>  <RI>
0

>  <Rbt.Current_Directory>
/home/itssahil/PROJECTS/Mol_Feturizer/New_Systems/rnas/2b57

>  <Rbt.Executable>
rbdock ($Id: //depot/dev/client3/rdock/2013.1/src/exe/rbdock.cxx#4 $)

>  <Rbt.Library>
libRbt.so (2013.1, Build901 2013/11/27)

>  <Rbt.Parameter_File>
/export/apps/rDock/src/rDock_2013.1_src/data/scripts/dock_solv.prm

>  <Rbt.Receptor>
prm/blind_docking_60.prm

>  <SCORE>
-10.3953

>  <SCORE.INTER>
-10.3953

>  <SCORE.INTER.CONST>
1

>  <SCORE.INTER.POLAR>
0

>  <SCORE.INTER.ROT>
0

>  <SCORE.INTER.SOLV>
18.0869

>  <SCORE.INTER.VDW>
-16.5592

>  <SCORE.INTER.norm>
-0.945028

>  <SCORE.INTRA>
0

>  <SCORE.INTRA.DIHEDRAL>
0

>  <SCORE.INTRA.DIHEDRAL.0>
0

>  <SCORE.INTRA.POLAR>
0

>  <SCORE.INTRA.POLAR.0>
0

>  <SCORE.INTRA.REPUL>
0

>  <SCORE.INTRA.REPUL.0>
0

>  <SCORE.INTRA.SOLV>
0

>  <SCORE.INTRA.SOLV.lig_0>
-48.3454

>  <SCORE.INTRA.VDW>
0

>  <SCORE.INTRA.VDW.0>
0

>  <SCORE.INTRA.norm>
0

>  <SCORE.RESTR>
0

>  <SCORE.RESTR.CAVITY>
0

>  <SCORE.RESTR.norm>
0

>  <SCORE.SYSTEM>
0

>  <SCORE.SYSTEM.CONST>
0

>  <SCORE.SYSTEM.DIHEDRAL>
0

>  <SCORE.SYSTEM.SOLV>
0

>  <SCORE.SYSTEM.norm>
0

>  <SCORE.heavy>
11

>  <SCORE.norm>
-0.945028

>  <RMSD>
3.349

$$$$
ligand
 OpenBabel01301917033D
libRbt.so/2013.1/901 2013/11/27
 11 12  0  0  0  0  0  0  0  0999 V2000
  -11.6722  -12.4285    6.2354 N   0  0  0  0  0  0  0  0  0  0  0  0
  -10.8628  -13.4917    6.1044 C   0  0  0  0  0  0  0  0  0  0  0  0
  -10.3002  -13.7523    4.9277 N   0  0  0  0  0  0  0  0  0  0  0  0
  -10.6242  -14.3006    7.1483 N   0  0  0  0  0  0  0  0  0  0  0  0
  -11.1913  -14.0650    8.3407 C   0  0  0  0  0  0  0  0  0  0  0  0
  -12.0329  -12.9719    8.5035 C   0  0  0  0  0  0  0  0  0  0  0  0
  -12.2628  -12.1467    7.4075 C   0  0  0  0  0  0  0  0  0  0  0  0
  -13.0538  -11.0840    7.5214 N   0  0  0  0  0  0  0  0  0  0  0  0
  -12.4636  -12.9823    9.7614 N   0  0  0  0  0  0  0  0  0  0  0  0
  -11.9203  -14.0346   10.3692 C   0  0  0  0  0  0  0  0  0  0  0  0
  -11.1463  -14.6954    9.5108 N   0  0  0  0  0  0  0  0  0  0  0  0
  1  7  2  0  0  0  0
  1  2  1  0  0  0  0
  2  3  1  0  0  0  0
  2  4  2  0  0  0  0
  4  5  1  0  0  0  0
  5  6  2  0  0  0  0
  5 11  1  0  0  0  0
  6  7  1  0  0  0  0
  6  9  1  0  0  0  0
  7  8  1  0  0  0  0
  9 10  1  0  0  0  0
 10 11  2  0  0  0  0
M  END
>  <CHROM.1>
-11.58950403,-13.26335777,7.77904289,1.15921658,0.90287653,-1.13210426

>  <Name>
ligand

>  <RI>
0

>  <Rbt.Current_Directory>
/home/itssahil/PROJECTS/Mol_Feturizer/New_Systems/rnas/2b57

>  <Rbt.Executable>
rbdock ($Id: //depot/dev/client3/rdock/2013.1/src/exe/rbdock.cxx#4 $)

>  <Rbt.Library>
libRbt.so (2013.1, Build901 2013/11/27)

>  <Rbt.Parameter_File>
/export/apps/rDock/src/rDock_2013.1_src/data/scripts/dock_solv.prm

>  <Rbt.Receptor>
prm/blind_docking_60.prm

>  <SCORE>
-10.3972

>  <SCORE.INTER>
-10.3972

>  <SCORE.INTER.CONST>
1

>  <SCORE.INTER.POLAR>
0

>  <SCORE.INTER.ROT>
0

>  <SCORE.INTER.SOLV>
18.0108

>  <SCORE.INTER.VDW>
-16.5351

>  <SCORE.INTER.norm>
-0.945201

>  <SCORE.INTRA>
0

>  <SCORE.INTRA.DIHEDRAL>
0

>  <SCORE.INTRA.DIHEDRAL.0>
0

>  <SCORE.INTRA.POLAR>
0

>  <SCORE.INTRA.POLAR.0>
0

>  <SCORE.INTRA.REPUL>
0

>  <SCORE.INTRA.REPUL.0>
0

>  <SCORE.INTRA.SOLV>
0

>  <SCORE.INTRA.SOLV.lig_0>
-48.3454

>  <SCORE.INTRA.VDW>
0

>  <SCORE.INTRA.VDW.0>
0

>  <SCORE.INTRA.norm>
0

>  <SCORE.RESTR>
0

>  <SCORE.RESTR.CAVITY>
0

>  <SCORE.RESTR.norm>
0

>  <SCORE.SYSTEM>
0

>  <SCORE.SYSTEM.CONST>
0

>  <SCORE.SYSTEM.DIHEDRAL>
0

>  <SCORE.SYSTEM.SOLV>
0

>  <SCORE.SYSTEM.norm>
0

>  <SCORE.heavy>
11

>  <SCORE.norm>
-0.945201

>  <RMSD>
3.349

$$$$
ligand
 OpenBabel01301917033D
libRbt.so/2013.1/901 2013/11/27
 11 12  0  0  0  0  0  0  0  0999 V2000
  -11.7077  -12.4397    6.2301 N   0  0  0  0  0  0  0  0  0  0  0  0
  -10.9061  -13.5080    6.0925 C   0  0  0  0  0  0  0  0  0  0  0  0
  -10.3594  -13.7754    4.9098 N   0  0  0  0  0  0  0  0  0  0  0  0
  -10.6594  -14.3152    7.1359 N   0  0  0  0  0  0  0  0  0  0  0  0
  -11.2104  -14.0727    8.3344 C   0  0  0  0  0  0  0  0  0  0  0  0
  -12.0437  -12.9742    8.5040 C   0  0  0  0  0  0  0  0  0  0  0  0
  -12.2822  -12.1510    7.4085 C   0  0  0  0  0  0  0  0  0  0  0  0
  -13.0657  -11.0834    7.5288 N   0  0  0  0  0  0  0  0  0  0  0  0
  -12.4591  -12.9784    9.7671 N   0  0  0  0  0  0  0  0  0  0  0  0
  -11.9145  -14.0320   10.3715 C   0  0  0  0  0  0  0  0  0  0  0  0
  -11.1548  -14.6998    9.5058 N   0  0  0  0  0  0  0  0  0  0  0  0
  1  7  2  0  0  0  0
  1  2  1  0  0  0  0
  2  3  1  0  0  0  0
  2  4  2  0  0  0  0
  4  5  1  0  0  0  0
  5  6  2  0  0  0  0
  5 11  1  0  0  0  0
  6  7  1  0  0  0  0
  6  9  1  0  0  0  0
  7  8  1  0  0  0  0
  9 10  1  0  0  0  0
 10 11  2  0  0  0  0
M  END
>  <CHROM.1>
-11.61088216,-13.27045281,7.77517406,1.17332023,0.91323493,-1.14625215

>  <Name>
ligand

>  <RI>
0

>  <Rbt.Current_Directory>
/home/itssahil/PROJECTS/Mol_Feturizer/New_Systems/rnas/2b57

>  <Rbt.Executable>
rbdock ($Id: //depot/dev/client3/rdock/2013.1/src/exe/rbdock.cxx#4 $)

>  <Rbt.Library>
libRbt.so (2013.1, Build901 2013/11/27)

>  <Rbt.Parameter_File>
/export/apps/rDock/src/rDock_2013.1_src/data/scripts/dock_solv.prm

>  <Rbt.Receptor>
prm/blind_docking_60.prm

>  <SCORE>
-10.4227

>  <SCORE.INTER>
-10.4227

>  <SCORE.INTER.CONST>
1

>  <SCORE.INTER.POLAR>
0

>  <SCORE.INTER.ROT>
0

>  <SCORE.INTER.SOLV>
18.1986

>  <SCORE.INTER.VDW>
-16.6147

>  <SCORE.INTER.norm>
-0.947519

>  <SCORE.INTRA>
0

>  <SCORE.INTRA.DIHEDRAL>
0

>  <SCORE.INTRA.DIHEDRAL.0>
0

>  <SCORE.INTRA.POLAR>
0

>  <SCORE.INTRA.POLAR.0>
0

>  <SCORE.INTRA.REPUL>
0

>  <SCORE.INTRA.REPUL.0>
0

>  <SCORE.INTRA.SOLV>
0

>  <SCORE.INTRA.SOLV.lig_0>
-48.3454

>  <SCORE.INTRA.VDW>
0

>  <SCORE.INTRA.VDW.0>
0

>  <SCORE.INTRA.norm>
0

>  <SCORE.RESTR>
0

>  <SCORE.RESTR.CAVITY>
0

>  <SCORE.RESTR.norm>
0

>  <SCORE.SYSTEM>
0

>  <SCORE.SYSTEM.CONST>
0

>  <SCORE.SYSTEM.DIHEDRAL>
0

>  <SCORE.SYSTEM.SOLV>
0

>  <SCORE.SYSTEM.norm>
0

>  <SCORE.heavy>
11

>  <SCORE.norm>
-0.947519

>  <RMSD>
3.349

$$$$
ligand
 OpenBabel01301917033D
libRbt.so/2013.1/901 2013/11/27
 11 12  0  0  0  0  0  0  0  0999 V2000
  -11.7037  -12.4421    6.2338 N   0  0  0  0  0  0  0  0  0  0  0  0
  -10.9053  -13.5127    6.0958 C   0  0  0  0  0  0  0  0  0  0  0  0
  -10.3594  -13.7814    4.9131 N   0  0  0  0  0  0  0  0  0  0  0  0
  -10.6611  -14.3210    7.1389 N   0  0  0  0  0  0  0  0  0  0  0  0
  -11.2114  -14.0773    8.3375 C   0  0  0  0  0  0  0  0  0  0  0  0
  -12.0413  -12.9764    8.5076 C   0  0  0  0  0  0  0  0  0  0  0  0
  -12.2773  -12.1521    7.4123 C   0  0  0  0  0  0  0  0  0  0  0  0
  -13.0575  -11.0821    7.5330 N   0  0  0  0  0  0  0  0  0  0  0  0
  -12.4567  -12.9797    9.7707 N   0  0  0  0  0  0  0  0  0  0  0  0
  -11.9153  -14.0352   10.3746 C   0  0  0  0  0  0  0  0  0  0  0  0
  -11.1577  -14.7050    9.5087 N   0  0  0  0  0  0  0  0  0  0  0  0
  1  7  2  0  0  0  0
  1  2  1  0  0  0  0
  2  3  1  0  0  0  0
  2  4  2  0  0  0  0
  4  5  1  0  0  0  0
  5  6  2  0  0  0  0
  5 11  1  0  0  0  0
  6  7  1  0  0  0  0
  6  9  1  0  0  0  0
  7  8  1  0  0  0  0
  9 10  1  0  0  0  0
 10 11  2  0  0  0  0
M  END
>  <CHROM.1>
-11.60939920,-13.27364439,7.77858420,1.17125865,0.91601136,-1.14425853

>  <Name>
ligand

>  <RI>
0

>  <Rbt.Current_Directory>
/home/itssahil/PROJECTS/Mol_Feturizer/New_Systems/rnas/2b57

>  <Rbt.Executable>
rbdock ($Id: //depot/dev/client3/rdock/2013.1/src/exe/rbdock.cxx#4 $)

>  <Rbt.Library>
libRbt.so (2013.1, Build901 2013/11/27)

>  <Rbt.Parameter_File>
/export/apps/rDock/src/rDock_2013.1_src/data/scripts/dock_solv.prm

>  <Rbt.Receptor>
prm/blind_docking_60.prm

>  <SCORE>
-10.4205

>  <SCORE.INTER>
-10.4205

>  <SCORE.INTER.CONST>
1

>  <SCORE.INTER.POLAR>
0

>  <SCORE.INTER.ROT>
0

>  <SCORE.INTER.SOLV>
18.1903

>  <SCORE.INTER.VDW>
-16.6104

>  <SCORE.INTER.norm>
-0.947317

>  <SCORE.INTRA>
0

>  <SCORE.INTRA.DIHEDRAL>
0

>  <SCORE.INTRA.DIHEDRAL.0>
0

>  <SCORE.INTRA.POLAR>
0

>  <SCORE.INTRA.POLAR.0>
0

>  <SCORE.INTRA.REPUL>
0

>  <SCORE.INTRA.REPUL.0>
0

>  <SCORE.INTRA.SOLV>
0

>  <SCORE.INTRA.SOLV.lig_0>
-48.3454

>  <SCORE.INTRA.VDW>
0

>  <SCORE.INTRA.VDW.0>
0

>  <SCORE.INTRA.norm>
0

>  <SCORE.RESTR>
0

>  <SCORE.RESTR.CAVITY>
0

>  <SCORE.RESTR.norm>
0

>  <SCORE.SYSTEM>
0

>  <SCORE.SYSTEM.CONST>
0

>  <SCORE.SYSTEM.DIHEDRAL>
0

>  <SCORE.SYSTEM.SOLV>
0

>  <SCORE.SYSTEM.norm>
0

>  <SCORE.heavy>
11

>  <SCORE.norm>
-0.947317

>  <RMSD>
3.349

$$$$
ligand
 OpenBabel01301917033D
libRbt.so/2013.1/901 2013/11/27
 11 12  0  0  0  0  0  0  0  0999 V2000
  -11.7000  -12.4400    6.2435 N   0  0  0  0  0  0  0  0  0  0  0  0
  -10.8953  -13.5062    6.1083 C   0  0  0  0  0  0  0  0  0  0  0  0
  -10.3417  -13.7704    4.9282 N   0  0  0  0  0  0  0  0  0  0  0  0
  -10.6524  -14.3146    7.1517 N   0  0  0  0  0  0  0  0  0  0  0  0
  -11.2104  -14.0754    8.3476 C   0  0  0  0  0  0  0  0  0  0  0  0
  -12.0470  -12.9791    8.5147 C   0  0  0  0  0  0  0  0  0  0  0  0
  -12.2815  -12.1546    7.4193 C   0  0  0  0  0  0  0  0  0  0  0  0
  -13.0680  -11.0889    7.5372 N   0  0  0  0  0  0  0  0  0  0  0  0
  -12.4691  -12.9863    9.7756 N   0  0  0  0  0  0  0  0  0  0  0  0
  -11.9254  -14.0398   10.3810 C   0  0  0  0  0  0  0  0  0  0  0  0
  -11.1597  -14.7044    9.5183 N   0  0  0  0  0  0  0  0  0  0  0  0
  1  7  2  0  0  0  0
  1  2  1  0  0  0  0
  2  3  1  0  0  0  0
  2  4  2  0  0  0  0
  4  5  1  0  0  0  0
  5  6  2  0  0  0  0
  5 11  1  0  0  0  0
  6  7  1  0  0  0  0
  6  9  1  0  0  0  0
  7  8  1  0  0  0  0
  9 10  1  0  0  0  0
 10 11  2  0  0  0  0
M  END
>  <CHROM.1>
-11.60965839,-13.27311408,7.78766024,1.16688986,0.90899264,-1.13947544

>  <Name>
ligand

>  <RI>
0

>  <Rbt.Current_Directory>
/home/itssahil/PROJECTS/Mol_Feturizer/New_Systems/rnas/2b57

>  <Rbt.Executable>
rbdock ($Id: //depot/dev/client3/rdock/2013.1/src/exe/rbdock.cxx#4 $)

>  <Rbt.Library>
libRbt.so (2013.1, Build901 2013/11/27)

>  <Rbt.Parameter_File>
/export/apps/rDock/src/rDock_2013.1_src/data/scripts/dock_solv.prm

>  <Rbt.Receptor>
prm/blind_docking_60.prm

>  <SCORE>
-10.3928

>  <SCORE.INTER>
-10.3928

>  <SCORE.INTER.CONST>
1

>  <SCORE.INTER.POLAR>
0

>  <SCORE.INTER.ROT>
0

>  <SCORE.INTER.SOLV>
18.0749

>  <SCORE.INTER.VDW>
-16.5535

>  <SCORE.INTER.norm>
-0.944797

>  <SCORE.INTRA>
0

>  <SCORE.INTRA.DIHEDRAL>
0

>  <SCORE.INTRA.DIHEDRAL.0>
0

>  <SCORE.INTRA.POLAR>
0

>  <SCORE.INTRA.POLAR.0>
0

>  <SCORE.INTRA.REPUL>
0

>  <SCORE.INTRA.REPUL.0>
0

>  <SCORE.INTRA.SOLV>
0

>  <SCORE.INTRA.SOLV.lig_0>
-48.3454

>  <SCORE.INTRA.VDW>
0

>  <SCORE.INTRA.VDW.0>
0

>  <SCORE.INTRA.norm>
0

>  <SCORE.RESTR>
0

>  <SCORE.RESTR.CAVITY>
0

>  <SCORE.RESTR.norm>
0

>  <SCORE.SYSTEM>
0

>  <SCORE.SYSTEM.CONST>
0

>  <SCORE.SYSTEM.DIHEDRAL>
0

>  <SCORE.SYSTEM.SOLV>
0

>  <SCORE.SYSTEM.norm>
0

>  <SCORE.heavy>
11

>  <SCORE.norm>
-0.944797

>  <RMSD>
3.349

$$$$
ligand
 OpenBabel01301917033D
libRbt.so/2013.1/901 2013/11/27
 11 12  0  0  0  0  0  0  0  0999 V2000
  -11.7177  -12.4398    6.2329 N   0  0  0  0  0  0  0  0  0  0  0  0
  -10.9150  -13.5073    6.0962 C   0  0  0  0  0  0  0  0  0  0  0  0
  -10.3688  -13.7757    4.9136 N   0  0  0  0  0  0  0  0  0  0  0  0
  -10.6668  -14.3129    7.1405 N   0  0  0  0  0  0  0  0  0  0  0  0
  -11.2174  -14.0694    8.3390 C   0  0  0  0  0  0  0  0  0  0  0  0
  -12.0517  -12.9716    8.5078 C   0  0  0  0  0  0  0  0  0  0  0  0
  -12.2918  -12.1502    7.4113 C   0  0  0  0  0  0  0  0  0  0  0  0
  -13.0764  -11.0832    7.5307 N   0  0  0  0  0  0  0  0  0  0  0  0
  -12.4663  -12.9746    9.7712 N   0  0  0  0  0  0  0  0  0  0  0  0
  -11.9202  -14.0269   10.3766 C   0  0  0  0  0  0  0  0  0  0  0  0
  -11.1603  -14.6949    9.5112 N   0  0  0  0  0  0  0  0  0  0  0  0
  1  7  2  0  0  0  0
  1  2  1  0  0  0  0
  2  3  1  0  0  0  0
  2  4  2  0  0  0  0
  4  5  1  0  0  0  0
  5  6  2  0  0  0  0
  5 11  1  0  0  0  0
  6  7  1  0  0  0  0
  6  9  1  0  0  0  0
  7  8  1  0  0  0  0
  9 10  1  0  0  0  0
 10 11  2  0  0  0  0
M  END
>  <CHROM.1>
-11.61905146,-13.26835331,7.77903056,1.17499800,0.91249057,-1.14889349

>  <Name>
ligand

>  <RI>
0

>  <Rbt.Current_Directory>
/home/itssahil/PROJECTS/Mol_Feturizer/New_Systems/rnas/2b57

>  <Rbt.Executable>
rbdock ($Id: //depot/dev/client3/rdock/2013.1/src/exe/rbdock.cxx#4 $)

>  <Rbt.Library>
libRbt.so (2013.1, Build901 2013/11/27)

>  <Rbt.Parameter_File>
/export/apps/rDock/src/rDock_2013.1_src/data/scripts/dock_solv.prm

>  <Rbt.Receptor>
prm/blind_docking_80.prm

>  <SCORE>
-10.4224

>  <SCORE.INTER>
-10.4224

>  <SCORE.INTER.CONST>
1

>  <SCORE.INTER.POLAR>
0

>  <SCORE.INTER.ROT>
0

>  <SCORE.INTER.SOLV>
18.1872

>  <SCORE.INTER.VDW>
-16.6107

>  <SCORE.INTER.norm>
-0.947495

>  <SCORE.INTRA>
0

>  <SCORE.INTRA.DIHEDRAL>
0

>  <SCORE.INTRA.DIHEDRAL.0>
0

>  <SCORE.INTRA.POLAR>
0

>  <SCORE.INTRA.POLAR.0>
0

>  <SCORE.INTRA.REPUL>
0

>  <SCORE.INTRA.REPUL.0>
0

>  <SCORE.INTRA.SOLV>
0

>  <SCORE.INTRA.SOLV.lig_0>
-48.3454

>  <SCORE.INTRA.VDW>
0

>  <SCORE.INTRA.VDW.0>
0

>  <SCORE.INTRA.norm>
0

>  <SCORE.RESTR>
0

>  <SCORE.RESTR.CAVITY>
0

>  <SCORE.RESTR.norm>
0

>  <SCORE.SYSTEM>
0

>  <SCORE.SYSTEM.CONST>
0

>  <SCORE.SYSTEM.DIHEDRAL>
0

>  <SCORE.SYSTEM.SOLV>
0

>  <SCORE.SYSTEM.norm>
0

>  <SCORE.heavy>
11

>  <SCORE.norm>
-0.947495

>  <RMSD>
3.349

$$$$
ligand
 OpenBabel01301917033D
libRbt.so/2013.1/901 2013/11/27
 11 12  0  0  0  0  0  0  0  0999 V2000
  -11.6875  -12.4318    6.2399 N   0  0  0  0  0  0  0  0  0  0  0  0
  -10.8820  -13.4975    6.1041 C   0  0  0  0  0  0  0  0  0  0  0  0
  -10.3254  -13.7587    4.9247 N   0  0  0  0  0  0  0  0  0  0  0  0
  -10.6414  -14.3083    7.1461 N   0  0  0  0  0  0  0  0  0  0  0  0
  -11.2024  -14.0721    8.3413 C   0  0  0  0  0  0  0  0  0  0  0  0
  -12.0398  -12.9765    8.5089 C   0  0  0  0  0  0  0  0  0  0  0  0
  -12.2719  -12.1494    7.4149 C   0  0  0  0  0  0  0  0  0  0  0  0
  -13.0591  -11.0843    7.5334 N   0  0  0  0  0  0  0  0  0  0  0  0
  -12.4650  -12.9869    9.7687 N   0  0  0  0  0  0  0  0  0  0  0  0
  -11.9224  -14.0416   10.3730 C   0  0  0  0  0  0  0  0  0  0  0  0
  -11.1543  -14.7039    9.5105 N   0  0  0  0  0  0  0  0  0  0  0  0
  1  7  2  0  0  0  0
  1  2  1  0  0  0  0
  2  3  1  0  0  0  0
  2  4  2  0  0  0  0
  4  5  1  0  0  0  0
  5  6  2  0  0  0  0
  5 11  1  0  0  0  0
  6  7  1  0  0  0  0
  6  9  1  0  0  0  0
  7  8  1  0  0  0  0
  9 10  1  0  0  0  0
 10 11  2  0  0  0  0
M  END
>  <CHROM.1>
-11.60055099,-13.26862669,7.78224940,1.16352177,0.90763591,-1.13443787

>  <Name>
ligand

>  <RI>
0

>  <Rbt.Current_Directory>
/home/itssahil/PROJECTS/Mol_Feturizer/New_Systems/rnas/2b57

>  <Rbt.Executable>
rbdock ($Id: //depot/dev/client3/rdock/2013.1/src/exe/rbdock.cxx#4 $)

>  <Rbt.Library>
libRbt.so (2013.1, Build901 2013/11/27)

>  <Rbt.Parameter_File>
/export/apps/rDock/src/rDock_2013.1_src/data/scripts/dock_solv.prm

>  <Rbt.Receptor>
prm/blind_docking_80.prm

>  <SCORE>
-10.3968

>  <SCORE.INTER>
-10.3968

>  <SCORE.INTER.CONST>
1

>  <SCORE.INTER.POLAR>
0

>  <SCORE.INTER.ROT>
0

>  <SCORE.INTER.SOLV>
18.0705

>  <SCORE.INTER.VDW>
-16.5547

>  <SCORE.INTER.norm>
-0.945161

>  <SCORE.INTRA>
0

>  <SCORE.INTRA.DIHEDRAL>
0

>  <SCORE.INTRA.DIHEDRAL.0>
0

>  <SCORE.INTRA.POLAR>
0

>  <SCORE.INTRA.POLAR.0>
0

>  <SCORE.INTRA.REPUL>
0

>  <SCORE.INTRA.REPUL.0>
0

>  <SCORE.INTRA.SOLV>
0

>  <SCORE.INTRA.SOLV.lig_0>
-48.3454

>  <SCORE.INTRA.VDW>
0

>  <SCORE.INTRA.VDW.0>
0

>  <SCORE.INTRA.norm>
0

>  <SCORE.RESTR>
0

>  <SCORE.RESTR.CAVITY>
0

>  <SCORE.RESTR.norm>
0

>  <SCORE.SYSTEM>
0

>  <SCORE.SYSTEM.CONST>
0

>  <SCORE.SYSTEM.DIHEDRAL>
0

>  <SCORE.SYSTEM.SOLV>
0

>  <SCORE.SYSTEM.norm>
0

>  <SCORE.heavy>
11

>  <SCORE.norm>
-0.945161

>  <RMSD>
3.349

$$$$
ligand
 OpenBabel01301917033D
libRbt.so/2013.1/901 2013/11/27
 11 12  0  0  0  0  0  0  0  0999 V2000
  -11.7038  -12.4403    6.2279 N   0  0  0  0  0  0  0  0  0  0  0  0
  -10.9024  -13.5089    6.0917 C   0  0  0  0  0  0  0  0  0  0  0  0
  -10.3538  -13.7767    4.9100 N   0  0  0  0  0  0  0  0  0  0  0  0
  -10.6577  -14.3161    7.1355 N   0  0  0  0  0  0  0  0  0  0  0  0
  -11.2107  -14.0733    8.3331 C   0  0  0  0  0  0  0  0  0  0  0  0
  -12.0437  -12.9745    8.5013 C   0  0  0  0  0  0  0  0  0  0  0  0
  -12.2801  -12.1513    7.4053 C   0  0  0  0  0  0  0  0  0  0  0  0
  -13.0633  -11.0833    7.5243 N   0  0  0  0  0  0  0  0  0  0  0  0
  -12.4612  -12.9784    9.7638 N   0  0  0  0  0  0  0  0  0  0  0  0
  -11.9181  -14.0322   10.3691 C   0  0  0  0  0  0  0  0  0  0  0  0
  -11.1573  -14.7004    9.5047 N   0  0  0  0  0  0  0  0  0  0  0  0
  1  7  2  0  0  0  0
  1  2  1  0  0  0  0
  2  3  1  0  0  0  0
  2  4  2  0  0  0  0
  4  5  1  0  0  0  0
  5  6  2  0  0  0  0
  5 11  1  0  0  0  0
  6  7  1  0  0  0  0
  6  9  1  0  0  0  0
  7  8  1  0  0  0  0
  9 10  1  0  0  0  0
 10 11  2  0  0  0  0
M  END
>  <CHROM.1>
-11.60987631,-13.27094842,7.77320103,1.17057015,0.91294105,-1.14414520

>  <Name>
ligand

>  <RI>
0

>  <Rbt.Current_Directory>
/home/itssahil/PROJECTS/Mol_Feturizer/New_Systems/rnas/2b57

>  <Rbt.Executable>
rbdock ($Id: //depot/dev/client3/rdock/2013.1/src/exe/rbdock.cxx#4 $)

>  <Rbt.Library>
libRbt.so (2013.1, Build901 2013/11/27)

>  <Rbt.Parameter_File>
/export/apps/rDock/src/rDock_2013.1_src/data/scripts/dock_solv.prm

>  <Rbt.Receptor>
prm/pocket_docking_3.prm

>  <SCORE>
-10.4257

>  <SCORE.INTER>
-10.4257

>  <SCORE.INTER.CONST>
1

>  <SCORE.INTER.POLAR>
0

>  <SCORE.INTER.ROT>
0

>  <SCORE.INTER.SOLV>
18.1909

>  <SCORE.INTER.VDW>
-16.6141

>  <SCORE.INTER.norm>
-0.947795

>  <SCORE.INTRA>
0

>  <SCORE.INTRA.DIHEDRAL>
0

>  <SCORE.INTRA.DIHEDRAL.0>
0

>  <SCORE.INTRA.POLAR>
0

>  <SCORE.INTRA.POLAR.0>
0

>  <SCORE.INTRA.REPUL>
0

>  <SCORE.INTRA.REPUL.0>
0

>  <SCORE.INTRA.SOLV>
0

>  <SCORE.INTRA.SOLV.lig_0>
-48.3454

>  <SCORE.INTRA.VDW>
0

>  <SCORE.INTRA.VDW.0>
0

>  <SCORE.INTRA.norm>
0

>  <SCORE.RESTR>
0

>  <SCORE.RESTR.CAVITY>
0

>  <SCORE.RESTR.norm>
0

>  <SCORE.SYSTEM>
0

>  <SCORE.SYSTEM.CONST>
0

>  <SCORE.SYSTEM.DIHEDRAL>
0

>  <SCORE.SYSTEM.SOLV>
0

>  <SCORE.SYSTEM.norm>
0

>  <SCORE.heavy>
11

>  <SCORE.norm>
-0.947795

>  <RMSD>
3.349

$$$$
ligand
 OpenBabel01301917033D
libRbt.so/2013.1/901 2013/11/27
 11 12  0  0  0  0  0  0  0  0999 V2000
  -11.7021  -12.4445    6.2313 N   0  0  0  0  0  0  0  0  0  0  0  0
  -10.9049  -13.5161    6.0938 C   0  0  0  0  0  0  0  0  0  0  0  0
  -10.3617  -13.7877    4.9105 N   0  0  0  0  0  0  0  0  0  0  0  0
  -10.6591  -14.3224    7.1381 N   0  0  0  0  0  0  0  0  0  0  0  0
  -11.2068  -14.0757    8.3373 C   0  0  0  0  0  0  0  0  0  0  0  0
  -12.0354  -12.9738    8.5068 C   0  0  0  0  0  0  0  0  0  0  0  0
  -12.2730  -12.1516    7.4104 C   0  0  0  0  0  0  0  0  0  0  0  0
  -13.0522  -11.0808    7.5304 N   0  0  0  0  0  0  0  0  0  0  0  0
  -12.4482  -12.9742    9.7708 N   0  0  0  0  0  0  0  0  0  0  0  0
  -11.9064  -14.0289   10.3759 C   0  0  0  0  0  0  0  0  0  0  0  0
  -11.1511  -14.7011    9.5097 N   0  0  0  0  0  0  0  0  0  0  0  0
  1  7  2  0  0  0  0
  1  2  1  0  0  0  0
  2  3  1  0  0  0  0
  2  4  2  0  0  0  0
  4  5  1  0  0  0  0
  5  6  2  0  0  0  0
  5 11  1  0  0  0  0
  6  7  1  0  0  0  0
  6  9  1  0  0  0  0
  7  8  1  0  0  0  0
  9 10  1  0  0  0  0
 10 11  2  0  0  0  0
M  END
>  <CHROM.1>
-11.60527368,-13.27293258,7.77757786,1.17383429,0.91758668,-1.14839281

>  <Name>
ligand

>  <RI>
0

>  <Rbt.Current_Directory>
/home/itssahil/PROJECTS/Mol_Feturizer/New_Systems/rnas/2b57

>  <Rbt.Executable>
rbdock ($Id: //depot/dev/client3/rdock/2013.1/src/exe/rbdock.cxx#4 $)

>  <Rbt.Library>
libRbt.so (2013.1, Build901 2013/11/27)

>  <Rbt.Parameter_File>
/export/apps/rDock/src/rDock_2013.1_src/data/scripts/dock_solv.prm

>  <Rbt.Receptor>
prm/pocket_docking_5.prm

>  <SCORE>
-10.4093

>  <SCORE.INTER>
-10.4093

>  <SCORE.INTER.CONST>
1

>  <SCORE.INTER.POLAR>
0

>  <SCORE.INTER.ROT>
0

>  <SCORE.INTER.SOLV>
18.2108

>  <SCORE.INTER.VDW>
-16.6098

>  <SCORE.INTER.norm>
-0.946302

>  <SCORE.INTRA>
0

>  <SCORE.INTRA.DIHEDRAL>
0

>  <SCORE.INTRA.DIHEDRAL.0>
0

>  <SCORE.INTRA.POLAR>
0

>  <SCORE.INTRA.POLAR.0>
0

>  <SCORE.INTRA.REPUL>
0

>  <SCORE.INTRA.REPUL.0>
0

>  <SCORE.INTRA.SOLV>
0

>  <SCORE.INTRA.SOLV.lig_0>
-48.3454

>  <SCORE.INTRA.VDW>
0

>  <SCORE.INTRA.VDW.0>
0

>  <SCORE.INTRA.norm>
0

>  <SCORE.RESTR>
0

>  <SCORE.RESTR.CAVITY>
0

>  <SCORE.RESTR.norm>
0

>  <SCORE.SYSTEM>
0

>  <SCORE.SYSTEM.CONST>
0

>  <SCORE.SYSTEM.DIHEDRAL>
0

>  <SCORE.SYSTEM.SOLV>
0

>  <SCORE.SYSTEM.norm>
0

>  <SCORE.heavy>
11

>  <SCORE.norm>
-0.946302

>  <RMSD>
3.349

$$$$
ligand
 OpenBabel01301917033D
libRbt.so/2013.1/901 2013/11/27
 11 12  0  0  0  0  0  0  0  0999 V2000
  -11.7036  -12.4351    6.2267 N   0  0  0  0  0  0  0  0  0  0  0  0
  -10.9059  -13.5064    6.0902 C   0  0  0  0  0  0  0  0  0  0  0  0
  -10.3605  -13.7774    4.9078 N   0  0  0  0  0  0  0  0  0  0  0  0
  -10.6618  -14.3131    7.1346 N   0  0  0  0  0  0  0  0  0  0  0  0
  -11.2117  -14.0671    8.3329 C   0  0  0  0  0  0  0  0  0  0  0  0
  -12.0409  -12.9654    8.5014 C   0  0  0  0  0  0  0  0  0  0  0  0
  -12.2767  -12.1428    7.4049 C   0  0  0  0  0  0  0  0  0  0  0  0
  -13.0563  -11.0722    7.5240 N   0  0  0  0  0  0  0  0  0  0  0  0
  -12.4559  -12.9664    9.7647 N   0  0  0  0  0  0  0  0  0  0  0  0
  -11.9149  -14.0212   10.3702 C   0  0  0  0  0  0  0  0  0  0  0  0
  -11.1580  -14.6929    9.5052 N   0  0  0  0  0  0  0  0  0  0  0  0
  1  7  2  0  0  0  0
  1  2  1  0  0  0  0
  2  3  1  0  0  0  0
  2  4  2  0  0  0  0
  4  5  1  0  0  0  0
  5  6  2  0  0  0  0
  5 11  1  0  0  0  0
  6  7  1  0  0  0  0
  6  9  1  0  0  0  0
  7  8  1  0  0  0  0
  9 10  1  0  0  0  0
 10 11  2  0  0  0  0
M  END
>  <CHROM.1>
-11.60937354,-13.26415480,7.77281795,1.17132031,0.91664588,-1.14598429

>  <Name>
ligand

>  <RI>
0

>  <Rbt.Current_Directory>
/home/itssahil/PROJECTS/Mol_Feturizer/New_Systems/rnas/2b57

>  <Rbt.Executable>
rbdock ($Id: //depot/dev/client3/rdock/2013.1/src/exe/rbdock.cxx#4 $)

>  <Rbt.Library>
libRbt.so (2013.1, Build901 2013/11/27)

>  <Rbt.Parameter_File>
/export/apps/rDock/src/rDock_2013.1_src/data/scripts/dock_solv.prm

>  <Rbt.Receptor>
prm/pocket_docking_5.prm

>  <SCORE>
-10.4212

>  <SCORE.INTER>
-10.4212

>  <SCORE.INTER.CONST>
1

>  <SCORE.INTER.POLAR>
0

>  <SCORE.INTER.ROT>
0

>  <SCORE.INTER.SOLV>
18.2224

>  <SCORE.INTER.VDW>
-16.6216

>  <SCORE.INTER.norm>
-0.947378

>  <SCORE.INTRA>
0

>  <SCORE.INTRA.DIHEDRAL>
0

>  <SCORE.INTRA.DIHEDRAL.0>
0

>  <SCORE.INTRA.POLAR>
0

>  <SCORE.INTRA.POLAR.0>
0

>  <SCORE.INTRA.REPUL>
0

>  <SCORE.INTRA.REPUL.0>
0

>  <SCORE.INTRA.SOLV>
0

>  <SCORE.INTRA.SOLV.lig_0>
-48.3454

>  <SCORE.INTRA.VDW>
0

>  <SCORE.INTRA.VDW.0>
0

>  <SCORE.INTRA.norm>
0

>  <SCORE.RESTR>
0

>  <SCORE.RESTR.CAVITY>
0

>  <SCORE.RESTR.norm>
0

>  <SCORE.SYSTEM>
0

>  <SCORE.SYSTEM.CONST>
0

>  <SCORE.SYSTEM.DIHEDRAL>
0

>  <SCORE.SYSTEM.SOLV>
0

>  <SCORE.SYSTEM.norm>
0

>  <SCORE.heavy>
11

>  <SCORE.norm>
-0.947378

>  <RMSD>
3.349

$$$$
ligand
 OpenBabel01301917033D
libRbt.so/2013.1/901 2013/11/27
 11 12  0  0  0  0  0  0  0  0999 V2000
  -11.7007  -12.4359    6.2278 N   0  0  0  0  0  0  0  0  0  0  0  0
  -10.9017  -13.5063    6.0914 C   0  0  0  0  0  0  0  0  0  0  0  0
  -10.3543  -13.7755    4.9095 N   0  0  0  0  0  0  0  0  0  0  0  0
  -10.6582  -14.3137    7.1354 N   0  0  0  0  0  0  0  0  0  0  0  0
  -11.2100  -14.0694    8.3332 C   0  0  0  0  0  0  0  0  0  0  0  0
  -12.0407  -12.9688    8.5015 C   0  0  0  0  0  0  0  0  0  0  0  0
  -12.2758  -12.1454    7.4054 C   0  0  0  0  0  0  0  0  0  0  0  0
  -13.0568  -11.0757    7.5245 N   0  0  0  0  0  0  0  0  0  0  0  0
  -12.4575  -12.9715    9.7642 N   0  0  0  0  0  0  0  0  0  0  0  0
  -11.9163  -14.0263   10.3695 C   0  0  0  0  0  0  0  0  0  0  0  0
  -11.1573  -14.6963    9.5049 N   0  0  0  0  0  0  0  0  0  0  0  0
  1  7  2  0  0  0  0
  1  2  1  0  0  0  0
  2  3  1  0  0  0  0
  2  4  2  0  0  0  0
  4  5  1  0  0  0  0
  5  6  2  0  0  0  0
  5 11  1  0  0  0  0
  6  7  1  0  0  0  0
  6  9  1  0  0  0  0
  7  8  1  0  0  0  0
  9 10  1  0  0  0  0
 10 11  2  0  0  0  0
M  END
>  <CHROM.1>
-11.60780697,-13.26637513,7.77325745,1.16990290,0.91507754,-1.14388919

>  <Name>
ligand

>  <RI>
0

>  <Rbt.Current_Directory>
/home/itssahil/PROJECTS/Mol_Feturizer/New_Systems/rnas/2b57

>  <Rbt.Executable>
rbdock ($Id: //depot/dev/client3/rdock/2013.1/src/exe/rbdock.cxx#4 $)

>  <Rbt.Library>
libRbt.so (2013.1, Build901 2013/11/27)

>  <Rbt.Parameter_File>
/export/apps/rDock/src/rDock_2013.1_src/data/scripts/dock_solv.prm

>  <Rbt.Receptor>
prm/pocket_docking_5.prm

>  <SCORE>
-10.4246

>  <SCORE.INTER>
-10.4246

>  <SCORE.INTER.CONST>
1

>  <SCORE.INTER.POLAR>
0

>  <SCORE.INTER.ROT>
0

>  <SCORE.INTER.SOLV>
18.2013

>  <SCORE.INTER.VDW>
-16.6168

>  <SCORE.INTER.norm>
-0.947688

>  <SCORE.INTRA>
0

>  <SCORE.INTRA.DIHEDRAL>
0

>  <SCORE.INTRA.DIHEDRAL.0>
0

>  <SCORE.INTRA.POLAR>
0

>  <SCORE.INTRA.POLAR.0>
0

>  <SCORE.INTRA.REPUL>
0

>  <SCORE.INTRA.REPUL.0>
0

>  <SCORE.INTRA.SOLV>
0

>  <SCORE.INTRA.SOLV.lig_0>
-48.3454

>  <SCORE.INTRA.VDW>
0

>  <SCORE.INTRA.VDW.0>
0

>  <SCORE.INTRA.norm>
0

>  <SCORE.RESTR>
0

>  <SCORE.RESTR.CAVITY>
0

>  <SCORE.RESTR.norm>
0

>  <SCORE.SYSTEM>
0

>  <SCORE.SYSTEM.CONST>
0

>  <SCORE.SYSTEM.DIHEDRAL>
0

>  <SCORE.SYSTEM.SOLV>
0

>  <SCORE.SYSTEM.norm>
0

>  <SCORE.heavy>
11

>  <SCORE.norm>
-0.947688

>  <RMSD>
3.349

$$$$
ligand
 OpenBabel01301917033D
libRbt.so/2013.1/901 2013/11/27
 11 12  0  0  0  0  0  0  0  0999 V2000
  -11.6963  -12.4364    6.2288 N   0  0  0  0  0  0  0  0  0  0  0  0
  -10.8982  -13.5073    6.0912 C   0  0  0  0  0  0  0  0  0  0  0  0
  -10.3508  -13.7755    4.9090 N   0  0  0  0  0  0  0  0  0  0  0  0
  -10.6556  -14.3163    7.1341 N   0  0  0  0  0  0  0  0  0  0  0  0
  -11.2074  -14.0731    8.3321 C   0  0  0  0  0  0  0  0  0  0  0  0
  -12.0371  -12.9720    8.5018 C   0  0  0  0  0  0  0  0  0  0  0  0
  -12.2713  -12.1469    7.4067 C   0  0  0  0  0  0  0  0  0  0  0  0
  -13.0513  -11.0767    7.5270 N   0  0  0  0  0  0  0  0  0  0  0  0
  -12.4542  -12.9759    9.7643 N   0  0  0  0  0  0  0  0  0  0  0  0
  -11.9140  -14.0320   10.3684 C   0  0  0  0  0  0  0  0  0  0  0  0
  -11.1555  -14.7016    9.5030 N   0  0  0  0  0  0  0  0  0  0  0  0
  1  7  2  0  0  0  0
  1  2  1  0  0  0  0
  2  3  1  0  0  0  0
  2  4  2  0  0  0  0
  4  5  1  0  0  0  0
  5  6  2  0  0  0  0
  5 11  1  0  0  0  0
  6  7  1  0  0  0  0
  6  9  1  0  0  0  0
  7  8  1  0  0  0  0
  9 10  1  0  0  0  0
 10 11  2  0  0  0  0
M  END
>  <CHROM.1>
-11.60438160,-13.26896118,7.77319150,1.16901710,0.91581931,-1.14187033

>  <Name>
ligand

>  <RI>
0

>  <Rbt.Current_Directory>
/home/itssahil/PROJECTS/Mol_Feturizer/New_Systems/rnas/2b57

>  <Rbt.Executable>
rbdock ($Id: //depot/dev/client3/rdock/2013.1/src/exe/rbdock.cxx#4 $)

>  <Rbt.Library>
libRbt.so (2013.1, Build901 2013/11/27)

>  <Rbt.Parameter_File>
/export/apps/rDock/src/rDock_2013.1_src/data/scripts/dock_solv.prm

>  <Rbt.Receptor>
prm/pocket_docking_6.prm

>  <SCORE>
-10.4241

>  <SCORE.INTER>
-10.4241

>  <SCORE.INTER.CONST>
1

>  <SCORE.INTER.POLAR>
0

>  <SCORE.INTER.ROT>
0

>  <SCORE.INTER.SOLV>
18.2019

>  <SCORE.INTER.VDW>
-16.6167

>  <SCORE.INTER.norm>
-0.947648

>  <SCORE.INTRA>
0

>  <SCORE.INTRA.DIHEDRAL>
0

>  <SCORE.INTRA.DIHEDRAL.0>
0

>  <SCORE.INTRA.POLAR>
0

>  <SCORE.INTRA.POLAR.0>
0

>  <SCORE.INTRA.REPUL>
0

>  <SCORE.INTRA.REPUL.0>
0

>  <SCORE.INTRA.SOLV>
0

>  <SCORE.INTRA.SOLV.lig_0>
-48.3454

>  <SCORE.INTRA.VDW>
0

>  <SCORE.INTRA.VDW.0>
0

>  <SCORE.INTRA.norm>
0

>  <SCORE.RESTR>
0

>  <SCORE.RESTR.CAVITY>
0

>  <SCORE.RESTR.norm>
0

>  <SCORE.SYSTEM>
0

>  <SCORE.SYSTEM.CONST>
0

>  <SCORE.SYSTEM.DIHEDRAL>
0

>  <SCORE.SYSTEM.SOLV>
0

>  <SCORE.SYSTEM.norm>
0

>  <SCORE.heavy>
11

>  <SCORE.norm>
-0.947648

>  <RMSD>
3.349

$$$$
ligand
 OpenBabel01301917033D
libRbt.so/2013.1/901 2013/11/27
 11 12  0  0  0  0  0  0  0  0999 V2000
  -11.6784  -12.4394    6.2307 N   0  0  0  0  0  0  0  0  0  0  0  0
  -10.8718  -13.5047    6.0989 C   0  0  0  0  0  0  0  0  0  0  0  0
  -10.3128  -13.7680    4.9211 N   0  0  0  0  0  0  0  0  0  0  0  0
  -10.6324  -14.3130    7.1431 N   0  0  0  0  0  0  0  0  0  0  0  0
  -11.1959  -14.0746    8.3367 C   0  0  0  0  0  0  0  0  0  0  0  0
  -12.0345  -12.9794    8.5003 C   0  0  0  0  0  0  0  0  0  0  0  0
  -12.2653  -12.1550    7.4040 C   0  0  0  0  0  0  0  0  0  0  0  0
  -13.0536  -11.0903    7.5187 N   0  0  0  0  0  0  0  0  0  0  0  0
  -12.4621  -12.9874    9.7593 N   0  0  0  0  0  0  0  0  0  0  0  0
  -11.9197  -14.0403   10.3670 C   0  0  0  0  0  0  0  0  0  0  0  0
  -11.1494  -14.7038    9.5074 N   0  0  0  0  0  0  0  0  0  0  0  0
  1  7  2  0  0  0  0
  1  2  1  0  0  0  0
  2  3  1  0  0  0  0
  2  4  2  0  0  0  0
  4  5  1  0  0  0  0
  5  6  2  0  0  0  0
  5 11  1  0  0  0  0
  6  7  1  0  0  0  0
  6  9  1  0  0  0  0
  7  8  1  0  0  0  0
  9 10  1  0  0  0  0
 10 11  2  0  0  0  0
M  END
>  <CHROM.1>
-11.59367355,-13.27274378,7.77511208,1.16135229,0.90605503,-1.13493175

>  <Name>
ligand

>  <RI>
0

>  <Rbt.Current_Directory>
/home/itssahil/PROJECTS/Mol_Feturizer/New_Systems/rnas/2b57

>  <Rbt.Executable>
rbdock ($Id: //depot/dev/client3/rdock/2013.1/src/exe/rbdock.cxx#4 $)

>  <Rbt.Library>
libRbt.so (2013.1, Build901 2013/11/27)

>  <Rbt.Parameter_File>
/export/apps/rDock/src/rDock_2013.1_src/data/scripts/dock_solv.prm

>  <Rbt.Receptor>
prm/pocket_docking_6.prm

>  <SCORE>
-10.3922

>  <SCORE.INTER>
-10.3922

>  <SCORE.INTER.CONST>
1

>  <SCORE.INTER.POLAR>
0

>  <SCORE.INTER.ROT>
0

>  <SCORE.INTER.SOLV>
18.066

>  <SCORE.INTER.VDW>
-16.5502

>  <SCORE.INTER.norm>
-0.944748

>  <SCORE.INTRA>
0

>  <SCORE.INTRA.DIHEDRAL>
0

>  <SCORE.INTRA.DIHEDRAL.0>
0

>  <SCORE.INTRA.POLAR>
0

>  <SCORE.INTRA.POLAR.0>
0

>  <SCORE.INTRA.REPUL>
0

>  <SCORE.INTRA.REPUL.0>
0

>  <SCORE.INTRA.SOLV>
0

>  <SCORE.INTRA.SOLV.lig_0>
-48.3454

>  <SCORE.INTRA.VDW>
0

>  <SCORE.INTRA.VDW.0>
0

>  <SCORE.INTRA.norm>
0

>  <SCORE.RESTR>
0

>  <SCORE.RESTR.CAVITY>
0

>  <SCORE.RESTR.norm>
0

>  <SCORE.SYSTEM>
0

>  <SCORE.SYSTEM.CONST>
0

>  <SCORE.SYSTEM.DIHEDRAL>
0

>  <SCORE.SYSTEM.SOLV>
0

>  <SCORE.SYSTEM.norm>
0

>  <SCORE.heavy>
11

>  <SCORE.norm>
-0.944748

>  <RMSD>
3.349

$$$$
ligand
 OpenBabel01301917033D
libRbt.so/2013.1/901 2013/11/27
 11 12  0  0  0  0  0  0  0  0999 V2000
  -11.6982  -12.4386    6.2376 N   0  0  0  0  0  0  0  0  0  0  0  0
  -10.8959  -13.5064    6.1007 C   0  0  0  0  0  0  0  0  0  0  0  0
  -10.3445  -13.7711    4.9197 N   0  0  0  0  0  0  0  0  0  0  0  0
  -10.6532  -14.3158    7.1433 N   0  0  0  0  0  0  0  0  0  0  0  0
  -11.2090  -14.0761    8.3402 C   0  0  0  0  0  0  0  0  0  0  0  0
  -12.0431  -12.9782    8.5090 C   0  0  0  0  0  0  0  0  0  0  0  0
  -12.2774  -12.1526    7.4144 C   0  0  0  0  0  0  0  0  0  0  0  0
  -13.0616  -11.0854    7.5339 N   0  0  0  0  0  0  0  0  0  0  0  0
  -12.4635  -12.9853    9.7704 N   0  0  0  0  0  0  0  0  0  0  0  0
  -11.9211  -14.0401   10.3746 C   0  0  0  0  0  0  0  0  0  0  0  0
  -11.1579  -14.7059    9.5104 N   0  0  0  0  0  0  0  0  0  0  0  0
  1  7  2  0  0  0  0
  1  2  1  0  0  0  0
  2  3  1  0  0  0  0
  2  4  2  0  0  0  0
  4  5  1  0  0  0  0
  5  6  2  0  0  0  0
  5 11  1  0  0  0  0
  6  7  1  0  0  0  0
  6  9  1  0  0  0  0
  7  8  1  0  0  0  0
  9 10  1  0  0  0  0
 10 11  2  0  0  0  0
M  END
>  <CHROM.1>
-11.60738649,-13.27271730,7.78118002,1.16756914,0.91143827,-1.13947441

>  <Name>
ligand

>  <RI>
0

>  <Rbt.Current_Directory>
/home/itssahil/PROJECTS/Mol_Feturizer/New_Systems/rnas/2b57

>  <Rbt.Executable>
rbdock ($Id: //depot/dev/client3/rdock/2013.1/src/exe/rbdock.cxx#4 $)

>  <Rbt.Library>
libRbt.so (2013.1, Build901 2013/11/27)

>  <Rbt.Parameter_File>
/export/apps/rDock/src/rDock_2013.1_src/data/scripts/dock_solv.prm

>  <Rbt.Receptor>
prm/pocket_docking_6.prm

>  <SCORE>
-10.3937

>  <SCORE.INTER>
-10.3937

>  <SCORE.INTER.CONST>
1

>  <SCORE.INTER.POLAR>
0

>  <SCORE.INTER.ROT>
0

>  <SCORE.INTER.SOLV>
18.1255

>  <SCORE.INTER.VDW>
-16.571

>  <SCORE.INTER.norm>
-0.944884

>  <SCORE.INTRA>
0

>  <SCORE.INTRA.DIHEDRAL>
0

>  <SCORE.INTRA.DIHEDRAL.0>
0

>  <SCORE.INTRA.POLAR>
0

>  <SCORE.INTRA.POLAR.0>
0

>  <SCORE.INTRA.REPUL>
0

>  <SCORE.INTRA.REPUL.0>
0

>  <SCORE.INTRA.SOLV>
0

>  <SCORE.INTRA.SOLV.lig_0>
-48.3454

>  <SCORE.INTRA.VDW>
0

>  <SCORE.INTRA.VDW.0>
0

>  <SCORE.INTRA.norm>
0

>  <SCORE.RESTR>
0

>  <SCORE.RESTR.CAVITY>
0

>  <SCORE.RESTR.norm>
0

>  <SCORE.SYSTEM>
0

>  <SCORE.SYSTEM.CONST>
0

>  <SCORE.SYSTEM.DIHEDRAL>
0

>  <SCORE.SYSTEM.SOLV>
0

>  <SCORE.SYSTEM.norm>
0

>  <SCORE.heavy>
11

>  <SCORE.norm>
-0.944884

>  <RMSD>
3.349

$$$$
ligand
 OpenBabel01301917033D
libRbt.so/2013.1/901 2013/11/27
 11 12  0  0  0  0  0  0  0  0999 V2000
  -11.6796  -12.4341    6.2414 N   0  0  0  0  0  0  0  0  0  0  0  0
  -10.8761  -13.5013    6.1066 C   0  0  0  0  0  0  0  0  0  0  0  0
  -10.3189  -13.7637    4.9277 N   0  0  0  0  0  0  0  0  0  0  0  0
  -10.6380  -14.3125    7.1489 N   0  0  0  0  0  0  0  0  0  0  0  0
  -11.1997  -14.0751    8.3435 C   0  0  0  0  0  0  0  0  0  0  0  0
  -12.0351  -12.9778    8.5102 C   0  0  0  0  0  0  0  0  0  0  0  0
  -12.2646  -12.1505    7.4158 C   0  0  0  0  0  0  0  0  0  0  0  0
  -13.0498  -11.0838    7.5335 N   0  0  0  0  0  0  0  0  0  0  0  0
  -12.4615  -12.9873    9.7696 N   0  0  0  0  0  0  0  0  0  0  0  0
  -11.9216  -14.0430   10.3745 C   0  0  0  0  0  0  0  0  0  0  0  0
  -11.1539  -14.7068    9.5128 N   0  0  0  0  0  0  0  0  0  0  0  0
  1  7  2  0  0  0  0
  1  2  1  0  0  0  0
  2  3  1  0  0  0  0
  2  4  2  0  0  0  0
  4  5  1  0  0  0  0
  5  6  2  0  0  0  0
  5 11  1  0  0  0  0
  6  7  1  0  0  0  0
  6  9  1  0  0  0  0
  7  8  1  0  0  0  0
  9 10  1  0  0  0  0
 10 11  2  0  0  0  0
M  END
>  <CHROM.1>
-11.59575180,-13.27089234,7.78395925,1.16078392,0.90897840,-1.13238911

>  <Name>
ligand

>  <RI>
0

>  <Rbt.Current_Directory>
/home/itssahil/PROJECTS/Mol_Feturizer/New_Systems/rnas/2b57

>  <Rbt.Executable>
rbdock ($Id: //depot/dev/client3/rdock/2013.1/src/exe/rbdock.cxx#4 $)

>  <Rbt.Library>
libRbt.so (2013.1, Build901 2013/11/27)

>  <Rbt.Parameter_File>
/export/apps/rDock/src/rDock_2013.1_src/data/scripts/dock_solv.prm

>  <Rbt.Receptor>
prm/pocket_docking_6.prm

>  <SCORE>
-10.3934

>  <SCORE.INTER>
-10.3934

>  <SCORE.INTER.CONST>
1

>  <SCORE.INTER.POLAR>
0

>  <SCORE.INTER.ROT>
0

>  <SCORE.INTER.SOLV>
18.0502

>  <SCORE.INTER.VDW>
-16.5457

>  <SCORE.INTER.norm>
-0.944856

>  <SCORE.INTRA>
0

>  <SCORE.INTRA.DIHEDRAL>
0

>  <SCORE.INTRA.DIHEDRAL.0>
0

>  <SCORE.INTRA.POLAR>
0

>  <SCORE.INTRA.POLAR.0>
0

>  <SCORE.INTRA.REPUL>
0

>  <SCORE.INTRA.REPUL.0>
0

>  <SCORE.INTRA.SOLV>
0

>  <SCORE.INTRA.SOLV.lig_0>
-48.3454

>  <SCORE.INTRA.VDW>
0

>  <SCORE.INTRA.VDW.0>
0

>  <SCORE.INTRA.norm>
0

>  <SCORE.RESTR>
0

>  <SCORE.RESTR.CAVITY>
0

>  <SCORE.RESTR.norm>
0

>  <SCORE.SYSTEM>
0

>  <SCORE.SYSTEM.CONST>
0

>  <SCORE.SYSTEM.DIHEDRAL>
0

>  <SCORE.SYSTEM.SOLV>
0

>  <SCORE.SYSTEM.norm>
0

>  <SCORE.heavy>
11

>  <SCORE.norm>
-0.944856

>  <RMSD>
3.349

$$$$
ligand
 OpenBabel01301917033D
libRbt.so/2013.1/901 2013/11/27
 11 12  0  0  0  0  0  0  0  0999 V2000
  -11.6821  -12.4400    6.2412 N   0  0  0  0  0  0  0  0  0  0  0  0
  -10.8776  -13.5067    6.1083 C   0  0  0  0  0  0  0  0  0  0  0  0
  -10.3200  -13.7706    4.9300 N   0  0  0  0  0  0  0  0  0  0  0  0
  -10.6390  -14.3160    7.1519 N   0  0  0  0  0  0  0  0  0  0  0  0
  -11.2012  -14.0771    8.3460 C   0  0  0  0  0  0  0  0  0  0  0  0
  -12.0376  -12.9804    8.5108 C   0  0  0  0  0  0  0  0  0  0  0  0
  -12.2676  -12.1550    7.4151 C   0  0  0  0  0  0  0  0  0  0  0  0
  -13.0538  -11.0888    7.5308 N   0  0  0  0  0  0  0  0  0  0  0  0
  -12.4643  -12.9881    9.7701 N   0  0  0  0  0  0  0  0  0  0  0  0
  -11.9235  -14.0424   10.3769 C   0  0  0  0  0  0  0  0  0  0  0  0
  -11.1551  -14.7070    9.5164 N   0  0  0  0  0  0  0  0  0  0  0  0
  1  7  2  0  0  0  0
  1  2  1  0  0  0  0
  2  3  1  0  0  0  0
  2  4  2  0  0  0  0
  4  5  1  0  0  0  0
  5  6  2  0  0  0  0
  5 11  1  0  0  0  0
  6  7  1  0  0  0  0
  6  9  1  0  0  0  0
  7  8  1  0  0  0  0
  9 10  1  0  0  0  0
 10 11  2  0  0  0  0
M  END
>  <CHROM.1>
-11.59785766,-13.27422376,7.78513517,1.16109232,0.90809797,-1.13425307

>  <Name>
ligand

>  <RI>
0

>  <Rbt.Current_Directory>
/home/itssahil/PROJECTS/Mol_Feturizer/New_Systems/rnas/2b57

>  <Rbt.Executable>
rbdock ($Id: //depot/dev/client3/rdock/2013.1/src/exe/rbdock.cxx#4 $)

>  <Rbt.Library>
libRbt.so (2013.1, Build901 2013/11/27)

>  <Rbt.Parameter_File>
/export/apps/rDock/src/rDock_2013.1_src/data/scripts/dock_solv.prm

>  <Rbt.Receptor>
prm/pocket_docking_6.prm

>  <SCORE>
-10.3929

>  <SCORE.INTER>
-10.3929

>  <SCORE.INTER.CONST>
1

>  <SCORE.INTER.POLAR>
0

>  <SCORE.INTER.ROT>
0

>  <SCORE.INTER.SOLV>
18.0357

>  <SCORE.INTER.VDW>
-16.5405

>  <SCORE.INTER.norm>
-0.94481

>  <SCORE.INTRA>
0

>  <SCORE.INTRA.DIHEDRAL>
0

>  <SCORE.INTRA.DIHEDRAL.0>
0

>  <SCORE.INTRA.POLAR>
0

>  <SCORE.INTRA.POLAR.0>
0

>  <SCORE.INTRA.REPUL>
0

>  <SCORE.INTRA.REPUL.0>
0

>  <SCORE.INTRA.SOLV>
0

>  <SCORE.INTRA.SOLV.lig_0>
-48.3454

>  <SCORE.INTRA.VDW>
0

>  <SCORE.INTRA.VDW.0>
0

>  <SCORE.INTRA.norm>
0

>  <SCORE.RESTR>
0

>  <SCORE.RESTR.CAVITY>
0

>  <SCORE.RESTR.norm>
0

>  <SCORE.SYSTEM>
0

>  <SCORE.SYSTEM.CONST>
0

>  <SCORE.SYSTEM.DIHEDRAL>
0

>  <SCORE.SYSTEM.SOLV>
0

>  <SCORE.SYSTEM.norm>
0

>  <SCORE.heavy>
11

>  <SCORE.norm>
-0.94481

>  <RMSD>
3.349

$$$$
ligand
 OpenBabel01301917033D
libRbt.so/2013.1/901 2013/11/27
 11 12  0  0  0  0  0  0  0  0999 V2000
  -11.6891  -12.4343    6.2405 N   0  0  0  0  0  0  0  0  0  0  0  0
  -10.8834  -13.4998    6.1058 C   0  0  0  0  0  0  0  0  0  0  0  0
  -10.3268  -13.7622    4.9267 N   0  0  0  0  0  0  0  0  0  0  0  0
  -10.6424  -14.3094    7.1487 N   0  0  0  0  0  0  0  0  0  0  0  0
  -11.2035  -14.0721    8.3436 C   0  0  0  0  0  0  0  0  0  0  0  0
  -12.0412  -12.9766    8.5101 C   0  0  0  0  0  0  0  0  0  0  0  0
  -12.2736  -12.1508    7.4152 C   0  0  0  0  0  0  0  0  0  0  0  0
  -13.0611  -11.0858    7.5326 N   0  0  0  0  0  0  0  0  0  0  0  0
  -12.4663  -12.9857    9.7699 N   0  0  0  0  0  0  0  0  0  0  0  0
  -11.9234  -14.0396   10.3754 C   0  0  0  0  0  0  0  0  0  0  0  0
  -11.1551  -14.7026    9.5136 N   0  0  0  0  0  0  0  0  0  0  0  0
  1  7  2  0  0  0  0
  1  2  1  0  0  0  0
  2  3  1  0  0  0  0
  2  4  2  0  0  0  0
  4  5  1  0  0  0  0
  5  6  2  0  0  0  0
  5 11  1  0  0  0  0
  6  7  1  0  0  0  0
  6  9  1  0  0  0  0
  7  8  1  0  0  0  0
  9 10  1  0  0  0  0
 10 11  2  0  0  0  0
M  END
>  <CHROM.1>
-11.60191046,-13.26937216,7.78374304,1.16379450,0.90737965,-1.13573903

>  <Name>
ligand

>  <RI>
0

>  <Rbt.Current_Directory>
/home/itssahil/PROJECTS/Mol_Feturizer/New_Systems/rnas/2b57

>  <Rbt.Executable>
rbdock ($Id: //depot/dev/client3/rdock/2013.1/src/exe/rbdock.cxx#4 $)

>  <Rbt.Library>
libRbt.so (2013.1, Build901 2013/11/27)

>  <Rbt.Parameter_File>
/export/apps/rDock/src/rDock_2013.1_src/data/scripts/dock_solv.prm

>  <Rbt.Receptor>
prm/pocket_docking_7.prm

>  <SCORE>
-10.3958

>  <SCORE.INTER>
-10.3958

>  <SCORE.INTER.CONST>
1

>  <SCORE.INTER.POLAR>
0

>  <SCORE.INTER.ROT>
0

>  <SCORE.INTER.SOLV>
18.0611

>  <SCORE.INTER.VDW>
-16.5509

>  <SCORE.INTER.norm>
-0.945076

>  <SCORE.INTRA>
0

>  <SCORE.INTRA.DIHEDRAL>
0

>  <SCORE.INTRA.DIHEDRAL.0>
0

>  <SCORE.INTRA.POLAR>
0

>  <SCORE.INTRA.POLAR.0>
0

>  <SCORE.INTRA.REPUL>
0

>  <SCORE.INTRA.REPUL.0>
0

>  <SCORE.INTRA.SOLV>
0

>  <SCORE.INTRA.SOLV.lig_0>
-48.3454

>  <SCORE.INTRA.VDW>
0

>  <SCORE.INTRA.VDW.0>
0

>  <SCORE.INTRA.norm>
0

>  <SCORE.RESTR>
0

>  <SCORE.RESTR.CAVITY>
0

>  <SCORE.RESTR.norm>
0

>  <SCORE.SYSTEM>
0

>  <SCORE.SYSTEM.CONST>
0

>  <SCORE.SYSTEM.DIHEDRAL>
0

>  <SCORE.SYSTEM.SOLV>
0

>  <SCORE.SYSTEM.norm>
0

>  <SCORE.heavy>
11

>  <SCORE.norm>
-0.945076

>  <RMSD>
3.349

$$$$
ligand
 OpenBabel01301917033D
libRbt.so/2013.1/901 2013/11/27
 11 12  0  0  0  0  0  0  0  0999 V2000
  -11.6892  -12.4352    6.2357 N   0  0  0  0  0  0  0  0  0  0  0  0
  -10.8835  -13.5007    6.1011 C   0  0  0  0  0  0  0  0  0  0  0  0
  -10.3275  -13.7635    4.9218 N   0  0  0  0  0  0  0  0  0  0  0  0
  -10.6419  -14.3099    7.1442 N   0  0  0  0  0  0  0  0  0  0  0  0
  -11.2023  -14.0721    8.3393 C   0  0  0  0  0  0  0  0  0  0  0  0
  -12.0400  -12.9765    8.5058 C   0  0  0  0  0  0  0  0  0  0  0  0
  -12.2730  -12.1512    7.4107 C   0  0  0  0  0  0  0  0  0  0  0  0
  -13.0605  -11.0862    7.5280 N   0  0  0  0  0  0  0  0  0  0  0  0
  -12.4645  -12.9852    9.7658 N   0  0  0  0  0  0  0  0  0  0  0  0
  -11.9211  -14.0388   10.3714 C   0  0  0  0  0  0  0  0  0  0  0  0
  -11.1533  -14.7021    9.5095 N   0  0  0  0  0  0  0  0  0  0  0  0
  1  7  2  0  0  0  0
  1  2  1  0  0  0  0
  2  3  1  0  0  0  0
  2  4  2  0  0  0  0
  4  5  1  0  0  0  0
  5  6  2  0  0  0  0
  5 11  1  0  0  0  0
  6  7  1  0  0  0  0
  6  9  1  0  0  0  0
  7  8  1  0  0  0  0
  9 10  1  0  0  0  0
 10 11  2  0  0  0  0
M  END
>  <CHROM.1>
-11.60108575,-13.26960275,7.77929559,1.16462627,0.90755105,-1.13681287

>  <Name>
ligand

>  <RI>
0

>  <Rbt.Current_Directory>
/home/itssahil/PROJECTS/Mol_Feturizer/New_Systems/rnas/2b57

>  <Rbt.Executable>
rbdock ($Id: //depot/dev/client3/rdock/2013.1/src/exe/rbdock.cxx#4 $)

>  <Rbt.Library>
libRbt.so (2013.1, Build901 2013/11/27)

>  <Rbt.Parameter_File>
/export/apps/rDock/src/rDock_2013.1_src/data/scripts/dock_solv.prm

>  <Rbt.Receptor>
prm/pocket_docking_8.prm

>  <SCORE>
-10.3963

>  <SCORE.INTER>
-10.3963

>  <SCORE.INTER.CONST>
1

>  <SCORE.INTER.POLAR>
0

>  <SCORE.INTER.ROT>
0

>  <SCORE.INTER.SOLV>
18.0847

>  <SCORE.INTER.VDW>
-16.5591

>  <SCORE.INTER.norm>
-0.945114

>  <SCORE.INTRA>
0

>  <SCORE.INTRA.DIHEDRAL>
0

>  <SCORE.INTRA.DIHEDRAL.0>
0

>  <SCORE.INTRA.POLAR>
0

>  <SCORE.INTRA.POLAR.0>
0

>  <SCORE.INTRA.REPUL>
0

>  <SCORE.INTRA.REPUL.0>
0

>  <SCORE.INTRA.SOLV>
0

>  <SCORE.INTRA.SOLV.lig_0>
-48.3454

>  <SCORE.INTRA.VDW>
0

>  <SCORE.INTRA.VDW.0>
0

>  <SCORE.INTRA.norm>
0

>  <SCORE.RESTR>
0

>  <SCORE.RESTR.CAVITY>
0

>  <SCORE.RESTR.norm>
0

>  <SCORE.SYSTEM>
0

>  <SCORE.SYSTEM.CONST>
0

>  <SCORE.SYSTEM.DIHEDRAL>
0

>  <SCORE.SYSTEM.SOLV>
0

>  <SCORE.SYSTEM.norm>
0

>  <SCORE.heavy>
11

>  <SCORE.norm>
-0.945114

>  <RMSD>
3.349

$$$$
ligand
 OpenBabel01301917033D
libRbt.so/2013.1/901 2013/11/27
 11 12  0  0  0  0  0  0  0  0999 V2000
  -11.6828  -12.4366    6.2356 N   0  0  0  0  0  0  0  0  0  0  0  0
  -10.8791  -13.5038    6.1017 C   0  0  0  0  0  0  0  0  0  0  0  0
  -10.3226  -13.7678    4.9229 N   0  0  0  0  0  0  0  0  0  0  0  0
  -10.6400  -14.3134    7.1450 N   0  0  0  0  0  0  0  0  0  0  0  0
  -11.2010  -14.0744    8.3397 C   0  0  0  0  0  0  0  0  0  0  0  0
  -12.0366  -12.9772    8.5054 C   0  0  0  0  0  0  0  0  0  0  0  0
  -12.2670  -12.1515    7.4100 C   0  0  0  0  0  0  0  0  0  0  0  0
  -13.0525  -11.0849    7.5267 N   0  0  0  0  0  0  0  0  0  0  0  0
  -12.4621  -12.9850    9.7651 N   0  0  0  0  0  0  0  0  0  0  0  0
  -11.9214  -14.0396   10.3712 C   0  0  0  0  0  0  0  0  0  0  0  0
  -11.1542  -14.7045    9.5099 N   0  0  0  0  0  0  0  0  0  0  0  0
  1  7  2  0  0  0  0
  1  2  1  0  0  0  0
  2  3  1  0  0  0  0
  2  4  2  0  0  0  0
  4  5  1  0  0  0  0
  5  6  2  0  0  0  0
  5 11  1  0  0  0  0
  6  7  1  0  0  0  0
  6  9  1  0  0  0  0
  7  8  1  0  0  0  0
  9 10  1  0  0  0  0
 10 11  2  0  0  0  0
M  END
>  <CHROM.1>
-11.59763884,-13.27118205,7.77928624,1.16199340,0.90902004,-1.13477941

>  <Name>
ligand

>  <RI>
0

>  <Rbt.Current_Directory>
/home/itssahil/PROJECTS/Mol_Feturizer/New_Systems/rnas/2b57

>  <Rbt.Executable>
rbdock ($Id: //depot/dev/client3/rdock/2013.1/src/exe/rbdock.cxx#4 $)

>  <Rbt.Library>
libRbt.so (2013.1, Build901 2013/11/27)

>  <Rbt.Parameter_File>
/export/apps/rDock/src/rDock_2013.1_src/data/scripts/dock_solv.prm

>  <Rbt.Receptor>
prm/pocket_docking_8.prm

>  <SCORE>
-10.3949

>  <SCORE.INTER>
-10.3949

>  <SCORE.INTER.CONST>
1

>  <SCORE.INTER.POLAR>
0

>  <SCORE.INTER.ROT>
0

>  <SCORE.INTER.SOLV>
18.077

>  <SCORE.INTER.VDW>
-16.5556

>  <SCORE.INTER.norm>
-0.944989

>  <SCORE.INTRA>
0

>  <SCORE.INTRA.DIHEDRAL>
0

>  <SCORE.INTRA.DIHEDRAL.0>
0

>  <SCORE.INTRA.POLAR>
0

>  <SCORE.INTRA.POLAR.0>
0

>  <SCORE.INTRA.REPUL>
0

>  <SCORE.INTRA.REPUL.0>
0

>  <SCORE.INTRA.SOLV>
0

>  <SCORE.INTRA.SOLV.lig_0>
-48.3454

>  <SCORE.INTRA.VDW>
0

>  <SCORE.INTRA.VDW.0>
0

>  <SCORE.INTRA.norm>
0

>  <SCORE.RESTR>
0

>  <SCORE.RESTR.CAVITY>
0

>  <SCORE.RESTR.norm>
0

>  <SCORE.SYSTEM>
0

>  <SCORE.SYSTEM.CONST>
0

>  <SCORE.SYSTEM.DIHEDRAL>
0

>  <SCORE.SYSTEM.SOLV>
0

>  <SCORE.SYSTEM.norm>
0

>  <SCORE.heavy>
11

>  <SCORE.norm>
-0.944989

>  <RMSD>
3.349

$$$$
ligand
 OpenBabel01301917033D
libRbt.so/2013.1/901 2013/11/27
 11 12  0  0  0  0  0  0  0  0999 V2000
  -11.6829  -12.4299    6.2411 N   0  0  0  0  0  0  0  0  0  0  0  0
  -10.8696  -13.4901    6.1107 C   0  0  0  0  0  0  0  0  0  0  0  0
  -10.3065  -13.7499    4.9341 N   0  0  0  0  0  0  0  0  0  0  0  0
  -10.6273  -14.2971    7.1553 N   0  0  0  0  0  0  0  0  0  0  0  0
  -11.1947  -14.0624    8.3478 C   0  0  0  0  0  0  0  0  0  0  0  0
  -12.0404  -12.9723    8.5099 C   0  0  0  0  0  0  0  0  0  0  0  0
  -12.2739  -12.1492    7.4132 C   0  0  0  0  0  0  0  0  0  0  0  0
  -13.0690  -11.0894    7.5264 N   0  0  0  0  0  0  0  0  0  0  0  0
  -12.4704  -12.9831    9.7680 N   0  0  0  0  0  0  0  0  0  0  0  0
  -11.9228  -14.0327   10.3766 C   0  0  0  0  0  0  0  0  0  0  0  0
  -11.1467  -14.6914    9.5185 N   0  0  0  0  0  0  0  0  0  0  0  0
  1  7  2  0  0  0  0
  1  2  1  0  0  0  0
  2  3  1  0  0  0  0
  2  4  2  0  0  0  0
  4  5  1  0  0  0  0
  5  6  2  0  0  0  0
  5 11  1  0  0  0  0
  6  7  1  0  0  0  0
  6  9  1  0  0  0  0
  7  8  1  0  0  0  0
  9 10  1  0  0  0  0
 10 11  2  0  0  0  0
M  END
>  <CHROM.1>
-11.59624219,-13.26285866,7.78552631,1.16255882,0.89963704,-1.13575212

>  <Name>
ligand

>  <RI>
0

>  <Rbt.Current_Directory>
/home/itssahil/PROJECTS/Mol_Feturizer/New_Systems/rnas/2b57

>  <Rbt.Executable>
rbdock ($Id: //depot/dev/client3/rdock/2013.1/src/exe/rbdock.cxx#4 $)

>  <Rbt.Library>
libRbt.so (2013.1, Build901 2013/11/27)

>  <Rbt.Parameter_File>
/export/apps/rDock/src/rDock_2013.1_src/data/scripts/dock_solv.prm

>  <Rbt.Receptor>
prm/pocket_docking_8.prm

>  <SCORE>
-10.3962

>  <SCORE.INTER>
-10.3962

>  <SCORE.INTER.CONST>
1

>  <SCORE.INTER.POLAR>
0

>  <SCORE.INTER.ROT>
0

>  <SCORE.INTER.SOLV>
17.9806

>  <SCORE.INTER.VDW>
-16.5244

>  <SCORE.INTER.norm>
-0.945111

>  <SCORE.INTRA>
0

>  <SCORE.INTRA.DIHEDRAL>
0

>  <SCORE.INTRA.DIHEDRAL.0>
0

>  <SCORE.INTRA.POLAR>
0

>  <SCORE.INTRA.POLAR.0>
0

>  <SCORE.INTRA.REPUL>
0

>  <SCORE.INTRA.REPUL.0>
0

>  <SCORE.INTRA.SOLV>
0

>  <SCORE.INTRA.SOLV.lig_0>
-48.3454

>  <SCORE.INTRA.VDW>
0

>  <SCORE.INTRA.VDW.0>
0

>  <SCORE.INTRA.norm>
0

>  <SCORE.RESTR>
0

>  <SCORE.RESTR.CAVITY>
0

>  <SCORE.RESTR.norm>
0

>  <SCORE.SYSTEM>
0

>  <SCORE.SYSTEM.CONST>
0

>  <SCORE.SYSTEM.DIHEDRAL>
0

>  <SCORE.SYSTEM.SOLV>
0

>  <SCORE.SYSTEM.norm>
0

>  <SCORE.heavy>
11

>  <SCORE.norm>
-0.945111

>  <RMSD>
3.349

$$$$
ligand
 OpenBabel01301917033D
libRbt.so/2013.1/901 2013/11/27
 11 12  0  0  0  0  0  0  0  0999 V2000
  -11.7232  -12.4489    6.2302 N   0  0  0  0  0  0  0  0  0  0  0  0
  -10.9160  -13.5131    6.0935 C   0  0  0  0  0  0  0  0  0  0  0  0
  -10.3678  -13.7787    4.9112 N   0  0  0  0  0  0  0  0  0  0  0  0
  -10.6653  -14.3182    7.1376 N   0  0  0  0  0  0  0  0  0  0  0  0
  -11.2178  -14.0776    8.3358 C   0  0  0  0  0  0  0  0  0  0  0  0
  -12.0567  -12.9833    8.5045 C   0  0  0  0  0  0  0  0  0  0  0  0
  -12.2993  -12.1623    7.4083 C   0  0  0  0  0  0  0  0  0  0  0  0
  -13.0883  -11.0986    7.5276 N   0  0  0  0  0  0  0  0  0  0  0  0
  -12.4722  -12.9887    9.7676 N   0  0  0  0  0  0  0  0  0  0  0  0
  -11.9223  -14.0390   10.3728 C   0  0  0  0  0  0  0  0  0  0  0  0
  -11.1590  -14.7035    9.5077 N   0  0  0  0  0  0  0  0  0  0  0  0
  1  7  2  0  0  0  0
  1  2  1  0  0  0  0
  2  3  1  0  0  0  0
  2  4  2  0  0  0  0
  4  5  1  0  0  0  0
  5  6  2  0  0  0  0
  5 11  1  0  0  0  0
  6  7  1  0  0  0  0
  6  9  1  0  0  0  0
  7  8  1  0  0  0  0
  9 10  1  0  0  0  0
 10 11  2  0  0  0  0
M  END
>  <CHROM.1>
-11.62227985,-13.27790643,7.77592982,1.17660096,0.90846504,-1.14964785

>  <Name>
ligand

>  <RI>
0

>  <Rbt.Current_Directory>
/home/itssahil/PROJECTS/Mol_Feturizer/New_Systems/rnas/2b57

>  <Rbt.Executable>
rbdock ($Id: //depot/dev/client3/rdock/2013.1/src/exe/rbdock.cxx#4 $)

>  <Rbt.Library>
libRbt.so (2013.1, Build901 2013/11/27)

>  <Rbt.Parameter_File>
/export/apps/rDock/src/rDock_2013.1_src/data/scripts/dock_solv.prm

>  <Rbt.Receptor>
prm/blind_docking_40.prm

>  <SCORE>
-10.4233

>  <SCORE.INTER>
-10.4233

>  <SCORE.INTER.CONST>
1

>  <SCORE.INTER.POLAR>
0

>  <SCORE.INTER.ROT>
0

>  <SCORE.INTER.SOLV>
18.1835

>  <SCORE.INTER.VDW>
-16.61

>  <SCORE.INTER.norm>
-0.947572

>  <SCORE.INTRA>
0

>  <SCORE.INTRA.DIHEDRAL>
0

>  <SCORE.INTRA.DIHEDRAL.0>
0

>  <SCORE.INTRA.POLAR>
0

>  <SCORE.INTRA.POLAR.0>
0

>  <SCORE.INTRA.REPUL>
0

>  <SCORE.INTRA.REPUL.0>
0

>  <SCORE.INTRA.SOLV>
0

>  <SCORE.INTRA.SOLV.lig_0>
-48.3454

>  <SCORE.INTRA.VDW>
0

>  <SCORE.INTRA.VDW.0>
0

>  <SCORE.INTRA.norm>
0

>  <SCORE.RESTR>
0

>  <SCORE.RESTR.CAVITY>
0

>  <SCORE.RESTR.norm>
0

>  <SCORE.SYSTEM>
0

>  <SCORE.SYSTEM.CONST>
0

>  <SCORE.SYSTEM.DIHEDRAL>
0

>  <SCORE.SYSTEM.SOLV>
0

>  <SCORE.SYSTEM.norm>
0

>  <SCORE.heavy>
11

>  <SCORE.norm>
-0.947572

>  <RMSD>
3.350

$$$$
ligand
 OpenBabel01301917033D
libRbt.so/2013.1/901 2013/11/27
 11 12  0  0  0  0  0  0  0  0999 V2000
  -11.7004  -12.4367    6.2396 N   0  0  0  0  0  0  0  0  0  0  0  0
  -10.8925  -13.5005    6.1043 C   0  0  0  0  0  0  0  0  0  0  0  0
  -10.3374  -13.7623    4.9243 N   0  0  0  0  0  0  0  0  0  0  0  0
  -10.6478  -14.3089    7.1472 N   0  0  0  0  0  0  0  0  0  0  0  0
  -11.2072  -14.0721    8.3430 C   0  0  0  0  0  0  0  0  0  0  0  0
  -12.0471  -12.9784    8.5103 C   0  0  0  0  0  0  0  0  0  0  0  0
  -12.2834  -12.1538    7.4153 C   0  0  0  0  0  0  0  0  0  0  0  0
  -13.0731  -11.0906    7.5334 N   0  0  0  0  0  0  0  0  0  0  0  0
  -12.4700  -12.9877    9.7709 N   0  0  0  0  0  0  0  0  0  0  0  0
  -11.9235  -14.0400   10.3760 C   0  0  0  0  0  0  0  0  0  0  0  0
  -11.1553  -14.7017    9.5132 N   0  0  0  0  0  0  0  0  0  0  0  0
  1  7  2  0  0  0  0
  1  2  1  0  0  0  0
  2  3  1  0  0  0  0
  2  4  2  0  0  0  0
  4  5  1  0  0  0  0
  5  6  2  0  0  0  0
  5 11  1  0  0  0  0
  6  7  1  0  0  0  0
  6  9  1  0  0  0  0
  7  8  1  0  0  0  0
  9 10  1  0  0  0  0
 10 11  2  0  0  0  0
M  END
>  <CHROM.1>
-11.60848586,-13.27063087,7.78330060,1.16801518,0.90604846,-1.13969708

>  <Name>
ligand

>  <RI>
0

>  <Rbt.Current_Directory>
/home/itssahil/PROJECTS/Mol_Feturizer/New_Systems/rnas/2b57

>  <Rbt.Executable>
rbdock ($Id: //depot/dev/client3/rdock/2013.1/src/exe/rbdock.cxx#4 $)

>  <Rbt.Library>
libRbt.so (2013.1, Build901 2013/11/27)

>  <Rbt.Parameter_File>
/export/apps/rDock/src/rDock_2013.1_src/data/scripts/dock_solv.prm

>  <Rbt.Receptor>
prm/blind_docking_60.prm

>  <SCORE>
-10.3961

>  <SCORE.INTER>
-10.3961

>  <SCORE.INTER.CONST>
1

>  <SCORE.INTER.POLAR>
0

>  <SCORE.INTER.ROT>
0

>  <SCORE.INTER.SOLV>
18.0811

>  <SCORE.INTER.VDW>
-16.5578

>  <SCORE.INTER.norm>
-0.945104

>  <SCORE.INTRA>
0

>  <SCORE.INTRA.DIHEDRAL>
0

>  <SCORE.INTRA.DIHEDRAL.0>
0

>  <SCORE.INTRA.POLAR>
0

>  <SCORE.INTRA.POLAR.0>
0

>  <SCORE.INTRA.REPUL>
0

>  <SCORE.INTRA.REPUL.0>
0

>  <SCORE.INTRA.SOLV>
0

>  <SCORE.INTRA.SOLV.lig_0>
-48.3454

>  <SCORE.INTRA.VDW>
0

>  <SCORE.INTRA.VDW.0>
0

>  <SCORE.INTRA.norm>
0

>  <SCORE.RESTR>
0

>  <SCORE.RESTR.CAVITY>
0

>  <SCORE.RESTR.norm>
0

>  <SCORE.SYSTEM>
0

>  <SCORE.SYSTEM.CONST>
0

>  <SCORE.SYSTEM.DIHEDRAL>
0

>  <SCORE.SYSTEM.SOLV>
0

>  <SCORE.SYSTEM.norm>
0

>  <SCORE.heavy>
11

>  <SCORE.norm>
-0.945104

>  <RMSD>
3.350

$$$$
ligand
 OpenBabel01301917033D
libRbt.so/2013.1/901 2013/11/27
 11 12  0  0  0  0  0  0  0  0999 V2000
  -11.7175  -12.4422    6.2371 N   0  0  0  0  0  0  0  0  0  0  0  0
  -10.9139  -13.5087    6.0977 C   0  0  0  0  0  0  0  0  0  0  0  0
  -10.3670  -13.7734    4.9146 N   0  0  0  0  0  0  0  0  0  0  0  0
  -10.6655  -14.3169    7.1399 N   0  0  0  0  0  0  0  0  0  0  0  0
  -11.2167  -14.0772    8.3388 C   0  0  0  0  0  0  0  0  0  0  0  0
  -12.0520  -12.9806    8.5103 C   0  0  0  0  0  0  0  0  0  0  0  0
  -12.2923  -12.1563    7.4160 C   0  0  0  0  0  0  0  0  0  0  0  0
  -13.0778  -11.0903    7.5380 N   0  0  0  0  0  0  0  0  0  0  0  0
  -12.4671  -12.9874    9.7735 N   0  0  0  0  0  0  0  0  0  0  0  0
  -11.9204  -14.0409   10.3762 C   0  0  0  0  0  0  0  0  0  0  0  0
  -11.1597  -14.7060    9.5093 N   0  0  0  0  0  0  0  0  0  0  0  0
  1  7  2  0  0  0  0
  1  2  1  0  0  0  0
  2  3  1  0  0  0  0
  2  4  2  0  0  0  0
  4  5  1  0  0  0  0
  5  6  2  0  0  0  0
  5 11  1  0  0  0  0
  6  7  1  0  0  0  0
  6  9  1  0  0  0  0
  7  8  1  0  0  0  0
  9 10  1  0  0  0  0
 10 11  2  0  0  0  0
M  END
>  <CHROM.1>
-11.61882352,-13.27494690,7.78089958,1.17492046,0.91161383,-1.14607272

>  <Name>
ligand

>  <RI>
0

>  <Rbt.Current_Directory>
/home/itssahil/PROJECTS/Mol_Feturizer/New_Systems/rnas/2b57

>  <Rbt.Executable>
rbdock ($Id: //depot/dev/client3/rdock/2013.1/src/exe/rbdock.cxx#4 $)

>  <Rbt.Library>
libRbt.so (2013.1, Build901 2013/11/27)

>  <Rbt.Parameter_File>
/export/apps/rDock/src/rDock_2013.1_src/data/scripts/dock_solv.prm

>  <Rbt.Receptor>
prm/pocket_docking_3.prm

>  <SCORE>
-10.426

>  <SCORE.INTER>
-10.426

>  <SCORE.INTER.CONST>
1

>  <SCORE.INTER.POLAR>
0

>  <SCORE.INTER.ROT>
0

>  <SCORE.INTER.SOLV>
18.1763

>  <SCORE.INTER.VDW>
-16.6094

>  <SCORE.INTER.norm>
-0.947821

>  <SCORE.INTRA>
0

>  <SCORE.INTRA.DIHEDRAL>
0

>  <SCORE.INTRA.DIHEDRAL.0>
0

>  <SCORE.INTRA.POLAR>
0

>  <SCORE.INTRA.POLAR.0>
0

>  <SCORE.INTRA.REPUL>
0

>  <SCORE.INTRA.REPUL.0>
0

>  <SCORE.INTRA.SOLV>
0

>  <SCORE.INTRA.SOLV.lig_0>
-48.3454

>  <SCORE.INTRA.VDW>
0

>  <SCORE.INTRA.VDW.0>
0

>  <SCORE.INTRA.norm>
0

>  <SCORE.RESTR>
0

>  <SCORE.RESTR.CAVITY>
0

>  <SCORE.RESTR.norm>
0

>  <SCORE.SYSTEM>
0

>  <SCORE.SYSTEM.CONST>
0

>  <SCORE.SYSTEM.DIHEDRAL>
0

>  <SCORE.SYSTEM.SOLV>
0

>  <SCORE.SYSTEM.norm>
0

>  <SCORE.heavy>
11

>  <SCORE.norm>
-0.947821

>  <RMSD>
3.350

$$$$
ligand
 OpenBabel01301917033D
libRbt.so/2013.1/901 2013/11/27
 11 12  0  0  0  0  0  0  0  0999 V2000
  -11.7075  -12.4490    6.2284 N   0  0  0  0  0  0  0  0  0  0  0  0
  -10.9029  -13.5153    6.0924 C   0  0  0  0  0  0  0  0  0  0  0  0
  -10.3528  -13.7812    4.9111 N   0  0  0  0  0  0  0  0  0  0  0  0
  -10.6566  -14.3220    7.1363 N   0  0  0  0  0  0  0  0  0  0  0  0
  -11.2110  -14.0810    8.3336 C   0  0  0  0  0  0  0  0  0  0  0  0
  -12.0474  -12.9847    8.5015 C   0  0  0  0  0  0  0  0  0  0  0  0
  -12.2855  -12.1620    7.4055 C   0  0  0  0  0  0  0  0  0  0  0  0
  -13.0719  -11.0963    7.5241 N   0  0  0  0  0  0  0  0  0  0  0  0
  -12.4657  -12.9901    9.7636 N   0  0  0  0  0  0  0  0  0  0  0  0
  -11.9199  -14.0425   10.3691 C   0  0  0  0  0  0  0  0  0  0  0  0
  -11.1566  -14.7082    9.5050 N   0  0  0  0  0  0  0  0  0  0  0  0
  1  7  2  0  0  0  0
  1  2  1  0  0  0  0
  2  3  1  0  0  0  0
  2  4  2  0  0  0  0
  4  5  1  0  0  0  0
  5  6  2  0  0  0  0
  5 11  1  0  0  0  0
  6  7  1  0  0  0  0
  6  9  1  0  0  0  0
  7  8  1  0  0  0  0
  9 10  1  0  0  0  0
 10 11  2  0  0  0  0
M  END
>  <CHROM.1>
-11.61220101,-13.27974336,7.77355392,1.17157151,0.90999739,-1.14472863

>  <Name>
ligand

>  <RI>
0

>  <Rbt.Current_Directory>
/home/itssahil/PROJECTS/Mol_Feturizer/New_Systems/rnas/2b57

>  <Rbt.Executable>
rbdock ($Id: //depot/dev/client3/rdock/2013.1/src/exe/rbdock.cxx#4 $)

>  <Rbt.Library>
libRbt.so (2013.1, Build901 2013/11/27)

>  <Rbt.Parameter_File>
/export/apps/rDock/src/rDock_2013.1_src/data/scripts/dock_solv.prm

>  <Rbt.Receptor>
prm/pocket_docking_3.prm

>  <SCORE>
-10.4234

>  <SCORE.INTER>
-10.4234

>  <SCORE.INTER.CONST>
1

>  <SCORE.INTER.POLAR>
0

>  <SCORE.INTER.ROT>
0

>  <SCORE.INTER.SOLV>
18.1729

>  <SCORE.INTER.VDW>
-16.6066

>  <SCORE.INTER.norm>
-0.947586

>  <SCORE.INTRA>
0

>  <SCORE.INTRA.DIHEDRAL>
0

>  <SCORE.INTRA.DIHEDRAL.0>
0

>  <SCORE.INTRA.POLAR>
0

>  <SCORE.INTRA.POLAR.0>
0

>  <SCORE.INTRA.REPUL>
0

>  <SCORE.INTRA.REPUL.0>
0

>  <SCORE.INTRA.SOLV>
0

>  <SCORE.INTRA.SOLV.lig_0>
-48.3454

>  <SCORE.INTRA.VDW>
0

>  <SCORE.INTRA.VDW.0>
0

>  <SCORE.INTRA.norm>
0

>  <SCORE.RESTR>
0

>  <SCORE.RESTR.CAVITY>
0

>  <SCORE.RESTR.norm>
0

>  <SCORE.SYSTEM>
0

>  <SCORE.SYSTEM.CONST>
0

>  <SCORE.SYSTEM.DIHEDRAL>
0

>  <SCORE.SYSTEM.SOLV>
0

>  <SCORE.SYSTEM.norm>
0

>  <SCORE.heavy>
11

>  <SCORE.norm>
-0.947586

>  <RMSD>
3.350

$$$$
ligand
 OpenBabel01301917033D
libRbt.so/2013.1/901 2013/11/27
 11 12  0  0  0  0  0  0  0  0999 V2000
  -11.7185  -12.4447    6.2356 N   0  0  0  0  0  0  0  0  0  0  0  0
  -10.9133  -13.5102    6.0972 C   0  0  0  0  0  0  0  0  0  0  0  0
  -10.3654  -13.7747    4.9145 N   0  0  0  0  0  0  0  0  0  0  0  0
  -10.6643  -14.3175    7.1399 N   0  0  0  0  0  0  0  0  0  0  0  0
  -11.2165  -14.0780    8.3385 C   0  0  0  0  0  0  0  0  0  0  0  0
  -12.0534  -12.9824    8.5090 C   0  0  0  0  0  0  0  0  0  0  0  0
  -12.2943  -12.1590    7.4141 C   0  0  0  0  0  0  0  0  0  0  0  0
  -13.0813  -11.0941    7.5352 N   0  0  0  0  0  0  0  0  0  0  0  0
  -12.4692  -12.9892    9.7719 N   0  0  0  0  0  0  0  0  0  0  0  0
  -11.9213  -14.0416   10.3755 C   0  0  0  0  0  0  0  0  0  0  0  0
  -11.1592  -14.7060    9.5093 N   0  0  0  0  0  0  0  0  0  0  0  0
  1  7  2  0  0  0  0
  1  2  1  0  0  0  0
  2  3  1  0  0  0  0
  2  4  2  0  0  0  0
  4  5  1  0  0  0  0
  5  6  2  0  0  0  0
  5 11  1  0  0  0  0
  6  7  1  0  0  0  0
  6  9  1  0  0  0  0
  7  8  1  0  0  0  0
  9 10  1  0  0  0  0
 10 11  2  0  0  0  0
M  END
>  <CHROM.1>
-11.61942451,-13.27654954,7.77993708,1.17508738,0.91010895,-1.14670422

>  <Name>
ligand

>  <RI>
0

>  <Rbt.Current_Directory>
/home/itssahil/PROJECTS/Mol_Feturizer/New_Systems/rnas/2b57

>  <Rbt.Executable>
rbdock ($Id: //depot/dev/client3/rdock/2013.1/src/exe/rbdock.cxx#4 $)

>  <Rbt.Library>
libRbt.so (2013.1, Build901 2013/11/27)

>  <Rbt.Parameter_File>
/export/apps/rDock/src/rDock_2013.1_src/data/scripts/dock_solv.prm

>  <Rbt.Receptor>
prm/pocket_docking_4.prm

>  <SCORE>
-10.4259

>  <SCORE.INTER>
-10.4259

>  <SCORE.INTER.CONST>
1

>  <SCORE.INTER.POLAR>
0

>  <SCORE.INTER.ROT>
0

>  <SCORE.INTER.SOLV>
18.1694

>  <SCORE.INTER.VDW>
-16.6071

>  <SCORE.INTER.norm>
-0.947812

>  <SCORE.INTRA>
0

>  <SCORE.INTRA.DIHEDRAL>
0

>  <SCORE.INTRA.DIHEDRAL.0>
0

>  <SCORE.INTRA.POLAR>
0

>  <SCORE.INTRA.POLAR.0>
0

>  <SCORE.INTRA.REPUL>
0

>  <SCORE.INTRA.REPUL.0>
0

>  <SCORE.INTRA.SOLV>
0

>  <SCORE.INTRA.SOLV.lig_0>
-48.3454

>  <SCORE.INTRA.VDW>
0

>  <SCORE.INTRA.VDW.0>
0

>  <SCORE.INTRA.norm>
0

>  <SCORE.RESTR>
0

>  <SCORE.RESTR.CAVITY>
0

>  <SCORE.RESTR.norm>
0

>  <SCORE.SYSTEM>
0

>  <SCORE.SYSTEM.CONST>
0

>  <SCORE.SYSTEM.DIHEDRAL>
0

>  <SCORE.SYSTEM.SOLV>
0

>  <SCORE.SYSTEM.norm>
0

>  <SCORE.heavy>
11

>  <SCORE.norm>
-0.947812

>  <RMSD>
3.350

$$$$
ligand
 OpenBabel01301917033D
libRbt.so/2013.1/901 2013/11/27
 11 12  0  0  0  0  0  0  0  0999 V2000
  -11.7274  -12.4466    6.2366 N   0  0  0  0  0  0  0  0  0  0  0  0
  -10.9234  -13.5128    6.0965 C   0  0  0  0  0  0  0  0  0  0  0  0
  -10.3790  -13.7784    4.9124 N   0  0  0  0  0  0  0  0  0  0  0  0
  -10.6721  -14.3198    7.1390 N   0  0  0  0  0  0  0  0  0  0  0  0
  -11.2208  -14.0792    8.3389 C   0  0  0  0  0  0  0  0  0  0  0  0
  -12.0563  -12.9829    8.5112 C   0  0  0  0  0  0  0  0  0  0  0  0
  -12.2997  -12.1599    7.4166 C   0  0  0  0  0  0  0  0  0  0  0  0
  -13.0855  -11.0943    7.5393 N   0  0  0  0  0  0  0  0  0  0  0  0
  -12.4685  -12.9887    9.7753 N   0  0  0  0  0  0  0  0  0  0  0  0
  -11.9198  -14.0412   10.3779 C   0  0  0  0  0  0  0  0  0  0  0  0
  -11.1606  -14.7067    9.5099 N   0  0  0  0  0  0  0  0  0  0  0  0
  1  7  2  0  0  0  0
  1  2  1  0  0  0  0
  2  3  1  0  0  0  0
  2  4  2  0  0  0  0
  4  5  1  0  0  0  0
  5  6  2  0  0  0  0
  5 11  1  0  0  0  0
  6  7  1  0  0  0  0
  6  9  1  0  0  0  0
  7  8  1  0  0  0  0
  9 10  1  0  0  0  0
 10 11  2  0  0  0  0
M  END
>  <CHROM.1>
-11.62463069,-13.27774632,7.78109600,1.17875149,0.91196622,-1.15012870

>  <Name>
ligand

>  <RI>
0

>  <Rbt.Current_Directory>
/home/itssahil/PROJECTS/Mol_Feturizer/New_Systems/rnas/2b57

>  <Rbt.Executable>
rbdock ($Id: //depot/dev/client3/rdock/2013.1/src/exe/rbdock.cxx#4 $)

>  <Rbt.Library>
libRbt.so (2013.1, Build901 2013/11/27)

>  <Rbt.Parameter_File>
/export/apps/rDock/src/rDock_2013.1_src/data/scripts/dock_solv.prm

>  <Rbt.Receptor>
prm/pocket_docking_6.prm

>  <SCORE>
-10.4198

>  <SCORE.INTER>
-10.4198

>  <SCORE.INTER.CONST>
1

>  <SCORE.INTER.POLAR>
0

>  <SCORE.INTER.ROT>
0

>  <SCORE.INTER.SOLV>
18.2008

>  <SCORE.INTER.VDW>
-16.6134

>  <SCORE.INTER.norm>
-0.94725

>  <SCORE.INTRA>
0

>  <SCORE.INTRA.DIHEDRAL>
0

>  <SCORE.INTRA.DIHEDRAL.0>
0

>  <SCORE.INTRA.POLAR>
0

>  <SCORE.INTRA.POLAR.0>
0

>  <SCORE.INTRA.REPUL>
0

>  <SCORE.INTRA.REPUL.0>
0

>  <SCORE.INTRA.SOLV>
0

>  <SCORE.INTRA.SOLV.lig_0>
-48.3454

>  <SCORE.INTRA.VDW>
0

>  <SCORE.INTRA.VDW.0>
0

>  <SCORE.INTRA.norm>
0

>  <SCORE.RESTR>
0

>  <SCORE.RESTR.CAVITY>
0

>  <SCORE.RESTR.norm>
0

>  <SCORE.SYSTEM>
0

>  <SCORE.SYSTEM.CONST>
0

>  <SCORE.SYSTEM.DIHEDRAL>
0

>  <SCORE.SYSTEM.SOLV>
0

>  <SCORE.SYSTEM.norm>
0

>  <SCORE.heavy>
11

>  <SCORE.norm>
-0.94725

>  <RMSD>
3.350

$$$$
ligand
 OpenBabel01301917033D
libRbt.so/2013.1/901 2013/11/27
 11 12  0  0  0  0  0  0  0  0999 V2000
  -11.7172  -12.4455    6.2293 N   0  0  0  0  0  0  0  0  0  0  0  0
  -10.9106  -13.5102    6.0931 C   0  0  0  0  0  0  0  0  0  0  0  0
  -10.3614  -13.7758    4.9112 N   0  0  0  0  0  0  0  0  0  0  0  0
  -10.6612  -14.3156    7.1373 N   0  0  0  0  0  0  0  0  0  0  0  0
  -11.2146  -14.0749    8.3351 C   0  0  0  0  0  0  0  0  0  0  0  0
  -12.0531  -12.9803    8.5032 C   0  0  0  0  0  0  0  0  0  0  0  0
  -12.2943  -12.1588    7.4070 C   0  0  0  0  0  0  0  0  0  0  0  0
  -13.0829  -11.0948    7.5258 N   0  0  0  0  0  0  0  0  0  0  0  0
  -12.4698  -12.9856    9.7659 N   0  0  0  0  0  0  0  0  0  0  0  0
  -11.9209  -14.0364   10.3715 C   0  0  0  0  0  0  0  0  0  0  0  0
  -11.1573  -14.7011    9.5069 N   0  0  0  0  0  0  0  0  0  0  0  0
  1  7  2  0  0  0  0
  1  2  1  0  0  0  0
  2  3  1  0  0  0  0
  2  4  2  0  0  0  0
  4  5  1  0  0  0  0
  5  6  2  0  0  0  0
  5 11  1  0  0  0  0
  6  7  1  0  0  0  0
  6  9  1  0  0  0  0
  7  8  1  0  0  0  0
  9 10  1  0  0  0  0
 10 11  2  0  0  0  0
M  END
>  <CHROM.1>
-11.61818542,-13.27491396,7.77499219,1.17490577,0.90858269,-1.14808933

>  <Name>
ligand

>  <RI>
0

>  <Rbt.Current_Directory>
/home/itssahil/PROJECTS/Mol_Feturizer/New_Systems/rnas/2b57

>  <Rbt.Executable>
rbdock ($Id: //depot/dev/client3/rdock/2013.1/src/exe/rbdock.cxx#4 $)

>  <Rbt.Library>
libRbt.so (2013.1, Build901 2013/11/27)

>  <Rbt.Parameter_File>
/export/apps/rDock/src/rDock_2013.1_src/data/scripts/dock_solv.prm

>  <Rbt.Receptor>
prm/pocket_docking_7.prm

>  <SCORE>
-10.4256

>  <SCORE.INTER>
-10.4256

>  <SCORE.INTER.CONST>
1

>  <SCORE.INTER.POLAR>
0

>  <SCORE.INTER.ROT>
0

>  <SCORE.INTER.SOLV>
18.1774

>  <SCORE.INTER.VDW>
-16.6095

>  <SCORE.INTER.norm>
-0.94778

>  <SCORE.INTRA>
0

>  <SCORE.INTRA.DIHEDRAL>
0

>  <SCORE.INTRA.DIHEDRAL.0>
0

>  <SCORE.INTRA.POLAR>
0

>  <SCORE.INTRA.POLAR.0>
0

>  <SCORE.INTRA.REPUL>
0

>  <SCORE.INTRA.REPUL.0>
0

>  <SCORE.INTRA.SOLV>
0

>  <SCORE.INTRA.SOLV.lig_0>
-48.3454

>  <SCORE.INTRA.VDW>
0

>  <SCORE.INTRA.VDW.0>
0

>  <SCORE.INTRA.norm>
0

>  <SCORE.RESTR>
0

>  <SCORE.RESTR.CAVITY>
0

>  <SCORE.RESTR.norm>
0

>  <SCORE.SYSTEM>
0

>  <SCORE.SYSTEM.CONST>
0

>  <SCORE.SYSTEM.DIHEDRAL>
0

>  <SCORE.SYSTEM.SOLV>
0

>  <SCORE.SYSTEM.norm>
0

>  <SCORE.heavy>
11

>  <SCORE.norm>
-0.94778

>  <RMSD>
3.350

$$$$
ligand
 OpenBabel01301917033D
libRbt.so/2013.1/901 2013/11/27
 11 12  0  0  0  0  0  0  0  0999 V2000
  -11.5823  -11.5583    6.8031 N   0  0  0  0  0  0  0  0  0  0  0  0
  -12.0765  -10.8427    7.8261 C   0  0  0  0  0  0  0  0  0  0  0  0
  -12.3630   -9.5554    7.6540 N   0  0  0  0  0  0  0  0  0  0  0  0
  -12.2746  -11.4127    9.0248 N   0  0  0  0  0  0  0  0  0  0  0  0
  -11.9803  -12.7058    9.2252 C   0  0  0  0  0  0  0  0  0  0  0  0
  -11.4676  -13.4688    8.1837 C   0  0  0  0  0  0  0  0  0  0  0  0
  -11.2735  -12.8564    6.9500 C   0  0  0  0  0  0  0  0  0  0  0  0
  -10.7940  -13.5519    5.9231 N   0  0  0  0  0  0  0  0  0  0  0  0
  -11.2542  -14.6944    8.6530 N   0  0  0  0  0  0  0  0  0  0  0  0
  -11.6146  -14.7084    9.9343 C   0  0  0  0  0  0  0  0  0  0  0  0
  -12.0568  -13.5031   10.2868 N   0  0  0  0  0  0  0  0  0  0  0  0
  1  7  2  0  0  0  0
  1  2  1  0  0  0  0
  2  3  1  0  0  0  0
  2  4  2  0  0  0  0
  4  5  1  0  0  0  0
  5  6  2  0  0  0  0
  5 11  1  0  0  0  0
  6  7  1  0  0  0  0
  6  9  1  0  0  0  0
  7  8  1  0  0  0  0
  9 10  1  0  0  0  0
 10 11  2  0  0  0  0
M  END
>  <CHROM.1>
-11.70484808,-12.60314538,8.21016749,-1.87006645,-1.19368807,2.38242311

>  <Name>
ligand

>  <RI>
0

>  <Rbt.Current_Directory>
/home/itssahil/PROJECTS/Mol_Feturizer/New_Systems/rnas/2b57

>  <Rbt.Executable>
rbdock ($Id: //depot/dev/client3/rdock/2013.1/src/exe/rbdock.cxx#4 $)

>  <Rbt.Library>
libRbt.so (2013.1, Build901 2013/11/27)

>  <Rbt.Parameter_File>
/export/apps/rDock/src/rDock_2013.1_src/data/scripts/dock_solv.prm

>  <Rbt.Receptor>
prm/pocket_docking_7.prm

>  <SCORE>
-9.58965

>  <SCORE.INTER>
-9.58965

>  <SCORE.INTER.CONST>
1

>  <SCORE.INTER.POLAR>
0

>  <SCORE.INTER.ROT>
0

>  <SCORE.INTER.SOLV>
17.9696

>  <SCORE.INTER.VDW>
-15.983

>  <SCORE.INTER.norm>
-0.871786

>  <SCORE.INTRA>
0

>  <SCORE.INTRA.DIHEDRAL>
0

>  <SCORE.INTRA.DIHEDRAL.0>
0

>  <SCORE.INTRA.POLAR>
0

>  <SCORE.INTRA.POLAR.0>
0

>  <SCORE.INTRA.REPUL>
0

>  <SCORE.INTRA.REPUL.0>
0

>  <SCORE.INTRA.SOLV>
0

>  <SCORE.INTRA.SOLV.lig_0>
-48.3454

>  <SCORE.INTRA.VDW>
0

>  <SCORE.INTRA.VDW.0>
0

>  <SCORE.INTRA.norm>
0

>  <SCORE.RESTR>
0

>  <SCORE.RESTR.CAVITY>
0

>  <SCORE.RESTR.norm>
0

>  <SCORE.SYSTEM>
0

>  <SCORE.SYSTEM.CONST>
0

>  <SCORE.SYSTEM.DIHEDRAL>
0

>  <SCORE.SYSTEM.SOLV>
0

>  <SCORE.SYSTEM.norm>
0

>  <SCORE.heavy>
11

>  <SCORE.norm>
-0.871786

>  <RMSD>
3.705

$$$$
ligand
 OpenBabel01301917033D
libRbt.so/2013.1/901 2013/11/27
 11 12  0  0  0  0  0  0  0  0999 V2000
  -11.9609  -11.6030    6.8647 N   0  0  0  0  0  0  0  0  0  0  0  0
  -12.6515  -10.9965    7.8435 C   0  0  0  0  0  0  0  0  0  0  0  0
  -13.1552   -9.7822    7.6417 N   0  0  0  0  0  0  0  0  0  0  0  0
  -12.8297  -11.6007    9.0285 N   0  0  0  0  0  0  0  0  0  0  0  0
  -12.3194  -12.8195    9.2592 C   0  0  0  0  0  0  0  0  0  0  0  0
  -11.6006  -13.4691    8.2637 C   0  0  0  0  0  0  0  0  0  0  0  0
  -11.4317  -12.8236    7.0432 C   0  0  0  0  0  0  0  0  0  0  0  0
  -10.7588  -13.4131    6.0594 N   0  0  0  0  0  0  0  0  0  0  0  0
  -11.2018  -14.6381    8.7561 N   0  0  0  0  0  0  0  0  0  0  0  0
  -11.6468  -14.7260   10.0076 C   0  0  0  0  0  0  0  0  0  0  0  0
  -12.3266  -13.6242   10.3180 N   0  0  0  0  0  0  0  0  0  0  0  0
  1  7  2  0  0  0  0
  1  2  1  0  0  0  0
  2  3  1  0  0  0  0
  2  4  2  0  0  0  0
  4  5  1  0  0  0  0
  5  6  2  0  0  0  0
  5 11  1  0  0  0  0
  6  7  1  0  0  0  0
  6  9  1  0  0  0  0
  7  8  1  0  0  0  0
  9 10  1  0  0  0  0
 10 11  2  0  0  0  0
M  END
>  <CHROM.1>
-11.99347351,-12.66167802,8.26644372,-2.02431384,-1.00749466,2.24390817

>  <Name>
ligand

>  <RI>
0

>  <Rbt.Current_Directory>
/home/itssahil/PROJECTS/Mol_Feturizer/New_Systems/rnas/2b57

>  <Rbt.Executable>
rbdock ($Id: //depot/dev/client3/rdock/2013.1/src/exe/rbdock.cxx#4 $)

>  <Rbt.Library>
libRbt.so (2013.1, Build901 2013/11/27)

>  <Rbt.Parameter_File>
/export/apps/rDock/src/rDock_2013.1_src/data/scripts/dock_solv.prm

>  <Rbt.Receptor>
prm/pocket_docking_7.prm

>  <SCORE>
-9.54481

>  <SCORE.INTER>
-9.54481

>  <SCORE.INTER.CONST>
1

>  <SCORE.INTER.POLAR>
0

>  <SCORE.INTER.ROT>
0

>  <SCORE.INTER.SOLV>
15.4405

>  <SCORE.INTER.VDW>
-15.11

>  <SCORE.INTER.norm>
-0.86771

>  <SCORE.INTRA>
0

>  <SCORE.INTRA.DIHEDRAL>
0

>  <SCORE.INTRA.DIHEDRAL.0>
0

>  <SCORE.INTRA.POLAR>
0

>  <SCORE.INTRA.POLAR.0>
0

>  <SCORE.INTRA.REPUL>
0

>  <SCORE.INTRA.REPUL.0>
0

>  <SCORE.INTRA.SOLV>
0

>  <SCORE.INTRA.SOLV.lig_0>
-48.3454

>  <SCORE.INTRA.VDW>
0

>  <SCORE.INTRA.VDW.0>
0

>  <SCORE.INTRA.norm>
0

>  <SCORE.RESTR>
0

>  <SCORE.RESTR.CAVITY>
0

>  <SCORE.RESTR.norm>
0

>  <SCORE.SYSTEM>
0

>  <SCORE.SYSTEM.CONST>
0

>  <SCORE.SYSTEM.DIHEDRAL>
0

>  <SCORE.SYSTEM.SOLV>
0

>  <SCORE.SYSTEM.norm>
0

>  <SCORE.heavy>
11

>  <SCORE.norm>
-0.86771

>  <RMSD>
3.706

$$$$
ligand
 OpenBabel01301917033D
libRbt.so/2013.1/901 2013/11/27
 11 12  0  0  0  0  0  0  0  0999 V2000
  -11.6055  -11.6043    6.7801 N   0  0  0  0  0  0  0  0  0  0  0  0
  -12.0671  -10.8685    7.8039 C   0  0  0  0  0  0  0  0  0  0  0  0
  -12.3353   -9.5785    7.6221 N   0  0  0  0  0  0  0  0  0  0  0  0
  -12.2510  -11.4208    9.0132 N   0  0  0  0  0  0  0  0  0  0  0  0
  -11.9746  -12.7164    9.2232 C   0  0  0  0  0  0  0  0  0  0  0  0
  -11.4956  -13.5002    8.1811 C   0  0  0  0  0  0  0  0  0  0  0  0
  -11.3158  -12.9056    6.9366 C   0  0  0  0  0  0  0  0  0  0  0  0
  -10.8685  -13.6212    5.9090 N   0  0  0  0  0  0  0  0  0  0  0  0
  -11.2936  -14.7237    8.6609 N   0  0  0  0  0  0  0  0  0  0  0  0
  -11.6287  -14.7165    9.9491 C   0  0  0  0  0  0  0  0  0  0  0  0
  -12.0434  -13.4998   10.2957 N   0  0  0  0  0  0  0  0  0  0  0  0
  1  7  2  0  0  0  0
  1  2  1  0  0  0  0
  2  3  1  0  0  0  0
  2  4  2  0  0  0  0
  4  5  1  0  0  0  0
  5  6  2  0  0  0  0
  5 11  1  0  0  0  0
  6  7  1  0  0  0  0
  6  9  1  0  0  0  0
  7  8  1  0  0  0  0
  9 10  1  0  0  0  0
 10 11  2  0  0  0  0
M  END
>  <CHROM.1>
-11.71766300,-12.63034441,8.20184607,-1.87425351,-1.21968921,2.36662551

>  <Name>
ligand

>  <RI>
0

>  <Rbt.Current_Directory>
/home/itssahil/PROJECTS/Mol_Feturizer/New_Systems/rnas/2b57

>  <Rbt.Executable>
rbdock ($Id: //depot/dev/client3/rdock/2013.1/src/exe/rbdock.cxx#4 $)

>  <Rbt.Library>
libRbt.so (2013.1, Build901 2013/11/27)

>  <Rbt.Parameter_File>
/export/apps/rDock/src/rDock_2013.1_src/data/scripts/dock_solv.prm

>  <Rbt.Receptor>
prm/pocket_docking_5.prm

>  <SCORE>
-9.57591

>  <SCORE.INTER>
-9.57591

>  <SCORE.INTER.CONST>
1

>  <SCORE.INTER.POLAR>
0

>  <SCORE.INTER.ROT>
0

>  <SCORE.INTER.SOLV>
18.1967

>  <SCORE.INTER.VDW>
-16.0495

>  <SCORE.INTER.norm>
-0.870537

>  <SCORE.INTRA>
0

>  <SCORE.INTRA.DIHEDRAL>
0

>  <SCORE.INTRA.DIHEDRAL.0>
0

>  <SCORE.INTRA.POLAR>
0

>  <SCORE.INTRA.POLAR.0>
0

>  <SCORE.INTRA.REPUL>
0

>  <SCORE.INTRA.REPUL.0>
0

>  <SCORE.INTRA.SOLV>
0

>  <SCORE.INTRA.SOLV.lig_0>
-48.3454

>  <SCORE.INTRA.VDW>
0

>  <SCORE.INTRA.VDW.0>
0

>  <SCORE.INTRA.norm>
0

>  <SCORE.RESTR>
0

>  <SCORE.RESTR.CAVITY>
0

>  <SCORE.RESTR.norm>
0

>  <SCORE.SYSTEM>
0

>  <SCORE.SYSTEM.CONST>
0

>  <SCORE.SYSTEM.DIHEDRAL>
0

>  <SCORE.SYSTEM.SOLV>
0

>  <SCORE.SYSTEM.norm>
0

>  <SCORE.heavy>
11

>  <SCORE.norm>
-0.870537

>  <RMSD>
3.710

$$$$
ligand
 OpenBabel01301917033D
libRbt.so/2013.1/901 2013/11/27
 11 12  0  0  0  0  0  0  0  0999 V2000
  -11.9600  -11.5975    6.8550 N   0  0  0  0  0  0  0  0  0  0  0  0
  -12.6497  -10.9859    7.8312 C   0  0  0  0  0  0  0  0  0  0  0  0
  -13.1487   -9.7703    7.6253 N   0  0  0  0  0  0  0  0  0  0  0  0
  -12.8316  -11.5862    9.0176 N   0  0  0  0  0  0  0  0  0  0  0  0
  -12.3261  -12.8062    9.2523 C   0  0  0  0  0  0  0  0  0  0  0  0
  -11.6084  -13.4612    8.2595 C   0  0  0  0  0  0  0  0  0  0  0  0
  -11.4354  -12.8196    7.0376 C   0  0  0  0  0  0  0  0  0  0  0  0
  -10.7633  -13.4142    6.0563 N   0  0  0  0  0  0  0  0  0  0  0  0
  -11.2144  -14.6302    8.7557 N   0  0  0  0  0  0  0  0  0  0  0  0
  -11.6615  -14.7131   10.0068 C   0  0  0  0  0  0  0  0  0  0  0  0
  -12.3377  -13.6079   10.3133 N   0  0  0  0  0  0  0  0  0  0  0  0
  1  7  2  0  0  0  0
  1  2  1  0  0  0  0
  2  3  1  0  0  0  0
  2  4  2  0  0  0  0
  4  5  1  0  0  0  0
  5  6  2  0  0  0  0
  5 11  1  0  0  0  0
  6  7  1  0  0  0  0
  6  9  1  0  0  0  0
  7  8  1  0  0  0  0
  9 10  1  0  0  0  0
 10 11  2  0  0  0  0
M  END
>  <CHROM.1>
-11.99826797,-12.65228480,8.25957228,-2.01805805,-1.00946660,2.24645399

>  <Name>
ligand

>  <RI>
0

>  <Rbt.Current_Directory>
/home/itssahil/PROJECTS/Mol_Feturizer/New_Systems/rnas/2b57

>  <Rbt.Executable>
rbdock ($Id: //depot/dev/client3/rdock/2013.1/src/exe/rbdock.cxx#4 $)

>  <Rbt.Library>
libRbt.so (2013.1, Build901 2013/11/27)

>  <Rbt.Parameter_File>
/export/apps/rDock/src/rDock_2013.1_src/data/scripts/dock_solv.prm

>  <Rbt.Receptor>
prm/pocket_docking_7.prm

>  <SCORE>
-9.53582

>  <SCORE.INTER>
-9.53582

>  <SCORE.INTER.CONST>
1

>  <SCORE.INTER.POLAR>
0

>  <SCORE.INTER.ROT>
0

>  <SCORE.INTER.SOLV>
15.4787

>  <SCORE.INTER.VDW>
-15.1168

>  <SCORE.INTER.norm>
-0.866892

>  <SCORE.INTRA>
0

>  <SCORE.INTRA.DIHEDRAL>
0

>  <SCORE.INTRA.DIHEDRAL.0>
0

>  <SCORE.INTRA.POLAR>
0

>  <SCORE.INTRA.POLAR.0>
0

>  <SCORE.INTRA.REPUL>
0

>  <SCORE.INTRA.REPUL.0>
0

>  <SCORE.INTRA.SOLV>
0

>  <SCORE.INTRA.SOLV.lig_0>
-48.3454

>  <SCORE.INTRA.VDW>
0

>  <SCORE.INTRA.VDW.0>
0

>  <SCORE.INTRA.norm>
0

>  <SCORE.RESTR>
0

>  <SCORE.RESTR.CAVITY>
0

>  <SCORE.RESTR.norm>
0

>  <SCORE.SYSTEM>
0

>  <SCORE.SYSTEM.CONST>
0

>  <SCORE.SYSTEM.DIHEDRAL>
0

>  <SCORE.SYSTEM.SOLV>
0

>  <SCORE.SYSTEM.norm>
0

>  <SCORE.heavy>
11

>  <SCORE.norm>
-0.866892

>  <RMSD>
3.711

$$$$
ligand
 OpenBabel01301917033D
libRbt.so/2013.1/901 2013/11/27
 11 12  0  0  0  0  0  0  0  0999 V2000
  -11.6174  -11.5976    6.7834 N   0  0  0  0  0  0  0  0  0  0  0  0
  -12.0661  -10.8588    7.8108 C   0  0  0  0  0  0  0  0  0  0  0  0
  -12.3409   -9.5704    7.6274 N   0  0  0  0  0  0  0  0  0  0  0  0
  -12.2301  -11.4064    9.0250 N   0  0  0  0  0  0  0  0  0  0  0  0
  -11.9465  -12.7001    9.2366 C   0  0  0  0  0  0  0  0  0  0  0  0
  -11.4807  -13.4870    8.1908 C   0  0  0  0  0  0  0  0  0  0  0  0
  -11.3213  -12.8974    6.9412 C   0  0  0  0  0  0  0  0  0  0  0  0
  -10.8872  -13.6161    5.9101 N   0  0  0  0  0  0  0  0  0  0  0  0
  -11.2677  -14.7078    8.6728 N   0  0  0  0  0  0  0  0  0  0  0  0
  -11.5835  -14.6960    9.9659 C   0  0  0  0  0  0  0  0  0  0  0  0
  -11.9968  -13.4791   10.3133 N   0  0  0  0  0  0  0  0  0  0  0  0
  1  7  2  0  0  0  0
  1  2  1  0  0  0  0
  2  3  1  0  0  0  0
  2  4  2  0  0  0  0
  4  5  1  0  0  0  0
  5  6  2  0  0  0  0
  5 11  1  0  0  0  0
  6  7  1  0  0  0  0
  6  9  1  0  0  0  0
  7  8  1  0  0  0  0
  9 10  1  0  0  0  0
 10 11  2  0  0  0  0
M  END
>  <CHROM.1>
-11.70512684,-12.61779693,8.21108661,-1.91205403,-1.22792745,2.32671526

>  <Name>
ligand

>  <RI>
0

>  <Rbt.Current_Directory>
/home/itssahil/PROJECTS/Mol_Feturizer/New_Systems/rnas/2b57

>  <Rbt.Executable>
rbdock ($Id: //depot/dev/client3/rdock/2013.1/src/exe/rbdock.cxx#4 $)

>  <Rbt.Library>
libRbt.so (2013.1, Build901 2013/11/27)

>  <Rbt.Parameter_File>
/export/apps/rDock/src/rDock_2013.1_src/data/scripts/dock_solv.prm

>  <Rbt.Receptor>
prm/blind_docking_40.prm

>  <SCORE>
-9.59551

>  <SCORE.INTER>
-9.59551

>  <SCORE.INTER.CONST>
1

>  <SCORE.INTER.POLAR>
0

>  <SCORE.INTER.ROT>
0

>  <SCORE.INTER.SOLV>
18.2283

>  <SCORE.INTER.VDW>
-16.0731

>  <SCORE.INTER.norm>
-0.872319

>  <SCORE.INTRA>
0

>  <SCORE.INTRA.DIHEDRAL>
0

>  <SCORE.INTRA.DIHEDRAL.0>
0

>  <SCORE.INTRA.POLAR>
0

>  <SCORE.INTRA.POLAR.0>
0

>  <SCORE.INTRA.REPUL>
0

>  <SCORE.INTRA.REPUL.0>
0

>  <SCORE.INTRA.SOLV>
0

>  <SCORE.INTRA.SOLV.lig_0>
-48.3454

>  <SCORE.INTRA.VDW>
0

>  <SCORE.INTRA.VDW.0>
0

>  <SCORE.INTRA.norm>
0

>  <SCORE.RESTR>
0

>  <SCORE.RESTR.CAVITY>
0

>  <SCORE.RESTR.norm>
0

>  <SCORE.SYSTEM>
0

>  <SCORE.SYSTEM.CONST>
0

>  <SCORE.SYSTEM.DIHEDRAL>
0

>  <SCORE.SYSTEM.SOLV>
0

>  <SCORE.SYSTEM.norm>
0

>  <SCORE.heavy>
11

>  <SCORE.norm>
-0.872319

>  <RMSD>
3.712

$$$$
ligand
 OpenBabel01301917033D
libRbt.so/2013.1/901 2013/11/27
 11 12  0  0  0  0  0  0  0  0999 V2000
  -11.6337  -11.6071    6.7712 N   0  0  0  0  0  0  0  0  0  0  0  0
  -12.0895  -10.8691    7.7961 C   0  0  0  0  0  0  0  0  0  0  0  0
  -12.3814   -9.5854    7.6071 N   0  0  0  0  0  0  0  0  0  0  0  0
  -12.2437  -11.4130    9.0133 N   0  0  0  0  0  0  0  0  0  0  0  0
  -11.9429  -12.7019    9.2304 C   0  0  0  0  0  0  0  0  0  0  0  0
  -11.4694  -13.4878    8.1874 C   0  0  0  0  0  0  0  0  0  0  0  0
  -11.3205  -12.9022    6.9345 C   0  0  0  0  0  0  0  0  0  0  0  0
  -10.8794  -13.6202    5.9059 N   0  0  0  0  0  0  0  0  0  0  0  0
  -11.2396  -14.7034    8.6747 N   0  0  0  0  0  0  0  0  0  0  0  0
  -11.5527  -14.6894    9.9685 C   0  0  0  0  0  0  0  0  0  0  0  0
  -11.9808  -13.4762   10.3110 N   0  0  0  0  0  0  0  0  0  0  0  0
  1  7  2  0  0  0  0
  1  2  1  0  0  0  0
  2  3  1  0  0  0  0
  2  4  2  0  0  0  0
  4  5  1  0  0  0  0
  5  6  2  0  0  0  0
  5 11  1  0  0  0  0
  6  7  1  0  0  0  0
  6  9  1  0  0  0  0
  7  8  1  0  0  0  0
  9 10  1  0  0  0  0
 10 11  2  0  0  0  0
M  END
>  <CHROM.1>
-11.70498524,-12.62142035,8.20397233,-1.94255030,-1.21993255,2.29321226

>  <Name>
ligand

>  <RI>
0

>  <Rbt.Current_Directory>
/home/itssahil/PROJECTS/Mol_Feturizer/New_Systems/rnas/2b57

>  <Rbt.Executable>
rbdock ($Id: //depot/dev/client3/rdock/2013.1/src/exe/rbdock.cxx#4 $)

>  <Rbt.Library>
libRbt.so (2013.1, Build901 2013/11/27)

>  <Rbt.Parameter_File>
/export/apps/rDock/src/rDock_2013.1_src/data/scripts/dock_solv.prm

>  <Rbt.Receptor>
prm/pocket_docking_5.prm

>  <SCORE>
-9.60863

>  <SCORE.INTER>
-9.60863

>  <SCORE.INTER.CONST>
1

>  <SCORE.INTER.POLAR>
0

>  <SCORE.INTER.ROT>
0

>  <SCORE.INTER.SOLV>
18.0895

>  <SCORE.INTER.VDW>
-16.0356

>  <SCORE.INTER.norm>
-0.873512

>  <SCORE.INTRA>
0

>  <SCORE.INTRA.DIHEDRAL>
0

>  <SCORE.INTRA.DIHEDRAL.0>
0

>  <SCORE.INTRA.POLAR>
0

>  <SCORE.INTRA.POLAR.0>
0

>  <SCORE.INTRA.REPUL>
0

>  <SCORE.INTRA.REPUL.0>
0

>  <SCORE.INTRA.SOLV>
0

>  <SCORE.INTRA.SOLV.lig_0>
-48.3454

>  <SCORE.INTRA.VDW>
0

>  <SCORE.INTRA.VDW.0>
0

>  <SCORE.INTRA.norm>
0

>  <SCORE.RESTR>
0

>  <SCORE.RESTR.CAVITY>
0

>  <SCORE.RESTR.norm>
0

>  <SCORE.SYSTEM>
0

>  <SCORE.SYSTEM.CONST>
0

>  <SCORE.SYSTEM.DIHEDRAL>
0

>  <SCORE.SYSTEM.SOLV>
0

>  <SCORE.SYSTEM.norm>
0

>  <SCORE.heavy>
11

>  <SCORE.norm>
-0.873512

>  <RMSD>
3.712

$$$$
ligand
 OpenBabel01301917033D
libRbt.so/2013.1/901 2013/11/27
 11 12  0  0  0  0  0  0  0  0999 V2000
  -12.0033  -11.6195    6.8859 N   0  0  0  0  0  0  0  0  0  0  0  0
  -12.7071  -11.0193    7.8591 C   0  0  0  0  0  0  0  0  0  0  0  0
  -13.2224   -9.8107    7.6522 N   0  0  0  0  0  0  0  0  0  0  0  0
  -12.8869  -11.6240    9.0437 N   0  0  0  0  0  0  0  0  0  0  0  0
  -12.3652  -12.8369    9.2794 C   0  0  0  0  0  0  0  0  0  0  0  0
  -11.6327  -13.4800    8.2897 C   0  0  0  0  0  0  0  0  0  0  0  0
  -11.4622  -12.8342    7.0696 C   0  0  0  0  0  0  0  0  0  0  0  0
  -10.7763  -13.4176    6.0912 N   0  0  0  0  0  0  0  0  0  0  0  0
  -11.2247  -14.6440    8.7864 N   0  0  0  0  0  0  0  0  0  0  0  0
  -11.6774  -14.7351   10.0349 C   0  0  0  0  0  0  0  0  0  0  0  0
  -12.3711  -13.6403   10.3392 N   0  0  0  0  0  0  0  0  0  0  0  0
  1  7  2  0  0  0  0
  1  2  1  0  0  0  0
  2  3  1  0  0  0  0
  2  4  2  0  0  0  0
  4  5  1  0  0  0  0
  5  6  2  0  0  0  0
  5 11  1  0  0  0  0
  6  7  1  0  0  0  0
  6  9  1  0  0  0  0
  7  8  1  0  0  0  0
  9 10  1  0  0  0  0
 10 11  2  0  0  0  0
M  END
>  <CHROM.1>
-12.03414330,-12.67680356,8.28873461,-2.02670314,-0.99479082,2.24061959

>  <Name>
ligand

>  <RI>
0

>  <Rbt.Current_Directory>
/home/itssahil/PROJECTS/Mol_Feturizer/New_Systems/rnas/2b57

>  <Rbt.Executable>
rbdock ($Id: //depot/dev/client3/rdock/2013.1/src/exe/rbdock.cxx#4 $)

>  <Rbt.Library>
libRbt.so (2013.1, Build901 2013/11/27)

>  <Rbt.Parameter_File>
/export/apps/rDock/src/rDock_2013.1_src/data/scripts/dock_solv.prm

>  <Rbt.Receptor>
prm/blind_docking_60.prm

>  <SCORE>
-9.52262

>  <SCORE.INTER>
-9.52262

>  <SCORE.INTER.CONST>
1

>  <SCORE.INTER.POLAR>
0

>  <SCORE.INTER.ROT>
0

>  <SCORE.INTER.SOLV>
15.2571

>  <SCORE.INTER.VDW>
-15.0341

>  <SCORE.INTER.norm>
-0.865693

>  <SCORE.INTRA>
0

>  <SCORE.INTRA.DIHEDRAL>
0

>  <SCORE.INTRA.DIHEDRAL.0>
0

>  <SCORE.INTRA.POLAR>
0

>  <SCORE.INTRA.POLAR.0>
0

>  <SCORE.INTRA.REPUL>
0

>  <SCORE.INTRA.REPUL.0>
0

>  <SCORE.INTRA.SOLV>
0

>  <SCORE.INTRA.SOLV.lig_0>
-48.3454

>  <SCORE.INTRA.VDW>
0

>  <SCORE.INTRA.VDW.0>
0

>  <SCORE.INTRA.norm>
0

>  <SCORE.RESTR>
0

>  <SCORE.RESTR.CAVITY>
0

>  <SCORE.RESTR.norm>
0

>  <SCORE.SYSTEM>
0

>  <SCORE.SYSTEM.CONST>
0

>  <SCORE.SYSTEM.DIHEDRAL>
0

>  <SCORE.SYSTEM.SOLV>
0

>  <SCORE.SYSTEM.norm>
0

>  <SCORE.heavy>
11

>  <SCORE.norm>
-0.865693

>  <RMSD>
3.713

$$$$
ligand
 OpenBabel01301917033D
libRbt.so/2013.1/901 2013/11/27
 11 12  0  0  0  0  0  0  0  0999 V2000
  -11.7538  -11.5492    6.8389 N   0  0  0  0  0  0  0  0  0  0  0  0
  -12.3369  -10.8748    7.8428 C   0  0  0  0  0  0  0  0  0  0  0  0
  -12.7320   -9.6191    7.6530 N   0  0  0  0  0  0  0  0  0  0  0  0
  -12.5155  -11.4533    9.0405 N   0  0  0  0  0  0  0  0  0  0  0  0
  -12.1128  -12.7138    9.2589 C   0  0  0  0  0  0  0  0  0  0  0  0
  -11.5066  -13.4341    8.2373 C   0  0  0  0  0  0  0  0  0  0  0  0
  -11.3349  -12.8138    7.0042 C   0  0  0  0  0  0  0  0  0  0  0  0
  -10.7681  -13.4697    5.9959 N   0  0  0  0  0  0  0  0  0  0  0  0
  -11.1977  -14.6331    8.7219 N   0  0  0  0  0  0  0  0  0  0  0  0
  -11.5896  -14.6719    9.9935 C   0  0  0  0  0  0  0  0  0  0  0  0
  -12.1464  -13.5088   10.3245 N   0  0  0  0  0  0  0  0  0  0  0  0
  1  7  2  0  0  0  0
  1  2  1  0  0  0  0
  2  3  1  0  0  0  0
  2  4  2  0  0  0  0
  4  5  1  0  0  0  0
  5  6  2  0  0  0  0
  5 11  1  0  0  0  0
  6  7  1  0  0  0  0
  6  9  1  0  0  0  0
  7  8  1  0  0  0  0
  9 10  1  0  0  0  0
 10 11  2  0  0  0  0
M  END
>  <CHROM.1>
-11.82053989,-12.59285858,8.25063289,-1.97413082,-1.11075178,2.28035854

>  <Name>
ligand

>  <RI>
0

>  <Rbt.Current_Directory>
/home/itssahil/PROJECTS/Mol_Feturizer/New_Systems/rnas/2b57

>  <Rbt.Executable>
rbdock ($Id: //depot/dev/client3/rdock/2013.1/src/exe/rbdock.cxx#4 $)

>  <Rbt.Library>
libRbt.so (2013.1, Build901 2013/11/27)

>  <Rbt.Parameter_File>
/export/apps/rDock/src/rDock_2013.1_src/data/scripts/dock_solv.prm

>  <Rbt.Receptor>
prm/blind_docking_60.prm

>  <SCORE>
-9.57123

>  <SCORE.INTER>
-9.57123

>  <SCORE.INTER.CONST>
1

>  <SCORE.INTER.POLAR>
0

>  <SCORE.INTER.ROT>
0

>  <SCORE.INTER.SOLV>
16.6313

>  <SCORE.INTER.VDW>
-15.5246

>  <SCORE.INTER.norm>
-0.870112

>  <SCORE.INTRA>
0

>  <SCORE.INTRA.DIHEDRAL>
0

>  <SCORE.INTRA.DIHEDRAL.0>
0

>  <SCORE.INTRA.POLAR>
0

>  <SCORE.INTRA.POLAR.0>
0

>  <SCORE.INTRA.REPUL>
0

>  <SCORE.INTRA.REPUL.0>
0

>  <SCORE.INTRA.SOLV>
0

>  <SCORE.INTRA.SOLV.lig_0>
-48.3454

>  <SCORE.INTRA.VDW>
0

>  <SCORE.INTRA.VDW.0>
0

>  <SCORE.INTRA.norm>
0

>  <SCORE.RESTR>
0

>  <SCORE.RESTR.CAVITY>
0

>  <SCORE.RESTR.norm>
0

>  <SCORE.SYSTEM>
0

>  <SCORE.SYSTEM.CONST>
0

>  <SCORE.SYSTEM.DIHEDRAL>
0

>  <SCORE.SYSTEM.SOLV>
0

>  <SCORE.SYSTEM.norm>
0

>  <SCORE.heavy>
11

>  <SCORE.norm>
-0.870112

>  <RMSD>
3.713

$$$$
ligand
 OpenBabel01301917033D
libRbt.so/2013.1/901 2013/11/27
 11 12  0  0  0  0  0  0  0  0999 V2000
  -11.6170  -11.6001    6.7869 N   0  0  0  0  0  0  0  0  0  0  0  0
  -12.0723  -10.8623    7.8121 C   0  0  0  0  0  0  0  0  0  0  0  0
  -12.3420   -9.5728    7.6292 N   0  0  0  0  0  0  0  0  0  0  0  0
  -12.2481  -11.4121    9.0237 N   0  0  0  0  0  0  0  0  0  0  0  0
  -11.9700  -12.7071    9.2347 C   0  0  0  0  0  0  0  0  0  0  0  0
  -11.4975  -13.4930    8.1913 C   0  0  0  0  0  0  0  0  0  0  0  0
  -11.3259  -12.9011    6.9443 C   0  0  0  0  0  0  0  0  0  0  0  0
  -10.8851  -13.6188    5.9153 N   0  0  0  0  0  0  0  0  0  0  0  0
  -11.2921  -14.7154    8.6723 N   0  0  0  0  0  0  0  0  0  0  0  0
  -11.6189  -14.7056    9.9627 C   0  0  0  0  0  0  0  0  0  0  0  0
  -12.0316  -13.4882   10.3093 N   0  0  0  0  0  0  0  0  0  0  0  0
  1  7  2  0  0  0  0
  1  2  1  0  0  0  0
  2  3  1  0  0  0  0
  2  4  2  0  0  0  0
  4  5  1  0  0  0  0
  5  6  2  0  0  0  0
  5 11  1  0  0  0  0
  6  7  1  0  0  0  0
  6  9  1  0  0  0  0
  7  8  1  0  0  0  0
  9 10  1  0  0  0  0
 10 11  2  0  0  0  0
M  END
>  <CHROM.1>
-11.71970121,-12.62318413,8.21151939,-1.88819032,-1.22406790,2.35138249

>  <Name>
ligand

>  <RI>
0

>  <Rbt.Current_Directory>
/home/itssahil/PROJECTS/Mol_Feturizer/New_Systems/rnas/2b57

>  <Rbt.Executable>
rbdock ($Id: //depot/dev/client3/rdock/2013.1/src/exe/rbdock.cxx#4 $)

>  <Rbt.Library>
libRbt.so (2013.1, Build901 2013/11/27)

>  <Rbt.Parameter_File>
/export/apps/rDock/src/rDock_2013.1_src/data/scripts/dock_solv.prm

>  <Rbt.Receptor>
prm/blind_docking_80.prm

>  <SCORE>
-9.58874

>  <SCORE.INTER>
-9.58874

>  <SCORE.INTER.CONST>
1

>  <SCORE.INTER.POLAR>
0

>  <SCORE.INTER.ROT>
0

>  <SCORE.INTER.SOLV>
18.2043

>  <SCORE.INTER.VDW>
-16.0606

>  <SCORE.INTER.norm>
-0.871703

>  <SCORE.INTRA>
0

>  <SCORE.INTRA.DIHEDRAL>
0

>  <SCORE.INTRA.DIHEDRAL.0>
0

>  <SCORE.INTRA.POLAR>
0

>  <SCORE.INTRA.POLAR.0>
0

>  <SCORE.INTRA.REPUL>
0

>  <SCORE.INTRA.REPUL.0>
0

>  <SCORE.INTRA.SOLV>
0

>  <SCORE.INTRA.SOLV.lig_0>
-48.3454

>  <SCORE.INTRA.VDW>
0

>  <SCORE.INTRA.VDW.0>
0

>  <SCORE.INTRA.norm>
0

>  <SCORE.RESTR>
0

>  <SCORE.RESTR.CAVITY>
0

>  <SCORE.RESTR.norm>
0

>  <SCORE.SYSTEM>
0

>  <SCORE.SYSTEM.CONST>
0

>  <SCORE.SYSTEM.DIHEDRAL>
0

>  <SCORE.SYSTEM.SOLV>
0

>  <SCORE.SYSTEM.norm>
0

>  <SCORE.heavy>
11

>  <SCORE.norm>
-0.871703

>  <RMSD>
3.713

$$$$
ligand
 OpenBabel01301917033D
libRbt.so/2013.1/901 2013/11/27
 11 12  0  0  0  0  0  0  0  0999 V2000
  -12.0226  -11.6222    6.8946 N   0  0  0  0  0  0  0  0  0  0  0  0
  -12.7227  -11.0238    7.8715 C   0  0  0  0  0  0  0  0  0  0  0  0
  -13.2458   -9.8183    7.6658 N   0  0  0  0  0  0  0  0  0  0  0  0
  -12.8910  -11.6269    9.0585 N   0  0  0  0  0  0  0  0  0  0  0  0
  -12.3612  -12.8366    9.2930 C   0  0  0  0  0  0  0  0  0  0  0  0
  -11.6323  -13.4779    8.2995 C   0  0  0  0  0  0  0  0  0  0  0  0
  -11.4738  -12.8337    7.0769 C   0  0  0  0  0  0  0  0  0  0  0  0
  -10.7917  -13.4155    6.0949 N   0  0  0  0  0  0  0  0  0  0  0  0
  -11.2147  -14.6386    8.7956 N   0  0  0  0  0  0  0  0  0  0  0  0
  -11.6581  -14.7296   10.0475 C   0  0  0  0  0  0  0  0  0  0  0  0
  -12.3555  -13.6378   10.3544 N   0  0  0  0  0  0  0  0  0  0  0  0
  1  7  2  0  0  0  0
  1  2  1  0  0  0  0
  2  3  1  0  0  0  0
  2  4  2  0  0  0  0
  4  5  1  0  0  0  0
  5  6  2  0  0  0  0
  5 11  1  0  0  0  0
  6  7  1  0  0  0  0
  6  9  1  0  0  0  0
  7  8  1  0  0  0  0
  9 10  1  0  0  0  0
 10 11  2  0  0  0  0
M  END
>  <CHROM.1>
-12.03802328,-12.67678838,8.29971480,-2.04282978,-0.99494261,2.22506620

>  <Name>
ligand

>  <RI>
0

>  <Rbt.Current_Directory>
/home/itssahil/PROJECTS/Mol_Feturizer/New_Systems/rnas/2b57

>  <Rbt.Executable>
rbdock ($Id: //depot/dev/client3/rdock/2013.1/src/exe/rbdock.cxx#4 $)

>  <Rbt.Library>
libRbt.so (2013.1, Build901 2013/11/27)

>  <Rbt.Parameter_File>
/export/apps/rDock/src/rDock_2013.1_src/data/scripts/dock_solv.prm

>  <Rbt.Receptor>
prm/pocket_docking_3.prm

>  <SCORE>
-9.53229

>  <SCORE.INTER>
-9.53229

>  <SCORE.INTER.CONST>
1

>  <SCORE.INTER.POLAR>
0

>  <SCORE.INTER.ROT>
0

>  <SCORE.INTER.SOLV>
15.2163

>  <SCORE.INTER.VDW>
-15.027

>  <SCORE.INTER.norm>
-0.866572

>  <SCORE.INTRA>
0

>  <SCORE.INTRA.DIHEDRAL>
0

>  <SCORE.INTRA.DIHEDRAL.0>
0

>  <SCORE.INTRA.POLAR>
0

>  <SCORE.INTRA.POLAR.0>
0

>  <SCORE.INTRA.REPUL>
0

>  <SCORE.INTRA.REPUL.0>
0

>  <SCORE.INTRA.SOLV>
0

>  <SCORE.INTRA.SOLV.lig_0>
-48.3454

>  <SCORE.INTRA.VDW>
0

>  <SCORE.INTRA.VDW.0>
0

>  <SCORE.INTRA.norm>
0

>  <SCORE.RESTR>
0

>  <SCORE.RESTR.CAVITY>
0

>  <SCORE.RESTR.norm>
0

>  <SCORE.SYSTEM>
0

>  <SCORE.SYSTEM.CONST>
0

>  <SCORE.SYSTEM.DIHEDRAL>
0

>  <SCORE.SYSTEM.SOLV>
0

>  <SCORE.SYSTEM.norm>
0

>  <SCORE.heavy>
11

>  <SCORE.norm>
-0.866572

>  <RMSD>
3.713

$$$$
ligand
 OpenBabel01301917033D
libRbt.so/2013.1/901 2013/11/27
 11 12  0  0  0  0  0  0  0  0999 V2000
  -12.0193  -11.6247    6.8913 N   0  0  0  0  0  0  0  0  0  0  0  0
  -12.7181  -11.0244    7.8680 C   0  0  0  0  0  0  0  0  0  0  0  0
  -13.2365   -9.8168    7.6627 N   0  0  0  0  0  0  0  0  0  0  0  0
  -12.8898  -11.6278    9.0543 N   0  0  0  0  0  0  0  0  0  0  0  0
  -12.3648  -12.8396    9.2884 C   0  0  0  0  0  0  0  0  0  0  0  0
  -11.6373  -13.4829    8.2951 C   0  0  0  0  0  0  0  0  0  0  0  0
  -11.4752  -12.8383    7.0732 C   0  0  0  0  0  0  0  0  0  0  0  0
  -10.7943  -13.4219    6.0913 N   0  0  0  0  0  0  0  0  0  0  0  0
  -11.2245  -14.6456    8.7907 N   0  0  0  0  0  0  0  0  0  0  0  0
  -11.6695  -14.7359   10.0420 C   0  0  0  0  0  0  0  0  0  0  0  0
  -12.3630  -13.6418   10.3491 N   0  0  0  0  0  0  0  0  0  0  0  0
  1  7  2  0  0  0  0
  1  2  1  0  0  0  0
  2  3  1  0  0  0  0
  2  4  2  0  0  0  0
  4  5  1  0  0  0  0
  5  6  2  0  0  0  0
  5 11  1  0  0  0  0
  6  7  1  0  0  0  0
  6  9  1  0  0  0  0
  7  8  1  0  0  0  0
  9 10  1  0  0  0  0
 10 11  2  0  0  0  0
M  END
>  <CHROM.1>
-12.04000207,-12.68027675,8.29553804,-2.03720930,-0.99730568,2.23057325

>  <Name>
ligand

>  <RI>
0

>  <Rbt.Current_Directory>
/home/itssahil/PROJECTS/Mol_Feturizer/New_Systems/rnas/2b57

>  <Rbt.Executable>
rbdock ($Id: //depot/dev/client3/rdock/2013.1/src/exe/rbdock.cxx#4 $)

>  <Rbt.Library>
libRbt.so (2013.1, Build901 2013/11/27)

>  <Rbt.Parameter_File>
/export/apps/rDock/src/rDock_2013.1_src/data/scripts/dock_solv.prm

>  <Rbt.Receptor>
prm/pocket_docking_7.prm

>  <SCORE>
-9.53289

>  <SCORE.INTER>
-9.53289

>  <SCORE.INTER.CONST>
1

>  <SCORE.INTER.POLAR>
0

>  <SCORE.INTER.ROT>
0

>  <SCORE.INTER.SOLV>
15.242

>  <SCORE.INTER.VDW>
-15.0359

>  <SCORE.INTER.norm>
-0.866626

>  <SCORE.INTRA>
0

>  <SCORE.INTRA.DIHEDRAL>
0

>  <SCORE.INTRA.DIHEDRAL.0>
0

>  <SCORE.INTRA.POLAR>
0

>  <SCORE.INTRA.POLAR.0>
0

>  <SCORE.INTRA.REPUL>
0

>  <SCORE.INTRA.REPUL.0>
0

>  <SCORE.INTRA.SOLV>
0

>  <SCORE.INTRA.SOLV.lig_0>
-48.3454

>  <SCORE.INTRA.VDW>
0

>  <SCORE.INTRA.VDW.0>
0

>  <SCORE.INTRA.norm>
0

>  <SCORE.RESTR>
0

>  <SCORE.RESTR.CAVITY>
0

>  <SCORE.RESTR.norm>
0

>  <SCORE.SYSTEM>
0

>  <SCORE.SYSTEM.CONST>
0

>  <SCORE.SYSTEM.DIHEDRAL>
0

>  <SCORE.SYSTEM.SOLV>
0

>  <SCORE.SYSTEM.norm>
0

>  <SCORE.heavy>
11

>  <SCORE.norm>
-0.866626

>  <RMSD>
3.713

$$$$
ligand
 OpenBabel01301917033D
libRbt.so/2013.1/901 2013/11/27
 11 12  0  0  0  0  0  0  0  0999 V2000
  -11.6381  -11.6121    6.7648 N   0  0  0  0  0  0  0  0  0  0  0  0
  -12.1097  -10.8760    7.7839 C   0  0  0  0  0  0  0  0  0  0  0  0
  -12.3956   -9.5911    7.5935 N   0  0  0  0  0  0  0  0  0  0  0  0
  -12.2857  -11.4228    8.9968 N   0  0  0  0  0  0  0  0  0  0  0  0
  -11.9915  -12.7130    9.2153 C   0  0  0  0  0  0  0  0  0  0  0  0
  -11.5020  -13.4970    8.1784 C   0  0  0  0  0  0  0  0  0  0  0  0
  -11.3305  -12.9083    6.9298 C   0  0  0  0  0  0  0  0  0  0  0  0
  -10.8736  -13.6245    5.9069 N   0  0  0  0  0  0  0  0  0  0  0  0
  -11.2831  -14.7144    8.6661 N   0  0  0  0  0  0  0  0  0  0  0  0
  -11.6180  -14.7033    9.9544 C   0  0  0  0  0  0  0  0  0  0  0  0
  -12.0493  -13.4901   10.2930 N   0  0  0  0  0  0  0  0  0  0  0  0
  1  7  2  0  0  0  0
  1  2  1  0  0  0  0
  2  3  1  0  0  0  0
  2  4  2  0  0  0  0
  4  5  1  0  0  0  0
  5  6  2  0  0  0  0
  5 11  1  0  0  0  0
  6  7  1  0  0  0  0
  6  9  1  0  0  0  0
  7  8  1  0  0  0  0
  9 10  1  0  0  0  0
 10 11  2  0  0  0  0
M  END
>  <CHROM.1>
-11.73594024,-12.63021032,8.19335223,-1.90244885,-1.21004780,2.33356787

>  <Name>
ligand

>  <RI>
0

>  <Rbt.Current_Directory>
/home/itssahil/PROJECTS/Mol_Feturizer/New_Systems/rnas/2b57

>  <Rbt.Executable>
rbdock ($Id: //depot/dev/client3/rdock/2013.1/src/exe/rbdock.cxx#4 $)

>  <Rbt.Library>
libRbt.so (2013.1, Build901 2013/11/27)

>  <Rbt.Parameter_File>
/export/apps/rDock/src/rDock_2013.1_src/data/scripts/dock_solv.prm

>  <Rbt.Receptor>
prm/blind_docking_100.prm

>  <SCORE>
-9.59352

>  <SCORE.INTER>
-9.59352

>  <SCORE.INTER.CONST>
1

>  <SCORE.INTER.POLAR>
0

>  <SCORE.INTER.ROT>
0

>  <SCORE.INTER.SOLV>
18.0223

>  <SCORE.INTER.VDW>
-16.0031

>  <SCORE.INTER.norm>
-0.872138

>  <SCORE.INTRA>
0

>  <SCORE.INTRA.DIHEDRAL>
0

>  <SCORE.INTRA.DIHEDRAL.0>
0

>  <SCORE.INTRA.POLAR>
0

>  <SCORE.INTRA.POLAR.0>
0

>  <SCORE.INTRA.REPUL>
0

>  <SCORE.INTRA.REPUL.0>
0

>  <SCORE.INTRA.SOLV>
0

>  <SCORE.INTRA.SOLV.lig_0>
-48.3454

>  <SCORE.INTRA.VDW>
0

>  <SCORE.INTRA.VDW.0>
0

>  <SCORE.INTRA.norm>
0

>  <SCORE.RESTR>
0

>  <SCORE.RESTR.CAVITY>
0

>  <SCORE.RESTR.norm>
0

>  <SCORE.SYSTEM>
0

>  <SCORE.SYSTEM.CONST>
0

>  <SCORE.SYSTEM.DIHEDRAL>
0

>  <SCORE.SYSTEM.SOLV>
0

>  <SCORE.SYSTEM.norm>
0

>  <SCORE.heavy>
11

>  <SCORE.norm>
-0.872138

>  <RMSD>
3.714

$$$$
ligand
 OpenBabel01301917033D
libRbt.so/2013.1/901 2013/11/27
 11 12  0  0  0  0  0  0  0  0999 V2000
  -11.6092  -11.5571    6.7781 N   0  0  0  0  0  0  0  0  0  0  0  0
  -12.0623  -10.8219    7.8062 C   0  0  0  0  0  0  0  0  0  0  0  0
  -12.3353   -9.5326    7.6265 N   0  0  0  0  0  0  0  0  0  0  0  0
  -12.2326  -11.3741    9.0175 N   0  0  0  0  0  0  0  0  0  0  0  0
  -11.9510  -12.6689    9.2253 C   0  0  0  0  0  0  0  0  0  0  0  0
  -11.4808  -13.4520    8.1788 C   0  0  0  0  0  0  0  0  0  0  0  0
  -11.3149  -12.8577    6.9322 C   0  0  0  0  0  0  0  0  0  0  0  0
  -10.8763  -13.5727    5.9005 N   0  0  0  0  0  0  0  0  0  0  0  0
  -11.2710  -14.6749    8.6571 N   0  0  0  0  0  0  0  0  0  0  0  0
  -11.5931  -14.6679    9.9486 C   0  0  0  0  0  0  0  0  0  0  0  0
  -12.0071  -13.4519   10.2988 N   0  0  0  0  0  0  0  0  0  0  0  0
  1  7  2  0  0  0  0
  1  2  1  0  0  0  0
  2  3  1  0  0  0  0
  2  4  2  0  0  0  0
  4  5  1  0  0  0  0
  5  6  2  0  0  0  0
  5 11  1  0  0  0  0
  6  7  1  0  0  0  0
  6  9  1  0  0  0  0
  7  8  1  0  0  0  0
  9 10  1  0  0  0  0
 10 11  2  0  0  0  0
M  END
>  <CHROM.1>
-11.70463384,-12.58274503,8.20138237,-1.90011677,-1.22513803,2.34184480

>  <Name>
ligand

>  <RI>
0

>  <Rbt.Current_Directory>
/home/itssahil/PROJECTS/Mol_Feturizer/New_Systems/rnas/2b57

>  <Rbt.Executable>
rbdock ($Id: //depot/dev/client3/rdock/2013.1/src/exe/rbdock.cxx#4 $)

>  <Rbt.Library>
libRbt.so (2013.1, Build901 2013/11/27)

>  <Rbt.Parameter_File>
/export/apps/rDock/src/rDock_2013.1_src/data/scripts/dock_solv.prm

>  <Rbt.Receptor>
prm/pocket_docking_6.prm

>  <SCORE>
-9.5887

>  <SCORE.INTER>
-9.5887

>  <SCORE.INTER.CONST>
1

>  <SCORE.INTER.POLAR>
0

>  <SCORE.INTER.ROT>
0

>  <SCORE.INTER.SOLV>
18.2762

>  <SCORE.INTER.VDW>
-16.0845

>  <SCORE.INTER.norm>
-0.8717

>  <SCORE.INTRA>
0

>  <SCORE.INTRA.DIHEDRAL>
0

>  <SCORE.INTRA.DIHEDRAL.0>
0

>  <SCORE.INTRA.POLAR>
0

>  <SCORE.INTRA.POLAR.0>
0

>  <SCORE.INTRA.REPUL>
0

>  <SCORE.INTRA.REPUL.0>
0

>  <SCORE.INTRA.SOLV>
0

>  <SCORE.INTRA.SOLV.lig_0>
-48.3454

>  <SCORE.INTRA.VDW>
0

>  <SCORE.INTRA.VDW.0>
0

>  <SCORE.INTRA.norm>
0

>  <SCORE.RESTR>
0

>  <SCORE.RESTR.CAVITY>
0

>  <SCORE.RESTR.norm>
0

>  <SCORE.SYSTEM>
0

>  <SCORE.SYSTEM.CONST>
0

>  <SCORE.SYSTEM.DIHEDRAL>
0

>  <SCORE.SYSTEM.SOLV>
0

>  <SCORE.SYSTEM.norm>
0

>  <SCORE.heavy>
11

>  <SCORE.norm>
-0.8717

>  <RMSD>
3.714

$$$$
ligand
 OpenBabel01301917033D
libRbt.so/2013.1/901 2013/11/27
 11 12  0  0  0  0  0  0  0  0999 V2000
  -11.6179  -11.5949    6.7835 N   0  0  0  0  0  0  0  0  0  0  0  0
  -12.0610  -10.8532    7.8112 C   0  0  0  0  0  0  0  0  0  0  0  0
  -12.3352   -9.5650    7.6260 N   0  0  0  0  0  0  0  0  0  0  0  0
  -12.2203  -11.3979    9.0274 N   0  0  0  0  0  0  0  0  0  0  0  0
  -11.9373  -12.6915    9.2405 C   0  0  0  0  0  0  0  0  0  0  0  0
  -11.4772  -13.4813    8.1946 C   0  0  0  0  0  0  0  0  0  0  0  0
  -11.3227  -12.8947    6.9428 C   0  0  0  0  0  0  0  0  0  0  0  0
  -10.8941  -13.6163    5.9115 N   0  0  0  0  0  0  0  0  0  0  0  0
  -11.2635  -14.7013    8.6783 N   0  0  0  0  0  0  0  0  0  0  0  0
  -11.5736  -14.6862    9.9728 C   0  0  0  0  0  0  0  0  0  0  0  0
  -11.9838  -13.4679   10.3193 N   0  0  0  0  0  0  0  0  0  0  0  0
  1  7  2  0  0  0  0
  1  2  1  0  0  0  0
  2  3  1  0  0  0  0
  2  4  2  0  0  0  0
  4  5  1  0  0  0  0
  5  6  2  0  0  0  0
  5 11  1  0  0  0  0
  6  7  1  0  0  0  0
  6  9  1  0  0  0  0
  7  8  1  0  0  0  0
  9 10  1  0  0  0  0
 10 11  2  0  0  0  0
M  END
>  <CHROM.1>
-11.70047215,-12.61178808,8.21382528,-1.91932679,-1.23188256,2.31759210

>  <Name>
ligand

>  <RI>
0

>  <Rbt.Current_Directory>
/home/itssahil/PROJECTS/Mol_Feturizer/New_Systems/rnas/2b57

>  <Rbt.Executable>
rbdock ($Id: //depot/dev/client3/rdock/2013.1/src/exe/rbdock.cxx#4 $)

>  <Rbt.Library>
libRbt.so (2013.1, Build901 2013/11/27)

>  <Rbt.Parameter_File>
/export/apps/rDock/src/rDock_2013.1_src/data/scripts/dock_solv.prm

>  <Rbt.Receptor>
prm/pocket_docking_8.prm

>  <SCORE>
-9.61715

>  <SCORE.INTER>
-9.61715

>  <SCORE.INTER.CONST>
1

>  <SCORE.INTER.POLAR>
0

>  <SCORE.INTER.ROT>
0

>  <SCORE.INTER.SOLV>
18.2593

>  <SCORE.INTER.VDW>
-16.0979

>  <SCORE.INTER.norm>
-0.874287

>  <SCORE.INTRA>
0

>  <SCORE.INTRA.DIHEDRAL>
0

>  <SCORE.INTRA.DIHEDRAL.0>
0

>  <SCORE.INTRA.POLAR>
0

>  <SCORE.INTRA.POLAR.0>
0

>  <SCORE.INTRA.REPUL>
0

>  <SCORE.INTRA.REPUL.0>
0

>  <SCORE.INTRA.SOLV>
0

>  <SCORE.INTRA.SOLV.lig_0>
-48.3454

>  <SCORE.INTRA.VDW>
0

>  <SCORE.INTRA.VDW.0>
0

>  <SCORE.INTRA.norm>
0

>  <SCORE.RESTR>
0

>  <SCORE.RESTR.CAVITY>
0

>  <SCORE.RESTR.norm>
0

>  <SCORE.SYSTEM>
0

>  <SCORE.SYSTEM.CONST>
0

>  <SCORE.SYSTEM.DIHEDRAL>
0

>  <SCORE.SYSTEM.SOLV>
0

>  <SCORE.SYSTEM.norm>
0

>  <SCORE.heavy>
11

>  <SCORE.norm>
-0.874287

>  <RMSD>
3.714

$$$$
ligand
 OpenBabel01301917033D
libRbt.so/2013.1/901 2013/11/27
 11 12  0  0  0  0  0  0  0  0999 V2000
  -11.6354  -11.6095    6.7606 N   0  0  0  0  0  0  0  0  0  0  0  0
  -12.1022  -10.8706    7.7798 C   0  0  0  0  0  0  0  0  0  0  0  0
  -12.3903   -9.5865    7.5870 N   0  0  0  0  0  0  0  0  0  0  0  0
  -12.2711  -11.4137    8.9954 N   0  0  0  0  0  0  0  0  0  0  0  0
  -11.9745  -12.7029    9.2164 C   0  0  0  0  0  0  0  0  0  0  0  0
  -11.4898  -13.4898    8.1793 C   0  0  0  0  0  0  0  0  0  0  0  0
  -11.3256  -12.9049    6.9280 C   0  0  0  0  0  0  0  0  0  0  0  0
  -10.8736  -13.6239    5.9049 N   0  0  0  0  0  0  0  0  0  0  0  0
  -11.2671  -14.7055    8.6698 N   0  0  0  0  0  0  0  0  0  0  0  0
  -11.5951  -14.6906    9.9598 C   0  0  0  0  0  0  0  0  0  0  0  0
  -12.0258  -13.4768   10.2968 N   0  0  0  0  0  0  0  0  0  0  0  0
  1  7  2  0  0  0  0
  1  2  1  0  0  0  0
  2  3  1  0  0  0  0
  2  4  2  0  0  0  0
  4  5  1  0  0  0  0
  5  6  2  0  0  0  0
  5 11  1  0  0  0  0
  6  7  1  0  0  0  0
  6  9  1  0  0  0  0
  7  8  1  0  0  0  0
  9 10  1  0  0  0  0
 10 11  2  0  0  0  0
M  END
>  <CHROM.1>
-11.72452368,-12.62316942,8.19283816,-1.91544338,-1.21303826,2.31824583

>  <Name>
ligand

>  <RI>
0

>  <Rbt.Current_Directory>
/home/itssahil/PROJECTS/Mol_Feturizer/New_Systems/rnas/2b57

>  <Rbt.Executable>
rbdock ($Id: //depot/dev/client3/rdock/2013.1/src/exe/rbdock.cxx#4 $)

>  <Rbt.Library>
libRbt.so (2013.1, Build901 2013/11/27)

>  <Rbt.Parameter_File>
/export/apps/rDock/src/rDock_2013.1_src/data/scripts/dock_solv.prm

>  <Rbt.Receptor>
prm/blind_docking_100.prm

>  <SCORE>
-9.60016

>  <SCORE.INTER>
-9.60016

>  <SCORE.INTER.CONST>
1

>  <SCORE.INTER.POLAR>
0

>  <SCORE.INTER.ROT>
0

>  <SCORE.INTER.SOLV>
18.0419

>  <SCORE.INTER.VDW>
-16.0141

>  <SCORE.INTER.norm>
-0.872742

>  <SCORE.INTRA>
0

>  <SCORE.INTRA.DIHEDRAL>
0

>  <SCORE.INTRA.DIHEDRAL.0>
0

>  <SCORE.INTRA.POLAR>
0

>  <SCORE.INTRA.POLAR.0>
0

>  <SCORE.INTRA.REPUL>
0

>  <SCORE.INTRA.REPUL.0>
0

>  <SCORE.INTRA.SOLV>
0

>  <SCORE.INTRA.SOLV.lig_0>
-48.3454

>  <SCORE.INTRA.VDW>
0

>  <SCORE.INTRA.VDW.0>
0

>  <SCORE.INTRA.norm>
0

>  <SCORE.RESTR>
0

>  <SCORE.RESTR.CAVITY>
0

>  <SCORE.RESTR.norm>
0

>  <SCORE.SYSTEM>
0

>  <SCORE.SYSTEM.CONST>
0

>  <SCORE.SYSTEM.DIHEDRAL>
0

>  <SCORE.SYSTEM.SOLV>
0

>  <SCORE.SYSTEM.norm>
0

>  <SCORE.heavy>
11

>  <SCORE.norm>
-0.872742

>  <RMSD>
3.715

$$$$
ligand
 OpenBabel01301917033D
libRbt.so/2013.1/901 2013/11/27
 11 12  0  0  0  0  0  0  0  0999 V2000
  -11.5878  -11.6209    6.7965 N   0  0  0  0  0  0  0  0  0  0  0  0
  -12.0659  -10.8845    7.8124 C   0  0  0  0  0  0  0  0  0  0  0  0
  -12.3372   -9.5962    7.6238 N   0  0  0  0  0  0  0  0  0  0  0  0
  -12.2630  -11.4347    9.0205 N   0  0  0  0  0  0  0  0  0  0  0  0
  -11.9837  -12.7285    9.2375 C   0  0  0  0  0  0  0  0  0  0  0  0
  -11.4880  -13.5128    8.2037 C   0  0  0  0  0  0  0  0  0  0  0  0
  -11.2946  -12.9206    6.9600 C   0  0  0  0  0  0  0  0  0  0  0  0
  -10.8310  -13.6368    5.9401 N   0  0  0  0  0  0  0  0  0  0  0  0
  -11.2870  -14.7342    8.6891 N   0  0  0  0  0  0  0  0  0  0  0  0
  -11.6387  -14.7253    9.9729 C   0  0  0  0  0  0  0  0  0  0  0  0
  -12.0631  -13.5095   10.3109 N   0  0  0  0  0  0  0  0  0  0  0  0
  1  7  2  0  0  0  0
  1  2  1  0  0  0  0
  2  3  1  0  0  0  0
  2  4  2  0  0  0  0
  4  5  1  0  0  0  0
  5  6  2  0  0  0  0
  5 11  1  0  0  0  0
  6  7  1  0  0  0  0
  6  9  1  0  0  0  0
  7  8  1  0  0  0  0
  9 10  1  0  0  0  0
 10 11  2  0  0  0  0
M  END
>  <CHROM.1>
-11.71400813,-12.64388899,8.21928401,-1.85739856,-1.20737067,2.37988640

>  <Name>
ligand

>  <RI>
0

>  <Rbt.Current_Directory>
/home/itssahil/PROJECTS/Mol_Feturizer/New_Systems/rnas/2b57

>  <Rbt.Executable>
rbdock ($Id: //depot/dev/client3/rdock/2013.1/src/exe/rbdock.cxx#4 $)

>  <Rbt.Library>
libRbt.so (2013.1, Build901 2013/11/27)

>  <Rbt.Parameter_File>
/export/apps/rDock/src/rDock_2013.1_src/data/scripts/dock_solv.prm

>  <Rbt.Receptor>
prm/blind_docking_60.prm

>  <SCORE>
-9.6051

>  <SCORE.INTER>
-9.6051

>  <SCORE.INTER.CONST>
1

>  <SCORE.INTER.POLAR>
0

>  <SCORE.INTER.ROT>
0

>  <SCORE.INTER.SOLV>
18.0476

>  <SCORE.INTER.VDW>
-16.0193

>  <SCORE.INTER.norm>
-0.873191

>  <SCORE.INTRA>
0

>  <SCORE.INTRA.DIHEDRAL>
0

>  <SCORE.INTRA.DIHEDRAL.0>
0

>  <SCORE.INTRA.POLAR>
0

>  <SCORE.INTRA.POLAR.0>
0

>  <SCORE.INTRA.REPUL>
0

>  <SCORE.INTRA.REPUL.0>
0

>  <SCORE.INTRA.SOLV>
0

>  <SCORE.INTRA.SOLV.lig_0>
-48.3454

>  <SCORE.INTRA.VDW>
0

>  <SCORE.INTRA.VDW.0>
0

>  <SCORE.INTRA.norm>
0

>  <SCORE.RESTR>
0

>  <SCORE.RESTR.CAVITY>
0

>  <SCORE.RESTR.norm>
0

>  <SCORE.SYSTEM>
0

>  <SCORE.SYSTEM.CONST>
0

>  <SCORE.SYSTEM.DIHEDRAL>
0

>  <SCORE.SYSTEM.SOLV>
0

>  <SCORE.SYSTEM.norm>
0

>  <SCORE.heavy>
11

>  <SCORE.norm>
-0.873191

>  <RMSD>
3.715

$$$$
ligand
 OpenBabel01301917033D
libRbt.so/2013.1/901 2013/11/27
 11 12  0  0  0  0  0  0  0  0999 V2000
  -11.9326  -11.5981    6.9041 N   0  0  0  0  0  0  0  0  0  0  0  0
  -12.6340  -10.9893    7.8737 C   0  0  0  0  0  0  0  0  0  0  0  0
  -13.1261   -9.7710    7.6674 N   0  0  0  0  0  0  0  0  0  0  0  0
  -12.8345  -11.5953    9.0543 N   0  0  0  0  0  0  0  0  0  0  0  0
  -12.3362  -12.8181    9.2895 C   0  0  0  0  0  0  0  0  0  0  0  0
  -11.6068  -13.4702    8.3035 C   0  0  0  0  0  0  0  0  0  0  0  0
  -11.4146  -12.8228    7.0875 C   0  0  0  0  0  0  0  0  0  0  0  0
  -10.7308  -13.4144    6.1125 N   0  0  0  0  0  0  0  0  0  0  0  0
  -11.2236  -14.6431    8.7989 N   0  0  0  0  0  0  0  0  0  0  0  0
  -11.6884  -14.7311   10.0432 C   0  0  0  0  0  0  0  0  0  0  0  0
  -12.3653  -13.6254   10.3460 N   0  0  0  0  0  0  0  0  0  0  0  0
  1  7  2  0  0  0  0
  1  2  1  0  0  0  0
  2  3  1  0  0  0  0
  2  4  2  0  0  0  0
  4  5  1  0  0  0  0
  5  6  2  0  0  0  0
  5 11  1  0  0  0  0
  6  7  1  0  0  0  0
  6  9  1  0  0  0  0
  7  8  1  0  0  0  0
  9 10  1  0  0  0  0
 10 11  2  0  0  0  0
M  END
>  <CHROM.1>
-11.99401998,-12.66005723,8.30234484,-1.99396123,-1.00309437,2.27210515

>  <Name>
ligand

>  <RI>
0

>  <Rbt.Current_Directory>
/home/itssahil/PROJECTS/Mol_Feturizer/New_Systems/rnas/2b57

>  <Rbt.Executable>
rbdock ($Id: //depot/dev/client3/rdock/2013.1/src/exe/rbdock.cxx#4 $)

>  <Rbt.Library>
libRbt.so (2013.1, Build901 2013/11/27)

>  <Rbt.Parameter_File>
/export/apps/rDock/src/rDock_2013.1_src/data/scripts/dock_solv.prm

>  <Rbt.Receptor>
prm/blind_docking_40.prm

>  <SCORE>
-9.54159

>  <SCORE.INTER>
-9.54159

>  <SCORE.INTER.CONST>
1

>  <SCORE.INTER.POLAR>
0

>  <SCORE.INTER.ROT>
0

>  <SCORE.INTER.SOLV>
15.3455

>  <SCORE.INTER.VDW>
-15.0762

>  <SCORE.INTER.norm>
-0.867418

>  <SCORE.INTRA>
0

>  <SCORE.INTRA.DIHEDRAL>
0

>  <SCORE.INTRA.DIHEDRAL.0>
0

>  <SCORE.INTRA.POLAR>
0

>  <SCORE.INTRA.POLAR.0>
0

>  <SCORE.INTRA.REPUL>
0

>  <SCORE.INTRA.REPUL.0>
0

>  <SCORE.INTRA.SOLV>
0

>  <SCORE.INTRA.SOLV.lig_0>
-48.3454

>  <SCORE.INTRA.VDW>
0

>  <SCORE.INTRA.VDW.0>
0

>  <SCORE.INTRA.norm>
0

>  <SCORE.RESTR>
0

>  <SCORE.RESTR.CAVITY>
0

>  <SCORE.RESTR.norm>
0

>  <SCORE.SYSTEM>
0

>  <SCORE.SYSTEM.CONST>
0

>  <SCORE.SYSTEM.DIHEDRAL>
0

>  <SCORE.SYSTEM.SOLV>
0

>  <SCORE.SYSTEM.norm>
0

>  <SCORE.heavy>
11

>  <SCORE.norm>
-0.867418

>  <RMSD>
3.716

$$$$
ligand
 OpenBabel01301917033D
libRbt.so/2013.1/901 2013/11/27
 11 12  0  0  0  0  0  0  0  0999 V2000
  -11.6152  -11.5919    6.7824 N   0  0  0  0  0  0  0  0  0  0  0  0
  -12.0581  -10.8486    7.8091 C   0  0  0  0  0  0  0  0  0  0  0  0
  -12.3299   -9.5601    7.6227 N   0  0  0  0  0  0  0  0  0  0  0  0
  -12.2195  -11.3921    9.0256 N   0  0  0  0  0  0  0  0  0  0  0  0
  -11.9388  -12.6860    9.2401 C   0  0  0  0  0  0  0  0  0  0  0  0
  -11.4790  -13.4774    8.1952 C   0  0  0  0  0  0  0  0  0  0  0  0
  -11.3223  -12.8920    6.9431 C   0  0  0  0  0  0  0  0  0  0  0  0
  -10.8938  -13.6151    5.9128 N   0  0  0  0  0  0  0  0  0  0  0  0
  -11.2678  -14.6973    8.6801 N   0  0  0  0  0  0  0  0  0  0  0  0
  -11.5791  -14.6807    9.9743 C   0  0  0  0  0  0  0  0  0  0  0  0
  -11.9877  -13.4614   10.3194 N   0  0  0  0  0  0  0  0  0  0  0  0
  1  7  2  0  0  0  0
  1  2  1  0  0  0  0
  2  3  1  0  0  0  0
  2  4  2  0  0  0  0
  4  5  1  0  0  0  0
  5  6  2  0  0  0  0
  5 11  1  0  0  0  0
  6  7  1  0  0  0  0
  6  9  1  0  0  0  0
  7  8  1  0  0  0  0
  9 10  1  0  0  0  0
 10 11  2  0  0  0  0
M  END
>  <CHROM.1>
-11.70085032,-12.60746341,8.21352344,-1.91374180,-1.23241070,2.32206653

>  <Name>
ligand

>  <RI>
0

>  <Rbt.Current_Directory>
/home/itssahil/PROJECTS/Mol_Feturizer/New_Systems/rnas/2b57

>  <Rbt.Executable>
rbdock ($Id: //depot/dev/client3/rdock/2013.1/src/exe/rbdock.cxx#4 $)

>  <Rbt.Library>
libRbt.so (2013.1, Build901 2013/11/27)

>  <Rbt.Parameter_File>
/export/apps/rDock/src/rDock_2013.1_src/data/scripts/dock_solv.prm

>  <Rbt.Receptor>
prm/pocket_docking_8.prm

>  <SCORE>
-9.61319

>  <SCORE.INTER>
-9.61319

>  <SCORE.INTER.CONST>
1

>  <SCORE.INTER.POLAR>
0

>  <SCORE.INTER.ROT>
0

>  <SCORE.INTER.SOLV>
18.271

>  <SCORE.INTER.VDW>
-16.0991

>  <SCORE.INTER.norm>
-0.873927

>  <SCORE.INTRA>
0

>  <SCORE.INTRA.DIHEDRAL>
0

>  <SCORE.INTRA.DIHEDRAL.0>
0

>  <SCORE.INTRA.POLAR>
0

>  <SCORE.INTRA.POLAR.0>
0

>  <SCORE.INTRA.REPUL>
0

>  <SCORE.INTRA.REPUL.0>
0

>  <SCORE.INTRA.SOLV>
0

>  <SCORE.INTRA.SOLV.lig_0>
-48.3454

>  <SCORE.INTRA.VDW>
0

>  <SCORE.INTRA.VDW.0>
0

>  <SCORE.INTRA.norm>
0

>  <SCORE.RESTR>
0

>  <SCORE.RESTR.CAVITY>
0

>  <SCORE.RESTR.norm>
0

>  <SCORE.SYSTEM>
0

>  <SCORE.SYSTEM.CONST>
0

>  <SCORE.SYSTEM.DIHEDRAL>
0

>  <SCORE.SYSTEM.SOLV>
0

>  <SCORE.SYSTEM.norm>
0

>  <SCORE.heavy>
11

>  <SCORE.norm>
-0.873927

>  <RMSD>
3.716

$$$$
ligand
 OpenBabel01301917033D
libRbt.so/2013.1/901 2013/11/27
 11 12  0  0  0  0  0  0  0  0999 V2000
  -11.7402  -11.5637    6.8034 N   0  0  0  0  0  0  0  0  0  0  0  0
  -12.3028  -10.8723    7.8074 C   0  0  0  0  0  0  0  0  0  0  0  0
  -12.6879   -9.6148    7.6089 N   0  0  0  0  0  0  0  0  0  0  0  0
  -12.4710  -11.4356    9.0139 N   0  0  0  0  0  0  0  0  0  0  0  0
  -12.0781  -12.6978    9.2409 C   0  0  0  0  0  0  0  0  0  0  0  0
  -11.4931  -13.4354    8.2194 C   0  0  0  0  0  0  0  0  0  0  0  0
  -11.3318  -12.8306    6.9773 C   0  0  0  0  0  0  0  0  0  0  0  0
  -10.7854  -13.5033    5.9688 N   0  0  0  0  0  0  0  0  0  0  0  0
  -11.1897  -14.6321    8.7132 N   0  0  0  0  0  0  0  0  0  0  0  0
  -11.5647  -14.6528    9.9903 C   0  0  0  0  0  0  0  0  0  0  0  0
  -12.1053  -13.4805   10.3157 N   0  0  0  0  0  0  0  0  0  0  0  0
  1  7  2  0  0  0  0
  1  2  1  0  0  0  0
  2  3  1  0  0  0  0
  2  4  2  0  0  0  0
  4  5  1  0  0  0  0
  5  6  2  0  0  0  0
  5 11  1  0  0  0  0
  6  7  1  0  0  0  0
  6  9  1  0  0  0  0
  7  8  1  0  0  0  0
  9 10  1  0  0  0  0
 10 11  2  0  0  0  0
M  END
>  <CHROM.1>
-11.79830206,-12.59092961,8.22751305,-1.98278898,-1.12718027,2.26143581

>  <Name>
ligand

>  <RI>
0

>  <Rbt.Current_Directory>
/home/itssahil/PROJECTS/Mol_Feturizer/New_Systems/rnas/2b57

>  <Rbt.Executable>
rbdock ($Id: //depot/dev/client3/rdock/2013.1/src/exe/rbdock.cxx#4 $)

>  <Rbt.Library>
libRbt.so (2013.1, Build901 2013/11/27)

>  <Rbt.Parameter_File>
/export/apps/rDock/src/rDock_2013.1_src/data/scripts/dock_solv.prm

>  <Rbt.Receptor>
prm/pocket_docking_3.prm

>  <SCORE>
-9.61322

>  <SCORE.INTER>
-9.61322

>  <SCORE.INTER.CONST>
1

>  <SCORE.INTER.POLAR>
0

>  <SCORE.INTER.ROT>
0

>  <SCORE.INTER.SOLV>
16.8493

>  <SCORE.INTER.VDW>
-15.6252

>  <SCORE.INTER.norm>
-0.873929

>  <SCORE.INTRA>
0

>  <SCORE.INTRA.DIHEDRAL>
0

>  <SCORE.INTRA.DIHEDRAL.0>
0

>  <SCORE.INTRA.POLAR>
0

>  <SCORE.INTRA.POLAR.0>
0

>  <SCORE.INTRA.REPUL>
0

>  <SCORE.INTRA.REPUL.0>
0

>  <SCORE.INTRA.SOLV>
0

>  <SCORE.INTRA.SOLV.lig_0>
-48.3454

>  <SCORE.INTRA.VDW>
0

>  <SCORE.INTRA.VDW.0>
0

>  <SCORE.INTRA.norm>
0

>  <SCORE.RESTR>
0

>  <SCORE.RESTR.CAVITY>
0

>  <SCORE.RESTR.norm>
0

>  <SCORE.SYSTEM>
0

>  <SCORE.SYSTEM.CONST>
0

>  <SCORE.SYSTEM.DIHEDRAL>
0

>  <SCORE.SYSTEM.SOLV>
0

>  <SCORE.SYSTEM.norm>
0

>  <SCORE.heavy>
11

>  <SCORE.norm>
-0.873929

>  <RMSD>
3.717

$$$$
ligand
 OpenBabel01301917033D
libRbt.so/2013.1/901 2013/11/27
 11 12  0  0  0  0  0  0  0  0999 V2000
  -11.7676  -11.5997    6.7945 N   0  0  0  0  0  0  0  0  0  0  0  0
  -12.3082  -10.8967    7.8026 C   0  0  0  0  0  0  0  0  0  0  0  0
  -12.6800   -9.6353    7.6031 N   0  0  0  0  0  0  0  0  0  0  0  0
  -12.4676  -11.4523    9.0137 N   0  0  0  0  0  0  0  0  0  0  0  0
  -12.0877  -12.7183    9.2416 C   0  0  0  0  0  0  0  0  0  0  0  0
  -11.5255  -13.4679    8.2161 C   0  0  0  0  0  0  0  0  0  0  0  0
  -11.3729  -12.8709    6.9690 C   0  0  0  0  0  0  0  0  0  0  0  0
  -10.8482  -13.5550    5.9567 N   0  0  0  0  0  0  0  0  0  0  0  0
  -11.2307  -14.6661    8.7114 N   0  0  0  0  0  0  0  0  0  0  0  0
  -11.5892  -14.6762    9.9934 C   0  0  0  0  0  0  0  0  0  0  0  0
  -12.1106  -13.4957   10.3204 N   0  0  0  0  0  0  0  0  0  0  0  0
  1  7  2  0  0  0  0
  1  2  1  0  0  0  0
  2  3  1  0  0  0  0
  2  4  2  0  0  0  0
  4  5  1  0  0  0  0
  5  6  2  0  0  0  0
  5 11  1  0  0  0  0
  6  7  1  0  0  0  0
  6  9  1  0  0  0  0
  7  8  1  0  0  0  0
  9 10  1  0  0  0  0
 10 11  2  0  0  0  0
M  END
>  <CHROM.1>
-11.81991364,-12.61962091,8.22414195,-1.98785484,-1.14522932,2.25220495

>  <Name>
ligand

>  <RI>
0

>  <Rbt.Current_Directory>
/home/itssahil/PROJECTS/Mol_Feturizer/New_Systems/rnas/2b57

>  <Rbt.Executable>
rbdock ($Id: //depot/dev/client3/rdock/2013.1/src/exe/rbdock.cxx#4 $)

>  <Rbt.Library>
libRbt.so (2013.1, Build901 2013/11/27)

>  <Rbt.Parameter_File>
/export/apps/rDock/src/rDock_2013.1_src/data/scripts/dock_solv.prm

>  <Rbt.Receptor>
prm/pocket_docking_4.prm

>  <SCORE>
-9.55787

>  <SCORE.INTER>
-9.55787

>  <SCORE.INTER.CONST>
1

>  <SCORE.INTER.POLAR>
0

>  <SCORE.INTER.ROT>
0

>  <SCORE.INTER.SOLV>
16.996

>  <SCORE.INTER.VDW>
-15.6373

>  <SCORE.INTER.norm>
-0.868897

>  <SCORE.INTRA>
0

>  <SCORE.INTRA.DIHEDRAL>
0

>  <SCORE.INTRA.DIHEDRAL.0>
0

>  <SCORE.INTRA.POLAR>
0

>  <SCORE.INTRA.POLAR.0>
0

>  <SCORE.INTRA.REPUL>
0

>  <SCORE.INTRA.REPUL.0>
0

>  <SCORE.INTRA.SOLV>
0

>  <SCORE.INTRA.SOLV.lig_0>
-48.3454

>  <SCORE.INTRA.VDW>
0

>  <SCORE.INTRA.VDW.0>
0

>  <SCORE.INTRA.norm>
0

>  <SCORE.RESTR>
0

>  <SCORE.RESTR.CAVITY>
0

>  <SCORE.RESTR.norm>
0

>  <SCORE.SYSTEM>
0

>  <SCORE.SYSTEM.CONST>
0

>  <SCORE.SYSTEM.DIHEDRAL>
0

>  <SCORE.SYSTEM.SOLV>
0

>  <SCORE.SYSTEM.norm>
0

>  <SCORE.heavy>
11

>  <SCORE.norm>
-0.868897

>  <RMSD>
3.717

$$$$
ligand
 OpenBabel01301917033D
libRbt.so/2013.1/901 2013/11/27
 11 12  0  0  0  0  0  0  0  0999 V2000
  -11.6087  -11.6246    6.7851 N   0  0  0  0  0  0  0  0  0  0  0  0
  -12.0961  -10.8878    7.7962 C   0  0  0  0  0  0  0  0  0  0  0  0
  -12.3878   -9.6054    7.5980 N   0  0  0  0  0  0  0  0  0  0  0  0
  -12.2820  -11.4314    9.0091 N   0  0  0  0  0  0  0  0  0  0  0  0
  -11.9821  -12.7189    9.2356 C   0  0  0  0  0  0  0  0  0  0  0  0
  -11.4763  -13.5036    8.2069 C   0  0  0  0  0  0  0  0  0  0  0  0
  -11.2948  -12.9183    6.9582 C   0  0  0  0  0  0  0  0  0  0  0  0
  -10.8222  -13.6352    5.9430 N   0  0  0  0  0  0  0  0  0  0  0  0
  -11.2552  -14.7178    8.7015 N   0  0  0  0  0  0  0  0  0  0  0  0
  -11.6045  -14.7042    9.9860 C   0  0  0  0  0  0  0  0  0  0  0  0
  -12.0471  -13.4926   10.3153 N   0  0  0  0  0  0  0  0  0  0  0  0
  1  7  2  0  0  0  0
  1  2  1  0  0  0  0
  2  3  1  0  0  0  0
  2  4  2  0  0  0  0
  4  5  1  0  0  0  0
  5  6  2  0  0  0  0
  5 11  1  0  0  0  0
  6  7  1  0  0  0  0
  6  9  1  0  0  0  0
  7  8  1  0  0  0  0
  9 10  1  0  0  0  0
 10 11  2  0  0  0  0
M  END
>  <CHROM.1>
-11.71588268,-12.63819622,8.21617841,-1.89238113,-1.19788182,2.33935751

>  <Name>
ligand

>  <RI>
0

>  <Rbt.Current_Directory>
/home/itssahil/PROJECTS/Mol_Feturizer/New_Systems/rnas/2b57

>  <Rbt.Executable>
rbdock ($Id: //depot/dev/client3/rdock/2013.1/src/exe/rbdock.cxx#4 $)

>  <Rbt.Library>
libRbt.so (2013.1, Build901 2013/11/27)

>  <Rbt.Parameter_File>
/export/apps/rDock/src/rDock_2013.1_src/data/scripts/dock_solv.prm

>  <Rbt.Receptor>
prm/blind_docking_100.prm

>  <SCORE>
-9.5796

>  <SCORE.INTER>
-9.5796

>  <SCORE.INTER.CONST>
1

>  <SCORE.INTER.POLAR>
0

>  <SCORE.INTER.ROT>
0

>  <SCORE.INTER.SOLV>
17.8712

>  <SCORE.INTER.VDW>
-15.9435

>  <SCORE.INTER.norm>
-0.870873

>  <SCORE.INTRA>
0

>  <SCORE.INTRA.DIHEDRAL>
0

>  <SCORE.INTRA.DIHEDRAL.0>
0

>  <SCORE.INTRA.POLAR>
0

>  <SCORE.INTRA.POLAR.0>
0

>  <SCORE.INTRA.REPUL>
0

>  <SCORE.INTRA.REPUL.0>
0

>  <SCORE.INTRA.SOLV>
0

>  <SCORE.INTRA.SOLV.lig_0>
-48.3454

>  <SCORE.INTRA.VDW>
0

>  <SCORE.INTRA.VDW.0>
0

>  <SCORE.INTRA.norm>
0

>  <SCORE.RESTR>
0

>  <SCORE.RESTR.CAVITY>
0

>  <SCORE.RESTR.norm>
0

>  <SCORE.SYSTEM>
0

>  <SCORE.SYSTEM.CONST>
0

>  <SCORE.SYSTEM.DIHEDRAL>
0

>  <SCORE.SYSTEM.SOLV>
0

>  <SCORE.SYSTEM.norm>
0

>  <SCORE.heavy>
11

>  <SCORE.norm>
-0.870873

>  <RMSD>
3.719

$$$$
ligand
 OpenBabel01301917033D
libRbt.so/2013.1/901 2013/11/27
 11 12  0  0  0  0  0  0  0  0999 V2000
  -11.6151  -11.5988    6.8199 N   0  0  0  0  0  0  0  0  0  0  0  0
  -12.0809  -10.8620    7.8412 C   0  0  0  0  0  0  0  0  0  0  0  0
  -12.3667   -9.5769    7.6521 N   0  0  0  0  0  0  0  0  0  0  0  0
  -12.2510  -11.4085    9.0551 N   0  0  0  0  0  0  0  0  0  0  0  0
  -11.9567  -12.6989    9.2724 C   0  0  0  0  0  0  0  0  0  0  0  0
  -11.4732  -13.4835    8.2330 C   0  0  0  0  0  0  0  0  0  0  0  0
  -11.3077  -12.8952    6.9835 C   0  0  0  0  0  0  0  0  0  0  0  0
  -10.8567  -13.6119    5.9583 N   0  0  0  0  0  0  0  0  0  0  0  0
  -11.2527  -14.7010    8.7199 N   0  0  0  0  0  0  0  0  0  0  0  0
  -11.5810  -14.6894   10.0099 C   0  0  0  0  0  0  0  0  0  0  0  0
  -12.0096  -13.4758   10.3504 N   0  0  0  0  0  0  0  0  0  0  0  0
  1  7  2  0  0  0  0
  1  2  1  0  0  0  0
  2  3  1  0  0  0  0
  2  4  2  0  0  0  0
  4  5  1  0  0  0  0
  5  6  2  0  0  0  0
  5 11  1  0  0  0  0
  6  7  1  0  0  0  0
  6  9  1  0  0  0  0
  7  8  1  0  0  0  0
  9 10  1  0  0  0  0
 10 11  2  0  0  0  0
M  END
>  <CHROM.1>
-11.70638879,-12.61651387,8.24905274,-1.91157105,-1.21418558,2.32484914

>  <Name>
ligand

>  <RI>
0

>  <Rbt.Current_Directory>
/home/itssahil/PROJECTS/Mol_Feturizer/New_Systems/rnas/2b57

>  <Rbt.Executable>
rbdock ($Id: //depot/dev/client3/rdock/2013.1/src/exe/rbdock.cxx#4 $)

>  <Rbt.Library>
libRbt.so (2013.1, Build901 2013/11/27)

>  <Rbt.Parameter_File>
/export/apps/rDock/src/rDock_2013.1_src/data/scripts/dock_solv.prm

>  <Rbt.Receptor>
prm/pocket_docking_5.prm

>  <SCORE>
-9.58116

>  <SCORE.INTER>
-9.58116

>  <SCORE.INTER.CONST>
1

>  <SCORE.INTER.POLAR>
0

>  <SCORE.INTER.ROT>
0

>  <SCORE.INTER.SOLV>
17.9945

>  <SCORE.INTER.VDW>
-15.9856

>  <SCORE.INTER.norm>
-0.871014

>  <SCORE.INTRA>
0

>  <SCORE.INTRA.DIHEDRAL>
0

>  <SCORE.INTRA.DIHEDRAL.0>
0

>  <SCORE.INTRA.POLAR>
0

>  <SCORE.INTRA.POLAR.0>
0

>  <SCORE.INTRA.REPUL>
0

>  <SCORE.INTRA.REPUL.0>
0

>  <SCORE.INTRA.SOLV>
0

>  <SCORE.INTRA.SOLV.lig_0>
-48.3454

>  <SCORE.INTRA.VDW>
0

>  <SCORE.INTRA.VDW.0>
0

>  <SCORE.INTRA.norm>
0

>  <SCORE.RESTR>
0

>  <SCORE.RESTR.CAVITY>
0

>  <SCORE.RESTR.norm>
0

>  <SCORE.SYSTEM>
0

>  <SCORE.SYSTEM.CONST>
0

>  <SCORE.SYSTEM.DIHEDRAL>
0

>  <SCORE.SYSTEM.SOLV>
0

>  <SCORE.SYSTEM.norm>
0

>  <SCORE.heavy>
11

>  <SCORE.norm>
-0.871014

>  <RMSD>
3.720

$$$$
ligand
 OpenBabel01301917033D
libRbt.so/2013.1/901 2013/11/27
 11 12  0  0  0  0  0  0  0  0999 V2000
  -11.5964  -11.6027    6.8056 N   0  0  0  0  0  0  0  0  0  0  0  0
  -12.0596  -10.8616    7.8249 C   0  0  0  0  0  0  0  0  0  0  0  0
  -12.3377   -9.5752    7.6332 N   0  0  0  0  0  0  0  0  0  0  0  0
  -12.2350  -11.4051    9.0394 N   0  0  0  0  0  0  0  0  0  0  0  0
  -11.9485  -12.6968    9.2593 C   0  0  0  0  0  0  0  0  0  0  0  0
  -11.4677  -13.4859    8.2221 C   0  0  0  0  0  0  0  0  0  0  0  0
  -11.2968  -12.9006    6.9719 C   0  0  0  0  0  0  0  0  0  0  0  0
  -10.8481  -13.6216    5.9487 N   0  0  0  0  0  0  0  0  0  0  0  0
  -11.2551  -14.7038    8.7114 N   0  0  0  0  0  0  0  0  0  0  0  0
  -11.5856  -14.6882   10.0008 C   0  0  0  0  0  0  0  0  0  0  0  0
  -12.0077  -13.4716   10.3386 N   0  0  0  0  0  0  0  0  0  0  0  0
  1  7  2  0  0  0  0
  1  2  1  0  0  0  0
  2  3  1  0  0  0  0
  2  4  2  0  0  0  0
  4  5  1  0  0  0  0
  5  6  2  0  0  0  0
  5 11  1  0  0  0  0
  6  7  1  0  0  0  0
  6  9  1  0  0  0  0
  7  8  1  0  0  0  0
  9 10  1  0  0  0  0
 10 11  2  0  0  0  0
M  END
>  <CHROM.1>
-11.69596614,-12.61752902,8.23633133,-1.89657278,-1.21717677,2.33724892

>  <Name>
ligand

>  <RI>
0

>  <Rbt.Current_Directory>
/home/itssahil/PROJECTS/Mol_Feturizer/New_Systems/rnas/2b57

>  <Rbt.Executable>
rbdock ($Id: //depot/dev/client3/rdock/2013.1/src/exe/rbdock.cxx#4 $)

>  <Rbt.Library>
libRbt.so (2013.1, Build901 2013/11/27)

>  <Rbt.Parameter_File>
/export/apps/rDock/src/rDock_2013.1_src/data/scripts/dock_solv.prm

>  <Rbt.Receptor>
prm/blind_docking_80.prm

>  <SCORE>
-9.5841

>  <SCORE.INTER>
-9.5841

>  <SCORE.INTER.CONST>
1

>  <SCORE.INTER.POLAR>
0

>  <SCORE.INTER.ROT>
0

>  <SCORE.INTER.SOLV>
18.0744

>  <SCORE.INTER.VDW>
-16.0142

>  <SCORE.INTER.norm>
-0.871282

>  <SCORE.INTRA>
0

>  <SCORE.INTRA.DIHEDRAL>
0

>  <SCORE.INTRA.DIHEDRAL.0>
0

>  <SCORE.INTRA.POLAR>
0

>  <SCORE.INTRA.POLAR.0>
0

>  <SCORE.INTRA.REPUL>
0

>  <SCORE.INTRA.REPUL.0>
0

>  <SCORE.INTRA.SOLV>
0

>  <SCORE.INTRA.SOLV.lig_0>
-48.3454

>  <SCORE.INTRA.VDW>
0

>  <SCORE.INTRA.VDW.0>
0

>  <SCORE.INTRA.norm>
0

>  <SCORE.RESTR>
0

>  <SCORE.RESTR.CAVITY>
0

>  <SCORE.RESTR.norm>
0

>  <SCORE.SYSTEM>
0

>  <SCORE.SYSTEM.CONST>
0

>  <SCORE.SYSTEM.DIHEDRAL>
0

>  <SCORE.SYSTEM.SOLV>
0

>  <SCORE.SYSTEM.norm>
0

>  <SCORE.heavy>
11

>  <SCORE.norm>
-0.871282

>  <RMSD>
3.721

$$$$
ligand
 OpenBabel01301917033D
libRbt.so/2013.1/901 2013/11/27
 11 12  0  0  0  0  0  0  0  0999 V2000
  -11.7866  -11.5776    6.8137 N   0  0  0  0  0  0  0  0  0  0  0  0
  -12.3528  -10.8860    7.8156 C   0  0  0  0  0  0  0  0  0  0  0  0
  -12.7479   -9.6324    7.6120 N   0  0  0  0  0  0  0  0  0  0  0  0
  -12.5146  -11.4452    9.0248 N   0  0  0  0  0  0  0  0  0  0  0  0
  -12.1115  -12.7032    9.2569 C   0  0  0  0  0  0  0  0  0  0  0  0
  -11.5226  -13.4409    8.2377 C   0  0  0  0  0  0  0  0  0  0  0  0
  -11.3681  -12.8405    6.9926 C   0  0  0  0  0  0  0  0  0  0  0  0
  -10.8182  -13.5135    5.9862 N   0  0  0  0  0  0  0  0  0  0  0  0
  -11.2091  -14.6330    8.7363 N   0  0  0  0  0  0  0  0  0  0  0  0
  -11.5818  -14.6508   10.0141 C   0  0  0  0  0  0  0  0  0  0  0  0
  -12.1309  -13.4812   10.3353 N   0  0  0  0  0  0  0  0  0  0  0  0
  1  7  2  0  0  0  0
  1  2  1  0  0  0  0
  2  3  1  0  0  0  0
  2  4  2  0  0  0  0
  4  5  1  0  0  0  0
  5  6  2  0  0  0  0
  5 11  1  0  0  0  0
  6  7  1  0  0  0  0
  6  9  1  0  0  0  0
  7  8  1  0  0  0  0
  9 10  1  0  0  0  0
 10 11  2  0  0  0  0
M  END
>  <CHROM.1>
-11.83433174,-12.59878785,8.24253230,-1.99715544,-1.12225224,2.24396373

>  <Name>
ligand

>  <RI>
0

>  <Rbt.Current_Directory>
/home/itssahil/PROJECTS/Mol_Feturizer/New_Systems/rnas/2b57

>  <Rbt.Executable>
rbdock ($Id: //depot/dev/client3/rdock/2013.1/src/exe/rbdock.cxx#4 $)

>  <Rbt.Library>
libRbt.so (2013.1, Build901 2013/11/27)

>  <Rbt.Parameter_File>
/export/apps/rDock/src/rDock_2013.1_src/data/scripts/dock_solv.prm

>  <Rbt.Receptor>
prm/pocket_docking_4.prm

>  <SCORE>
-9.6234

>  <SCORE.INTER>
-9.6234

>  <SCORE.INTER.CONST>
1

>  <SCORE.INTER.POLAR>
0

>  <SCORE.INTER.ROT>
0

>  <SCORE.INTER.SOLV>
16.6812

>  <SCORE.INTER.VDW>
-15.576

>  <SCORE.INTER.norm>
-0.874854

>  <SCORE.INTRA>
0

>  <SCORE.INTRA.DIHEDRAL>
0

>  <SCORE.INTRA.DIHEDRAL.0>
0

>  <SCORE.INTRA.POLAR>
0

>  <SCORE.INTRA.POLAR.0>
0

>  <SCORE.INTRA.REPUL>
0

>  <SCORE.INTRA.REPUL.0>
0

>  <SCORE.INTRA.SOLV>
0

>  <SCORE.INTRA.SOLV.lig_0>
-48.3454

>  <SCORE.INTRA.VDW>
0

>  <SCORE.INTRA.VDW.0>
0

>  <SCORE.INTRA.norm>
0

>  <SCORE.RESTR>
0

>  <SCORE.RESTR.CAVITY>
0

>  <SCORE.RESTR.norm>
0

>  <SCORE.SYSTEM>
0

>  <SCORE.SYSTEM.CONST>
0

>  <SCORE.SYSTEM.DIHEDRAL>
0

>  <SCORE.SYSTEM.SOLV>
0

>  <SCORE.SYSTEM.norm>
0

>  <SCORE.heavy>
11

>  <SCORE.norm>
-0.874854

>  <RMSD>
3.722

$$$$
ligand
 OpenBabel01301917033D
libRbt.so/2013.1/901 2013/11/27
 11 12  0  0  0  0  0  0  0  0999 V2000
  -11.7720  -11.5865    6.8580 N   0  0  0  0  0  0  0  0  0  0  0  0
  -12.3376  -10.8943    7.8598 C   0  0  0  0  0  0  0  0  0  0  0  0
  -12.7144   -9.6342    7.6614 N   0  0  0  0  0  0  0  0  0  0  0  0
  -12.5170  -11.4593    9.0638 N   0  0  0  0  0  0  0  0  0  0  0  0
  -12.1324  -12.7240    9.2907 C   0  0  0  0  0  0  0  0  0  0  0  0
  -11.5446  -13.4626    8.2716 C   0  0  0  0  0  0  0  0  0  0  0  0
  -11.3717  -12.8560    7.0318 C   0  0  0  0  0  0  0  0  0  0  0  0
  -10.8221  -13.5295    6.0256 N   0  0  0  0  0  0  0  0  0  0  0  0
  -11.2511  -14.6620    8.7647 N   0  0  0  0  0  0  0  0  0  0  0  0
  -11.6348  -14.6835   10.0392 C   0  0  0  0  0  0  0  0  0  0  0  0
  -12.1712  -13.5089   10.3636 N   0  0  0  0  0  0  0  0  0  0  0  0
  1  7  2  0  0  0  0
  1  2  1  0  0  0  0
  2  3  1  0  0  0  0
  2  4  2  0  0  0  0
  4  5  1  0  0  0  0
  5  6  2  0  0  0  0
  5 11  1  0  0  0  0
  6  7  1  0  0  0  0
  6  9  1  0  0  0  0
  7  8  1  0  0  0  0
  9 10  1  0  0  0  0
 10 11  2  0  0  0  0
M  END
>  <CHROM.1>
-11.84527376,-12.61653093,8.27945715,-1.96258261,-1.12698957,2.28188548

>  <Name>
ligand

>  <RI>
0

>  <Rbt.Current_Directory>
/home/itssahil/PROJECTS/Mol_Feturizer/New_Systems/rnas/2b57

>  <Rbt.Executable>
rbdock ($Id: //depot/dev/client3/rdock/2013.1/src/exe/rbdock.cxx#4 $)

>  <Rbt.Library>
libRbt.so (2013.1, Build901 2013/11/27)

>  <Rbt.Parameter_File>
/export/apps/rDock/src/rDock_2013.1_src/data/scripts/dock_solv.prm

>  <Rbt.Receptor>
prm/pocket_docking_7.prm

>  <SCORE>
-9.54389

>  <SCORE.INTER>
-9.54389

>  <SCORE.INTER.CONST>
1

>  <SCORE.INTER.POLAR>
0

>  <SCORE.INTER.ROT>
0

>  <SCORE.INTER.SOLV>
16.6899

>  <SCORE.INTER.VDW>
-15.5259

>  <SCORE.INTER.norm>
-0.867626

>  <SCORE.INTRA>
0

>  <SCORE.INTRA.DIHEDRAL>
0

>  <SCORE.INTRA.DIHEDRAL.0>
0

>  <SCORE.INTRA.POLAR>
0

>  <SCORE.INTRA.POLAR.0>
0

>  <SCORE.INTRA.REPUL>
0

>  <SCORE.INTRA.REPUL.0>
0

>  <SCORE.INTRA.SOLV>
0

>  <SCORE.INTRA.SOLV.lig_0>
-48.3454

>  <SCORE.INTRA.VDW>
0

>  <SCORE.INTRA.VDW.0>
0

>  <SCORE.INTRA.norm>
0

>  <SCORE.RESTR>
0

>  <SCORE.RESTR.CAVITY>
0

>  <SCORE.RESTR.norm>
0

>  <SCORE.SYSTEM>
0

>  <SCORE.SYSTEM.CONST>
0

>  <SCORE.SYSTEM.DIHEDRAL>
0

>  <SCORE.SYSTEM.SOLV>
0

>  <SCORE.SYSTEM.norm>
0

>  <SCORE.heavy>
11

>  <SCORE.norm>
-0.867626

>  <RMSD>
3.724

$$$$
ligand
 OpenBabel01301917033D
libRbt.so/2013.1/901 2013/11/27
 11 12  0  0  0  0  0  0  0  0999 V2000
  -11.7417  -11.6038    6.8122 N   0  0  0  0  0  0  0  0  0  0  0  0
  -12.3099  -10.9018    7.8058 C   0  0  0  0  0  0  0  0  0  0  0  0
  -12.6851   -9.6434    7.5946 N   0  0  0  0  0  0  0  0  0  0  0  0
  -12.4934  -11.4555    9.0144 N   0  0  0  0  0  0  0  0  0  0  0  0
  -12.1106  -12.7184    9.2542 C   0  0  0  0  0  0  0  0  0  0  0  0
  -11.5202  -13.4668    8.2438 C   0  0  0  0  0  0  0  0  0  0  0  0
  -11.3429  -12.8719    6.9991 C   0  0  0  0  0  0  0  0  0  0  0  0
  -10.7907  -13.5551    6.0009 N   0  0  0  0  0  0  0  0  0  0  0  0
  -11.2291  -14.6618    8.7490 N   0  0  0  0  0  0  0  0  0  0  0  0
  -11.6168  -14.6712   10.0224 C   0  0  0  0  0  0  0  0  0  0  0  0
  -12.1533  -13.4933   10.3342 N   0  0  0  0  0  0  0  0  0  0  0  0
  1  7  2  0  0  0  0
  1  2  1  0  0  0  0
  2  3  1  0  0  0  0
  2  4  2  0  0  0  0
  4  5  1  0  0  0  0
  5  6  2  0  0  0  0
  5 11  1  0  0  0  0
  6  7  1  0  0  0  0
  6  9  1  0  0  0  0
  7  8  1  0  0  0  0
  9 10  1  0  0  0  0
 10 11  2  0  0  0  0
M  END
>  <CHROM.1>
-11.82021910,-12.62047242,8.24293930,-1.95591432,-1.12555285,2.27862948

>  <Name>
ligand

>  <RI>
0

>  <Rbt.Current_Directory>
/home/itssahil/PROJECTS/Mol_Feturizer/New_Systems/rnas/2b57

>  <Rbt.Executable>
rbdock ($Id: //depot/dev/client3/rdock/2013.1/src/exe/rbdock.cxx#4 $)

>  <Rbt.Library>
libRbt.so (2013.1, Build901 2013/11/27)

>  <Rbt.Parameter_File>
/export/apps/rDock/src/rDock_2013.1_src/data/scripts/dock_solv.prm

>  <Rbt.Receptor>
prm/blind_docking_60.prm

>  <SCORE>
-9.58564

>  <SCORE.INTER>
-9.58564

>  <SCORE.INTER.CONST>
1

>  <SCORE.INTER.POLAR>
0

>  <SCORE.INTER.ROT>
0

>  <SCORE.INTER.SOLV>
16.7956

>  <SCORE.INTER.VDW>
-15.5889

>  <SCORE.INTER.norm>
-0.871421

>  <SCORE.INTRA>
0

>  <SCORE.INTRA.DIHEDRAL>
0

>  <SCORE.INTRA.DIHEDRAL.0>
0

>  <SCORE.INTRA.POLAR>
0

>  <SCORE.INTRA.POLAR.0>
0

>  <SCORE.INTRA.REPUL>
0

>  <SCORE.INTRA.REPUL.0>
0

>  <SCORE.INTRA.SOLV>
0

>  <SCORE.INTRA.SOLV.lig_0>
-48.3454

>  <SCORE.INTRA.VDW>
0

>  <SCORE.INTRA.VDW.0>
0

>  <SCORE.INTRA.norm>
0

>  <SCORE.RESTR>
0

>  <SCORE.RESTR.CAVITY>
0

>  <SCORE.RESTR.norm>
0

>  <SCORE.SYSTEM>
0

>  <SCORE.SYSTEM.CONST>
0

>  <SCORE.SYSTEM.DIHEDRAL>
0

>  <SCORE.SYSTEM.SOLV>
0

>  <SCORE.SYSTEM.norm>
0

>  <SCORE.heavy>
11

>  <SCORE.norm>
-0.871421

>  <RMSD>
3.726

$$$$
ligand
 OpenBabel01301917033D
libRbt.so/2013.1/901 2013/11/27
 11 12  0  0  0  0  0  0  0  0999 V2000
  -11.7612  -11.6068    6.8010 N   0  0  0  0  0  0  0  0  0  0  0  0
  -12.3176  -10.8996    7.7975 C   0  0  0  0  0  0  0  0  0  0  0  0
  -12.6953   -9.6423    7.5841 N   0  0  0  0  0  0  0  0  0  0  0  0
  -12.4870  -11.4469    9.0111 N   0  0  0  0  0  0  0  0  0  0  0  0
  -12.1015  -12.7086    9.2530 C   0  0  0  0  0  0  0  0  0  0  0  0
  -11.5230  -13.4624    8.2396 C   0  0  0  0  0  0  0  0  0  0  0  0
  -11.3603  -12.8740    6.9898 C   0  0  0  0  0  0  0  0  0  0  0  0
  -10.8199  -13.5625    5.9887 N   0  0  0  0  0  0  0  0  0  0  0  0
  -11.2261  -14.6548    8.7476 N   0  0  0  0  0  0  0  0  0  0  0  0
  -11.5988  -14.6574   10.0255 C   0  0  0  0  0  0  0  0  0  0  0  0
  -12.1315  -13.4778   10.3374 N   0  0  0  0  0  0  0  0  0  0  0  0
  1  7  2  0  0  0  0
  1  2  1  0  0  0  0
  2  3  1  0  0  0  0
  2  4  2  0  0  0  0
  4  5  1  0  0  0  0
  5  6  2  0  0  0  0
  5 11  1  0  0  0  0
  6  7  1  0  0  0  0
  6  9  1  0  0  0  0
  7  8  1  0  0  0  0
  9 10  1  0  0  0  0
 10 11  2  0  0  0  0
M  END
>  <CHROM.1>
-11.82295693,-12.61601035,8.23783883,-1.97690483,-1.13313881,2.25441359

>  <Name>
ligand

>  <RI>
0

>  <Rbt.Current_Directory>
/home/itssahil/PROJECTS/Mol_Feturizer/New_Systems/rnas/2b57

>  <Rbt.Executable>
rbdock ($Id: //depot/dev/client3/rdock/2013.1/src/exe/rbdock.cxx#4 $)

>  <Rbt.Library>
libRbt.so (2013.1, Build901 2013/11/27)

>  <Rbt.Parameter_File>
/export/apps/rDock/src/rDock_2013.1_src/data/scripts/dock_solv.prm

>  <Rbt.Receptor>
prm/pocket_docking_3.prm

>  <SCORE>
-9.58767

>  <SCORE.INTER>
-9.58767

>  <SCORE.INTER.CONST>
1

>  <SCORE.INTER.POLAR>
0

>  <SCORE.INTER.ROT>
0

>  <SCORE.INTER.SOLV>
16.8257

>  <SCORE.INTER.VDW>
-15.6004

>  <SCORE.INTER.norm>
-0.871607

>  <SCORE.INTRA>
0

>  <SCORE.INTRA.DIHEDRAL>
0

>  <SCORE.INTRA.DIHEDRAL.0>
0

>  <SCORE.INTRA.POLAR>
0

>  <SCORE.INTRA.POLAR.0>
0

>  <SCORE.INTRA.REPUL>
0

>  <SCORE.INTRA.REPUL.0>
0

>  <SCORE.INTRA.SOLV>
0

>  <SCORE.INTRA.SOLV.lig_0>
-48.3454

>  <SCORE.INTRA.VDW>
0

>  <SCORE.INTRA.VDW.0>
0

>  <SCORE.INTRA.norm>
0

>  <SCORE.RESTR>
0

>  <SCORE.RESTR.CAVITY>
0

>  <SCORE.RESTR.norm>
0

>  <SCORE.SYSTEM>
0

>  <SCORE.SYSTEM.CONST>
0

>  <SCORE.SYSTEM.DIHEDRAL>
0

>  <SCORE.SYSTEM.SOLV>
0

>  <SCORE.SYSTEM.norm>
0

>  <SCORE.heavy>
11

>  <SCORE.norm>
-0.871607

>  <RMSD>
3.728

$$$$
ligand
 OpenBabel01301917033D
libRbt.so/2013.1/901 2013/11/27
 11 12  0  0  0  0  0  0  0  0999 V2000
  -11.7448  -11.6177    6.8043 N   0  0  0  0  0  0  0  0  0  0  0  0
  -12.3123  -10.9126    7.7960 C   0  0  0  0  0  0  0  0  0  0  0  0
  -12.6902   -9.6557    7.5802 N   0  0  0  0  0  0  0  0  0  0  0  0
  -12.4927  -11.4615    9.0072 N   0  0  0  0  0  0  0  0  0  0  0  0
  -12.1072  -12.7227    9.2516 C   0  0  0  0  0  0  0  0  0  0  0  0
  -11.5174  -13.4744    8.2432 C   0  0  0  0  0  0  0  0  0  0  0  0
  -11.3435  -12.8843    6.9957 C   0  0  0  0  0  0  0  0  0  0  0  0
  -10.7920  -13.5707    5.9993 N   0  0  0  0  0  0  0  0  0  0  0  0
  -11.2233  -14.6668    8.7528 N   0  0  0  0  0  0  0  0  0  0  0  0
  -11.6086  -14.6714   10.0269 C   0  0  0  0  0  0  0  0  0  0  0  0
  -12.1465  -13.4932   10.3349 N   0  0  0  0  0  0  0  0  0  0  0  0
  1  7  2  0  0  0  0
  1  2  1  0  0  0  0
  2  3  1  0  0  0  0
  2  4  2  0  0  0  0
  4  5  1  0  0  0  0
  5  6  2  0  0  0  0
  5 11  1  0  0  0  0
  6  7  1  0  0  0  0
  6  9  1  0  0  0  0
  7  8  1  0  0  0  0
  9 10  1  0  0  0  0
 10 11  2  0  0  0  0
M  END
>  <CHROM.1>
-11.81887092,-12.62855048,8.23935694,-1.96185043,-1.12543858,2.26910288

>  <Name>
ligand

>  <RI>
0

>  <Rbt.Current_Directory>
/home/itssahil/PROJECTS/Mol_Feturizer/New_Systems/rnas/2b57

>  <Rbt.Executable>
rbdock ($Id: //depot/dev/client3/rdock/2013.1/src/exe/rbdock.cxx#4 $)

>  <Rbt.Library>
libRbt.so (2013.1, Build901 2013/11/27)

>  <Rbt.Parameter_File>
/export/apps/rDock/src/rDock_2013.1_src/data/scripts/dock_solv.prm

>  <Rbt.Receptor>
prm/pocket_docking_7.prm

>  <SCORE>
-9.5855

>  <SCORE.INTER>
-9.5855

>  <SCORE.INTER.CONST>
1

>  <SCORE.INTER.POLAR>
0

>  <SCORE.INTER.ROT>
0

>  <SCORE.INTER.SOLV>
16.7837

>  <SCORE.INTER.VDW>
-15.5849

>  <SCORE.INTER.norm>
-0.871409

>  <SCORE.INTRA>
0

>  <SCORE.INTRA.DIHEDRAL>
0

>  <SCORE.INTRA.DIHEDRAL.0>
0

>  <SCORE.INTRA.POLAR>
0

>  <SCORE.INTRA.POLAR.0>
0

>  <SCORE.INTRA.REPUL>
0

>  <SCORE.INTRA.REPUL.0>
0

>  <SCORE.INTRA.SOLV>
0

>  <SCORE.INTRA.SOLV.lig_0>
-48.3454

>  <SCORE.INTRA.VDW>
0

>  <SCORE.INTRA.VDW.0>
0

>  <SCORE.INTRA.norm>
0

>  <SCORE.RESTR>
0

>  <SCORE.RESTR.CAVITY>
0

>  <SCORE.RESTR.norm>
0

>  <SCORE.SYSTEM>
0

>  <SCORE.SYSTEM.CONST>
0

>  <SCORE.SYSTEM.DIHEDRAL>
0

>  <SCORE.SYSTEM.SOLV>
0

>  <SCORE.SYSTEM.norm>
0

>  <SCORE.heavy>
11

>  <SCORE.norm>
-0.871409

>  <RMSD>
3.728

$$$$
ligand
 OpenBabel01301917033D
libRbt.so/2013.1/901 2013/11/27
 11 12  0  0  0  0  0  0  0  0999 V2000
  -11.7703  -11.6238    6.7969 N   0  0  0  0  0  0  0  0  0  0  0  0
  -12.3226  -10.9125    7.7927 C   0  0  0  0  0  0  0  0  0  0  0  0
  -12.6942   -9.6536    7.5779 N   0  0  0  0  0  0  0  0  0  0  0  0
  -12.4940  -11.4574    9.0072 N   0  0  0  0  0  0  0  0  0  0  0  0
  -12.1146  -12.7206    9.2505 C   0  0  0  0  0  0  0  0  0  0  0  0
  -11.5404  -13.4786    8.2378 C   0  0  0  0  0  0  0  0  0  0  0  0
  -11.3755  -12.8926    6.9871 C   0  0  0  0  0  0  0  0  0  0  0  0
  -10.8391  -13.5851    5.9867 N   0  0  0  0  0  0  0  0  0  0  0  0
  -11.2491  -14.6718    8.7472 N   0  0  0  0  0  0  0  0  0  0  0  0
  -11.6211  -14.6709   10.0253 C   0  0  0  0  0  0  0  0  0  0  0  0
  -12.1478  -13.4883   10.3360 N   0  0  0  0  0  0  0  0  0  0  0  0
  1  7  2  0  0  0  0
  1  2  1  0  0  0  0
  2  3  1  0  0  0  0
  2  4  2  0  0  0  0
  4  5  1  0  0  0  0
  5  6  2  0  0  0  0
  5 11  1  0  0  0  0
  6  7  1  0  0  0  0
  6  9  1  0  0  0  0
  7  8  1  0  0  0  0
  9 10  1  0  0  0  0
 10 11  2  0  0  0  0
M  END
>  <CHROM.1>
-11.83617978,-12.63075430,8.23509244,-1.97053871,-1.13731273,2.25887193

>  <Name>
ligand

>  <RI>
0

>  <Rbt.Current_Directory>
/home/itssahil/PROJECTS/Mol_Feturizer/New_Systems/rnas/2b57

>  <Rbt.Executable>
rbdock ($Id: //depot/dev/client3/rdock/2013.1/src/exe/rbdock.cxx#4 $)

>  <Rbt.Library>
libRbt.so (2013.1, Build901 2013/11/27)

>  <Rbt.Parameter_File>
/export/apps/rDock/src/rDock_2013.1_src/data/scripts/dock_solv.prm

>  <Rbt.Receptor>
prm/blind_docking_40.prm

>  <SCORE>
-9.56717

>  <SCORE.INTER>
-9.56717

>  <SCORE.INTER.CONST>
1

>  <SCORE.INTER.POLAR>
0

>  <SCORE.INTER.ROT>
0

>  <SCORE.INTER.SOLV>
16.8559

>  <SCORE.INTER.VDW>
-15.5967

>  <SCORE.INTER.norm>
-0.869743

>  <SCORE.INTRA>
0

>  <SCORE.INTRA.DIHEDRAL>
0

>  <SCORE.INTRA.DIHEDRAL.0>
0

>  <SCORE.INTRA.POLAR>
0

>  <SCORE.INTRA.POLAR.0>
0

>  <SCORE.INTRA.REPUL>
0

>  <SCORE.INTRA.REPUL.0>
0

>  <SCORE.INTRA.SOLV>
0

>  <SCORE.INTRA.SOLV.lig_0>
-48.3454

>  <SCORE.INTRA.VDW>
0

>  <SCORE.INTRA.VDW.0>
0

>  <SCORE.INTRA.norm>
0

>  <SCORE.RESTR>
0

>  <SCORE.RESTR.CAVITY>
0

>  <SCORE.RESTR.norm>
0

>  <SCORE.SYSTEM>
0

>  <SCORE.SYSTEM.CONST>
0

>  <SCORE.SYSTEM.DIHEDRAL>
0

>  <SCORE.SYSTEM.SOLV>
0

>  <SCORE.SYSTEM.norm>
0

>  <SCORE.heavy>
11

>  <SCORE.norm>
-0.869743

>  <RMSD>
3.729

$$$$
ligand
 OpenBabel01301917033D
libRbt.so/2013.1/901 2013/11/27
 11 12  0  0  0  0  0  0  0  0999 V2000
  -11.7676  -11.6041    6.7921 N   0  0  0  0  0  0  0  0  0  0  0  0
  -12.3234  -10.8957    7.7881 C   0  0  0  0  0  0  0  0  0  0  0  0
  -12.7041   -9.6397    7.5726 N   0  0  0  0  0  0  0  0  0  0  0  0
  -12.4891  -11.4406    9.0033 N   0  0  0  0  0  0  0  0  0  0  0  0
  -12.1004  -12.7008    9.2474 C   0  0  0  0  0  0  0  0  0  0  0  0
  -11.5225  -13.4558    8.2346 C   0  0  0  0  0  0  0  0  0  0  0  0
  -11.3637  -12.8700    6.9830 C   0  0  0  0  0  0  0  0  0  0  0  0
  -10.8240  -13.5597    5.9825 N   0  0  0  0  0  0  0  0  0  0  0  0
  -11.2221  -14.6464    8.7447 N   0  0  0  0  0  0  0  0  0  0  0  0
  -11.5921  -14.6468   10.0234 C   0  0  0  0  0  0  0  0  0  0  0  0
  -12.1266  -13.4676   10.3337 N   0  0  0  0  0  0  0  0  0  0  0  0
  1  7  2  0  0  0  0
  1  2  1  0  0  0  0
  2  3  1  0  0  0  0
  2  4  2  0  0  0  0
  4  5  1  0  0  0  0
  5  6  2  0  0  0  0
  5 11  1  0  0  0  0
  6  7  1  0  0  0  0
  6  9  1  0  0  0  0
  7  8  1  0  0  0  0
  9 10  1  0  0  0  0
 10 11  2  0  0  0  0
M  END
>  <CHROM.1>
-11.82427178,-12.61006401,8.23145498,-1.98382631,-1.13285124,2.24580115

>  <Name>
ligand

>  <RI>
0

>  <Rbt.Current_Directory>
/home/itssahil/PROJECTS/Mol_Feturizer/New_Systems/rnas/2b57

>  <Rbt.Executable>
rbdock ($Id: //depot/dev/client3/rdock/2013.1/src/exe/rbdock.cxx#4 $)

>  <Rbt.Library>
libRbt.so (2013.1, Build901 2013/11/27)

>  <Rbt.Parameter_File>
/export/apps/rDock/src/rDock_2013.1_src/data/scripts/dock_solv.prm

>  <Rbt.Receptor>
prm/blind_docking_40.prm

>  <SCORE>
-9.61605

>  <SCORE.INTER>
-9.61605

>  <SCORE.INTER.CONST>
1

>  <SCORE.INTER.POLAR>
0

>  <SCORE.INTER.ROT>
0

>  <SCORE.INTER.SOLV>
16.8184

>  <SCORE.INTER.VDW>
-15.6169

>  <SCORE.INTER.norm>
-0.874187

>  <SCORE.INTRA>
0

>  <SCORE.INTRA.DIHEDRAL>
0

>  <SCORE.INTRA.DIHEDRAL.0>
0

>  <SCORE.INTRA.POLAR>
0

>  <SCORE.INTRA.POLAR.0>
0

>  <SCORE.INTRA.REPUL>
0

>  <SCORE.INTRA.REPUL.0>
0

>  <SCORE.INTRA.SOLV>
0

>  <SCORE.INTRA.SOLV.lig_0>
-48.3454

>  <SCORE.INTRA.VDW>
0

>  <SCORE.INTRA.VDW.0>
0

>  <SCORE.INTRA.norm>
0

>  <SCORE.RESTR>
0

>  <SCORE.RESTR.CAVITY>
0

>  <SCORE.RESTR.norm>
0

>  <SCORE.SYSTEM>
0

>  <SCORE.SYSTEM.CONST>
0

>  <SCORE.SYSTEM.DIHEDRAL>
0

>  <SCORE.SYSTEM.SOLV>
0

>  <SCORE.SYSTEM.norm>
0

>  <SCORE.heavy>
11

>  <SCORE.norm>
-0.874187

>  <RMSD>
3.729

$$$$
ligand
 OpenBabel01301917033D
libRbt.so/2013.1/901 2013/11/27
 11 12  0  0  0  0  0  0  0  0999 V2000
  -11.7462  -11.5841    6.7964 N   0  0  0  0  0  0  0  0  0  0  0  0
  -12.3242  -10.8847    7.7861 C   0  0  0  0  0  0  0  0  0  0  0  0
  -12.7105   -9.6305    7.5702 N   0  0  0  0  0  0  0  0  0  0  0  0
  -12.5066  -11.4368    8.9956 N   0  0  0  0  0  0  0  0  0  0  0  0
  -12.1129  -12.6954    9.2402 C   0  0  0  0  0  0  0  0  0  0  0  0
  -11.5121  -13.4411    8.2338 C   0  0  0  0  0  0  0  0  0  0  0  0
  -11.3362  -12.8479    6.9881 C   0  0  0  0  0  0  0  0  0  0  0  0
  -10.7743  -13.5286    5.9936 N   0  0  0  0  0  0  0  0  0  0  0  0
  -11.2115  -14.6319    8.7433 N   0  0  0  0  0  0  0  0  0  0  0  0
  -11.6034  -14.6414   10.0154 C   0  0  0  0  0  0  0  0  0  0  0  0
  -12.1519  -13.4677   10.3222 N   0  0  0  0  0  0  0  0  0  0  0  0
  1  7  2  0  0  0  0
  1  2  1  0  0  0  0
  2  3  1  0  0  0  0
  2  4  2  0  0  0  0
  4  5  1  0  0  0  0
  5  6  2  0  0  0  0
  5 11  1  0  0  0  0
  6  7  1  0  0  0  0
  6  9  1  0  0  0  0
  7  8  1  0  0  0  0
  9 10  1  0  0  0  0
 10 11  2  0  0  0  0
M  END
>  <CHROM.1>
-11.81998824,-12.59755442,8.22962125,-1.96394476,-1.11625318,2.26865040

>  <Name>
ligand

>  <RI>
0

>  <Rbt.Current_Directory>
/home/itssahil/PROJECTS/Mol_Feturizer/New_Systems/rnas/2b57

>  <Rbt.Executable>
rbdock ($Id: //depot/dev/client3/rdock/2013.1/src/exe/rbdock.cxx#4 $)

>  <Rbt.Library>
libRbt.so (2013.1, Build901 2013/11/27)

>  <Rbt.Parameter_File>
/export/apps/rDock/src/rDock_2013.1_src/data/scripts/dock_solv.prm

>  <Rbt.Receptor>
prm/pocket_docking_6.prm

>  <SCORE>
-9.62329

>  <SCORE.INTER>
-9.62329

>  <SCORE.INTER.CONST>
1

>  <SCORE.INTER.POLAR>
0

>  <SCORE.INTER.ROT>
0

>  <SCORE.INTER.SOLV>
16.7197

>  <SCORE.INTER.VDW>
-15.5888

>  <SCORE.INTER.norm>
-0.874845

>  <SCORE.INTRA>
0

>  <SCORE.INTRA.DIHEDRAL>
0

>  <SCORE.INTRA.DIHEDRAL.0>
0

>  <SCORE.INTRA.POLAR>
0

>  <SCORE.INTRA.POLAR.0>
0

>  <SCORE.INTRA.REPUL>
0

>  <SCORE.INTRA.REPUL.0>
0

>  <SCORE.INTRA.SOLV>
0

>  <SCORE.INTRA.SOLV.lig_0>
-48.3454

>  <SCORE.INTRA.VDW>
0

>  <SCORE.INTRA.VDW.0>
0

>  <SCORE.INTRA.norm>
0

>  <SCORE.RESTR>
0

>  <SCORE.RESTR.CAVITY>
0

>  <SCORE.RESTR.norm>
0

>  <SCORE.SYSTEM>
0

>  <SCORE.SYSTEM.CONST>
0

>  <SCORE.SYSTEM.DIHEDRAL>
0

>  <SCORE.SYSTEM.SOLV>
0

>  <SCORE.SYSTEM.norm>
0

>  <SCORE.heavy>
11

>  <SCORE.norm>
-0.874845

>  <RMSD>
3.729

$$$$
ligand
 OpenBabel01301917033D
libRbt.so/2013.1/901 2013/11/27
 11 12  0  0  0  0  0  0  0  0999 V2000
  -11.7488  -11.5969    6.8103 N   0  0  0  0  0  0  0  0  0  0  0  0
  -12.3150  -10.8930    7.8036 C   0  0  0  0  0  0  0  0  0  0  0  0
  -12.6887   -9.6343    7.5914 N   0  0  0  0  0  0  0  0  0  0  0  0
  -12.4981  -11.4451    9.0131 N   0  0  0  0  0  0  0  0  0  0  0  0
  -12.1168  -12.7083    9.2539 C   0  0  0  0  0  0  0  0  0  0  0  0
  -11.5284  -13.4587    8.2437 C   0  0  0  0  0  0  0  0  0  0  0  0
  -11.3516  -12.8654    6.9982 C   0  0  0  0  0  0  0  0  0  0  0  0
  -10.8014  -13.5505    6.0001 N   0  0  0  0  0  0  0  0  0  0  0  0
  -11.2385  -14.6535    8.7499 N   0  0  0  0  0  0  0  0  0  0  0  0
  -11.6249  -14.6609   10.0238 C   0  0  0  0  0  0  0  0  0  0  0  0
  -12.1594  -13.4819   10.3348 N   0  0  0  0  0  0  0  0  0  0  0  0
  1  7  2  0  0  0  0
  1  2  1  0  0  0  0
  2  3  1  0  0  0  0
  2  4  2  0  0  0  0
  4  5  1  0  0  0  0
  5  6  2  0  0  0  0
  5 11  1  0  0  0  0
  6  7  1  0  0  0  0
  6  9  1  0  0  0  0
  7  8  1  0  0  0  0
  9 10  1  0  0  0  0
 10 11  2  0  0  0  0
M  END
>  <CHROM.1>
-11.82727483,-12.61189180,8.24221159,-1.95560444,-1.12727252,2.27778312

>  <Name>
ligand

>  <RI>
0

>  <Rbt.Current_Directory>
/home/itssahil/PROJECTS/Mol_Feturizer/New_Systems/rnas/2b57

>  <Rbt.Executable>
rbdock ($Id: //depot/dev/client3/rdock/2013.1/src/exe/rbdock.cxx#4 $)

>  <Rbt.Library>
libRbt.so (2013.1, Build901 2013/11/27)

>  <Rbt.Parameter_File>
/export/apps/rDock/src/rDock_2013.1_src/data/scripts/dock_solv.prm

>  <Rbt.Receptor>
prm/pocket_docking_8.prm

>  <SCORE>
-9.57898

>  <SCORE.INTER>
-9.57898

>  <SCORE.INTER.CONST>
1

>  <SCORE.INTER.POLAR>
0

>  <SCORE.INTER.ROT>
0

>  <SCORE.INTER.SOLV>
16.8051

>  <SCORE.INTER.VDW>
-15.5877

>  <SCORE.INTER.norm>
-0.870816

>  <SCORE.INTRA>
0

>  <SCORE.INTRA.DIHEDRAL>
0

>  <SCORE.INTRA.DIHEDRAL.0>
0

>  <SCORE.INTRA.POLAR>
0

>  <SCORE.INTRA.POLAR.0>
0

>  <SCORE.INTRA.REPUL>
0

>  <SCORE.INTRA.REPUL.0>
0

>  <SCORE.INTRA.SOLV>
0

>  <SCORE.INTRA.SOLV.lig_0>
-48.3454

>  <SCORE.INTRA.VDW>
0

>  <SCORE.INTRA.VDW.0>
0

>  <SCORE.INTRA.norm>
0

>  <SCORE.RESTR>
0

>  <SCORE.RESTR.CAVITY>
0

>  <SCORE.RESTR.norm>
0

>  <SCORE.SYSTEM>
0

>  <SCORE.SYSTEM.CONST>
0

>  <SCORE.SYSTEM.DIHEDRAL>
0

>  <SCORE.SYSTEM.SOLV>
0

>  <SCORE.SYSTEM.norm>
0

>  <SCORE.heavy>
11

>  <SCORE.norm>
-0.870816

>  <RMSD>
3.729

$$$$
ligand
 OpenBabel01301917033D
libRbt.so/2013.1/901 2013/11/27
 11 12  0  0  0  0  0  0  0  0999 V2000
  -11.7716  -11.5920    6.8016 N   0  0  0  0  0  0  0  0  0  0  0  0
  -12.3274  -10.8857    7.7991 C   0  0  0  0  0  0  0  0  0  0  0  0
  -12.6944   -9.6244    7.5904 N   0  0  0  0  0  0  0  0  0  0  0  0
  -12.5067  -11.4379    9.0090 N   0  0  0  0  0  0  0  0  0  0  0  0
  -12.1319  -12.7037    9.2462 C   0  0  0  0  0  0  0  0  0  0  0  0
  -11.5544  -13.4567    8.2317 C   0  0  0  0  0  0  0  0  0  0  0  0
  -11.3813  -12.8632    6.9857 C   0  0  0  0  0  0  0  0  0  0  0  0
  -10.8414  -13.5506    5.9837 N   0  0  0  0  0  0  0  0  0  0  0  0
  -11.2690  -14.6539    8.7349 N   0  0  0  0  0  0  0  0  0  0  0  0
  -11.6478  -14.6602   10.0110 C   0  0  0  0  0  0  0  0  0  0  0  0
  -12.1730  -13.4782   10.3265 N   0  0  0  0  0  0  0  0  0  0  0  0
  1  7  2  0  0  0  0
  1  2  1  0  0  0  0
  2  3  1  0  0  0  0
  2  4  2  0  0  0  0
  4  5  1  0  0  0  0
  5  6  2  0  0  0  0
  5 11  1  0  0  0  0
  6  7  1  0  0  0  0
  6  9  1  0  0  0  0
  7  8  1  0  0  0  0
  9 10  1  0  0  0  0
 10 11  2  0  0  0  0
M  END
>  <CHROM.1>
-11.84787962,-12.60806646,8.23289610,-1.95671482,-1.13595002,2.27785410

>  <Name>
ligand

>  <RI>
0

>  <Rbt.Current_Directory>
/home/itssahil/PROJECTS/Mol_Feturizer/New_Systems/rnas/2b57

>  <Rbt.Executable>
rbdock ($Id: //depot/dev/client3/rdock/2013.1/src/exe/rbdock.cxx#4 $)

>  <Rbt.Library>
libRbt.so (2013.1, Build901 2013/11/27)

>  <Rbt.Parameter_File>
/export/apps/rDock/src/rDock_2013.1_src/data/scripts/dock_solv.prm

>  <Rbt.Receptor>
prm/pocket_docking_8.prm

>  <SCORE>
-9.58064

>  <SCORE.INTER>
-9.58064

>  <SCORE.INTER.CONST>
1

>  <SCORE.INTER.POLAR>
0

>  <SCORE.INTER.ROT>
0

>  <SCORE.INTER.SOLV>
16.8859

>  <SCORE.INTER.VDW>
-15.6157

>  <SCORE.INTER.norm>
-0.870967

>  <SCORE.INTRA>
0

>  <SCORE.INTRA.DIHEDRAL>
0

>  <SCORE.INTRA.DIHEDRAL.0>
0

>  <SCORE.INTRA.POLAR>
0

>  <SCORE.INTRA.POLAR.0>
0

>  <SCORE.INTRA.REPUL>
0

>  <SCORE.INTRA.REPUL.0>
0

>  <SCORE.INTRA.SOLV>
0

>  <SCORE.INTRA.SOLV.lig_0>
-48.3454

>  <SCORE.INTRA.VDW>
0

>  <SCORE.INTRA.VDW.0>
0

>  <SCORE.INTRA.norm>
0

>  <SCORE.RESTR>
0

>  <SCORE.RESTR.CAVITY>
0

>  <SCORE.RESTR.norm>
0

>  <SCORE.SYSTEM>
0

>  <SCORE.SYSTEM.CONST>
0

>  <SCORE.SYSTEM.DIHEDRAL>
0

>  <SCORE.SYSTEM.SOLV>
0

>  <SCORE.SYSTEM.norm>
0

>  <SCORE.heavy>
11

>  <SCORE.norm>
-0.870967

>  <RMSD>
3.729

$$$$
ligand
 OpenBabel01301917033D
libRbt.so/2013.1/901 2013/11/27
 11 12  0  0  0  0  0  0  0  0999 V2000
  -11.7694  -11.6059    6.7913 N   0  0  0  0  0  0  0  0  0  0  0  0
  -12.3191  -10.8941    7.7882 C   0  0  0  0  0  0  0  0  0  0  0  0
  -12.6904   -9.6350    7.5739 N   0  0  0  0  0  0  0  0  0  0  0  0
  -12.4882  -11.4387    9.0031 N   0  0  0  0  0  0  0  0  0  0  0  0
  -12.1090  -12.7021    9.2458 C   0  0  0  0  0  0  0  0  0  0  0  0
  -11.5375  -13.4606    8.2320 C   0  0  0  0  0  0  0  0  0  0  0  0
  -11.3750  -12.8750    6.9809 C   0  0  0  0  0  0  0  0  0  0  0  0
  -10.8412  -13.5679    5.9794 N   0  0  0  0  0  0  0  0  0  0  0  0
  -11.2458  -14.6538    8.7410 N   0  0  0  0  0  0  0  0  0  0  0  0
  -11.6150  -14.6525   10.0199 C   0  0  0  0  0  0  0  0  0  0  0  0
  -12.1403  -13.4695   10.3315 N   0  0  0  0  0  0  0  0  0  0  0  0
  1  7  2  0  0  0  0
  1  2  1  0  0  0  0
  2  3  1  0  0  0  0
  2  4  2  0  0  0  0
  4  5  1  0  0  0  0
  5  6  2  0  0  0  0
  5 11  1  0  0  0  0
  6  7  1  0  0  0  0
  6  9  1  0  0  0  0
  7  8  1  0  0  0  0
  9 10  1  0  0  0  0
 10 11  2  0  0  0  0
M  END
>  <CHROM.1>
-11.83277674,-12.61257735,8.22979246,-1.97361588,-1.13916178,2.25588902

>  <Name>
ligand

>  <RI>
0

>  <Rbt.Current_Directory>
/home/itssahil/PROJECTS/Mol_Feturizer/New_Systems/rnas/2b57

>  <Rbt.Executable>
rbdock ($Id: //depot/dev/client3/rdock/2013.1/src/exe/rbdock.cxx#4 $)

>  <Rbt.Library>
libRbt.so (2013.1, Build901 2013/11/27)

>  <Rbt.Parameter_File>
/export/apps/rDock/src/rDock_2013.1_src/data/scripts/dock_solv.prm

>  <Rbt.Receptor>
prm/blind_docking_100.prm

>  <SCORE>
-9.58346

>  <SCORE.INTER>
-9.58346

>  <SCORE.INTER.CONST>
1

>  <SCORE.INTER.POLAR>
0

>  <SCORE.INTER.ROT>
0

>  <SCORE.INTER.SOLV>
16.9027

>  <SCORE.INTER.VDW>
-15.6232

>  <SCORE.INTER.norm>
-0.871224

>  <SCORE.INTRA>
0

>  <SCORE.INTRA.DIHEDRAL>
0

>  <SCORE.INTRA.DIHEDRAL.0>
0

>  <SCORE.INTRA.POLAR>
0

>  <SCORE.INTRA.POLAR.0>
0

>  <SCORE.INTRA.REPUL>
0

>  <SCORE.INTRA.REPUL.0>
0

>  <SCORE.INTRA.SOLV>
0

>  <SCORE.INTRA.SOLV.lig_0>
-48.3454

>  <SCORE.INTRA.VDW>
0

>  <SCORE.INTRA.VDW.0>
0

>  <SCORE.INTRA.norm>
0

>  <SCORE.RESTR>
0

>  <SCORE.RESTR.CAVITY>
0

>  <SCORE.RESTR.norm>
0

>  <SCORE.SYSTEM>
0

>  <SCORE.SYSTEM.CONST>
0

>  <SCORE.SYSTEM.DIHEDRAL>
0

>  <SCORE.SYSTEM.SOLV>
0

>  <SCORE.SYSTEM.norm>
0

>  <SCORE.heavy>
11

>  <SCORE.norm>
-0.871224

>  <RMSD>
3.730

$$$$
ligand
 OpenBabel01301917033D
libRbt.so/2013.1/901 2013/11/27
 11 12  0  0  0  0  0  0  0  0999 V2000
  -11.7062  -11.6507    6.7983 N   0  0  0  0  0  0  0  0  0  0  0  0
  -12.2750  -10.9337    7.7807 C   0  0  0  0  0  0  0  0  0  0  0  0
  -12.6387   -9.6746    7.5537 N   0  0  0  0  0  0  0  0  0  0  0  0
  -12.4707  -11.4730    8.9939 N   0  0  0  0  0  0  0  0  0  0  0  0
  -12.0997  -12.7363    9.2494 C   0  0  0  0  0  0  0  0  0  0  0  0
  -11.5088  -13.5001    8.2509 C   0  0  0  0  0  0  0  0  0  0  0  0
  -11.3188  -12.9199    7.0011 C   0  0  0  0  0  0  0  0  0  0  0  0
  -10.7658  -13.6180    6.0137 N   0  0  0  0  0  0  0  0  0  0  0  0
  -11.2307  -14.6920    8.7705 N   0  0  0  0  0  0  0  0  0  0  0  0
  -11.6266  -14.6847   10.0414 C   0  0  0  0  0  0  0  0  0  0  0  0
  -12.1555  -13.4993   10.3373 N   0  0  0  0  0  0  0  0  0  0  0  0
  1  7  2  0  0  0  0
  1  2  1  0  0  0  0
  2  3  1  0  0  0  0
  2  4  2  0  0  0  0
  4  5  1  0  0  0  0
  5  6  2  0  0  0  0
  5 11  1  0  0  0  0
  6  7  1  0  0  0  0
  6  9  1  0  0  0  0
  7  8  1  0  0  0  0
  9 10  1  0  0  0  0
 10 11  2  0  0  0  0
M  END
>  <CHROM.1>
-11.80202550,-12.65146181,8.23909159,-1.93238022,-1.12741259,2.28929112

>  <Name>
ligand

>  <RI>
0

>  <Rbt.Current_Directory>
/home/itssahil/PROJECTS/Mol_Feturizer/New_Systems/rnas/2b57

>  <Rbt.Executable>
rbdock ($Id: //depot/dev/client3/rdock/2013.1/src/exe/rbdock.cxx#4 $)

>  <Rbt.Library>
libRbt.so (2013.1, Build901 2013/11/27)

>  <Rbt.Parameter_File>
/export/apps/rDock/src/rDock_2013.1_src/data/scripts/dock_solv.prm

>  <Rbt.Receptor>
prm/blind_docking_100.prm

>  <SCORE>
-9.61001

>  <SCORE.INTER>
-9.61001

>  <SCORE.INTER.CONST>
1

>  <SCORE.INTER.POLAR>
0

>  <SCORE.INTER.ROT>
0

>  <SCORE.INTER.SOLV>
16.8844

>  <SCORE.INTER.VDW>
-15.6348

>  <SCORE.INTER.norm>
-0.873638

>  <SCORE.INTRA>
0

>  <SCORE.INTRA.DIHEDRAL>
0

>  <SCORE.INTRA.DIHEDRAL.0>
0

>  <SCORE.INTRA.POLAR>
0

>  <SCORE.INTRA.POLAR.0>
0

>  <SCORE.INTRA.REPUL>
0

>  <SCORE.INTRA.REPUL.0>
0

>  <SCORE.INTRA.SOLV>
0

>  <SCORE.INTRA.SOLV.lig_0>
-48.3454

>  <SCORE.INTRA.VDW>
0

>  <SCORE.INTRA.VDW.0>
0

>  <SCORE.INTRA.norm>
0

>  <SCORE.RESTR>
0

>  <SCORE.RESTR.CAVITY>
0

>  <SCORE.RESTR.norm>
0

>  <SCORE.SYSTEM>
0

>  <SCORE.SYSTEM.CONST>
0

>  <SCORE.SYSTEM.DIHEDRAL>
0

>  <SCORE.SYSTEM.SOLV>
0

>  <SCORE.SYSTEM.norm>
0

>  <SCORE.heavy>
11

>  <SCORE.norm>
-0.873638

>  <RMSD>
3.733

$$$$
ligand
 OpenBabel01301917033D
libRbt.so/2013.1/901 2013/11/27
 11 12  0  0  0  0  0  0  0  0999 V2000
  -11.7224  -11.6541    6.8123 N   0  0  0  0  0  0  0  0  0  0  0  0
  -12.2892  -10.9373    7.7960 C   0  0  0  0  0  0  0  0  0  0  0  0
  -12.6592   -9.6803    7.5682 N   0  0  0  0  0  0  0  0  0  0  0  0
  -12.4765  -11.4748    9.0113 N   0  0  0  0  0  0  0  0  0  0  0  0
  -12.0989  -12.7360    9.2677 C   0  0  0  0  0  0  0  0  0  0  0  0
  -11.5101  -13.4996    8.2678 C   0  0  0  0  0  0  0  0  0  0  0  0
  -11.3288  -12.9212    7.0158 C   0  0  0  0  0  0  0  0  0  0  0  0
  -10.7779  -13.6193    6.0272 N   0  0  0  0  0  0  0  0  0  0  0  0
  -11.2243  -14.6892    8.7886 N   0  0  0  0  0  0  0  0  0  0  0  0
  -11.6138  -14.6807   10.0614 C   0  0  0  0  0  0  0  0  0  0  0  0
  -12.1461  -13.4969   10.3575 N   0  0  0  0  0  0  0  0  0  0  0  0
  1  7  2  0  0  0  0
  1  2  1  0  0  0  0
  2  3  1  0  0  0  0
  2  4  2  0  0  0  0
  4  5  1  0  0  0  0
  5  6  2  0  0  0  0
  5 11  1  0  0  0  0
  6  7  1  0  0  0  0
  6  9  1  0  0  0  0
  7  8  1  0  0  0  0
  9 10  1  0  0  0  0
 10 11  2  0  0  0  0
M  END
>  <CHROM.1>
-11.80679080,-12.65214834,8.25569509,-1.94760920,-1.12759332,2.27336798

>  <Name>
ligand

>  <RI>
0

>  <Rbt.Current_Directory>
/home/itssahil/PROJECTS/Mol_Feturizer/New_Systems/rnas/2b57

>  <Rbt.Executable>
rbdock ($Id: //depot/dev/client3/rdock/2013.1/src/exe/rbdock.cxx#4 $)

>  <Rbt.Library>
libRbt.so (2013.1, Build901 2013/11/27)

>  <Rbt.Parameter_File>
/export/apps/rDock/src/rDock_2013.1_src/data/scripts/dock_solv.prm

>  <Rbt.Receptor>
prm/pocket_docking_7.prm

>  <SCORE>
-9.59295

>  <SCORE.INTER>
-9.59295

>  <SCORE.INTER.CONST>
1

>  <SCORE.INTER.POLAR>
0

>  <SCORE.INTER.ROT>
0

>  <SCORE.INTER.SOLV>
16.8038

>  <SCORE.INTER.VDW>
-15.5966

>  <SCORE.INTER.norm>
-0.872086

>  <SCORE.INTRA>
0

>  <SCORE.INTRA.DIHEDRAL>
0

>  <SCORE.INTRA.DIHEDRAL.0>
0

>  <SCORE.INTRA.POLAR>
0

>  <SCORE.INTRA.POLAR.0>
0

>  <SCORE.INTRA.REPUL>
0

>  <SCORE.INTRA.REPUL.0>
0

>  <SCORE.INTRA.SOLV>
0

>  <SCORE.INTRA.SOLV.lig_0>
-48.3454

>  <SCORE.INTRA.VDW>
0

>  <SCORE.INTRA.VDW.0>
0

>  <SCORE.INTRA.norm>
0

>  <SCORE.RESTR>
0

>  <SCORE.RESTR.CAVITY>
0

>  <SCORE.RESTR.norm>
0

>  <SCORE.SYSTEM>
0

>  <SCORE.SYSTEM.CONST>
0

>  <SCORE.SYSTEM.DIHEDRAL>
0

>  <SCORE.SYSTEM.SOLV>
0

>  <SCORE.SYSTEM.norm>
0

>  <SCORE.heavy>
11

>  <SCORE.norm>
-0.872086

>  <RMSD>
3.735

$$$$
ligand
 OpenBabel01301917033D
libRbt.so/2013.1/901 2013/11/27
 11 12  0  0  0  0  0  0  0  0999 V2000
  -11.5944  -11.6046    6.8054 N   0  0  0  0  0  0  0  0  0  0  0  0
  -12.1002  -10.8611    7.8025 C   0  0  0  0  0  0  0  0  0  0  0  0
  -12.3809   -9.5781    7.5929 N   0  0  0  0  0  0  0  0  0  0  0  0
  -12.3158  -11.3988    9.0131 N   0  0  0  0  0  0  0  0  0  0  0  0
  -12.0277  -12.6869    9.2513 C   0  0  0  0  0  0  0  0  0  0  0  0
  -11.5033  -13.4783    8.2372 C   0  0  0  0  0  0  0  0  0  0  0  0
  -11.2912  -12.8991    6.9906 C   0  0  0  0  0  0  0  0  0  0  0  0
  -10.7999  -13.6226    5.9889 N   0  0  0  0  0  0  0  0  0  0  0  0
  -11.2995  -14.6917    8.7414 N   0  0  0  0  0  0  0  0  0  0  0  0
  -11.6770  -14.6711   10.0178 C   0  0  0  0  0  0  0  0  0  0  0  0
  -12.1205  -13.4558   10.3324 N   0  0  0  0  0  0  0  0  0  0  0  0
  1  7  2  0  0  0  0
  1  2  1  0  0  0  0
  2  3  1  0  0  0  0
  2  4  2  0  0  0  0
  4  5  1  0  0  0  0
  5  6  2  0  0  0  0
  5 11  1  0  0  0  0
  6  7  1  0  0  0  0
  6  9  1  0  0  0  0
  7  8  1  0  0  0  0
  9 10  1  0  0  0  0
 10 11  2  0  0  0  0
M  END
>  <CHROM.1>
-11.73850741,-12.61171195,8.23775646,-1.84038452,-1.18576311,2.38363852

>  <Name>
ligand

>  <RI>
0

>  <Rbt.Current_Directory>
/home/itssahil/PROJECTS/Mol_Feturizer/New_Systems/rnas/2b57

>  <Rbt.Executable>
rbdock ($Id: //depot/dev/client3/rdock/2013.1/src/exe/rbdock.cxx#4 $)

>  <Rbt.Library>
libRbt.so (2013.1, Build901 2013/11/27)

>  <Rbt.Parameter_File>
/export/apps/rDock/src/rDock_2013.1_src/data/scripts/dock_solv.prm

>  <Rbt.Receptor>
prm/pocket_docking_7.prm

>  <SCORE>
-9.56736

>  <SCORE.INTER>
-9.56736

>  <SCORE.INTER.CONST>
1

>  <SCORE.INTER.POLAR>
0

>  <SCORE.INTER.ROT>
0

>  <SCORE.INTER.SOLV>
17.7944

>  <SCORE.INTER.VDW>
-15.9097

>  <SCORE.INTER.norm>
-0.86976

>  <SCORE.INTRA>
0

>  <SCORE.INTRA.DIHEDRAL>
0

>  <SCORE.INTRA.DIHEDRAL.0>
0

>  <SCORE.INTRA.POLAR>
0

>  <SCORE.INTRA.POLAR.0>
0

>  <SCORE.INTRA.REPUL>
0

>  <SCORE.INTRA.REPUL.0>
0

>  <SCORE.INTRA.SOLV>
0

>  <SCORE.INTRA.SOLV.lig_0>
-48.3454

>  <SCORE.INTRA.VDW>
0

>  <SCORE.INTRA.VDW.0>
0

>  <SCORE.INTRA.norm>
0

>  <SCORE.RESTR>
0

>  <SCORE.RESTR.CAVITY>
0

>  <SCORE.RESTR.norm>
0

>  <SCORE.SYSTEM>
0

>  <SCORE.SYSTEM.CONST>
0

>  <SCORE.SYSTEM.DIHEDRAL>
0

>  <SCORE.SYSTEM.SOLV>
0

>  <SCORE.SYSTEM.norm>
0

>  <SCORE.heavy>
11

>  <SCORE.norm>
-0.86976

>  <RMSD>
3.736

$$$$
ligand
 OpenBabel01301917033D
libRbt.so/2013.1/901 2013/11/27
 11 12  0  0  0  0  0  0  0  0999 V2000
  -12.8173  -10.3011    8.3164 N   0  0  0  0  0  0  0  0  0  0  0  0
  -13.3117  -11.5326    8.5208 C   0  0  0  0  0  0  0  0  0  0  0  0
  -12.6707  -12.3766    9.3245 N   0  0  0  0  0  0  0  0  0  0  0  0
  -14.4424  -11.9237    7.9129 N   0  0  0  0  0  0  0  0  0  0  0  0
  -15.0983  -11.0942    7.0878 C   0  0  0  0  0  0  0  0  0  0  0  0
  -14.6084   -9.8147    6.8588 C   0  0  0  0  0  0  0  0  0  0  0  0
  -13.4363   -9.4316    7.5023 C   0  0  0  0  0  0  0  0  0  0  0  0
  -12.9373   -8.2128    7.3191 N   0  0  0  0  0  0  0  0  0  0  0  0
  -15.4318   -9.2184    6.0018 N   0  0  0  0  0  0  0  0  0  0  0  0
  -16.4001  -10.0807    5.7002 C   0  0  0  0  0  0  0  0  0  0  0  0
  -16.2025  -11.2215    6.3576 N   0  0  0  0  0  0  0  0  0  0  0  0
  1  7  2  0  0  0  0
  1  2  1  0  0  0  0
  2  3  1  0  0  0  0
  2  4  2  0  0  0  0
  4  5  1  0  0  0  0
  5  6  2  0  0  0  0
  5 11  1  0  0  0  0
  6  7  1  0  0  0  0
  6  9  1  0  0  0  0
  7  8  1  0  0  0  0
  9 10  1  0  0  0  0
 10 11  2  0  0  0  0
M  END
>  <CHROM.1>
-14.28675812,-10.47916675,7.37002650,-0.61096209,-0.56959198,-0.41616063

>  <Name>
ligand

>  <RI>
0

>  <Rbt.Current_Directory>
/home/itssahil/PROJECTS/Mol_Feturizer/New_Systems/rnas/2b57

>  <Rbt.Executable>
rbdock ($Id: //depot/dev/client3/rdock/2013.1/src/exe/rbdock.cxx#4 $)

>  <Rbt.Library>
libRbt.so (2013.1, Build901 2013/11/27)

>  <Rbt.Parameter_File>
/export/apps/rDock/src/rDock_2013.1_src/data/scripts/dock_solv.prm

>  <Rbt.Receptor>
prm/blind_docking_40.prm

>  <SCORE>
-6.49592

>  <SCORE.INTER>
-6.49592

>  <SCORE.INTER.CONST>
1

>  <SCORE.INTER.POLAR>
0

>  <SCORE.INTER.ROT>
0

>  <SCORE.INTER.SOLV>
15.5895

>  <SCORE.INTER.VDW>
-13.1271

>  <SCORE.INTER.norm>
-0.590538

>  <SCORE.INTRA>
0

>  <SCORE.INTRA.DIHEDRAL>
0

>  <SCORE.INTRA.DIHEDRAL.0>
0

>  <SCORE.INTRA.POLAR>
0

>  <SCORE.INTRA.POLAR.0>
0

>  <SCORE.INTRA.REPUL>
0

>  <SCORE.INTRA.REPUL.0>
0

>  <SCORE.INTRA.SOLV>
0

>  <SCORE.INTRA.SOLV.lig_0>
-48.3454

>  <SCORE.INTRA.VDW>
0

>  <SCORE.INTRA.VDW.0>
0

>  <SCORE.INTRA.norm>
0

>  <SCORE.RESTR>
0

>  <SCORE.RESTR.CAVITY>
0

>  <SCORE.RESTR.norm>
0

>  <SCORE.SYSTEM>
0

>  <SCORE.SYSTEM.CONST>
0

>  <SCORE.SYSTEM.DIHEDRAL>
0

>  <SCORE.SYSTEM.SOLV>
0

>  <SCORE.SYSTEM.norm>
0

>  <SCORE.heavy>
11

>  <SCORE.norm>
-0.590538

>  <RMSD>
4.324

$$$$
ligand
 OpenBabel01301917033D
libRbt.so/2013.1/901 2013/11/27
 11 12  0  0  0  0  0  0  0  0999 V2000
  -12.8111  -10.2882    8.3531 N   0  0  0  0  0  0  0  0  0  0  0  0
  -13.3131  -11.5214    8.5261 C   0  0  0  0  0  0  0  0  0  0  0  0
  -12.6876  -12.3833    9.3228 N   0  0  0  0  0  0  0  0  0  0  0  0
  -14.4360  -11.8960    7.8937 N   0  0  0  0  0  0  0  0  0  0  0  0
  -15.0762  -11.0481    7.0752 C   0  0  0  0  0  0  0  0  0  0  0  0
  -14.5781   -9.7664    6.8785 C   0  0  0  0  0  0  0  0  0  0  0  0
  -13.4144   -9.4006    7.5468 C   0  0  0  0  0  0  0  0  0  0  0  0
  -12.9081   -8.1804    7.3949 N   0  0  0  0  0  0  0  0  0  0  0  0
  -15.3862   -9.1503    6.0209 N   0  0  0  0  0  0  0  0  0  0  0  0
  -16.3530  -10.0026    5.6881 C   0  0  0  0  0  0  0  0  0  0  0  0
  -16.1697  -11.1567    6.3260 N   0  0  0  0  0  0  0  0  0  0  0  0
  1  7  2  0  0  0  0
  1  2  1  0  0  0  0
  2  3  1  0  0  0  0
  2  4  2  0  0  0  0
  4  5  1  0  0  0  0
  5  6  2  0  0  0  0
  5 11  1  0  0  0  0
  6  7  1  0  0  0  0
  6  9  1  0  0  0  0
  7  8  1  0  0  0  0
  9 10  1  0  0  0  0
 10 11  2  0  0  0  0
M  END
>  <CHROM.1>
-14.26671711,-10.44192229,7.38145103,-0.62240020,-0.58189457,-0.40298727

>  <Name>
ligand

>  <RI>
0

>  <Rbt.Current_Directory>
/home/itssahil/PROJECTS/Mol_Feturizer/New_Systems/rnas/2b57

>  <Rbt.Executable>
rbdock ($Id: //depot/dev/client3/rdock/2013.1/src/exe/rbdock.cxx#4 $)

>  <Rbt.Library>
libRbt.so (2013.1, Build901 2013/11/27)

>  <Rbt.Parameter_File>
/export/apps/rDock/src/rDock_2013.1_src/data/scripts/dock_solv.prm

>  <Rbt.Receptor>
prm/blind_docking_80.prm

>  <SCORE>
-6.56054

>  <SCORE.INTER>
-6.56054

>  <SCORE.INTER.CONST>
1

>  <SCORE.INTER.POLAR>
0

>  <SCORE.INTER.ROT>
0

>  <SCORE.INTER.SOLV>
15.3721

>  <SCORE.INTER.VDW>
-13.0977

>  <SCORE.INTER.norm>
-0.596413

>  <SCORE.INTRA>
0

>  <SCORE.INTRA.DIHEDRAL>
0

>  <SCORE.INTRA.DIHEDRAL.0>
0

>  <SCORE.INTRA.POLAR>
0

>  <SCORE.INTRA.POLAR.0>
0

>  <SCORE.INTRA.REPUL>
0

>  <SCORE.INTRA.REPUL.0>
0

>  <SCORE.INTRA.SOLV>
0

>  <SCORE.INTRA.SOLV.lig_0>
-48.3454

>  <SCORE.INTRA.VDW>
0

>  <SCORE.INTRA.VDW.0>
0

>  <SCORE.INTRA.norm>
0

>  <SCORE.RESTR>
0

>  <SCORE.RESTR.CAVITY>
0

>  <SCORE.RESTR.norm>
0

>  <SCORE.SYSTEM>
0

>  <SCORE.SYSTEM.CONST>
0

>  <SCORE.SYSTEM.DIHEDRAL>
0

>  <SCORE.SYSTEM.SOLV>
0

>  <SCORE.SYSTEM.norm>
0

>  <SCORE.heavy>
11

>  <SCORE.norm>
-0.596413

>  <RMSD>
4.329

$$$$
ligand
 OpenBabel01301917033D
libRbt.so/2013.1/901 2013/11/27
 11 12  0  0  0  0  0  0  0  0999 V2000
  -12.7316  -10.0397    8.2524 N   0  0  0  0  0  0  0  0  0  0  0  0
  -13.1108  -11.3133    8.4441 C   0  0  0  0  0  0  0  0  0  0  0  0
  -12.3729  -12.1143    9.2075 N   0  0  0  0  0  0  0  0  0  0  0  0
  -14.2233  -11.7890    7.8635 N   0  0  0  0  0  0  0  0  0  0  0  0
  -14.9756  -11.0034    7.0788 C   0  0  0  0  0  0  0  0  0  0  0  0
  -14.6059   -9.6817    6.8637 C   0  0  0  0  0  0  0  0  0  0  0  0
  -13.4502   -9.2111    7.4784 C   0  0  0  0  0  0  0  0  0  0  0  0
  -13.0647   -7.9501    7.3075 N   0  0  0  0  0  0  0  0  0  0  0  0
  -15.5059   -9.1422    6.0471 N   0  0  0  0  0  0  0  0  0  0  0  0
  -16.4057  -10.0792    5.7566 C   0  0  0  0  0  0  0  0  0  0  0  0
  -16.0885  -11.2115    6.3811 N   0  0  0  0  0  0  0  0  0  0  0  0
  1  7  2  0  0  0  0
  1  2  1  0  0  0  0
  2  3  1  0  0  0  0
  2  4  2  0  0  0  0
  4  5  1  0  0  0  0
  5  6  2  0  0  0  0
  5 11  1  0  0  0  0
  6  7  1  0  0  0  0
  6  9  1  0  0  0  0
  7  8  1  0  0  0  0
  9 10  1  0  0  0  0
 10 11  2  0  0  0  0
M  END
>  <CHROM.1>
-14.21112316,-10.32581407,7.34916074,-0.50084444,-0.57108048,-0.33512534

>  <Name>
ligand

>  <RI>
0

>  <Rbt.Current_Directory>
/home/itssahil/PROJECTS/Mol_Feturizer/New_Systems/rnas/2b57

>  <Rbt.Executable>
rbdock ($Id: //depot/dev/client3/rdock/2013.1/src/exe/rbdock.cxx#4 $)

>  <Rbt.Library>
libRbt.so (2013.1, Build901 2013/11/27)

>  <Rbt.Parameter_File>
/export/apps/rDock/src/rDock_2013.1_src/data/scripts/dock_solv.prm

>  <Rbt.Receptor>
prm/pocket_docking_5.prm

>  <SCORE>
-6.487

>  <SCORE.INTER>
-6.487

>  <SCORE.INTER.CONST>
1

>  <SCORE.INTER.POLAR>
0

>  <SCORE.INTER.ROT>
0

>  <SCORE.INTER.SOLV>
14.9458

>  <SCORE.INTER.VDW>
-12.9066

>  <SCORE.INTER.norm>
-0.589728

>  <SCORE.INTRA>
0

>  <SCORE.INTRA.DIHEDRAL>
0

>  <SCORE.INTRA.DIHEDRAL.0>
0

>  <SCORE.INTRA.POLAR>
0

>  <SCORE.INTRA.POLAR.0>
0

>  <SCORE.INTRA.REPUL>
0

>  <SCORE.INTRA.REPUL.0>
0

>  <SCORE.INTRA.SOLV>
0

>  <SCORE.INTRA.SOLV.lig_0>
-48.3454

>  <SCORE.INTRA.VDW>
0

>  <SCORE.INTRA.VDW.0>
0

>  <SCORE.INTRA.norm>
0

>  <SCORE.RESTR>
0

>  <SCORE.RESTR.CAVITY>
0

>  <SCORE.RESTR.norm>
0

>  <SCORE.SYSTEM>
0

>  <SCORE.SYSTEM.CONST>
0

>  <SCORE.SYSTEM.DIHEDRAL>
0

>  <SCORE.SYSTEM.SOLV>
0

>  <SCORE.SYSTEM.norm>
0

>  <SCORE.heavy>
11

>  <SCORE.norm>
-0.589728

>  <RMSD>
4.382

$$$$
ligand
 OpenBabel01301917033D
libRbt.so/2013.1/901 2013/11/27
 11 12  0  0  0  0  0  0  0  0999 V2000
  -12.4837   -9.1462    7.8758 N   0  0  0  0  0  0  0  0  0  0  0  0
  -12.8609   -8.0703    7.1666 C   0  0  0  0  0  0  0  0  0  0  0  0
  -12.1067   -6.9748    7.1769 N   0  0  0  0  0  0  0  0  0  0  0  0
  -13.9985   -8.0865    6.4548 N   0  0  0  0  0  0  0  0  0  0  0  0
  -14.7816   -9.1753    6.4403 C   0  0  0  0  0  0  0  0  0  0  0  0
  -14.4147  -10.3020    7.1654 C   0  0  0  0  0  0  0  0  0  0  0  0
  -13.2300  -10.2618    7.8932 C   0  0  0  0  0  0  0  0  0  0  0  0
  -12.8361  -11.3212    8.5936 N   0  0  0  0  0  0  0  0  0  0  0  0
  -15.3631  -11.2172    6.9897 N   0  0  0  0  0  0  0  0  0  0  0  0
  -16.2900  -10.6949    6.1898 C   0  0  0  0  0  0  0  0  0  0  0  0
  -15.9415   -9.4550    5.8528 N   0  0  0  0  0  0  0  0  0  0  0  0
  1  7  2  0  0  0  0
  1  2  1  0  0  0  0
  2  3  1  0  0  0  0
  2  4  2  0  0  0  0
  4  5  1  0  0  0  0
  5  6  2  0  0  0  0
  5 11  1  0  0  0  0
  6  7  1  0  0  0  0
  6  9  1  0  0  0  0
  7  8  1  0  0  0  0
  9 10  1  0  0  0  0
 10 11  2  0  0  0  0
M  END
>  <CHROM.1>
-14.00797489,-9.50603485,7.07965949,-0.49256802,0.51875327,2.73108777

>  <Name>
ligand

>  <RI>
0

>  <Rbt.Current_Directory>
/home/itssahil/PROJECTS/Mol_Feturizer/New_Systems/rnas/2b57

>  <Rbt.Executable>
rbdock ($Id: //depot/dev/client3/rdock/2013.1/src/exe/rbdock.cxx#4 $)

>  <Rbt.Library>
libRbt.so (2013.1, Build901 2013/11/27)

>  <Rbt.Parameter_File>
/export/apps/rDock/src/rDock_2013.1_src/data/scripts/dock_solv.prm

>  <Rbt.Receptor>
prm/pocket_docking_8.prm

>  <SCORE>
-7.53907

>  <SCORE.INTER>
-7.53907

>  <SCORE.INTER.CONST>
1

>  <SCORE.INTER.POLAR>
0

>  <SCORE.INTER.ROT>
0

>  <SCORE.INTER.SOLV>
13.8146

>  <SCORE.INTER.VDW>
-13.2309

>  <SCORE.INTER.norm>
-0.68537

>  <SCORE.INTRA>
0

>  <SCORE.INTRA.DIHEDRAL>
0

>  <SCORE.INTRA.DIHEDRAL.0>
0

>  <SCORE.INTRA.POLAR>
0

>  <SCORE.INTRA.POLAR.0>
0

>  <SCORE.INTRA.REPUL>
0

>  <SCORE.INTRA.REPUL.0>
0

>  <SCORE.INTRA.SOLV>
0

>  <SCORE.INTRA.SOLV.lig_0>
-48.3454

>  <SCORE.INTRA.VDW>
0

>  <SCORE.INTRA.VDW.0>
0

>  <SCORE.INTRA.norm>
0

>  <SCORE.RESTR>
0

>  <SCORE.RESTR.CAVITY>
0

>  <SCORE.RESTR.norm>
0

>  <SCORE.SYSTEM>
0

>  <SCORE.SYSTEM.CONST>
0

>  <SCORE.SYSTEM.DIHEDRAL>
0

>  <SCORE.SYSTEM.SOLV>
0

>  <SCORE.SYSTEM.norm>
0

>  <SCORE.heavy>
11

>  <SCORE.norm>
-0.68537

>  <RMSD>
5.560

$$$$
ligand
 OpenBabel01301917033D
libRbt.so/2013.1/901 2013/11/27
 11 12  0  0  0  0  0  0  0  0999 V2000
  -12.4936   -9.0947    7.9105 N   0  0  0  0  0  0  0  0  0  0  0  0
  -12.8890   -8.0425    7.1762 C   0  0  0  0  0  0  0  0  0  0  0  0
  -12.1529   -6.9348    7.1596 N   0  0  0  0  0  0  0  0  0  0  0  0
  -14.0266   -8.0945    6.4661 N   0  0  0  0  0  0  0  0  0  0  0  0
  -14.7916   -9.1961    6.4785 C   0  0  0  0  0  0  0  0  0  0  0  0
  -14.4058  -10.2989    7.2299 C   0  0  0  0  0  0  0  0  0  0  0  0
  -13.2215  -10.2218    7.9553 C   0  0  0  0  0  0  0  0  0  0  0  0
  -12.8096  -11.2575    8.6804 N   0  0  0  0  0  0  0  0  0  0  0  0
  -15.3390  -11.2336    7.0771 N   0  0  0  0  0  0  0  0  0  0  0  0
  -16.2750  -10.7458    6.2658 C   0  0  0  0  0  0  0  0  0  0  0  0
  -15.9471   -9.5087    5.8990 N   0  0  0  0  0  0  0  0  0  0  0  0
  1  7  2  0  0  0  0
  1  2  1  0  0  0  0
  2  3  1  0  0  0  0
  2  4  2  0  0  0  0
  4  5  1  0  0  0  0
  5  6  2  0  0  0  0
  5 11  1  0  0  0  0
  6  7  1  0  0  0  0
  6  9  1  0  0  0  0
  7  8  1  0  0  0  0
  9 10  1  0  0  0  0
 10 11  2  0  0  0  0
M  END
>  <CHROM.1>
-14.01225832,-9.49858704,7.12475180,-0.51033991,0.52469412,2.71606777

>  <Name>
ligand

>  <RI>
0

>  <Rbt.Current_Directory>
/home/itssahil/PROJECTS/Mol_Feturizer/New_Systems/rnas/2b57

>  <Rbt.Executable>
rbdock ($Id: //depot/dev/client3/rdock/2013.1/src/exe/rbdock.cxx#4 $)

>  <Rbt.Library>
libRbt.so (2013.1, Build901 2013/11/27)

>  <Rbt.Parameter_File>
/export/apps/rDock/src/rDock_2013.1_src/data/scripts/dock_solv.prm

>  <Rbt.Receptor>
prm/pocket_docking_8.prm

>  <SCORE>
-7.5474

>  <SCORE.INTER>
-7.5474

>  <SCORE.INTER.CONST>
1

>  <SCORE.INTER.POLAR>
0

>  <SCORE.INTER.ROT>
0

>  <SCORE.INTER.SOLV>
13.9753

>  <SCORE.INTER.VDW>
-13.29

>  <SCORE.INTER.norm>
-0.686127

>  <SCORE.INTRA>
0

>  <SCORE.INTRA.DIHEDRAL>
0

>  <SCORE.INTRA.DIHEDRAL.0>
0

>  <SCORE.INTRA.POLAR>
0

>  <SCORE.INTRA.POLAR.0>
0

>  <SCORE.INTRA.REPUL>
0

>  <SCORE.INTRA.REPUL.0>
0

>  <SCORE.INTRA.SOLV>
0

>  <SCORE.INTRA.SOLV.lig_0>
-48.3454

>  <SCORE.INTRA.VDW>
0

>  <SCORE.INTRA.VDW.0>
0

>  <SCORE.INTRA.norm>
0

>  <SCORE.RESTR>
0

>  <SCORE.RESTR.CAVITY>
0

>  <SCORE.RESTR.norm>
0

>  <SCORE.SYSTEM>
0

>  <SCORE.SYSTEM.CONST>
0

>  <SCORE.SYSTEM.DIHEDRAL>
0

>  <SCORE.SYSTEM.SOLV>
0

>  <SCORE.SYSTEM.norm>
0

>  <SCORE.heavy>
11

>  <SCORE.norm>
-0.686127

>  <RMSD>
5.564

$$$$
ligand
 OpenBabel01301917033D
libRbt.so/2013.1/901 2013/11/27
 11 12  0  0  0  0  0  0  0  0999 V2000
  -12.7401   -8.8825    7.9006 N   0  0  0  0  0  0  0  0  0  0  0  0
  -13.1782   -7.8759    7.1276 C   0  0  0  0  0  0  0  0  0  0  0  0
  -12.5263   -6.7166    7.1207 N   0  0  0  0  0  0  0  0  0  0  0  0
  -14.2750   -8.0255    6.3688 N   0  0  0  0  0  0  0  0  0  0  0  0
  -14.9560   -9.1810    6.3701 C   0  0  0  0  0  0  0  0  0  0  0  0
  -14.5244  -10.2384    7.1609 C   0  0  0  0  0  0  0  0  0  0  0  0
  -13.3836  -10.0601    7.9366 C   0  0  0  0  0  0  0  0  0  0  0  0
  -12.9299  -11.0491    8.7008 N   0  0  0  0  0  0  0  0  0  0  0  0
  -15.3777  -11.2430    6.9862 N   0  0  0  0  0  0  0  0  0  0  0  0
  -16.3090  -10.8412    6.1241 C   0  0  0  0  0  0  0  0  0  0  0  0
  -16.0572   -9.5896    5.7464 N   0  0  0  0  0  0  0  0  0  0  0  0
  1  7  2  0  0  0  0
  1  2  1  0  0  0  0
  2  3  1  0  0  0  0
  2  4  2  0  0  0  0
  4  5  1  0  0  0  0
  5  6  2  0  0  0  0
  5 11  1  0  0  0  0
  6  7  1  0  0  0  0
  6  9  1  0  0  0  0
  7  8  1  0  0  0  0
  9 10  1  0  0  0  0
 10 11  2  0  0  0  0
M  END
>  <CHROM.1>
-14.18685428,-9.41288122,7.05666221,-0.56904635,0.59652924,2.72804938

>  <Name>
ligand

>  <RI>
0

>  <Rbt.Current_Directory>
/home/itssahil/PROJECTS/Mol_Feturizer/New_Systems/rnas/2b57

>  <Rbt.Executable>
rbdock ($Id: //depot/dev/client3/rdock/2013.1/src/exe/rbdock.cxx#4 $)

>  <Rbt.Library>
libRbt.so (2013.1, Build901 2013/11/27)

>  <Rbt.Parameter_File>
/export/apps/rDock/src/rDock_2013.1_src/data/scripts/dock_solv.prm

>  <Rbt.Receptor>
prm/pocket_docking_8.prm

>  <SCORE>
-7.56865

>  <SCORE.INTER>
-7.56865

>  <SCORE.INTER.CONST>
1

>  <SCORE.INTER.POLAR>
0

>  <SCORE.INTER.ROT>
0

>  <SCORE.INTER.SOLV>
13.0169

>  <SCORE.INTER.VDW>
-12.9847

>  <SCORE.INTER.norm>
-0.68806

>  <SCORE.INTRA>
0

>  <SCORE.INTRA.DIHEDRAL>
0

>  <SCORE.INTRA.DIHEDRAL.0>
0

>  <SCORE.INTRA.POLAR>
0

>  <SCORE.INTRA.POLAR.0>
0

>  <SCORE.INTRA.REPUL>
0

>  <SCORE.INTRA.REPUL.0>
0

>  <SCORE.INTRA.SOLV>
0

>  <SCORE.INTRA.SOLV.lig_0>
-48.3454

>  <SCORE.INTRA.VDW>
0

>  <SCORE.INTRA.VDW.0>
0

>  <SCORE.INTRA.norm>
0

>  <SCORE.RESTR>
0

>  <SCORE.RESTR.CAVITY>
0

>  <SCORE.RESTR.norm>
0

>  <SCORE.SYSTEM>
0

>  <SCORE.SYSTEM.CONST>
0

>  <SCORE.SYSTEM.DIHEDRAL>
0

>  <SCORE.SYSTEM.SOLV>
0

>  <SCORE.SYSTEM.norm>
0

>  <SCORE.heavy>
11

>  <SCORE.norm>
-0.68806

>  <RMSD>
5.687

$$$$
ligand
 OpenBabel01301917033D
libRbt.so/2013.1/901 2013/11/27
 11 12  0  0  0  0  0  0  0  0999 V2000
  -12.7549   -8.8705    7.8915 N   0  0  0  0  0  0  0  0  0  0  0  0
  -13.2134   -7.8627    7.1320 C   0  0  0  0  0  0  0  0  0  0  0  0
  -12.5737   -6.6967    7.1255 N   0  0  0  0  0  0  0  0  0  0  0  0
  -14.3185   -8.0180    6.3864 N   0  0  0  0  0  0  0  0  0  0  0  0
  -14.9875   -9.1805    6.3877 C   0  0  0  0  0  0  0  0  0  0  0  0
  -14.5347  -10.2393    7.1646 C   0  0  0  0  0  0  0  0  0  0  0  0
  -13.3858  -10.0549    7.9267 C   0  0  0  0  0  0  0  0  0  0  0  0
  -12.9120  -11.0449    8.6774 N   0  0  0  0  0  0  0  0  0  0  0  0
  -15.3799  -11.2513    6.9933 N   0  0  0  0  0  0  0  0  0  0  0  0
  -16.3264  -10.8527    6.1465 C   0  0  0  0  0  0  0  0  0  0  0  0
  -16.0925   -9.5957    5.7753 N   0  0  0  0  0  0  0  0  0  0  0  0
  1  7  2  0  0  0  0
  1  2  1  0  0  0  0
  2  3  1  0  0  0  0
  2  4  2  0  0  0  0
  4  5  1  0  0  0  0
  5  6  2  0  0  0  0
  5 11  1  0  0  0  0
  6  7  1  0  0  0  0
  6  9  1  0  0  0  0
  7  8  1  0  0  0  0
  9 10  1  0  0  0  0
 10 11  2  0  0  0  0
M  END
>  <CHROM.1>
-14.20709895,-9.40948516,7.06237255,-0.58671039,0.58860909,2.74553233

>  <Name>
ligand

>  <RI>
0

>  <Rbt.Current_Directory>
/home/itssahil/PROJECTS/Mol_Feturizer/New_Systems/rnas/2b57

>  <Rbt.Executable>
rbdock ($Id: //depot/dev/client3/rdock/2013.1/src/exe/rbdock.cxx#4 $)

>  <Rbt.Library>
libRbt.so (2013.1, Build901 2013/11/27)

>  <Rbt.Parameter_File>
/export/apps/rDock/src/rDock_2013.1_src/data/scripts/dock_solv.prm

>  <Rbt.Receptor>
prm/pocket_docking_8.prm

>  <SCORE>
-7.55079

>  <SCORE.INTER>
-7.55079

>  <SCORE.INTER.CONST>
1

>  <SCORE.INTER.POLAR>
0

>  <SCORE.INTER.ROT>
0

>  <SCORE.INTER.SOLV>
12.7687

>  <SCORE.INTER.VDW>
-12.8901

>  <SCORE.INTER.norm>
-0.686436

>  <SCORE.INTRA>
0

>  <SCORE.INTRA.DIHEDRAL>
0

>  <SCORE.INTRA.DIHEDRAL.0>
0

>  <SCORE.INTRA.POLAR>
0

>  <SCORE.INTRA.POLAR.0>
0

>  <SCORE.INTRA.REPUL>
0

>  <SCORE.INTRA.REPUL.0>
0

>  <SCORE.INTRA.SOLV>
0

>  <SCORE.INTRA.SOLV.lig_0>
-48.3454

>  <SCORE.INTRA.VDW>
0

>  <SCORE.INTRA.VDW.0>
0

>  <SCORE.INTRA.norm>
0

>  <SCORE.RESTR>
0

>  <SCORE.RESTR.CAVITY>
0

>  <SCORE.RESTR.norm>
0

>  <SCORE.SYSTEM>
0

>  <SCORE.SYSTEM.CONST>
0

>  <SCORE.SYSTEM.DIHEDRAL>
0

>  <SCORE.SYSTEM.SOLV>
0

>  <SCORE.SYSTEM.norm>
0

>  <SCORE.heavy>
11

>  <SCORE.norm>
-0.686436

>  <RMSD>
5.701

$$$$
ligand
 OpenBabel01301917033D
libRbt.so/2013.1/901 2013/11/27
 11 12  0  0  0  0  0  0  0  0999 V2000
  -11.5416   -4.7076    6.5997 N   0  0  0  0  0  0  0  0  0  0  0  0
  -11.8469   -5.9784    6.2924 C   0  0  0  0  0  0  0  0  0  0  0  0
  -12.4212   -6.7586    7.2038 N   0  0  0  0  0  0  0  0  0  0  0  0
  -11.5682   -6.4724    5.0761 N   0  0  0  0  0  0  0  0  0  0  0  0
  -10.9772   -5.7081    4.1457 C   0  0  0  0  0  0  0  0  0  0  0  0
  -10.6507   -4.3899    4.4376 C   0  0  0  0  0  0  0  0  0  0  0  0
  -10.9518   -3.9000    5.7042 C   0  0  0  0  0  0  0  0  0  0  0  0
  -10.6653   -2.6413    6.0229 N   0  0  0  0  0  0  0  0  0  0  0  0
  -10.0701   -3.8731    3.3588 N   0  0  0  0  0  0  0  0  0  0  0  0
  -10.0296   -4.8207    2.4247 C   0  0  0  0  0  0  0  0  0  0  0  0
  -10.5798   -5.9372    2.8975 N   0  0  0  0  0  0  0  0  0  0  0  0
  1  7  2  0  0  0  0
  1  2  1  0  0  0  0
  2  3  1  0  0  0  0
  2  4  2  0  0  0  0
  4  5  1  0  0  0  0
  5  6  2  0  0  0  0
  5 11  1  0  0  0  0
  6  7  1  0  0  0  0
  6  9  1  0  0  0  0
  7  8  1  0  0  0  0
  9 10  1  0  0  0  0
 10 11  2  0  0  0  0
M  END
>  <CHROM.1>
-11.03693211,-5.02100581,4.94631801,-2.76975128,-1.11379548,-2.41907313

>  <Name>
ligand

>  <RI>
0

>  <Rbt.Current_Directory>
/home/itssahil/PROJECTS/Mol_Feturizer/New_Systems/rnas/2b57

>  <Rbt.Executable>
rbdock ($Id: //depot/dev/client3/rdock/2013.1/src/exe/rbdock.cxx#4 $)

>  <Rbt.Library>
libRbt.so (2013.1, Build901 2013/11/27)

>  <Rbt.Parameter_File>
/export/apps/rDock/src/rDock_2013.1_src/data/scripts/dock_solv.prm

>  <Rbt.Receptor>
prm/blind_docking_40.prm

>  <SCORE>
-8.4149

>  <SCORE.INTER>
-8.4149

>  <SCORE.INTER.CONST>
1

>  <SCORE.INTER.POLAR>
0

>  <SCORE.INTER.ROT>
0

>  <SCORE.INTER.SOLV>
7.5801

>  <SCORE.INTER.VDW>
-11.7366

>  <SCORE.INTER.norm>
-0.764991

>  <SCORE.INTRA>
0

>  <SCORE.INTRA.DIHEDRAL>
0

>  <SCORE.INTRA.DIHEDRAL.0>
0

>  <SCORE.INTRA.POLAR>
0

>  <SCORE.INTRA.POLAR.0>
0

>  <SCORE.INTRA.REPUL>
0

>  <SCORE.INTRA.REPUL.0>
0

>  <SCORE.INTRA.SOLV>
0

>  <SCORE.INTRA.SOLV.lig_0>
-48.3454

>  <SCORE.INTRA.VDW>
0

>  <SCORE.INTRA.VDW.0>
0

>  <SCORE.INTRA.norm>
0

>  <SCORE.RESTR>
0

>  <SCORE.RESTR.CAVITY>
0

>  <SCORE.RESTR.norm>
0

>  <SCORE.SYSTEM>
0

>  <SCORE.SYSTEM.CONST>
0

>  <SCORE.SYSTEM.DIHEDRAL>
0

>  <SCORE.SYSTEM.SOLV>
0

>  <SCORE.SYSTEM.norm>
0

>  <SCORE.heavy>
11

>  <SCORE.norm>
-0.764991

>  <RMSD>
8.711

$$$$
ligand
 OpenBabel01301917033D
libRbt.so/2013.1/901 2013/11/27
 11 12  0  0  0  0  0  0  0  0999 V2000
  -11.5335   -4.6923    6.5998 N   0  0  0  0  0  0  0  0  0  0  0  0
  -11.8436   -5.9607    6.2872 C   0  0  0  0  0  0  0  0  0  0  0  0
  -12.4408   -6.7359    7.1880 N   0  0  0  0  0  0  0  0  0  0  0  0
  -11.5469   -6.4572    5.0761 N   0  0  0  0  0  0  0  0  0  0  0  0
  -10.9328   -5.6981    4.1566 C   0  0  0  0  0  0  0  0  0  0  0  0
  -10.6008   -4.3825    4.4543 C   0  0  0  0  0  0  0  0  0  0  0  0
  -10.9208   -3.8899    5.7151 C   0  0  0  0  0  0  0  0  0  0  0  0
  -10.6298   -2.6335    6.0388 N   0  0  0  0  0  0  0  0  0  0  0  0
   -9.9964   -3.8709    3.3861 N   0  0  0  0  0  0  0  0  0  0  0  0
   -9.9468   -4.8190    2.4531 C   0  0  0  0  0  0  0  0  0  0  0  0
  -10.5146   -5.9307    2.9158 N   0  0  0  0  0  0  0  0  0  0  0  0
  1  7  2  0  0  0  0
  1  2  1  0  0  0  0
  2  3  1  0  0  0  0
  2  4  2  0  0  0  0
  4  5  1  0  0  0  0
  5  6  2  0  0  0  0
  5 11  1  0  0  0  0
  6  7  1  0  0  0  0
  6  9  1  0  0  0  0
  7  8  1  0  0  0  0
  9 10  1  0  0  0  0
 10 11  2  0  0  0  0
M  END
>  <CHROM.1>
-11.00140456,-5.01032793,4.95591687,-2.78252878,-1.09465356,-2.43065832

>  <Name>
ligand

>  <RI>
0

>  <Rbt.Current_Directory>
/home/itssahil/PROJECTS/Mol_Feturizer/New_Systems/rnas/2b57

>  <Rbt.Executable>
rbdock ($Id: //depot/dev/client3/rdock/2013.1/src/exe/rbdock.cxx#4 $)

>  <Rbt.Library>
libRbt.so (2013.1, Build901 2013/11/27)

>  <Rbt.Parameter_File>
/export/apps/rDock/src/rDock_2013.1_src/data/scripts/dock_solv.prm

>  <Rbt.Receptor>
prm/blind_docking_40.prm

>  <SCORE>
-8.44502

>  <SCORE.INTER>
-8.44502

>  <SCORE.INTER.CONST>
1

>  <SCORE.INTER.POLAR>
0

>  <SCORE.INTER.ROT>
0

>  <SCORE.INTER.SOLV>
7.55632

>  <SCORE.INTER.VDW>
-11.7488

>  <SCORE.INTER.norm>
-0.767729

>  <SCORE.INTRA>
0

>  <SCORE.INTRA.DIHEDRAL>
0

>  <SCORE.INTRA.DIHEDRAL.0>
0

>  <SCORE.INTRA.POLAR>
0

>  <SCORE.INTRA.POLAR.0>
0

>  <SCORE.INTRA.REPUL>
0

>  <SCORE.INTRA.REPUL.0>
0

>  <SCORE.INTRA.SOLV>
0

>  <SCORE.INTRA.SOLV.lig_0>
-48.3454

>  <SCORE.INTRA.VDW>
0

>  <SCORE.INTRA.VDW.0>
0

>  <SCORE.INTRA.norm>
0

>  <SCORE.RESTR>
0

>  <SCORE.RESTR.CAVITY>
0

>  <SCORE.RESTR.norm>
0

>  <SCORE.SYSTEM>
0

>  <SCORE.SYSTEM.CONST>
0

>  <SCORE.SYSTEM.DIHEDRAL>
0

>  <SCORE.SYSTEM.SOLV>
0

>  <SCORE.SYSTEM.norm>
0

>  <SCORE.heavy>
11

>  <SCORE.norm>
-0.767729

>  <RMSD>
8.722

$$$$
ligand
 OpenBabel01301917033D
libRbt.so/2013.1/901 2013/11/27
 11 12  0  0  0  0  0  0  0  0999 V2000
  -11.5014   -4.6978    6.6030 N   0  0  0  0  0  0  0  0  0  0  0  0
  -11.8330   -5.9591    6.2837 C   0  0  0  0  0  0  0  0  0  0  0  0
  -12.4364   -6.7311    7.1831 N   0  0  0  0  0  0  0  0  0  0  0  0
  -11.5516   -6.4517    5.0675 N   0  0  0  0  0  0  0  0  0  0  0  0
  -10.9317   -5.6958    4.1493 C   0  0  0  0  0  0  0  0  0  0  0  0
  -10.5775   -4.3876    4.4537 C   0  0  0  0  0  0  0  0  0  0  0  0
  -10.8820   -3.8988    5.7198 C   0  0  0  0  0  0  0  0  0  0  0  0
  -10.5697   -2.6492    6.0502 N   0  0  0  0  0  0  0  0  0  0  0  0
   -9.9721   -3.8779    3.3852 N   0  0  0  0  0  0  0  0  0  0  0  0
   -9.9429   -4.8203    2.4454 C   0  0  0  0  0  0  0  0  0  0  0  0
  -10.5248   -5.9263    2.9043 N   0  0  0  0  0  0  0  0  0  0  0  0
  1  7  2  0  0  0  0
  1  2  1  0  0  0  0
  2  3  1  0  0  0  0
  2  4  2  0  0  0  0
  4  5  1  0  0  0  0
  5  6  2  0  0  0  0
  5 11  1  0  0  0  0
  6  7  1  0  0  0  0
  6  9  1  0  0  0  0
  7  8  1  0  0  0  0
  9 10  1  0  0  0  0
 10 11  2  0  0  0  0
M  END
>  <CHROM.1>
-10.98461465,-5.01260383,4.95361676,-2.74848378,-1.08912738,-2.39361313

>  <Name>
ligand

>  <RI>
0

>  <Rbt.Current_Directory>
/home/itssahil/PROJECTS/Mol_Feturizer/New_Systems/rnas/2b57

>  <Rbt.Executable>
rbdock ($Id: //depot/dev/client3/rdock/2013.1/src/exe/rbdock.cxx#4 $)

>  <Rbt.Library>
libRbt.so (2013.1, Build901 2013/11/27)

>  <Rbt.Parameter_File>
/export/apps/rDock/src/rDock_2013.1_src/data/scripts/dock_solv.prm

>  <Rbt.Receptor>
prm/blind_docking_80.prm

>  <SCORE>
-8.46548

>  <SCORE.INTER>
-8.46849

>  <SCORE.INTER.CONST>
1

>  <SCORE.INTER.POLAR>
0

>  <SCORE.INTER.ROT>
0

>  <SCORE.INTER.SOLV>
7.6547

>  <SCORE.INTER.VDW>
-11.7972

>  <SCORE.INTER.norm>
-0.769862

>  <SCORE.INTRA>
0

>  <SCORE.INTRA.DIHEDRAL>
0

>  <SCORE.INTRA.DIHEDRAL.0>
0

>  <SCORE.INTRA.POLAR>
0

>  <SCORE.INTRA.POLAR.0>
0

>  <SCORE.INTRA.REPUL>
0

>  <SCORE.INTRA.REPUL.0>
0

>  <SCORE.INTRA.SOLV>
0

>  <SCORE.INTRA.SOLV.lig_0>
-48.3454

>  <SCORE.INTRA.VDW>
0

>  <SCORE.INTRA.VDW.0>
0

>  <SCORE.INTRA.norm>
0

>  <SCORE.RESTR>
0.00300914

>  <SCORE.RESTR.CAVITY>
0.00300914

>  <SCORE.RESTR.norm>
0.000273559

>  <SCORE.SYSTEM>
0

>  <SCORE.SYSTEM.CONST>
0

>  <SCORE.SYSTEM.DIHEDRAL>
0

>  <SCORE.SYSTEM.SOLV>
0

>  <SCORE.SYSTEM.norm>
0

>  <SCORE.heavy>
11

>  <SCORE.norm>
-0.769589

>  <RMSD>
8.723

$$$$
ligand
 OpenBabel01301917033D
libRbt.so/2013.1/901 2013/11/27
 11 12  0  0  0  0  0  0  0  0999 V2000
  -11.5297   -4.6921    6.5961 N   0  0  0  0  0  0  0  0  0  0  0  0
  -11.8489   -5.9575    6.2806 C   0  0  0  0  0  0  0  0  0  0  0  0
  -12.4513   -6.7305    7.1798 N   0  0  0  0  0  0  0  0  0  0  0  0
  -11.5561   -6.4532    5.0683 N   0  0  0  0  0  0  0  0  0  0  0  0
  -10.9370   -5.6963    4.1504 C   0  0  0  0  0  0  0  0  0  0  0  0
  -10.5955   -4.3838    4.4510 C   0  0  0  0  0  0  0  0  0  0  0  0
  -10.9116   -3.8919    5.7131 C   0  0  0  0  0  0  0  0  0  0  0  0
  -10.6116   -2.6383    6.0397 N   0  0  0  0  0  0  0  0  0  0  0  0
   -9.9879   -3.8739    3.3839 N   0  0  0  0  0  0  0  0  0  0  0  0
   -9.9453   -4.8202    2.4486 C   0  0  0  0  0  0  0  0  0  0  0  0
  -10.5208   -5.9289    2.9089 N   0  0  0  0  0  0  0  0  0  0  0  0
  1  7  2  0  0  0  0
  1  2  1  0  0  0  0
  2  3  1  0  0  0  0
  2  4  2  0  0  0  0
  4  5  1  0  0  0  0
  5  6  2  0  0  0  0
  5 11  1  0  0  0  0
  6  7  1  0  0  0  0
  6  9  1  0  0  0  0
  7  8  1  0  0  0  0
  9 10  1  0  0  0  0
 10 11  2  0  0  0  0
M  END
>  <CHROM.1>
-11.00040488,-5.00994542,4.95130787,-2.77043852,-1.09024663,-2.41756629

>  <Name>
ligand

>  <RI>
0

>  <Rbt.Current_Directory>
/home/itssahil/PROJECTS/Mol_Feturizer/New_Systems/rnas/2b57

>  <Rbt.Executable>
rbdock ($Id: //depot/dev/client3/rdock/2013.1/src/exe/rbdock.cxx#4 $)

>  <Rbt.Library>
libRbt.so (2013.1, Build901 2013/11/27)

>  <Rbt.Parameter_File>
/export/apps/rDock/src/rDock_2013.1_src/data/scripts/dock_solv.prm

>  <Rbt.Receptor>
prm/blind_docking_80.prm

>  <SCORE>
-8.43832

>  <SCORE.INTER>
-8.43832

>  <SCORE.INTER.CONST>
1

>  <SCORE.INTER.POLAR>
0

>  <SCORE.INTER.ROT>
0

>  <SCORE.INTER.SOLV>
7.58202

>  <SCORE.INTER.VDW>
-11.7529

>  <SCORE.INTER.norm>
-0.76712

>  <SCORE.INTRA>
0

>  <SCORE.INTRA.DIHEDRAL>
0

>  <SCORE.INTRA.DIHEDRAL.0>
0

>  <SCORE.INTRA.POLAR>
0

>  <SCORE.INTRA.POLAR.0>
0

>  <SCORE.INTRA.REPUL>
0

>  <SCORE.INTRA.REPUL.0>
0

>  <SCORE.INTRA.SOLV>
0

>  <SCORE.INTRA.SOLV.lig_0>
-48.3454

>  <SCORE.INTRA.VDW>
0

>  <SCORE.INTRA.VDW.0>
0

>  <SCORE.INTRA.norm>
0

>  <SCORE.RESTR>
0

>  <SCORE.RESTR.CAVITY>
0

>  <SCORE.RESTR.norm>
0

>  <SCORE.SYSTEM>
0

>  <SCORE.SYSTEM.CONST>
0

>  <SCORE.SYSTEM.DIHEDRAL>
0

>  <SCORE.SYSTEM.SOLV>
0

>  <SCORE.SYSTEM.norm>
0

>  <SCORE.heavy>
11

>  <SCORE.norm>
-0.76712

>  <RMSD>
8.724

$$$$
ligand
 OpenBabel01301917033D
libRbt.so/2013.1/901 2013/11/27
 11 12  0  0  0  0  0  0  0  0999 V2000
  -11.9078   -4.6549    6.5821 N   0  0  0  0  0  0  0  0  0  0  0  0
  -11.9880   -5.9707    6.3275 C   0  0  0  0  0  0  0  0  0  0  0  0
  -12.5115   -6.7886    7.2364 N   0  0  0  0  0  0  0  0  0  0  0  0
  -11.5347   -6.4703    5.1673 N   0  0  0  0  0  0  0  0  0  0  0  0
  -10.9907   -5.6664    4.2418 C   0  0  0  0  0  0  0  0  0  0  0  0
  -10.8955   -4.3012    4.4799 C   0  0  0  0  0  0  0  0  0  0  0  0
  -11.3744   -3.8069    5.6886 C   0  0  0  0  0  0  0  0  0  0  0  0
  -11.3118   -2.5054    5.9538 N   0  0  0  0  0  0  0  0  0  0  0  0
  -10.3112   -3.7500    3.4203 N   0  0  0  0  0  0  0  0  0  0  0  0
  -10.0472   -4.7215    2.5494 C   0  0  0  0  0  0  0  0  0  0  0  0
  -10.4583   -5.8875    3.0433 N   0  0  0  0  0  0  0  0  0  0  0  0
  1  7  2  0  0  0  0
  1  2  1  0  0  0  0
  2  3  1  0  0  0  0
  2  4  2  0  0  0  0
  4  5  1  0  0  0  0
  5  6  2  0  0  0  0
  5 11  1  0  0  0  0
  6  7  1  0  0  0  0
  6  9  1  0  0  0  0
  7  8  1  0  0  0  0
  9 10  1  0  0  0  0
 10 11  2  0  0  0  0
M  END
>  <CHROM.1>
-11.22248623,-4.96105292,4.99362815,3.11057371,-1.11987088,-2.83494322

>  <Name>
ligand

>  <RI>
0

>  <Rbt.Current_Directory>
/home/itssahil/PROJECTS/Mol_Feturizer/New_Systems/rnas/2b57

>  <Rbt.Executable>
rbdock ($Id: //depot/dev/client3/rdock/2013.1/src/exe/rbdock.cxx#4 $)

>  <Rbt.Library>
libRbt.so (2013.1, Build901 2013/11/27)

>  <Rbt.Parameter_File>
/export/apps/rDock/src/rDock_2013.1_src/data/scripts/dock_solv.prm

>  <Rbt.Receptor>
prm/blind_docking_40.prm

>  <SCORE>
-8.30332

>  <SCORE.INTER>
-8.30332

>  <SCORE.INTER.CONST>
1

>  <SCORE.INTER.POLAR>
0

>  <SCORE.INTER.ROT>
0

>  <SCORE.INTER.SOLV>
6.26422

>  <SCORE.INTER.VDW>
-11.2236

>  <SCORE.INTER.norm>
-0.754847

>  <SCORE.INTRA>
0

>  <SCORE.INTRA.DIHEDRAL>
0

>  <SCORE.INTRA.DIHEDRAL.0>
0

>  <SCORE.INTRA.POLAR>
0

>  <SCORE.INTRA.POLAR.0>
0

>  <SCORE.INTRA.REPUL>
0

>  <SCORE.INTRA.REPUL.0>
0

>  <SCORE.INTRA.SOLV>
0

>  <SCORE.INTRA.SOLV.lig_0>
-48.3454

>  <SCORE.INTRA.VDW>
0

>  <SCORE.INTRA.VDW.0>
0

>  <SCORE.INTRA.norm>
0

>  <SCORE.RESTR>
0

>  <SCORE.RESTR.CAVITY>
0

>  <SCORE.RESTR.norm>
0

>  <SCORE.SYSTEM>
0

>  <SCORE.SYSTEM.CONST>
0

>  <SCORE.SYSTEM.DIHEDRAL>
0

>  <SCORE.SYSTEM.SOLV>
0

>  <SCORE.SYSTEM.norm>
0

>  <SCORE.heavy>
11

>  <SCORE.norm>
-0.754847

>  <RMSD>
8.732

$$$$
ligand
 OpenBabel01301917033D
libRbt.so/2013.1/901 2013/11/27
 11 12  0  0  0  0  0  0  0  0999 V2000
  -11.1749   -4.2581    6.5910 N   0  0  0  0  0  0  0  0  0  0  0  0
  -10.6041   -3.1304    6.1380 C   0  0  0  0  0  0  0  0  0  0  0  0
  -10.4666   -2.0869    6.9512 N   0  0  0  0  0  0  0  0  0  0  0  0
  -10.1799   -3.0427    4.8677 N   0  0  0  0  0  0  0  0  0  0  0  0
  -10.3204   -4.0774    4.0260 C   0  0  0  0  0  0  0  0  0  0  0  0
  -10.9077   -5.2558    4.4691 C   0  0  0  0  0  0  0  0  0  0  0  0
  -11.3369   -5.3233    5.7904 C   0  0  0  0  0  0  0  0  0  0  0  0
  -11.8957   -6.4353    6.2589 N   0  0  0  0  0  0  0  0  0  0  0  0
  -10.9352   -6.0999    3.4421 N   0  0  0  0  0  0  0  0  0  0  0  0
  -10.3905   -5.4849    2.3947 C   0  0  0  0  0  0  0  0  0  0  0  0
  -10.0151   -4.2563    2.7441 N   0  0  0  0  0  0  0  0  0  0  0  0
  1  7  2  0  0  0  0
  1  2  1  0  0  0  0
  2  3  1  0  0  0  0
  2  4  2  0  0  0  0
  4  5  1  0  0  0  0
  5  6  2  0  0  0  0
  5 11  1  0  0  0  0
  6  7  1  0  0  0  0
  6  9  1  0  0  0  0
  7  8  1  0  0  0  0
  9 10  1  0  0  0  0
 10 11  2  0  0  0  0
M  END
>  <CHROM.1>
-10.75040285,-4.48455261,4.90123512,1.66795658,1.11931856,0.90290317

>  <Name>
ligand

>  <RI>
0

>  <Rbt.Current_Directory>
/home/itssahil/PROJECTS/Mol_Feturizer/New_Systems/rnas/2b57

>  <Rbt.Executable>
rbdock ($Id: //depot/dev/client3/rdock/2013.1/src/exe/rbdock.cxx#4 $)

>  <Rbt.Library>
libRbt.so (2013.1, Build901 2013/11/27)

>  <Rbt.Parameter_File>
/export/apps/rDock/src/rDock_2013.1_src/data/scripts/dock_solv.prm

>  <Rbt.Receptor>
prm/blind_docking_80.prm

>  <SCORE>
-7.31578

>  <SCORE.INTER>
-7.31578

>  <SCORE.INTER.CONST>
1

>  <SCORE.INTER.POLAR>
0

>  <SCORE.INTER.ROT>
0

>  <SCORE.INTER.SOLV>
10.2328

>  <SCORE.INTER.VDW>
-11.8881

>  <SCORE.INTER.norm>
-0.66507

>  <SCORE.INTRA>
0

>  <SCORE.INTRA.DIHEDRAL>
0

>  <SCORE.INTRA.DIHEDRAL.0>
0

>  <SCORE.INTRA.POLAR>
0

>  <SCORE.INTRA.POLAR.0>
0

>  <SCORE.INTRA.REPUL>
0

>  <SCORE.INTRA.REPUL.0>
0

>  <SCORE.INTRA.SOLV>
0

>  <SCORE.INTRA.SOLV.lig_0>
-48.3454

>  <SCORE.INTRA.VDW>
0

>  <SCORE.INTRA.VDW.0>
0

>  <SCORE.INTRA.norm>
0

>  <SCORE.RESTR>
0

>  <SCORE.RESTR.CAVITY>
0

>  <SCORE.RESTR.norm>
0

>  <SCORE.SYSTEM>
0

>  <SCORE.SYSTEM.CONST>
0

>  <SCORE.SYSTEM.DIHEDRAL>
0

>  <SCORE.SYSTEM.SOLV>
0

>  <SCORE.SYSTEM.norm>
0

>  <SCORE.heavy>
11

>  <SCORE.norm>
-0.66507

>  <RMSD>
9.510

$$$$
ligand
 OpenBabel01301917033D
libRbt.so/2013.1/901 2013/11/27
 11 12  0  0  0  0  0  0  0  0999 V2000
  -11.1466   -4.2458    6.5278 N   0  0  0  0  0  0  0  0  0  0  0  0
  -10.5806   -3.1205    6.0631 C   0  0  0  0  0  0  0  0  0  0  0  0
  -10.4425   -2.0700    6.8670 N   0  0  0  0  0  0  0  0  0  0  0  0
  -10.1617   -3.0423    4.7905 N   0  0  0  0  0  0  0  0  0  0  0  0
  -10.3029   -4.0844    3.9580 C   0  0  0  0  0  0  0  0  0  0  0  0
  -10.8853   -5.2605    4.4132 C   0  0  0  0  0  0  0  0  0  0  0  0
  -11.3092   -5.3181    5.7367 C   0  0  0  0  0  0  0  0  0  0  0  0
  -11.8632   -6.4276    6.2167 N   0  0  0  0  0  0  0  0  0  0  0  0
  -10.9147   -6.1132    3.3934 N   0  0  0  0  0  0  0  0  0  0  0  0
  -10.3758   -5.5056    2.3387 C   0  0  0  0  0  0  0  0  0  0  0  0
  -10.0022   -4.2732    2.6764 N   0  0  0  0  0  0  0  0  0  0  0  0
  1  7  2  0  0  0  0
  1  2  1  0  0  0  0
  2  3  1  0  0  0  0
  2  4  2  0  0  0  0
  4  5  1  0  0  0  0
  5  6  2  0  0  0  0
  5 11  1  0  0  0  0
  6  7  1  0  0  0  0
  6  9  1  0  0  0  0
  7  8  1  0  0  0  0
  9 10  1  0  0  0  0
 10 11  2  0  0  0  0
M  END
>  <CHROM.1>
-10.72831357,-4.48530077,4.83826654,1.66440393,1.12379467,0.89777146

>  <Name>
ligand

>  <RI>
0

>  <Rbt.Current_Directory>
/home/itssahil/PROJECTS/Mol_Feturizer/New_Systems/rnas/2b57

>  <Rbt.Executable>
rbdock ($Id: //depot/dev/client3/rdock/2013.1/src/exe/rbdock.cxx#4 $)

>  <Rbt.Library>
libRbt.so (2013.1, Build901 2013/11/27)

>  <Rbt.Parameter_File>
/export/apps/rDock/src/rDock_2013.1_src/data/scripts/dock_solv.prm

>  <Rbt.Receptor>
prm/blind_docking_40.prm

>  <SCORE>
-7.27122

>  <SCORE.INTER>
-7.27122

>  <SCORE.INTER.CONST>
1

>  <SCORE.INTER.POLAR>
0

>  <SCORE.INTER.ROT>
0

>  <SCORE.INTER.SOLV>
10.5752

>  <SCORE.INTER.VDW>
-11.9725

>  <SCORE.INTER.norm>
-0.66102

>  <SCORE.INTRA>
0

>  <SCORE.INTRA.DIHEDRAL>
0

>  <SCORE.INTRA.DIHEDRAL.0>
0

>  <SCORE.INTRA.POLAR>
0

>  <SCORE.INTRA.POLAR.0>
0

>  <SCORE.INTRA.REPUL>
0

>  <SCORE.INTRA.REPUL.0>
0

>  <SCORE.INTRA.SOLV>
0

>  <SCORE.INTRA.SOLV.lig_0>
-48.3454

>  <SCORE.INTRA.VDW>
0

>  <SCORE.INTRA.VDW.0>
0

>  <SCORE.INTRA.norm>
0

>  <SCORE.RESTR>
0

>  <SCORE.RESTR.CAVITY>
0

>  <SCORE.RESTR.norm>
0

>  <SCORE.SYSTEM>
0

>  <SCORE.SYSTEM.CONST>
0

>  <SCORE.SYSTEM.DIHEDRAL>
0

>  <SCORE.SYSTEM.SOLV>
0

>  <SCORE.SYSTEM.norm>
0

>  <SCORE.heavy>
11

>  <SCORE.norm>
-0.66102

>  <RMSD>
9.532

$$$$
ligand
 OpenBabel01301917033D
libRbt.so/2013.1/901 2013/11/27
 11 12  0  0  0  0  0  0  0  0999 V2000
  -11.3502   -2.1030    5.4743 N   0  0  0  0  0  0  0  0  0  0  0  0
  -10.7571   -3.0424    6.2282 C   0  0  0  0  0  0  0  0  0  0  0  0
  -10.5743   -2.8278    7.5280 N   0  0  0  0  0  0  0  0  0  0  0  0
  -10.3372   -4.1931    5.6797 N   0  0  0  0  0  0  0  0  0  0  0  0
  -10.4988   -4.4256    4.3687 C   0  0  0  0  0  0  0  0  0  0  0  0
  -11.1093   -3.4704    3.5660 C   0  0  0  0  0  0  0  0  0  0  0  0
  -11.5382   -2.2870    4.1579 C   0  0  0  0  0  0  0  0  0  0  0  0
  -12.1361   -1.3496    3.4285 N   0  0  0  0  0  0  0  0  0  0  0  0
  -11.1276   -3.9441    2.3237 N   0  0  0  0  0  0  0  0  0  0  0  0
  -10.5542   -5.1454    2.3375 C   0  0  0  0  0  0  0  0  0  0  0  0
  -10.1709   -5.4428    3.5773 N   0  0  0  0  0  0  0  0  0  0  0  0
  1  7  2  0  0  0  0
  1  2  1  0  0  0  0
  2  3  1  0  0  0  0
  2  4  2  0  0  0  0
  4  5  1  0  0  0  0
  5  6  2  0  0  0  0
  5 11  1  0  0  0  0
  6  7  1  0  0  0  0
  6  9  1  0  0  0  0
  7  8  1  0  0  0  0
  9 10  1  0  0  0  0
 10 11  2  0  0  0  0
M  END
>  <CHROM.1>
-10.92526996,-3.46182894,4.44481432,1.64585410,-1.09543932,1.15818763

>  <Name>
ligand

>  <RI>
0

>  <Rbt.Current_Directory>
/home/itssahil/PROJECTS/Mol_Feturizer/New_Systems/rnas/2b57

>  <Rbt.Executable>
rbdock ($Id: //depot/dev/client3/rdock/2013.1/src/exe/rbdock.cxx#4 $)

>  <Rbt.Library>
libRbt.so (2013.1, Build901 2013/11/27)

>  <Rbt.Parameter_File>
/export/apps/rDock/src/rDock_2013.1_src/data/scripts/dock_solv.prm

>  <Rbt.Receptor>
prm/blind_docking_20.prm

>  <SCORE>
-6.6986

>  <SCORE.INTER>
-6.6986

>  <SCORE.INTER.CONST>
1

>  <SCORE.INTER.POLAR>
0

>  <SCORE.INTER.ROT>
0

>  <SCORE.INTER.SOLV>
2.31507

>  <SCORE.INTER.VDW>
-8.83743

>  <SCORE.INTER.norm>
-0.608964

>  <SCORE.INTRA>
0

>  <SCORE.INTRA.DIHEDRAL>
0

>  <SCORE.INTRA.DIHEDRAL.0>
0

>  <SCORE.INTRA.POLAR>
0

>  <SCORE.INTRA.POLAR.0>
0

>  <SCORE.INTRA.REPUL>
0

>  <SCORE.INTRA.REPUL.0>
0

>  <SCORE.INTRA.SOLV>
0

>  <SCORE.INTRA.SOLV.lig_0>
-48.3454

>  <SCORE.INTRA.VDW>
0

>  <SCORE.INTRA.VDW.0>
0

>  <SCORE.INTRA.norm>
0

>  <SCORE.RESTR>
0

>  <SCORE.RESTR.CAVITY>
0

>  <SCORE.RESTR.norm>
0

>  <SCORE.SYSTEM>
0

>  <SCORE.SYSTEM.CONST>
0

>  <SCORE.SYSTEM.DIHEDRAL>
0

>  <SCORE.SYSTEM.SOLV>
0

>  <SCORE.SYSTEM.norm>
0

>  <SCORE.heavy>
11

>  <SCORE.norm>
-0.608964

>  <RMSD>
10.359

$$$$
ligand
 OpenBabel01301917033D
libRbt.so/2013.1/901 2013/11/27
 11 12  0  0  0  0  0  0  0  0999 V2000
  -11.9886   -2.2311    4.2454 N   0  0  0  0  0  0  0  0  0  0  0  0
  -11.3636   -2.7600    5.3095 C   0  0  0  0  0  0  0  0  0  0  0  0
  -11.4253   -2.1424    6.4859 N   0  0  0  0  0  0  0  0  0  0  0  0
  -10.6679   -3.9018    5.1946 N   0  0  0  0  0  0  0  0  0  0  0  0
  -10.5808   -4.5347    4.0153 C   0  0  0  0  0  0  0  0  0  0  0  0
  -11.2179   -4.0091    2.8984 C   0  0  0  0  0  0  0  0  0  0  0  0
  -11.9349   -2.8260    3.0432 C   0  0  0  0  0  0  0  0  0  0  0  0
  -12.5680   -2.2929    2.0024 N   0  0  0  0  0  0  0  0  0  0  0  0
  -10.9597   -4.8160    1.8737 N   0  0  0  0  0  0  0  0  0  0  0  0
  -10.1930   -5.8085    2.3199 C   0  0  0  0  0  0  0  0  0  0  0  0
   -9.9603   -5.6427    3.6202 N   0  0  0  0  0  0  0  0  0  0  0  0
  1  7  2  0  0  0  0
  1  2  1  0  0  0  0
  2  3  1  0  0  0  0
  2  4  2  0  0  0  0
  4  5  1  0  0  0  0
  5  6  2  0  0  0  0
  5 11  1  0  0  0  0
  6  7  1  0  0  0  0
  6  9  1  0  0  0  0
  7  8  1  0  0  0  0
  9 10  1  0  0  0  0
 10 11  2  0  0  0  0
M  END
>  <CHROM.1>
-11.17678764,-3.70585648,3.74264153,2.02545111,-0.95965331,1.17205086

>  <Name>
ligand

>  <RI>
0

>  <Rbt.Current_Directory>
/home/itssahil/PROJECTS/Mol_Feturizer/New_Systems/rnas/2b57

>  <Rbt.Executable>
rbdock ($Id: //depot/dev/client3/rdock/2013.1/src/exe/rbdock.cxx#4 $)

>  <Rbt.Library>
libRbt.so (2013.1, Build901 2013/11/27)

>  <Rbt.Parameter_File>
/export/apps/rDock/src/rDock_2013.1_src/data/scripts/dock_solv.prm

>  <Rbt.Receptor>
prm/blind_docking_20.prm

>  <SCORE>
-6.92145

>  <SCORE.INTER>
-6.92145

>  <SCORE.INTER.CONST>
1

>  <SCORE.INTER.POLAR>
0

>  <SCORE.INTER.ROT>
0

>  <SCORE.INTER.SOLV>
3.03337

>  <SCORE.INTER.VDW>
-9.22543

>  <SCORE.INTER.norm>
-0.629223

>  <SCORE.INTRA>
0

>  <SCORE.INTRA.DIHEDRAL>
0

>  <SCORE.INTRA.DIHEDRAL.0>
0

>  <SCORE.INTRA.POLAR>
0

>  <SCORE.INTRA.POLAR.0>
0

>  <SCORE.INTRA.REPUL>
0

>  <SCORE.INTRA.REPUL.0>
0

>  <SCORE.INTRA.SOLV>
0

>  <SCORE.INTRA.SOLV.lig_0>
-48.3454

>  <SCORE.INTRA.VDW>
0

>  <SCORE.INTRA.VDW.0>
0

>  <SCORE.INTRA.norm>
0

>  <SCORE.RESTR>
0

>  <SCORE.RESTR.CAVITY>
0

>  <SCORE.RESTR.norm>
0

>  <SCORE.SYSTEM>
0

>  <SCORE.SYSTEM.CONST>
0

>  <SCORE.SYSTEM.DIHEDRAL>
0

>  <SCORE.SYSTEM.SOLV>
0

>  <SCORE.SYSTEM.norm>
0

>  <SCORE.heavy>
11

>  <SCORE.norm>
-0.629223

>  <RMSD>
10.453

$$$$
ligand
 OpenBabel01301917033D
libRbt.so/2013.1/901 2013/11/27
 11 12  0  0  0  0  0  0  0  0999 V2000
  -11.9642   -2.2000    4.1716 N   0  0  0  0  0  0  0  0  0  0  0  0
  -11.3298   -2.7068    5.2409 C   0  0  0  0  0  0  0  0  0  0  0  0
  -11.3570   -2.0504    6.3974 N   0  0  0  0  0  0  0  0  0  0  0  0
  -10.6593   -3.8658    5.1507 N   0  0  0  0  0  0  0  0  0  0  0  0
  -10.6070   -4.5382    3.9914 C   0  0  0  0  0  0  0  0  0  0  0  0
  -11.2545   -4.0360    2.8697 C   0  0  0  0  0  0  0  0  0  0  0  0
  -11.9450   -2.8344    2.9887 C   0  0  0  0  0  0  0  0  0  0  0  0
  -12.5869   -2.3224    1.9428 N   0  0  0  0  0  0  0  0  0  0  0  0
  -11.0318   -4.8807    1.8673 N   0  0  0  0  0  0  0  0  0  0  0  0
  -10.2768   -5.8738    2.3317 C   0  0  0  0  0  0  0  0  0  0  0  0
  -10.0163   -5.6708    3.6215 N   0  0  0  0  0  0  0  0  0  0  0  0
  1  7  2  0  0  0  0
  1  2  1  0  0  0  0
  2  3  1  0  0  0  0
  2  4  2  0  0  0  0
  4  5  1  0  0  0  0
  5  6  2  0  0  0  0
  5 11  1  0  0  0  0
  6  7  1  0  0  0  0
  6  9  1  0  0  0  0
  7  8  1  0  0  0  0
  9 10  1  0  0  0  0
 10 11  2  0  0  0  0
M  END
>  <CHROM.1>
-11.19147157,-3.70652019,3.70264600,1.98096872,-0.97019299,1.10294751

>  <Name>
ligand

>  <RI>
0

>  <Rbt.Current_Directory>
/home/itssahil/PROJECTS/Mol_Feturizer/New_Systems/rnas/2b57

>  <Rbt.Executable>
rbdock ($Id: //depot/dev/client3/rdock/2013.1/src/exe/rbdock.cxx#4 $)

>  <Rbt.Library>
libRbt.so (2013.1, Build901 2013/11/27)

>  <Rbt.Parameter_File>
/export/apps/rDock/src/rDock_2013.1_src/data/scripts/dock_solv.prm

>  <Rbt.Receptor>
prm/blind_docking_20.prm

>  <SCORE>
-7.01996

>  <SCORE.INTER>
-7.01996

>  <SCORE.INTER.CONST>
1

>  <SCORE.INTER.POLAR>
0

>  <SCORE.INTER.ROT>
0

>  <SCORE.INTER.SOLV>
3.42555

>  <SCORE.INTER.VDW>
-9.42182

>  <SCORE.INTER.norm>
-0.638178

>  <SCORE.INTRA>
0

>  <SCORE.INTRA.DIHEDRAL>
0

>  <SCORE.INTRA.DIHEDRAL.0>
0

>  <SCORE.INTRA.POLAR>
0

>  <SCORE.INTRA.POLAR.0>
0

>  <SCORE.INTRA.REPUL>
0

>  <SCORE.INTRA.REPUL.0>
0

>  <SCORE.INTRA.SOLV>
0

>  <SCORE.INTRA.SOLV.lig_0>
-48.3454

>  <SCORE.INTRA.VDW>
0

>  <SCORE.INTRA.VDW.0>
0

>  <SCORE.INTRA.norm>
0

>  <SCORE.RESTR>
0

>  <SCORE.RESTR.CAVITY>
0

>  <SCORE.RESTR.norm>
0

>  <SCORE.SYSTEM>
0

>  <SCORE.SYSTEM.CONST>
0

>  <SCORE.SYSTEM.DIHEDRAL>
0

>  <SCORE.SYSTEM.SOLV>
0

>  <SCORE.SYSTEM.norm>
0

>  <SCORE.heavy>
11

>  <SCORE.norm>
-0.638178

>  <RMSD>
10.475

$$$$
ligand
 OpenBabel01301917033D
libRbt.so/2013.1/901 2013/11/27
 11 12  0  0  0  0  0  0  0  0999 V2000
  -11.9694   -2.1856    4.1902 N   0  0  0  0  0  0  0  0  0  0  0  0
  -11.3033   -2.6794    5.2462 C   0  0  0  0  0  0  0  0  0  0  0  0
  -11.3109   -2.0179    6.4001 N   0  0  0  0  0  0  0  0  0  0  0  0
  -10.6206   -3.8304    5.1452 N   0  0  0  0  0  0  0  0  0  0  0  0
  -10.5877   -4.5077    3.9880 C   0  0  0  0  0  0  0  0  0  0  0  0
  -11.2681   -4.0189    2.8799 C   0  0  0  0  0  0  0  0  0  0  0  0
  -11.9705   -2.8254    3.0101 C   0  0  0  0  0  0  0  0  0  0  0  0
  -12.6437   -2.3265    1.9776 N   0  0  0  0  0  0  0  0  0  0  0  0
  -11.0588   -4.8656    1.8763 N   0  0  0  0  0  0  0  0  0  0  0  0
  -10.2805   -5.8470    2.3269 C   0  0  0  0  0  0  0  0  0  0  0  0
   -9.9918   -5.6346    3.6091 N   0  0  0  0  0  0  0  0  0  0  0  0
  1  7  2  0  0  0  0
  1  2  1  0  0  0  0
  2  3  1  0  0  0  0
  2  4  2  0  0  0  0
  4  5  1  0  0  0  0
  5  6  2  0  0  0  0
  5 11  1  0  0  0  0
  6  7  1  0  0  0  0
  6  9  1  0  0  0  0
  7  8  1  0  0  0  0
  9 10  1  0  0  0  0
 10 11  2  0  0  0  0
M  END
>  <CHROM.1>
-11.18923896,-3.68470626,3.70963690,1.95404073,-0.94802796,1.07625894

>  <Name>
ligand

>  <RI>
0

>  <Rbt.Current_Directory>
/home/itssahil/PROJECTS/Mol_Feturizer/New_Systems/rnas/2b57

>  <Rbt.Executable>
rbdock ($Id: //depot/dev/client3/rdock/2013.1/src/exe/rbdock.cxx#4 $)

>  <Rbt.Library>
libRbt.so (2013.1, Build901 2013/11/27)

>  <Rbt.Parameter_File>
/export/apps/rDock/src/rDock_2013.1_src/data/scripts/dock_solv.prm

>  <Rbt.Receptor>
prm/blind_docking_20.prm

>  <SCORE>
-7.0359

>  <SCORE.INTER>
-7.0359

>  <SCORE.INTER.CONST>
1

>  <SCORE.INTER.POLAR>
0

>  <SCORE.INTER.ROT>
0

>  <SCORE.INTER.SOLV>
3.41183

>  <SCORE.INTER.VDW>
-9.42788

>  <SCORE.INTER.norm>
-0.639627

>  <SCORE.INTRA>
0

>  <SCORE.INTRA.DIHEDRAL>
0

>  <SCORE.INTRA.DIHEDRAL.0>
0

>  <SCORE.INTRA.POLAR>
0

>  <SCORE.INTRA.POLAR.0>
0

>  <SCORE.INTRA.REPUL>
0

>  <SCORE.INTRA.REPUL.0>
0

>  <SCORE.INTRA.SOLV>
0

>  <SCORE.INTRA.SOLV.lig_0>
-48.3454

>  <SCORE.INTRA.VDW>
0

>  <SCORE.INTRA.VDW.0>
0

>  <SCORE.INTRA.norm>
0

>  <SCORE.RESTR>
0

>  <SCORE.RESTR.CAVITY>
0

>  <SCORE.RESTR.norm>
0

>  <SCORE.SYSTEM>
0

>  <SCORE.SYSTEM.CONST>
0

>  <SCORE.SYSTEM.DIHEDRAL>
0

>  <SCORE.SYSTEM.SOLV>
0

>  <SCORE.SYSTEM.norm>
0

>  <SCORE.heavy>
11

>  <SCORE.norm>
-0.639627

>  <RMSD>
10.492

$$$$
ligand
 OpenBabel01301917033D
libRbt.so/2013.1/901 2013/11/27
 11 12  0  0  0  0  0  0  0  0999 V2000
  -11.9643   -2.1874    4.1515 N   0  0  0  0  0  0  0  0  0  0  0  0
  -11.3103   -2.6780    5.2165 C   0  0  0  0  0  0  0  0  0  0  0  0
  -11.3271   -2.0106    6.3669 N   0  0  0  0  0  0  0  0  0  0  0  0
  -10.6304   -3.8317    5.1280 N   0  0  0  0  0  0  0  0  0  0  0  0
  -10.5883   -4.5148    3.9745 C   0  0  0  0  0  0  0  0  0  0  0  0
  -11.2562   -4.0295    2.8574 C   0  0  0  0  0  0  0  0  0  0  0  0
  -11.9560   -2.8331    2.9747 C   0  0  0  0  0  0  0  0  0  0  0  0
  -12.6173   -2.3372    1.9331 N   0  0  0  0  0  0  0  0  0  0  0  0
  -11.0399   -4.8819    1.8601 N   0  0  0  0  0  0  0  0  0  0  0  0
  -10.2692   -5.8635    2.3233 C   0  0  0  0  0  0  0  0  0  0  0  0
   -9.9924   -5.6456    3.6072 N   0  0  0  0  0  0  0  0  0  0  0  0
  1  7  2  0  0  0  0
  1  2  1  0  0  0  0
  2  3  1  0  0  0  0
  2  4  2  0  0  0  0
  4  5  1  0  0  0  0
  5  6  2  0  0  0  0
  5 11  1  0  0  0  0
  6  7  1  0  0  0  0
  6  9  1  0  0  0  0
  7  8  1  0  0  0  0
  9 10  1  0  0  0  0
 10 11  2  0  0  0  0
M  END
>  <CHROM.1>
-11.18443687,-3.69134372,3.68615169,1.96632046,-0.95553424,1.08123818

>  <Name>
ligand

>  <RI>
0

>  <Rbt.Current_Directory>
/home/itssahil/PROJECTS/Mol_Feturizer/New_Systems/rnas/2b57

>  <Rbt.Executable>
rbdock ($Id: //depot/dev/client3/rdock/2013.1/src/exe/rbdock.cxx#4 $)

>  <Rbt.Library>
libRbt.so (2013.1, Build901 2013/11/27)

>  <Rbt.Parameter_File>
/export/apps/rDock/src/rDock_2013.1_src/data/scripts/dock_solv.prm

>  <Rbt.Receptor>
prm/blind_docking_20.prm

>  <SCORE>
-7.0215

>  <SCORE.INTER>
-7.0215

>  <SCORE.INTER.CONST>
1

>  <SCORE.INTER.POLAR>
0

>  <SCORE.INTER.ROT>
0

>  <SCORE.INTER.SOLV>
3.48203

>  <SCORE.INTER.VDW>
-9.44167

>  <SCORE.INTER.norm>
-0.638318

>  <SCORE.INTRA>
0

>  <SCORE.INTRA.DIHEDRAL>
0

>  <SCORE.INTRA.DIHEDRAL.0>
0

>  <SCORE.INTRA.POLAR>
0

>  <SCORE.INTRA.POLAR.0>
0

>  <SCORE.INTRA.REPUL>
0

>  <SCORE.INTRA.REPUL.0>
0

>  <SCORE.INTRA.SOLV>
0

>  <SCORE.INTRA.SOLV.lig_0>
-48.3454

>  <SCORE.INTRA.VDW>
0

>  <SCORE.INTRA.VDW.0>
0

>  <SCORE.INTRA.norm>
0

>  <SCORE.RESTR>
0

>  <SCORE.RESTR.CAVITY>
0

>  <SCORE.RESTR.norm>
0

>  <SCORE.SYSTEM>
0

>  <SCORE.SYSTEM.CONST>
0

>  <SCORE.SYSTEM.DIHEDRAL>
0

>  <SCORE.SYSTEM.SOLV>
0

>  <SCORE.SYSTEM.norm>
0

>  <SCORE.heavy>
11

>  <SCORE.norm>
-0.638318

>  <RMSD>
10.497

$$$$
ligand
 OpenBabel01301917033D
libRbt.so/2013.1/901 2013/11/27
 11 12  0  0  0  0  0  0  0  0999 V2000
  -11.9704   -2.1797    4.1946 N   0  0  0  0  0  0  0  0  0  0  0  0
  -11.3178   -2.6844    5.2539 C   0  0  0  0  0  0  0  0  0  0  0  0
  -11.3390   -2.0340    6.4139 N   0  0  0  0  0  0  0  0  0  0  0  0
  -10.6350   -3.8351    5.1502 N   0  0  0  0  0  0  0  0  0  0  0  0
  -10.5886   -4.5012    3.9869 C   0  0  0  0  0  0  0  0  0  0  0  0
  -11.2549   -4.0010    2.8754 C   0  0  0  0  0  0  0  0  0  0  0  0
  -11.9577   -2.8081    3.0084 C   0  0  0  0  0  0  0  0  0  0  0  0
  -12.6176   -2.2985    1.9726 N   0  0  0  0  0  0  0  0  0  0  0  0
  -11.0342   -4.8383    1.8663 N   0  0  0  0  0  0  0  0  0  0  0  0
  -10.2624   -5.8248    2.3169 C   0  0  0  0  0  0  0  0  0  0  0  0
   -9.9892   -5.6251    3.6046 N   0  0  0  0  0  0  0  0  0  0  0  0
  1  7  2  0  0  0  0
  1  2  1  0  0  0  0
  2  3  1  0  0  0  0
  2  4  2  0  0  0  0
  4  5  1  0  0  0  0
  5  6  2  0  0  0  0
  5 11  1  0  0  0  0
  6  7  1  0  0  0  0
  6  9  1  0  0  0  0
  7  8  1  0  0  0  0
  9 10  1  0  0  0  0
 10 11  2  0  0  0  0
M  END
>  <CHROM.1>
-11.18590361,-3.67491913,3.70917843,1.97193783,-0.95464439,1.10046962

>  <Name>
ligand

>  <RI>
0

>  <Rbt.Current_Directory>
/home/itssahil/PROJECTS/Mol_Feturizer/New_Systems/rnas/2b57

>  <Rbt.Executable>
rbdock ($Id: //depot/dev/client3/rdock/2013.1/src/exe/rbdock.cxx#4 $)

>  <Rbt.Library>
libRbt.so (2013.1, Build901 2013/11/27)

>  <Rbt.Parameter_File>
/export/apps/rDock/src/rDock_2013.1_src/data/scripts/dock_solv.prm

>  <Rbt.Receptor>
prm/blind_docking_20.prm

>  <SCORE>
-7.03798

>  <SCORE.INTER>
-7.03798

>  <SCORE.INTER.CONST>
1

>  <SCORE.INTER.POLAR>
0

>  <SCORE.INTER.ROT>
0

>  <SCORE.INTER.SOLV>
3.33836

>  <SCORE.INTER.VDW>
-9.40478

>  <SCORE.INTER.norm>
-0.639817

>  <SCORE.INTRA>
0

>  <SCORE.INTRA.DIHEDRAL>
0

>  <SCORE.INTRA.DIHEDRAL.0>
0

>  <SCORE.INTRA.POLAR>
0

>  <SCORE.INTRA.POLAR.0>
0

>  <SCORE.INTRA.REPUL>
0

>  <SCORE.INTRA.REPUL.0>
0

>  <SCORE.INTRA.SOLV>
0

>  <SCORE.INTRA.SOLV.lig_0>
-48.3454

>  <SCORE.INTRA.VDW>
0

>  <SCORE.INTRA.VDW.0>
0

>  <SCORE.INTRA.norm>
0

>  <SCORE.RESTR>
0

>  <SCORE.RESTR.CAVITY>
0

>  <SCORE.RESTR.norm>
0

>  <SCORE.SYSTEM>
0

>  <SCORE.SYSTEM.CONST>
0

>  <SCORE.SYSTEM.DIHEDRAL>
0

>  <SCORE.SYSTEM.SOLV>
0

>  <SCORE.SYSTEM.norm>
0

>  <SCORE.heavy>
11

>  <SCORE.norm>
-0.639817

>  <RMSD>
10.499

$$$$
ligand
 OpenBabel01301917033D
libRbt.so/2013.1/901 2013/11/27
 11 12  0  0  0  0  0  0  0  0999 V2000
  -12.0243   -2.1524    4.3001 N   0  0  0  0  0  0  0  0  0  0  0  0
  -11.4282   -2.7008    5.3710 C   0  0  0  0  0  0  0  0  0  0  0  0
  -11.5114   -2.0983    6.5538 N   0  0  0  0  0  0  0  0  0  0  0  0
  -10.7397   -3.8470    5.2565 N   0  0  0  0  0  0  0  0  0  0  0  0
  -10.6311   -4.4650    4.0711 C   0  0  0  0  0  0  0  0  0  0  0  0
  -11.2382   -3.9191    2.9473 C   0  0  0  0  0  0  0  0  0  0  0  0
  -11.9483   -2.7318    3.0916 C   0  0  0  0  0  0  0  0  0  0  0  0
  -12.5530   -2.1795    2.0440 N   0  0  0  0  0  0  0  0  0  0  0  0
  -10.9635   -4.7146    1.9178 N   0  0  0  0  0  0  0  0  0  0  0  0
  -10.2156   -5.7196    2.3680 C   0  0  0  0  0  0  0  0  0  0  0  0
  -10.0112   -5.5730    3.6753 N   0  0  0  0  0  0  0  0  0  0  0  0
  1  7  2  0  0  0  0
  1  2  1  0  0  0  0
  2  3  1  0  0  0  0
  2  4  2  0  0  0  0
  4  5  1  0  0  0  0
  5  6  2  0  0  0  0
  5 11  1  0  0  0  0
  6  7  1  0  0  0  0
  6  9  1  0  0  0  0
  7  8  1  0  0  0  0
  9 10  1  0  0  0  0
 10 11  2  0  0  0  0
M  END
>  <CHROM.1>
-11.21374017,-3.62745133,3.79617648,2.05700979,-0.97603061,1.21137164

>  <Name>
ligand

>  <RI>
0

>  <Rbt.Current_Directory>
/home/itssahil/PROJECTS/Mol_Feturizer/New_Systems/rnas/2b57

>  <Rbt.Executable>
rbdock ($Id: //depot/dev/client3/rdock/2013.1/src/exe/rbdock.cxx#4 $)

>  <Rbt.Library>
libRbt.so (2013.1, Build901 2013/11/27)

>  <Rbt.Parameter_File>
/export/apps/rDock/src/rDock_2013.1_src/data/scripts/dock_solv.prm

>  <Rbt.Receptor>
prm/blind_docking_20.prm

>  <SCORE>
-6.99413

>  <SCORE.INTER>
-6.99413

>  <SCORE.INTER.CONST>
1

>  <SCORE.INTER.POLAR>
0

>  <SCORE.INTER.ROT>
0

>  <SCORE.INTER.SOLV>
2.82256

>  <SCORE.INTER.VDW>
-9.20361

>  <SCORE.INTER.norm>
-0.63583

>  <SCORE.INTRA>
0

>  <SCORE.INTRA.DIHEDRAL>
0

>  <SCORE.INTRA.DIHEDRAL.0>
0

>  <SCORE.INTRA.POLAR>
0

>  <SCORE.INTRA.POLAR.0>
0

>  <SCORE.INTRA.REPUL>
0

>  <SCORE.INTRA.REPUL.0>
0

>  <SCORE.INTRA.SOLV>
0

>  <SCORE.INTRA.SOLV.lig_0>
-48.3454

>  <SCORE.INTRA.VDW>
0

>  <SCORE.INTRA.VDW.0>
0

>  <SCORE.INTRA.norm>
0

>  <SCORE.RESTR>
0

>  <SCORE.RESTR.CAVITY>
0

>  <SCORE.RESTR.norm>
0

>  <SCORE.SYSTEM>
0

>  <SCORE.SYSTEM.CONST>
0

>  <SCORE.SYSTEM.DIHEDRAL>
0

>  <SCORE.SYSTEM.SOLV>
0

>  <SCORE.SYSTEM.norm>
0

>  <SCORE.heavy>
11

>  <SCORE.norm>
-0.63583

>  <RMSD>
10.500

$$$$
ligand
 OpenBabel01301917033D
libRbt.so/2013.1/901 2013/11/27
 11 12  0  0  0  0  0  0  0  0999 V2000
  -11.9538   -2.1830    4.1523 N   0  0  0  0  0  0  0  0  0  0  0  0
  -11.2749   -2.6569    5.2093 C   0  0  0  0  0  0  0  0  0  0  0  0
  -11.2755   -1.9780    6.3530 N   0  0  0  0  0  0  0  0  0  0  0  0
  -10.5865   -3.8054    5.1192 N   0  0  0  0  0  0  0  0  0  0  0  0
  -10.5606   -4.4999    3.9721 C   0  0  0  0  0  0  0  0  0  0  0  0
  -11.2544   -4.0319    2.8633 C   0  0  0  0  0  0  0  0  0  0  0  0
  -11.9625   -2.8406    2.9821 C   0  0  0  0  0  0  0  0  0  0  0  0
  -12.6483   -2.3613    1.9486 N   0  0  0  0  0  0  0  0  0  0  0  0
  -11.0497   -4.8926    1.8706 N   0  0  0  0  0  0  0  0  0  0  0  0
  -10.2614   -5.8625    2.3286 C   0  0  0  0  0  0  0  0  0  0  0  0
   -9.9618   -5.6291    3.6046 N   0  0  0  0  0  0  0  0  0  0  0  0
  1  7  2  0  0  0  0
  1  2  1  0  0  0  0
  2  3  1  0  0  0  0
  2  4  2  0  0  0  0
  4  5  1  0  0  0  0
  5  6  2  0  0  0  0
  5 11  1  0  0  0  0
  6  7  1  0  0  0  0
  6  9  1  0  0  0  0
  7  8  1  0  0  0  0
  9 10  1  0  0  0  0
 10 11  2  0  0  0  0
M  END
>  <CHROM.1>
-11.16959135,-3.68472369,3.68705106,1.94458969,-0.93835879,1.05344474

>  <Name>
ligand

>  <RI>
0

>  <Rbt.Current_Directory>
/home/itssahil/PROJECTS/Mol_Feturizer/New_Systems/rnas/2b57

>  <Rbt.Executable>
rbdock ($Id: //depot/dev/client3/rdock/2013.1/src/exe/rbdock.cxx#4 $)

>  <Rbt.Library>
libRbt.so (2013.1, Build901 2013/11/27)

>  <Rbt.Parameter_File>
/export/apps/rDock/src/rDock_2013.1_src/data/scripts/dock_solv.prm

>  <Rbt.Receptor>
prm/blind_docking_20.prm

>  <SCORE>
-7.02618

>  <SCORE.INTER>
-7.02618

>  <SCORE.INTER.CONST>
1

>  <SCORE.INTER.POLAR>
0

>  <SCORE.INTER.ROT>
0

>  <SCORE.INTER.SOLV>
3.56189

>  <SCORE.INTER.VDW>
-9.47142

>  <SCORE.INTER.norm>
-0.638744

>  <SCORE.INTRA>
0

>  <SCORE.INTRA.DIHEDRAL>
0

>  <SCORE.INTRA.DIHEDRAL.0>
0

>  <SCORE.INTRA.POLAR>
0

>  <SCORE.INTRA.POLAR.0>
0

>  <SCORE.INTRA.REPUL>
0

>  <SCORE.INTRA.REPUL.0>
0

>  <SCORE.INTRA.SOLV>
0

>  <SCORE.INTRA.SOLV.lig_0>
-48.3454

>  <SCORE.INTRA.VDW>
0

>  <SCORE.INTRA.VDW.0>
0

>  <SCORE.INTRA.norm>
0

>  <SCORE.RESTR>
0

>  <SCORE.RESTR.CAVITY>
0

>  <SCORE.RESTR.norm>
0

>  <SCORE.SYSTEM>
0

>  <SCORE.SYSTEM.CONST>
0

>  <SCORE.SYSTEM.DIHEDRAL>
0

>  <SCORE.SYSTEM.SOLV>
0

>  <SCORE.SYSTEM.norm>
0

>  <SCORE.heavy>
11

>  <SCORE.norm>
-0.638744

>  <RMSD>
10.505

$$$$
ligand
 OpenBabel01301917033D
libRbt.so/2013.1/901 2013/11/27
 11 12  0  0  0  0  0  0  0  0999 V2000
  -11.9537   -2.1737    4.1354 N   0  0  0  0  0  0  0  0  0  0  0  0
  -11.2883   -2.6514    5.1992 C   0  0  0  0  0  0  0  0  0  0  0  0
  -11.2919   -1.9696    6.3412 N   0  0  0  0  0  0  0  0  0  0  0  0
  -10.6103   -3.8068    5.1178 N   0  0  0  0  0  0  0  0  0  0  0  0
  -10.5815   -4.5044    3.9726 C   0  0  0  0  0  0  0  0  0  0  0  0
  -11.2613   -4.0326    2.8569 C   0  0  0  0  0  0  0  0  0  0  0  0
  -11.9589   -2.8342    2.9668 C   0  0  0  0  0  0  0  0  0  0  0  0
  -12.6313   -2.3509    1.9264 N   0  0  0  0  0  0  0  0  0  0  0  0
  -11.0567   -4.8977    1.8681 N   0  0  0  0  0  0  0  0  0  0  0  0
  -10.2817   -5.8741    2.3351 C   0  0  0  0  0  0  0  0  0  0  0  0
   -9.9906   -5.6403    3.6130 N   0  0  0  0  0  0  0  0  0  0  0  0
  1  7  2  0  0  0  0
  1  2  1  0  0  0  0
  2  3  1  0  0  0  0
  2  4  2  0  0  0  0
  4  5  1  0  0  0  0
  5  6  2  0  0  0  0
  5 11  1  0  0  0  0
  6  7  1  0  0  0  0
  6  9  1  0  0  0  0
  7  8  1  0  0  0  0
  9 10  1  0  0  0  0
 10 11  2  0  0  0  0
M  END
>  <CHROM.1>
-11.18012717,-3.68412388,3.68047961,1.94891815,-0.95094046,1.05443652

>  <Name>
ligand

>  <RI>
0

>  <Rbt.Current_Directory>
/home/itssahil/PROJECTS/Mol_Feturizer/New_Systems/rnas/2b57

>  <Rbt.Executable>
rbdock ($Id: //depot/dev/client3/rdock/2013.1/src/exe/rbdock.cxx#4 $)

>  <Rbt.Library>
libRbt.so (2013.1, Build901 2013/11/27)

>  <Rbt.Parameter_File>
/export/apps/rDock/src/rDock_2013.1_src/data/scripts/dock_solv.prm

>  <Rbt.Receptor>
prm/blind_docking_20.prm

>  <SCORE>
-7.02773

>  <SCORE.INTER>
-7.02773

>  <SCORE.INTER.CONST>
1

>  <SCORE.INTER.POLAR>
0

>  <SCORE.INTER.ROT>
0

>  <SCORE.INTER.SOLV>
3.60685

>  <SCORE.INTER.VDW>
-9.48743

>  <SCORE.INTER.norm>
-0.638884

>  <SCORE.INTRA>
0

>  <SCORE.INTRA.DIHEDRAL>
0

>  <SCORE.INTRA.DIHEDRAL.0>
0

>  <SCORE.INTRA.POLAR>
0

>  <SCORE.INTRA.POLAR.0>
0

>  <SCORE.INTRA.REPUL>
0

>  <SCORE.INTRA.REPUL.0>
0

>  <SCORE.INTRA.SOLV>
0

>  <SCORE.INTRA.SOLV.lig_0>
-48.3454

>  <SCORE.INTRA.VDW>
0

>  <SCORE.INTRA.VDW.0>
0

>  <SCORE.INTRA.norm>
0

>  <SCORE.RESTR>
0

>  <SCORE.RESTR.CAVITY>
0

>  <SCORE.RESTR.norm>
0

>  <SCORE.SYSTEM>
0

>  <SCORE.SYSTEM.CONST>
0

>  <SCORE.SYSTEM.DIHEDRAL>
0

>  <SCORE.SYSTEM.SOLV>
0

>  <SCORE.SYSTEM.norm>
0

>  <SCORE.heavy>
11

>  <SCORE.norm>
-0.638884

>  <RMSD>
10.509

$$$$
ligand
 OpenBabel01301917033D
libRbt.so/2013.1/901 2013/11/27
 11 12  0  0  0  0  0  0  0  0999 V2000
  -11.9499   -2.1500    4.1638 N   0  0  0  0  0  0  0  0  0  0  0  0
  -11.2928   -2.6396    5.2274 C   0  0  0  0  0  0  0  0  0  0  0  0
  -11.3002   -1.9675    6.3751 N   0  0  0  0  0  0  0  0  0  0  0  0
  -10.6194   -3.7972    5.1401 N   0  0  0  0  0  0  0  0  0  0  0  0
  -10.5869   -4.4853    3.9892 C   0  0  0  0  0  0  0  0  0  0  0  0
  -11.2581   -4.0010    2.8736 C   0  0  0  0  0  0  0  0  0  0  0  0
  -11.9511   -2.8005    2.9896 C   0  0  0  0  0  0  0  0  0  0  0  0
  -12.6152   -2.3054    1.9495 N   0  0  0  0  0  0  0  0  0  0  0  0
  -11.0514   -4.8586    1.8787 N   0  0  0  0  0  0  0  0  0  0  0  0
  -10.2835   -5.8423    2.3419 C   0  0  0  0  0  0  0  0  0  0  0  0
   -9.9988   -5.6206    3.6234 N   0  0  0  0  0  0  0  0  0  0  0  0
  1  7  2  0  0  0  0
  1  2  1  0  0  0  0
  2  3  1  0  0  0  0
  2  4  2  0  0  0  0
  4  5  1  0  0  0  0
  5  6  2  0  0  0  0
  5 11  1  0  0  0  0
  6  7  1  0  0  0  0
  6  9  1  0  0  0  0
  7  8  1  0  0  0  0
  9 10  1  0  0  0  0
 10 11  2  0  0  0  0
M  END
>  <CHROM.1>
-11.18024534,-3.65986501,3.70059046,1.95407631,-0.95762529,1.06714395

>  <Name>
ligand

>  <RI>
0

>  <Rbt.Current_Directory>
/home/itssahil/PROJECTS/Mol_Feturizer/New_Systems/rnas/2b57

>  <Rbt.Executable>
rbdock ($Id: //depot/dev/client3/rdock/2013.1/src/exe/rbdock.cxx#4 $)

>  <Rbt.Library>
libRbt.so (2013.1, Build901 2013/11/27)

>  <Rbt.Parameter_File>
/export/apps/rDock/src/rDock_2013.1_src/data/scripts/dock_solv.prm

>  <Rbt.Receptor>
prm/blind_docking_20.prm

>  <SCORE>
-7.08498

>  <SCORE.INTER>
-7.08498

>  <SCORE.INTER.CONST>
1

>  <SCORE.INTER.POLAR>
0

>  <SCORE.INTER.ROT>
0

>  <SCORE.INTER.SOLV>
3.55506

>  <SCORE.INTER.VDW>
-9.50834

>  <SCORE.INTER.norm>
-0.644089

>  <SCORE.INTRA>
0

>  <SCORE.INTRA.DIHEDRAL>
0

>  <SCORE.INTRA.DIHEDRAL.0>
0

>  <SCORE.INTRA.POLAR>
0

>  <SCORE.INTRA.POLAR.0>
0

>  <SCORE.INTRA.REPUL>
0

>  <SCORE.INTRA.REPUL.0>
0

>  <SCORE.INTRA.SOLV>
0

>  <SCORE.INTRA.SOLV.lig_0>
-48.3454

>  <SCORE.INTRA.VDW>
0

>  <SCORE.INTRA.VDW.0>
0

>  <SCORE.INTRA.norm>
0

>  <SCORE.RESTR>
0

>  <SCORE.RESTR.CAVITY>
0

>  <SCORE.RESTR.norm>
0

>  <SCORE.SYSTEM>
0

>  <SCORE.SYSTEM.CONST>
0

>  <SCORE.SYSTEM.DIHEDRAL>
0

>  <SCORE.SYSTEM.SOLV>
0

>  <SCORE.SYSTEM.norm>
0

>  <SCORE.heavy>
11

>  <SCORE.norm>
-0.644089

>  <RMSD>
10.521

$$$$
ligand
 OpenBabel01301917033D
libRbt.so/2013.1/901 2013/11/27
 11 12  0  0  0  0  0  0  0  0999 V2000
  -12.5807   -3.1876    4.8977 N   0  0  0  0  0  0  0  0  0  0  0  0
  -12.6135   -2.4340    3.7870 C   0  0  0  0  0  0  0  0  0  0  0  0
  -13.4261   -1.3829    3.7258 N   0  0  0  0  0  0  0  0  0  0  0  0
  -11.8405   -2.7380    2.7328 N   0  0  0  0  0  0  0  0  0  0  0  0
  -11.0234   -3.8010    2.7670 C   0  0  0  0  0  0  0  0  0  0  0  0
  -10.9702   -4.5975    3.9038 C   0  0  0  0  0  0  0  0  0  0  0  0
  -11.7788   -4.2607    4.9843 C   0  0  0  0  0  0  0  0  0  0  0  0
  -11.7524   -4.9900    6.0958 N   0  0  0  0  0  0  0  0  0  0  0  0
  -10.1026   -5.5766    3.6662 N   0  0  0  0  0  0  0  0  0  0  0  0
   -9.6271   -5.4094    2.4341 C   0  0  0  0  0  0  0  0  0  0  0  0
  -10.1828   -4.3320    1.8837 N   0  0  0  0  0  0  0  0  0  0  0  0
  1  7  2  0  0  0  0
  1  2  1  0  0  0  0
  2  3  1  0  0  0  0
  2  4  2  0  0  0  0
  4  5  1  0  0  0  0
  5  6  2  0  0  0  0
  5 11  1  0  0  0  0
  6  7  1  0  0  0  0
  6  9  1  0  0  0  0
  7  8  1  0  0  0  0
  9 10  1  0  0  0  0
 10 11  2  0  0  0  0
M  END
>  <CHROM.1>
-11.46210100,-3.86760854,3.72596835,3.02042438,0.82283558,-1.00630417

>  <Name>
ligand

>  <RI>
0

>  <Rbt.Current_Directory>
/home/itssahil/PROJECTS/Mol_Feturizer/New_Systems/rnas/2b57

>  <Rbt.Executable>
rbdock ($Id: //depot/dev/client3/rdock/2013.1/src/exe/rbdock.cxx#4 $)

>  <Rbt.Library>
libRbt.so (2013.1, Build901 2013/11/27)

>  <Rbt.Parameter_File>
/export/apps/rDock/src/rDock_2013.1_src/data/scripts/dock_solv.prm

>  <Rbt.Receptor>
prm/blind_docking_20.prm

>  <SCORE>
-7.96795

>  <SCORE.INTER>
-7.96825

>  <SCORE.INTER.CONST>
1

>  <SCORE.INTER.POLAR>
0

>  <SCORE.INTER.ROT>
0

>  <SCORE.INTER.SOLV>
3.6856

>  <SCORE.INTER.VDW>
-10.1407

>  <SCORE.INTER.norm>
-0.724386

>  <SCORE.INTRA>
0

>  <SCORE.INTRA.DIHEDRAL>
0

>  <SCORE.INTRA.DIHEDRAL.0>
0

>  <SCORE.INTRA.POLAR>
0

>  <SCORE.INTRA.POLAR.0>
0

>  <SCORE.INTRA.REPUL>
0

>  <SCORE.INTRA.REPUL.0>
0

>  <SCORE.INTRA.SOLV>
0

>  <SCORE.INTRA.SOLV.lig_0>
-48.3454

>  <SCORE.INTRA.VDW>
0

>  <SCORE.INTRA.VDW.0>
0

>  <SCORE.INTRA.norm>
0

>  <SCORE.RESTR>
0.000305289

>  <SCORE.RESTR.CAVITY>
0.000305289

>  <SCORE.RESTR.norm>
2.77535e-05

>  <SCORE.SYSTEM>
0

>  <SCORE.SYSTEM.CONST>
0

>  <SCORE.SYSTEM.DIHEDRAL>
0

>  <SCORE.SYSTEM.SOLV>
0

>  <SCORE.SYSTEM.norm>
0

>  <SCORE.heavy>
11

>  <SCORE.norm>
-0.724359

>  <RMSD>
10.529

$$$$
ligand
 OpenBabel01301917033D
libRbt.so/2013.1/901 2013/11/27
 11 12  0  0  0  0  0  0  0  0999 V2000
  -12.6004   -3.1944    4.9017 N   0  0  0  0  0  0  0  0  0  0  0  0
  -12.6371   -2.4387    3.7925 C   0  0  0  0  0  0  0  0  0  0  0  0
  -13.4572   -1.3933    3.7325 N   0  0  0  0  0  0  0  0  0  0  0  0
  -11.8606   -2.7349    2.7387 N   0  0  0  0  0  0  0  0  0  0  0  0
  -11.0359   -3.7921    2.7717 C   0  0  0  0  0  0  0  0  0  0  0  0
  -10.9785   -4.5906    3.9069 C   0  0  0  0  0  0  0  0  0  0  0  0
  -11.7909   -4.2619    4.9870 C   0  0  0  0  0  0  0  0  0  0  0  0
  -11.7607   -4.9934    6.0970 N   0  0  0  0  0  0  0  0  0  0  0  0
  -10.1036   -5.5630    3.6683 N   0  0  0  0  0  0  0  0  0  0  0  0
   -9.6277   -5.3897    2.4372 C   0  0  0  0  0  0  0  0  0  0  0  0
  -10.1905   -4.3152    1.8884 N   0  0  0  0  0  0  0  0  0  0  0  0
  1  7  2  0  0  0  0
  1  2  1  0  0  0  0
  2  3  1  0  0  0  0
  2  4  2  0  0  0  0
  4  5  1  0  0  0  0
  5  6  2  0  0  0  0
  5 11  1  0  0  0  0
  6  7  1  0  0  0  0
  6  9  1  0  0  0  0
  7  8  1  0  0  0  0
  9 10  1  0  0  0  0
 10 11  2  0  0  0  0
M  END
>  <CHROM.1>
-11.47539736,-3.86391550,3.72994091,3.02443412,0.81608958,-1.00709770

>  <Name>
ligand

>  <RI>
0

>  <Rbt.Current_Directory>
/home/itssahil/PROJECTS/Mol_Feturizer/New_Systems/rnas/2b57

>  <Rbt.Executable>
rbdock ($Id: //depot/dev/client3/rdock/2013.1/src/exe/rbdock.cxx#4 $)

>  <Rbt.Library>
libRbt.so (2013.1, Build901 2013/11/27)

>  <Rbt.Parameter_File>
/export/apps/rDock/src/rDock_2013.1_src/data/scripts/dock_solv.prm

>  <Rbt.Receptor>
prm/blind_docking_20.prm

>  <SCORE>
-7.97759

>  <SCORE.INTER>
-7.97765

>  <SCORE.INTER.CONST>
1

>  <SCORE.INTER.POLAR>
0

>  <SCORE.INTER.ROT>
0

>  <SCORE.INTER.SOLV>
3.66726

>  <SCORE.INTER.VDW>
-10.1409

>  <SCORE.INTER.norm>
-0.725241

>  <SCORE.INTRA>
0

>  <SCORE.INTRA.DIHEDRAL>
0

>  <SCORE.INTRA.DIHEDRAL.0>
0

>  <SCORE.INTRA.POLAR>
0

>  <SCORE.INTRA.POLAR.0>
0

>  <SCORE.INTRA.REPUL>
0

>  <SCORE.INTRA.REPUL.0>
0

>  <SCORE.INTRA.SOLV>
0

>  <SCORE.INTRA.SOLV.lig_0>
-48.3454

>  <SCORE.INTRA.VDW>
0

>  <SCORE.INTRA.VDW.0>
0

>  <SCORE.INTRA.norm>
0

>  <SCORE.RESTR>
5.47193e-05

>  <SCORE.RESTR.CAVITY>
5.47193e-05

>  <SCORE.RESTR.norm>
4.97448e-06

>  <SCORE.SYSTEM>
0

>  <SCORE.SYSTEM.CONST>
0

>  <SCORE.SYSTEM.DIHEDRAL>
0

>  <SCORE.SYSTEM.SOLV>
0

>  <SCORE.SYSTEM.norm>
0

>  <SCORE.heavy>
11

>  <SCORE.norm>
-0.725236

>  <RMSD>
10.530

$$$$
ligand
 OpenBabel01301917033D
libRbt.so/2013.1/901 2013/11/27
 11 12  0  0  0  0  0  0  0  0999 V2000
  -12.5875   -3.1889    4.8951 N   0  0  0  0  0  0  0  0  0  0  0  0
  -12.6222   -2.4350    3.7846 C   0  0  0  0  0  0  0  0  0  0  0  0
  -13.4404   -1.3882    3.7224 N   0  0  0  0  0  0  0  0  0  0  0  0
  -11.8456   -2.7343    2.7319 N   0  0  0  0  0  0  0  0  0  0  0  0
  -11.0228   -3.7930    2.7670 C   0  0  0  0  0  0  0  0  0  0  0  0
  -10.9675   -4.5897    3.9036 C   0  0  0  0  0  0  0  0  0  0  0  0
  -11.7800   -4.2577    4.9827 C   0  0  0  0  0  0  0  0  0  0  0  0
  -11.7518   -4.9874    6.0940 N   0  0  0  0  0  0  0  0  0  0  0  0
  -10.0942   -5.5641    3.6672 N   0  0  0  0  0  0  0  0  0  0  0  0
   -9.6173   -5.3937    2.4361 C   0  0  0  0  0  0  0  0  0  0  0  0
  -10.1778   -4.3191    1.8852 N   0  0  0  0  0  0  0  0  0  0  0  0
  1  7  2  0  0  0  0
  1  2  1  0  0  0  0
  2  3  1  0  0  0  0
  2  4  2  0  0  0  0
  4  5  1  0  0  0  0
  5  6  2  0  0  0  0
  5 11  1  0  0  0  0
  6  7  1  0  0  0  0
  6  9  1  0  0  0  0
  7  8  1  0  0  0  0
  9 10  1  0  0  0  0
 10 11  2  0  0  0  0
M  END
>  <CHROM.1>
-11.46302365,-3.86238539,3.72517871,3.02227106,0.81727461,-1.00718810

>  <Name>
ligand

>  <RI>
0

>  <Rbt.Current_Directory>
/home/itssahil/PROJECTS/Mol_Feturizer/New_Systems/rnas/2b57

>  <Rbt.Executable>
rbdock ($Id: //depot/dev/client3/rdock/2013.1/src/exe/rbdock.cxx#4 $)

>  <Rbt.Library>
libRbt.so (2013.1, Build901 2013/11/27)

>  <Rbt.Parameter_File>
/export/apps/rDock/src/rDock_2013.1_src/data/scripts/dock_solv.prm

>  <Rbt.Receptor>
prm/blind_docking_20.prm

>  <SCORE>
-7.97295

>  <SCORE.INTER>
-7.97295

>  <SCORE.INTER.CONST>
1

>  <SCORE.INTER.POLAR>
0

>  <SCORE.INTER.ROT>
0

>  <SCORE.INTER.SOLV>
3.67616

>  <SCORE.INTER.VDW>
-10.1407

>  <SCORE.INTER.norm>
-0.724814

>  <SCORE.INTRA>
0

>  <SCORE.INTRA.DIHEDRAL>
0

>  <SCORE.INTRA.DIHEDRAL.0>
0

>  <SCORE.INTRA.POLAR>
0

>  <SCORE.INTRA.POLAR.0>
0

>  <SCORE.INTRA.REPUL>
0

>  <SCORE.INTRA.REPUL.0>
0

>  <SCORE.INTRA.SOLV>
0

>  <SCORE.INTRA.SOLV.lig_0>
-48.3454

>  <SCORE.INTRA.VDW>
0

>  <SCORE.INTRA.VDW.0>
0

>  <SCORE.INTRA.norm>
0

>  <SCORE.RESTR>
0

>  <SCORE.RESTR.CAVITY>
0

>  <SCORE.RESTR.norm>
0

>  <SCORE.SYSTEM>
0

>  <SCORE.SYSTEM.CONST>
0

>  <SCORE.SYSTEM.DIHEDRAL>
0

>  <SCORE.SYSTEM.SOLV>
0

>  <SCORE.SYSTEM.norm>
0

>  <SCORE.heavy>
11

>  <SCORE.norm>
-0.724814

>  <RMSD>
10.534

$$$$
ligand
 OpenBabel01301917033D
libRbt.so/2013.1/901 2013/11/27
 11 12  0  0  0  0  0  0  0  0999 V2000
  -12.5873   -3.1890    4.8946 N   0  0  0  0  0  0  0  0  0  0  0  0
  -12.6255   -2.4358    3.7838 C   0  0  0  0  0  0  0  0  0  0  0  0
  -13.4460   -1.3908    3.7223 N   0  0  0  0  0  0  0  0  0  0  0  0
  -11.8501   -2.7341    2.7299 N   0  0  0  0  0  0  0  0  0  0  0  0
  -11.0250   -3.7910    2.7643 C   0  0  0  0  0  0  0  0  0  0  0  0
  -10.9660   -4.5869    3.9013 C   0  0  0  0  0  0  0  0  0  0  0  0
  -11.7774   -4.2560    4.9815 C   0  0  0  0  0  0  0  0  0  0  0  0
  -11.7457   -4.9849    6.0932 N   0  0  0  0  0  0  0  0  0  0  0  0
  -10.0911   -5.5595    3.6640 N   0  0  0  0  0  0  0  0  0  0  0  0
   -9.6166   -5.3889    2.4320 C   0  0  0  0  0  0  0  0  0  0  0  0
  -10.1803   -4.3158    1.8813 N   0  0  0  0  0  0  0  0  0  0  0  0
  1  7  2  0  0  0  0
  1  2  1  0  0  0  0
  2  3  1  0  0  0  0
  2  4  2  0  0  0  0
  4  5  1  0  0  0  0
  5  6  2  0  0  0  0
  5 11  1  0  0  0  0
  6  7  1  0  0  0  0
  6  9  1  0  0  0  0
  7  8  1  0  0  0  0
  9 10  1  0  0  0  0
 10 11  2  0  0  0  0
M  END
>  <CHROM.1>
-11.46337817,-3.86075493,3.72322436,3.02603524,0.81637678,-1.01055375

>  <Name>
ligand

>  <RI>
0

>  <Rbt.Current_Directory>
/home/itssahil/PROJECTS/Mol_Feturizer/New_Systems/rnas/2b57

>  <Rbt.Executable>
rbdock ($Id: //depot/dev/client3/rdock/2013.1/src/exe/rbdock.cxx#4 $)

>  <Rbt.Library>
libRbt.so (2013.1, Build901 2013/11/27)

>  <Rbt.Parameter_File>
/export/apps/rDock/src/rDock_2013.1_src/data/scripts/dock_solv.prm

>  <Rbt.Receptor>
prm/blind_docking_20.prm

>  <SCORE>
-7.9747

>  <SCORE.INTER>
-7.9747

>  <SCORE.INTER.CONST>
1

>  <SCORE.INTER.POLAR>
0

>  <SCORE.INTER.ROT>
0

>  <SCORE.INTER.SOLV>
3.67907

>  <SCORE.INTER.VDW>
-10.1428

>  <SCORE.INTER.norm>
-0.724973

>  <SCORE.INTRA>
0

>  <SCORE.INTRA.DIHEDRAL>
0

>  <SCORE.INTRA.DIHEDRAL.0>
0

>  <SCORE.INTRA.POLAR>
0

>  <SCORE.INTRA.POLAR.0>
0

>  <SCORE.INTRA.REPUL>
0

>  <SCORE.INTRA.REPUL.0>
0

>  <SCORE.INTRA.SOLV>
0

>  <SCORE.INTRA.SOLV.lig_0>
-48.3454

>  <SCORE.INTRA.VDW>
0

>  <SCORE.INTRA.VDW.0>
0

>  <SCORE.INTRA.norm>
0

>  <SCORE.RESTR>
0

>  <SCORE.RESTR.CAVITY>
0

>  <SCORE.RESTR.norm>
0

>  <SCORE.SYSTEM>
0

>  <SCORE.SYSTEM.CONST>
0

>  <SCORE.SYSTEM.DIHEDRAL>
0

>  <SCORE.SYSTEM.SOLV>
0

>  <SCORE.SYSTEM.norm>
0

>  <SCORE.heavy>
11

>  <SCORE.norm>
-0.724973

>  <RMSD>
10.536

$$$$
ligand
 OpenBabel01301917033D
libRbt.so/2013.1/901 2013/11/27
 11 12  0  0  0  0  0  0  0  0999 V2000
  -12.5878   -3.1895    4.8909 N   0  0  0  0  0  0  0  0  0  0  0  0
  -12.6278   -2.4377    3.7792 C   0  0  0  0  0  0  0  0  0  0  0  0
  -13.4508   -1.3947    3.7164 N   0  0  0  0  0  0  0  0  0  0  0  0
  -11.8517   -2.7355    2.7255 N   0  0  0  0  0  0  0  0  0  0  0  0
  -11.0242   -3.7904    2.7612 C   0  0  0  0  0  0  0  0  0  0  0  0
  -10.9633   -4.5848    3.8992 C   0  0  0  0  0  0  0  0  0  0  0  0
  -11.7754   -4.2545    4.9791 C   0  0  0  0  0  0  0  0  0  0  0  0
  -11.7420   -4.9820    6.0916 N   0  0  0  0  0  0  0  0  0  0  0  0
  -10.0861   -5.5557    3.6630 N   0  0  0  0  0  0  0  0  0  0  0  0
   -9.6121   -5.3854    2.4308 C   0  0  0  0  0  0  0  0  0  0  0  0
  -10.1783   -4.3143    1.8788 N   0  0  0  0  0  0  0  0  0  0  0  0
  1  7  2  0  0  0  0
  1  2  1  0  0  0  0
  2  3  1  0  0  0  0
  2  4  2  0  0  0  0
  4  5  1  0  0  0  0
  5  6  2  0  0  0  0
  5 11  1  0  0  0  0
  6  7  1  0  0  0  0
  6  9  1  0  0  0  0
  7  8  1  0  0  0  0
  9 10  1  0  0  0  0
 10 11  2  0  0  0  0
M  END
>  <CHROM.1>
-11.46237066,-3.86003477,3.72025343,3.02790558,0.81442024,-1.01312021

>  <Name>
ligand

>  <RI>
0

>  <Rbt.Current_Directory>
/home/itssahil/PROJECTS/Mol_Feturizer/New_Systems/rnas/2b57

>  <Rbt.Executable>
rbdock ($Id: //depot/dev/client3/rdock/2013.1/src/exe/rbdock.cxx#4 $)

>  <Rbt.Library>
libRbt.so (2013.1, Build901 2013/11/27)

>  <Rbt.Parameter_File>
/export/apps/rDock/src/rDock_2013.1_src/data/scripts/dock_solv.prm

>  <Rbt.Receptor>
prm/blind_docking_20.prm

>  <SCORE>
-7.97112

>  <SCORE.INTER>
-7.97112

>  <SCORE.INTER.CONST>
1

>  <SCORE.INTER.POLAR>
0

>  <SCORE.INTER.ROT>
0

>  <SCORE.INTER.SOLV>
3.68297

>  <SCORE.INTER.VDW>
-10.1417

>  <SCORE.INTER.norm>
-0.724647

>  <SCORE.INTRA>
0

>  <SCORE.INTRA.DIHEDRAL>
0

>  <SCORE.INTRA.DIHEDRAL.0>
0

>  <SCORE.INTRA.POLAR>
0

>  <SCORE.INTRA.POLAR.0>
0

>  <SCORE.INTRA.REPUL>
0

>  <SCORE.INTRA.REPUL.0>
0

>  <SCORE.INTRA.SOLV>
0

>  <SCORE.INTRA.SOLV.lig_0>
-48.3454

>  <SCORE.INTRA.VDW>
0

>  <SCORE.INTRA.VDW.0>
0

>  <SCORE.INTRA.norm>
0

>  <SCORE.RESTR>
0

>  <SCORE.RESTR.CAVITY>
0

>  <SCORE.RESTR.norm>
0

>  <SCORE.SYSTEM>
0

>  <SCORE.SYSTEM.CONST>
0

>  <SCORE.SYSTEM.DIHEDRAL>
0

>  <SCORE.SYSTEM.SOLV>
0

>  <SCORE.SYSTEM.norm>
0

>  <SCORE.heavy>
11

>  <SCORE.norm>
-0.724647

>  <RMSD>
10.538

$$$$
ligand
 OpenBabel01301917033D
libRbt.so/2013.1/901 2013/11/27
 11 12  0  0  0  0  0  0  0  0999 V2000
  -12.3861   -2.4688    2.0883 N   0  0  0  0  0  0  0  0  0  0  0  0
  -11.6826   -3.2181    1.2243 C   0  0  0  0  0  0  0  0  0  0  0  0
  -11.7229   -2.9403   -0.0757 N   0  0  0  0  0  0  0  0  0  0  0  0
  -10.9465   -4.2523    1.6599 N   0  0  0  0  0  0  0  0  0  0  0  0
  -10.9015   -4.5592    2.9648 C   0  0  0  0  0  0  0  0  0  0  0  0
  -11.6200   -3.8002    3.8799 C   0  0  0  0  0  0  0  0  0  0  0  0
  -12.3734   -2.7320    3.4046 C   0  0  0  0  0  0  0  0  0  0  0  0
  -13.0687   -1.9734    4.2467 N   0  0  0  0  0  0  0  0  0  0  0  0
  -11.4125   -4.3238    5.0844 N   0  0  0  0  0  0  0  0  0  0  0  0
  -10.5995   -5.3680    4.9401 C   0  0  0  0  0  0  0  0  0  0  0  0
  -10.2858   -5.5150    3.6546 N   0  0  0  0  0  0  0  0  0  0  0  0
  1  7  2  0  0  0  0
  1  2  1  0  0  0  0
  2  3  1  0  0  0  0
  2  4  2  0  0  0  0
  4  5  1  0  0  0  0
  5  6  2  0  0  0  0
  5 11  1  0  0  0  0
  6  7  1  0  0  0  0
  6  9  1  0  0  0  0
  7  8  1  0  0  0  0
  9 10  1  0  0  0  0
 10 11  2  0  0  0  0
M  END
>  <CHROM.1>
-11.55302622,-3.72753653,2.98740857,1.96547412,0.91049384,-1.38227150

>  <Name>
ligand

>  <RI>
0

>  <Rbt.Current_Directory>
/home/itssahil/PROJECTS/Mol_Feturizer/New_Systems/rnas/2b57

>  <Rbt.Executable>
rbdock ($Id: //depot/dev/client3/rdock/2013.1/src/exe/rbdock.cxx#4 $)

>  <Rbt.Library>
libRbt.so (2013.1, Build901 2013/11/27)

>  <Rbt.Parameter_File>
/export/apps/rDock/src/rDock_2013.1_src/data/scripts/dock_solv.prm

>  <Rbt.Receptor>
prm/blind_docking_20.prm

>  <SCORE>
-6.86472

>  <SCORE.INTER>
-6.86472

>  <SCORE.INTER.CONST>
1

>  <SCORE.INTER.POLAR>
0

>  <SCORE.INTER.ROT>
0

>  <SCORE.INTER.SOLV>
4.68645

>  <SCORE.INTER.VDW>
-9.73863

>  <SCORE.INTER.norm>
-0.624065

>  <SCORE.INTRA>
0

>  <SCORE.INTRA.DIHEDRAL>
0

>  <SCORE.INTRA.DIHEDRAL.0>
0

>  <SCORE.INTRA.POLAR>
0

>  <SCORE.INTRA.POLAR.0>
0

>  <SCORE.INTRA.REPUL>
0

>  <SCORE.INTRA.REPUL.0>
0

>  <SCORE.INTRA.SOLV>
0

>  <SCORE.INTRA.SOLV.lig_0>
-48.3454

>  <SCORE.INTRA.VDW>
0

>  <SCORE.INTRA.VDW.0>
0

>  <SCORE.INTRA.norm>
0

>  <SCORE.RESTR>
0

>  <SCORE.RESTR.CAVITY>
0

>  <SCORE.RESTR.norm>
0

>  <SCORE.SYSTEM>
0

>  <SCORE.SYSTEM.CONST>
0

>  <SCORE.SYSTEM.DIHEDRAL>
0

>  <SCORE.SYSTEM.SOLV>
0

>  <SCORE.SYSTEM.norm>
0

>  <SCORE.heavy>
11

>  <SCORE.norm>
-0.624065

>  <RMSD>
11.078

$$$$
ligand
 OpenBabel01301917033D
libRbt.so/2013.1/901 2013/11/27
 11 12  0  0  0  0  0  0  0  0999 V2000
  -12.3398   -2.4332    2.0614 N   0  0  0  0  0  0  0  0  0  0  0  0
  -11.5503   -3.0983    1.2028 C   0  0  0  0  0  0  0  0  0  0  0  0
  -11.5339   -2.7537   -0.0817 N   0  0  0  0  0  0  0  0  0  0  0  0
  -10.7845   -4.1153    1.6273 N   0  0  0  0  0  0  0  0  0  0  0  0
  -10.7950   -4.4889    2.9154 C   0  0  0  0  0  0  0  0  0  0  0  0
  -11.6028   -3.8178    3.8247 C   0  0  0  0  0  0  0  0  0  0  0  0
  -12.3855   -2.7655    3.3612 C   0  0  0  0  0  0  0  0  0  0  0  0
  -13.1661   -2.0896    4.1990 N   0  0  0  0  0  0  0  0  0  0  0  0
  -11.4340   -4.3938    5.0112 N   0  0  0  0  0  0  0  0  0  0  0  0
  -10.5591   -5.3859    4.8615 C   0  0  0  0  0  0  0  0  0  0  0  0
  -10.1675   -5.4477    3.5905 N   0  0  0  0  0  0  0  0  0  0  0  0
  1  7  2  0  0  0  0
  1  2  1  0  0  0  0
  2  3  1  0  0  0  0
  2  4  2  0  0  0  0
  4  5  1  0  0  0  0
  5  6  2  0  0  0  0
  5 11  1  0  0  0  0
  6  7  1  0  0  0  0
  6  9  1  0  0  0  0
  7  8  1  0  0  0  0
  9 10  1  0  0  0  0
 10 11  2  0  0  0  0
M  END
>  <CHROM.1>
-11.49075552,-3.69409806,2.94238445,1.89905499,0.84587998,-1.27896168

>  <Name>
ligand

>  <RI>
0

>  <Rbt.Current_Directory>
/home/itssahil/PROJECTS/Mol_Feturizer/New_Systems/rnas/2b57

>  <Rbt.Executable>
rbdock ($Id: //depot/dev/client3/rdock/2013.1/src/exe/rbdock.cxx#4 $)

>  <Rbt.Library>
libRbt.so (2013.1, Build901 2013/11/27)

>  <Rbt.Parameter_File>
/export/apps/rDock/src/rDock_2013.1_src/data/scripts/dock_solv.prm

>  <Rbt.Receptor>
prm/blind_docking_20.prm

>  <SCORE>
-6.91793

>  <SCORE.INTER>
-6.91793

>  <SCORE.INTER.CONST>
1

>  <SCORE.INTER.POLAR>
0

>  <SCORE.INTER.ROT>
0

>  <SCORE.INTER.SOLV>
5.66682

>  <SCORE.INTER.VDW>
-10.1009

>  <SCORE.INTER.norm>
-0.628903

>  <SCORE.INTRA>
0

>  <SCORE.INTRA.DIHEDRAL>
0

>  <SCORE.INTRA.DIHEDRAL.0>
0

>  <SCORE.INTRA.POLAR>
0

>  <SCORE.INTRA.POLAR.0>
0

>  <SCORE.INTRA.REPUL>
0

>  <SCORE.INTRA.REPUL.0>
0

>  <SCORE.INTRA.SOLV>
0

>  <SCORE.INTRA.SOLV.lig_0>
-48.3454

>  <SCORE.INTRA.VDW>
0

>  <SCORE.INTRA.VDW.0>
0

>  <SCORE.INTRA.norm>
0

>  <SCORE.RESTR>
0

>  <SCORE.RESTR.CAVITY>
0

>  <SCORE.RESTR.norm>
0

>  <SCORE.SYSTEM>
0

>  <SCORE.SYSTEM.CONST>
0

>  <SCORE.SYSTEM.DIHEDRAL>
0

>  <SCORE.SYSTEM.SOLV>
0

>  <SCORE.SYSTEM.norm>
0

>  <SCORE.heavy>
11

>  <SCORE.norm>
-0.628903

>  <RMSD>
11.129

$$$$
ligand
 OpenBabel01301917033D
libRbt.so/2013.1/901 2013/11/27
 11 12  0  0  0  0  0  0  0  0999 V2000
  -11.6621   -1.8293    4.4310 N   0  0  0  0  0  0  0  0  0  0  0  0
  -12.0185   -1.6773    3.1455 C   0  0  0  0  0  0  0  0  0  0  0  0
  -12.6117   -0.5533    2.7531 N   0  0  0  0  0  0  0  0  0  0  0  0
  -11.7909   -2.6542    2.2539 N   0  0  0  0  0  0  0  0  0  0  0  0
  -11.2064   -3.8014    2.6296 C   0  0  0  0  0  0  0  0  0  0  0  0
  -10.8277   -3.9846    3.9535 C   0  0  0  0  0  0  0  0  0  0  0  0
  -11.0719   -2.9567    4.8583 C   0  0  0  0  0  0  0  0  0  0  0  0
  -10.7170   -3.0860    6.1332 N   0  0  0  0  0  0  0  0  0  0  0  0
  -10.2934   -5.1981    4.0527 N   0  0  0  0  0  0  0  0  0  0  0  0
  -10.3317   -5.7598    2.8464 C   0  0  0  0  0  0  0  0  0  0  0  0
  -10.8849   -4.9154    1.9783 N   0  0  0  0  0  0  0  0  0  0  0  0
  1  7  2  0  0  0  0
  1  2  1  0  0  0  0
  2  3  1  0  0  0  0
  2  4  2  0  0  0  0
  4  5  1  0  0  0  0
  5  6  2  0  0  0  0
  5 11  1  0  0  0  0
  6  7  1  0  0  0  0
  6  9  1  0  0  0  0
  7  8  1  0  0  0  0
  9 10  1  0  0  0  0
 10 11  2  0  0  0  0
M  END
>  <CHROM.1>
-11.22853839,-3.28802194,3.55297772,-2.64666564,1.11448513,-2.05896691

>  <Name>
ligand

>  <RI>
0

>  <Rbt.Current_Directory>
/home/itssahil/PROJECTS/Mol_Feturizer/New_Systems/rnas/2b57

>  <Rbt.Executable>
rbdock ($Id: //depot/dev/client3/rdock/2013.1/src/exe/rbdock.cxx#4 $)

>  <Rbt.Library>
libRbt.so (2013.1, Build901 2013/11/27)

>  <Rbt.Parameter_File>
/export/apps/rDock/src/rDock_2013.1_src/data/scripts/dock_solv.prm

>  <Rbt.Receptor>
prm/blind_docking_20.prm

>  <SCORE>
-7.26551

>  <SCORE.INTER>
-7.26551

>  <SCORE.INTER.CONST>
1

>  <SCORE.INTER.POLAR>
0

>  <SCORE.INTER.ROT>
0

>  <SCORE.INTER.SOLV>
2.7264

>  <SCORE.INTER.VDW>
-9.35247

>  <SCORE.INTER.norm>
-0.660501

>  <SCORE.INTRA>
0

>  <SCORE.INTRA.DIHEDRAL>
0

>  <SCORE.INTRA.DIHEDRAL.0>
0

>  <SCORE.INTRA.POLAR>
0

>  <SCORE.INTRA.POLAR.0>
0

>  <SCORE.INTRA.REPUL>
0

>  <SCORE.INTRA.REPUL.0>
0

>  <SCORE.INTRA.SOLV>
0

>  <SCORE.INTRA.SOLV.lig_0>
-48.3454

>  <SCORE.INTRA.VDW>
0

>  <SCORE.INTRA.VDW.0>
0

>  <SCORE.INTRA.norm>
0

>  <SCORE.RESTR>
0

>  <SCORE.RESTR.CAVITY>
0

>  <SCORE.RESTR.norm>
0

>  <SCORE.SYSTEM>
0

>  <SCORE.SYSTEM.CONST>
0

>  <SCORE.SYSTEM.DIHEDRAL>
0

>  <SCORE.SYSTEM.SOLV>
0

>  <SCORE.SYSTEM.norm>
0

>  <SCORE.heavy>
11

>  <SCORE.norm>
-0.660501

>  <RMSD>
11.132

$$$$
ligand
 OpenBabel01301917033D
libRbt.so/2013.1/901 2013/11/27
 11 12  0  0  0  0  0  0  0  0999 V2000
  -11.6656   -1.8271    4.4173 N   0  0  0  0  0  0  0  0  0  0  0  0
  -12.0145   -1.6848    3.1286 C   0  0  0  0  0  0  0  0  0  0  0  0
  -12.6107   -0.5663    2.7254 N   0  0  0  0  0  0  0  0  0  0  0  0
  -11.7763   -2.6660    2.2446 N   0  0  0  0  0  0  0  0  0  0  0  0
  -11.1886   -3.8080    2.6312 C   0  0  0  0  0  0  0  0  0  0  0  0
  -10.8176   -3.9811    3.9586 C   0  0  0  0  0  0  0  0  0  0  0  0
  -11.0727   -2.9489    4.8554 C   0  0  0  0  0  0  0  0  0  0  0  0
  -10.7254   -3.0686    6.1333 N   0  0  0  0  0  0  0  0  0  0  0  0
  -10.2779   -5.1913    4.0686 N   0  0  0  0  0  0  0  0  0  0  0  0
  -10.3056   -5.7606    2.8657 C   0  0  0  0  0  0  0  0  0  0  0  0
  -10.8574   -4.9244    1.9888 N   0  0  0  0  0  0  0  0  0  0  0  0
  1  7  2  0  0  0  0
  1  2  1  0  0  0  0
  2  3  1  0  0  0  0
  2  4  2  0  0  0  0
  4  5  1  0  0  0  0
  5  6  2  0  0  0  0
  5 11  1  0  0  0  0
  6  7  1  0  0  0  0
  6  9  1  0  0  0  0
  7  8  1  0  0  0  0
  9 10  1  0  0  0  0
 10 11  2  0  0  0  0
M  END
>  <CHROM.1>
-11.21924279,-3.28903790,3.55113285,-2.66482683,1.11307583,-2.04884727

>  <Name>
ligand

>  <RI>
0

>  <Rbt.Current_Directory>
/home/itssahil/PROJECTS/Mol_Feturizer/New_Systems/rnas/2b57

>  <Rbt.Executable>
rbdock ($Id: //depot/dev/client3/rdock/2013.1/src/exe/rbdock.cxx#4 $)

>  <Rbt.Library>
libRbt.so (2013.1, Build901 2013/11/27)

>  <Rbt.Parameter_File>
/export/apps/rDock/src/rDock_2013.1_src/data/scripts/dock_solv.prm

>  <Rbt.Receptor>
prm/blind_docking_20.prm

>  <SCORE>
-7.27001

>  <SCORE.INTER>
-7.27001

>  <SCORE.INTER.CONST>
1

>  <SCORE.INTER.POLAR>
0

>  <SCORE.INTER.ROT>
0

>  <SCORE.INTER.SOLV>
2.68517

>  <SCORE.INTER.VDW>
-9.34173

>  <SCORE.INTER.norm>
-0.66091

>  <SCORE.INTRA>
0

>  <SCORE.INTRA.DIHEDRAL>
0

>  <SCORE.INTRA.DIHEDRAL.0>
0

>  <SCORE.INTRA.POLAR>
0

>  <SCORE.INTRA.POLAR.0>
0

>  <SCORE.INTRA.REPUL>
0

>  <SCORE.INTRA.REPUL.0>
0

>  <SCORE.INTRA.SOLV>
0

>  <SCORE.INTRA.SOLV.lig_0>
-48.3454

>  <SCORE.INTRA.VDW>
0

>  <SCORE.INTRA.VDW.0>
0

>  <SCORE.INTRA.norm>
0

>  <SCORE.RESTR>
0

>  <SCORE.RESTR.CAVITY>
0

>  <SCORE.RESTR.norm>
0

>  <SCORE.SYSTEM>
0

>  <SCORE.SYSTEM.CONST>
0

>  <SCORE.SYSTEM.DIHEDRAL>
0

>  <SCORE.SYSTEM.SOLV>
0

>  <SCORE.SYSTEM.norm>
0

>  <SCORE.heavy>
11

>  <SCORE.norm>
-0.66091

>  <RMSD>
11.133

$$$$
ligand
 OpenBabel01301917033D
libRbt.so/2013.1/901 2013/11/27
 11 12  0  0  0  0  0  0  0  0999 V2000
  -11.6043   -1.8512    4.3920 N   0  0  0  0  0  0  0  0  0  0  0  0
  -12.0041   -1.6842    3.1212 C   0  0  0  0  0  0  0  0  0  0  0  0
  -12.5967   -0.5500    2.7589 N   0  0  0  0  0  0  0  0  0  0  0  0
  -11.8204   -2.6565    2.2145 N   0  0  0  0  0  0  0  0  0  0  0  0
  -11.2373   -3.8138    2.5603 C   0  0  0  0  0  0  0  0  0  0  0  0
  -10.8143   -4.0125    3.8685 C   0  0  0  0  0  0  0  0  0  0  0  0
  -11.0135   -2.9892    4.7893 C   0  0  0  0  0  0  0  0  0  0  0  0
  -10.6153   -3.1334    6.0498 N   0  0  0  0  0  0  0  0  0  0  0  0
  -10.2920   -5.2333    3.9391 N   0  0  0  0  0  0  0  0  0  0  0  0
  -10.3800   -5.7844    2.7306 C   0  0  0  0  0  0  0  0  0  0  0  0
  -10.9530   -4.9263    1.8893 N   0  0  0  0  0  0  0  0  0  0  0  0
  1  7  2  0  0  0  0
  1  2  1  0  0  0  0
  2  3  1  0  0  0  0
  2  4  2  0  0  0  0
  4  5  1  0  0  0  0
  5  6  2  0  0  0  0
  5 11  1  0  0  0  0
  6  7  1  0  0  0  0
  6  9  1  0  0  0  0
  7  8  1  0  0  0  0
  9 10  1  0  0  0  0
 10 11  2  0  0  0  0
M  END
>  <CHROM.1>
-11.22034726,-3.30782828,3.48783727,-2.56352505,1.10752279,-2.12546036

>  <Name>
ligand

>  <RI>
0

>  <Rbt.Current_Directory>
/home/itssahil/PROJECTS/Mol_Feturizer/New_Systems/rnas/2b57

>  <Rbt.Executable>
rbdock ($Id: //depot/dev/client3/rdock/2013.1/src/exe/rbdock.cxx#4 $)

>  <Rbt.Library>
libRbt.so (2013.1, Build901 2013/11/27)

>  <Rbt.Parameter_File>
/export/apps/rDock/src/rDock_2013.1_src/data/scripts/dock_solv.prm

>  <Rbt.Receptor>
prm/blind_docking_20.prm

>  <SCORE>
-7.16155

>  <SCORE.INTER>
-7.16155

>  <SCORE.INTER.CONST>
1

>  <SCORE.INTER.POLAR>
0

>  <SCORE.INTER.ROT>
0

>  <SCORE.INTER.SOLV>
3.13655

>  <SCORE.INTER.VDW>
-9.41988

>  <SCORE.INTER.norm>
-0.65105

>  <SCORE.INTRA>
0

>  <SCORE.INTRA.DIHEDRAL>
0

>  <SCORE.INTRA.DIHEDRAL.0>
0

>  <SCORE.INTRA.POLAR>
0

>  <SCORE.INTRA.POLAR.0>
0

>  <SCORE.INTRA.REPUL>
0

>  <SCORE.INTRA.REPUL.0>
0

>  <SCORE.INTRA.SOLV>
0

>  <SCORE.INTRA.SOLV.lig_0>
-48.3454

>  <SCORE.INTRA.VDW>
0

>  <SCORE.INTRA.VDW.0>
0

>  <SCORE.INTRA.norm>
0

>  <SCORE.RESTR>
0

>  <SCORE.RESTR.CAVITY>
0

>  <SCORE.RESTR.norm>
0

>  <SCORE.SYSTEM>
0

>  <SCORE.SYSTEM.CONST>
0

>  <SCORE.SYSTEM.DIHEDRAL>
0

>  <SCORE.SYSTEM.SOLV>
0

>  <SCORE.SYSTEM.norm>
0

>  <SCORE.heavy>
11

>  <SCORE.norm>
-0.65105

>  <RMSD>
11.139

$$$$
ligand
 OpenBabel01301917033D
libRbt.so/2013.1/901 2013/11/27
 11 12  0  0  0  0  0  0  0  0999 V2000
  -11.7367   -1.8401    4.4204 N   0  0  0  0  0  0  0  0  0  0  0  0
  -12.0314   -1.6669    3.1220 C   0  0  0  0  0  0  0  0  0  0  0  0
  -12.6055   -0.5365    2.7201 N   0  0  0  0  0  0  0  0  0  0  0  0
  -11.7612   -2.6293    2.2265 N   0  0  0  0  0  0  0  0  0  0  0  0
  -11.1949   -3.7828    2.6109 C   0  0  0  0  0  0  0  0  0  0  0  0
  -10.8799   -3.9877    3.9482 C   0  0  0  0  0  0  0  0  0  0  0  0
  -11.1672   -2.9746    4.8570 C   0  0  0  0  0  0  0  0  0  0  0  0
  -10.8736   -3.1249    6.1451 N   0  0  0  0  0  0  0  0  0  0  0  0
  -10.3505   -5.2030    4.0530 N   0  0  0  0  0  0  0  0  0  0  0  0
  -10.3310   -5.7448    2.8372 C   0  0  0  0  0  0  0  0  0  0  0  0
  -10.8424   -4.8862    1.9576 N   0  0  0  0  0  0  0  0  0  0  0  0
  1  7  2  0  0  0  0
  1  2  1  0  0  0  0
  2  3  1  0  0  0  0
  2  4  2  0  0  0  0
  4  5  1  0  0  0  0
  5  6  2  0  0  0  0
  5 11  1  0  0  0  0
  6  7  1  0  0  0  0
  6  9  1  0  0  0  0
  7  8  1  0  0  0  0
  9 10  1  0  0  0  0
 10 11  2  0  0  0  0
M  END
>  <CHROM.1>
-11.26130707,-3.28451339,3.54042413,-2.74696004,1.13470318,-1.95215375

>  <Name>
ligand

>  <RI>
0

>  <Rbt.Current_Directory>
/home/itssahil/PROJECTS/Mol_Feturizer/New_Systems/rnas/2b57

>  <Rbt.Executable>
rbdock ($Id: //depot/dev/client3/rdock/2013.1/src/exe/rbdock.cxx#4 $)

>  <Rbt.Library>
libRbt.so (2013.1, Build901 2013/11/27)

>  <Rbt.Parameter_File>
/export/apps/rDock/src/rDock_2013.1_src/data/scripts/dock_solv.prm

>  <Rbt.Receptor>
prm/blind_docking_20.prm

>  <SCORE>
-7.29782

>  <SCORE.INTER>
-7.29782

>  <SCORE.INTER.CONST>
1

>  <SCORE.INTER.POLAR>
0

>  <SCORE.INTER.ROT>
0

>  <SCORE.INTER.SOLV>
2.35103

>  <SCORE.INTER.VDW>
-9.24889

>  <SCORE.INTER.norm>
-0.663438

>  <SCORE.INTRA>
0

>  <SCORE.INTRA.DIHEDRAL>
0

>  <SCORE.INTRA.DIHEDRAL.0>
0

>  <SCORE.INTRA.POLAR>
0

>  <SCORE.INTRA.POLAR.0>
0

>  <SCORE.INTRA.REPUL>
0

>  <SCORE.INTRA.REPUL.0>
0

>  <SCORE.INTRA.SOLV>
0

>  <SCORE.INTRA.SOLV.lig_0>
-48.3454

>  <SCORE.INTRA.VDW>
0

>  <SCORE.INTRA.VDW.0>
0

>  <SCORE.INTRA.norm>
0

>  <SCORE.RESTR>
0

>  <SCORE.RESTR.CAVITY>
0

>  <SCORE.RESTR.norm>
0

>  <SCORE.SYSTEM>
0

>  <SCORE.SYSTEM.CONST>
0

>  <SCORE.SYSTEM.DIHEDRAL>
0

>  <SCORE.SYSTEM.SOLV>
0

>  <SCORE.SYSTEM.norm>
0

>  <SCORE.heavy>
11

>  <SCORE.norm>
-0.663438

>  <RMSD>
11.140

$$$$
ligand
 OpenBabel01301917033D
libRbt.so/2013.1/901 2013/11/27
 11 12  0  0  0  0  0  0  0  0999 V2000
  -11.7076   -1.8178    4.3698 N   0  0  0  0  0  0  0  0  0  0  0  0
  -12.0154   -1.6645    3.0719 C   0  0  0  0  0  0  0  0  0  0  0  0
  -12.5864   -0.5370    2.6573 N   0  0  0  0  0  0  0  0  0  0  0  0
  -11.7612   -2.6435    2.1898 N   0  0  0  0  0  0  0  0  0  0  0  0
  -11.1984   -3.7941    2.5875 C   0  0  0  0  0  0  0  0  0  0  0  0
  -10.8701   -3.9788    3.9245 C   0  0  0  0  0  0  0  0  0  0  0  0
  -11.1409   -2.9487    4.8192 C   0  0  0  0  0  0  0  0  0  0  0  0
  -10.8342   -3.0794    6.1064 N   0  0  0  0  0  0  0  0  0  0  0  0
  -10.3476   -5.1957    4.0439 N   0  0  0  0  0  0  0  0  0  0  0  0
  -10.3449   -5.7579    2.8373 C   0  0  0  0  0  0  0  0  0  0  0  0
  -10.8602   -4.9107    1.9490 N   0  0  0  0  0  0  0  0  0  0  0  0
  1  7  2  0  0  0  0
  1  2  1  0  0  0  0
  2  3  1  0  0  0  0
  2  4  2  0  0  0  0
  4  5  1  0  0  0  0
  5  6  2  0  0  0  0
  5 11  1  0  0  0  0
  6  7  1  0  0  0  0
  6  9  1  0  0  0  0
  7  8  1  0  0  0  0
  9 10  1  0  0  0  0
 10 11  2  0  0  0  0
M  END
>  <CHROM.1>
-11.25135667,-3.27995581,3.50910813,-2.71712617,1.13655701,-1.99596352

>  <Name>
ligand

>  <RI>
0

>  <Rbt.Current_Directory>
/home/itssahil/PROJECTS/Mol_Feturizer/New_Systems/rnas/2b57

>  <Rbt.Executable>
rbdock ($Id: //depot/dev/client3/rdock/2013.1/src/exe/rbdock.cxx#4 $)

>  <Rbt.Library>
libRbt.so (2013.1, Build901 2013/11/27)

>  <Rbt.Parameter_File>
/export/apps/rDock/src/rDock_2013.1_src/data/scripts/dock_solv.prm

>  <Rbt.Receptor>
prm/blind_docking_20.prm

>  <SCORE>
-7.25431

>  <SCORE.INTER>
-7.25431

>  <SCORE.INTER.CONST>
1

>  <SCORE.INTER.POLAR>
0

>  <SCORE.INTER.ROT>
0

>  <SCORE.INTER.SOLV>
2.46692

>  <SCORE.INTER.VDW>
-9.25852

>  <SCORE.INTER.norm>
-0.659483

>  <SCORE.INTRA>
0

>  <SCORE.INTRA.DIHEDRAL>
0

>  <SCORE.INTRA.DIHEDRAL.0>
0

>  <SCORE.INTRA.POLAR>
0

>  <SCORE.INTRA.POLAR.0>
0

>  <SCORE.INTRA.REPUL>
0

>  <SCORE.INTRA.REPUL.0>
0

>  <SCORE.INTRA.SOLV>
0

>  <SCORE.INTRA.SOLV.lig_0>
-48.3454

>  <SCORE.INTRA.VDW>
0

>  <SCORE.INTRA.VDW.0>
0

>  <SCORE.INTRA.norm>
0

>  <SCORE.RESTR>
0

>  <SCORE.RESTR.CAVITY>
0

>  <SCORE.RESTR.norm>
0

>  <SCORE.SYSTEM>
0

>  <SCORE.SYSTEM.CONST>
0

>  <SCORE.SYSTEM.DIHEDRAL>
0

>  <SCORE.SYSTEM.SOLV>
0

>  <SCORE.SYSTEM.norm>
0

>  <SCORE.heavy>
11

>  <SCORE.norm>
-0.659483

>  <RMSD>
11.158

$$$$
ligand
 OpenBabel01301917033D
libRbt.so/2013.1/901 2013/11/27
 11 12  0  0  0  0  0  0  0  0999 V2000
  -11.6497   -1.8075    4.3967 N   0  0  0  0  0  0  0  0  0  0  0  0
  -12.0125   -1.6493    3.1137 C   0  0  0  0  0  0  0  0  0  0  0  0
  -12.5954   -0.5182    2.7268 N   0  0  0  0  0  0  0  0  0  0  0  0
  -11.8015   -2.6273    2.2191 N   0  0  0  0  0  0  0  0  0  0  0  0
  -11.2276   -3.7816    2.5894 C   0  0  0  0  0  0  0  0  0  0  0  0
  -10.8427   -3.9713    3.9106 C   0  0  0  0  0  0  0  0  0  0  0  0
  -11.0695   -2.9422    4.8185 C   0  0  0  0  0  0  0  0  0  0  0  0
  -10.7081   -3.0776    6.0909 N   0  0  0  0  0  0  0  0  0  0  0  0
  -10.3215   -5.1909    4.0044 N   0  0  0  0  0  0  0  0  0  0  0  0
  -10.3737   -5.7501    2.7975 C   0  0  0  0  0  0  0  0  0  0  0  0
  -10.9228   -4.8981    1.9343 N   0  0  0  0  0  0  0  0  0  0  0  0
  1  7  2  0  0  0  0
  1  2  1  0  0  0  0
  2  3  1  0  0  0  0
  2  4  2  0  0  0  0
  4  5  1  0  0  0  0
  5  6  2  0  0  0  0
  5 11  1  0  0  0  0
  6  7  1  0  0  0  0
  6  9  1  0  0  0  0
  7  8  1  0  0  0  0
  9 10  1  0  0  0  0
 10 11  2  0  0  0  0
M  END
>  <CHROM.1>
-11.23815353,-3.26957644,3.51363539,-2.62166537,1.12136590,-2.07982490

>  <Name>
ligand

>  <RI>
0

>  <Rbt.Current_Directory>
/home/itssahil/PROJECTS/Mol_Feturizer/New_Systems/rnas/2b57

>  <Rbt.Executable>
rbdock ($Id: //depot/dev/client3/rdock/2013.1/src/exe/rbdock.cxx#4 $)

>  <Rbt.Library>
libRbt.so (2013.1, Build901 2013/11/27)

>  <Rbt.Parameter_File>
/export/apps/rDock/src/rDock_2013.1_src/data/scripts/dock_solv.prm

>  <Rbt.Receptor>
prm/blind_docking_20.prm

>  <SCORE>
-7.20966

>  <SCORE.INTER>
-7.20966

>  <SCORE.INTER.CONST>
1

>  <SCORE.INTER.POLAR>
0

>  <SCORE.INTER.ROT>
0

>  <SCORE.INTER.SOLV>
2.7764

>  <SCORE.INTER.VDW>
-9.33191

>  <SCORE.INTER.norm>
-0.655424

>  <SCORE.INTRA>
0

>  <SCORE.INTRA.DIHEDRAL>
0

>  <SCORE.INTRA.DIHEDRAL.0>
0

>  <SCORE.INTRA.POLAR>
0

>  <SCORE.INTRA.POLAR.0>
0

>  <SCORE.INTRA.REPUL>
0

>  <SCORE.INTRA.REPUL.0>
0

>  <SCORE.INTRA.SOLV>
0

>  <SCORE.INTRA.SOLV.lig_0>
-48.3454

>  <SCORE.INTRA.VDW>
0

>  <SCORE.INTRA.VDW.0>
0

>  <SCORE.INTRA.norm>
0

>  <SCORE.RESTR>
0

>  <SCORE.RESTR.CAVITY>
0

>  <SCORE.RESTR.norm>
0

>  <SCORE.SYSTEM>
0

>  <SCORE.SYSTEM.CONST>
0

>  <SCORE.SYSTEM.DIHEDRAL>
0

>  <SCORE.SYSTEM.SOLV>
0

>  <SCORE.SYSTEM.norm>
0

>  <SCORE.heavy>
11

>  <SCORE.norm>
-0.655424

>  <RMSD>
11.164

$$$$
ligand
 OpenBabel01301917033D
libRbt.so/2013.1/901 2013/11/27
 11 12  0  0  0  0  0  0  0  0999 V2000
  -11.6958   -1.7891    4.3773 N   0  0  0  0  0  0  0  0  0  0  0  0
  -12.0134   -1.6500    3.0802 C   0  0  0  0  0  0  0  0  0  0  0  0
  -12.5935   -0.5297    2.6588 N   0  0  0  0  0  0  0  0  0  0  0  0
  -11.7601   -2.6361    2.2059 N   0  0  0  0  0  0  0  0  0  0  0  0
  -11.1882   -3.7798    2.6107 C   0  0  0  0  0  0  0  0  0  0  0  0
  -10.8496   -3.9497    3.9471 C   0  0  0  0  0  0  0  0  0  0  0  0
  -11.1198   -2.9125    4.8336 C   0  0  0  0  0  0  0  0  0  0  0  0
  -10.8034   -3.0290    6.1199 N   0  0  0  0  0  0  0  0  0  0  0  0
  -10.3197   -5.1625    4.0746 N   0  0  0  0  0  0  0  0  0  0  0  0
  -10.3223   -5.7364    2.8735 C   0  0  0  0  0  0  0  0  0  0  0  0
  -10.8484   -4.9007    1.9807 N   0  0  0  0  0  0  0  0  0  0  0  0
  1  7  2  0  0  0  0
  1  2  1  0  0  0  0
  2  3  1  0  0  0  0
  2  4  2  0  0  0  0
  4  5  1  0  0  0  0
  5  6  2  0  0  0  0
  5 11  1  0  0  0  0
  6  7  1  0  0  0  0
  6  9  1  0  0  0  0
  7  8  1  0  0  0  0
  9 10  1  0  0  0  0
 10 11  2  0  0  0  0
M  END
>  <CHROM.1>
-11.23757871,-3.25700553,3.52763352,-2.70750858,1.12867996,-2.01437193

>  <Name>
ligand

>  <RI>
0

>  <Rbt.Current_Directory>
/home/itssahil/PROJECTS/Mol_Feturizer/New_Systems/rnas/2b57

>  <Rbt.Executable>
rbdock ($Id: //depot/dev/client3/rdock/2013.1/src/exe/rbdock.cxx#4 $)

>  <Rbt.Library>
libRbt.so (2013.1, Build901 2013/11/27)

>  <Rbt.Parameter_File>
/export/apps/rDock/src/rDock_2013.1_src/data/scripts/dock_solv.prm

>  <Rbt.Receptor>
prm/blind_docking_20.prm

>  <SCORE>
-7.24129

>  <SCORE.INTER>
-7.24129

>  <SCORE.INTER.CONST>
1

>  <SCORE.INTER.POLAR>
0

>  <SCORE.INTER.ROT>
0

>  <SCORE.INTER.SOLV>
2.44814

>  <SCORE.INTER.VDW>
-9.24357

>  <SCORE.INTER.norm>
-0.658299

>  <SCORE.INTRA>
0

>  <SCORE.INTRA.DIHEDRAL>
0

>  <SCORE.INTRA.DIHEDRAL.0>
0

>  <SCORE.INTRA.POLAR>
0

>  <SCORE.INTRA.POLAR.0>
0

>  <SCORE.INTRA.REPUL>
0

>  <SCORE.INTRA.REPUL.0>
0

>  <SCORE.INTRA.SOLV>
0

>  <SCORE.INTRA.SOLV.lig_0>
-48.3454

>  <SCORE.INTRA.VDW>
0

>  <SCORE.INTRA.VDW.0>
0

>  <SCORE.INTRA.norm>
0

>  <SCORE.RESTR>
0

>  <SCORE.RESTR.CAVITY>
0

>  <SCORE.RESTR.norm>
0

>  <SCORE.SYSTEM>
0

>  <SCORE.SYSTEM.CONST>
0

>  <SCORE.SYSTEM.DIHEDRAL>
0

>  <SCORE.SYSTEM.SOLV>
0

>  <SCORE.SYSTEM.norm>
0

>  <SCORE.heavy>
11

>  <SCORE.norm>
-0.658299

>  <RMSD>
11.171

$$$$
ligand
 OpenBabel01301917033D
libRbt.so/2013.1/901 2013/11/27
 11 12  0  0  0  0  0  0  0  0999 V2000
  -12.7476   -1.9473    2.8249 N   0  0  0  0  0  0  0  0  0  0  0  0
  -12.4052   -1.9620    4.1231 C   0  0  0  0  0  0  0  0  0  0  0  0
  -12.8465   -1.0040    4.9334 N   0  0  0  0  0  0  0  0  0  0  0  0
  -11.6126   -2.9298    4.6090 N   0  0  0  0  0  0  0  0  0  0  0  0
  -11.1449   -3.8984    3.8078 C   0  0  0  0  0  0  0  0  0  0  0  0
  -11.4837   -3.9067    2.4606 C   0  0  0  0  0  0  0  0  0  0  0  0
  -12.3085   -2.8945    1.9811 C   0  0  0  0  0  0  0  0  0  0  0  0
  -12.6655   -2.8694    0.7005 N   0  0  0  0  0  0  0  0  0  0  0  0
  -10.8813   -4.9527    1.9029 N   0  0  0  0  0  0  0  0  0  0  0  0
  -10.1911   -5.5795    2.8530 C   0  0  0  0  0  0  0  0  0  0  0  0
  -10.3481   -4.9435    4.0120 N   0  0  0  0  0  0  0  0  0  0  0  0
  1  7  2  0  0  0  0
  1  2  1  0  0  0  0
  2  3  1  0  0  0  0
  2  4  2  0  0  0  0
  4  5  1  0  0  0  0
  5  6  2  0  0  0  0
  5 11  1  0  0  0  0
  6  7  1  0  0  0  0
  6  9  1  0  0  0  0
  7  8  1  0  0  0  0
  9 10  1  0  0  0  0
 10 11  2  0  0  0  0
M  END
>  <CHROM.1>
-11.70707473,-3.33303433,3.11433327,2.53472833,-0.92983200,1.21417604

>  <Name>
ligand

>  <RI>
0

>  <Rbt.Current_Directory>
/home/itssahil/PROJECTS/Mol_Feturizer/New_Systems/rnas/2b57

>  <Rbt.Executable>
rbdock ($Id: //depot/dev/client3/rdock/2013.1/src/exe/rbdock.cxx#4 $)

>  <Rbt.Library>
libRbt.so (2013.1, Build901 2013/11/27)

>  <Rbt.Parameter_File>
/export/apps/rDock/src/rDock_2013.1_src/data/scripts/dock_solv.prm

>  <Rbt.Receptor>
prm/blind_docking_20.prm

>  <SCORE>
-6.81621

>  <SCORE.INTER>
-6.81621

>  <SCORE.INTER.CONST>
1

>  <SCORE.INTER.POLAR>
0

>  <SCORE.INTER.ROT>
0

>  <SCORE.INTER.SOLV>
1.97071

>  <SCORE.INTER.VDW>
-8.80104

>  <SCORE.INTER.norm>
-0.619655

>  <SCORE.INTRA>
0

>  <SCORE.INTRA.DIHEDRAL>
0

>  <SCORE.INTRA.DIHEDRAL.0>
0

>  <SCORE.INTRA.POLAR>
0

>  <SCORE.INTRA.POLAR.0>
0

>  <SCORE.INTRA.REPUL>
0

>  <SCORE.INTRA.REPUL.0>
0

>  <SCORE.INTRA.SOLV>
0

>  <SCORE.INTRA.SOLV.lig_0>
-48.3454

>  <SCORE.INTRA.VDW>
0

>  <SCORE.INTRA.VDW.0>
0

>  <SCORE.INTRA.norm>
0

>  <SCORE.RESTR>
0

>  <SCORE.RESTR.CAVITY>
0

>  <SCORE.RESTR.norm>
0

>  <SCORE.SYSTEM>
0

>  <SCORE.SYSTEM.CONST>
0

>  <SCORE.SYSTEM.DIHEDRAL>
0

>  <SCORE.SYSTEM.SOLV>
0

>  <SCORE.SYSTEM.norm>
0

>  <SCORE.heavy>
11

>  <SCORE.norm>
-0.619655

>  <RMSD>
11.176

$$$$
ligand
 OpenBabel01301917033D
libRbt.so/2013.1/901 2013/11/27
 11 12  0  0  0  0  0  0  0  0999 V2000
  -11.4995   -1.7688    4.4658 N   0  0  0  0  0  0  0  0  0  0  0  0
  -11.9679   -1.6073    3.2179 C   0  0  0  0  0  0  0  0  0  0  0  0
  -12.5752   -0.4727    2.8821 N   0  0  0  0  0  0  0  0  0  0  0  0
  -11.8378   -2.5853    2.3081 N   0  0  0  0  0  0  0  0  0  0  0  0
  -11.2409   -3.7430    2.6281 C   0  0  0  0  0  0  0  0  0  0  0  0
  -10.7475   -3.9361    3.9122 C   0  0  0  0  0  0  0  0  0  0  0  0
  -10.8920   -2.9069    4.8367 C   0  0  0  0  0  0  0  0  0  0  0  0
  -10.4258   -3.0457    6.0742 N   0  0  0  0  0  0  0  0  0  0  0  0
  -10.2267   -5.1586    3.9611 N   0  0  0  0  0  0  0  0  0  0  0  0
  -10.3829   -5.7161    2.7624 C   0  0  0  0  0  0  0  0  0  0  0  0
  -10.9980   -4.8603    1.9489 N   0  0  0  0  0  0  0  0  0  0  0  0
  1  7  2  0  0  0  0
  1  2  1  0  0  0  0
  2  3  1  0  0  0  0
  2  4  2  0  0  0  0
  4  5  1  0  0  0  0
  5  6  2  0  0  0  0
  5 11  1  0  0  0  0
  6  7  1  0  0  0  0
  6  9  1  0  0  0  0
  7  8  1  0  0  0  0
  9 10  1  0  0  0  0
 10 11  2  0  0  0  0
M  END
>  <CHROM.1>
-11.17119180,-3.23194225,3.55034028,-2.46026355,1.07951184,-2.22287584

>  <Name>
ligand

>  <RI>
0

>  <Rbt.Current_Directory>
/home/itssahil/PROJECTS/Mol_Feturizer/New_Systems/rnas/2b57

>  <Rbt.Executable>
rbdock ($Id: //depot/dev/client3/rdock/2013.1/src/exe/rbdock.cxx#4 $)

>  <Rbt.Library>
libRbt.so (2013.1, Build901 2013/11/27)

>  <Rbt.Parameter_File>
/export/apps/rDock/src/rDock_2013.1_src/data/scripts/dock_solv.prm

>  <Rbt.Receptor>
prm/blind_docking_20.prm

>  <SCORE>
-7.21132

>  <SCORE.INTER>
-7.21146

>  <SCORE.INTER.CONST>
1

>  <SCORE.INTER.POLAR>
0

>  <SCORE.INTER.ROT>
0

>  <SCORE.INTER.SOLV>
3.51233

>  <SCORE.INTER.VDW>
-9.57842

>  <SCORE.INTER.norm>
-0.655587

>  <SCORE.INTRA>
0

>  <SCORE.INTRA.DIHEDRAL>
0

>  <SCORE.INTRA.DIHEDRAL.0>
0

>  <SCORE.INTRA.POLAR>
0

>  <SCORE.INTRA.POLAR.0>
0

>  <SCORE.INTRA.REPUL>
0

>  <SCORE.INTRA.REPUL.0>
0

>  <SCORE.INTRA.SOLV>
0

>  <SCORE.INTRA.SOLV.lig_0>
-48.3454

>  <SCORE.INTRA.VDW>
0

>  <SCORE.INTRA.VDW.0>
0

>  <SCORE.INTRA.norm>
0

>  <SCORE.RESTR>
0.000143389

>  <SCORE.RESTR.CAVITY>
0.000143389

>  <SCORE.RESTR.norm>
1.30353e-05

>  <SCORE.SYSTEM>
0

>  <SCORE.SYSTEM.CONST>
0

>  <SCORE.SYSTEM.DIHEDRAL>
0

>  <SCORE.SYSTEM.SOLV>
0

>  <SCORE.SYSTEM.norm>
0

>  <SCORE.heavy>
11

>  <SCORE.norm>
-0.655574

>  <RMSD>
11.182

$$$$
ligand
 OpenBabel01301917033D
libRbt.so/2013.1/901 2013/11/27
 11 12  0  0  0  0  0  0  0  0999 V2000
  -12.7588   -1.9164    2.8948 N   0  0  0  0  0  0  0  0  0  0  0  0
  -12.4024   -1.9440    4.1890 C   0  0  0  0  0  0  0  0  0  0  0  0
  -12.8501   -1.0048    5.0175 N   0  0  0  0  0  0  0  0  0  0  0  0
  -11.5894   -2.9058    4.6527 N   0  0  0  0  0  0  0  0  0  0  0  0
  -11.1150   -3.8554    3.8329 C   0  0  0  0  0  0  0  0  0  0  0  0
  -11.4680   -3.8501    2.4894 C   0  0  0  0  0  0  0  0  0  0  0  0
  -12.3139   -2.8445    2.0330 C   0  0  0  0  0  0  0  0  0  0  0  0
  -12.6849   -2.8071    0.7567 N   0  0  0  0  0  0  0  0  0  0  0  0
  -10.8552   -4.8783    1.9105 N   0  0  0  0  0  0  0  0  0  0  0  0
  -10.1450   -5.5074    2.8443 C   0  0  0  0  0  0  0  0  0  0  0  0
  -10.2997   -4.8904    4.0138 N   0  0  0  0  0  0  0  0  0  0  0  0
  1  7  2  0  0  0  0
  1  2  1  0  0  0  0
  2  3  1  0  0  0  0
  2  4  2  0  0  0  0
  4  5  1  0  0  0  0
  5  6  2  0  0  0  0
  5 11  1  0  0  0  0
  6  7  1  0  0  0  0
  6  9  1  0  0  0  0
  7  8  1  0  0  0  0
  9 10  1  0  0  0  0
 10 11  2  0  0  0  0
M  END
>  <CHROM.1>
-11.69346877,-3.28932883,3.15350638,2.52742552,-0.91126369,1.22256869

>  <Name>
ligand

>  <RI>
0

>  <Rbt.Current_Directory>
/home/itssahil/PROJECTS/Mol_Feturizer/New_Systems/rnas/2b57

>  <Rbt.Executable>
rbdock ($Id: //depot/dev/client3/rdock/2013.1/src/exe/rbdock.cxx#4 $)

>  <Rbt.Library>
libRbt.so (2013.1, Build901 2013/11/27)

>  <Rbt.Parameter_File>
/export/apps/rDock/src/rDock_2013.1_src/data/scripts/dock_solv.prm

>  <Rbt.Receptor>
prm/blind_docking_20.prm

>  <SCORE>
-6.83787

>  <SCORE.INTER>
-6.83787

>  <SCORE.INTER.CONST>
1

>  <SCORE.INTER.POLAR>
0

>  <SCORE.INTER.ROT>
0

>  <SCORE.INTER.SOLV>
1.82203

>  <SCORE.INTER.VDW>
-8.76592

>  <SCORE.INTER.norm>
-0.621625

>  <SCORE.INTRA>
0

>  <SCORE.INTRA.DIHEDRAL>
0

>  <SCORE.INTRA.DIHEDRAL.0>
0

>  <SCORE.INTRA.POLAR>
0

>  <SCORE.INTRA.POLAR.0>
0

>  <SCORE.INTRA.REPUL>
0

>  <SCORE.INTRA.REPUL.0>
0

>  <SCORE.INTRA.SOLV>
0

>  <SCORE.INTRA.SOLV.lig_0>
-48.3454

>  <SCORE.INTRA.VDW>
0

>  <SCORE.INTRA.VDW.0>
0

>  <SCORE.INTRA.norm>
0

>  <SCORE.RESTR>
0

>  <SCORE.RESTR.CAVITY>
0

>  <SCORE.RESTR.norm>
0

>  <SCORE.SYSTEM>
0

>  <SCORE.SYSTEM.CONST>
0

>  <SCORE.SYSTEM.DIHEDRAL>
0

>  <SCORE.SYSTEM.SOLV>
0

>  <SCORE.SYSTEM.norm>
0

>  <SCORE.heavy>
11

>  <SCORE.norm>
-0.621625

>  <RMSD>
11.192

$$$$
ligand
 OpenBabel01301917033D
libRbt.so/2013.1/901 2013/11/27
 11 12  0  0  0  0  0  0  0  0999 V2000
  -11.7402   -1.7900    4.2579 N   0  0  0  0  0  0  0  0  0  0  0  0
  -12.0419   -1.6711    2.9550 C   0  0  0  0  0  0  0  0  0  0  0  0
  -12.6118   -0.5555    2.5082 N   0  0  0  0  0  0  0  0  0  0  0  0
  -11.7829   -2.6728    2.1002 N   0  0  0  0  0  0  0  0  0  0  0  0
  -11.2211   -3.8121    2.5306 C   0  0  0  0  0  0  0  0  0  0  0  0
  -10.8990   -3.9612    3.8736 C   0  0  0  0  0  0  0  0  0  0  0  0
  -11.1748   -2.9082    4.7395 C   0  0  0  0  0  0  0  0  0  0  0  0
  -10.8741   -3.0047    6.0312 N   0  0  0  0  0  0  0  0  0  0  0  0
  -10.3762   -5.1741    4.0274 N   0  0  0  0  0  0  0  0  0  0  0  0
  -10.3674   -5.7679    2.8361 C   0  0  0  0  0  0  0  0  0  0  0  0
  -10.8791   -4.9448    1.9233 N   0  0  0  0  0  0  0  0  0  0  0  0
  1  7  2  0  0  0  0
  1  2  1  0  0  0  0
  2  3  1  0  0  0  0
  2  4  2  0  0  0  0
  4  5  1  0  0  0  0
  5  6  2  0  0  0  0
  5 11  1  0  0  0  0
  6  7  1  0  0  0  0
  6  9  1  0  0  0  0
  7  8  1  0  0  0  0
  9 10  1  0  0  0  0
 10 11  2  0  0  0  0
M  END
>  <CHROM.1>
-11.27877266,-3.27390120,3.43813752,-2.72811134,1.13781844,-2.01231476

>  <Name>
ligand

>  <RI>
0

>  <Rbt.Current_Directory>
/home/itssahil/PROJECTS/Mol_Feturizer/New_Systems/rnas/2b57

>  <Rbt.Executable>
rbdock ($Id: //depot/dev/client3/rdock/2013.1/src/exe/rbdock.cxx#4 $)

>  <Rbt.Library>
libRbt.so (2013.1, Build901 2013/11/27)

>  <Rbt.Parameter_File>
/export/apps/rDock/src/rDock_2013.1_src/data/scripts/dock_solv.prm

>  <Rbt.Receptor>
prm/blind_docking_20.prm

>  <SCORE>
-7.2569

>  <SCORE.INTER>
-7.2569

>  <SCORE.INTER.CONST>
1

>  <SCORE.INTER.POLAR>
0

>  <SCORE.INTER.ROT>
0

>  <SCORE.INTER.SOLV>
2.34398

>  <SCORE.INTER.VDW>
-9.21926

>  <SCORE.INTER.norm>
-0.659719

>  <SCORE.INTRA>
0

>  <SCORE.INTRA.DIHEDRAL>
0

>  <SCORE.INTRA.DIHEDRAL.0>
0

>  <SCORE.INTRA.POLAR>
0

>  <SCORE.INTRA.POLAR.0>
0

>  <SCORE.INTRA.REPUL>
0

>  <SCORE.INTRA.REPUL.0>
0

>  <SCORE.INTRA.SOLV>
0

>  <SCORE.INTRA.SOLV.lig_0>
-48.3454

>  <SCORE.INTRA.VDW>
0

>  <SCORE.INTRA.VDW.0>
0

>  <SCORE.INTRA.norm>
0

>  <SCORE.RESTR>
0

>  <SCORE.RESTR.CAVITY>
0

>  <SCORE.RESTR.norm>
0

>  <SCORE.SYSTEM>
0

>  <SCORE.SYSTEM.CONST>
0

>  <SCORE.SYSTEM.DIHEDRAL>
0

>  <SCORE.SYSTEM.SOLV>
0

>  <SCORE.SYSTEM.norm>
0

>  <SCORE.heavy>
11

>  <SCORE.norm>
-0.659719

>  <RMSD>
11.192

$$$$
ligand
 OpenBabel01301917033D
libRbt.so/2013.1/901 2013/11/27
 11 12  0  0  0  0  0  0  0  0999 V2000
  -11.6571   -1.7938    4.4112 N   0  0  0  0  0  0  0  0  0  0  0  0
  -11.9969   -1.6271    3.1230 C   0  0  0  0  0  0  0  0  0  0  0  0
  -12.6025   -0.5068    2.7393 N   0  0  0  0  0  0  0  0  0  0  0  0
  -11.7400   -2.5859    2.2198 N   0  0  0  0  0  0  0  0  0  0  0  0
  -11.1424   -3.7293    2.5863 C   0  0  0  0  0  0  0  0  0  0  0  0
  -10.7805   -3.9275    3.9127 C   0  0  0  0  0  0  0  0  0  0  0  0
  -11.0550   -2.9182    4.8297 C   0  0  0  0  0  0  0  0  0  0  0  0
  -10.7170   -3.0620    6.1077 N   0  0  0  0  0  0  0  0  0  0  0  0
  -10.2279   -5.1336    4.0009 N   0  0  0  0  0  0  0  0  0  0  0  0
  -10.2390   -5.6765    2.7855 C   0  0  0  0  0  0  0  0  0  0  0  0
  -10.7930   -4.8275    1.9225 N   0  0  0  0  0  0  0  0  0  0  0  0
  1  7  2  0  0  0  0
  1  2  1  0  0  0  0
  2  3  1  0  0  0  0
  2  4  2  0  0  0  0
  4  5  1  0  0  0  0
  5  6  2  0  0  0  0
  5 11  1  0  0  0  0
  6  7  1  0  0  0  0
  6  9  1  0  0  0  0
  7  8  1  0  0  0  0
  9 10  1  0  0  0  0
 10 11  2  0  0  0  0
M  END
>  <CHROM.1>
-11.18672057,-3.23116429,3.51710028,-2.69321670,1.10652598,-2.00146126

>  <Name>
ligand

>  <RI>
0

>  <Rbt.Current_Directory>
/home/itssahil/PROJECTS/Mol_Feturizer/New_Systems/rnas/2b57

>  <Rbt.Executable>
rbdock ($Id: //depot/dev/client3/rdock/2013.1/src/exe/rbdock.cxx#4 $)

>  <Rbt.Library>
libRbt.so (2013.1, Build901 2013/11/27)

>  <Rbt.Parameter_File>
/export/apps/rDock/src/rDock_2013.1_src/data/scripts/dock_solv.prm

>  <Rbt.Receptor>
prm/blind_docking_20.prm

>  <SCORE>
-7.21598

>  <SCORE.INTER>
-7.21708

>  <SCORE.INTER.CONST>
1

>  <SCORE.INTER.POLAR>
0

>  <SCORE.INTER.ROT>
0

>  <SCORE.INTER.SOLV>
2.6099

>  <SCORE.INTER.VDW>
-9.28136

>  <SCORE.INTER.norm>
-0.656099

>  <SCORE.INTRA>
0

>  <SCORE.INTRA.DIHEDRAL>
0

>  <SCORE.INTRA.DIHEDRAL.0>
0

>  <SCORE.INTRA.POLAR>
0

>  <SCORE.INTRA.POLAR.0>
0

>  <SCORE.INTRA.REPUL>
0

>  <SCORE.INTRA.REPUL.0>
0

>  <SCORE.INTRA.SOLV>
0

>  <SCORE.INTRA.SOLV.lig_0>
-48.3454

>  <SCORE.INTRA.VDW>
0

>  <SCORE.INTRA.VDW.0>
0

>  <SCORE.INTRA.norm>
0

>  <SCORE.RESTR>
0.00110718

>  <SCORE.RESTR.CAVITY>
0.00110718

>  <SCORE.RESTR.norm>
0.000100652

>  <SCORE.SYSTEM>
0

>  <SCORE.SYSTEM.CONST>
0

>  <SCORE.SYSTEM.DIHEDRAL>
0

>  <SCORE.SYSTEM.SOLV>
0

>  <SCORE.SYSTEM.norm>
0

>  <SCORE.heavy>
11

>  <SCORE.norm>
-0.655998

>  <RMSD>
11.196

$$$$
ligand
 OpenBabel01301917033D
libRbt.so/2013.1/901 2013/11/27
 11 12  0  0  0  0  0  0  0  0999 V2000
  -11.6008   -1.7701    4.4132 N   0  0  0  0  0  0  0  0  0  0  0  0
  -11.9891   -1.6168    3.1371 C   0  0  0  0  0  0  0  0  0  0  0  0
  -12.5946   -0.4937    2.7614 N   0  0  0  0  0  0  0  0  0  0  0  0
  -11.7810   -2.5916    2.2385 N   0  0  0  0  0  0  0  0  0  0  0  0
  -11.1846   -3.7380    2.5977 C   0  0  0  0  0  0  0  0  0  0  0  0
  -10.7730   -3.9225    3.9116 C   0  0  0  0  0  0  0  0  0  0  0  0
  -10.9974   -2.8968    4.8239 C   0  0  0  0  0  0  0  0  0  0  0  0
  -10.6110   -3.0274    6.0895 N   0  0  0  0  0  0  0  0  0  0  0  0
  -10.2334   -5.1348    3.9954 N   0  0  0  0  0  0  0  0  0  0  0  0
  -10.2999   -5.6945    2.7894 C   0  0  0  0  0  0  0  0  0  0  0  0
  -10.8764   -4.8501    1.9367 N   0  0  0  0  0  0  0  0  0  0  0  0
  1  7  2  0  0  0  0
  1  2  1  0  0  0  0
  2  3  1  0  0  0  0
  2  4  2  0  0  0  0
  4  5  1  0  0  0  0
  5  6  2  0  0  0  0
  5 11  1  0  0  0  0
  6  7  1  0  0  0  0
  6  9  1  0  0  0  0
  7  8  1  0  0  0  0
  9 10  1  0  0  0  0
 10 11  2  0  0  0  0
M  END
>  <CHROM.1>
-11.18533100,-3.22624675,3.52222713,-2.60133540,1.10031030,-2.09777254

>  <Name>
ligand

>  <RI>
0

>  <Rbt.Current_Directory>
/home/itssahil/PROJECTS/Mol_Feturizer/New_Systems/rnas/2b57

>  <Rbt.Executable>
rbdock ($Id: //depot/dev/client3/rdock/2013.1/src/exe/rbdock.cxx#4 $)

>  <Rbt.Library>
libRbt.so (2013.1, Build901 2013/11/27)

>  <Rbt.Parameter_File>
/export/apps/rDock/src/rDock_2013.1_src/data/scripts/dock_solv.prm

>  <Rbt.Receptor>
prm/blind_docking_20.prm

>  <SCORE>
-7.21708

>  <SCORE.INTER>
-7.21723

>  <SCORE.INTER.CONST>
1

>  <SCORE.INTER.POLAR>
0

>  <SCORE.INTER.ROT>
0

>  <SCORE.INTER.SOLV>
2.88801

>  <SCORE.INTER.VDW>
-9.37416

>  <SCORE.INTER.norm>
-0.656112

>  <SCORE.INTRA>
0

>  <SCORE.INTRA.DIHEDRAL>
0

>  <SCORE.INTRA.DIHEDRAL.0>
0

>  <SCORE.INTRA.POLAR>
0

>  <SCORE.INTRA.POLAR.0>
0

>  <SCORE.INTRA.REPUL>
0

>  <SCORE.INTRA.REPUL.0>
0

>  <SCORE.INTRA.SOLV>
0

>  <SCORE.INTRA.SOLV.lig_0>
-48.3454

>  <SCORE.INTRA.VDW>
0

>  <SCORE.INTRA.VDW.0>
0

>  <SCORE.INTRA.norm>
0

>  <SCORE.RESTR>
0.000153389

>  <SCORE.RESTR.CAVITY>
0.000153389

>  <SCORE.RESTR.norm>
1.39445e-05

>  <SCORE.SYSTEM>
0

>  <SCORE.SYSTEM.CONST>
0

>  <SCORE.SYSTEM.DIHEDRAL>
0

>  <SCORE.SYSTEM.SOLV>
0

>  <SCORE.SYSTEM.norm>
0

>  <SCORE.heavy>
11

>  <SCORE.norm>
-0.656098

>  <RMSD>
11.199

$$$$
ligand
 OpenBabel01301917033D
libRbt.so/2013.1/901 2013/11/27
 11 12  0  0  0  0  0  0  0  0999 V2000
  -12.1999   -1.8758    4.0582 N   0  0  0  0  0  0  0  0  0  0  0  0
  -12.4424   -1.8767    2.7376 C   0  0  0  0  0  0  0  0  0  0  0  0
  -13.1686   -0.9014    2.1988 N   0  0  0  0  0  0  0  0  0  0  0  0
  -11.9669   -2.8594    1.9570 N   0  0  0  0  0  0  0  0  0  0  0  0
  -11.2436   -3.8603    2.4805 C   0  0  0  0  0  0  0  0  0  0  0  0
  -10.9782   -3.8835    3.8439 C   0  0  0  0  0  0  0  0  0  0  0  0
  -11.4796   -2.8526    4.6317 C   0  0  0  0  0  0  0  0  0  0  0  0
  -11.2413   -2.8303    5.9397 N   0  0  0  0  0  0  0  0  0  0  0  0
  -10.2648   -4.9773    4.0941 N   0  0  0  0  0  0  0  0  0  0  0  0
  -10.0861   -5.6194    2.9418 C   0  0  0  0  0  0  0  0  0  0  0  0
  -10.6783   -4.9449    1.9585 N   0  0  0  0  0  0  0  0  0  0  0  0
  1  7  2  0  0  0  0
  1  2  1  0  0  0  0
  2  3  1  0  0  0  0
  2  4  2  0  0  0  0
  4  5  1  0  0  0  0
  5  6  2  0  0  0  0
  5 11  1  0  0  0  0
  6  7  1  0  0  0  0
  6  9  1  0  0  0  0
  7  8  1  0  0  0  0
  9 10  1  0  0  0  0
 10 11  2  0  0  0  0
M  END
>  <CHROM.1>
-11.44467075,-3.29560606,3.35078608,-2.95931541,0.99355294,-1.86443619

>  <Name>
ligand

>  <RI>
0

>  <Rbt.Current_Directory>
/home/itssahil/PROJECTS/Mol_Feturizer/New_Systems/rnas/2b57

>  <Rbt.Executable>
rbdock ($Id: //depot/dev/client3/rdock/2013.1/src/exe/rbdock.cxx#4 $)

>  <Rbt.Library>
libRbt.so (2013.1, Build901 2013/11/27)

>  <Rbt.Parameter_File>
/export/apps/rDock/src/rDock_2013.1_src/data/scripts/dock_solv.prm

>  <Rbt.Receptor>
prm/blind_docking_20.prm

>  <SCORE>
-7.07747

>  <SCORE.INTER>
-7.07747

>  <SCORE.INTER.CONST>
1

>  <SCORE.INTER.POLAR>
0

>  <SCORE.INTER.ROT>
0

>  <SCORE.INTER.SOLV>
1.25779

>  <SCORE.INTER.VDW>
-8.73758

>  <SCORE.INTER.norm>
-0.643406

>  <SCORE.INTRA>
0

>  <SCORE.INTRA.DIHEDRAL>
0

>  <SCORE.INTRA.DIHEDRAL.0>
0

>  <SCORE.INTRA.POLAR>
0

>  <SCORE.INTRA.POLAR.0>
0

>  <SCORE.INTRA.REPUL>
0

>  <SCORE.INTRA.REPUL.0>
0

>  <SCORE.INTRA.SOLV>
0

>  <SCORE.INTRA.SOLV.lig_0>
-48.3454

>  <SCORE.INTRA.VDW>
0

>  <SCORE.INTRA.VDW.0>
0

>  <SCORE.INTRA.norm>
0

>  <SCORE.RESTR>
0

>  <SCORE.RESTR.CAVITY>
0

>  <SCORE.RESTR.norm>
0

>  <SCORE.SYSTEM>
0

>  <SCORE.SYSTEM.CONST>
0

>  <SCORE.SYSTEM.DIHEDRAL>
0

>  <SCORE.SYSTEM.SOLV>
0

>  <SCORE.SYSTEM.norm>
0

>  <SCORE.heavy>
11

>  <SCORE.norm>
-0.643406

>  <RMSD>
11.201

$$$$
ligand
 OpenBabel01301917033D
libRbt.so/2013.1/901 2013/11/27
 11 12  0  0  0  0  0  0  0  0999 V2000
  -11.7156   -1.7648    4.3573 N   0  0  0  0  0  0  0  0  0  0  0  0
  -12.0153   -1.6087    3.0578 C   0  0  0  0  0  0  0  0  0  0  0  0
  -12.5806   -0.4791    2.6415 N   0  0  0  0  0  0  0  0  0  0  0  0
  -11.7587   -2.5872    2.1759 N   0  0  0  0  0  0  0  0  0  0  0  0
  -11.2015   -3.7400    2.5752 C   0  0  0  0  0  0  0  0  0  0  0  0
  -10.8816   -3.9275    3.9139 C   0  0  0  0  0  0  0  0  0  0  0  0
  -11.1547   -2.8979    4.8084 C   0  0  0  0  0  0  0  0  0  0  0  0
  -10.8560   -3.0313    6.0972 N   0  0  0  0  0  0  0  0  0  0  0  0
  -10.3633   -5.1460    4.0346 N   0  0  0  0  0  0  0  0  0  0  0  0
  -10.3551   -5.7066    2.8273 C   0  0  0  0  0  0  0  0  0  0  0  0
  -10.8627   -4.8566    1.9371 N   0  0  0  0  0  0  0  0  0  0  0  0
  1  7  2  0  0  0  0
  1  2  1  0  0  0  0
  2  3  1  0  0  0  0
  2  4  2  0  0  0  0
  4  5  1  0  0  0  0
  5  6  2  0  0  0  0
  5 11  1  0  0  0  0
  6  7  1  0  0  0  0
  6  9  1  0  0  0  0
  7  8  1  0  0  0  0
  9 10  1  0  0  0  0
 10 11  2  0  0  0  0
M  END
>  <CHROM.1>
-11.25841884,-3.22700210,3.49721717,-2.72719868,1.14154571,-1.98541446

>  <Name>
ligand

>  <RI>
0

>  <Rbt.Current_Directory>
/home/itssahil/PROJECTS/Mol_Feturizer/New_Systems/rnas/2b57

>  <Rbt.Executable>
rbdock ($Id: //depot/dev/client3/rdock/2013.1/src/exe/rbdock.cxx#4 $)

>  <Rbt.Library>
libRbt.so (2013.1, Build901 2013/11/27)

>  <Rbt.Parameter_File>
/export/apps/rDock/src/rDock_2013.1_src/data/scripts/dock_solv.prm

>  <Rbt.Receptor>
prm/blind_docking_20.prm

>  <SCORE>
-7.23796

>  <SCORE.INTER>
-7.23796

>  <SCORE.INTER.CONST>
1

>  <SCORE.INTER.POLAR>
0

>  <SCORE.INTER.ROT>
0

>  <SCORE.INTER.SOLV>
2.32157

>  <SCORE.INTER.VDW>
-9.19917

>  <SCORE.INTER.norm>
-0.657997

>  <SCORE.INTRA>
0

>  <SCORE.INTRA.DIHEDRAL>
0

>  <SCORE.INTRA.DIHEDRAL.0>
0

>  <SCORE.INTRA.POLAR>
0

>  <SCORE.INTRA.POLAR.0>
0

>  <SCORE.INTRA.REPUL>
0

>  <SCORE.INTRA.REPUL.0>
0

>  <SCORE.INTRA.SOLV>
0

>  <SCORE.INTRA.SOLV.lig_0>
-48.3454

>  <SCORE.INTRA.VDW>
0

>  <SCORE.INTRA.VDW.0>
0

>  <SCORE.INTRA.norm>
0

>  <SCORE.RESTR>
0

>  <SCORE.RESTR.CAVITY>
0

>  <SCORE.RESTR.norm>
0

>  <SCORE.SYSTEM>
0

>  <SCORE.SYSTEM.CONST>
0

>  <SCORE.SYSTEM.DIHEDRAL>
0

>  <SCORE.SYSTEM.SOLV>
0

>  <SCORE.SYSTEM.norm>
0

>  <SCORE.heavy>
11

>  <SCORE.norm>
-0.657997

>  <RMSD>
11.209

$$$$
ligand
 OpenBabel01301917033D
libRbt.so/2013.1/901 2013/11/27
 11 12  0  0  0  0  0  0  0  0999 V2000
  -12.2714   -1.8089    3.9040 N   0  0  0  0  0  0  0  0  0  0  0  0
  -12.4663   -1.8627    2.5766 C   0  0  0  0  0  0  0  0  0  0  0  0
  -13.1735   -0.9111    1.9739 N   0  0  0  0  0  0  0  0  0  0  0  0
  -11.9621   -2.8744    1.8531 N   0  0  0  0  0  0  0  0  0  0  0  0
  -11.2572   -3.8520    2.4415 C   0  0  0  0  0  0  0  0  0  0  0  0
  -11.0409   -3.8207    3.8133 C   0  0  0  0  0  0  0  0  0  0  0  0
  -11.5713   -2.7606    4.5412 C   0  0  0  0  0  0  0  0  0  0  0  0
  -11.3802   -2.6861    5.8550 N   0  0  0  0  0  0  0  0  0  0  0  0
  -10.3360   -4.9021    4.1321 N   0  0  0  0  0  0  0  0  0  0  0  0
  -10.1153   -5.5888    3.0134 C   0  0  0  0  0  0  0  0  0  0  0  0
  -10.6723   -4.9551    1.9835 N   0  0  0  0  0  0  0  0  0  0  0  0
  1  7  2  0  0  0  0
  1  2  1  0  0  0  0
  2  3  1  0  0  0  0
  2  4  2  0  0  0  0
  4  5  1  0  0  0  0
  5  6  2  0  0  0  0
  5 11  1  0  0  0  0
  6  7  1  0  0  0  0
  6  9  1  0  0  0  0
  7  8  1  0  0  0  0
  9 10  1  0  0  0  0
 10 11  2  0  0  0  0
M  END
>  <CHROM.1>
-11.48989424,-3.25383745,3.28093569,-3.02381622,1.00212942,-1.84981513

>  <Name>
ligand

>  <RI>
0

>  <Rbt.Current_Directory>
/home/itssahil/PROJECTS/Mol_Feturizer/New_Systems/rnas/2b57

>  <Rbt.Executable>
rbdock ($Id: //depot/dev/client3/rdock/2013.1/src/exe/rbdock.cxx#4 $)

>  <Rbt.Library>
libRbt.so (2013.1, Build901 2013/11/27)

>  <Rbt.Parameter_File>
/export/apps/rDock/src/rDock_2013.1_src/data/scripts/dock_solv.prm

>  <Rbt.Receptor>
prm/blind_docking_20.prm

>  <SCORE>
-7.11023

>  <SCORE.INTER>
-7.11023

>  <SCORE.INTER.CONST>
1

>  <SCORE.INTER.POLAR>
0

>  <SCORE.INTER.ROT>
0

>  <SCORE.INTER.SOLV>
1.1327

>  <SCORE.INTER.VDW>
-8.71772

>  <SCORE.INTER.norm>
-0.646384

>  <SCORE.INTRA>
0

>  <SCORE.INTRA.DIHEDRAL>
0

>  <SCORE.INTRA.DIHEDRAL.0>
0

>  <SCORE.INTRA.POLAR>
0

>  <SCORE.INTRA.POLAR.0>
0

>  <SCORE.INTRA.REPUL>
0

>  <SCORE.INTRA.REPUL.0>
0

>  <SCORE.INTRA.SOLV>
0

>  <SCORE.INTRA.SOLV.lig_0>
-48.3454

>  <SCORE.INTRA.VDW>
0

>  <SCORE.INTRA.VDW.0>
0

>  <SCORE.INTRA.norm>
0

>  <SCORE.RESTR>
0

>  <SCORE.RESTR.CAVITY>
0

>  <SCORE.RESTR.norm>
0

>  <SCORE.SYSTEM>
0

>  <SCORE.SYSTEM.CONST>
0

>  <SCORE.SYSTEM.DIHEDRAL>
0

>  <SCORE.SYSTEM.SOLV>
0

>  <SCORE.SYSTEM.norm>
0

>  <SCORE.heavy>
11

>  <SCORE.norm>
-0.646384

>  <RMSD>
11.271

$$$$
ligand
 OpenBabel01301917033D
libRbt.so/2013.1/901 2013/11/27
 11 12  0  0  0  0  0  0  0  0999 V2000
   -1.0182  -13.0742    3.4797 N   0  0  0  0  0  0  0  0  0  0  0  0
   -1.0928  -14.4144    3.5130 C   0  0  0  0  0  0  0  0  0  0  0  0
   -0.5087  -15.0839    4.5028 N   0  0  0  0  0  0  0  0  0  0  0  0
   -1.7432  -15.0860    2.5502 N   0  0  0  0  0  0  0  0  0  0  0  0
   -2.3281  -14.4327    1.5353 C   0  0  0  0  0  0  0  0  0  0  0  0
   -2.2659  -13.0462    1.4767 C   0  0  0  0  0  0  0  0  0  0  0  0
   -1.5884  -12.3724    2.4875 C   0  0  0  0  0  0  0  0  0  0  0  0
   -1.5126  -11.0449    2.4758 N   0  0  0  0  0  0  0  0  0  0  0  0
   -2.9059  -12.6631    0.3759 N   0  0  0  0  0  0  0  0  0  0  0  0
   -3.3535  -13.7570   -0.2365 C   0  0  0  0  0  0  0  0  0  0  0  0
   -3.0056  -14.8345    0.4638 N   0  0  0  0  0  0  0  0  0  0  0  0
  1  7  2  0  0  0  0
  1  2  1  0  0  0  0
  2  3  1  0  0  0  0
  2  4  2  0  0  0  0
  4  5  1  0  0  0  0
  5  6  2  0  0  0  0
  5 11  1  0  0  0  0
  6  7  1  0  0  0  0
  6  9  1  0  0  0  0
  7  8  1  0  0  0  0
  9 10  1  0  0  0  0
 10 11  2  0  0  0  0
M  END
>  <CHROM.1>
-1.92547911,-13.62003260,2.07764031,-0.26042792,-1.01418287,-0.10749761

>  <Name>
ligand

>  <RI>
0

>  <Rbt.Current_Directory>
/home/itssahil/PROJECTS/Mol_Feturizer/New_Systems/rnas/2b57

>  <Rbt.Executable>
rbdock ($Id: //depot/dev/client3/rdock/2013.1/src/exe/rbdock.cxx#4 $)

>  <Rbt.Library>
libRbt.so (2013.1, Build901 2013/11/27)

>  <Rbt.Parameter_File>
/export/apps/rDock/src/rDock_2013.1_src/data/scripts/dock_solv.prm

>  <Rbt.Receptor>
prm/blind_docking_100.prm

>  <SCORE>
-8.88296

>  <SCORE.INTER>
-8.89213

>  <SCORE.INTER.CONST>
1

>  <SCORE.INTER.POLAR>
0

>  <SCORE.INTER.ROT>
0

>  <SCORE.INTER.SOLV>
5.28545

>  <SCORE.INTER.VDW>
-11.2899

>  <SCORE.INTER.norm>
-0.808376

>  <SCORE.INTRA>
0

>  <SCORE.INTRA.DIHEDRAL>
0

>  <SCORE.INTRA.DIHEDRAL.0>
0

>  <SCORE.INTRA.POLAR>
0

>  <SCORE.INTRA.POLAR.0>
0

>  <SCORE.INTRA.REPUL>
0

>  <SCORE.INTRA.REPUL.0>
0

>  <SCORE.INTRA.SOLV>
0

>  <SCORE.INTRA.SOLV.lig_0>
-48.3454

>  <SCORE.INTRA.VDW>
0

>  <SCORE.INTRA.VDW.0>
0

>  <SCORE.INTRA.norm>
0

>  <SCORE.RESTR>
0.00917167

>  <SCORE.RESTR.CAVITY>
0.00917167

>  <SCORE.RESTR.norm>
0.000833788

>  <SCORE.SYSTEM>
0

>  <SCORE.SYSTEM.CONST>
0

>  <SCORE.SYSTEM.DIHEDRAL>
0

>  <SCORE.SYSTEM.SOLV>
0

>  <SCORE.SYSTEM.norm>
0

>  <SCORE.heavy>
11

>  <SCORE.norm>
-0.807542

>  <RMSD>
11.272

$$$$
ligand
 OpenBabel01301917033D
libRbt.so/2013.1/901 2013/11/27
 11 12  0  0  0  0  0  0  0  0999 V2000
  -11.5774   -1.6625    4.2808 N   0  0  0  0  0  0  0  0  0  0  0  0
  -11.9633   -1.5566    2.9992 C   0  0  0  0  0  0  0  0  0  0  0  0
  -12.5378   -0.4354    2.5729 N   0  0  0  0  0  0  0  0  0  0  0  0
  -11.7838   -2.5767    2.1458 N   0  0  0  0  0  0  0  0  0  0  0  0
  -11.2189   -3.7217    2.5567 C   0  0  0  0  0  0  0  0  0  0  0  0
  -10.8107   -3.8577    3.8775 C   0  0  0  0  0  0  0  0  0  0  0  0
  -11.0050   -2.7856    4.7422 C   0  0  0  0  0  0  0  0  0  0  0  0
  -10.6204   -2.8693    6.0124 N   0  0  0  0  0  0  0  0  0  0  0  0
  -10.3048   -5.0795    4.0163 N   0  0  0  0  0  0  0  0  0  0  0  0
  -10.3888   -5.6914    2.8370 C   0  0  0  0  0  0  0  0  0  0  0  0
  -10.9428   -4.8709    1.9469 N   0  0  0  0  0  0  0  0  0  0  0  0
  1  7  2  0  0  0  0
  1  2  1  0  0  0  0
  2  3  1  0  0  0  0
  2  4  2  0  0  0  0
  4  5  1  0  0  0  0
  5  6  2  0  0  0  0
  5 11  1  0  0  0  0
  6  7  1  0  0  0  0
  6  9  1  0  0  0  0
  7  8  1  0  0  0  0
  9 10  1  0  0  0  0
 10 11  2  0  0  0  0
M  END
>  <CHROM.1>
-11.20400466,-3.16863835,3.45696786,-2.56591262,1.12335530,-2.17506593

>  <Name>
ligand

>  <RI>
0

>  <Rbt.Current_Directory>
/home/itssahil/PROJECTS/Mol_Feturizer/New_Systems/rnas/2b57

>  <Rbt.Executable>
rbdock ($Id: //depot/dev/client3/rdock/2013.1/src/exe/rbdock.cxx#4 $)

>  <Rbt.Library>
libRbt.so (2013.1, Build901 2013/11/27)

>  <Rbt.Parameter_File>
/export/apps/rDock/src/rDock_2013.1_src/data/scripts/dock_solv.prm

>  <Rbt.Receptor>
prm/blind_docking_20.prm

>  <SCORE>
-7.23037

>  <SCORE.INTER>
-7.23037

>  <SCORE.INTER.CONST>
1

>  <SCORE.INTER.POLAR>
0

>  <SCORE.INTER.ROT>
0

>  <SCORE.INTER.SOLV>
2.94982

>  <SCORE.INTER.VDW>
-9.40352

>  <SCORE.INTER.norm>
-0.657306

>  <SCORE.INTRA>
0

>  <SCORE.INTRA.DIHEDRAL>
0

>  <SCORE.INTRA.DIHEDRAL.0>
0

>  <SCORE.INTRA.POLAR>
0

>  <SCORE.INTRA.POLAR.0>
0

>  <SCORE.INTRA.REPUL>
0

>  <SCORE.INTRA.REPUL.0>
0

>  <SCORE.INTRA.SOLV>
0

>  <SCORE.INTRA.SOLV.lig_0>
-48.3454

>  <SCORE.INTRA.VDW>
0

>  <SCORE.INTRA.VDW.0>
0

>  <SCORE.INTRA.norm>
0

>  <SCORE.RESTR>
0

>  <SCORE.RESTR.CAVITY>
0

>  <SCORE.RESTR.norm>
0

>  <SCORE.SYSTEM>
0

>  <SCORE.SYSTEM.CONST>
0

>  <SCORE.SYSTEM.DIHEDRAL>
0

>  <SCORE.SYSTEM.SOLV>
0

>  <SCORE.SYSTEM.norm>
0

>  <SCORE.heavy>
11

>  <SCORE.norm>
-0.657306

>  <RMSD>
11.280

$$$$
ligand
 OpenBabel01301917033D
libRbt.so/2013.1/901 2013/11/27
 11 12  0  0  0  0  0  0  0  0999 V2000
  -12.2819   -1.7947    3.8765 N   0  0  0  0  0  0  0  0  0  0  0  0
  -12.4528   -1.8619    2.5465 C   0  0  0  0  0  0  0  0  0  0  0  0
  -13.1581   -0.9225    1.9229 N   0  0  0  0  0  0  0  0  0  0  0  0
  -11.9264   -2.8751    1.8411 N   0  0  0  0  0  0  0  0  0  0  0  0
  -11.2229   -3.8408    2.4506 C   0  0  0  0  0  0  0  0  0  0  0  0
  -11.0313   -3.7953    3.8256 C   0  0  0  0  0  0  0  0  0  0  0  0
  -11.5843   -2.7340    4.5345 C   0  0  0  0  0  0  0  0  0  0  0  0
  -11.4173   -2.6461    5.8508 N   0  0  0  0  0  0  0  0  0  0  0  0
  -10.3220   -4.8671    4.1665 N   0  0  0  0  0  0  0  0  0  0  0  0
  -10.0751   -5.5615    3.0580 C   0  0  0  0  0  0  0  0  0  0  0  0
  -10.6198   -4.9423    2.0128 N   0  0  0  0  0  0  0  0  0  0  0  0
  1  7  2  0  0  0  0
  1  2  1  0  0  0  0
  2  3  1  0  0  0  0
  2  4  2  0  0  0  0
  4  5  1  0  0  0  0
  5  6  2  0  0  0  0
  5 11  1  0  0  0  0
  6  7  1  0  0  0  0
  6  9  1  0  0  0  0
  7  8  1  0  0  0  0
  9 10  1  0  0  0  0
 10 11  2  0  0  0  0
M  END
>  <CHROM.1>
-11.47602708,-3.23749188,3.28035369,-3.05995724,0.99770445,-1.82829469

>  <Name>
ligand

>  <RI>
0

>  <Rbt.Current_Directory>
/home/itssahil/PROJECTS/Mol_Feturizer/New_Systems/rnas/2b57

>  <Rbt.Executable>
rbdock ($Id: //depot/dev/client3/rdock/2013.1/src/exe/rbdock.cxx#4 $)

>  <Rbt.Library>
libRbt.so (2013.1, Build901 2013/11/27)

>  <Rbt.Parameter_File>
/export/apps/rDock/src/rDock_2013.1_src/data/scripts/dock_solv.prm

>  <Rbt.Receptor>
prm/blind_docking_20.prm

>  <SCORE>
-7.10283

>  <SCORE.INTER>
-7.10283

>  <SCORE.INTER.CONST>
1

>  <SCORE.INTER.POLAR>
0

>  <SCORE.INTER.ROT>
0

>  <SCORE.INTER.SOLV>
1.08461

>  <SCORE.INTER.VDW>
-8.69676

>  <SCORE.INTER.norm>
-0.645712

>  <SCORE.INTRA>
0

>  <SCORE.INTRA.DIHEDRAL>
0

>  <SCORE.INTRA.DIHEDRAL.0>
0

>  <SCORE.INTRA.POLAR>
0

>  <SCORE.INTRA.POLAR.0>
0

>  <SCORE.INTRA.REPUL>
0

>  <SCORE.INTRA.REPUL.0>
0

>  <SCORE.INTRA.SOLV>
0

>  <SCORE.INTRA.SOLV.lig_0>
-48.3454

>  <SCORE.INTRA.VDW>
0

>  <SCORE.INTRA.VDW.0>
0

>  <SCORE.INTRA.norm>
0

>  <SCORE.RESTR>
0

>  <SCORE.RESTR.CAVITY>
0

>  <SCORE.RESTR.norm>
0

>  <SCORE.SYSTEM>
0

>  <SCORE.SYSTEM.CONST>
0

>  <SCORE.SYSTEM.DIHEDRAL>
0

>  <SCORE.SYSTEM.SOLV>
0

>  <SCORE.SYSTEM.norm>
0

>  <SCORE.heavy>
11

>  <SCORE.norm>
-0.645712

>  <RMSD>
11.287

$$$$
ligand
 OpenBabel01301917033D
libRbt.so/2013.1/901 2013/11/27
 11 12  0  0  0  0  0  0  0  0999 V2000
  -12.1893   -1.7659    3.7833 N   0  0  0  0  0  0  0  0  0  0  0  0
  -12.3041   -1.8501    2.4482 C   0  0  0  0  0  0  0  0  0  0  0  0
  -12.9521   -0.9001    1.7799 N   0  0  0  0  0  0  0  0  0  0  0  0
  -11.7793   -2.8904    1.7823 N   0  0  0  0  0  0  0  0  0  0  0  0
  -11.1333   -3.8667    2.4368 C   0  0  0  0  0  0  0  0  0  0  0  0
  -11.0004   -3.8042    3.8181 C   0  0  0  0  0  0  0  0  0  0  0  0
  -11.5505   -2.7150    4.4857 C   0  0  0  0  0  0  0  0  0  0  0  0
  -11.4382   -2.6103    5.8065 N   0  0  0  0  0  0  0  0  0  0  0  0
  -10.3403   -4.8913    4.2062 N   0  0  0  0  0  0  0  0  0  0  0  0
  -10.0672   -5.6112    3.1204 C   0  0  0  0  0  0  0  0  0  0  0  0
  -10.5463   -4.9932    2.0429 N   0  0  0  0  0  0  0  0  0  0  0  0
  1  7  2  0  0  0  0
  1  2  1  0  0  0  0
  2  3  1  0  0  0  0
  2  4  2  0  0  0  0
  4  5  1  0  0  0  0
  5  6  2  0  0  0  0
  5 11  1  0  0  0  0
  6  7  1  0  0  0  0
  6  9  1  0  0  0  0
  7  8  1  0  0  0  0
  9 10  1  0  0  0  0
 10 11  2  0  0  0  0
M  END
>  <CHROM.1>
-11.40346053,-3.24229761,3.24531746,-3.12725015,1.03791972,-1.78698911

>  <Name>
ligand

>  <RI>
0

>  <Rbt.Current_Directory>
/home/itssahil/PROJECTS/Mol_Feturizer/New_Systems/rnas/2b57

>  <Rbt.Executable>
rbdock ($Id: //depot/dev/client3/rdock/2013.1/src/exe/rbdock.cxx#4 $)

>  <Rbt.Library>
libRbt.so (2013.1, Build901 2013/11/27)

>  <Rbt.Parameter_File>
/export/apps/rDock/src/rDock_2013.1_src/data/scripts/dock_solv.prm

>  <Rbt.Receptor>
prm/blind_docking_20.prm

>  <SCORE>
-7.14542

>  <SCORE.INTER>
-7.14542

>  <SCORE.INTER.CONST>
1

>  <SCORE.INTER.POLAR>
0

>  <SCORE.INTER.ROT>
0

>  <SCORE.INTER.SOLV>
1.3094

>  <SCORE.INTER.VDW>
-8.80008

>  <SCORE.INTER.norm>
-0.649584

>  <SCORE.INTRA>
0

>  <SCORE.INTRA.DIHEDRAL>
0

>  <SCORE.INTRA.DIHEDRAL.0>
0

>  <SCORE.INTRA.POLAR>
0

>  <SCORE.INTRA.POLAR.0>
0

>  <SCORE.INTRA.REPUL>
0

>  <SCORE.INTRA.REPUL.0>
0

>  <SCORE.INTRA.SOLV>
0

>  <SCORE.INTRA.SOLV.lig_0>
-48.3454

>  <SCORE.INTRA.VDW>
0

>  <SCORE.INTRA.VDW.0>
0

>  <SCORE.INTRA.norm>
0

>  <SCORE.RESTR>
0

>  <SCORE.RESTR.CAVITY>
0

>  <SCORE.RESTR.norm>
0

>  <SCORE.SYSTEM>
0

>  <SCORE.SYSTEM.CONST>
0

>  <SCORE.SYSTEM.DIHEDRAL>
0

>  <SCORE.SYSTEM.SOLV>
0

>  <SCORE.SYSTEM.norm>
0

>  <SCORE.heavy>
11

>  <SCORE.norm>
-0.649584

>  <RMSD>
11.304

$$$$
ligand
 OpenBabel01301917033D
libRbt.so/2013.1/901 2013/11/27
 11 12  0  0  0  0  0  0  0  0999 V2000
  -12.2017   -1.7377    3.7288 N   0  0  0  0  0  0  0  0  0  0  0  0
  -12.3043   -1.8475    2.3945 C   0  0  0  0  0  0  0  0  0  0  0  0
  -12.9431   -0.9089    1.7018 N   0  0  0  0  0  0  0  0  0  0  0  0
  -11.7765   -2.9021    1.7539 N   0  0  0  0  0  0  0  0  0  0  0  0
  -11.1397   -3.8674    2.4333 C   0  0  0  0  0  0  0  0  0  0  0  0
  -11.0194   -3.7783    3.8144 C   0  0  0  0  0  0  0  0  0  0  0  0
  -11.5724   -2.6747    4.4554 C   0  0  0  0  0  0  0  0  0  0  0  0
  -11.4721   -2.5446    5.7749 N   0  0  0  0  0  0  0  0  0  0  0  0
  -10.3663   -4.8595    4.2297 N   0  0  0  0  0  0  0  0  0  0  0  0
  -10.0852   -5.6012    3.1607 C   0  0  0  0  0  0  0  0  0  0  0  0
  -10.5524   -5.0029    2.0670 N   0  0  0  0  0  0  0  0  0  0  0  0
  1  7  2  0  0  0  0
  1  2  1  0  0  0  0
  2  3  1  0  0  0  0
  2  4  2  0  0  0  0
  4  5  1  0  0  0  0
  5  6  2  0  0  0  0
  5 11  1  0  0  0  0
  6  7  1  0  0  0  0
  6  9  1  0  0  0  0
  7  8  1  0  0  0  0
  9 10  1  0  0  0  0
 10 11  2  0  0  0  0
M  END
>  <CHROM.1>
-11.41540734,-3.22650974,3.22698763,3.13916319,1.04283238,-1.79199999

>  <Name>
ligand

>  <RI>
0

>  <Rbt.Current_Directory>
/home/itssahil/PROJECTS/Mol_Feturizer/New_Systems/rnas/2b57

>  <Rbt.Executable>
rbdock ($Id: //depot/dev/client3/rdock/2013.1/src/exe/rbdock.cxx#4 $)

>  <Rbt.Library>
libRbt.so (2013.1, Build901 2013/11/27)

>  <Rbt.Parameter_File>
/export/apps/rDock/src/rDock_2013.1_src/data/scripts/dock_solv.prm

>  <Rbt.Receptor>
prm/blind_docking_20.prm

>  <SCORE>
-7.12204

>  <SCORE.INTER>
-7.12204

>  <SCORE.INTER.CONST>
1

>  <SCORE.INTER.POLAR>
0

>  <SCORE.INTER.ROT>
0

>  <SCORE.INTER.SOLV>
1.34612

>  <SCORE.INTER.VDW>
-8.79673

>  <SCORE.INTER.norm>
-0.647458

>  <SCORE.INTRA>
0

>  <SCORE.INTRA.DIHEDRAL>
0

>  <SCORE.INTRA.DIHEDRAL.0>
0

>  <SCORE.INTRA.POLAR>
0

>  <SCORE.INTRA.POLAR.0>
0

>  <SCORE.INTRA.REPUL>
0

>  <SCORE.INTRA.REPUL.0>
0

>  <SCORE.INTRA.SOLV>
0

>  <SCORE.INTRA.SOLV.lig_0>
-48.3454

>  <SCORE.INTRA.VDW>
0

>  <SCORE.INTRA.VDW.0>
0

>  <SCORE.INTRA.norm>
0

>  <SCORE.RESTR>
0

>  <SCORE.RESTR.CAVITY>
0

>  <SCORE.RESTR.norm>
0

>  <SCORE.SYSTEM>
0

>  <SCORE.SYSTEM.CONST>
0

>  <SCORE.SYSTEM.DIHEDRAL>
0

>  <SCORE.SYSTEM.SOLV>
0

>  <SCORE.SYSTEM.norm>
0

>  <SCORE.heavy>
11

>  <SCORE.norm>
-0.647458

>  <RMSD>
11.328

$$$$
ligand
 OpenBabel01301917033D
libRbt.so/2013.1/901 2013/11/27
 11 12  0  0  0  0  0  0  0  0999 V2000
  -12.1900   -1.7302    3.7337 N   0  0  0  0  0  0  0  0  0  0  0  0
  -12.3381   -1.8445    2.4041 C   0  0  0  0  0  0  0  0  0  0  0  0
  -13.0048   -0.9108    1.7312 N   0  0  0  0  0  0  0  0  0  0  0  0
  -11.8279   -2.8986    1.7486 N   0  0  0  0  0  0  0  0  0  0  0  0
  -11.1636   -3.8589    2.4083 C   0  0  0  0  0  0  0  0  0  0  0  0
  -10.9961   -3.7653    3.7841 C   0  0  0  0  0  0  0  0  0  0  0  0
  -11.5317   -2.6623    4.4407 C   0  0  0  0  0  0  0  0  0  0  0  0
  -11.3864   -2.5278    5.7557 N   0  0  0  0  0  0  0  0  0  0  0  0
  -10.3241   -4.8423    4.1796 N   0  0  0  0  0  0  0  0  0  0  0  0
  -10.0767   -5.5859    3.1036 C   0  0  0  0  0  0  0  0  0  0  0  0
  -10.5841   -4.9929    2.0250 N   0  0  0  0  0  0  0  0  0  0  0  0
  1  7  2  0  0  0  0
  1  2  1  0  0  0  0
  2  3  1  0  0  0  0
  2  4  2  0  0  0  0
  4  5  1  0  0  0  0
  5  6  2  0  0  0  0
  5 11  1  0  0  0  0
  6  7  1  0  0  0  0
  6  9  1  0  0  0  0
  7  8  1  0  0  0  0
  9 10  1  0  0  0  0
 10 11  2  0  0  0  0
M  END
>  <CHROM.1>
-11.41466391,-3.21700258,3.20917957,-3.08047510,1.02987688,-1.84955784

>  <Name>
ligand

>  <RI>
0

>  <Rbt.Current_Directory>
/home/itssahil/PROJECTS/Mol_Feturizer/New_Systems/rnas/2b57

>  <Rbt.Executable>
rbdock ($Id: //depot/dev/client3/rdock/2013.1/src/exe/rbdock.cxx#4 $)

>  <Rbt.Library>
libRbt.so (2013.1, Build901 2013/11/27)

>  <Rbt.Parameter_File>
/export/apps/rDock/src/rDock_2013.1_src/data/scripts/dock_solv.prm

>  <Rbt.Receptor>
prm/blind_docking_20.prm

>  <SCORE>
-7.09967

>  <SCORE.INTER>
-7.09967

>  <SCORE.INTER.CONST>
1

>  <SCORE.INTER.POLAR>
0

>  <SCORE.INTER.ROT>
0

>  <SCORE.INTER.SOLV>
1.39593

>  <SCORE.INTER.VDW>
-8.79842

>  <SCORE.INTER.norm>
-0.645424

>  <SCORE.INTRA>
0

>  <SCORE.INTRA.DIHEDRAL>
0

>  <SCORE.INTRA.DIHEDRAL.0>
0

>  <SCORE.INTRA.POLAR>
0

>  <SCORE.INTRA.POLAR.0>
0

>  <SCORE.INTRA.REPUL>
0

>  <SCORE.INTRA.REPUL.0>
0

>  <SCORE.INTRA.SOLV>
0

>  <SCORE.INTRA.SOLV.lig_0>
-48.3454

>  <SCORE.INTRA.VDW>
0

>  <SCORE.INTRA.VDW.0>
0

>  <SCORE.INTRA.norm>
0

>  <SCORE.RESTR>
0

>  <SCORE.RESTR.CAVITY>
0

>  <SCORE.RESTR.norm>
0

>  <SCORE.SYSTEM>
0

>  <SCORE.SYSTEM.CONST>
0

>  <SCORE.SYSTEM.DIHEDRAL>
0

>  <SCORE.SYSTEM.SOLV>
0

>  <SCORE.SYSTEM.norm>
0

>  <SCORE.heavy>
11

>  <SCORE.norm>
-0.645424

>  <RMSD>
11.340

$$$$
ligand
 OpenBabel01301917033D
libRbt.so/2013.1/901 2013/11/27
 11 12  0  0  0  0  0  0  0  0999 V2000
  -12.1777   -1.7016    3.7025 N   0  0  0  0  0  0  0  0  0  0  0  0
  -12.2913   -1.8340    2.3713 C   0  0  0  0  0  0  0  0  0  0  0  0
  -12.9235   -0.9001    1.6662 N   0  0  0  0  0  0  0  0  0  0  0  0
  -11.7813   -2.9064    1.7460 N   0  0  0  0  0  0  0  0  0  0  0  0
  -11.1516   -3.8673    2.4382 C   0  0  0  0  0  0  0  0  0  0  0  0
  -11.0203   -3.7551    3.8165 C   0  0  0  0  0  0  0  0  0  0  0  0
  -11.5549   -2.6333    4.4415 C   0  0  0  0  0  0  0  0  0  0  0  0
  -11.4434   -2.4809    5.7577 N   0  0  0  0  0  0  0  0  0  0  0  0
  -10.3776   -4.8368    4.2466 N   0  0  0  0  0  0  0  0  0  0  0  0
  -10.1135   -5.6010    3.1892 C   0  0  0  0  0  0  0  0  0  0  0  0
  -10.5811   -5.0165    2.0882 N   0  0  0  0  0  0  0  0  0  0  0  0
  1  7  2  0  0  0  0
  1  2  1  0  0  0  0
  2  3  1  0  0  0  0
  2  4  2  0  0  0  0
  4  5  1  0  0  0  0
  5  6  2  0  0  0  0
  5 11  1  0  0  0  0
  6  7  1  0  0  0  0
  6  9  1  0  0  0  0
  7  8  1  0  0  0  0
  9 10  1  0  0  0  0
 10 11  2  0  0  0  0
M  END
>  <CHROM.1>
-11.41360114,-3.20895548,3.22209828,-3.12425347,1.05326113,-1.82705124

>  <Name>
ligand

>  <RI>
0

>  <Rbt.Current_Directory>
/home/itssahil/PROJECTS/Mol_Feturizer/New_Systems/rnas/2b57

>  <Rbt.Executable>
rbdock ($Id: //depot/dev/client3/rdock/2013.1/src/exe/rbdock.cxx#4 $)

>  <Rbt.Library>
libRbt.so (2013.1, Build901 2013/11/27)

>  <Rbt.Parameter_File>
/export/apps/rDock/src/rDock_2013.1_src/data/scripts/dock_solv.prm

>  <Rbt.Receptor>
prm/blind_docking_20.prm

>  <SCORE>
-7.12384

>  <SCORE.INTER>
-7.12384

>  <SCORE.INTER.CONST>
1

>  <SCORE.INTER.POLAR>
0

>  <SCORE.INTER.ROT>
0

>  <SCORE.INTER.SOLV>
1.4643

>  <SCORE.INTER.VDW>
-8.83733

>  <SCORE.INTER.norm>
-0.647622

>  <SCORE.INTRA>
0

>  <SCORE.INTRA.DIHEDRAL>
0

>  <SCORE.INTRA.DIHEDRAL.0>
0

>  <SCORE.INTRA.POLAR>
0

>  <SCORE.INTRA.POLAR.0>
0

>  <SCORE.INTRA.REPUL>
0

>  <SCORE.INTRA.REPUL.0>
0

>  <SCORE.INTRA.SOLV>
0

>  <SCORE.INTRA.SOLV.lig_0>
-48.3454

>  <SCORE.INTRA.VDW>
0

>  <SCORE.INTRA.VDW.0>
0

>  <SCORE.INTRA.norm>
0

>  <SCORE.RESTR>
0

>  <SCORE.RESTR.CAVITY>
0

>  <SCORE.RESTR.norm>
0

>  <SCORE.SYSTEM>
0

>  <SCORE.SYSTEM.CONST>
0

>  <SCORE.SYSTEM.DIHEDRAL>
0

>  <SCORE.SYSTEM.SOLV>
0

>  <SCORE.SYSTEM.norm>
0

>  <SCORE.heavy>
11

>  <SCORE.norm>
-0.647622

>  <RMSD>
11.346

$$$$
ligand
 OpenBabel01301917033D
libRbt.so/2013.1/901 2013/11/27
 11 12  0  0  0  0  0  0  0  0999 V2000
  -12.1837   -1.7059    3.6616 N   0  0  0  0  0  0  0  0  0  0  0  0
  -12.3054   -1.8429    2.3315 C   0  0  0  0  0  0  0  0  0  0  0  0
  -12.9336   -0.9067    1.6258 N   0  0  0  0  0  0  0  0  0  0  0  0
  -11.8074   -2.9220    1.7081 N   0  0  0  0  0  0  0  0  0  0  0  0
  -11.1819   -3.8851    2.4010 C   0  0  0  0  0  0  0  0  0  0  0  0
  -11.0425   -3.7682    3.7782 C   0  0  0  0  0  0  0  0  0  0  0  0
  -11.5646   -2.6395    4.4012 C   0  0  0  0  0  0  0  0  0  0  0  0
  -11.4450   -2.4826    5.7162 N   0  0  0  0  0  0  0  0  0  0  0  0
  -10.4064   -4.8533    4.2095 N   0  0  0  0  0  0  0  0  0  0  0  0
  -10.1541   -5.6241    3.1539 C   0  0  0  0  0  0  0  0  0  0  0  0
  -10.6227   -5.0404    2.0529 N   0  0  0  0  0  0  0  0  0  0  0  0
  1  7  2  0  0  0  0
  1  2  1  0  0  0  0
  2  3  1  0  0  0  0
  2  4  2  0  0  0  0
  4  5  1  0  0  0  0
  5  6  2  0  0  0  0
  5 11  1  0  0  0  0
  6  7  1  0  0  0  0
  6  9  1  0  0  0  0
  7  8  1  0  0  0  0
  9 10  1  0  0  0  0
 10 11  2  0  0  0  0
M  END
>  <CHROM.1>
-11.43443917,-3.22136696,3.18351191,-3.10967304,1.05977413,-1.84393052

>  <Name>
ligand

>  <RI>
0

>  <Rbt.Current_Directory>
/home/itssahil/PROJECTS/Mol_Feturizer/New_Systems/rnas/2b57

>  <Rbt.Executable>
rbdock ($Id: //depot/dev/client3/rdock/2013.1/src/exe/rbdock.cxx#4 $)

>  <Rbt.Library>
libRbt.so (2013.1, Build901 2013/11/27)

>  <Rbt.Parameter_File>
/export/apps/rDock/src/rDock_2013.1_src/data/scripts/dock_solv.prm

>  <Rbt.Receptor>
prm/blind_docking_20.prm

>  <SCORE>
-7.13234

>  <SCORE.INTER>
-7.13234

>  <SCORE.INTER.CONST>
1

>  <SCORE.INTER.POLAR>
0

>  <SCORE.INTER.ROT>
0

>  <SCORE.INTER.SOLV>
1.5053

>  <SCORE.INTER.VDW>
-8.85666

>  <SCORE.INTER.norm>
-0.648394

>  <SCORE.INTRA>
0

>  <SCORE.INTRA.DIHEDRAL>
0

>  <SCORE.INTRA.DIHEDRAL.0>
0

>  <SCORE.INTRA.POLAR>
0

>  <SCORE.INTRA.POLAR.0>
0

>  <SCORE.INTRA.REPUL>
0

>  <SCORE.INTRA.REPUL.0>
0

>  <SCORE.INTRA.SOLV>
0

>  <SCORE.INTRA.SOLV.lig_0>
-48.3454

>  <SCORE.INTRA.VDW>
0

>  <SCORE.INTRA.VDW.0>
0

>  <SCORE.INTRA.norm>
0

>  <SCORE.RESTR>
0

>  <SCORE.RESTR.CAVITY>
0

>  <SCORE.RESTR.norm>
0

>  <SCORE.SYSTEM>
0

>  <SCORE.SYSTEM.CONST>
0

>  <SCORE.SYSTEM.DIHEDRAL>
0

>  <SCORE.SYSTEM.SOLV>
0

>  <SCORE.SYSTEM.norm>
0

>  <SCORE.heavy>
11

>  <SCORE.norm>
-0.648394

>  <RMSD>
11.351

$$$$
ligand
 OpenBabel01301917033D
libRbt.so/2013.1/901 2013/11/27
 11 12  0  0  0  0  0  0  0  0999 V2000
  -12.2469   -1.7095    3.5835 N   0  0  0  0  0  0  0  0  0  0  0  0
  -12.2968   -1.8727    2.2517 C   0  0  0  0  0  0  0  0  0  0  0  0
  -12.9169   -0.9689    1.4984 N   0  0  0  0  0  0  0  0  0  0  0  0
  -11.7349   -2.9458    1.6740 N   0  0  0  0  0  0  0  0  0  0  0  0
  -11.1159   -3.8769    2.4150 C   0  0  0  0  0  0  0  0  0  0  0  0
  -11.0501   -3.7325    3.7951 C   0  0  0  0  0  0  0  0  0  0  0  0
  -11.6376   -2.6105    4.3702 C   0  0  0  0  0  0  0  0  0  0  0  0
  -11.5897   -2.4278    5.6865 N   0  0  0  0  0  0  0  0  0  0  0  0
  -10.4036   -4.7894    4.2776 N   0  0  0  0  0  0  0  0  0  0  0  0
  -10.0746   -5.5695    3.2504 C   0  0  0  0  0  0  0  0  0  0  0  0
  -10.5045   -5.0196    2.1167 N   0  0  0  0  0  0  0  0  0  0  0  0
  1  7  2  0  0  0  0
  1  2  1  0  0  0  0
  2  3  1  0  0  0  0
  2  4  2  0  0  0  0
  4  5  1  0  0  0  0
  5  6  2  0  0  0  0
  5 11  1  0  0  0  0
  6  7  1  0  0  0  0
  6  9  1  0  0  0  0
  7  8  1  0  0  0  0
  9 10  1  0  0  0  0
 10 11  2  0  0  0  0
M  END
>  <CHROM.1>
-11.42810078,-3.20838080,3.17155288,3.06033150,1.04099097,-1.76334391

>  <Name>
ligand

>  <RI>
0

>  <Rbt.Current_Directory>
/home/itssahil/PROJECTS/Mol_Feturizer/New_Systems/rnas/2b57

>  <Rbt.Executable>
rbdock ($Id: //depot/dev/client3/rdock/2013.1/src/exe/rbdock.cxx#4 $)

>  <Rbt.Library>
libRbt.so (2013.1, Build901 2013/11/27)

>  <Rbt.Parameter_File>
/export/apps/rDock/src/rDock_2013.1_src/data/scripts/dock_solv.prm

>  <Rbt.Receptor>
prm/blind_docking_20.prm

>  <SCORE>
-7.11949

>  <SCORE.INTER>
-7.11949

>  <SCORE.INTER.CONST>
1

>  <SCORE.INTER.POLAR>
0

>  <SCORE.INTER.ROT>
0

>  <SCORE.INTER.SOLV>
1.3945

>  <SCORE.INTER.VDW>
-8.81116

>  <SCORE.INTER.norm>
-0.647227

>  <SCORE.INTRA>
0

>  <SCORE.INTRA.DIHEDRAL>
0

>  <SCORE.INTRA.DIHEDRAL.0>
0

>  <SCORE.INTRA.POLAR>
0

>  <SCORE.INTRA.POLAR.0>
0

>  <SCORE.INTRA.REPUL>
0

>  <SCORE.INTRA.REPUL.0>
0

>  <SCORE.INTRA.SOLV>
0

>  <SCORE.INTRA.SOLV.lig_0>
-48.3454

>  <SCORE.INTRA.VDW>
0

>  <SCORE.INTRA.VDW.0>
0

>  <SCORE.INTRA.norm>
0

>  <SCORE.RESTR>
0

>  <SCORE.RESTR.CAVITY>
0

>  <SCORE.RESTR.norm>
0

>  <SCORE.SYSTEM>
0

>  <SCORE.SYSTEM.CONST>
0

>  <SCORE.SYSTEM.DIHEDRAL>
0

>  <SCORE.SYSTEM.SOLV>
0

>  <SCORE.SYSTEM.norm>
0

>  <SCORE.heavy>
11

>  <SCORE.norm>
-0.647227

>  <RMSD>
11.371

$$$$
ligand
 OpenBabel01301917033D
libRbt.so/2013.1/901 2013/11/27
 11 12  0  0  0  0  0  0  0  0999 V2000
  -12.2742   -1.6887    3.6615 N   0  0  0  0  0  0  0  0  0  0  0  0
  -12.3662   -1.8267    2.3292 C   0  0  0  0  0  0  0  0  0  0  0  0
  -12.9996   -0.9031    1.6117 N   0  0  0  0  0  0  0  0  0  0  0  0
  -11.8333   -2.8945    1.7151 N   0  0  0  0  0  0  0  0  0  0  0  0
  -11.2017   -3.8450    2.4198 C   0  0  0  0  0  0  0  0  0  0  0  0
  -11.0925   -3.7268    3.7995 C   0  0  0  0  0  0  0  0  0  0  0  0
  -11.6506   -2.6101    4.4128 C   0  0  0  0  0  0  0  0  0  0  0  0
  -11.5608   -2.4522    5.7300 N   0  0  0  0  0  0  0  0  0  0  0  0
  -10.4425   -4.7988    4.2428 N   0  0  0  0  0  0  0  0  0  0  0  0
  -10.1529   -5.5629    3.1919 C   0  0  0  0  0  0  0  0  0  0  0  0
  -10.6115   -4.9879    2.0821 N   0  0  0  0  0  0  0  0  0  0  0  0
  1  7  2  0  0  0  0
  1  2  1  0  0  0  0
  2  3  1  0  0  0  0
  2  4  2  0  0  0  0
  4  5  1  0  0  0  0
  5  6  2  0  0  0  0
  5 11  1  0  0  0  0
  6  7  1  0  0  0  0
  6  9  1  0  0  0  0
  7  8  1  0  0  0  0
  9 10  1  0  0  0  0
 10 11  2  0  0  0  0
M  END
>  <CHROM.1>
-11.48381419,-3.18764222,3.19753044,3.12371744,1.04442948,-1.79974476

>  <Name>
ligand

>  <RI>
0

>  <Rbt.Current_Directory>
/home/itssahil/PROJECTS/Mol_Feturizer/New_Systems/rnas/2b57

>  <Rbt.Executable>
rbdock ($Id: //depot/dev/client3/rdock/2013.1/src/exe/rbdock.cxx#4 $)

>  <Rbt.Library>
libRbt.so (2013.1, Build901 2013/11/27)

>  <Rbt.Parameter_File>
/export/apps/rDock/src/rDock_2013.1_src/data/scripts/dock_solv.prm

>  <Rbt.Receptor>
prm/blind_docking_20.prm

>  <SCORE>
-7.12531

>  <SCORE.INTER>
-7.12531

>  <SCORE.INTER.CONST>
1

>  <SCORE.INTER.POLAR>
0

>  <SCORE.INTER.ROT>
0

>  <SCORE.INTER.SOLV>
1.31006

>  <SCORE.INTER.VDW>
-8.78689

>  <SCORE.INTER.norm>
-0.647755

>  <SCORE.INTRA>
0

>  <SCORE.INTRA.DIHEDRAL>
0

>  <SCORE.INTRA.DIHEDRAL.0>
0

>  <SCORE.INTRA.POLAR>
0

>  <SCORE.INTRA.POLAR.0>
0

>  <SCORE.INTRA.REPUL>
0

>  <SCORE.INTRA.REPUL.0>
0

>  <SCORE.INTRA.SOLV>
0

>  <SCORE.INTRA.SOLV.lig_0>
-48.3454

>  <SCORE.INTRA.VDW>
0

>  <SCORE.INTRA.VDW.0>
0

>  <SCORE.INTRA.norm>
0

>  <SCORE.RESTR>
0

>  <SCORE.RESTR.CAVITY>
0

>  <SCORE.RESTR.norm>
0

>  <SCORE.SYSTEM>
0

>  <SCORE.SYSTEM.CONST>
0

>  <SCORE.SYSTEM.DIHEDRAL>
0

>  <SCORE.SYSTEM.SOLV>
0

>  <SCORE.SYSTEM.norm>
0

>  <SCORE.heavy>
11

>  <SCORE.norm>
-0.647755

>  <RMSD>
11.375

$$$$
ligand
 OpenBabel01301917033D
libRbt.so/2013.1/901 2013/11/27
 11 12  0  0  0  0  0  0  0  0999 V2000
  -12.2907   -1.6903    3.6632 N   0  0  0  0  0  0  0  0  0  0  0  0
  -12.3729   -1.8291    2.3303 C   0  0  0  0  0  0  0  0  0  0  0  0
  -13.0090   -0.9107    1.6086 N   0  0  0  0  0  0  0  0  0  0  0  0
  -11.8274   -2.8926    1.7199 N   0  0  0  0  0  0  0  0  0  0  0  0
  -11.1929   -3.8380    2.4287 C   0  0  0  0  0  0  0  0  0  0  0  0
  -11.0936   -3.7189    3.8092 C   0  0  0  0  0  0  0  0  0  0  0  0
  -11.6646   -2.6066    4.4186 C   0  0  0  0  0  0  0  0  0  0  0  0
  -11.5847   -2.4479    5.7364 N   0  0  0  0  0  0  0  0  0  0  0  0
  -10.4380   -4.7856    4.2567 N   0  0  0  0  0  0  0  0  0  0  0  0
  -10.1354   -5.5474    3.2079 C   0  0  0  0  0  0  0  0  0  0  0  0
  -10.5913   -4.9762    2.0951 N   0  0  0  0  0  0  0  0  0  0  0  0
  1  7  2  0  0  0  0
  1  2  1  0  0  0  0
  2  3  1  0  0  0  0
  2  4  2  0  0  0  0
  4  5  1  0  0  0  0
  5  6  2  0  0  0  0
  5 11  1  0  0  0  0
  6  7  1  0  0  0  0
  6  9  1  0  0  0  0
  7  8  1  0  0  0  0
  9 10  1  0  0  0  0
 10 11  2  0  0  0  0
M  END
>  <CHROM.1>
-11.48528073,-3.18287917,3.20455405,3.10761757,1.03805398,-1.78593996

>  <Name>
ligand

>  <RI>
0

>  <Rbt.Current_Directory>
/home/itssahil/PROJECTS/Mol_Feturizer/New_Systems/rnas/2b57

>  <Rbt.Executable>
rbdock ($Id: //depot/dev/client3/rdock/2013.1/src/exe/rbdock.cxx#4 $)

>  <Rbt.Library>
libRbt.so (2013.1, Build901 2013/11/27)

>  <Rbt.Parameter_File>
/export/apps/rDock/src/rDock_2013.1_src/data/scripts/dock_solv.prm

>  <Rbt.Receptor>
prm/blind_docking_20.prm

>  <SCORE>
-7.12598

>  <SCORE.INTER>
-7.12598

>  <SCORE.INTER.CONST>
1

>  <SCORE.INTER.POLAR>
0

>  <SCORE.INTER.ROT>
0

>  <SCORE.INTER.SOLV>
1.26477

>  <SCORE.INTER.VDW>
-8.77225

>  <SCORE.INTER.norm>
-0.647817

>  <SCORE.INTRA>
0

>  <SCORE.INTRA.DIHEDRAL>
0

>  <SCORE.INTRA.DIHEDRAL.0>
0

>  <SCORE.INTRA.POLAR>
0

>  <SCORE.INTRA.POLAR.0>
0

>  <SCORE.INTRA.REPUL>
0

>  <SCORE.INTRA.REPUL.0>
0

>  <SCORE.INTRA.SOLV>
0

>  <SCORE.INTRA.SOLV.lig_0>
-48.3454

>  <SCORE.INTRA.VDW>
0

>  <SCORE.INTRA.VDW.0>
0

>  <SCORE.INTRA.norm>
0

>  <SCORE.RESTR>
0

>  <SCORE.RESTR.CAVITY>
0

>  <SCORE.RESTR.norm>
0

>  <SCORE.SYSTEM>
0

>  <SCORE.SYSTEM.CONST>
0

>  <SCORE.SYSTEM.DIHEDRAL>
0

>  <SCORE.SYSTEM.SOLV>
0

>  <SCORE.SYSTEM.norm>
0

>  <SCORE.heavy>
11

>  <SCORE.norm>
-0.647817

>  <RMSD>
11.376

$$$$
ligand
 OpenBabel01301917033D
libRbt.so/2013.1/901 2013/11/27
 11 12  0  0  0  0  0  0  0  0999 V2000
  -12.5784   -2.1063    1.9729 N   0  0  0  0  0  0  0  0  0  0  0  0
  -12.3890   -1.7587    3.2559 C   0  0  0  0  0  0  0  0  0  0  0  0
  -12.9009   -0.6199    3.7141 N   0  0  0  0  0  0  0  0  0  0  0  0
  -11.6784   -2.5458    4.0785 N   0  0  0  0  0  0  0  0  0  0  0  0
  -11.1416   -3.6921    3.6349 C   0  0  0  0  0  0  0  0  0  0  0  0
  -11.3223   -4.0752    2.3119 C   0  0  0  0  0  0  0  0  0  0  0  0
  -12.0647   -3.2441    1.4795 C   0  0  0  0  0  0  0  0  0  0  0  0
  -12.2704   -3.5770    0.2087 N   0  0  0  0  0  0  0  0  0  0  0  0
  -10.6815   -5.2272    2.1378 N   0  0  0  0  0  0  0  0  0  0  0  0
  -10.1193   -5.5598    3.2976 C   0  0  0  0  0  0  0  0  0  0  0  0
  -10.3960   -4.6310    4.2104 N   0  0  0  0  0  0  0  0  0  0  0  0
  1  7  2  0  0  0  0
  1  2  1  0  0  0  0
  2  3  1  0  0  0  0
  2  4  2  0  0  0  0
  4  5  1  0  0  0  0
  5  6  2  0  0  0  0
  5 11  1  0  0  0  0
  6  7  1  0  0  0  0
  6  9  1  0  0  0  0
  7  8  1  0  0  0  0
  9 10  1  0  0  0  0
 10 11  2  0  0  0  0
M  END
>  <CHROM.1>
-11.60774101,-3.34629480,2.75187630,2.71797518,-0.98250009,1.08426175

>  <Name>
ligand

>  <RI>
0

>  <Rbt.Current_Directory>
/home/itssahil/PROJECTS/Mol_Feturizer/New_Systems/rnas/2b57

>  <Rbt.Executable>
rbdock ($Id: //depot/dev/client3/rdock/2013.1/src/exe/rbdock.cxx#4 $)

>  <Rbt.Library>
libRbt.so (2013.1, Build901 2013/11/27)

>  <Rbt.Parameter_File>
/export/apps/rDock/src/rDock_2013.1_src/data/scripts/dock_solv.prm

>  <Rbt.Receptor>
prm/blind_docking_20.prm

>  <SCORE>
-6.85038

>  <SCORE.INTER>
-6.85038

>  <SCORE.INTER.CONST>
1

>  <SCORE.INTER.POLAR>
0

>  <SCORE.INTER.ROT>
0

>  <SCORE.INTER.SOLV>
2.66537

>  <SCORE.INTER.VDW>
-9.05537

>  <SCORE.INTER.norm>
-0.622761

>  <SCORE.INTRA>
0

>  <SCORE.INTRA.DIHEDRAL>
0

>  <SCORE.INTRA.DIHEDRAL.0>
0

>  <SCORE.INTRA.POLAR>
0

>  <SCORE.INTRA.POLAR.0>
0

>  <SCORE.INTRA.REPUL>
0

>  <SCORE.INTRA.REPUL.0>
0

>  <SCORE.INTRA.SOLV>
0

>  <SCORE.INTRA.SOLV.lig_0>
-48.3454

>  <SCORE.INTRA.VDW>
0

>  <SCORE.INTRA.VDW.0>
0

>  <SCORE.INTRA.norm>
0

>  <SCORE.RESTR>
0

>  <SCORE.RESTR.CAVITY>
0

>  <SCORE.RESTR.norm>
0

>  <SCORE.SYSTEM>
0

>  <SCORE.SYSTEM.CONST>
0

>  <SCORE.SYSTEM.DIHEDRAL>
0

>  <SCORE.SYSTEM.SOLV>
0

>  <SCORE.SYSTEM.norm>
0

>  <SCORE.heavy>
11

>  <SCORE.norm>
-0.622761

>  <RMSD>
11.427

$$$$
ligand
 OpenBabel01301917033D
libRbt.so/2013.1/901 2013/11/27
 11 12  0  0  0  0  0  0  0  0999 V2000
  -12.4974   -2.0545    1.9638 N   0  0  0  0  0  0  0  0  0  0  0  0
  -12.2689   -1.6917    3.2361 C   0  0  0  0  0  0  0  0  0  0  0  0
  -12.7354   -0.5300    3.6855 N   0  0  0  0  0  0  0  0  0  0  0  0
  -11.5646   -2.4866    4.0566 N   0  0  0  0  0  0  0  0  0  0  0  0
  -11.0731   -3.6562    3.6214 C   0  0  0  0  0  0  0  0  0  0  0  0
  -11.2949   -4.0554    2.3095 C   0  0  0  0  0  0  0  0  0  0  0  0
  -12.0298   -3.2157    1.4791 C   0  0  0  0  0  0  0  0  0  0  0  0
  -12.2739   -3.5632    0.2190 N   0  0  0  0  0  0  0  0  0  0  0  0
  -10.6937   -5.2295    2.1415 N   0  0  0  0  0  0  0  0  0  0  0  0
  -10.1162   -5.5600    3.2944 C   0  0  0  0  0  0  0  0  0  0  0  0
  -10.3440   -4.6080    4.1967 N   0  0  0  0  0  0  0  0  0  0  0  0
  1  7  2  0  0  0  0
  1  2  1  0  0  0  0
  2  3  1  0  0  0  0
  2  4  2  0  0  0  0
  4  5  1  0  0  0  0
  5  6  2  0  0  0  0
  5 11  1  0  0  0  0
  6  7  1  0  0  0  0
  6  9  1  0  0  0  0
  7  8  1  0  0  0  0
  9 10  1  0  0  0  0
 10 11  2  0  0  0  0
M  END
>  <CHROM.1>
-11.54803704,-3.31082719,2.74284592,2.65519996,-0.99825762,1.01474753

>  <Name>
ligand

>  <RI>
0

>  <Rbt.Current_Directory>
/home/itssahil/PROJECTS/Mol_Feturizer/New_Systems/rnas/2b57

>  <Rbt.Executable>
rbdock ($Id: //depot/dev/client3/rdock/2013.1/src/exe/rbdock.cxx#4 $)

>  <Rbt.Library>
libRbt.so (2013.1, Build901 2013/11/27)

>  <Rbt.Parameter_File>
/export/apps/rDock/src/rDock_2013.1_src/data/scripts/dock_solv.prm

>  <Rbt.Receptor>
prm/blind_docking_20.prm

>  <SCORE>
-6.91112

>  <SCORE.INTER>
-6.91112

>  <SCORE.INTER.CONST>
1

>  <SCORE.INTER.POLAR>
0

>  <SCORE.INTER.ROT>
0

>  <SCORE.INTER.SOLV>
2.96673

>  <SCORE.INTER.VDW>
-9.19632

>  <SCORE.INTER.norm>
-0.628284

>  <SCORE.INTRA>
0

>  <SCORE.INTRA.DIHEDRAL>
0

>  <SCORE.INTRA.DIHEDRAL.0>
0

>  <SCORE.INTRA.POLAR>
0

>  <SCORE.INTRA.POLAR.0>
0

>  <SCORE.INTRA.REPUL>
0

>  <SCORE.INTRA.REPUL.0>
0

>  <SCORE.INTRA.SOLV>
0

>  <SCORE.INTRA.SOLV.lig_0>
-48.3454

>  <SCORE.INTRA.VDW>
0

>  <SCORE.INTRA.VDW.0>
0

>  <SCORE.INTRA.norm>
0

>  <SCORE.RESTR>
0

>  <SCORE.RESTR.CAVITY>
0

>  <SCORE.RESTR.norm>
0

>  <SCORE.SYSTEM>
0

>  <SCORE.SYSTEM.CONST>
0

>  <SCORE.SYSTEM.DIHEDRAL>
0

>  <SCORE.SYSTEM.SOLV>
0

>  <SCORE.SYSTEM.norm>
0

>  <SCORE.heavy>
11

>  <SCORE.norm>
-0.628284

>  <RMSD>
11.463

$$$$
ligand
 OpenBabel01301917033D
libRbt.so/2013.1/901 2013/11/27
 11 12  0  0  0  0  0  0  0  0999 V2000
  -12.5635   -2.0762    1.9276 N   0  0  0  0  0  0  0  0  0  0  0  0
  -12.3603   -1.7180    3.2055 C   0  0  0  0  0  0  0  0  0  0  0  0
  -12.8563   -0.5692    3.6563 N   0  0  0  0  0  0  0  0  0  0  0  0
  -11.6518   -2.5046    4.0304 N   0  0  0  0  0  0  0  0  0  0  0  0
  -11.1308   -3.6609    3.5942 C   0  0  0  0  0  0  0  0  0  0  0  0
  -11.3259   -4.0551    2.2766 C   0  0  0  0  0  0  0  0  0  0  0  0
  -12.0658   -3.2243    1.4416 C   0  0  0  0  0  0  0  0  0  0  0  0
  -12.2851   -3.5676    0.1759 N   0  0  0  0  0  0  0  0  0  0  0  0
  -10.6990   -5.2156    2.1091 N   0  0  0  0  0  0  0  0  0  0  0  0
  -10.1312   -5.5428    3.2678 C   0  0  0  0  0  0  0  0  0  0  0  0
  -10.3908   -4.6020    4.1733 N   0  0  0  0  0  0  0  0  0  0  0  0
  1  7  2  0  0  0  0
  1  2  1  0  0  0  0
  2  3  1  0  0  0  0
  2  4  2  0  0  0  0
  4  5  1  0  0  0  0
  5  6  2  0  0  0  0
  5 11  1  0  0  0  0
  6  7  1  0  0  0  0
  6  9  1  0  0  0  0
  7  8  1  0  0  0  0
  9 10  1  0  0  0  0
 10 11  2  0  0  0  0
M  END
>  <CHROM.1>
-11.60009328,-3.31886442,2.71143530,2.69629668,-0.98822511,1.05621703

>  <Name>
ligand

>  <RI>
0

>  <Rbt.Current_Directory>
/home/itssahil/PROJECTS/Mol_Feturizer/New_Systems/rnas/2b57

>  <Rbt.Executable>
rbdock ($Id: //depot/dev/client3/rdock/2013.1/src/exe/rbdock.cxx#4 $)

>  <Rbt.Library>
libRbt.so (2013.1, Build901 2013/11/27)

>  <Rbt.Parameter_File>
/export/apps/rDock/src/rDock_2013.1_src/data/scripts/dock_solv.prm

>  <Rbt.Receptor>
prm/blind_docking_20.prm

>  <SCORE>
-6.85226

>  <SCORE.INTER>
-6.85226

>  <SCORE.INTER.CONST>
1

>  <SCORE.INTER.POLAR>
0

>  <SCORE.INTER.ROT>
0

>  <SCORE.INTER.SOLV>
2.67181

>  <SCORE.INTER.VDW>
-9.05878

>  <SCORE.INTER.norm>
-0.622932

>  <SCORE.INTRA>
0

>  <SCORE.INTRA.DIHEDRAL>
0

>  <SCORE.INTRA.DIHEDRAL.0>
0

>  <SCORE.INTRA.POLAR>
0

>  <SCORE.INTRA.POLAR.0>
0

>  <SCORE.INTRA.REPUL>
0

>  <SCORE.INTRA.REPUL.0>
0

>  <SCORE.INTRA.SOLV>
0

>  <SCORE.INTRA.SOLV.lig_0>
-48.3454

>  <SCORE.INTRA.VDW>
0

>  <SCORE.INTRA.VDW.0>
0

>  <SCORE.INTRA.norm>
0

>  <SCORE.RESTR>
0

>  <SCORE.RESTR.CAVITY>
0

>  <SCORE.RESTR.norm>
0

>  <SCORE.SYSTEM>
0

>  <SCORE.SYSTEM.CONST>
0

>  <SCORE.SYSTEM.DIHEDRAL>
0

>  <SCORE.SYSTEM.SOLV>
0

>  <SCORE.SYSTEM.norm>
0

>  <SCORE.heavy>
11

>  <SCORE.norm>
-0.622932

>  <RMSD>
11.470

$$$$
ligand
 OpenBabel01301917033D
libRbt.so/2013.1/901 2013/11/27
 11 12  0  0  0  0  0  0  0  0999 V2000
  -12.5168   -2.1021    1.8568 N   0  0  0  0  0  0  0  0  0  0  0  0
  -12.2815   -1.7090    3.1188 C   0  0  0  0  0  0  0  0  0  0  0  0
  -12.7433   -0.5357    3.5420 N   0  0  0  0  0  0  0  0  0  0  0  0
  -11.5749   -2.4853    3.9551 N   0  0  0  0  0  0  0  0  0  0  0  0
  -11.0880   -3.6662    3.5461 C   0  0  0  0  0  0  0  0  0  0  0  0
  -11.3169   -4.0968    2.2454 C   0  0  0  0  0  0  0  0  0  0  0  0
  -12.0540   -3.2759    1.3983 C   0  0  0  0  0  0  0  0  0  0  0  0
  -12.3048   -3.6533    0.1482 N   0  0  0  0  0  0  0  0  0  0  0  0
  -10.7190   -5.2759    2.1032 N   0  0  0  0  0  0  0  0  0  0  0  0
  -10.1367   -5.5796    3.2611 C   0  0  0  0  0  0  0  0  0  0  0  0
  -10.3582   -4.6054    4.1411 N   0  0  0  0  0  0  0  0  0  0  0  0
  1  7  2  0  0  0  0
  1  2  1  0  0  0  0
  2  3  1  0  0  0  0
  2  4  2  0  0  0  0
  4  5  1  0  0  0  0
  5  6  2  0  0  0  0
  5 11  1  0  0  0  0
  6  7  1  0  0  0  0
  6  9  1  0  0  0  0
  7  8  1  0  0  0  0
  9 10  1  0  0  0  0
 10 11  2  0  0  0  0
M  END
>  <CHROM.1>
-11.56637078,-3.34128179,2.66171715,2.64567518,-0.99753705,0.98241060

>  <Name>
ligand

>  <RI>
0

>  <Rbt.Current_Directory>
/home/itssahil/PROJECTS/Mol_Feturizer/New_Systems/rnas/2b57

>  <Rbt.Executable>
rbdock ($Id: //depot/dev/client3/rdock/2013.1/src/exe/rbdock.cxx#4 $)

>  <Rbt.Library>
libRbt.so (2013.1, Build901 2013/11/27)

>  <Rbt.Parameter_File>
/export/apps/rDock/src/rDock_2013.1_src/data/scripts/dock_solv.prm

>  <Rbt.Receptor>
prm/blind_docking_20.prm

>  <SCORE>
-6.81851

>  <SCORE.INTER>
-6.81851

>  <SCORE.INTER.CONST>
1

>  <SCORE.INTER.POLAR>
0

>  <SCORE.INTER.ROT>
0

>  <SCORE.INTER.SOLV>
2.94158

>  <SCORE.INTER.VDW>
-9.1262

>  <SCORE.INTER.norm>
-0.619864

>  <SCORE.INTRA>
0

>  <SCORE.INTRA.DIHEDRAL>
0

>  <SCORE.INTRA.DIHEDRAL.0>
0

>  <SCORE.INTRA.POLAR>
0

>  <SCORE.INTRA.POLAR.0>
0

>  <SCORE.INTRA.REPUL>
0

>  <SCORE.INTRA.REPUL.0>
0

>  <SCORE.INTRA.SOLV>
0

>  <SCORE.INTRA.SOLV.lig_0>
-48.3454

>  <SCORE.INTRA.VDW>
0

>  <SCORE.INTRA.VDW.0>
0

>  <SCORE.INTRA.norm>
0

>  <SCORE.RESTR>
0

>  <SCORE.RESTR.CAVITY>
0

>  <SCORE.RESTR.norm>
0

>  <SCORE.SYSTEM>
0

>  <SCORE.SYSTEM.CONST>
0

>  <SCORE.SYSTEM.DIHEDRAL>
0

>  <SCORE.SYSTEM.SOLV>
0

>  <SCORE.SYSTEM.norm>
0

>  <SCORE.heavy>
11

>  <SCORE.norm>
-0.619864

>  <RMSD>
11.480

$$$$
ligand
 OpenBabel01301917033D
libRbt.so/2013.1/901 2013/11/27
 11 12  0  0  0  0  0  0  0  0999 V2000
  -12.4841   -2.0793    1.8686 N   0  0  0  0  0  0  0  0  0  0  0  0
  -12.2488   -1.6890    3.1315 C   0  0  0  0  0  0  0  0  0  0  0  0
  -12.7056   -0.5141    3.5556 N   0  0  0  0  0  0  0  0  0  0  0  0
  -11.5473   -2.4698    3.9678 N   0  0  0  0  0  0  0  0  0  0  0  0
  -11.0655   -3.6525    3.5580 C   0  0  0  0  0  0  0  0  0  0  0  0
  -11.2945   -4.0802    2.2564 C   0  0  0  0  0  0  0  0  0  0  0  0
  -12.0263   -3.2547    1.4093 C   0  0  0  0  0  0  0  0  0  0  0  0
  -12.2771   -3.6293    0.1583 N   0  0  0  0  0  0  0  0  0  0  0  0
  -10.7021   -5.2620    2.1134 N   0  0  0  0  0  0  0  0  0  0  0  0
  -10.1230   -5.5701    3.2718 C   0  0  0  0  0  0  0  0  0  0  0  0
  -10.3410   -4.5960    4.1527 N   0  0  0  0  0  0  0  0  0  0  0  0
  1  7  2  0  0  0  0
  1  2  1  0  0  0  0
  2  3  1  0  0  0  0
  2  4  2  0  0  0  0
  4  5  1  0  0  0  0
  5  6  2  0  0  0  0
  5 11  1  0  0  0  0
  6  7  1  0  0  0  0
  6  9  1  0  0  0  0
  7  8  1  0  0  0  0
  9 10  1  0  0  0  0
 10 11  2  0  0  0  0
M  END
>  <CHROM.1>
-11.54093271,-3.32412557,2.67329925,2.64302708,-1.00236766,0.98152446

>  <Name>
ligand

>  <RI>
0

>  <Rbt.Current_Directory>
/home/itssahil/PROJECTS/Mol_Feturizer/New_Systems/rnas/2b57

>  <Rbt.Executable>
rbdock ($Id: //depot/dev/client3/rdock/2013.1/src/exe/rbdock.cxx#4 $)

>  <Rbt.Library>
libRbt.so (2013.1, Build901 2013/11/27)

>  <Rbt.Parameter_File>
/export/apps/rDock/src/rDock_2013.1_src/data/scripts/dock_solv.prm

>  <Rbt.Receptor>
prm/blind_docking_20.prm

>  <SCORE>
-6.9254

>  <SCORE.INTER>
-6.9254

>  <SCORE.INTER.CONST>
1

>  <SCORE.INTER.POLAR>
0

>  <SCORE.INTER.ROT>
0

>  <SCORE.INTER.SOLV>
2.99439

>  <SCORE.INTER.VDW>
-9.21506

>  <SCORE.INTER.norm>
-0.629582

>  <SCORE.INTRA>
0

>  <SCORE.INTRA.DIHEDRAL>
0

>  <SCORE.INTRA.DIHEDRAL.0>
0

>  <SCORE.INTRA.POLAR>
0

>  <SCORE.INTRA.POLAR.0>
0

>  <SCORE.INTRA.REPUL>
0

>  <SCORE.INTRA.REPUL.0>
0

>  <SCORE.INTRA.SOLV>
0

>  <SCORE.INTRA.SOLV.lig_0>
-48.3454

>  <SCORE.INTRA.VDW>
0

>  <SCORE.INTRA.VDW.0>
0

>  <SCORE.INTRA.norm>
0

>  <SCORE.RESTR>
0

>  <SCORE.RESTR.CAVITY>
0

>  <SCORE.RESTR.norm>
0

>  <SCORE.SYSTEM>
0

>  <SCORE.SYSTEM.CONST>
0

>  <SCORE.SYSTEM.DIHEDRAL>
0

>  <SCORE.SYSTEM.SOLV>
0

>  <SCORE.SYSTEM.norm>
0

>  <SCORE.heavy>
11

>  <SCORE.norm>
-0.629582

>  <RMSD>
11.489

$$$$
ligand
 OpenBabel01301917033D
libRbt.so/2013.1/901 2013/11/27
 11 12  0  0  0  0  0  0  0  0999 V2000
  -12.5047   -2.0757    1.8674 N   0  0  0  0  0  0  0  0  0  0  0  0
  -12.2763   -1.6800    3.1299 C   0  0  0  0  0  0  0  0  0  0  0  0
  -12.7415   -0.5064    3.5486 N   0  0  0  0  0  0  0  0  0  0  0  0
  -11.5732   -2.4539    3.9712 N   0  0  0  0  0  0  0  0  0  0  0  0
  -11.0830   -3.6351    3.5670 C   0  0  0  0  0  0  0  0  0  0  0  0
  -11.3047   -4.0684    2.2660 C   0  0  0  0  0  0  0  0  0  0  0  0
  -12.0383   -3.2498    1.4136 C   0  0  0  0  0  0  0  0  0  0  0  0
  -12.2824   -3.6299    0.1629 N   0  0  0  0  0  0  0  0  0  0  0  0
  -10.7049   -5.2471    2.1291 N   0  0  0  0  0  0  0  0  0  0  0  0
  -10.1282   -5.5480    3.2905 C   0  0  0  0  0  0  0  0  0  0  0  0
  -10.3552   -4.5724    4.1675 N   0  0  0  0  0  0  0  0  0  0  0  0
  1  7  2  0  0  0  0
  1  2  1  0  0  0  0
  2  3  1  0  0  0  0
  2  4  2  0  0  0  0
  4  5  1  0  0  0  0
  5  6  2  0  0  0  0
  5 11  1  0  0  0  0
  6  7  1  0  0  0  0
  6  9  1  0  0  0  0
  7  8  1  0  0  0  0
  9 10  1  0  0  0  0
 10 11  2  0  0  0  0
M  END
>  <CHROM.1>
-11.55713624,-3.31235269,2.67957878,2.65464219,-0.99947669,0.98805964

>  <Name>
ligand

>  <RI>
0

>  <Rbt.Current_Directory>
/home/itssahil/PROJECTS/Mol_Feturizer/New_Systems/rnas/2b57

>  <Rbt.Executable>
rbdock ($Id: //depot/dev/client3/rdock/2013.1/src/exe/rbdock.cxx#4 $)

>  <Rbt.Library>
libRbt.so (2013.1, Build901 2013/11/27)

>  <Rbt.Parameter_File>
/export/apps/rDock/src/rDock_2013.1_src/data/scripts/dock_solv.prm

>  <Rbt.Receptor>
prm/blind_docking_20.prm

>  <SCORE>
-6.88143

>  <SCORE.INTER>
-6.88143

>  <SCORE.INTER.CONST>
1

>  <SCORE.INTER.POLAR>
0

>  <SCORE.INTER.ROT>
0

>  <SCORE.INTER.SOLV>
2.9314

>  <SCORE.INTER.VDW>
-9.16475

>  <SCORE.INTER.norm>
-0.625584

>  <SCORE.INTRA>
0

>  <SCORE.INTRA.DIHEDRAL>
0

>  <SCORE.INTRA.DIHEDRAL.0>
0

>  <SCORE.INTRA.POLAR>
0

>  <SCORE.INTRA.POLAR.0>
0

>  <SCORE.INTRA.REPUL>
0

>  <SCORE.INTRA.REPUL.0>
0

>  <SCORE.INTRA.SOLV>
0

>  <SCORE.INTRA.SOLV.lig_0>
-48.3454

>  <SCORE.INTRA.VDW>
0

>  <SCORE.INTRA.VDW.0>
0

>  <SCORE.INTRA.norm>
0

>  <SCORE.RESTR>
0

>  <SCORE.RESTR.CAVITY>
0

>  <SCORE.RESTR.norm>
0

>  <SCORE.SYSTEM>
0

>  <SCORE.SYSTEM.CONST>
0

>  <SCORE.SYSTEM.DIHEDRAL>
0

>  <SCORE.SYSTEM.SOLV>
0

>  <SCORE.SYSTEM.norm>
0

>  <SCORE.heavy>
11

>  <SCORE.norm>
-0.625584

>  <RMSD>
11.498

$$$$
ligand
 OpenBabel01301917033D
libRbt.so/2013.1/901 2013/11/27
 11 12  0  0  0  0  0  0  0  0999 V2000
  -17.9818  -23.1285    8.8076 N   0  0  0  0  0  0  0  0  0  0  0  0
  -18.5699  -22.7823    9.9639 C   0  0  0  0  0  0  0  0  0  0  0  0
  -18.2135  -23.3877   11.0932 N   0  0  0  0  0  0  0  0  0  0  0  0
  -19.5225  -21.8373    9.9890 N   0  0  0  0  0  0  0  0  0  0  0  0
  -19.9074  -21.2230    8.8606 C   0  0  0  0  0  0  0  0  0  0  0  0
  -19.3153  -21.5623    7.6507 C   0  0  0  0  0  0  0  0  0  0  0  0
  -18.3287  -22.5428    7.6505 C   0  0  0  0  0  0  0  0  0  0  0  0
  -17.7288  -22.8916    6.5163 N   0  0  0  0  0  0  0  0  0  0  0  0
  -19.8858  -20.8225    6.7045 N   0  0  0  0  0  0  0  0  0  0  0  0
  -20.7990  -20.0491    7.2876 C   0  0  0  0  0  0  0  0  0  0  0  0
  -20.8159  -20.2881    8.5972 N   0  0  0  0  0  0  0  0  0  0  0  0
  1  7  2  0  0  0  0
  1  2  1  0  0  0  0
  2  3  1  0  0  0  0
  2  4  2  0  0  0  0
  4  5  1  0  0  0  0
  5  6  2  0  0  0  0
  5 11  1  0  0  0  0
  6  7  1  0  0  0  0
  6  9  1  0  0  0  0
  7  8  1  0  0  0  0
  9 10  1  0  0  0  0
 10 11  2  0  0  0  0
M  END
>  <CHROM.1>
-19.17447160,-21.88115449,8.47820717,-0.81959586,0.76732680,-1.36613057

>  <Name>
ligand

>  <RI>
0

>  <Rbt.Current_Directory>
/home/itssahil/PROJECTS/Mol_Feturizer/New_Systems/rnas/2b57

>  <Rbt.Executable>
rbdock ($Id: //depot/dev/client3/rdock/2013.1/src/exe/rbdock.cxx#4 $)

>  <Rbt.Library>
libRbt.so (2013.1, Build901 2013/11/27)

>  <Rbt.Parameter_File>
/export/apps/rDock/src/rDock_2013.1_src/data/scripts/dock_solv.prm

>  <Rbt.Receptor>
prm/blind_docking_40.prm

>  <SCORE>
-6.02628

>  <SCORE.INTER>
-6.02628

>  <SCORE.INTER.CONST>
1

>  <SCORE.INTER.POLAR>
0

>  <SCORE.INTER.ROT>
0

>  <SCORE.INTER.SOLV>
8.90052

>  <SCORE.INTER.VDW>
-10.5844

>  <SCORE.INTER.norm>
-0.547844

>  <SCORE.INTRA>
0

>  <SCORE.INTRA.DIHEDRAL>
0

>  <SCORE.INTRA.DIHEDRAL.0>
0

>  <SCORE.INTRA.POLAR>
0

>  <SCORE.INTRA.POLAR.0>
0

>  <SCORE.INTRA.REPUL>
0

>  <SCORE.INTRA.REPUL.0>
0

>  <SCORE.INTRA.SOLV>
0

>  <SCORE.INTRA.SOLV.lig_0>
-48.3454

>  <SCORE.INTRA.VDW>
0

>  <SCORE.INTRA.VDW.0>
0

>  <SCORE.INTRA.norm>
0

>  <SCORE.RESTR>
0

>  <SCORE.RESTR.CAVITY>
0

>  <SCORE.RESTR.norm>
0

>  <SCORE.SYSTEM>
0

>  <SCORE.SYSTEM.CONST>
0

>  <SCORE.SYSTEM.DIHEDRAL>
0

>  <SCORE.SYSTEM.SOLV>
0

>  <SCORE.SYSTEM.norm>
0

>  <SCORE.heavy>
11

>  <SCORE.norm>
-0.547844

>  <RMSD>
11.887

$$$$
ligand
 OpenBabel01301917033D
libRbt.so/2013.1/901 2013/11/27
 11 12  0  0  0  0  0  0  0  0999 V2000
  -18.3459  -23.1159    9.5987 N   0  0  0  0  0  0  0  0  0  0  0  0
  -19.1107  -22.6000   10.5742 C   0  0  0  0  0  0  0  0  0  0  0  0
  -19.0084  -23.0724   11.8133 N   0  0  0  0  0  0  0  0  0  0  0  0
  -19.9859  -21.6180   10.3081 N   0  0  0  0  0  0  0  0  0  0  0  0
  -20.1157  -21.1354    9.0634 C   0  0  0  0  0  0  0  0  0  0  0  0
  -19.3366  -21.6515    8.0357 C   0  0  0  0  0  0  0  0  0  0  0  0
  -18.4350  -22.6670    8.3368 C   0  0  0  0  0  0  0  0  0  0  0  0
  -17.6628  -23.1832    7.3853 N   0  0  0  0  0  0  0  0  0  0  0  0
  -19.6734  -21.0131    6.9190 N   0  0  0  0  0  0  0  0  0  0  0  0
  -20.6235  -20.1321    7.2241 C   0  0  0  0  0  0  0  0  0  0  0  0
  -20.8956  -20.2020    8.5255 N   0  0  0  0  0  0  0  0  0  0  0  0
  1  7  2  0  0  0  0
  1  2  1  0  0  0  0
  2  3  1  0  0  0  0
  2  4  2  0  0  0  0
  4  5  1  0  0  0  0
  5  6  2  0  0  0  0
  5 11  1  0  0  0  0
  6  7  1  0  0  0  0
  6  9  1  0  0  0  0
  7  8  1  0  0  0  0
  9 10  1  0  0  0  0
 10 11  2  0  0  0  0
M  END
>  <CHROM.1>
-19.37130501,-21.86866962,8.90625720,-1.09346927,0.77777934,-1.29746893

>  <Name>
ligand

>  <RI>
0

>  <Rbt.Current_Directory>
/home/itssahil/PROJECTS/Mol_Feturizer/New_Systems/rnas/2b57

>  <Rbt.Executable>
rbdock ($Id: //depot/dev/client3/rdock/2013.1/src/exe/rbdock.cxx#4 $)

>  <Rbt.Library>
libRbt.so (2013.1, Build901 2013/11/27)

>  <Rbt.Parameter_File>
/export/apps/rDock/src/rDock_2013.1_src/data/scripts/dock_solv.prm

>  <Rbt.Receptor>
prm/blind_docking_60.prm

>  <SCORE>
-6.00517

>  <SCORE.INTER>
-6.00517

>  <SCORE.INTER.CONST>
1

>  <SCORE.INTER.POLAR>
0

>  <SCORE.INTER.ROT>
0

>  <SCORE.INTER.SOLV>
8.12981

>  <SCORE.INTER.VDW>
-10.3134

>  <SCORE.INTER.norm>
-0.545924

>  <SCORE.INTRA>
0

>  <SCORE.INTRA.DIHEDRAL>
0

>  <SCORE.INTRA.DIHEDRAL.0>
0

>  <SCORE.INTRA.POLAR>
0

>  <SCORE.INTRA.POLAR.0>
0

>  <SCORE.INTRA.REPUL>
0

>  <SCORE.INTRA.REPUL.0>
0

>  <SCORE.INTRA.SOLV>
0

>  <SCORE.INTRA.SOLV.lig_0>
-48.3454

>  <SCORE.INTRA.VDW>
0

>  <SCORE.INTRA.VDW.0>
0

>  <SCORE.INTRA.norm>
0

>  <SCORE.RESTR>
0

>  <SCORE.RESTR.CAVITY>
0

>  <SCORE.RESTR.norm>
0

>  <SCORE.SYSTEM>
0

>  <SCORE.SYSTEM.CONST>
0

>  <SCORE.SYSTEM.DIHEDRAL>
0

>  <SCORE.SYSTEM.SOLV>
0

>  <SCORE.SYSTEM.norm>
0

>  <SCORE.heavy>
11

>  <SCORE.norm>
-0.545924

>  <RMSD>
12.013

$$$$
ligand
 OpenBabel01301917033D
libRbt.so/2013.1/901 2013/11/27
 11 12  0  0  0  0  0  0  0  0999 V2000
  -17.6787  -23.9147    8.3554 N   0  0  0  0  0  0  0  0  0  0  0  0
  -17.3198  -23.5162    7.1244 C   0  0  0  0  0  0  0  0  0  0  0  0
  -16.4084  -24.2076    6.4460 N   0  0  0  0  0  0  0  0  0  0  0  0
  -17.8654  -22.4196    6.5759 N   0  0  0  0  0  0  0  0  0  0  0  0
  -18.7764  -21.6993    7.2468 C   0  0  0  0  0  0  0  0  0  0  0  0
  -19.1653  -22.0894    8.5220 C   0  0  0  0  0  0  0  0  0  0  0  0
  -18.5876  -23.2308    9.0682 C   0  0  0  0  0  0  0  0  0  0  0  0
  -18.9380  -23.6455   10.2820 N   0  0  0  0  0  0  0  0  0  0  0  0
  -20.0557  -21.2031    8.9575 N   0  0  0  0  0  0  0  0  0  0  0  0
  -20.2238  -20.2916    8.0021 C   0  0  0  0  0  0  0  0  0  0  0  0
  -19.4494  -20.5885    6.9607 N   0  0  0  0  0  0  0  0  0  0  0  0
  1  7  2  0  0  0  0
  1  2  1  0  0  0  0
  2  3  1  0  0  0  0
  2  4  2  0  0  0  0
  4  5  1  0  0  0  0
  5  6  2  0  0  0  0
  5 11  1  0  0  0  0
  6  7  1  0  0  0  0
  6  9  1  0  0  0  0
  7  8  1  0  0  0  0
  9 10  1  0  0  0  0
 10 11  2  0  0  0  0
M  END
>  <CHROM.1>
-18.57236142,-22.45575996,7.95587907,0.24596300,-0.82039888,2.19165224

>  <Name>
ligand

>  <RI>
0

>  <Rbt.Current_Directory>
/home/itssahil/PROJECTS/Mol_Feturizer/New_Systems/rnas/2b57

>  <Rbt.Executable>
rbdock ($Id: //depot/dev/client3/rdock/2013.1/src/exe/rbdock.cxx#4 $)

>  <Rbt.Library>
libRbt.so (2013.1, Build901 2013/11/27)

>  <Rbt.Parameter_File>
/export/apps/rDock/src/rDock_2013.1_src/data/scripts/dock_solv.prm

>  <Rbt.Receptor>
prm/blind_docking_40.prm

>  <SCORE>
-6.47302

>  <SCORE.INTER>
-6.47302

>  <SCORE.INTER.CONST>
1

>  <SCORE.INTER.POLAR>
0

>  <SCORE.INTER.ROT>
0

>  <SCORE.INTER.SOLV>
2.80912

>  <SCORE.INTER.VDW>
-8.85172

>  <SCORE.INTER.norm>
-0.588456

>  <SCORE.INTRA>
0

>  <SCORE.INTRA.DIHEDRAL>
0

>  <SCORE.INTRA.DIHEDRAL.0>
0

>  <SCORE.INTRA.POLAR>
0

>  <SCORE.INTRA.POLAR.0>
0

>  <SCORE.INTRA.REPUL>
0

>  <SCORE.INTRA.REPUL.0>
0

>  <SCORE.INTRA.SOLV>
0

>  <SCORE.INTRA.SOLV.lig_0>
-48.3454

>  <SCORE.INTRA.VDW>
0

>  <SCORE.INTRA.VDW.0>
0

>  <SCORE.INTRA.norm>
0

>  <SCORE.RESTR>
0

>  <SCORE.RESTR.CAVITY>
0

>  <SCORE.RESTR.norm>
0

>  <SCORE.SYSTEM>
0

>  <SCORE.SYSTEM.CONST>
0

>  <SCORE.SYSTEM.DIHEDRAL>
0

>  <SCORE.SYSTEM.SOLV>
0

>  <SCORE.SYSTEM.norm>
0

>  <SCORE.heavy>
11

>  <SCORE.norm>
-0.588456

>  <RMSD>
12.084

$$$$
ligand
 OpenBabel01301917033D
libRbt.so/2013.1/901 2013/11/27
 11 12  0  0  0  0  0  0  0  0999 V2000
  -18.4916  -23.6604    9.6048 N   0  0  0  0  0  0  0  0  0  0  0  0
  -17.8249  -23.6909    8.4398 C   0  0  0  0  0  0  0  0  0  0  0  0
  -16.9256  -24.6454    8.2183 N   0  0  0  0  0  0  0  0  0  0  0  0
  -18.0504  -22.7599    7.4998 N   0  0  0  0  0  0  0  0  0  0  0  0
  -18.9427  -21.7802    7.7066 C   0  0  0  0  0  0  0  0  0  0  0  0
  -19.6461  -21.7253    8.9032 C   0  0  0  0  0  0  0  0  0  0  0  0
  -19.3969  -22.7028    9.8609 C   0  0  0  0  0  0  0  0  0  0  0  0
  -20.0547  -22.6938   11.0165 N   0  0  0  0  0  0  0  0  0  0  0  0
  -20.4419  -20.6614    8.8511 N   0  0  0  0  0  0  0  0  0  0  0  0
  -20.2518  -20.0677    7.6750 C   0  0  0  0  0  0  0  0  0  0  0  0
  -19.3425  -20.7435    6.9757 N   0  0  0  0  0  0  0  0  0  0  0  0
  1  7  2  0  0  0  0
  1  2  1  0  0  0  0
  2  3  1  0  0  0  0
  2  4  2  0  0  0  0
  4  5  1  0  0  0  0
  5  6  2  0  0  0  0
  5 11  1  0  0  0  0
  6  7  1  0  0  0  0
  6  9  1  0  0  0  0
  7  8  1  0  0  0  0
  9 10  1  0  0  0  0
 10 11  2  0  0  0  0
M  END
>  <CHROM.1>
-19.02116460,-22.30483951,8.62046868,0.63910528,-0.80128041,2.18378432

>  <Name>
ligand

>  <RI>
0

>  <Rbt.Current_Directory>
/home/itssahil/PROJECTS/Mol_Feturizer/New_Systems/rnas/2b57

>  <Rbt.Executable>
rbdock ($Id: //depot/dev/client3/rdock/2013.1/src/exe/rbdock.cxx#4 $)

>  <Rbt.Library>
libRbt.so (2013.1, Build901 2013/11/27)

>  <Rbt.Parameter_File>
/export/apps/rDock/src/rDock_2013.1_src/data/scripts/dock_solv.prm

>  <Rbt.Receptor>
prm/blind_docking_80.prm

>  <SCORE>
-6.30266

>  <SCORE.INTER>
-6.30266

>  <SCORE.INTER.CONST>
1

>  <SCORE.INTER.POLAR>
0

>  <SCORE.INTER.ROT>
0

>  <SCORE.INTER.SOLV>
3.16141

>  <SCORE.INTER.VDW>
-8.85557

>  <SCORE.INTER.norm>
-0.572969

>  <SCORE.INTRA>
0

>  <SCORE.INTRA.DIHEDRAL>
0

>  <SCORE.INTRA.DIHEDRAL.0>
0

>  <SCORE.INTRA.POLAR>
0

>  <SCORE.INTRA.POLAR.0>
0

>  <SCORE.INTRA.REPUL>
0

>  <SCORE.INTRA.REPUL.0>
0

>  <SCORE.INTRA.SOLV>
0

>  <SCORE.INTRA.SOLV.lig_0>
-48.3454

>  <SCORE.INTRA.VDW>
0

>  <SCORE.INTRA.VDW.0>
0

>  <SCORE.INTRA.norm>
0

>  <SCORE.RESTR>
0

>  <SCORE.RESTR.CAVITY>
0

>  <SCORE.RESTR.norm>
0

>  <SCORE.SYSTEM>
0

>  <SCORE.SYSTEM.CONST>
0

>  <SCORE.SYSTEM.DIHEDRAL>
0

>  <SCORE.SYSTEM.SOLV>
0

>  <SCORE.SYSTEM.norm>
0

>  <SCORE.heavy>
11

>  <SCORE.norm>
-0.572969

>  <RMSD>
12.126

$$$$
ligand
 OpenBabel01301917033D
libRbt.so/2013.1/901 2013/11/27
 11 12  0  0  0  0  0  0  0  0999 V2000
  -18.6474  -23.6835   10.2352 N   0  0  0  0  0  0  0  0  0  0  0  0
  -19.4404  -22.9715   11.0518 C   0  0  0  0  0  0  0  0  0  0  0  0
  -19.6543  -23.3909   12.2957 N   0  0  0  0  0  0  0  0  0  0  0  0
  -20.0281  -21.8446   10.6208 N   0  0  0  0  0  0  0  0  0  0  0  0
  -19.8376  -21.4097    9.3664 C   0  0  0  0  0  0  0  0  0  0  0  0
  -19.0219  -22.1275    8.5008 C   0  0  0  0  0  0  0  0  0  0  0  0
  -18.4219  -23.2908    8.9715 C   0  0  0  0  0  0  0  0  0  0  0  0
  -17.6260  -24.0034    8.1798 N   0  0  0  0  0  0  0  0  0  0  0  0
  -19.0192  -21.4911    7.3334 N   0  0  0  0  0  0  0  0  0  0  0  0
  -19.7983  -20.4183    7.4525 C   0  0  0  0  0  0  0  0  0  0  0  0
  -20.2974  -20.3639    8.6855 N   0  0  0  0  0  0  0  0  0  0  0  0
  1  7  2  0  0  0  0
  1  2  1  0  0  0  0
  2  3  1  0  0  0  0
  2  4  2  0  0  0  0
  4  5  1  0  0  0  0
  5  6  2  0  0  0  0
  5 11  1  0  0  0  0
  6  7  1  0  0  0  0
  6  9  1  0  0  0  0
  7  8  1  0  0  0  0
  9 10  1  0  0  0  0
 10 11  2  0  0  0  0
M  END
>  <CHROM.1>
-19.25037950,-22.28812745,9.35426798,-1.46245086,0.90755795,-1.05309401

>  <Name>
ligand

>  <RI>
0

>  <Rbt.Current_Directory>
/home/itssahil/PROJECTS/Mol_Feturizer/New_Systems/rnas/2b57

>  <Rbt.Executable>
rbdock ($Id: //depot/dev/client3/rdock/2013.1/src/exe/rbdock.cxx#4 $)

>  <Rbt.Library>
libRbt.so (2013.1, Build901 2013/11/27)

>  <Rbt.Parameter_File>
/export/apps/rDock/src/rDock_2013.1_src/data/scripts/dock_solv.prm

>  <Rbt.Receptor>
prm/blind_docking_60.prm

>  <SCORE>
-6.3955

>  <SCORE.INTER>
-6.3955

>  <SCORE.INTER.CONST>
1

>  <SCORE.INTER.POLAR>
0

>  <SCORE.INTER.ROT>
0

>  <SCORE.INTER.SOLV>
3.64326

>  <SCORE.INTER.VDW>
-9.07809

>  <SCORE.INTER.norm>
-0.581409

>  <SCORE.INTRA>
0

>  <SCORE.INTRA.DIHEDRAL>
0

>  <SCORE.INTRA.DIHEDRAL.0>
0

>  <SCORE.INTRA.POLAR>
0

>  <SCORE.INTRA.POLAR.0>
0

>  <SCORE.INTRA.REPUL>
0

>  <SCORE.INTRA.REPUL.0>
0

>  <SCORE.INTRA.SOLV>
0

>  <SCORE.INTRA.SOLV.lig_0>
-48.3454

>  <SCORE.INTRA.VDW>
0

>  <SCORE.INTRA.VDW.0>
0

>  <SCORE.INTRA.norm>
0

>  <SCORE.RESTR>
0

>  <SCORE.RESTR.CAVITY>
0

>  <SCORE.RESTR.norm>
0

>  <SCORE.SYSTEM>
0

>  <SCORE.SYSTEM.CONST>
0

>  <SCORE.SYSTEM.DIHEDRAL>
0

>  <SCORE.SYSTEM.SOLV>
0

>  <SCORE.SYSTEM.norm>
0

>  <SCORE.heavy>
11

>  <SCORE.norm>
-0.581409

>  <RMSD>
12.280

$$$$
ligand
 OpenBabel01301917033D
libRbt.so/2013.1/901 2013/11/27
 11 12  0  0  0  0  0  0  0  0999 V2000
  -18.6997  -23.6842   10.2515 N   0  0  0  0  0  0  0  0  0  0  0  0
  -19.4666  -22.9419   11.0661 C   0  0  0  0  0  0  0  0  0  0  0  0
  -19.6876  -23.3452   12.3141 N   0  0  0  0  0  0  0  0  0  0  0  0
  -20.0213  -21.8007   10.6289 N   0  0  0  0  0  0  0  0  0  0  0  0
  -19.8232  -21.3814    9.3704 C   0  0  0  0  0  0  0  0  0  0  0  0
  -19.0341  -22.1306    8.5069 C   0  0  0  0  0  0  0  0  0  0  0  0
  -18.4681  -23.3082    8.9838 C   0  0  0  0  0  0  0  0  0  0  0  0
  -17.6982  -24.0510    8.1941 N   0  0  0  0  0  0  0  0  0  0  0  0
  -19.0172  -21.5034    7.3345 N   0  0  0  0  0  0  0  0  0  0  0  0
  -19.7622  -20.4061    7.4488 C   0  0  0  0  0  0  0  0  0  0  0  0
  -20.2537  -20.3271    8.6836 N   0  0  0  0  0  0  0  0  0  0  0  0
  1  7  2  0  0  0  0
  1  2  1  0  0  0  0
  2  3  1  0  0  0  0
  2  4  2  0  0  0  0
  4  5  1  0  0  0  0
  5  6  2  0  0  0  0
  5 11  1  0  0  0  0
  6  7  1  0  0  0  0
  6  9  1  0  0  0  0
  7  8  1  0  0  0  0
  9 10  1  0  0  0  0
 10 11  2  0  0  0  0
M  END
>  <CHROM.1>
-19.26345237,-22.27759813,9.36248887,-1.48144501,0.93657107,-1.04557939

>  <Name>
ligand

>  <RI>
0

>  <Rbt.Current_Directory>
/home/itssahil/PROJECTS/Mol_Feturizer/New_Systems/rnas/2b57

>  <Rbt.Executable>
rbdock ($Id: //depot/dev/client3/rdock/2013.1/src/exe/rbdock.cxx#4 $)

>  <Rbt.Library>
libRbt.so (2013.1, Build901 2013/11/27)

>  <Rbt.Parameter_File>
/export/apps/rDock/src/rDock_2013.1_src/data/scripts/dock_solv.prm

>  <Rbt.Receptor>
prm/blind_docking_80.prm

>  <SCORE>
-6.37092

>  <SCORE.INTER>
-6.37092

>  <SCORE.INTER.CONST>
1

>  <SCORE.INTER.POLAR>
0

>  <SCORE.INTER.ROT>
0

>  <SCORE.INTER.SOLV>
3.5885

>  <SCORE.INTER.VDW>
-9.04345

>  <SCORE.INTER.norm>
-0.579175

>  <SCORE.INTRA>
0

>  <SCORE.INTRA.DIHEDRAL>
0

>  <SCORE.INTRA.DIHEDRAL.0>
0

>  <SCORE.INTRA.POLAR>
0

>  <SCORE.INTRA.POLAR.0>
0

>  <SCORE.INTRA.REPUL>
0

>  <SCORE.INTRA.REPUL.0>
0

>  <SCORE.INTRA.SOLV>
0

>  <SCORE.INTRA.SOLV.lig_0>
-48.3454

>  <SCORE.INTRA.VDW>
0

>  <SCORE.INTRA.VDW.0>
0

>  <SCORE.INTRA.norm>
0

>  <SCORE.RESTR>
0

>  <SCORE.RESTR.CAVITY>
0

>  <SCORE.RESTR.norm>
0

>  <SCORE.SYSTEM>
0

>  <SCORE.SYSTEM.CONST>
0

>  <SCORE.SYSTEM.DIHEDRAL>
0

>  <SCORE.SYSTEM.SOLV>
0

>  <SCORE.SYSTEM.norm>
0

>  <SCORE.heavy>
11

>  <SCORE.norm>
-0.579175

>  <RMSD>
12.281

$$$$
ligand
 OpenBabel01301917033D
libRbt.so/2013.1/901 2013/11/27
 11 12  0  0  0  0  0  0  0  0999 V2000
  -18.6736  -23.6942   10.2410 N   0  0  0  0  0  0  0  0  0  0  0  0
  -19.4764  -22.9843   11.0499 C   0  0  0  0  0  0  0  0  0  0  0  0
  -19.7070  -23.4081   12.2893 N   0  0  0  0  0  0  0  0  0  0  0  0
  -20.0572  -21.8551   10.6154 N   0  0  0  0  0  0  0  0  0  0  0  0
  -19.8499  -21.4158    9.3652 C   0  0  0  0  0  0  0  0  0  0  0  0
  -19.0238  -22.1313    8.5077 C   0  0  0  0  0  0  0  0  0  0  0  0
  -18.4313  -23.2970    8.9818 C   0  0  0  0  0  0  0  0  0  0  0  0
  -17.6258  -24.0076    8.1979 N   0  0  0  0  0  0  0  0  0  0  0  0
  -19.0052  -21.4906    7.3428 N   0  0  0  0  0  0  0  0  0  0  0  0
  -19.7845  -20.4174    7.4557 C   0  0  0  0  0  0  0  0  0  0  0  0
  -20.2997  -20.3670    8.6823 N   0  0  0  0  0  0  0  0  0  0  0  0
  1  7  2  0  0  0  0
  1  2  1  0  0  0  0
  2  3  1  0  0  0  0
  2  4  2  0  0  0  0
  4  5  1  0  0  0  0
  5  6  2  0  0  0  0
  5 11  1  0  0  0  0
  6  7  1  0  0  0  0
  6  9  1  0  0  0  0
  7  8  1  0  0  0  0
  9 10  1  0  0  0  0
 10 11  2  0  0  0  0
M  END
>  <CHROM.1>
-19.26356301,-22.29486517,9.35750100,-1.48159736,0.90196483,-1.03433806

>  <Name>
ligand

>  <RI>
0

>  <Rbt.Current_Directory>
/home/itssahil/PROJECTS/Mol_Feturizer/New_Systems/rnas/2b57

>  <Rbt.Executable>
rbdock ($Id: //depot/dev/client3/rdock/2013.1/src/exe/rbdock.cxx#4 $)

>  <Rbt.Library>
libRbt.so (2013.1, Build901 2013/11/27)

>  <Rbt.Parameter_File>
/export/apps/rDock/src/rDock_2013.1_src/data/scripts/dock_solv.prm

>  <Rbt.Receptor>
prm/blind_docking_40.prm

>  <SCORE>
-6.39822

>  <SCORE.INTER>
-6.39822

>  <SCORE.INTER.CONST>
1

>  <SCORE.INTER.POLAR>
0

>  <SCORE.INTER.ROT>
0

>  <SCORE.INTER.SOLV>
3.49856

>  <SCORE.INTER.VDW>
-9.03167

>  <SCORE.INTER.norm>
-0.581656

>  <SCORE.INTRA>
0

>  <SCORE.INTRA.DIHEDRAL>
0

>  <SCORE.INTRA.DIHEDRAL.0>
0

>  <SCORE.INTRA.POLAR>
0

>  <SCORE.INTRA.POLAR.0>
0

>  <SCORE.INTRA.REPUL>
0

>  <SCORE.INTRA.REPUL.0>
0

>  <SCORE.INTRA.SOLV>
0

>  <SCORE.INTRA.SOLV.lig_0>
-48.3454

>  <SCORE.INTRA.VDW>
0

>  <SCORE.INTRA.VDW.0>
0

>  <SCORE.INTRA.norm>
0

>  <SCORE.RESTR>
0

>  <SCORE.RESTR.CAVITY>
0

>  <SCORE.RESTR.norm>
0

>  <SCORE.SYSTEM>
0

>  <SCORE.SYSTEM.CONST>
0

>  <SCORE.SYSTEM.DIHEDRAL>
0

>  <SCORE.SYSTEM.SOLV>
0

>  <SCORE.SYSTEM.norm>
0

>  <SCORE.heavy>
11

>  <SCORE.norm>
-0.581656

>  <RMSD>
12.293

$$$$
ligand
 OpenBabel01301917033D
libRbt.so/2013.1/901 2013/11/27
 11 12  0  0  0  0  0  0  0  0999 V2000
  -18.6863  -23.6875   10.2428 N   0  0  0  0  0  0  0  0  0  0  0  0
  -19.4856  -22.9737   11.0517 C   0  0  0  0  0  0  0  0  0  0  0  0
  -19.7160  -23.3950   12.2920 N   0  0  0  0  0  0  0  0  0  0  0  0
  -20.0630  -21.8431   10.6164 N   0  0  0  0  0  0  0  0  0  0  0  0
  -19.8557  -21.4063    9.3654 C   0  0  0  0  0  0  0  0  0  0  0  0
  -19.0333  -22.1259    8.5078 C   0  0  0  0  0  0  0  0  0  0  0  0
  -18.4442  -23.2930    8.9828 C   0  0  0  0  0  0  0  0  0  0  0  0
  -17.6423  -24.0074    8.1988 N   0  0  0  0  0  0  0  0  0  0  0  0
  -19.0139  -21.4868    7.3419 N   0  0  0  0  0  0  0  0  0  0  0  0
  -19.7894  -20.4107    7.4544 C   0  0  0  0  0  0  0  0  0  0  0  0
  -20.3028  -20.3568    8.6816 N   0  0  0  0  0  0  0  0  0  0  0  0
  1  7  2  0  0  0  0
  1  2  1  0  0  0  0
  2  3  1  0  0  0  0
  2  4  2  0  0  0  0
  4  5  1  0  0  0  0
  5  6  2  0  0  0  0
  5 11  1  0  0  0  0
  6  7  1  0  0  0  0
  6  9  1  0  0  0  0
  7  8  1  0  0  0  0
  9 10  1  0  0  0  0
 10 11  2  0  0  0  0
M  END
>  <CHROM.1>
-19.27249854,-22.28738281,9.35811200,-1.48269086,0.90563221,-1.03484760

>  <Name>
ligand

>  <RI>
0

>  <Rbt.Current_Directory>
/home/itssahil/PROJECTS/Mol_Feturizer/New_Systems/rnas/2b57

>  <Rbt.Executable>
rbdock ($Id: //depot/dev/client3/rdock/2013.1/src/exe/rbdock.cxx#4 $)

>  <Rbt.Library>
libRbt.so (2013.1, Build901 2013/11/27)

>  <Rbt.Parameter_File>
/export/apps/rDock/src/rDock_2013.1_src/data/scripts/dock_solv.prm

>  <Rbt.Receptor>
prm/blind_docking_60.prm

>  <SCORE>
-6.39377

>  <SCORE.INTER>
-6.39377

>  <SCORE.INTER.CONST>
1

>  <SCORE.INTER.POLAR>
0

>  <SCORE.INTER.ROT>
0

>  <SCORE.INTER.SOLV>
3.52884

>  <SCORE.INTER.VDW>
-9.03879

>  <SCORE.INTER.norm>
-0.581252

>  <SCORE.INTRA>
0

>  <SCORE.INTRA.DIHEDRAL>
0

>  <SCORE.INTRA.DIHEDRAL.0>
0

>  <SCORE.INTRA.POLAR>
0

>  <SCORE.INTRA.POLAR.0>
0

>  <SCORE.INTRA.REPUL>
0

>  <SCORE.INTRA.REPUL.0>
0

>  <SCORE.INTRA.SOLV>
0

>  <SCORE.INTRA.SOLV.lig_0>
-48.3454

>  <SCORE.INTRA.VDW>
0

>  <SCORE.INTRA.VDW.0>
0

>  <SCORE.INTRA.norm>
0

>  <SCORE.RESTR>
0

>  <SCORE.RESTR.CAVITY>
0

>  <SCORE.RESTR.norm>
0

>  <SCORE.SYSTEM>
0

>  <SCORE.SYSTEM.CONST>
0

>  <SCORE.SYSTEM.DIHEDRAL>
0

>  <SCORE.SYSTEM.SOLV>
0

>  <SCORE.SYSTEM.norm>
0

>  <SCORE.heavy>
11

>  <SCORE.norm>
-0.581252

>  <RMSD>
12.293

$$$$
ligand
 OpenBabel01301917033D
libRbt.so/2013.1/901 2013/11/27
 11 12  0  0  0  0  0  0  0  0999 V2000
  -18.7067  -23.6873   10.2624 N   0  0  0  0  0  0  0  0  0  0  0  0
  -19.5191  -22.9690   11.0541 C   0  0  0  0  0  0  0  0  0  0  0  0
  -19.7718  -23.3846   12.2920 N   0  0  0  0  0  0  0  0  0  0  0  0
  -20.0875  -21.8397   10.6038 N   0  0  0  0  0  0  0  0  0  0  0  0
  -19.8578  -21.4086    9.3546 C   0  0  0  0  0  0  0  0  0  0  0  0
  -19.0213  -22.1329    8.5148 C   0  0  0  0  0  0  0  0  0  0  0  0
  -18.4421  -23.2986    9.0051 C   0  0  0  0  0  0  0  0  0  0  0  0
  -17.6274  -24.0174    8.2385 N   0  0  0  0  0  0  0  0  0  0  0  0
  -18.9807  -21.4990    7.3467 N   0  0  0  0  0  0  0  0  0  0  0  0
  -19.7567  -20.4215    7.4408 C   0  0  0  0  0  0  0  0  0  0  0  0
  -20.2914  -20.3616    8.6586 N   0  0  0  0  0  0  0  0  0  0  0  0
  1  7  2  0  0  0  0
  1  2  1  0  0  0  0
  2  3  1  0  0  0  0
  2  4  2  0  0  0  0
  4  5  1  0  0  0  0
  5  6  2  0  0  0  0
  5 11  1  0  0  0  0
  6  7  1  0  0  0  0
  6  9  1  0  0  0  0
  7  8  1  0  0  0  0
  9 10  1  0  0  0  0
 10 11  2  0  0  0  0
M  END
>  <CHROM.1>
-19.27557012,-22.29038506,9.36147407,-1.50788341,0.89759546,-1.01948779

>  <Name>
ligand

>  <RI>
0

>  <Rbt.Current_Directory>
/home/itssahil/PROJECTS/Mol_Feturizer/New_Systems/rnas/2b57

>  <Rbt.Executable>
rbdock ($Id: //depot/dev/client3/rdock/2013.1/src/exe/rbdock.cxx#4 $)

>  <Rbt.Library>
libRbt.so (2013.1, Build901 2013/11/27)

>  <Rbt.Parameter_File>
/export/apps/rDock/src/rDock_2013.1_src/data/scripts/dock_solv.prm

>  <Rbt.Receptor>
prm/blind_docking_40.prm

>  <SCORE>
-6.38566

>  <SCORE.INTER>
-6.38566

>  <SCORE.INTER.CONST>
1

>  <SCORE.INTER.POLAR>
0

>  <SCORE.INTER.ROT>
0

>  <SCORE.INTER.SOLV>
3.48413

>  <SCORE.INTER.VDW>
-9.01848

>  <SCORE.INTER.norm>
-0.580515

>  <SCORE.INTRA>
0

>  <SCORE.INTRA.DIHEDRAL>
0

>  <SCORE.INTRA.DIHEDRAL.0>
0

>  <SCORE.INTRA.POLAR>
0

>  <SCORE.INTRA.POLAR.0>
0

>  <SCORE.INTRA.REPUL>
0

>  <SCORE.INTRA.REPUL.0>
0

>  <SCORE.INTRA.SOLV>
0

>  <SCORE.INTRA.SOLV.lig_0>
-48.3454

>  <SCORE.INTRA.VDW>
0

>  <SCORE.INTRA.VDW.0>
0

>  <SCORE.INTRA.norm>
0

>  <SCORE.RESTR>
0

>  <SCORE.RESTR.CAVITY>
0

>  <SCORE.RESTR.norm>
0

>  <SCORE.SYSTEM>
0

>  <SCORE.SYSTEM.CONST>
0

>  <SCORE.SYSTEM.DIHEDRAL>
0

>  <SCORE.SYSTEM.SOLV>
0

>  <SCORE.SYSTEM.norm>
0

>  <SCORE.heavy>
11

>  <SCORE.norm>
-0.580515

>  <RMSD>
12.297

$$$$
ligand
 OpenBabel01301917033D
libRbt.so/2013.1/901 2013/11/27
 11 12  0  0  0  0  0  0  0  0999 V2000
  -21.4147  -22.7084   10.6577 N   0  0  0  0  0  0  0  0  0  0  0  0
  -20.0989  -22.4573   10.7497 C   0  0  0  0  0  0  0  0  0  0  0  0
  -19.3743  -23.0653   11.6846 N   0  0  0  0  0  0  0  0  0  0  0  0
  -19.5095  -21.5896    9.9125 N   0  0  0  0  0  0  0  0  0  0  0  0
  -20.2229  -20.9547    8.9708 C   0  0  0  0  0  0  0  0  0  0  0  0
  -21.5859  -21.1961    8.8541 C   0  0  0  0  0  0  0  0  0  0  0  0
  -22.1735  -22.1015    9.7315 C   0  0  0  0  0  0  0  0  0  0  0  0
  -23.4733  -22.3696    9.6489 N   0  0  0  0  0  0  0  0  0  0  0  0
  -22.0438  -20.4354    7.8643 N   0  0  0  0  0  0  0  0  0  0  0  0
  -21.0179  -19.7422    7.3754 C   0  0  0  0  0  0  0  0  0  0  0  0
  -19.9095  -20.0542    8.0436 N   0  0  0  0  0  0  0  0  0  0  0  0
  1  7  2  0  0  0  0
  1  2  1  0  0  0  0
  2  3  1  0  0  0  0
  2  4  2  0  0  0  0
  4  5  1  0  0  0  0
  5  6  2  0  0  0  0
  5 11  1  0  0  0  0
  6  7  1  0  0  0  0
  6  9  1  0  0  0  0
  7  8  1  0  0  0  0
  9 10  1  0  0  0  0
 10 11  2  0  0  0  0
M  END
>  <CHROM.1>
-20.98154564,-21.53145991,9.42732328,1.33871778,0.19125413,2.28645173

>  <Name>
ligand

>  <RI>
0

>  <Rbt.Current_Directory>
/home/itssahil/PROJECTS/Mol_Feturizer/New_Systems/rnas/2b57

>  <Rbt.Executable>
rbdock ($Id: //depot/dev/client3/rdock/2013.1/src/exe/rbdock.cxx#4 $)

>  <Rbt.Library>
libRbt.so (2013.1, Build901 2013/11/27)

>  <Rbt.Parameter_File>
/export/apps/rDock/src/rDock_2013.1_src/data/scripts/dock_solv.prm

>  <Rbt.Receptor>
prm/blind_docking_100.prm

>  <SCORE>
-6.63726

>  <SCORE.INTER>
-6.63726

>  <SCORE.INTER.CONST>
1

>  <SCORE.INTER.POLAR>
0

>  <SCORE.INTER.ROT>
0

>  <SCORE.INTER.SOLV>
7.16495

>  <SCORE.INTER.VDW>
-10.4132

>  <SCORE.INTER.norm>
-0.603387

>  <SCORE.INTRA>
0

>  <SCORE.INTRA.DIHEDRAL>
0

>  <SCORE.INTRA.DIHEDRAL.0>
0

>  <SCORE.INTRA.POLAR>
0

>  <SCORE.INTRA.POLAR.0>
0

>  <SCORE.INTRA.REPUL>
0

>  <SCORE.INTRA.REPUL.0>
0

>  <SCORE.INTRA.SOLV>
0

>  <SCORE.INTRA.SOLV.lig_0>
-48.3454

>  <SCORE.INTRA.VDW>
0

>  <SCORE.INTRA.VDW.0>
0

>  <SCORE.INTRA.norm>
0

>  <SCORE.RESTR>
0

>  <SCORE.RESTR.CAVITY>
0

>  <SCORE.RESTR.norm>
0

>  <SCORE.SYSTEM>
0

>  <SCORE.SYSTEM.CONST>
0

>  <SCORE.SYSTEM.DIHEDRAL>
0

>  <SCORE.SYSTEM.SOLV>
0

>  <SCORE.SYSTEM.norm>
0

>  <SCORE.heavy>
11

>  <SCORE.norm>
-0.603387

>  <RMSD>
12.855

$$$$
ligand
 OpenBabel01301917033D
libRbt.so/2013.1/901 2013/11/27
 11 12  0  0  0  0  0  0  0  0999 V2000
  -21.4803  -22.7194   10.6486 N   0  0  0  0  0  0  0  0  0  0  0  0
  -20.1582  -22.5025   10.7357 C   0  0  0  0  0  0  0  0  0  0  0  0
  -19.4441  -23.1383   11.6602 N   0  0  0  0  0  0  0  0  0  0  0  0
  -19.5516  -21.6412    9.9042 N   0  0  0  0  0  0  0  0  0  0  0  0
  -20.2538  -20.9787    8.9731 C   0  0  0  0  0  0  0  0  0  0  0  0
  -21.6230  -21.1845    8.8616 C   0  0  0  0  0  0  0  0  0  0  0  0
  -22.2285  -22.0839    9.7329 C   0  0  0  0  0  0  0  0  0  0  0  0
  -23.5351  -22.3183    9.6549 N   0  0  0  0  0  0  0  0  0  0  0  0
  -22.0669  -20.4022    7.8823 N   0  0  0  0  0  0  0  0  0  0  0  0
  -21.0265  -19.7300    7.3948 C   0  0  0  0  0  0  0  0  0  0  0  0
  -19.9227  -20.0768    8.0536 N   0  0  0  0  0  0  0  0  0  0  0  0
  1  7  2  0  0  0  0
  1  2  1  0  0  0  0
  2  3  1  0  0  0  0
  2  4  2  0  0  0  0
  4  5  1  0  0  0  0
  5  6  2  0  0  0  0
  5 11  1  0  0  0  0
  6  7  1  0  0  0  0
  6  9  1  0  0  0  0
  7  8  1  0  0  0  0
  9 10  1  0  0  0  0
 10 11  2  0  0  0  0
M  END
>  <CHROM.1>
-21.02424280,-21.54095887,9.42794399,1.35141353,0.16868327,2.29457878

>  <Name>
ligand

>  <RI>
0

>  <Rbt.Current_Directory>
/home/itssahil/PROJECTS/Mol_Feturizer/New_Systems/rnas/2b57

>  <Rbt.Executable>
rbdock ($Id: //depot/dev/client3/rdock/2013.1/src/exe/rbdock.cxx#4 $)

>  <Rbt.Library>
libRbt.so (2013.1, Build901 2013/11/27)

>  <Rbt.Parameter_File>
/export/apps/rDock/src/rDock_2013.1_src/data/scripts/dock_solv.prm

>  <Rbt.Receptor>
prm/blind_docking_80.prm

>  <SCORE>
-6.65566

>  <SCORE.INTER>
-6.65566

>  <SCORE.INTER.CONST>
1

>  <SCORE.INTER.POLAR>
0

>  <SCORE.INTER.ROT>
0

>  <SCORE.INTER.SOLV>
6.93926

>  <SCORE.INTER.VDW>
-10.3502

>  <SCORE.INTER.norm>
-0.60506

>  <SCORE.INTRA>
0

>  <SCORE.INTRA.DIHEDRAL>
0

>  <SCORE.INTRA.DIHEDRAL.0>
0

>  <SCORE.INTRA.POLAR>
0

>  <SCORE.INTRA.POLAR.0>
0

>  <SCORE.INTRA.REPUL>
0

>  <SCORE.INTRA.REPUL.0>
0

>  <SCORE.INTRA.SOLV>
0

>  <SCORE.INTRA.SOLV.lig_0>
-48.3454

>  <SCORE.INTRA.VDW>
0

>  <SCORE.INTRA.VDW.0>
0

>  <SCORE.INTRA.norm>
0

>  <SCORE.RESTR>
0

>  <SCORE.RESTR.CAVITY>
0

>  <SCORE.RESTR.norm>
0

>  <SCORE.SYSTEM>
0

>  <SCORE.SYSTEM.CONST>
0

>  <SCORE.SYSTEM.DIHEDRAL>
0

>  <SCORE.SYSTEM.SOLV>
0

>  <SCORE.SYSTEM.norm>
0

>  <SCORE.heavy>
11

>  <SCORE.norm>
-0.60506

>  <RMSD>
12.890

$$$$
ligand
 OpenBabel01301917033D
libRbt.so/2013.1/901 2013/11/27
 11 12  0  0  0  0  0  0  0  0999 V2000
  -20.8253  -22.7654   10.8177 N   0  0  0  0  0  0  0  0  0  0  0  0
  -22.1438  -22.6403   10.5973 C   0  0  0  0  0  0  0  0  0  0  0  0
  -23.0046  -23.3529   11.3185 N   0  0  0  0  0  0  0  0  0  0  0  0
  -22.6012  -21.8095    9.6477 N   0  0  0  0  0  0  0  0  0  0  0  0
  -21.7512  -21.0911    8.8991 C   0  0  0  0  0  0  0  0  0  0  0  0
  -20.3822  -21.2018    9.1065 C   0  0  0  0  0  0  0  0  0  0  0  0
  -19.9326  -22.0675   10.0981 C   0  0  0  0  0  0  0  0  0  0  0  0
  -18.6308  -22.1969   10.3368 N   0  0  0  0  0  0  0  0  0  0  0  0
  -19.7790  -20.4033    8.2311 N   0  0  0  0  0  0  0  0  0  0  0  0
  -20.7225  -19.8129    7.5009 C   0  0  0  0  0  0  0  0  0  0  0  0
  -21.9223  -20.2269    7.9029 N   0  0  0  0  0  0  0  0  0  0  0  0
  1  7  2  0  0  0  0
  1  2  1  0  0  0  0
  2  3  1  0  0  0  0
  2  4  2  0  0  0  0
  4  5  1  0  0  0  0
  5  6  2  0  0  0  0
  5 11  1  0  0  0  0
  6  7  1  0  0  0  0
  6  9  1  0  0  0  0
  7  8  1  0  0  0  0
  9 10  1  0  0  0  0
 10 11  2  0  0  0  0
M  END
>  <CHROM.1>
-21.06854907,-21.61337580,9.51375790,-1.91742812,-0.04408453,-0.84269160

>  <Name>
ligand

>  <RI>
0

>  <Rbt.Current_Directory>
/home/itssahil/PROJECTS/Mol_Feturizer/New_Systems/rnas/2b57

>  <Rbt.Executable>
rbdock ($Id: //depot/dev/client3/rdock/2013.1/src/exe/rbdock.cxx#4 $)

>  <Rbt.Library>
libRbt.so (2013.1, Build901 2013/11/27)

>  <Rbt.Parameter_File>
/export/apps/rDock/src/rDock_2013.1_src/data/scripts/dock_solv.prm

>  <Rbt.Receptor>
prm/blind_docking_80.prm

>  <SCORE>
-5.67103

>  <SCORE.INTER>
-5.67103

>  <SCORE.INTER.CONST>
1

>  <SCORE.INTER.POLAR>
0

>  <SCORE.INTER.ROT>
0

>  <SCORE.INTER.SOLV>
8.22752

>  <SCORE.INTER.VDW>
-10.1232

>  <SCORE.INTER.norm>
-0.515549

>  <SCORE.INTRA>
0

>  <SCORE.INTRA.DIHEDRAL>
0

>  <SCORE.INTRA.DIHEDRAL.0>
0

>  <SCORE.INTRA.POLAR>
0

>  <SCORE.INTRA.POLAR.0>
0

>  <SCORE.INTRA.REPUL>
0

>  <SCORE.INTRA.REPUL.0>
0

>  <SCORE.INTRA.SOLV>
0

>  <SCORE.INTRA.SOLV.lig_0>
-48.3454

>  <SCORE.INTRA.VDW>
0

>  <SCORE.INTRA.VDW.0>
0

>  <SCORE.INTRA.norm>
0

>  <SCORE.RESTR>
0

>  <SCORE.RESTR.CAVITY>
0

>  <SCORE.RESTR.norm>
0

>  <SCORE.SYSTEM>
0

>  <SCORE.SYSTEM.CONST>
0

>  <SCORE.SYSTEM.DIHEDRAL>
0

>  <SCORE.SYSTEM.SOLV>
0

>  <SCORE.SYSTEM.norm>
0

>  <SCORE.heavy>
11

>  <SCORE.norm>
-0.515549

>  <RMSD>
13.034

$$$$
ligand
 OpenBabel01301917033D
libRbt.so/2013.1/901 2013/11/27
 11 12  0  0  0  0  0  0  0  0999 V2000
  -22.8429  -22.4497    9.9153 N   0  0  0  0  0  0  0  0  0  0  0  0
  -23.6561  -21.8161    9.0551 C   0  0  0  0  0  0  0  0  0  0  0  0
  -24.9653  -22.0477    9.0912 N   0  0  0  0  0  0  0  0  0  0  0  0
  -23.1582  -20.9579    8.1513 N   0  0  0  0  0  0  0  0  0  0  0  0
  -21.8400  -20.7190    8.0877 C   0  0  0  0  0  0  0  0  0  0  0  0
  -20.9765  -21.3614    8.9659 C   0  0  0  0  0  0  0  0  0  0  0  0
  -21.5165  -22.2443    9.8952 C   0  0  0  0  0  0  0  0  0  0  0  0
  -20.7274  -22.8734   10.7610 N   0  0  0  0  0  0  0  0  0  0  0  0
  -19.7419  -20.9598    8.6787 N   0  0  0  0  0  0  0  0  0  0  0  0
  -19.8184  -20.1019    7.6638 C   0  0  0  0  0  0  0  0  0  0  0  0
  -21.0906  -19.9517    7.3013 N   0  0  0  0  0  0  0  0  0  0  0  0
  1  7  2  0  0  0  0
  1  2  1  0  0  0  0
  2  3  1  0  0  0  0
  2  4  2  0  0  0  0
  4  5  1  0  0  0  0
  5  6  2  0  0  0  0
  5 11  1  0  0  0  0
  6  7  1  0  0  0  0
  6  9  1  0  0  0  0
  7  8  1  0  0  0  0
  9 10  1  0  0  0  0
 10 11  2  0  0  0  0
M  END
>  <CHROM.1>
-21.86840248,-21.41855730,8.87910606,-2.64825388,-0.10502462,-0.86018957

>  <Name>
ligand

>  <RI>
0

>  <Rbt.Current_Directory>
/home/itssahil/PROJECTS/Mol_Feturizer/New_Systems/rnas/2b57

>  <Rbt.Executable>
rbdock ($Id: //depot/dev/client3/rdock/2013.1/src/exe/rbdock.cxx#4 $)

>  <Rbt.Library>
libRbt.so (2013.1, Build901 2013/11/27)

>  <Rbt.Parameter_File>
/export/apps/rDock/src/rDock_2013.1_src/data/scripts/dock_solv.prm

>  <Rbt.Receptor>
prm/blind_docking_80.prm

>  <SCORE>
-5.84516

>  <SCORE.INTER>
-5.84516

>  <SCORE.INTER.CONST>
1

>  <SCORE.INTER.POLAR>
0

>  <SCORE.INTER.ROT>
0

>  <SCORE.INTER.SOLV>
4.30838

>  <SCORE.INTER.VDW>
-8.9329

>  <SCORE.INTER.norm>
-0.531378

>  <SCORE.INTRA>
0

>  <SCORE.INTRA.DIHEDRAL>
0

>  <SCORE.INTRA.DIHEDRAL.0>
0

>  <SCORE.INTRA.POLAR>
0

>  <SCORE.INTRA.POLAR.0>
0

>  <SCORE.INTRA.REPUL>
0

>  <SCORE.INTRA.REPUL.0>
0

>  <SCORE.INTRA.SOLV>
0

>  <SCORE.INTRA.SOLV.lig_0>
-48.3454

>  <SCORE.INTRA.VDW>
0

>  <SCORE.INTRA.VDW.0>
0

>  <SCORE.INTRA.norm>
0

>  <SCORE.RESTR>
0

>  <SCORE.RESTR.CAVITY>
0

>  <SCORE.RESTR.norm>
0

>  <SCORE.SYSTEM>
0

>  <SCORE.SYSTEM.CONST>
0

>  <SCORE.SYSTEM.DIHEDRAL>
0

>  <SCORE.SYSTEM.SOLV>
0

>  <SCORE.SYSTEM.norm>
0

>  <SCORE.heavy>
11

>  <SCORE.norm>
-0.531378

>  <RMSD>
13.518

$$$$
ligand
 OpenBabel01301917033D
libRbt.so/2013.1/901 2013/11/27
 11 12  0  0  0  0  0  0  0  0999 V2000
  -23.0015  -22.3926    9.8328 N   0  0  0  0  0  0  0  0  0  0  0  0
  -23.7604  -21.8027    8.8953 C   0  0  0  0  0  0  0  0  0  0  0  0
  -25.0660  -22.0524    8.8492 N   0  0  0  0  0  0  0  0  0  0  0  0
  -23.2113  -20.9706    7.9969 N   0  0  0  0  0  0  0  0  0  0  0  0
  -21.8949  -20.7145    8.0159 C   0  0  0  0  0  0  0  0  0  0  0  0
  -21.0870  -21.3117    8.9752 C   0  0  0  0  0  0  0  0  0  0  0  0
  -21.6796  -22.1683    9.8970 C   0  0  0  0  0  0  0  0  0  0  0  0
  -20.9451  -22.7538   10.8383 N   0  0  0  0  0  0  0  0  0  0  0  0
  -19.8404  -20.9025    8.7594 N   0  0  0  0  0  0  0  0  0  0  0  0
  -19.8564  -20.0831    7.7105 C   0  0  0  0  0  0  0  0  0  0  0  0
  -21.1020  -19.9652    7.2553 N   0  0  0  0  0  0  0  0  0  0  0  0
  1  7  2  0  0  0  0
  1  2  1  0  0  0  0
  2  3  1  0  0  0  0
  2  4  2  0  0  0  0
  4  5  1  0  0  0  0
  5  6  2  0  0  0  0
  5 11  1  0  0  0  0
  6  7  1  0  0  0  0
  6  9  1  0  0  0  0
  7  8  1  0  0  0  0
  9 10  1  0  0  0  0
 10 11  2  0  0  0  0
M  END
>  <CHROM.1>
-21.96986367,-21.38527019,8.82894570,-2.69371114,-0.15982878,-0.90297425

>  <Name>
ligand

>  <RI>
0

>  <Rbt.Current_Directory>
/home/itssahil/PROJECTS/Mol_Feturizer/New_Systems/rnas/2b57

>  <Rbt.Executable>
rbdock ($Id: //depot/dev/client3/rdock/2013.1/src/exe/rbdock.cxx#4 $)

>  <Rbt.Library>
libRbt.so (2013.1, Build901 2013/11/27)

>  <Rbt.Parameter_File>
/export/apps/rDock/src/rDock_2013.1_src/data/scripts/dock_solv.prm

>  <Rbt.Receptor>
prm/blind_docking_40.prm

>  <SCORE>
-5.90704

>  <SCORE.INTER>
-5.90704

>  <SCORE.INTER.CONST>
1

>  <SCORE.INTER.POLAR>
0

>  <SCORE.INTER.ROT>
0

>  <SCORE.INTER.SOLV>
4.55939

>  <SCORE.INTER.VDW>
-9.05782

>  <SCORE.INTER.norm>
-0.537004

>  <SCORE.INTRA>
0

>  <SCORE.INTRA.DIHEDRAL>
0

>  <SCORE.INTRA.DIHEDRAL.0>
0

>  <SCORE.INTRA.POLAR>
0

>  <SCORE.INTRA.POLAR.0>
0

>  <SCORE.INTRA.REPUL>
0

>  <SCORE.INTRA.REPUL.0>
0

>  <SCORE.INTRA.SOLV>
0

>  <SCORE.INTRA.SOLV.lig_0>
-48.3454

>  <SCORE.INTRA.VDW>
0

>  <SCORE.INTRA.VDW.0>
0

>  <SCORE.INTRA.norm>
0

>  <SCORE.RESTR>
0

>  <SCORE.RESTR.CAVITY>
0

>  <SCORE.RESTR.norm>
0

>  <SCORE.SYSTEM>
0

>  <SCORE.SYSTEM.CONST>
0

>  <SCORE.SYSTEM.DIHEDRAL>
0

>  <SCORE.SYSTEM.SOLV>
0

>  <SCORE.SYSTEM.norm>
0

>  <SCORE.heavy>
11

>  <SCORE.norm>
-0.537004

>  <RMSD>
13.575

$$$$
ligand
 OpenBabel01301917033D
libRbt.so/2013.1/901 2013/11/27
 11 12  0  0  0  0  0  0  0  0999 V2000
  -23.6633  -22.2104    9.1844 N   0  0  0  0  0  0  0  0  0  0  0  0
  -22.8205  -22.6043   10.1525 C   0  0  0  0  0  0  0  0  0  0  0  0
  -23.2615  -23.3854   11.1345 N   0  0  0  0  0  0  0  0  0  0  0  0
  -21.5383  -22.2082   10.1440 N   0  0  0  0  0  0  0  0  0  0  0  0
  -21.0748  -21.4096    9.1712 C   0  0  0  0  0  0  0  0  0  0  0  0
  -21.9257  -20.9874    8.1576 C   0  0  0  0  0  0  0  0  0  0  0  0
  -23.2495  -21.4132    8.1867 C   0  0  0  0  0  0  0  0  0  0  0  0
  -24.0959  -21.0408    7.2311 N   0  0  0  0  0  0  0  0  0  0  0  0
  -21.2224  -20.2045    7.3449 N   0  0  0  0  0  0  0  0  0  0  0  0
  -19.9815  -20.1328    7.8215 C   0  0  0  0  0  0  0  0  0  0  0  0
  -19.8865  -20.8633    8.9304 N   0  0  0  0  0  0  0  0  0  0  0  0
  1  7  2  0  0  0  0
  1  2  1  0  0  0  0
  2  3  1  0  0  0  0
  2  4  2  0  0  0  0
  4  5  1  0  0  0  0
  5  6  2  0  0  0  0
  5 11  1  0  0  0  0
  6  7  1  0  0  0  0
  6  9  1  0  0  0  0
  7  8  1  0  0  0  0
  9 10  1  0  0  0  0
 10 11  2  0  0  0  0
M  END
>  <CHROM.1>
-22.08311407,-21.50928992,8.87111210,2.27626299,0.25376929,2.16300329

>  <Name>
ligand

>  <RI>
0

>  <Rbt.Current_Directory>
/home/itssahil/PROJECTS/Mol_Feturizer/New_Systems/rnas/2b57

>  <Rbt.Executable>
rbdock ($Id: //depot/dev/client3/rdock/2013.1/src/exe/rbdock.cxx#4 $)

>  <Rbt.Library>
libRbt.so (2013.1, Build901 2013/11/27)

>  <Rbt.Parameter_File>
/export/apps/rDock/src/rDock_2013.1_src/data/scripts/dock_solv.prm

>  <Rbt.Receptor>
prm/blind_docking_60.prm

>  <SCORE>
-5.86136

>  <SCORE.INTER>
-5.86136

>  <SCORE.INTER.CONST>
1

>  <SCORE.INTER.POLAR>
0

>  <SCORE.INTER.ROT>
0

>  <SCORE.INTER.SOLV>
3.98006

>  <SCORE.INTER.VDW>
-8.83426

>  <SCORE.INTER.norm>
-0.53285

>  <SCORE.INTRA>
0

>  <SCORE.INTRA.DIHEDRAL>
0

>  <SCORE.INTRA.DIHEDRAL.0>
0

>  <SCORE.INTRA.POLAR>
0

>  <SCORE.INTRA.POLAR.0>
0

>  <SCORE.INTRA.REPUL>
0

>  <SCORE.INTRA.REPUL.0>
0

>  <SCORE.INTRA.SOLV>
0

>  <SCORE.INTRA.SOLV.lig_0>
-48.3454

>  <SCORE.INTRA.VDW>
0

>  <SCORE.INTRA.VDW.0>
0

>  <SCORE.INTRA.norm>
0

>  <SCORE.RESTR>
0

>  <SCORE.RESTR.CAVITY>
0

>  <SCORE.RESTR.norm>
0

>  <SCORE.SYSTEM>
0

>  <SCORE.SYSTEM.CONST>
0

>  <SCORE.SYSTEM.DIHEDRAL>
0

>  <SCORE.SYSTEM.SOLV>
0

>  <SCORE.SYSTEM.norm>
0

>  <SCORE.heavy>
11

>  <SCORE.norm>
-0.53285

>  <RMSD>
13.582

$$$$
ligand
 OpenBabel01301917033D
libRbt.so/2013.1/901 2013/11/27
 11 12  0  0  0  0  0  0  0  0999 V2000
  -26.2476  -11.2329    8.3879 N   0  0  0  0  0  0  0  0  0  0  0  0
  -26.5144  -12.5257    8.1427 C   0  0  0  0  0  0  0  0  0  0  0  0
  -26.7220  -13.3611    9.1567 N   0  0  0  0  0  0  0  0  0  0  0  0
  -26.5635  -12.9855    6.8828 N   0  0  0  0  0  0  0  0  0  0  0  0
  -26.3443  -12.1643    5.8453 C   0  0  0  0  0  0  0  0  0  0  0  0
  -26.0660  -10.8222    6.0711 C   0  0  0  0  0  0  0  0  0  0  0  0
  -26.0231  -10.3688    7.3854 C   0  0  0  0  0  0  0  0  0  0  0  0
  -25.7697   -9.0899    7.6466 N   0  0  0  0  0  0  0  0  0  0  0  0
  -25.8782  -10.2477    4.8867 N   0  0  0  0  0  0  0  0  0  0  0  0
  -26.0299  -11.1830    3.9517 C   0  0  0  0  0  0  0  0  0  0  0  0
  -26.3135  -12.3489    4.5286 N   0  0  0  0  0  0  0  0  0  0  0  0
  1  7  2  0  0  0  0
  1  2  1  0  0  0  0
  2  3  1  0  0  0  0
  2  4  2  0  0  0  0
  4  5  1  0  0  0  0
  5  6  2  0  0  0  0
  5 11  1  0  0  0  0
  6  7  1  0  0  0  0
  6  9  1  0  0  0  0
  7  8  1  0  0  0  0
  9 10  1  0  0  0  0
 10 11  2  0  0  0  0
M  END
>  <CHROM.1>
-26.22676607,-11.48949816,6.64997541,-2.12040924,-1.35827480,-1.78034988

>  <Name>
ligand

>  <RI>
0

>  <Rbt.Current_Directory>
/home/itssahil/PROJECTS/Mol_Feturizer/New_Systems/rnas/2b57

>  <Rbt.Executable>
rbdock ($Id: //depot/dev/client3/rdock/2013.1/src/exe/rbdock.cxx#4 $)

>  <Rbt.Library>
libRbt.so (2013.1, Build901 2013/11/27)

>  <Rbt.Parameter_File>
/export/apps/rDock/src/rDock_2013.1_src/data/scripts/dock_solv.prm

>  <Rbt.Receptor>
prm/blind_docking_40.prm

>  <SCORE>
-4.87933

>  <SCORE.INTER>
-4.87933

>  <SCORE.INTER.CONST>
1

>  <SCORE.INTER.POLAR>
0

>  <SCORE.INTER.ROT>
0

>  <SCORE.INTER.SOLV>
5.48238

>  <SCORE.INTER.VDW>
-8.68035

>  <SCORE.INTER.norm>
-0.443576

>  <SCORE.INTRA>
0

>  <SCORE.INTRA.DIHEDRAL>
0

>  <SCORE.INTRA.DIHEDRAL.0>
0

>  <SCORE.INTRA.POLAR>
0

>  <SCORE.INTRA.POLAR.0>
0

>  <SCORE.INTRA.REPUL>
0

>  <SCORE.INTRA.REPUL.0>
0

>  <SCORE.INTRA.SOLV>
0

>  <SCORE.INTRA.SOLV.lig_0>
-48.3454

>  <SCORE.INTRA.VDW>
0

>  <SCORE.INTRA.VDW.0>
0

>  <SCORE.INTRA.norm>
0

>  <SCORE.RESTR>
0

>  <SCORE.RESTR.CAVITY>
0

>  <SCORE.RESTR.norm>
0

>  <SCORE.SYSTEM>
0

>  <SCORE.SYSTEM.CONST>
0

>  <SCORE.SYSTEM.DIHEDRAL>
0

>  <SCORE.SYSTEM.SOLV>
0

>  <SCORE.SYSTEM.norm>
0

>  <SCORE.heavy>
11

>  <SCORE.norm>
-0.443576

>  <RMSD>
14.845

$$$$
ligand
 OpenBabel01301917033D
libRbt.so/2013.1/901 2013/11/27
 11 12  0  0  0  0  0  0  0  0999 V2000
  -26.3924  -14.7518    8.6754 N   0  0  0  0  0  0  0  0  0  0  0  0
  -25.8424  -15.9298    9.0108 C   0  0  0  0  0  0  0  0  0  0  0  0
  -25.6679  -16.8656    8.0819 N   0  0  0  0  0  0  0  0  0  0  0  0
  -25.4763  -16.1759   10.2783 N   0  0  0  0  0  0  0  0  0  0  0  0
  -25.6552  -15.2523   11.2342 C   0  0  0  0  0  0  0  0  0  0  0  0
  -26.2220  -14.0251   10.9142 C   0  0  0  0  0  0  0  0  0  0  0  0
  -26.5909  -13.7927    9.5934 C   0  0  0  0  0  0  0  0  0  0  0  0
  -27.1282  -12.6284    9.2412 N   0  0  0  0  0  0  0  0  0  0  0  0
  -26.2963  -13.3141   12.0354 N   0  0  0  0  0  0  0  0  0  0  0  0
  -25.7996  -14.0566   13.0222 C   0  0  0  0  0  0  0  0  0  0  0  0
  -25.4083  -15.2347   12.5409 N   0  0  0  0  0  0  0  0  0  0  0  0
  1  7  2  0  0  0  0
  1  2  1  0  0  0  0
  2  3  1  0  0  0  0
  2  4  2  0  0  0  0
  4  5  1  0  0  0  0
  5  6  2  0  0  0  0
  5 11  1  0  0  0  0
  6  7  1  0  0  0  0
  6  9  1  0  0  0  0
  7  8  1  0  0  0  0
  9 10  1  0  0  0  0
 10 11  2  0  0  0  0
M  END
>  <CHROM.1>
-26.04509332,-14.73791756,10.39757608,1.58101654,1.14578794,-2.03603787

>  <Name>
ligand

>  <RI>
0

>  <Rbt.Current_Directory>
/home/itssahil/PROJECTS/Mol_Feturizer/New_Systems/rnas/2b57

>  <Rbt.Executable>
rbdock ($Id: //depot/dev/client3/rdock/2013.1/src/exe/rbdock.cxx#4 $)

>  <Rbt.Library>
libRbt.so (2013.1, Build901 2013/11/27)

>  <Rbt.Parameter_File>
/export/apps/rDock/src/rDock_2013.1_src/data/scripts/dock_solv.prm

>  <Rbt.Receptor>
prm/blind_docking_100.prm

>  <SCORE>
-7.10183

>  <SCORE.INTER>
-7.10183

>  <SCORE.INTER.CONST>
1

>  <SCORE.INTER.POLAR>
0

>  <SCORE.INTER.ROT>
0

>  <SCORE.INTER.SOLV>
2.15201

>  <SCORE.INTER.VDW>
-9.05189

>  <SCORE.INTER.norm>
-0.64562

>  <SCORE.INTRA>
0

>  <SCORE.INTRA.DIHEDRAL>
0

>  <SCORE.INTRA.DIHEDRAL.0>
0

>  <SCORE.INTRA.POLAR>
0

>  <SCORE.INTRA.POLAR.0>
0

>  <SCORE.INTRA.REPUL>
0

>  <SCORE.INTRA.REPUL.0>
0

>  <SCORE.INTRA.SOLV>
0

>  <SCORE.INTRA.SOLV.lig_0>
-48.3454

>  <SCORE.INTRA.VDW>
0

>  <SCORE.INTRA.VDW.0>
0

>  <SCORE.INTRA.norm>
0

>  <SCORE.RESTR>
0

>  <SCORE.RESTR.CAVITY>
0

>  <SCORE.RESTR.norm>
0

>  <SCORE.SYSTEM>
0

>  <SCORE.SYSTEM.CONST>
0

>  <SCORE.SYSTEM.DIHEDRAL>
0

>  <SCORE.SYSTEM.SOLV>
0

>  <SCORE.SYSTEM.norm>
0

>  <SCORE.heavy>
11

>  <SCORE.norm>
-0.64562

>  <RMSD>
15.166

$$$$
ligand
 OpenBabel01301917033D
libRbt.so/2013.1/901 2013/11/27
 11 12  0  0  0  0  0  0  0  0999 V2000
  -26.5372  -13.4074    8.6743 N   0  0  0  0  0  0  0  0  0  0  0  0
  -26.5963  -12.3948    9.5540 C   0  0  0  0  0  0  0  0  0  0  0  0
  -26.8772  -11.1662    9.1290 N   0  0  0  0  0  0  0  0  0  0  0  0
  -26.3641  -12.6093   10.8583 N   0  0  0  0  0  0  0  0  0  0  0  0
  -26.0658  -13.8373   11.3077 C   0  0  0  0  0  0  0  0  0  0  0  0
  -25.9981  -14.9026   10.4187 C   0  0  0  0  0  0  0  0  0  0  0  0
  -26.2451  -14.6557    9.0723 C   0  0  0  0  0  0  0  0  0  0  0  0
  -26.2003  -15.6481    8.1884 N   0  0  0  0  0  0  0  0  0  0  0  0
  -25.6743  -15.9867   11.1172 N   0  0  0  0  0  0  0  0  0  0  0  0
  -25.5420  -15.6256   12.3916 C   0  0  0  0  0  0  0  0  0  0  0  0
  -25.7792  -14.3212   12.5128 N   0  0  0  0  0  0  0  0  0  0  0  0
  1  7  2  0  0  0  0
  1  2  1  0  0  0  0
  2  3  1  0  0  0  0
  2  4  2  0  0  0  0
  4  5  1  0  0  0  0
  5  6  2  0  0  0  0
  5 11  1  0  0  0  0
  6  7  1  0  0  0  0
  6  9  1  0  0  0  0
  7  8  1  0  0  0  0
  9 10  1  0  0  0  0
 10 11  2  0  0  0  0
M  END
>  <CHROM.1>
-26.17649360,-14.03431296,10.27542267,-3.12962601,-1.33312219,0.88262452

>  <Name>
ligand

>  <RI>
0

>  <Rbt.Current_Directory>
/home/itssahil/PROJECTS/Mol_Feturizer/New_Systems/rnas/2b57

>  <Rbt.Executable>
rbdock ($Id: //depot/dev/client3/rdock/2013.1/src/exe/rbdock.cxx#4 $)

>  <Rbt.Library>
libRbt.so (2013.1, Build901 2013/11/27)

>  <Rbt.Parameter_File>
/export/apps/rDock/src/rDock_2013.1_src/data/scripts/dock_solv.prm

>  <Rbt.Receptor>
prm/blind_docking_40.prm

>  <SCORE>
-6.37568

>  <SCORE.INTER>
-6.37568

>  <SCORE.INTER.CONST>
1

>  <SCORE.INTER.POLAR>
0

>  <SCORE.INTER.ROT>
0

>  <SCORE.INTER.SOLV>
3.04207

>  <SCORE.INTER.VDW>
-8.86448

>  <SCORE.INTER.norm>
-0.579608

>  <SCORE.INTRA>
0

>  <SCORE.INTRA.DIHEDRAL>
0

>  <SCORE.INTRA.DIHEDRAL.0>
0

>  <SCORE.INTRA.POLAR>
0

>  <SCORE.INTRA.POLAR.0>
0

>  <SCORE.INTRA.REPUL>
0

>  <SCORE.INTRA.REPUL.0>
0

>  <SCORE.INTRA.SOLV>
0

>  <SCORE.INTRA.SOLV.lig_0>
-48.3454

>  <SCORE.INTRA.VDW>
0

>  <SCORE.INTRA.VDW.0>
0

>  <SCORE.INTRA.norm>
0

>  <SCORE.RESTR>
0

>  <SCORE.RESTR.CAVITY>
0

>  <SCORE.RESTR.norm>
0

>  <SCORE.SYSTEM>
0

>  <SCORE.SYSTEM.CONST>
0

>  <SCORE.SYSTEM.DIHEDRAL>
0

>  <SCORE.SYSTEM.SOLV>
0

>  <SCORE.SYSTEM.norm>
0

>  <SCORE.heavy>
11

>  <SCORE.norm>
-0.579608

>  <RMSD>
15.335

$$$$
ligand
 OpenBabel01301917033D
libRbt.so/2013.1/901 2013/11/27
 11 12  0  0  0  0  0  0  0  0999 V2000
  -26.5252  -13.3451    8.6104 N   0  0  0  0  0  0  0  0  0  0  0  0
  -26.6285  -12.1814    9.2721 C   0  0  0  0  0  0  0  0  0  0  0  0
  -26.9144  -11.0662    8.6063 N   0  0  0  0  0  0  0  0  0  0  0  0
  -26.4354  -12.1315   10.5993 N   0  0  0  0  0  0  0  0  0  0  0  0
  -26.1329  -13.2411   11.2894 C   0  0  0  0  0  0  0  0  0  0  0  0
  -26.0199  -14.4581   10.6292 C   0  0  0  0  0  0  0  0  0  0  0  0
  -26.2270  -14.4848    9.2540 C   0  0  0  0  0  0  0  0  0  0  0  0
  -26.1382  -15.6298    8.5837 N   0  0  0  0  0  0  0  0  0  0  0  0
  -25.7022  -15.3772   11.5359 N   0  0  0  0  0  0  0  0  0  0  0  0
  -25.6170  -14.7709   12.7179 C   0  0  0  0  0  0  0  0  0  0  0  0
  -25.8781  -13.4734   12.5738 N   0  0  0  0  0  0  0  0  0  0  0  0
  1  7  2  0  0  0  0
  1  2  1  0  0  0  0
  2  3  1  0  0  0  0
  2  4  2  0  0  0  0
  4  5  1  0  0  0  0
  5  6  2  0  0  0  0
  5 11  1  0  0  0  0
  6  7  1  0  0  0  0
  6  9  1  0  0  0  0
  7  8  1  0  0  0  0
  9 10  1  0  0  0  0
 10 11  2  0  0  0  0
M  END
>  <CHROM.1>
-26.20702343,-13.63864601,10.31310957,-2.97708102,-1.33920015,0.83364131

>  <Name>
ligand

>  <RI>
0

>  <Rbt.Current_Directory>
/home/itssahil/PROJECTS/Mol_Feturizer/New_Systems/rnas/2b57

>  <Rbt.Executable>
rbdock ($Id: //depot/dev/client3/rdock/2013.1/src/exe/rbdock.cxx#4 $)

>  <Rbt.Library>
libRbt.so (2013.1, Build901 2013/11/27)

>  <Rbt.Parameter_File>
/export/apps/rDock/src/rDock_2013.1_src/data/scripts/dock_solv.prm

>  <Rbt.Receptor>
prm/blind_docking_40.prm

>  <SCORE>
-6.16607

>  <SCORE.INTER>
-6.16607

>  <SCORE.INTER.CONST>
1

>  <SCORE.INTER.POLAR>
0

>  <SCORE.INTER.ROT>
0

>  <SCORE.INTER.SOLV>
2.99124

>  <SCORE.INTER.VDW>
-8.70779

>  <SCORE.INTER.norm>
-0.560551

>  <SCORE.INTRA>
0

>  <SCORE.INTRA.DIHEDRAL>
0

>  <SCORE.INTRA.DIHEDRAL.0>
0

>  <SCORE.INTRA.POLAR>
0

>  <SCORE.INTRA.POLAR.0>
0

>  <SCORE.INTRA.REPUL>
0

>  <SCORE.INTRA.REPUL.0>
0

>  <SCORE.INTRA.SOLV>
0

>  <SCORE.INTRA.SOLV.lig_0>
-48.3454

>  <SCORE.INTRA.VDW>
0

>  <SCORE.INTRA.VDW.0>
0

>  <SCORE.INTRA.norm>
0

>  <SCORE.RESTR>
0

>  <SCORE.RESTR.CAVITY>
0

>  <SCORE.RESTR.norm>
0

>  <SCORE.SYSTEM>
0

>  <SCORE.SYSTEM.CONST>
0

>  <SCORE.SYSTEM.DIHEDRAL>
0

>  <SCORE.SYSTEM.SOLV>
0

>  <SCORE.SYSTEM.norm>
0

>  <SCORE.heavy>
11

>  <SCORE.norm>
-0.560551

>  <RMSD>
15.388

$$$$
ligand
 OpenBabel01301917033D
libRbt.so/2013.1/901 2013/11/27
 11 12  0  0  0  0  0  0  0  0999 V2000
  -26.4476  -14.7177    8.6247 N   0  0  0  0  0  0  0  0  0  0  0  0
  -26.6659  -13.3953    8.7044 C   0  0  0  0  0  0  0  0  0  0  0  0
  -26.9846  -12.7114    7.6091 N   0  0  0  0  0  0  0  0  0  0  0  0
  -26.5552  -12.7548    9.8785 N   0  0  0  0  0  0  0  0  0  0  0  0
  -26.2217  -13.4216   10.9934 C   0  0  0  0  0  0  0  0  0  0  0  0
  -25.9904  -14.7902   10.9388 C   0  0  0  0  0  0  0  0  0  0  0  0
  -26.1137  -15.4322    9.7110 C   0  0  0  0  0  0  0  0  0  0  0  0
  -25.9106  -16.7428    9.6152 N   0  0  0  0  0  0  0  0  0  0  0  0
  -25.6671  -15.1906   12.1649 N   0  0  0  0  0  0  0  0  0  0  0  0
  -25.6917  -14.1243   12.9613 C   0  0  0  0  0  0  0  0  0  0  0  0
  -26.0284  -13.0473   12.2548 N   0  0  0  0  0  0  0  0  0  0  0  0
  1  7  2  0  0  0  0
  1  2  1  0  0  0  0
  2  3  1  0  0  0  0
  2  4  2  0  0  0  0
  4  5  1  0  0  0  0
  5  6  2  0  0  0  0
  5 11  1  0  0  0  0
  6  7  1  0  0  0  0
  6  9  1  0  0  0  0
  7  8  1  0  0  0  0
  9 10  1  0  0  0  0
 10 11  2  0  0  0  0
M  END
>  <CHROM.1>
-26.21186336,-14.21018605,10.29012966,-2.62282358,-1.31496982,0.72306565

>  <Name>
ligand

>  <RI>
0

>  <Rbt.Current_Directory>
/home/itssahil/PROJECTS/Mol_Feturizer/New_Systems/rnas/2b57

>  <Rbt.Executable>
rbdock ($Id: //depot/dev/client3/rdock/2013.1/src/exe/rbdock.cxx#4 $)

>  <Rbt.Library>
libRbt.so (2013.1, Build901 2013/11/27)

>  <Rbt.Parameter_File>
/export/apps/rDock/src/rDock_2013.1_src/data/scripts/dock_solv.prm

>  <Rbt.Receptor>
prm/blind_docking_40.prm

>  <SCORE>
-5.92714

>  <SCORE.INTER>
-5.92714

>  <SCORE.INTER.CONST>
1

>  <SCORE.INTER.POLAR>
0

>  <SCORE.INTER.ROT>
0

>  <SCORE.INTER.SOLV>
4.66565

>  <SCORE.INTER.VDW>
-9.10664

>  <SCORE.INTER.norm>
-0.538831

>  <SCORE.INTRA>
0

>  <SCORE.INTRA.DIHEDRAL>
0

>  <SCORE.INTRA.DIHEDRAL.0>
0

>  <SCORE.INTRA.POLAR>
0

>  <SCORE.INTRA.POLAR.0>
0

>  <SCORE.INTRA.REPUL>
0

>  <SCORE.INTRA.REPUL.0>
0

>  <SCORE.INTRA.SOLV>
0

>  <SCORE.INTRA.SOLV.lig_0>
-48.3454

>  <SCORE.INTRA.VDW>
0

>  <SCORE.INTRA.VDW.0>
0

>  <SCORE.INTRA.norm>
0

>  <SCORE.RESTR>
0

>  <SCORE.RESTR.CAVITY>
0

>  <SCORE.RESTR.norm>
0

>  <SCORE.SYSTEM>
0

>  <SCORE.SYSTEM.CONST>
0

>  <SCORE.SYSTEM.DIHEDRAL>
0

>  <SCORE.SYSTEM.SOLV>
0

>  <SCORE.SYSTEM.norm>
0

>  <SCORE.heavy>
11

>  <SCORE.norm>
-0.538831

>  <RMSD>
15.459

$$$$
ligand
 OpenBabel01301917033D
libRbt.so/2013.1/901 2013/11/27
 11 12  0  0  0  0  0  0  0  0999 V2000
  -25.7165   -9.2871    8.7732 N   0  0  0  0  0  0  0  0  0  0  0  0
  -26.8865   -9.9323    8.9064 C   0  0  0  0  0  0  0  0  0  0  0  0
  -27.0401  -10.8278    9.8776 N   0  0  0  0  0  0  0  0  0  0  0  0
  -27.9001   -9.6890    8.0610 N   0  0  0  0  0  0  0  0  0  0  0  0
  -27.7635   -8.8001    7.0660 C   0  0  0  0  0  0  0  0  0  0  0  0
  -26.5635   -8.1189    6.9058 C   0  0  0  0  0  0  0  0  0  0  0  0
  -25.5286   -8.3862    7.7960 C   0  0  0  0  0  0  0  0  0  0  0  0
  -24.3664   -7.7498    7.6851 N   0  0  0  0  0  0  0  0  0  0  0  0
  -26.6939   -7.3217    5.8496 N   0  0  0  0  0  0  0  0  0  0  0  0
  -27.9208   -7.4898    5.3614 C   0  0  0  0  0  0  0  0  0  0  0  0
  -28.5748   -8.3865    6.0968 N   0  0  0  0  0  0  0  0  0  0  0  0
  1  7  2  0  0  0  0
  1  2  1  0  0  0  0
  2  3  1  0  0  0  0
  2  4  2  0  0  0  0
  4  5  1  0  0  0  0
  5  6  2  0  0  0  0
  5 11  1  0  0  0  0
  6  7  1  0  0  0  0
  6  9  1  0  0  0  0
  7  8  1  0  0  0  0
  9 10  1  0  0  0  0
 10 11  2  0  0  0  0
M  END
>  <CHROM.1>
-26.80584122,-8.73881957,7.50852853,-1.33873570,-0.34229252,-0.87862799

>  <Name>
ligand

>  <RI>
0

>  <Rbt.Current_Directory>
/home/itssahil/PROJECTS/Mol_Feturizer/New_Systems/rnas/2b57

>  <Rbt.Executable>
rbdock ($Id: //depot/dev/client3/rdock/2013.1/src/exe/rbdock.cxx#4 $)

>  <Rbt.Library>
libRbt.so (2013.1, Build901 2013/11/27)

>  <Rbt.Parameter_File>
/export/apps/rDock/src/rDock_2013.1_src/data/scripts/dock_solv.prm

>  <Rbt.Receptor>
prm/blind_docking_100.prm

>  <SCORE>
-4.89491

>  <SCORE.INTER>
-4.89491

>  <SCORE.INTER.CONST>
1

>  <SCORE.INTER.POLAR>
0

>  <SCORE.INTER.ROT>
0

>  <SCORE.INTER.SOLV>
5.43372

>  <SCORE.INTER.VDW>
-8.67451

>  <SCORE.INTER.norm>
-0.444991

>  <SCORE.INTRA>
0

>  <SCORE.INTRA.DIHEDRAL>
0

>  <SCORE.INTRA.DIHEDRAL.0>
0

>  <SCORE.INTRA.POLAR>
0

>  <SCORE.INTRA.POLAR.0>
0

>  <SCORE.INTRA.REPUL>
0

>  <SCORE.INTRA.REPUL.0>
0

>  <SCORE.INTRA.SOLV>
0

>  <SCORE.INTRA.SOLV.lig_0>
-48.3454

>  <SCORE.INTRA.VDW>
0

>  <SCORE.INTRA.VDW.0>
0

>  <SCORE.INTRA.norm>
0

>  <SCORE.RESTR>
0

>  <SCORE.RESTR.CAVITY>
0

>  <SCORE.RESTR.norm>
0

>  <SCORE.SYSTEM>
0

>  <SCORE.SYSTEM.CONST>
0

>  <SCORE.SYSTEM.DIHEDRAL>
0

>  <SCORE.SYSTEM.SOLV>
0

>  <SCORE.SYSTEM.norm>
0

>  <SCORE.heavy>
11

>  <SCORE.norm>
-0.444991

>  <RMSD>
16.029

$$$$
ligand
 OpenBabel01301917033D
libRbt.so/2013.1/901 2013/11/27
 11 12  0  0  0  0  0  0  0  0999 V2000
  -22.2555  -23.7052   11.1548 N   0  0  0  0  0  0  0  0  0  0  0  0
  -22.1683  -24.4427   12.2733 C   0  0  0  0  0  0  0  0  0  0  0  0
  -22.5305  -23.9178   13.4405 N   0  0  0  0  0  0  0  0  0  0  0  0
  -21.7087  -25.7028   12.2259 N   0  0  0  0  0  0  0  0  0  0  0  0
  -21.3251  -26.2483   11.0623 C   0  0  0  0  0  0  0  0  0  0  0  0
  -21.4050  -25.5070    9.8902 C   0  0  0  0  0  0  0  0  0  0  0  0
  -21.8869  -24.2044    9.9644 C   0  0  0  0  0  0  0  0  0  0  0  0
  -21.9892  -23.4626    8.8656 N   0  0  0  0  0  0  0  0  0  0  0  0
  -20.9538  -26.2726    8.9010 N   0  0  0  0  0  0  0  0  0  0  0  0
  -20.6030  -27.4463    9.4219 C   0  0  0  0  0  0  0  0  0  0  0  0
  -20.8269  -27.4369   10.7343 N   0  0  0  0  0  0  0  0  0  0  0  0
  1  7  2  0  0  0  0
  1  2  1  0  0  0  0
  2  3  1  0  0  0  0
  2  4  2  0  0  0  0
  4  5  1  0  0  0  0
  5  6  2  0  0  0  0
  5 11  1  0  0  0  0
  6  7  1  0  0  0  0
  6  9  1  0  0  0  0
  7  8  1  0  0  0  0
  9 10  1  0  0  0  0
 10 11  2  0  0  0  0
M  END
>  <CHROM.1>
-21.61361401,-25.28584447,10.73506653,2.79512896,-1.19125741,1.97986489

>  <Name>
ligand

>  <RI>
0

>  <Rbt.Current_Directory>
/home/itssahil/PROJECTS/Mol_Feturizer/New_Systems/rnas/2b57

>  <Rbt.Executable>
rbdock ($Id: //depot/dev/client3/rdock/2013.1/src/exe/rbdock.cxx#4 $)

>  <Rbt.Library>
libRbt.so (2013.1, Build901 2013/11/27)

>  <Rbt.Parameter_File>
/export/apps/rDock/src/rDock_2013.1_src/data/scripts/dock_solv.prm

>  <Rbt.Receptor>
prm/blind_docking_60.prm

>  <SCORE>
-5.59135

>  <SCORE.INTER>
-5.59135

>  <SCORE.INTER.CONST>
1

>  <SCORE.INTER.POLAR>
0

>  <SCORE.INTER.ROT>
0

>  <SCORE.INTER.SOLV>
2.57258

>  <SCORE.INTER.VDW>
-8.18509

>  <SCORE.INTER.norm>
-0.508305

>  <SCORE.INTRA>
0

>  <SCORE.INTRA.DIHEDRAL>
0

>  <SCORE.INTRA.DIHEDRAL.0>
0

>  <SCORE.INTRA.POLAR>
0

>  <SCORE.INTRA.POLAR.0>
0

>  <SCORE.INTRA.REPUL>
0

>  <SCORE.INTRA.REPUL.0>
0

>  <SCORE.INTRA.SOLV>
0

>  <SCORE.INTRA.SOLV.lig_0>
-48.3454

>  <SCORE.INTRA.VDW>
0

>  <SCORE.INTRA.VDW.0>
0

>  <SCORE.INTRA.norm>
0

>  <SCORE.RESTR>
0

>  <SCORE.RESTR.CAVITY>
0

>  <SCORE.RESTR.norm>
0

>  <SCORE.SYSTEM>
0

>  <SCORE.SYSTEM.CONST>
0

>  <SCORE.SYSTEM.DIHEDRAL>
0

>  <SCORE.SYSTEM.SOLV>
0

>  <SCORE.SYSTEM.norm>
0

>  <SCORE.heavy>
11

>  <SCORE.norm>
-0.508305

>  <RMSD>
16.127

$$$$
ligand
 OpenBabel01301917033D
libRbt.so/2013.1/901 2013/11/27
 11 12  0  0  0  0  0  0  0  0999 V2000
  -22.3491  -23.7128   11.1072 N   0  0  0  0  0  0  0  0  0  0  0  0
  -22.3313  -24.4327   12.2404 C   0  0  0  0  0  0  0  0  0  0  0  0
  -22.7794  -23.8952   13.3714 N   0  0  0  0  0  0  0  0  0  0  0  0
  -21.8556  -25.6876   12.2444 N   0  0  0  0  0  0  0  0  0  0  0  0
  -21.3862  -26.2455   11.1186 C   0  0  0  0  0  0  0  0  0  0  0  0
  -21.3930  -25.5226    9.9325 C   0  0  0  0  0  0  0  0  0  0  0  0
  -21.8934  -24.2249    9.9530 C   0  0  0  0  0  0  0  0  0  0  0  0
  -21.9275  -23.5007    8.8384 N   0  0  0  0  0  0  0  0  0  0  0  0
  -20.8658  -26.2970    8.9889 N   0  0  0  0  0  0  0  0  0  0  0  0
  -20.5389  -27.4586    9.5509 C   0  0  0  0  0  0  0  0  0  0  0  0
  -20.8533  -27.4327   10.8444 N   0  0  0  0  0  0  0  0  0  0  0  0
  1  7  2  0  0  0  0
  1  2  1  0  0  0  0
  2  3  1  0  0  0  0
  2  4  2  0  0  0  0
  4  5  1  0  0  0  0
  5  6  2  0  0  0  0
  5 11  1  0  0  0  0
  6  7  1  0  0  0  0
  6  9  1  0  0  0  0
  7  8  1  0  0  0  0
  9 10  1  0  0  0  0
 10 11  2  0  0  0  0
M  END
>  <CHROM.1>
-21.66206702,-25.29154961,10.75739558,2.94021488,-1.14947542,2.09840594

>  <Name>
ligand

>  <RI>
0

>  <Rbt.Current_Directory>
/home/itssahil/PROJECTS/Mol_Feturizer/New_Systems/rnas/2b57

>  <Rbt.Executable>
rbdock ($Id: //depot/dev/client3/rdock/2013.1/src/exe/rbdock.cxx#4 $)

>  <Rbt.Library>
libRbt.so (2013.1, Build901 2013/11/27)

>  <Rbt.Parameter_File>
/export/apps/rDock/src/rDock_2013.1_src/data/scripts/dock_solv.prm

>  <Rbt.Receptor>
prm/blind_docking_100.prm

>  <SCORE>
-5.58432

>  <SCORE.INTER>
-5.58432

>  <SCORE.INTER.CONST>
1

>  <SCORE.INTER.POLAR>
0

>  <SCORE.INTER.ROT>
0

>  <SCORE.INTER.SOLV>
2.75715

>  <SCORE.INTER.VDW>
-8.24193

>  <SCORE.INTER.norm>
-0.507666

>  <SCORE.INTRA>
0

>  <SCORE.INTRA.DIHEDRAL>
0

>  <SCORE.INTRA.DIHEDRAL.0>
0

>  <SCORE.INTRA.POLAR>
0

>  <SCORE.INTRA.POLAR.0>
0

>  <SCORE.INTRA.REPUL>
0

>  <SCORE.INTRA.REPUL.0>
0

>  <SCORE.INTRA.SOLV>
0

>  <SCORE.INTRA.SOLV.lig_0>
-48.3454

>  <SCORE.INTRA.VDW>
0

>  <SCORE.INTRA.VDW.0>
0

>  <SCORE.INTRA.norm>
0

>  <SCORE.RESTR>
0

>  <SCORE.RESTR.CAVITY>
0

>  <SCORE.RESTR.norm>
0

>  <SCORE.SYSTEM>
0

>  <SCORE.SYSTEM.CONST>
0

>  <SCORE.SYSTEM.DIHEDRAL>
0

>  <SCORE.SYSTEM.SOLV>
0

>  <SCORE.SYSTEM.norm>
0

>  <SCORE.heavy>
11

>  <SCORE.norm>
-0.507666

>  <RMSD>
16.173

$$$$
ligand
 OpenBabel01301917033D
libRbt.so/2013.1/901 2013/11/27
 11 12  0  0  0  0  0  0  0  0999 V2000
  -22.4084  -23.7358   11.1048 N   0  0  0  0  0  0  0  0  0  0  0  0
  -22.3247  -24.4044   12.2662 C   0  0  0  0  0  0  0  0  0  0  0  0
  -22.7360  -23.8272   13.3917 N   0  0  0  0  0  0  0  0  0  0  0  0
  -21.8198  -25.6473   12.3034 N   0  0  0  0  0  0  0  0  0  0  0  0
  -21.3866  -26.2441   11.1831 C   0  0  0  0  0  0  0  0  0  0  0  0
  -21.4616  -25.5746    9.9682 C   0  0  0  0  0  0  0  0  0  0  0  0
  -21.9910  -24.2884    9.9549 C   0  0  0  0  0  0  0  0  0  0  0  0
  -22.0903  -23.6150    8.8126 N   0  0  0  0  0  0  0  0  0  0  0  0
  -20.9577  -26.3784    9.0366 N   0  0  0  0  0  0  0  0  0  0  0  0
  -20.5795  -27.5066    9.6332 C   0  0  0  0  0  0  0  0  0  0  0  0
  -20.8382  -27.4304   10.9370 N   0  0  0  0  0  0  0  0  0  0  0  0
  1  7  2  0  0  0  0
  1  2  1  0  0  0  0
  2  3  1  0  0  0  0
  2  4  2  0  0  0  0
  4  5  1  0  0  0  0
  5  6  2  0  0  0  0
  5 11  1  0  0  0  0
  6  7  1  0  0  0  0
  6  9  1  0  0  0  0
  7  8  1  0  0  0  0
  9 10  1  0  0  0  0
 10 11  2  0  0  0  0
M  END
>  <CHROM.1>
-21.70015262,-25.31322756,10.79350967,2.81997642,-1.14820941,1.94498168

>  <Name>
ligand

>  <RI>
0

>  <Rbt.Current_Directory>
/home/itssahil/PROJECTS/Mol_Feturizer/New_Systems/rnas/2b57

>  <Rbt.Executable>
rbdock ($Id: //depot/dev/client3/rdock/2013.1/src/exe/rbdock.cxx#4 $)

>  <Rbt.Library>
libRbt.so (2013.1, Build901 2013/11/27)

>  <Rbt.Parameter_File>
/export/apps/rDock/src/rDock_2013.1_src/data/scripts/dock_solv.prm

>  <Rbt.Receptor>
prm/blind_docking_60.prm

>  <SCORE>
-5.5504

>  <SCORE.INTER>
-5.5504

>  <SCORE.INTER.CONST>
1

>  <SCORE.INTER.POLAR>
0

>  <SCORE.INTER.ROT>
0

>  <SCORE.INTER.SOLV>
3.35887

>  <SCORE.INTER.VDW>
-8.41989

>  <SCORE.INTER.norm>
-0.504581

>  <SCORE.INTRA>
0

>  <SCORE.INTRA.DIHEDRAL>
0

>  <SCORE.INTRA.DIHEDRAL.0>
0

>  <SCORE.INTRA.POLAR>
0

>  <SCORE.INTRA.POLAR.0>
0

>  <SCORE.INTRA.REPUL>
0

>  <SCORE.INTRA.REPUL.0>
0

>  <SCORE.INTRA.SOLV>
0

>  <SCORE.INTRA.SOLV.lig_0>
-48.3454

>  <SCORE.INTRA.VDW>
0

>  <SCORE.INTRA.VDW.0>
0

>  <SCORE.INTRA.norm>
0

>  <SCORE.RESTR>
0

>  <SCORE.RESTR.CAVITY>
0

>  <SCORE.RESTR.norm>
0

>  <SCORE.SYSTEM>
0

>  <SCORE.SYSTEM.CONST>
0

>  <SCORE.SYSTEM.DIHEDRAL>
0

>  <SCORE.SYSTEM.SOLV>
0

>  <SCORE.SYSTEM.norm>
0

>  <SCORE.heavy>
11

>  <SCORE.norm>
-0.504581

>  <RMSD>
16.224

$$$$
ligand
 OpenBabel01301917033D
libRbt.so/2013.1/901 2013/11/27
 11 12  0  0  0  0  0  0  0  0999 V2000
  -22.5407  -23.7492   10.0521 N   0  0  0  0  0  0  0  0  0  0  0  0
  -22.3383  -24.0562    8.7608 C   0  0  0  0  0  0  0  0  0  0  0  0
  -22.7673  -23.2305    7.8105 N   0  0  0  0  0  0  0  0  0  0  0  0
  -21.7156  -25.1950    8.4195 N   0  0  0  0  0  0  0  0  0  0  0  0
  -21.2864  -26.0491    9.3603 C   0  0  0  0  0  0  0  0  0  0  0  0
  -21.4831  -25.7557   10.7038 C   0  0  0  0  0  0  0  0  0  0  0  0
  -22.1287  -24.5683   11.0325 C   0  0  0  0  0  0  0  0  0  0  0  0
  -22.3292  -24.2435   12.3063 N   0  0  0  0  0  0  0  0  0  0  0  0
  -20.9816  -26.7638   11.4111 N   0  0  0  0  0  0  0  0  0  0  0  0
  -20.4894  -27.6567   10.5553 C   0  0  0  0  0  0  0  0  0  0  0  0
  -20.6716  -27.2273    9.3083 N   0  0  0  0  0  0  0  0  0  0  0  0
  1  7  2  0  0  0  0
  1  2  1  0  0  0  0
  2  3  1  0  0  0  0
  2  4  2  0  0  0  0
  4  5  1  0  0  0  0
  5  6  2  0  0  0  0
  5 11  1  0  0  0  0
  6  7  1  0  0  0  0
  6  9  1  0  0  0  0
  7  8  1  0  0  0  0
  9 10  1  0  0  0  0
 10 11  2  0  0  0  0
M  END
>  <CHROM.1>
-21.71382355,-25.29701236,9.96712001,2.66074277,1.08244810,-1.52129934

>  <Name>
ligand

>  <RI>
0

>  <Rbt.Current_Directory>
/home/itssahil/PROJECTS/Mol_Feturizer/New_Systems/rnas/2b57

>  <Rbt.Executable>
rbdock ($Id: //depot/dev/client3/rdock/2013.1/src/exe/rbdock.cxx#4 $)

>  <Rbt.Library>
libRbt.so (2013.1, Build901 2013/11/27)

>  <Rbt.Parameter_File>
/export/apps/rDock/src/rDock_2013.1_src/data/scripts/dock_solv.prm

>  <Rbt.Receptor>
prm/blind_docking_100.prm

>  <SCORE>
-6.56339

>  <SCORE.INTER>
-6.56339

>  <SCORE.INTER.CONST>
1

>  <SCORE.INTER.POLAR>
0

>  <SCORE.INTER.ROT>
0

>  <SCORE.INTER.SOLV>
4.75178

>  <SCORE.INTER.VDW>
-9.55952

>  <SCORE.INTER.norm>
-0.596671

>  <SCORE.INTRA>
0

>  <SCORE.INTRA.DIHEDRAL>
0

>  <SCORE.INTRA.DIHEDRAL.0>
0

>  <SCORE.INTRA.POLAR>
0

>  <SCORE.INTRA.POLAR.0>
0

>  <SCORE.INTRA.REPUL>
0

>  <SCORE.INTRA.REPUL.0>
0

>  <SCORE.INTRA.SOLV>
0

>  <SCORE.INTRA.SOLV.lig_0>
-48.3454

>  <SCORE.INTRA.VDW>
0

>  <SCORE.INTRA.VDW.0>
0

>  <SCORE.INTRA.norm>
0

>  <SCORE.RESTR>
0

>  <SCORE.RESTR.CAVITY>
0

>  <SCORE.RESTR.norm>
0

>  <SCORE.SYSTEM>
0

>  <SCORE.SYSTEM.CONST>
0

>  <SCORE.SYSTEM.DIHEDRAL>
0

>  <SCORE.SYSTEM.SOLV>
0

>  <SCORE.SYSTEM.norm>
0

>  <SCORE.heavy>
11

>  <SCORE.norm>
-0.596671

>  <RMSD>
16.275

$$$$
ligand
 OpenBabel01301917033D
libRbt.so/2013.1/901 2013/11/27
 11 12  0  0  0  0  0  0  0  0999 V2000
  -22.5507  -23.7396   10.1480 N   0  0  0  0  0  0  0  0  0  0  0  0
  -22.3770  -24.0185    8.8462 C   0  0  0  0  0  0  0  0  0  0  0  0
  -22.8244  -23.1711    7.9238 N   0  0  0  0  0  0  0  0  0  0  0  0
  -21.7646  -25.1507    8.4665 N   0  0  0  0  0  0  0  0  0  0  0  0
  -21.3173  -26.0262    9.3788 C   0  0  0  0  0  0  0  0  0  0  0  0
  -21.4842  -25.7621   10.7323 C   0  0  0  0  0  0  0  0  0  0  0  0
  -22.1197  -24.5810   11.1010 C   0  0  0  0  0  0  0  0  0  0  0  0
  -22.2918  -24.2839   12.3856 N   0  0  0  0  0  0  0  0  0  0  0  0
  -20.9701  -26.7865   11.4063 N   0  0  0  0  0  0  0  0  0  0  0  0
  -20.4987  -27.6613   10.5205 C   0  0  0  0  0  0  0  0  0  0  0  0
  -20.7067  -27.2041    9.2876 N   0  0  0  0  0  0  0  0  0  0  0  0
  1  7  2  0  0  0  0
  1  2  1  0  0  0  0
  2  3  1  0  0  0  0
  2  4  2  0  0  0  0
  4  5  1  0  0  0  0
  5  6  2  0  0  0  0
  5 11  1  0  0  0  0
  6  7  1  0  0  0  0
  6  9  1  0  0  0  0
  7  8  1  0  0  0  0
  9 10  1  0  0  0  0
 10 11  2  0  0  0  0
M  END
>  <CHROM.1>
-21.72968359,-25.28677621,10.01107554,2.70673391,1.08552299,-1.53991253

>  <Name>
ligand

>  <RI>
0

>  <Rbt.Current_Directory>
/home/itssahil/PROJECTS/Mol_Feturizer/New_Systems/rnas/2b57

>  <Rbt.Executable>
rbdock ($Id: //depot/dev/client3/rdock/2013.1/src/exe/rbdock.cxx#4 $)

>  <Rbt.Library>
libRbt.so (2013.1, Build901 2013/11/27)

>  <Rbt.Parameter_File>
/export/apps/rDock/src/rDock_2013.1_src/data/scripts/dock_solv.prm

>  <Rbt.Receptor>
prm/blind_docking_100.prm

>  <SCORE>
-6.56165

>  <SCORE.INTER>
-6.56165

>  <SCORE.INTER.CONST>
1

>  <SCORE.INTER.POLAR>
0

>  <SCORE.INTER.ROT>
0

>  <SCORE.INTER.SOLV>
4.42073

>  <SCORE.INTER.VDW>
-9.44801

>  <SCORE.INTER.norm>
-0.596514

>  <SCORE.INTRA>
0

>  <SCORE.INTRA.DIHEDRAL>
0

>  <SCORE.INTRA.DIHEDRAL.0>
0

>  <SCORE.INTRA.POLAR>
0

>  <SCORE.INTRA.POLAR.0>
0

>  <SCORE.INTRA.REPUL>
0

>  <SCORE.INTRA.REPUL.0>
0

>  <SCORE.INTRA.SOLV>
0

>  <SCORE.INTRA.SOLV.lig_0>
-48.3454

>  <SCORE.INTRA.VDW>
0

>  <SCORE.INTRA.VDW.0>
0

>  <SCORE.INTRA.norm>
0

>  <SCORE.RESTR>
0

>  <SCORE.RESTR.CAVITY>
0

>  <SCORE.RESTR.norm>
0

>  <SCORE.SYSTEM>
0

>  <SCORE.SYSTEM.CONST>
0

>  <SCORE.SYSTEM.DIHEDRAL>
0

>  <SCORE.SYSTEM.SOLV>
0

>  <SCORE.SYSTEM.norm>
0

>  <SCORE.heavy>
11

>  <SCORE.norm>
-0.596514

>  <RMSD>
16.281

$$$$
ligand
 OpenBabel01301917033D
libRbt.so/2013.1/901 2013/11/27
 11 12  0  0  0  0  0  0  0  0999 V2000
  -22.5502  -23.7484   10.0574 N   0  0  0  0  0  0  0  0  0  0  0  0
  -22.3627  -24.0546    8.7637 C   0  0  0  0  0  0  0  0  0  0  0  0
  -22.8012  -23.2275    7.8189 N   0  0  0  0  0  0  0  0  0  0  0  0
  -21.7453  -25.1939    8.4145 N   0  0  0  0  0  0  0  0  0  0  0  0
  -21.3067  -26.0494    9.3497 C   0  0  0  0  0  0  0  0  0  0  0  0
  -21.4879  -25.7569   10.6956 C   0  0  0  0  0  0  0  0  0  0  0  0
  -22.1283  -24.5689   11.0325 C   0  0  0  0  0  0  0  0  0  0  0  0
  -22.3141  -24.2449   12.3087 N   0  0  0  0  0  0  0  0  0  0  0  0
  -20.9799  -26.7662   11.3964 N   0  0  0  0  0  0  0  0  0  0  0  0
  -20.4985  -27.6590   10.5344 C   0  0  0  0  0  0  0  0  0  0  0  0
  -20.6941  -27.2283    9.2899 N   0  0  0  0  0  0  0  0  0  0  0  0
  1  7  2  0  0  0  0
  1  2  1  0  0  0  0
  2  3  1  0  0  0  0
  2  4  2  0  0  0  0
  4  5  1  0  0  0  0
  5  6  2  0  0  0  0
  5 11  1  0  0  0  0
  6  7  1  0  0  0  0
  6  9  1  0  0  0  0
  7  8  1  0  0  0  0
  9 10  1  0  0  0  0
 10 11  2  0  0  0  0
M  END
>  <CHROM.1>
-21.72632835,-25.29723346,9.96190405,2.68452448,1.08417835,-1.54147621

>  <Name>
ligand

>  <RI>
0

>  <Rbt.Current_Directory>
/home/itssahil/PROJECTS/Mol_Feturizer/New_Systems/rnas/2b57

>  <Rbt.Executable>
rbdock ($Id: //depot/dev/client3/rdock/2013.1/src/exe/rbdock.cxx#4 $)

>  <Rbt.Library>
libRbt.so (2013.1, Build901 2013/11/27)

>  <Rbt.Parameter_File>
/export/apps/rDock/src/rDock_2013.1_src/data/scripts/dock_solv.prm

>  <Rbt.Receptor>
prm/blind_docking_40.prm

>  <SCORE>
-6.57147

>  <SCORE.INTER>
-6.57147

>  <SCORE.INTER.CONST>
1

>  <SCORE.INTER.POLAR>
0

>  <SCORE.INTER.ROT>
0

>  <SCORE.INTER.SOLV>
4.7466

>  <SCORE.INTER.VDW>
-9.56318

>  <SCORE.INTER.norm>
-0.597406

>  <SCORE.INTRA>
0

>  <SCORE.INTRA.DIHEDRAL>
0

>  <SCORE.INTRA.DIHEDRAL.0>
0

>  <SCORE.INTRA.POLAR>
0

>  <SCORE.INTRA.POLAR.0>
0

>  <SCORE.INTRA.REPUL>
0

>  <SCORE.INTRA.REPUL.0>
0

>  <SCORE.INTRA.SOLV>
0

>  <SCORE.INTRA.SOLV.lig_0>
-48.3454

>  <SCORE.INTRA.VDW>
0

>  <SCORE.INTRA.VDW.0>
0

>  <SCORE.INTRA.norm>
0

>  <SCORE.RESTR>
0

>  <SCORE.RESTR.CAVITY>
0

>  <SCORE.RESTR.norm>
0

>  <SCORE.SYSTEM>
0

>  <SCORE.SYSTEM.CONST>
0

>  <SCORE.SYSTEM.DIHEDRAL>
0

>  <SCORE.SYSTEM.SOLV>
0

>  <SCORE.SYSTEM.norm>
0

>  <SCORE.heavy>
11

>  <SCORE.norm>
-0.597406

>  <RMSD>
16.282

$$$$
ligand
 OpenBabel01301917033D
libRbt.so/2013.1/901 2013/11/27
 11 12  0  0  0  0  0  0  0  0999 V2000
  -27.7058  -11.0094    3.0885 N   0  0  0  0  0  0  0  0  0  0  0  0
  -28.5282  -12.0511    2.8856 C   0  0  0  0  0  0  0  0  0  0  0  0
  -29.4198  -12.0064    1.8996 N   0  0  0  0  0  0  0  0  0  0  0  0
  -28.4658  -13.1341    3.6758 N   0  0  0  0  0  0  0  0  0  0  0  0
  -27.5838  -13.1957    4.6844 C   0  0  0  0  0  0  0  0  0  0  0  0
  -26.7214  -12.1317    4.9163 C   0  0  0  0  0  0  0  0  0  0  0  0
  -26.8035  -11.0215    4.0823 C   0  0  0  0  0  0  0  0  0  0  0  0
  -25.9906   -9.9848    4.2626 N   0  0  0  0  0  0  0  0  0  0  0  0
  -25.9740  -12.4449    5.9705 N   0  0  0  0  0  0  0  0  0  0  0  0
  -26.3457  -13.6527    6.3889 C   0  0  0  0  0  0  0  0  0  0  0  0
  -27.3229  -14.1134    5.6109 N   0  0  0  0  0  0  0  0  0  0  0  0
  1  7  2  0  0  0  0
  1  2  1  0  0  0  0
  2  3  1  0  0  0  0
  2  4  2  0  0  0  0
  4  5  1  0  0  0  0
  5  6  2  0  0  0  0
  5 11  1  0  0  0  0
  6  7  1  0  0  0  0
  6  9  1  0  0  0  0
  7  8  1  0  0  0  0
  9 10  1  0  0  0  0
 10 11  2  0  0  0  0
M  END
>  <CHROM.1>
-27.36174067,-12.23846241,4.29588671,-2.32245972,0.73708593,2.54502709

>  <Name>
ligand

>  <RI>
0

>  <Rbt.Current_Directory>
/home/itssahil/PROJECTS/Mol_Feturizer/New_Systems/rnas/2b57

>  <Rbt.Executable>
rbdock ($Id: //depot/dev/client3/rdock/2013.1/src/exe/rbdock.cxx#4 $)

>  <Rbt.Library>
libRbt.so (2013.1, Build901 2013/11/27)

>  <Rbt.Parameter_File>
/export/apps/rDock/src/rDock_2013.1_src/data/scripts/dock_solv.prm

>  <Rbt.Receptor>
prm/blind_docking_100.prm

>  <SCORE>
-5.21599

>  <SCORE.INTER>
-5.21614

>  <SCORE.INTER.CONST>
1

>  <SCORE.INTER.POLAR>
0

>  <SCORE.INTER.ROT>
0

>  <SCORE.INTER.SOLV>
10.9605

>  <SCORE.INTER.VDW>
-10.7309

>  <SCORE.INTER.norm>
-0.474194

>  <SCORE.INTRA>
0

>  <SCORE.INTRA.DIHEDRAL>
0

>  <SCORE.INTRA.DIHEDRAL.0>
0

>  <SCORE.INTRA.POLAR>
0

>  <SCORE.INTRA.POLAR.0>
0

>  <SCORE.INTRA.REPUL>
0

>  <SCORE.INTRA.REPUL.0>
0

>  <SCORE.INTRA.SOLV>
0

>  <SCORE.INTRA.SOLV.lig_0>
-48.3454

>  <SCORE.INTRA.VDW>
0

>  <SCORE.INTRA.VDW.0>
0

>  <SCORE.INTRA.norm>
0

>  <SCORE.RESTR>
0.000148698

>  <SCORE.RESTR.CAVITY>
0.000148698

>  <SCORE.RESTR.norm>
1.3518e-05

>  <SCORE.SYSTEM>
0

>  <SCORE.SYSTEM.CONST>
0

>  <SCORE.SYSTEM.DIHEDRAL>
0

>  <SCORE.SYSTEM.SOLV>
0

>  <SCORE.SYSTEM.norm>
0

>  <SCORE.heavy>
11

>  <SCORE.norm>
-0.474181

>  <RMSD>
16.540

$$$$
ligand
 OpenBabel01301917033D
libRbt.so/2013.1/901 2013/11/27
 11 12  0  0  0  0  0  0  0  0999 V2000
  -26.6604  -11.1689    4.2532 N   0  0  0  0  0  0  0  0  0  0  0  0
  -27.2828  -11.6292    5.3502 C   0  0  0  0  0  0  0  0  0  0  0  0
  -27.3635  -12.9397    5.5628 N   0  0  0  0  0  0  0  0  0  0  0  0
  -27.8339  -10.7786    6.2299 N   0  0  0  0  0  0  0  0  0  0  0  0
  -27.7765   -9.4537    6.0291 C   0  0  0  0  0  0  0  0  0  0  0  0
  -27.1386   -8.9509    4.9022 C   0  0  0  0  0  0  0  0  0  0  0  0
  -26.5729   -9.8523    4.0065 C   0  0  0  0  0  0  0  0  0  0  0  0
  -25.9444   -9.4141    2.9197 N   0  0  0  0  0  0  0  0  0  0  0  0
  -27.2400   -7.6258    4.9428 N   0  0  0  0  0  0  0  0  0  0  0  0
  -27.9123   -7.3023    6.0452 C   0  0  0  0  0  0  0  0  0  0  0  0
  -28.2401   -8.4089    6.7089 N   0  0  0  0  0  0  0  0  0  0  0  0
  1  7  2  0  0  0  0
  1  2  1  0  0  0  0
  2  3  1  0  0  0  0
  2  4  2  0  0  0  0
  4  5  1  0  0  0  0
  5  6  2  0  0  0  0
  5 11  1  0  0  0  0
  6  7  1  0  0  0  0
  6  9  1  0  0  0  0
  7  8  1  0  0  0  0
  9 10  1  0  0  0  0
 10 11  2  0  0  0  0
M  END
>  <CHROM.1>
-27.26495696,-9.79830505,5.17114102,-1.31336203,1.03475724,-0.07905839

>  <Name>
ligand

>  <RI>
0

>  <Rbt.Current_Directory>
/home/itssahil/PROJECTS/Mol_Feturizer/New_Systems/rnas/2b57

>  <Rbt.Executable>
rbdock ($Id: //depot/dev/client3/rdock/2013.1/src/exe/rbdock.cxx#4 $)

>  <Rbt.Library>
libRbt.so (2013.1, Build901 2013/11/27)

>  <Rbt.Parameter_File>
/export/apps/rDock/src/rDock_2013.1_src/data/scripts/dock_solv.prm

>  <Rbt.Receptor>
prm/blind_docking_80.prm

>  <SCORE>
-6.17503

>  <SCORE.INTER>
-6.17503

>  <SCORE.INTER.CONST>
1

>  <SCORE.INTER.POLAR>
0

>  <SCORE.INTER.ROT>
0

>  <SCORE.INTER.SOLV>
2.80411

>  <SCORE.INTER.VDW>
-8.65139

>  <SCORE.INTER.norm>
-0.561367

>  <SCORE.INTRA>
0

>  <SCORE.INTRA.DIHEDRAL>
0

>  <SCORE.INTRA.DIHEDRAL.0>
0

>  <SCORE.INTRA.POLAR>
0

>  <SCORE.INTRA.POLAR.0>
0

>  <SCORE.INTRA.REPUL>
0

>  <SCORE.INTRA.REPUL.0>
0

>  <SCORE.INTRA.SOLV>
0

>  <SCORE.INTRA.SOLV.lig_0>
-48.3454

>  <SCORE.INTRA.VDW>
0

>  <SCORE.INTRA.VDW.0>
0

>  <SCORE.INTRA.norm>
0

>  <SCORE.RESTR>
0

>  <SCORE.RESTR.CAVITY>
0

>  <SCORE.RESTR.norm>
0

>  <SCORE.SYSTEM>
0

>  <SCORE.SYSTEM.CONST>
0

>  <SCORE.SYSTEM.DIHEDRAL>
0

>  <SCORE.SYSTEM.SOLV>
0

>  <SCORE.SYSTEM.norm>
0

>  <SCORE.heavy>
11

>  <SCORE.norm>
-0.561367

>  <RMSD>
16.572

$$$$
ligand
 OpenBabel01301917033D
libRbt.so/2013.1/901 2013/11/27
 11 12  0  0  0  0  0  0  0  0999 V2000
  -26.9306  -11.3326    7.0273 N   0  0  0  0  0  0  0  0  0  0  0  0
  -27.3404  -10.7990    8.1892 C   0  0  0  0  0  0  0  0  0  0  0  0
  -27.2885  -11.5236    9.3034 N   0  0  0  0  0  0  0  0  0  0  0  0
  -27.8120   -9.5434    8.2350 N   0  0  0  0  0  0  0  0  0  0  0  0
  -27.8861   -8.7989    7.1219 C   0  0  0  0  0  0  0  0  0  0  0  0
  -27.4688   -9.3267    5.9066 C   0  0  0  0  0  0  0  0  0  0  0  0
  -26.9815  -10.6293    5.8850 C   0  0  0  0  0  0  0  0  0  0  0  0
  -26.5624  -11.1706    4.7450 N   0  0  0  0  0  0  0  0  0  0  0  0
  -27.6623   -8.3948    4.9780 N   0  0  0  0  0  0  0  0  0  0  0  0
  -28.1794   -7.3243    5.5769 C   0  0  0  0  0  0  0  0  0  0  0  0
  -28.3170   -7.5643    6.8792 N   0  0  0  0  0  0  0  0  0  0  0  0
  1  7  2  0  0  0  0
  1  2  1  0  0  0  0
  2  3  1  0  0  0  0
  2  4  2  0  0  0  0
  4  5  1  0  0  0  0
  5  6  2  0  0  0  0
  5 11  1  0  0  0  0
  6  7  1  0  0  0  0
  6  9  1  0  0  0  0
  7  8  1  0  0  0  0
  9 10  1  0  0  0  0
 10 11  2  0  0  0  0
M  END
>  <CHROM.1>
-27.48816497,-9.69404036,6.72569166,-1.08570418,1.17403508,-1.11487311

>  <Name>
ligand

>  <RI>
0

>  <Rbt.Current_Directory>
/home/itssahil/PROJECTS/Mol_Feturizer/New_Systems/rnas/2b57

>  <Rbt.Executable>
rbdock ($Id: //depot/dev/client3/rdock/2013.1/src/exe/rbdock.cxx#4 $)

>  <Rbt.Library>
libRbt.so (2013.1, Build901 2013/11/27)

>  <Rbt.Parameter_File>
/export/apps/rDock/src/rDock_2013.1_src/data/scripts/dock_solv.prm

>  <Rbt.Receptor>
prm/blind_docking_40.prm

>  <SCORE>
-5.44671

>  <SCORE.INTER>
-5.44671

>  <SCORE.INTER.CONST>
1

>  <SCORE.INTER.POLAR>
0

>  <SCORE.INTER.ROT>
0

>  <SCORE.INTER.SOLV>
4.63844

>  <SCORE.INTER.VDW>
-8.77729

>  <SCORE.INTER.norm>
-0.495156

>  <SCORE.INTRA>
0

>  <SCORE.INTRA.DIHEDRAL>
0

>  <SCORE.INTRA.DIHEDRAL.0>
0

>  <SCORE.INTRA.POLAR>
0

>  <SCORE.INTRA.POLAR.0>
0

>  <SCORE.INTRA.REPUL>
0

>  <SCORE.INTRA.REPUL.0>
0

>  <SCORE.INTRA.SOLV>
0

>  <SCORE.INTRA.SOLV.lig_0>
-48.3454

>  <SCORE.INTRA.VDW>
0

>  <SCORE.INTRA.VDW.0>
0

>  <SCORE.INTRA.norm>
0

>  <SCORE.RESTR>
0

>  <SCORE.RESTR.CAVITY>
0

>  <SCORE.RESTR.norm>
0

>  <SCORE.SYSTEM>
0

>  <SCORE.SYSTEM.CONST>
0

>  <SCORE.SYSTEM.DIHEDRAL>
0

>  <SCORE.SYSTEM.SOLV>
0

>  <SCORE.SYSTEM.norm>
0

>  <SCORE.heavy>
11

>  <SCORE.norm>
-0.495156

>  <RMSD>
16.575

$$$$
ligand
 OpenBabel01301917033D
libRbt.so/2013.1/901 2013/11/27
 11 12  0  0  0  0  0  0  0  0999 V2000
  -26.6677  -11.1670    4.2344 N   0  0  0  0  0  0  0  0  0  0  0  0
  -27.3072  -11.6309    5.3200 C   0  0  0  0  0  0  0  0  0  0  0  0
  -27.4054  -12.9424    5.5186 N   0  0  0  0  0  0  0  0  0  0  0  0
  -27.8579  -10.7827    6.2023 N   0  0  0  0  0  0  0  0  0  0  0  0
  -27.7830   -9.4566    6.0156 C   0  0  0  0  0  0  0  0  0  0  0  0
  -27.1272   -8.9501    4.9008 C   0  0  0  0  0  0  0  0  0  0  0  0
  -26.5624   -9.8491    4.0020 C   0  0  0  0  0  0  0  0  0  0  0  0
  -25.9171   -9.4073    2.9266 N   0  0  0  0  0  0  0  0  0  0  0  0
  -27.2137   -7.6243    4.9536 N   0  0  0  0  0  0  0  0  0  0  0  0
  -27.8940   -7.3041    6.0521 C   0  0  0  0  0  0  0  0  0  0  0  0
  -28.2418   -8.4133    6.7009 N   0  0  0  0  0  0  0  0  0  0  0  0
  1  7  2  0  0  0  0
  1  2  1  0  0  0  0
  2  3  1  0  0  0  0
  2  4  2  0  0  0  0
  4  5  1  0  0  0  0
  5  6  2  0  0  0  0
  5 11  1  0  0  0  0
  6  7  1  0  0  0  0
  6  9  1  0  0  0  0
  7  8  1  0  0  0  0
  9 10  1  0  0  0  0
 10 11  2  0  0  0  0
M  END
>  <CHROM.1>
-27.26623435,-9.79860963,5.15971788,-1.33722664,1.02478190,-0.04854929

>  <Name>
ligand

>  <RI>
0

>  <Rbt.Current_Directory>
/home/itssahil/PROJECTS/Mol_Feturizer/New_Systems/rnas/2b57

>  <Rbt.Executable>
rbdock ($Id: //depot/dev/client3/rdock/2013.1/src/exe/rbdock.cxx#4 $)

>  <Rbt.Library>
libRbt.so (2013.1, Build901 2013/11/27)

>  <Rbt.Parameter_File>
/export/apps/rDock/src/rDock_2013.1_src/data/scripts/dock_solv.prm

>  <Rbt.Receptor>
prm/blind_docking_60.prm

>  <SCORE>
-6.14969

>  <SCORE.INTER>
-6.14969

>  <SCORE.INTER.CONST>
1

>  <SCORE.INTER.POLAR>
0

>  <SCORE.INTER.ROT>
0

>  <SCORE.INTER.SOLV>
2.77136

>  <SCORE.INTER.VDW>
-8.62358

>  <SCORE.INTER.norm>
-0.559063

>  <SCORE.INTRA>
0

>  <SCORE.INTRA.DIHEDRAL>
0

>  <SCORE.INTRA.DIHEDRAL.0>
0

>  <SCORE.INTRA.POLAR>
0

>  <SCORE.INTRA.POLAR.0>
0

>  <SCORE.INTRA.REPUL>
0

>  <SCORE.INTRA.REPUL.0>
0

>  <SCORE.INTRA.SOLV>
0

>  <SCORE.INTRA.SOLV.lig_0>
-48.3454

>  <SCORE.INTRA.VDW>
0

>  <SCORE.INTRA.VDW.0>
0

>  <SCORE.INTRA.norm>
0

>  <SCORE.RESTR>
0

>  <SCORE.RESTR.CAVITY>
0

>  <SCORE.RESTR.norm>
0

>  <SCORE.SYSTEM>
0

>  <SCORE.SYSTEM.CONST>
0

>  <SCORE.SYSTEM.DIHEDRAL>
0

>  <SCORE.SYSTEM.SOLV>
0

>  <SCORE.SYSTEM.norm>
0

>  <SCORE.heavy>
11

>  <SCORE.norm>
-0.559063

>  <RMSD>
16.576

$$$$
ligand
 OpenBabel01301917033D
libRbt.so/2013.1/901 2013/11/27
 11 12  0  0  0  0  0  0  0  0999 V2000
  -26.9397  -11.3284    7.0299 N   0  0  0  0  0  0  0  0  0  0  0  0
  -27.3666  -10.8148    8.1947 C   0  0  0  0  0  0  0  0  0  0  0  0
  -27.3235  -11.5557    9.2985 N   0  0  0  0  0  0  0  0  0  0  0  0
  -27.8464   -9.5629    8.2536 N   0  0  0  0  0  0  0  0  0  0  0  0
  -27.9118   -8.8022    7.1509 C   0  0  0  0  0  0  0  0  0  0  0  0
  -27.4769   -9.3091    5.9330 C   0  0  0  0  0  0  0  0  0  0  0  0
  -26.9813  -10.6084    5.8978 C   0  0  0  0  0  0  0  0  0  0  0  0
  -26.5454  -11.1300    4.7550 N   0  0  0  0  0  0  0  0  0  0  0  0
  -27.6650   -8.3646    5.0162 N   0  0  0  0  0  0  0  0  0  0  0  0
  -28.1958   -7.3063    5.6248 C   0  0  0  0  0  0  0  0  0  0  0  0
  -28.3473   -7.5667    6.9216 N   0  0  0  0  0  0  0  0  0  0  0  0
  1  7  2  0  0  0  0
  1  2  1  0  0  0  0
  2  3  1  0  0  0  0
  2  4  2  0  0  0  0
  4  5  1  0  0  0  0
  5  6  2  0  0  0  0
  5 11  1  0  0  0  0
  6  7  1  0  0  0  0
  6  9  1  0  0  0  0
  7  8  1  0  0  0  0
  9 10  1  0  0  0  0
 10 11  2  0  0  0  0
M  END
>  <CHROM.1>
-27.50371088,-9.68886692,6.74622620,-1.10582391,1.16323015,-1.08138622

>  <Name>
ligand

>  <RI>
0

>  <Rbt.Current_Directory>
/home/itssahil/PROJECTS/Mol_Feturizer/New_Systems/rnas/2b57

>  <Rbt.Executable>
rbdock ($Id: //depot/dev/client3/rdock/2013.1/src/exe/rbdock.cxx#4 $)

>  <Rbt.Library>
libRbt.so (2013.1, Build901 2013/11/27)

>  <Rbt.Parameter_File>
/export/apps/rDock/src/rDock_2013.1_src/data/scripts/dock_solv.prm

>  <Rbt.Receptor>
prm/blind_docking_40.prm

>  <SCORE>
-5.39207

>  <SCORE.INTER>
-5.39207

>  <SCORE.INTER.CONST>
1

>  <SCORE.INTER.POLAR>
0

>  <SCORE.INTER.ROT>
0

>  <SCORE.INTER.SOLV>
4.51777

>  <SCORE.INTER.VDW>
-8.70064

>  <SCORE.INTER.norm>
-0.490188

>  <SCORE.INTRA>
0

>  <SCORE.INTRA.DIHEDRAL>
0

>  <SCORE.INTRA.DIHEDRAL.0>
0

>  <SCORE.INTRA.POLAR>
0

>  <SCORE.INTRA.POLAR.0>
0

>  <SCORE.INTRA.REPUL>
0

>  <SCORE.INTRA.REPUL.0>
0

>  <SCORE.INTRA.SOLV>
0

>  <SCORE.INTRA.SOLV.lig_0>
-48.3454

>  <SCORE.INTRA.VDW>
0

>  <SCORE.INTRA.VDW.0>
0

>  <SCORE.INTRA.norm>
0

>  <SCORE.RESTR>
0

>  <SCORE.RESTR.CAVITY>
0

>  <SCORE.RESTR.norm>
0

>  <SCORE.SYSTEM>
0

>  <SCORE.SYSTEM.CONST>
0

>  <SCORE.SYSTEM.DIHEDRAL>
0

>  <SCORE.SYSTEM.SOLV>
0

>  <SCORE.SYSTEM.norm>
0

>  <SCORE.heavy>
11

>  <SCORE.norm>
-0.490188

>  <RMSD>
16.590

$$$$
ligand
 OpenBabel01301917033D
libRbt.so/2013.1/901 2013/11/27
 11 12  0  0  0  0  0  0  0  0999 V2000
  -26.1649  -10.8810    5.1305 N   0  0  0  0  0  0  0  0  0  0  0  0
  -25.8774  -10.0477    4.1178 C   0  0  0  0  0  0  0  0  0  0  0  0
  -24.8884   -9.1678    4.2470 N   0  0  0  0  0  0  0  0  0  0  0  0
  -26.5862  -10.0876    2.9788 N   0  0  0  0  0  0  0  0  0  0  0  0
  -27.5964  -10.9574    2.8312 C   0  0  0  0  0  0  0  0  0  0  0  0
  -27.9149  -11.8306    3.8635 C   0  0  0  0  0  0  0  0  0  0  0  0
  -27.1642  -11.7720    5.0331 C   0  0  0  0  0  0  0  0  0  0  0  0
  -27.4287  -12.5960    6.0427 N   0  0  0  0  0  0  0  0  0  0  0  0
  -28.9507  -12.5622    3.4636 N   0  0  0  0  0  0  0  0  0  0  0  0
  -29.2751  -12.1706    2.2334 C   0  0  0  0  0  0  0  0  0  0  0  0
  -28.4553  -11.1963    1.8444 N   0  0  0  0  0  0  0  0  0  0  0  0
  1  7  2  0  0  0  0
  1  2  1  0  0  0  0
  2  3  1  0  0  0  0
  2  4  2  0  0  0  0
  4  5  1  0  0  0  0
  5  6  2  0  0  0  0
  5 11  1  0  0  0  0
  6  7  1  0  0  0  0
  6  9  1  0  0  0  0
  7  8  1  0  0  0  0
  9 10  1  0  0  0  0
 10 11  2  0  0  0  0
M  END
>  <CHROM.1>
-27.28180222,-11.19594882,3.81139604,0.11673428,0.68759032,2.08312101

>  <Name>
ligand

>  <RI>
0

>  <Rbt.Current_Directory>
/home/itssahil/PROJECTS/Mol_Feturizer/New_Systems/rnas/2b57

>  <Rbt.Executable>
rbdock ($Id: //depot/dev/client3/rdock/2013.1/src/exe/rbdock.cxx#4 $)

>  <Rbt.Library>
libRbt.so (2013.1, Build901 2013/11/27)

>  <Rbt.Parameter_File>
/export/apps/rDock/src/rDock_2013.1_src/data/scripts/dock_solv.prm

>  <Rbt.Receptor>
prm/blind_docking_60.prm

>  <SCORE>
-6.84297

>  <SCORE.INTER>
-6.84297

>  <SCORE.INTER.CONST>
1

>  <SCORE.INTER.POLAR>
0

>  <SCORE.INTER.ROT>
0

>  <SCORE.INTER.SOLV>
4.15217

>  <SCORE.INTER.VDW>
-9.54603

>  <SCORE.INTER.norm>
-0.622088

>  <SCORE.INTRA>
0

>  <SCORE.INTRA.DIHEDRAL>
0

>  <SCORE.INTRA.DIHEDRAL.0>
0

>  <SCORE.INTRA.POLAR>
0

>  <SCORE.INTRA.POLAR.0>
0

>  <SCORE.INTRA.REPUL>
0

>  <SCORE.INTRA.REPUL.0>
0

>  <SCORE.INTRA.SOLV>
0

>  <SCORE.INTRA.SOLV.lig_0>
-48.3454

>  <SCORE.INTRA.VDW>
0

>  <SCORE.INTRA.VDW.0>
0

>  <SCORE.INTRA.norm>
0

>  <SCORE.RESTR>
0

>  <SCORE.RESTR.CAVITY>
0

>  <SCORE.RESTR.norm>
0

>  <SCORE.SYSTEM>
0

>  <SCORE.SYSTEM.CONST>
0

>  <SCORE.SYSTEM.DIHEDRAL>
0

>  <SCORE.SYSTEM.SOLV>
0

>  <SCORE.SYSTEM.norm>
0

>  <SCORE.heavy>
11

>  <SCORE.norm>
-0.622088

>  <RMSD>
16.635

$$$$
ligand
 OpenBabel01301917033D
libRbt.so/2013.1/901 2013/11/27
 11 12  0  0  0  0  0  0  0  0999 V2000
  -26.6690  -12.1566    5.3475 N   0  0  0  0  0  0  0  0  0  0  0  0
  -27.4292  -13.2630    5.3216 C   0  0  0  0  0  0  0  0  0  0  0  0
  -27.3049  -14.1724    6.2841 N   0  0  0  0  0  0  0  0  0  0  0  0
  -28.3069  -13.4649    4.3266 N   0  0  0  0  0  0  0  0  0  0  0  0
  -28.4396  -12.5680    3.3382 C   0  0  0  0  0  0  0  0  0  0  0  0
  -27.6652  -11.4148    3.3409 C   0  0  0  0  0  0  0  0  0  0  0  0
  -26.7645  -11.2268    4.3840 C   0  0  0  0  0  0  0  0  0  0  0  0
  -26.0104  -10.1326    4.4310 N   0  0  0  0  0  0  0  0  0  0  0  0
  -27.9828  -10.7170    2.2545 N   0  0  0  0  0  0  0  0  0  0  0  0
  -28.9161  -11.3969    1.5922 C   0  0  0  0  0  0  0  0  0  0  0  0
  -29.1975  -12.5218    2.2464 N   0  0  0  0  0  0  0  0  0  0  0  0
  1  7  2  0  0  0  0
  1  2  1  0  0  0  0
  2  3  1  0  0  0  0
  2  4  2  0  0  0  0
  4  5  1  0  0  0  0
  5  6  2  0  0  0  0
  5 11  1  0  0  0  0
  6  7  1  0  0  0  0
  6  9  1  0  0  0  0
  7  8  1  0  0  0  0
  9 10  1  0  0  0  0
 10 11  2  0  0  0  0
M  END
>  <CHROM.1>
-27.68874368,-12.10238972,3.91788359,-1.08964175,-0.79004312,-0.73402300

>  <Name>
ligand

>  <RI>
0

>  <Rbt.Current_Directory>
/home/itssahil/PROJECTS/Mol_Feturizer/New_Systems/rnas/2b57

>  <Rbt.Executable>
rbdock ($Id: //depot/dev/client3/rdock/2013.1/src/exe/rbdock.cxx#4 $)

>  <Rbt.Library>
libRbt.so (2013.1, Build901 2013/11/27)

>  <Rbt.Parameter_File>
/export/apps/rDock/src/rDock_2013.1_src/data/scripts/dock_solv.prm

>  <Rbt.Receptor>
prm/blind_docking_80.prm

>  <SCORE>
-7.33066

>  <SCORE.INTER>
-7.33066

>  <SCORE.INTER.CONST>
1

>  <SCORE.INTER.POLAR>
0

>  <SCORE.INTER.ROT>
0

>  <SCORE.INTER.SOLV>
5.34404

>  <SCORE.INTER.VDW>
-10.2685

>  <SCORE.INTER.norm>
-0.666424

>  <SCORE.INTRA>
0

>  <SCORE.INTRA.DIHEDRAL>
0

>  <SCORE.INTRA.DIHEDRAL.0>
0

>  <SCORE.INTRA.POLAR>
0

>  <SCORE.INTRA.POLAR.0>
0

>  <SCORE.INTRA.REPUL>
0

>  <SCORE.INTRA.REPUL.0>
0

>  <SCORE.INTRA.SOLV>
0

>  <SCORE.INTRA.SOLV.lig_0>
-48.3454

>  <SCORE.INTRA.VDW>
0

>  <SCORE.INTRA.VDW.0>
0

>  <SCORE.INTRA.norm>
0

>  <SCORE.RESTR>
0

>  <SCORE.RESTR.CAVITY>
0

>  <SCORE.RESTR.norm>
0

>  <SCORE.SYSTEM>
0

>  <SCORE.SYSTEM.CONST>
0

>  <SCORE.SYSTEM.DIHEDRAL>
0

>  <SCORE.SYSTEM.SOLV>
0

>  <SCORE.SYSTEM.norm>
0

>  <SCORE.heavy>
11

>  <SCORE.norm>
-0.666424

>  <RMSD>
16.726

$$$$
ligand
 OpenBabel01301917033D
libRbt.so/2013.1/901 2013/11/27
 11 12  0  0  0  0  0  0  0  0999 V2000
  -26.1618  -11.0446    4.8322 N   0  0  0  0  0  0  0  0  0  0  0  0
  -25.8688  -10.1540    3.8710 C   0  0  0  0  0  0  0  0  0  0  0  0
  -24.8351   -9.3314    4.0257 N   0  0  0  0  0  0  0  0  0  0  0  0
  -26.6163  -10.0792    2.7589 N   0  0  0  0  0  0  0  0  0  0  0  0
  -27.6713  -10.8895    2.5874 C   0  0  0  0  0  0  0  0  0  0  0  0
  -27.9965  -11.8198    3.5664 C   0  0  0  0  0  0  0  0  0  0  0  0
  -27.2052  -11.8800    4.7088 C   0  0  0  0  0  0  0  0  0  0  0  0
  -27.4749  -12.7620    5.6666 N   0  0  0  0  0  0  0  0  0  0  0  0
  -29.0788  -12.4729    3.1541 N   0  0  0  0  0  0  0  0  0  0  0  0
  -29.4251  -11.9790    1.9674 C   0  0  0  0  0  0  0  0  0  0  0  0
  -28.5732  -11.0173    1.6184 N   0  0  0  0  0  0  0  0  0  0  0  0
  1  7  2  0  0  0  0
  1  2  1  0  0  0  0
  2  3  1  0  0  0  0
  2  4  2  0  0  0  0
  4  5  1  0  0  0  0
  5  6  2  0  0  0  0
  5 11  1  0  0  0  0
  6  7  1  0  0  0  0
  6  9  1  0  0  0  0
  7  8  1  0  0  0  0
  9 10  1  0  0  0  0
 10 11  2  0  0  0  0
M  END
>  <CHROM.1>
-27.33591841,-11.21232790,3.53604993,0.10966924,0.62951695,2.15909224

>  <Name>
ligand

>  <RI>
0

>  <Rbt.Current_Directory>
/home/itssahil/PROJECTS/Mol_Feturizer/New_Systems/rnas/2b57

>  <Rbt.Executable>
rbdock ($Id: //depot/dev/client3/rdock/2013.1/src/exe/rbdock.cxx#4 $)

>  <Rbt.Library>
libRbt.so (2013.1, Build901 2013/11/27)

>  <Rbt.Parameter_File>
/export/apps/rDock/src/rDock_2013.1_src/data/scripts/dock_solv.prm

>  <Rbt.Receptor>
prm/blind_docking_40.prm

>  <SCORE>
-7.18336

>  <SCORE.INTER>
-7.18336

>  <SCORE.INTER.CONST>
1

>  <SCORE.INTER.POLAR>
0

>  <SCORE.INTER.ROT>
0

>  <SCORE.INTER.SOLV>
5.28324

>  <SCORE.INTER.VDW>
-10.15

>  <SCORE.INTER.norm>
-0.653032

>  <SCORE.INTRA>
0

>  <SCORE.INTRA.DIHEDRAL>
0

>  <SCORE.INTRA.DIHEDRAL.0>
0

>  <SCORE.INTRA.POLAR>
0

>  <SCORE.INTRA.POLAR.0>
0

>  <SCORE.INTRA.REPUL>
0

>  <SCORE.INTRA.REPUL.0>
0

>  <SCORE.INTRA.SOLV>
0

>  <SCORE.INTRA.SOLV.lig_0>
-48.3454

>  <SCORE.INTRA.VDW>
0

>  <SCORE.INTRA.VDW.0>
0

>  <SCORE.INTRA.norm>
0

>  <SCORE.RESTR>
0

>  <SCORE.RESTR.CAVITY>
0

>  <SCORE.RESTR.norm>
0

>  <SCORE.SYSTEM>
0

>  <SCORE.SYSTEM.CONST>
0

>  <SCORE.SYSTEM.DIHEDRAL>
0

>  <SCORE.SYSTEM.SOLV>
0

>  <SCORE.SYSTEM.norm>
0

>  <SCORE.heavy>
11

>  <SCORE.norm>
-0.653032

>  <RMSD>
16.757

$$$$
ligand
 OpenBabel01301917033D
libRbt.so/2013.1/901 2013/11/27
 11 12  0  0  0  0  0  0  0  0999 V2000
  -26.6585  -10.6169    3.7463 N   0  0  0  0  0  0  0  0  0  0  0  0
  -26.5376   -9.4398    3.1117 C   0  0  0  0  0  0  0  0  0  0  0  0
  -26.0670   -9.4053    1.8681 N   0  0  0  0  0  0  0  0  0  0  0  0
  -26.8778   -8.2956    3.7249 N   0  0  0  0  0  0  0  0  0  0  0  0
  -27.3419   -8.3050    4.9833 C   0  0  0  0  0  0  0  0  0  0  0  0
  -27.4767   -9.5091    5.6628 C   0  0  0  0  0  0  0  0  0  0  0  0
  -27.1200  -10.6818    5.0052 C   0  0  0  0  0  0  0  0  0  0  0  0
  -27.2421  -11.8572    5.6148 N   0  0  0  0  0  0  0  0  0  0  0  0
  -27.9368   -9.2328    6.8793 N   0  0  0  0  0  0  0  0  0  0  0  0
  -28.0868   -7.9130    6.9679 C   0  0  0  0  0  0  0  0  0  0  0  0
  -27.7272   -7.3448    5.8189 N   0  0  0  0  0  0  0  0  0  0  0  0
  1  7  2  0  0  0  0
  1  2  1  0  0  0  0
  2  3  1  0  0  0  0
  2  4  2  0  0  0  0
  4  5  1  0  0  0  0
  5  6  2  0  0  0  0
  5 11  1  0  0  0  0
  6  7  1  0  0  0  0
  6  9  1  0  0  0  0
  7  8  1  0  0  0  0
  9 10  1  0  0  0  0
 10 11  2  0  0  0  0
M  END
>  <CHROM.1>
-27.17979370,-9.33831481,4.83269862,0.10513891,-1.20750132,2.89782175

>  <Name>
ligand

>  <RI>
0

>  <Rbt.Current_Directory>
/home/itssahil/PROJECTS/Mol_Feturizer/New_Systems/rnas/2b57

>  <Rbt.Executable>
rbdock ($Id: //depot/dev/client3/rdock/2013.1/src/exe/rbdock.cxx#4 $)

>  <Rbt.Library>
libRbt.so (2013.1, Build901 2013/11/27)

>  <Rbt.Parameter_File>
/export/apps/rDock/src/rDock_2013.1_src/data/scripts/dock_solv.prm

>  <Rbt.Receptor>
prm/blind_docking_100.prm

>  <SCORE>
-6.07917

>  <SCORE.INTER>
-6.07917

>  <SCORE.INTER.CONST>
1

>  <SCORE.INTER.POLAR>
0

>  <SCORE.INTER.ROT>
0

>  <SCORE.INTER.SOLV>
3.04547

>  <SCORE.INTER.VDW>
-8.66794

>  <SCORE.INTER.norm>
-0.552652

>  <SCORE.INTRA>
0

>  <SCORE.INTRA.DIHEDRAL>
0

>  <SCORE.INTRA.DIHEDRAL.0>
0

>  <SCORE.INTRA.POLAR>
0

>  <SCORE.INTRA.POLAR.0>
0

>  <SCORE.INTRA.REPUL>
0

>  <SCORE.INTRA.REPUL.0>
0

>  <SCORE.INTRA.SOLV>
0

>  <SCORE.INTRA.SOLV.lig_0>
-48.3454

>  <SCORE.INTRA.VDW>
0

>  <SCORE.INTRA.VDW.0>
0

>  <SCORE.INTRA.norm>
0

>  <SCORE.RESTR>
0

>  <SCORE.RESTR.CAVITY>
0

>  <SCORE.RESTR.norm>
0

>  <SCORE.SYSTEM>
0

>  <SCORE.SYSTEM.CONST>
0

>  <SCORE.SYSTEM.DIHEDRAL>
0

>  <SCORE.SYSTEM.SOLV>
0

>  <SCORE.SYSTEM.norm>
0

>  <SCORE.heavy>
11

>  <SCORE.norm>
-0.552652

>  <RMSD>
16.857

$$$$
ligand
 OpenBabel01301917033D
libRbt.so/2013.1/901 2013/11/27
 11 12  0  0  0  0  0  0  0  0999 V2000
  -26.7961   -9.6260    3.3251 N   0  0  0  0  0  0  0  0  0  0  0  0
  -27.0488   -8.3628    2.9469 C   0  0  0  0  0  0  0  0  0  0  0  0
  -26.8426   -7.9975    1.6847 N   0  0  0  0  0  0  0  0  0  0  0  0
  -27.4983   -7.4617    3.8340 N   0  0  0  0  0  0  0  0  0  0  0  0
  -27.7007   -7.8040    5.1149 C   0  0  0  0  0  0  0  0  0  0  0  0
  -27.4470   -9.1043    5.5327 C   0  0  0  0  0  0  0  0  0  0  0  0
  -26.9842  -10.0208    4.5943 C   0  0  0  0  0  0  0  0  0  0  0  0
  -26.7377  -11.2784    4.9488 N   0  0  0  0  0  0  0  0  0  0  0  0
  -27.7137   -9.1658    6.8339 N   0  0  0  0  0  0  0  0  0  0  0  0
  -28.1179   -7.9591    7.2242 C   0  0  0  0  0  0  0  0  0  0  0  0
  -28.1122   -7.1283    6.1839 N   0  0  0  0  0  0  0  0  0  0  0  0
  1  7  2  0  0  0  0
  1  2  1  0  0  0  0
  2  3  1  0  0  0  0
  2  4  2  0  0  0  0
  4  5  1  0  0  0  0
  5  6  2  0  0  0  0
  5 11  1  0  0  0  0
  6  7  1  0  0  0  0
  6  9  1  0  0  0  0
  7  8  1  0  0  0  0
  9 10  1  0  0  0  0
 10 11  2  0  0  0  0
M  END
>  <CHROM.1>
-27.35691217,-8.72372732,4.72438648,-0.75619995,-1.23486297,2.28288853

>  <Name>
ligand

>  <RI>
0

>  <Rbt.Current_Directory>
/home/itssahil/PROJECTS/Mol_Feturizer/New_Systems/rnas/2b57

>  <Rbt.Executable>
rbdock ($Id: //depot/dev/client3/rdock/2013.1/src/exe/rbdock.cxx#4 $)

>  <Rbt.Library>
libRbt.so (2013.1, Build901 2013/11/27)

>  <Rbt.Parameter_File>
/export/apps/rDock/src/rDock_2013.1_src/data/scripts/dock_solv.prm

>  <Rbt.Receptor>
prm/blind_docking_100.prm

>  <SCORE>
-5.86401

>  <SCORE.INTER>
-5.86434

>  <SCORE.INTER.CONST>
1

>  <SCORE.INTER.POLAR>
0

>  <SCORE.INTER.ROT>
0

>  <SCORE.INTER.SOLV>
6.52096

>  <SCORE.INTER.VDW>
-9.68321

>  <SCORE.INTER.norm>
-0.533122

>  <SCORE.INTRA>
0

>  <SCORE.INTRA.DIHEDRAL>
0

>  <SCORE.INTRA.DIHEDRAL.0>
0

>  <SCORE.INTRA.POLAR>
0

>  <SCORE.INTRA.POLAR.0>
0

>  <SCORE.INTRA.REPUL>
0

>  <SCORE.INTRA.REPUL.0>
0

>  <SCORE.INTRA.SOLV>
0

>  <SCORE.INTRA.SOLV.lig_0>
-48.3454

>  <SCORE.INTRA.VDW>
0

>  <SCORE.INTRA.VDW.0>
0

>  <SCORE.INTRA.norm>
0

>  <SCORE.RESTR>
0.000327958

>  <SCORE.RESTR.CAVITY>
0.000327958

>  <SCORE.RESTR.norm>
2.98143e-05

>  <SCORE.SYSTEM>
0

>  <SCORE.SYSTEM.CONST>
0

>  <SCORE.SYSTEM.DIHEDRAL>
0

>  <SCORE.SYSTEM.SOLV>
0

>  <SCORE.SYSTEM.norm>
0

>  <SCORE.heavy>
11

>  <SCORE.norm>
-0.533092

>  <RMSD>
17.213

$$$$
ligand
 OpenBabel01301917033D
libRbt.so/2013.1/901 2013/11/27
 11 12  0  0  0  0  0  0  0  0999 V2000
  -24.5875  -22.6077   10.7845 N   0  0  0  0  0  0  0  0  0  0  0  0
  -23.8749  -23.3820    9.9506 C   0  0  0  0  0  0  0  0  0  0  0  0
  -23.7597  -23.0418    8.6699 N   0  0  0  0  0  0  0  0  0  0  0  0
  -23.2857  -24.5026   10.3956 N   0  0  0  0  0  0  0  0  0  0  0  0
  -23.3996  -24.8724   11.6798 C   0  0  0  0  0  0  0  0  0  0  0  0
  -24.1313  -24.0895   12.5637 C   0  0  0  0  0  0  0  0  0  0  0  0
  -24.7304  -22.9314   12.0794 C   0  0  0  0  0  0  0  0  0  0  0  0
  -25.4319  -22.1476   12.8930 N   0  0  0  0  0  0  0  0  0  0  0  0
  -24.0944  -24.6860   13.7515 N   0  0  0  0  0  0  0  0  0  0  0  0
  -23.3725  -25.7974   13.6268 C   0  0  0  0  0  0  0  0  0  0  0  0
  -22.9477  -25.9151   12.3706 N   0  0  0  0  0  0  0  0  0  0  0  0
  1  7  2  0  0  0  0
  1  2  1  0  0  0  0
  2  3  1  0  0  0  0
  2  4  2  0  0  0  0
  4  5  1  0  0  0  0
  5  6  2  0  0  0  0
  5 11  1  0  0  0  0
  6  7  1  0  0  0  0
  6  9  1  0  0  0  0
  7  8  1  0  0  0  0
  9 10  1  0  0  0  0
 10 11  2  0  0  0  0
M  END
>  <CHROM.1>
-23.96944505,-23.98257132,11.68694362,1.75897377,0.97442137,-1.16379363

>  <Name>
ligand

>  <RI>
0

>  <Rbt.Current_Directory>
/home/itssahil/PROJECTS/Mol_Feturizer/New_Systems/rnas/2b57

>  <Rbt.Executable>
rbdock ($Id: //depot/dev/client3/rdock/2013.1/src/exe/rbdock.cxx#4 $)

>  <Rbt.Library>
libRbt.so (2013.1, Build901 2013/11/27)

>  <Rbt.Parameter_File>
/export/apps/rDock/src/rDock_2013.1_src/data/scripts/dock_solv.prm

>  <Rbt.Receptor>
prm/blind_docking_60.prm

>  <SCORE>
-5.53678

>  <SCORE.INTER>
-5.53678

>  <SCORE.INTER.CONST>
1

>  <SCORE.INTER.POLAR>
0

>  <SCORE.INTER.ROT>
0

>  <SCORE.INTER.SOLV>
4.3923

>  <SCORE.INTER.VDW>
-8.75529

>  <SCORE.INTER.norm>
-0.503344

>  <SCORE.INTRA>
0

>  <SCORE.INTRA.DIHEDRAL>
0

>  <SCORE.INTRA.DIHEDRAL.0>
0

>  <SCORE.INTRA.POLAR>
0

>  <SCORE.INTRA.POLAR.0>
0

>  <SCORE.INTRA.REPUL>
0

>  <SCORE.INTRA.REPUL.0>
0

>  <SCORE.INTRA.SOLV>
0

>  <SCORE.INTRA.SOLV.lig_0>
-48.3454

>  <SCORE.INTRA.VDW>
0

>  <SCORE.INTRA.VDW.0>
0

>  <SCORE.INTRA.norm>
0

>  <SCORE.RESTR>
0

>  <SCORE.RESTR.CAVITY>
0

>  <SCORE.RESTR.norm>
0

>  <SCORE.SYSTEM>
0

>  <SCORE.SYSTEM.CONST>
0

>  <SCORE.SYSTEM.DIHEDRAL>
0

>  <SCORE.SYSTEM.SOLV>
0

>  <SCORE.SYSTEM.norm>
0

>  <SCORE.heavy>
11

>  <SCORE.norm>
-0.503344

>  <RMSD>
17.247

$$$$
ligand
 OpenBabel01301917033D
libRbt.so/2013.1/901 2013/11/27
 11 12  0  0  0  0  0  0  0  0999 V2000
  -24.9616  -22.2910   11.1039 N   0  0  0  0  0  0  0  0  0  0  0  0
  -25.5533  -22.2187   12.3069 C   0  0  0  0  0  0  0  0  0  0  0  0
  -26.4141  -21.2373   12.5617 N   0  0  0  0  0  0  0  0  0  0  0  0
  -25.2762  -23.1227   13.2593 N   0  0  0  0  0  0  0  0  0  0  0  0
  -24.4014  -24.1131   13.0295 C   0  0  0  0  0  0  0  0  0  0  0  0
  -23.7750  -24.2109   11.7934 C   0  0  0  0  0  0  0  0  0  0  0  0
  -24.0806  -23.2637   10.8217 C   0  0  0  0  0  0  0  0  0  0  0  0
  -23.5113  -23.3253    9.6216 N   0  0  0  0  0  0  0  0  0  0  0  0
  -22.9583  -25.2591   11.8406 N   0  0  0  0  0  0  0  0  0  0  0  0
  -23.0614  -25.8016   13.0518 C   0  0  0  0  0  0  0  0  0  0  0  0
  -23.9369  -25.1096   13.7777 N   0  0  0  0  0  0  0  0  0  0  0  0
  1  7  2  0  0  0  0
  1  2  1  0  0  0  0
  2  3  1  0  0  0  0
  2  4  2  0  0  0  0
  4  5  1  0  0  0  0
  5  6  2  0  0  0  0
  5 11  1  0  0  0  0
  6  7  1  0  0  0  0
  6  9  1  0  0  0  0
  7  8  1  0  0  0  0
  9 10  1  0  0  0  0
 10 11  2  0  0  0  0
M  END
>  <CHROM.1>
-24.36996091,-23.61201934,12.09964347,-2.58710079,-0.83959163,2.08271971

>  <Name>
ligand

>  <RI>
0

>  <Rbt.Current_Directory>
/home/itssahil/PROJECTS/Mol_Feturizer/New_Systems/rnas/2b57

>  <Rbt.Executable>
rbdock ($Id: //depot/dev/client3/rdock/2013.1/src/exe/rbdock.cxx#4 $)

>  <Rbt.Library>
libRbt.so (2013.1, Build901 2013/11/27)

>  <Rbt.Parameter_File>
/export/apps/rDock/src/rDock_2013.1_src/data/scripts/dock_solv.prm

>  <Rbt.Receptor>
prm/blind_docking_60.prm

>  <SCORE>
-4.69126

>  <SCORE.INTER>
-4.69126

>  <SCORE.INTER.CONST>
1

>  <SCORE.INTER.POLAR>
0

>  <SCORE.INTER.ROT>
0

>  <SCORE.INTER.SOLV>
4.36275

>  <SCORE.INTER.VDW>
-8.18176

>  <SCORE.INTER.norm>
-0.426478

>  <SCORE.INTRA>
0

>  <SCORE.INTRA.DIHEDRAL>
0

>  <SCORE.INTRA.DIHEDRAL.0>
0

>  <SCORE.INTRA.POLAR>
0

>  <SCORE.INTRA.POLAR.0>
0

>  <SCORE.INTRA.REPUL>
0

>  <SCORE.INTRA.REPUL.0>
0

>  <SCORE.INTRA.SOLV>
0

>  <SCORE.INTRA.SOLV.lig_0>
-48.3454

>  <SCORE.INTRA.VDW>
0

>  <SCORE.INTRA.VDW.0>
0

>  <SCORE.INTRA.norm>
0

>  <SCORE.RESTR>
0

>  <SCORE.RESTR.CAVITY>
0

>  <SCORE.RESTR.norm>
0

>  <SCORE.SYSTEM>
0

>  <SCORE.SYSTEM.CONST>
0

>  <SCORE.SYSTEM.DIHEDRAL>
0

>  <SCORE.SYSTEM.SOLV>
0

>  <SCORE.SYSTEM.norm>
0

>  <SCORE.heavy>
11

>  <SCORE.norm>
-0.426478

>  <RMSD>
17.372

$$$$
ligand
 OpenBabel01301917033D
libRbt.so/2013.1/901 2013/11/27
 11 12  0  0  0  0  0  0  0  0999 V2000
  -27.8082  -16.0950    4.3195 N   0  0  0  0  0  0  0  0  0  0  0  0
  -28.0092  -16.4018    3.0279 C   0  0  0  0  0  0  0  0  0  0  0  0
  -27.7959  -17.6440    2.6032 N   0  0  0  0  0  0  0  0  0  0  0  0
  -28.4138  -15.4630    2.1583 N   0  0  0  0  0  0  0  0  0  0  0  0
  -28.6221  -14.2008    2.5612 C   0  0  0  0  0  0  0  0  0  0  0  0
  -28.4215  -13.8565    3.8920 C   0  0  0  0  0  0  0  0  0  0  0  0
  -28.0046  -14.8474    4.7746 C   0  0  0  0  0  0  0  0  0  0  0  0
  -27.8097  -14.5639    6.0591 N   0  0  0  0  0  0  0  0  0  0  0  0
  -28.6820  -12.5583    4.0131 N   0  0  0  0  0  0  0  0  0  0  0  0
  -29.0316  -12.0994    2.8135 C   0  0  0  0  0  0  0  0  0  0  0  0
  -28.9973  -13.0931    1.9281 N   0  0  0  0  0  0  0  0  0  0  0  0
  1  7  2  0  0  0  0
  1  2  1  0  0  0  0
  2  3  1  0  0  0  0
  2  4  2  0  0  0  0
  4  5  1  0  0  0  0
  5  6  2  0  0  0  0
  5 11  1  0  0  0  0
  6  7  1  0  0  0  0
  6  9  1  0  0  0  0
  7  8  1  0  0  0  0
  9 10  1  0  0  0  0
 10 11  2  0  0  0  0
M  END
>  <CHROM.1>
-28.32060977,-14.64377127,3.47199183,-0.67858322,-1.27075736,0.84033373

>  <Name>
ligand

>  <RI>
0

>  <Rbt.Current_Directory>
/home/itssahil/PROJECTS/Mol_Feturizer/New_Systems/rnas/2b57

>  <Rbt.Executable>
rbdock ($Id: //depot/dev/client3/rdock/2013.1/src/exe/rbdock.cxx#4 $)

>  <Rbt.Library>
libRbt.so (2013.1, Build901 2013/11/27)

>  <Rbt.Parameter_File>
/export/apps/rDock/src/rDock_2013.1_src/data/scripts/dock_solv.prm

>  <Rbt.Receptor>
prm/blind_docking_100.prm

>  <SCORE>
-5.92017

>  <SCORE.INTER>
-5.92017

>  <SCORE.INTER.CONST>
1

>  <SCORE.INTER.POLAR>
0

>  <SCORE.INTER.ROT>
0

>  <SCORE.INTER.SOLV>
4.97573

>  <SCORE.INTER.VDW>
-9.20536

>  <SCORE.INTER.norm>
-0.538197

>  <SCORE.INTRA>
0

>  <SCORE.INTRA.DIHEDRAL>
0

>  <SCORE.INTRA.DIHEDRAL.0>
0

>  <SCORE.INTRA.POLAR>
0

>  <SCORE.INTRA.POLAR.0>
0

>  <SCORE.INTRA.REPUL>
0

>  <SCORE.INTRA.REPUL.0>
0

>  <SCORE.INTRA.SOLV>
0

>  <SCORE.INTRA.SOLV.lig_0>
-48.3454

>  <SCORE.INTRA.VDW>
0

>  <SCORE.INTRA.VDW.0>
0

>  <SCORE.INTRA.norm>
0

>  <SCORE.RESTR>
0

>  <SCORE.RESTR.CAVITY>
0

>  <SCORE.RESTR.norm>
0

>  <SCORE.SYSTEM>
0

>  <SCORE.SYSTEM.CONST>
0

>  <SCORE.SYSTEM.DIHEDRAL>
0

>  <SCORE.SYSTEM.SOLV>
0

>  <SCORE.SYSTEM.norm>
0

>  <SCORE.heavy>
11

>  <SCORE.norm>
-0.538197

>  <RMSD>
17.611

$$$$
ligand
 OpenBabel01301917033D
libRbt.so/2013.1/901 2013/11/27
 11 12  0  0  0  0  0  0  0  0999 V2000
  -27.8279  -15.9986    4.2866 N   0  0  0  0  0  0  0  0  0  0  0  0
  -27.9926  -16.3886    3.0124 C   0  0  0  0  0  0  0  0  0  0  0  0
  -27.7488  -17.6508    2.6713 N   0  0  0  0  0  0  0  0  0  0  0  0
  -28.3916  -15.5131    2.0768 N   0  0  0  0  0  0  0  0  0  0  0  0
  -28.6303  -14.2322    2.3951 C   0  0  0  0  0  0  0  0  0  0  0  0
  -28.4674  -13.8024    3.7060 C   0  0  0  0  0  0  0  0  0  0  0  0
  -28.0556  -14.7289    4.6582 C   0  0  0  0  0  0  0  0  0  0  0  0
  -27.8965  -14.3627    5.9265 N   0  0  0  0  0  0  0  0  0  0  0  0
  -28.7520  -12.5040    3.7397 N   0  0  0  0  0  0  0  0  0  0  0  0
  -29.0801  -12.1268    2.5059 C   0  0  0  0  0  0  0  0  0  0  0  0
  -29.0082  -13.1729    1.6855 N   0  0  0  0  0  0  0  0  0  0  0  0
  1  7  2  0  0  0  0
  1  2  1  0  0  0  0
  2  3  1  0  0  0  0
  2  4  2  0  0  0  0
  4  5  1  0  0  0  0
  5  6  2  0  0  0  0
  5 11  1  0  0  0  0
  6  7  1  0  0  0  0
  6  9  1  0  0  0  0
  7  8  1  0  0  0  0
  9 10  1  0  0  0  0
 10 11  2  0  0  0  0
M  END
>  <CHROM.1>
-28.34350712,-14.61227411,3.33846996,-0.57981837,-1.27321987,0.87235162

>  <Name>
ligand

>  <RI>
0

>  <Rbt.Current_Directory>
/home/itssahil/PROJECTS/Mol_Feturizer/New_Systems/rnas/2b57

>  <Rbt.Executable>
rbdock ($Id: //depot/dev/client3/rdock/2013.1/src/exe/rbdock.cxx#4 $)

>  <Rbt.Library>
libRbt.so (2013.1, Build901 2013/11/27)

>  <Rbt.Parameter_File>
/export/apps/rDock/src/rDock_2013.1_src/data/scripts/dock_solv.prm

>  <Rbt.Receptor>
prm/blind_docking_80.prm

>  <SCORE>
-6.04728

>  <SCORE.INTER>
-6.04728

>  <SCORE.INTER.CONST>
1

>  <SCORE.INTER.POLAR>
0

>  <SCORE.INTER.ROT>
0

>  <SCORE.INTER.SOLV>
5.27812

>  <SCORE.INTER.VDW>
-9.3909

>  <SCORE.INTER.norm>
-0.549753

>  <SCORE.INTRA>
0

>  <SCORE.INTRA.DIHEDRAL>
0

>  <SCORE.INTRA.DIHEDRAL.0>
0

>  <SCORE.INTRA.POLAR>
0

>  <SCORE.INTRA.POLAR.0>
0

>  <SCORE.INTRA.REPUL>
0

>  <SCORE.INTRA.REPUL.0>
0

>  <SCORE.INTRA.SOLV>
0

>  <SCORE.INTRA.SOLV.lig_0>
-48.3454

>  <SCORE.INTRA.VDW>
0

>  <SCORE.INTRA.VDW.0>
0

>  <SCORE.INTRA.norm>
0

>  <SCORE.RESTR>
0

>  <SCORE.RESTR.CAVITY>
0

>  <SCORE.RESTR.norm>
0

>  <SCORE.SYSTEM>
0

>  <SCORE.SYSTEM.CONST>
0

>  <SCORE.SYSTEM.DIHEDRAL>
0

>  <SCORE.SYSTEM.SOLV>
0

>  <SCORE.SYSTEM.norm>
0

>  <SCORE.heavy>
11

>  <SCORE.norm>
-0.549753

>  <RMSD>
17.648

$$$$
ligand
 OpenBabel01301917033D
libRbt.so/2013.1/901 2013/11/27
 11 12  0  0  0  0  0  0  0  0999 V2000
  -28.2678  -14.1706    5.3622 N   0  0  0  0  0  0  0  0  0  0  0  0
  -28.2602  -13.0410    4.6365 C   0  0  0  0  0  0  0  0  0  0  0  0
  -28.1447  -11.8648    5.2466 N   0  0  0  0  0  0  0  0  0  0  0  0
  -28.3786  -13.0873    3.3005 N   0  0  0  0  0  0  0  0  0  0  0  0
  -28.5098  -14.2611    2.6650 C   0  0  0  0  0  0  0  0  0  0  0  0
  -28.5208  -15.4448    3.3919 C   0  0  0  0  0  0  0  0  0  0  0  0
  -28.3940  -15.3712    4.7752 C   0  0  0  0  0  0  0  0  0  0  0  0
  -28.3899  -16.4801    5.5089 N   0  0  0  0  0  0  0  0  0  0  0  0
  -28.6761  -16.4435    2.5280 N   0  0  0  0  0  0  0  0  0  0  0  0
  -28.7603  -15.9174    1.3081 C   0  0  0  0  0  0  0  0  0  0  0  0
  -28.6594  -14.5921    1.3857 N   0  0  0  0  0  0  0  0  0  0  0  0
  1  7  2  0  0  0  0
  1  2  1  0  0  0  0
  2  3  1  0  0  0  0
  2  4  2  0  0  0  0
  4  5  1  0  0  0  0
  5  6  2  0  0  0  0
  5 11  1  0  0  0  0
  6  7  1  0  0  0  0
  6  9  1  0  0  0  0
  7  8  1  0  0  0  0
  9 10  1  0  0  0  0
 10 11  2  0  0  0  0
M  END
>  <CHROM.1>
-28.44842912,-14.59285111,3.66639313,-0.14236065,1.45964629,2.55245381

>  <Name>
ligand

>  <RI>
0

>  <Rbt.Current_Directory>
/home/itssahil/PROJECTS/Mol_Feturizer/New_Systems/rnas/2b57

>  <Rbt.Executable>
rbdock ($Id: //depot/dev/client3/rdock/2013.1/src/exe/rbdock.cxx#4 $)

>  <Rbt.Library>
libRbt.so (2013.1, Build901 2013/11/27)

>  <Rbt.Parameter_File>
/export/apps/rDock/src/rDock_2013.1_src/data/scripts/dock_solv.prm

>  <Rbt.Receptor>
prm/blind_docking_100.prm

>  <SCORE>
-5.68158

>  <SCORE.INTER>
-5.68158

>  <SCORE.INTER.CONST>
1

>  <SCORE.INTER.POLAR>
0

>  <SCORE.INTER.ROT>
0

>  <SCORE.INTER.SOLV>
3.66797

>  <SCORE.INTER.VDW>
-8.61038

>  <SCORE.INTER.norm>
-0.516508

>  <SCORE.INTRA>
0

>  <SCORE.INTRA.DIHEDRAL>
0

>  <SCORE.INTRA.DIHEDRAL.0>
0

>  <SCORE.INTRA.POLAR>
0

>  <SCORE.INTRA.POLAR.0>
0

>  <SCORE.INTRA.REPUL>
0

>  <SCORE.INTRA.REPUL.0>
0

>  <SCORE.INTRA.SOLV>
0

>  <SCORE.INTRA.SOLV.lig_0>
-48.3454

>  <SCORE.INTRA.VDW>
0

>  <SCORE.INTRA.VDW.0>
0

>  <SCORE.INTRA.norm>
0

>  <SCORE.RESTR>
0

>  <SCORE.RESTR.CAVITY>
0

>  <SCORE.RESTR.norm>
0

>  <SCORE.SYSTEM>
0

>  <SCORE.SYSTEM.CONST>
0

>  <SCORE.SYSTEM.DIHEDRAL>
0

>  <SCORE.SYSTEM.SOLV>
0

>  <SCORE.SYSTEM.norm>
0

>  <SCORE.heavy>
11

>  <SCORE.norm>
-0.516508

>  <RMSD>
17.666

$$$$
ligand
 OpenBabel01301917033D
libRbt.so/2013.1/901 2013/11/27
 11 12  0  0  0  0  0  0  0  0999 V2000
  -28.1207  -14.2701    5.0235 N   0  0  0  0  0  0  0  0  0  0  0  0
  -28.3198  -13.0894    4.4159 C   0  0  0  0  0  0  0  0  0  0  0  0
  -28.2829  -11.9661    5.1271 N   0  0  0  0  0  0  0  0  0  0  0  0
  -28.5663  -13.0331    3.0979 N   0  0  0  0  0  0  0  0  0  0  0  0
  -28.6215  -14.1538    2.3632 C   0  0  0  0  0  0  0  0  0  0  0  0
  -28.4192  -15.3884    2.9669 C   0  0  0  0  0  0  0  0  0  0  0  0
  -28.1629  -15.4209    4.3337 C   0  0  0  0  0  0  0  0  0  0  0  0
  -27.9539  -16.5803    4.9503 N   0  0  0  0  0  0  0  0  0  0  0  0
  -28.5420  -16.3192    2.0254 N   0  0  0  0  0  0  0  0  0  0  0  0
  -28.8106  -15.7032    0.8763 C   0  0  0  0  0  0  0  0  0  0  0  0
  -28.8595  -14.3878    1.0758 N   0  0  0  0  0  0  0  0  0  0  0  0
  1  7  2  0  0  0  0
  1  2  1  0  0  0  0
  2  3  1  0  0  0  0
  2  4  2  0  0  0  0
  4  5  1  0  0  0  0
  5  6  2  0  0  0  0
  5 11  1  0  0  0  0
  6  7  1  0  0  0  0
  6  9  1  0  0  0  0
  7  8  1  0  0  0  0
  9 10  1  0  0  0  0
 10 11  2  0  0  0  0
M  END
>  <CHROM.1>
-28.42057615,-14.56156483,3.31710467,-1.02098043,1.36906305,-2.76652895

>  <Name>
ligand

>  <RI>
0

>  <Rbt.Current_Directory>
/home/itssahil/PROJECTS/Mol_Feturizer/New_Systems/rnas/2b57

>  <Rbt.Executable>
rbdock ($Id: //depot/dev/client3/rdock/2013.1/src/exe/rbdock.cxx#4 $)

>  <Rbt.Library>
libRbt.so (2013.1, Build901 2013/11/27)

>  <Rbt.Parameter_File>
/export/apps/rDock/src/rDock_2013.1_src/data/scripts/dock_solv.prm

>  <Rbt.Receptor>
prm/blind_docking_40.prm

>  <SCORE>
-5.88202

>  <SCORE.INTER>
-5.88249

>  <SCORE.INTER.CONST>
1

>  <SCORE.INTER.POLAR>
0

>  <SCORE.INTER.ROT>
0

>  <SCORE.INTER.SOLV>
4.44205

>  <SCORE.INTER.VDW>
-9.00234

>  <SCORE.INTER.norm>
-0.534772

>  <SCORE.INTRA>
0

>  <SCORE.INTRA.DIHEDRAL>
0

>  <SCORE.INTRA.DIHEDRAL.0>
0

>  <SCORE.INTRA.POLAR>
0

>  <SCORE.INTRA.POLAR.0>
0

>  <SCORE.INTRA.REPUL>
0

>  <SCORE.INTRA.REPUL.0>
0

>  <SCORE.INTRA.SOLV>
0

>  <SCORE.INTRA.SOLV.lig_0>
-48.3454

>  <SCORE.INTRA.VDW>
0

>  <SCORE.INTRA.VDW.0>
0

>  <SCORE.INTRA.norm>
0

>  <SCORE.RESTR>
0.000476011

>  <SCORE.RESTR.CAVITY>
0.000476011

>  <SCORE.RESTR.norm>
4.32737e-05

>  <SCORE.SYSTEM>
0

>  <SCORE.SYSTEM.CONST>
0

>  <SCORE.SYSTEM.DIHEDRAL>
0

>  <SCORE.SYSTEM.SOLV>
0

>  <SCORE.SYSTEM.norm>
0

>  <SCORE.heavy>
11

>  <SCORE.norm>
-0.534729

>  <RMSD>
17.723

$$$$
ligand
 OpenBabel01301917033D
libRbt.so/2013.1/901 2013/11/27
 11 12  0  0  0  0  0  0  0  0999 V2000
  -28.1212  -14.3308    4.9958 N   0  0  0  0  0  0  0  0  0  0  0  0
  -28.2924  -13.1417    4.3963 C   0  0  0  0  0  0  0  0  0  0  0  0
  -28.2289  -12.0244    5.1152 N   0  0  0  0  0  0  0  0  0  0  0  0
  -28.5376  -13.0705    3.0788 N   0  0  0  0  0  0  0  0  0  0  0  0
  -28.6194  -14.1846    2.3364 C   0  0  0  0  0  0  0  0  0  0  0  0
  -28.4463  -15.4277    2.9317 C   0  0  0  0  0  0  0  0  0  0  0  0
  -28.1907  -15.4755    4.2981 C   0  0  0  0  0  0  0  0  0  0  0  0
  -28.0090  -16.6438    4.9067 N   0  0  0  0  0  0  0  0  0  0  0  0
  -28.5912  -16.3489    1.9838 N   0  0  0  0  0  0  0  0  0  0  0  0
  -28.8453  -15.7188    0.8390 C   0  0  0  0  0  0  0  0  0  0  0  0
  -28.8631  -14.4041    1.0476 N   0  0  0  0  0  0  0  0  0  0  0  0
  1  7  2  0  0  0  0
  1  2  1  0  0  0  0
  2  3  1  0  0  0  0
  2  4  2  0  0  0  0
  4  5  1  0  0  0  0
  5  6  2  0  0  0  0
  5 11  1  0  0  0  0
  6  7  1  0  0  0  0
  6  9  1  0  0  0  0
  7  8  1  0  0  0  0
  9 10  1  0  0  0  0
 10 11  2  0  0  0  0
M  END
>  <CHROM.1>
-28.42808219,-14.60345622,3.28748868,-0.90667119,1.37636628,-2.87176821

>  <Name>
ligand

>  <RI>
0

>  <Rbt.Current_Directory>
/home/itssahil/PROJECTS/Mol_Feturizer/New_Systems/rnas/2b57

>  <Rbt.Executable>
rbdock ($Id: //depot/dev/client3/rdock/2013.1/src/exe/rbdock.cxx#4 $)

>  <Rbt.Library>
libRbt.so (2013.1, Build901 2013/11/27)

>  <Rbt.Parameter_File>
/export/apps/rDock/src/rDock_2013.1_src/data/scripts/dock_solv.prm

>  <Rbt.Receptor>
prm/blind_docking_60.prm

>  <SCORE>
-5.93758

>  <SCORE.INTER>
-5.93758

>  <SCORE.INTER.CONST>
1

>  <SCORE.INTER.POLAR>
0

>  <SCORE.INTER.ROT>
0

>  <SCORE.INTER.SOLV>
4.25733

>  <SCORE.INTER.VDW>
-8.9775

>  <SCORE.INTER.norm>
-0.53978

>  <SCORE.INTRA>
0

>  <SCORE.INTRA.DIHEDRAL>
0

>  <SCORE.INTRA.DIHEDRAL.0>
0

>  <SCORE.INTRA.POLAR>
0

>  <SCORE.INTRA.POLAR.0>
0

>  <SCORE.INTRA.REPUL>
0

>  <SCORE.INTRA.REPUL.0>
0

>  <SCORE.INTRA.SOLV>
0

>  <SCORE.INTRA.SOLV.lig_0>
-48.3454

>  <SCORE.INTRA.VDW>
0

>  <SCORE.INTRA.VDW.0>
0

>  <SCORE.INTRA.norm>
0

>  <SCORE.RESTR>
0

>  <SCORE.RESTR.CAVITY>
0

>  <SCORE.RESTR.norm>
0

>  <SCORE.SYSTEM>
0

>  <SCORE.SYSTEM.CONST>
0

>  <SCORE.SYSTEM.DIHEDRAL>
0

>  <SCORE.SYSTEM.SOLV>
0

>  <SCORE.SYSTEM.norm>
0

>  <SCORE.heavy>
11

>  <SCORE.norm>
-0.53978

>  <RMSD>
17.741

$$$$
ligand
 OpenBabel01301917033D
libRbt.so/2013.1/901 2013/11/27
 11 12  0  0  0  0  0  0  0  0999 V2000
  -28.1113  -13.6424   11.3495 N   0  0  0  0  0  0  0  0  0  0  0  0
  -27.8461  -12.3348   11.5000 C   0  0  0  0  0  0  0  0  0  0  0  0
  -27.4592  -11.6144   10.4510 N   0  0  0  0  0  0  0  0  0  0  0  0
  -27.9580  -11.7496   12.7025 N   0  0  0  0  0  0  0  0  0  0  0  0
  -28.3336  -12.4592   13.7770 C   0  0  0  0  0  0  0  0  0  0  0  0
  -28.6138  -13.8137   13.6490 C   0  0  0  0  0  0  0  0  0  0  0  0
  -28.4931  -14.3970   12.3920 C   0  0  0  0  0  0  0  0  0  0  0  0
  -28.7608  -15.6884   12.2226 N   0  0  0  0  0  0  0  0  0  0  0  0
  -28.9426  -14.2699   14.8539 N   0  0  0  0  0  0  0  0  0  0  0  0
  -28.8737  -13.2511   15.7079 C   0  0  0  0  0  0  0  0  0  0  0  0
  -28.5046  -12.1489   15.0588 N   0  0  0  0  0  0  0  0  0  0  0  0
  1  7  2  0  0  0  0
  1  2  1  0  0  0  0
  2  3  1  0  0  0  0
  2  4  2  0  0  0  0
  4  5  1  0  0  0  0
  5  6  2  0  0  0  0
  5 11  1  0  0  0  0
  6  7  1  0  0  0  0
  6  9  1  0  0  0  0
  7  8  1  0  0  0  0
  9 10  1  0  0  0  0
 10 11  2  0  0  0  0
M  END
>  <CHROM.1>
-28.34886630,-13.21293763,13.03650750,0.60579630,-1.27691507,-2.28135660

>  <Name>
ligand

>  <RI>
0

>  <Rbt.Current_Directory>
/home/itssahil/PROJECTS/Mol_Feturizer/New_Systems/rnas/2b57

>  <Rbt.Executable>
rbdock ($Id: //depot/dev/client3/rdock/2013.1/src/exe/rbdock.cxx#4 $)

>  <Rbt.Library>
libRbt.so (2013.1, Build901 2013/11/27)

>  <Rbt.Parameter_File>
/export/apps/rDock/src/rDock_2013.1_src/data/scripts/dock_solv.prm

>  <Rbt.Receptor>
prm/blind_docking_100.prm

>  <SCORE>
-4.97372

>  <SCORE.INTER>
-4.97372

>  <SCORE.INTER.CONST>
1

>  <SCORE.INTER.POLAR>
0

>  <SCORE.INTER.ROT>
0

>  <SCORE.INTER.SOLV>
4.45536

>  <SCORE.INTER.VDW>
-8.40093

>  <SCORE.INTER.norm>
-0.452157

>  <SCORE.INTRA>
0

>  <SCORE.INTRA.DIHEDRAL>
0

>  <SCORE.INTRA.DIHEDRAL.0>
0

>  <SCORE.INTRA.POLAR>
0

>  <SCORE.INTRA.POLAR.0>
0

>  <SCORE.INTRA.REPUL>
0

>  <SCORE.INTRA.REPUL.0>
0

>  <SCORE.INTRA.SOLV>
0

>  <SCORE.INTRA.SOLV.lig_0>
-48.3454

>  <SCORE.INTRA.VDW>
0

>  <SCORE.INTRA.VDW.0>
0

>  <SCORE.INTRA.norm>
0

>  <SCORE.RESTR>
0

>  <SCORE.RESTR.CAVITY>
0

>  <SCORE.RESTR.norm>
0

>  <SCORE.SYSTEM>
0

>  <SCORE.SYSTEM.CONST>
0

>  <SCORE.SYSTEM.DIHEDRAL>
0

>  <SCORE.SYSTEM.SOLV>
0

>  <SCORE.SYSTEM.norm>
0

>  <SCORE.heavy>
11

>  <SCORE.norm>
-0.452157

>  <RMSD>
18.081

$$$$
ligand
 OpenBabel01301917033D
libRbt.so/2013.1/901 2013/11/27
 11 12  0  0  0  0  0  0  0  0999 V2000
  -28.9482  -11.9071    2.5797 N   0  0  0  0  0  0  0  0  0  0  0  0
  -28.4532  -12.4634    3.6970 C   0  0  0  0  0  0  0  0  0  0  0  0
  -28.1777  -11.6983    4.7495 N   0  0  0  0  0  0  0  0  0  0  0  0
  -28.2238  -13.7843    3.7579 N   0  0  0  0  0  0  0  0  0  0  0  0
  -28.4813  -14.5732    2.7043 C   0  0  0  0  0  0  0  0  0  0  0  0
  -28.9937  -14.0233    1.5361 C   0  0  0  0  0  0  0  0  0  0  0  0
  -29.2254  -12.6523    1.4981 C   0  0  0  0  0  0  0  0  0  0  0  0
  -29.7242  -12.0857    0.4034 N   0  0  0  0  0  0  0  0  0  0  0  0
  -29.1392  -15.0118    0.6588 N   0  0  0  0  0  0  0  0  0  0  0  0
  -28.7369  -16.1379    1.2435 C   0  0  0  0  0  0  0  0  0  0  0  0
  -28.3366  -15.8771    2.4862 N   0  0  0  0  0  0  0  0  0  0  0  0
  1  7  2  0  0  0  0
  1  2  1  0  0  0  0
  2  3  1  0  0  0  0
  2  4  2  0  0  0  0
  4  5  1  0  0  0  0
  5  6  2  0  0  0  0
  5 11  1  0  0  0  0
  6  7  1  0  0  0  0
  6  9  1  0  0  0  0
  7  8  1  0  0  0  0
  9 10  1  0  0  0  0
 10 11  2  0  0  0  0
M  END
>  <CHROM.1>
-28.76653479,-13.63409042,2.31277532,1.37092006,-1.18928265,0.42010129

>  <Name>
ligand

>  <RI>
0

>  <Rbt.Current_Directory>
/home/itssahil/PROJECTS/Mol_Feturizer/New_Systems/rnas/2b57

>  <Rbt.Executable>
rbdock ($Id: //depot/dev/client3/rdock/2013.1/src/exe/rbdock.cxx#4 $)

>  <Rbt.Library>
libRbt.so (2013.1, Build901 2013/11/27)

>  <Rbt.Parameter_File>
/export/apps/rDock/src/rDock_2013.1_src/data/scripts/dock_solv.prm

>  <Rbt.Receptor>
prm/blind_docking_60.prm

>  <SCORE>
-5.93776

>  <SCORE.INTER>
-5.93776

>  <SCORE.INTER.CONST>
1

>  <SCORE.INTER.POLAR>
0

>  <SCORE.INTER.ROT>
0

>  <SCORE.INTER.SOLV>
6.81877

>  <SCORE.INTER.VDW>
-9.83143

>  <SCORE.INTER.norm>
-0.539797

>  <SCORE.INTRA>
0

>  <SCORE.INTRA.DIHEDRAL>
0

>  <SCORE.INTRA.DIHEDRAL.0>
0

>  <SCORE.INTRA.POLAR>
0

>  <SCORE.INTRA.POLAR.0>
0

>  <SCORE.INTRA.REPUL>
0

>  <SCORE.INTRA.REPUL.0>
0

>  <SCORE.INTRA.SOLV>
0

>  <SCORE.INTRA.SOLV.lig_0>
-48.3454

>  <SCORE.INTRA.VDW>
0

>  <SCORE.INTRA.VDW.0>
0

>  <SCORE.INTRA.norm>
0

>  <SCORE.RESTR>
0

>  <SCORE.RESTR.CAVITY>
0

>  <SCORE.RESTR.norm>
0

>  <SCORE.SYSTEM>
0

>  <SCORE.SYSTEM.CONST>
0

>  <SCORE.SYSTEM.DIHEDRAL>
0

>  <SCORE.SYSTEM.SOLV>
0

>  <SCORE.SYSTEM.norm>
0

>  <SCORE.heavy>
11

>  <SCORE.norm>
-0.539797

>  <RMSD>
18.202

$$$$
ligand
 OpenBabel01301917033D
libRbt.so/2013.1/901 2013/11/27
 11 12  0  0  0  0  0  0  0  0999 V2000
  -28.4021  -14.1189   11.5022 N   0  0  0  0  0  0  0  0  0  0  0  0
  -28.0118  -12.9079   11.9310 C   0  0  0  0  0  0  0  0  0  0  0  0
  -27.5024  -12.0341   11.0674 N   0  0  0  0  0  0  0  0  0  0  0  0
  -28.1215  -12.5745   13.2264 N   0  0  0  0  0  0  0  0  0  0  0  0
  -28.6197  -13.4444   14.1174 C   0  0  0  0  0  0  0  0  0  0  0  0
  -29.0309  -14.7040   13.7003 C   0  0  0  0  0  0  0  0  0  0  0  0
  -28.9096  -15.0253   12.3524 C   0  0  0  0  0  0  0  0  0  0  0  0
  -29.2999  -16.2164   11.9084 N   0  0  0  0  0  0  0  0  0  0  0  0
  -29.4630  -15.3596   14.7734 N   0  0  0  0  0  0  0  0  0  0  0  0
  -29.3316  -14.5527   15.8239 C   0  0  0  0  0  0  0  0  0  0  0  0
  -28.8202  -13.3880   15.4309 N   0  0  0  0  0  0  0  0  0  0  0  0
  1  7  2  0  0  0  0
  1  2  1  0  0  0  0
  2  3  1  0  0  0  0
  2  4  2  0  0  0  0
  4  5  1  0  0  0  0
  5  6  2  0  0  0  0
  5 11  1  0  0  0  0
  6  7  1  0  0  0  0
  6  9  1  0  0  0  0
  7  8  1  0  0  0  0
  9 10  1  0  0  0  0
 10 11  2  0  0  0  0
M  END
>  <CHROM.1>
-28.67619060,-14.02287961,13.23494093,0.68212765,-1.16605627,-1.99912823

>  <Name>
ligand

>  <RI>
0

>  <Rbt.Current_Directory>
/home/itssahil/PROJECTS/Mol_Feturizer/New_Systems/rnas/2b57

>  <Rbt.Executable>
rbdock ($Id: //depot/dev/client3/rdock/2013.1/src/exe/rbdock.cxx#4 $)

>  <Rbt.Library>
libRbt.so (2013.1, Build901 2013/11/27)

>  <Rbt.Parameter_File>
/export/apps/rDock/src/rDock_2013.1_src/data/scripts/dock_solv.prm

>  <Rbt.Receptor>
prm/blind_docking_100.prm

>  <SCORE>
-4.87269

>  <SCORE.INTER>
-4.87269

>  <SCORE.INTER.CONST>
1

>  <SCORE.INTER.POLAR>
0

>  <SCORE.INTER.ROT>
0

>  <SCORE.INTER.SOLV>
5.46907

>  <SCORE.INTER.VDW>
-8.67148

>  <SCORE.INTER.norm>
-0.442972

>  <SCORE.INTRA>
0

>  <SCORE.INTRA.DIHEDRAL>
0

>  <SCORE.INTRA.DIHEDRAL.0>
0

>  <SCORE.INTRA.POLAR>
0

>  <SCORE.INTRA.POLAR.0>
0

>  <SCORE.INTRA.REPUL>
0

>  <SCORE.INTRA.REPUL.0>
0

>  <SCORE.INTRA.SOLV>
0

>  <SCORE.INTRA.SOLV.lig_0>
-48.3454

>  <SCORE.INTRA.VDW>
0

>  <SCORE.INTRA.VDW.0>
0

>  <SCORE.INTRA.norm>
0

>  <SCORE.RESTR>
0

>  <SCORE.RESTR.CAVITY>
0

>  <SCORE.RESTR.norm>
0

>  <SCORE.SYSTEM>
0

>  <SCORE.SYSTEM.CONST>
0

>  <SCORE.SYSTEM.DIHEDRAL>
0

>  <SCORE.SYSTEM.SOLV>
0

>  <SCORE.SYSTEM.norm>
0

>  <SCORE.heavy>
11

>  <SCORE.norm>
-0.442972

>  <RMSD>
18.449

$$$$
ligand
 OpenBabel01301917033D
libRbt.so/2013.1/901 2013/11/27
 11 12  0  0  0  0  0  0  0  0999 V2000
  -28.4141  -14.1257   11.4982 N   0  0  0  0  0  0  0  0  0  0  0  0
  -28.0203  -12.9161   11.9278 C   0  0  0  0  0  0  0  0  0  0  0  0
  -27.5142  -12.0409   11.0636 N   0  0  0  0  0  0  0  0  0  0  0  0
  -28.1232  -12.5855   13.2244 N   0  0  0  0  0  0  0  0  0  0  0  0
  -28.6180  -13.4568   14.1159 C   0  0  0  0  0  0  0  0  0  0  0  0
  -29.0327  -14.7150   13.6980 C   0  0  0  0  0  0  0  0  0  0  0  0
  -28.9184  -15.0335   12.3489 C   0  0  0  0  0  0  0  0  0  0  0  0
  -29.3122  -16.2231   11.9040 N   0  0  0  0  0  0  0  0  0  0  0  0
  -29.4603  -15.3725   14.7718 N   0  0  0  0  0  0  0  0  0  0  0  0
  -29.3228  -14.5682   15.8234 C   0  0  0  0  0  0  0  0  0  0  0  0
  -28.8120  -13.4032   15.4305 N   0  0  0  0  0  0  0  0  0  0  0  0
  1  7  2  0  0  0  0
  1  2  1  0  0  0  0
  2  3  1  0  0  0  0
  2  4  2  0  0  0  0
  4  5  1  0  0  0  0
  5  6  2  0  0  0  0
  5 11  1  0  0  0  0
  6  7  1  0  0  0  0
  6  9  1  0  0  0  0
  7  8  1  0  0  0  0
  9 10  1  0  0  0  0
 10 11  2  0  0  0  0
M  END
>  <CHROM.1>
-28.67953372,-14.03326513,13.23244618,0.69470613,-1.16704379,-1.98531568

>  <Name>
ligand

>  <RI>
0

>  <Rbt.Current_Directory>
/home/itssahil/PROJECTS/Mol_Feturizer/New_Systems/rnas/2b57

>  <Rbt.Executable>
rbdock ($Id: //depot/dev/client3/rdock/2013.1/src/exe/rbdock.cxx#4 $)

>  <Rbt.Library>
libRbt.so (2013.1, Build901 2013/11/27)

>  <Rbt.Parameter_File>
/export/apps/rDock/src/rDock_2013.1_src/data/scripts/dock_solv.prm

>  <Rbt.Receptor>
prm/blind_docking_40.prm

>  <SCORE>
-4.87076

>  <SCORE.INTER>
-4.87076

>  <SCORE.INTER.CONST>
1

>  <SCORE.INTER.POLAR>
0

>  <SCORE.INTER.ROT>
0

>  <SCORE.INTER.SOLV>
5.4464

>  <SCORE.INTER.VDW>
-8.66264

>  <SCORE.INTER.norm>
-0.442796

>  <SCORE.INTRA>
0

>  <SCORE.INTRA.DIHEDRAL>
0

>  <SCORE.INTRA.DIHEDRAL.0>
0

>  <SCORE.INTRA.POLAR>
0

>  <SCORE.INTRA.POLAR.0>
0

>  <SCORE.INTRA.REPUL>
0

>  <SCORE.INTRA.REPUL.0>
0

>  <SCORE.INTRA.SOLV>
0

>  <SCORE.INTRA.SOLV.lig_0>
-48.3454

>  <SCORE.INTRA.VDW>
0

>  <SCORE.INTRA.VDW.0>
0

>  <SCORE.INTRA.norm>
0

>  <SCORE.RESTR>
0

>  <SCORE.RESTR.CAVITY>
0

>  <SCORE.RESTR.norm>
0

>  <SCORE.SYSTEM>
0

>  <SCORE.SYSTEM.CONST>
0

>  <SCORE.SYSTEM.DIHEDRAL>
0

>  <SCORE.SYSTEM.SOLV>
0

>  <SCORE.SYSTEM.norm>
0

>  <SCORE.heavy>
11

>  <SCORE.norm>
-0.442796

>  <RMSD>
18.452

$$$$
ligand
 OpenBabel01301917033D
libRbt.so/2013.1/901 2013/11/27
 11 12  0  0  0  0  0  0  0  0999 V2000
  -29.7101  -12.7898   13.6396 N   0  0  0  0  0  0  0  0  0  0  0  0
  -29.8715  -11.7851   12.7636 C   0  0  0  0  0  0  0  0  0  0  0  0
  -29.3678  -11.8909   11.5372 N   0  0  0  0  0  0  0  0  0  0  0  0
  -30.5282  -10.6696   13.1178 N   0  0  0  0  0  0  0  0  0  0  0  0
  -31.0329  -10.5354   14.3532 C   0  0  0  0  0  0  0  0  0  0  0  0
  -30.8800  -11.5597   15.2790 C   0  0  0  0  0  0  0  0  0  0  0  0
  -30.1978  -12.7069   14.8875 C   0  0  0  0  0  0  0  0  0  0  0  0
  -30.0367  -13.7157   15.7387 N   0  0  0  0  0  0  0  0  0  0  0  0
  -31.4537  -11.1644   16.4115 N   0  0  0  0  0  0  0  0  0  0  0  0
  -31.9480   -9.9444   16.2135 C   0  0  0  0  0  0  0  0  0  0  0  0
  -31.6955   -9.5578   14.9648 N   0  0  0  0  0  0  0  0  0  0  0  0
  1  7  2  0  0  0  0
  1  2  1  0  0  0  0
  2  3  1  0  0  0  0
  2  4  2  0  0  0  0
  4  5  1  0  0  0  0
  5  6  2  0  0  0  0
  5 11  1  0  0  0  0
  6  7  1  0  0  0  0
  6  9  1  0  0  0  0
  7  8  1  0  0  0  0
  9 10  1  0  0  0  0
 10 11  2  0  0  0  0
M  END
>  <CHROM.1>
-30.59900731,-11.49589262,14.42847307,-0.39422112,-1.03952313,2.22428031

>  <Name>
ligand

>  <RI>
0

>  <Rbt.Current_Directory>
/home/itssahil/PROJECTS/Mol_Feturizer/New_Systems/rnas/2b57

>  <Rbt.Executable>
rbdock ($Id: //depot/dev/client3/rdock/2013.1/src/exe/rbdock.cxx#4 $)

>  <Rbt.Library>
libRbt.so (2013.1, Build901 2013/11/27)

>  <Rbt.Parameter_File>
/export/apps/rDock/src/rDock_2013.1_src/data/scripts/dock_solv.prm

>  <Rbt.Receptor>
prm/blind_docking_40.prm

>  <SCORE>
-4.55185

>  <SCORE.INTER>
-4.55185

>  <SCORE.INTER.CONST>
1

>  <SCORE.INTER.POLAR>
0

>  <SCORE.INTER.ROT>
0

>  <SCORE.INTER.SOLV>
7.13714

>  <SCORE.INTER.VDW>
-9.01362

>  <SCORE.INTER.norm>
-0.413805

>  <SCORE.INTRA>
0

>  <SCORE.INTRA.DIHEDRAL>
0

>  <SCORE.INTRA.DIHEDRAL.0>
0

>  <SCORE.INTRA.POLAR>
0

>  <SCORE.INTRA.POLAR.0>
0

>  <SCORE.INTRA.REPUL>
0

>  <SCORE.INTRA.REPUL.0>
0

>  <SCORE.INTRA.SOLV>
0

>  <SCORE.INTRA.SOLV.lig_0>
-48.3454

>  <SCORE.INTRA.VDW>
0

>  <SCORE.INTRA.VDW.0>
0

>  <SCORE.INTRA.norm>
0

>  <SCORE.RESTR>
0

>  <SCORE.RESTR.CAVITY>
0

>  <SCORE.RESTR.norm>
0

>  <SCORE.SYSTEM>
0

>  <SCORE.SYSTEM.CONST>
0

>  <SCORE.SYSTEM.DIHEDRAL>
0

>  <SCORE.SYSTEM.SOLV>
0

>  <SCORE.SYSTEM.norm>
0

>  <SCORE.heavy>
11

>  <SCORE.norm>
-0.413805

>  <RMSD>
20.642

$$$$
ligand
 OpenBabel01301917033D
libRbt.so/2013.1/901 2013/11/27
 11 12  0  0  0  0  0  0  0  0999 V2000
  -31.6161  -13.2871   12.4141 N   0  0  0  0  0  0  0  0  0  0  0  0
  -32.8967  -12.8852   12.3772 C   0  0  0  0  0  0  0  0  0  0  0  0
  -33.4576  -12.3660   13.4657 N   0  0  0  0  0  0  0  0  0  0  0  0
  -33.6197  -13.0121   11.2537 N   0  0  0  0  0  0  0  0  0  0  0  0
  -33.0790  -13.5451   10.1480 C   0  0  0  0  0  0  0  0  0  0  0  0
  -31.7562  -13.9691   10.1592 C   0  0  0  0  0  0  0  0  0  0  0  0
  -31.0266  -13.8248   11.3346 C   0  0  0  0  0  0  0  0  0  0  0  0
  -29.7545  -14.2086   11.3866 N   0  0  0  0  0  0  0  0  0  0  0  0
  -31.4844  -14.4635    8.9552 N   0  0  0  0  0  0  0  0  0  0  0  0
  -32.5849  -14.3584    8.2137 C   0  0  0  0  0  0  0  0  0  0  0  0
  -33.5563  -13.8008    8.9334 N   0  0  0  0  0  0  0  0  0  0  0  0
  1  7  2  0  0  0  0
  1  2  1  0  0  0  0
  2  3  1  0  0  0  0
  2  4  2  0  0  0  0
  4  5  1  0  0  0  0
  5  6  2  0  0  0  0
  5 11  1  0  0  0  0
  6  7  1  0  0  0  0
  6  9  1  0  0  0  0
  7  8  1  0  0  0  0
  9 10  1  0  0  0  0
 10 11  2  0  0  0  0
M  END
>  <CHROM.1>
-32.25668177,-13.60364867,10.80905779,-1.66493618,0.29455210,-1.88646116

>  <Name>
ligand

>  <RI>
0

>  <Rbt.Current_Directory>
/home/itssahil/PROJECTS/Mol_Feturizer/New_Systems/rnas/2b57

>  <Rbt.Executable>
rbdock ($Id: //depot/dev/client3/rdock/2013.1/src/exe/rbdock.cxx#4 $)

>  <Rbt.Library>
libRbt.so (2013.1, Build901 2013/11/27)

>  <Rbt.Parameter_File>
/export/apps/rDock/src/rDock_2013.1_src/data/scripts/dock_solv.prm

>  <Rbt.Receptor>
prm/blind_docking_100.prm

>  <SCORE>
-5.51867

>  <SCORE.INTER>
-5.51867

>  <SCORE.INTER.CONST>
1

>  <SCORE.INTER.POLAR>
0

>  <SCORE.INTER.ROT>
0

>  <SCORE.INTER.SOLV>
3.4814

>  <SCORE.INTER.VDW>
-8.43958

>  <SCORE.INTER.norm>
-0.501697

>  <SCORE.INTRA>
0

>  <SCORE.INTRA.DIHEDRAL>
0

>  <SCORE.INTRA.DIHEDRAL.0>
0

>  <SCORE.INTRA.POLAR>
0

>  <SCORE.INTRA.POLAR.0>
0

>  <SCORE.INTRA.REPUL>
0

>  <SCORE.INTRA.REPUL.0>
0

>  <SCORE.INTRA.SOLV>
0

>  <SCORE.INTRA.SOLV.lig_0>
-48.3454

>  <SCORE.INTRA.VDW>
0

>  <SCORE.INTRA.VDW.0>
0

>  <SCORE.INTRA.norm>
0

>  <SCORE.RESTR>
0

>  <SCORE.RESTR.CAVITY>
0

>  <SCORE.RESTR.norm>
0

>  <SCORE.SYSTEM>
0

>  <SCORE.SYSTEM.CONST>
0

>  <SCORE.SYSTEM.DIHEDRAL>
0

>  <SCORE.SYSTEM.SOLV>
0

>  <SCORE.SYSTEM.norm>
0

>  <SCORE.heavy>
11

>  <SCORE.norm>
-0.501697

>  <RMSD>
21.057

$$$$
ligand
 OpenBabel01301917033D
libRbt.so/2013.1/901 2013/11/27
 11 12  0  0  0  0  0  0  0  0999 V2000
  -31.5951  -22.1919    1.0785 N   0  0  0  0  0  0  0  0  0  0  0  0
  -30.9361  -23.3430    0.8696 C   0  0  0  0  0  0  0  0  0  0  0  0
  -31.5999  -24.4954    0.8811 N   0  0  0  0  0  0  0  0  0  0  0  0
  -29.6106  -23.3422    0.6594 N   0  0  0  0  0  0  0  0  0  0  0  0
  -28.9185  -22.1933    0.6569 C   0  0  0  0  0  0  0  0  0  0  0  0
  -29.5758  -20.9883    0.8706 C   0  0  0  0  0  0  0  0  0  0  0  0
  -30.9501  -21.0147    1.0836 C   0  0  0  0  0  0  0  0  0  0  0  0
  -31.6205  -19.8837    1.2827 N   0  0  0  0  0  0  0  0  0  0  0  0
  -28.6630  -20.0223    0.8320 N   0  0  0  0  0  0  0  0  0  0  0  0
  -27.4799  -20.5886    0.6046 C   0  0  0  0  0  0  0  0  0  0  0  0
  -27.6296  -21.9071    0.4971 N   0  0  0  0  0  0  0  0  0  0  0  0
  1  7  2  0  0  0  0
  1  2  1  0  0  0  0
  2  3  1  0  0  0  0
  2  4  2  0  0  0  0
  4  5  1  0  0  0  0
  5  6  2  0  0  0  0
  5 11  1  0  0  0  0
  6  7  1  0  0  0  0
  6  9  1  0  0  0  0
  7  8  1  0  0  0  0
  9 10  1  0  0  0  0
 10 11  2  0  0  0  0
M  END
>  <CHROM.1>
-29.89151826,-21.82865397,0.84898394,2.46055671,-0.15044380,-3.05177947

>  <Name>
ligand

>  <RI>
0

>  <Rbt.Current_Directory>
/home/itssahil/PROJECTS/Mol_Feturizer/New_Systems/rnas/2b57

>  <Rbt.Executable>
rbdock ($Id: //depot/dev/client3/rdock/2013.1/src/exe/rbdock.cxx#4 $)

>  <Rbt.Library>
libRbt.so (2013.1, Build901 2013/11/27)

>  <Rbt.Parameter_File>
/export/apps/rDock/src/rDock_2013.1_src/data/scripts/dock_solv.prm

>  <Rbt.Receptor>
prm/blind_docking_40.prm

>  <SCORE>
-6.05421

>  <SCORE.INTER>
-6.05421

>  <SCORE.INTER.CONST>
1

>  <SCORE.INTER.POLAR>
0

>  <SCORE.INTER.ROT>
0

>  <SCORE.INTER.SOLV>
7.97369

>  <SCORE.INTER.VDW>
-10.294

>  <SCORE.INTER.norm>
-0.550382

>  <SCORE.INTRA>
0

>  <SCORE.INTRA.DIHEDRAL>
0

>  <SCORE.INTRA.DIHEDRAL.0>
0

>  <SCORE.INTRA.POLAR>
0

>  <SCORE.INTRA.POLAR.0>
0

>  <SCORE.INTRA.REPUL>
0

>  <SCORE.INTRA.REPUL.0>
0

>  <SCORE.INTRA.SOLV>
0

>  <SCORE.INTRA.SOLV.lig_0>
-48.3454

>  <SCORE.INTRA.VDW>
0

>  <SCORE.INTRA.VDW.0>
0

>  <SCORE.INTRA.norm>
0

>  <SCORE.RESTR>
0

>  <SCORE.RESTR.CAVITY>
0

>  <SCORE.RESTR.norm>
0

>  <SCORE.SYSTEM>
0

>  <SCORE.SYSTEM.CONST>
0

>  <SCORE.SYSTEM.DIHEDRAL>
0

>  <SCORE.SYSTEM.SOLV>
0

>  <SCORE.SYSTEM.norm>
0

>  <SCORE.heavy>
11

>  <SCORE.norm>
-0.550382

>  <RMSD>
21.515

$$$$
ligand
 OpenBabel01301917033D
libRbt.so/2013.1/901 2013/11/27
 11 12  0  0  0  0  0  0  0  0999 V2000
  -31.9108  -14.2660    8.7007 N   0  0  0  0  0  0  0  0  0  0  0  0
  -31.6202  -12.9680    8.8832 C   0  0  0  0  0  0  0  0  0  0  0  0
  -30.8766  -12.3253    7.9871 N   0  0  0  0  0  0  0  0  0  0  0  0
  -32.0650  -12.3150    9.9680 N   0  0  0  0  0  0  0  0  0  0  0  0
  -32.8050  -12.9461   10.8915 C   0  0  0  0  0  0  0  0  0  0  0  0
  -33.1201  -14.2890   10.7271 C   0  0  0  0  0  0  0  0  0  0  0  0
  -32.6497  -14.9435    9.5935 C   0  0  0  0  0  0  0  0  0  0  0  0
  -32.9357  -16.2263    9.3916 N   0  0  0  0  0  0  0  0  0  0  0  0
  -33.8401  -14.6630   11.7806 N   0  0  0  0  0  0  0  0  0  0  0  0
  -33.9754  -13.6054   12.5776 C   0  0  0  0  0  0  0  0  0  0  0  0
  -33.3489  -12.5599   12.0420 N   0  0  0  0  0  0  0  0  0  0  0  0
  1  7  2  0  0  0  0
  1  2  1  0  0  0  0
  2  3  1  0  0  0  0
  2  4  2  0  0  0  0
  4  5  1  0  0  0  0
  5  6  2  0  0  0  0
  5 11  1  0  0  0  0
  6  7  1  0  0  0  0
  6  9  1  0  0  0  0
  7  8  1  0  0  0  0
  9 10  1  0  0  0  0
 10 11  2  0  0  0  0
M  END
>  <CHROM.1>
-32.63700693,-13.73612106,10.21016744,0.24644314,-0.98381647,-2.65500430

>  <Name>
ligand

>  <RI>
0

>  <Rbt.Current_Directory>
/home/itssahil/PROJECTS/Mol_Feturizer/New_Systems/rnas/2b57

>  <Rbt.Executable>
rbdock ($Id: //depot/dev/client3/rdock/2013.1/src/exe/rbdock.cxx#4 $)

>  <Rbt.Library>
libRbt.so (2013.1, Build901 2013/11/27)

>  <Rbt.Parameter_File>
/export/apps/rDock/src/rDock_2013.1_src/data/scripts/dock_solv.prm

>  <Rbt.Receptor>
prm/blind_docking_60.prm

>  <SCORE>
-5.393

>  <SCORE.INTER>
-5.393

>  <SCORE.INTER.CONST>
1

>  <SCORE.INTER.POLAR>
0

>  <SCORE.INTER.ROT>
0

>  <SCORE.INTER.SOLV>
12.4808

>  <SCORE.INTER.VDW>
-11.3556

>  <SCORE.INTER.norm>
-0.490272

>  <SCORE.INTRA>
0

>  <SCORE.INTRA.DIHEDRAL>
0

>  <SCORE.INTRA.DIHEDRAL.0>
0

>  <SCORE.INTRA.POLAR>
0

>  <SCORE.INTRA.POLAR.0>
0

>  <SCORE.INTRA.REPUL>
0

>  <SCORE.INTRA.REPUL.0>
0

>  <SCORE.INTRA.SOLV>
0

>  <SCORE.INTRA.SOLV.lig_0>
-48.3454

>  <SCORE.INTRA.VDW>
0

>  <SCORE.INTRA.VDW.0>
0

>  <SCORE.INTRA.norm>
0

>  <SCORE.RESTR>
0

>  <SCORE.RESTR.CAVITY>
0

>  <SCORE.RESTR.norm>
0

>  <SCORE.SYSTEM>
0

>  <SCORE.SYSTEM.CONST>
0

>  <SCORE.SYSTEM.DIHEDRAL>
0

>  <SCORE.SYSTEM.SOLV>
0

>  <SCORE.SYSTEM.norm>
0

>  <SCORE.heavy>
11

>  <SCORE.norm>
-0.490272

>  <RMSD>
21.632

$$$$
ligand
 OpenBabel01301917033D
libRbt.so/2013.1/901 2013/11/27
 11 12  0  0  0  0  0  0  0  0999 V2000
  -31.8291  -14.1169    8.8398 N   0  0  0  0  0  0  0  0  0  0  0  0
  -31.6167  -12.8056    9.0347 C   0  0  0  0  0  0  0  0  0  0  0  0
  -30.8783  -12.1200    8.1665 N   0  0  0  0  0  0  0  0  0  0  0  0
  -32.1345  -12.1817   10.1041 N   0  0  0  0  0  0  0  0  0  0  0  0
  -32.8710  -12.8558   10.9998 C   0  0  0  0  0  0  0  0  0  0  0  0
  -33.1060  -14.2133   10.8221 C   0  0  0  0  0  0  0  0  0  0  0  0
  -32.5608  -14.8369    9.7047 C   0  0  0  0  0  0  0  0  0  0  0  0
  -32.7688  -16.1327    9.4907 N   0  0  0  0  0  0  0  0  0  0  0  0
  -33.8411  -14.6299   11.8488 N   0  0  0  0  0  0  0  0  0  0  0  0
  -34.0621  -13.5842   12.6423 C   0  0  0  0  0  0  0  0  0  0  0  0
  -33.4754  -12.5040   12.1310 N   0  0  0  0  0  0  0  0  0  0  0  0
  1  7  2  0  0  0  0
  1  2  1  0  0  0  0
  2  3  1  0  0  0  0
  2  4  2  0  0  0  0
  4  5  1  0  0  0  0
  5  6  2  0  0  0  0
  5 11  1  0  0  0  0
  6  7  1  0  0  0  0
  6  9  1  0  0  0  0
  7  8  1  0  0  0  0
  9 10  1  0  0  0  0
 10 11  2  0  0  0  0
M  END
>  <CHROM.1>
-32.63601166,-13.63292642,10.32348776,0.13050617,-0.97514286,-2.74864518

>  <Name>
ligand

>  <RI>
0

>  <Rbt.Current_Directory>
/home/itssahil/PROJECTS/Mol_Feturizer/New_Systems/rnas/2b57

>  <Rbt.Executable>
rbdock ($Id: //depot/dev/client3/rdock/2013.1/src/exe/rbdock.cxx#4 $)

>  <Rbt.Library>
libRbt.so (2013.1, Build901 2013/11/27)

>  <Rbt.Parameter_File>
/export/apps/rDock/src/rDock_2013.1_src/data/scripts/dock_solv.prm

>  <Rbt.Receptor>
prm/blind_docking_60.prm

>  <SCORE>
-5.44684

>  <SCORE.INTER>
-5.44684

>  <SCORE.INTER.CONST>
1

>  <SCORE.INTER.POLAR>
0

>  <SCORE.INTER.ROT>
0

>  <SCORE.INTER.SOLV>
12.0764

>  <SCORE.INTER.VDW>
-11.2567

>  <SCORE.INTER.norm>
-0.495167

>  <SCORE.INTRA>
0

>  <SCORE.INTRA.DIHEDRAL>
0

>  <SCORE.INTRA.DIHEDRAL.0>
0

>  <SCORE.INTRA.POLAR>
0

>  <SCORE.INTRA.POLAR.0>
0

>  <SCORE.INTRA.REPUL>
0

>  <SCORE.INTRA.REPUL.0>
0

>  <SCORE.INTRA.SOLV>
0

>  <SCORE.INTRA.SOLV.lig_0>
-48.3454

>  <SCORE.INTRA.VDW>
0

>  <SCORE.INTRA.VDW.0>
0

>  <SCORE.INTRA.norm>
0

>  <SCORE.RESTR>
0

>  <SCORE.RESTR.CAVITY>
0

>  <SCORE.RESTR.norm>
0

>  <SCORE.SYSTEM>
0

>  <SCORE.SYSTEM.CONST>
0

>  <SCORE.SYSTEM.DIHEDRAL>
0

>  <SCORE.SYSTEM.SOLV>
0

>  <SCORE.SYSTEM.norm>
0

>  <SCORE.heavy>
11

>  <SCORE.norm>
-0.495167

>  <RMSD>
21.643

$$$$
ligand
 OpenBabel01301917033D
libRbt.so/2013.1/901 2013/11/27
 11 12  0  0  0  0  0  0  0  0999 V2000
  -32.3092  -15.4284    8.5517 N   0  0  0  0  0  0  0  0  0  0  0  0
  -32.7115  -16.4200    9.3627 C   0  0  0  0  0  0  0  0  0  0  0  0
  -32.5966  -17.6846    8.9670 N   0  0  0  0  0  0  0  0  0  0  0  0
  -33.2385  -16.1460   10.5661 N   0  0  0  0  0  0  0  0  0  0  0  0
  -33.3764  -14.8779   10.9806 C   0  0  0  0  0  0  0  0  0  0  0  0
  -32.9684  -13.8332   10.1610 C   0  0  0  0  0  0  0  0  0  0  0  0
  -32.4228  -14.1424    8.9195 C   0  0  0  0  0  0  0  0  0  0  0  0
  -32.0103  -13.1738    8.1072 N   0  0  0  0  0  0  0  0  0  0  0  0
  -33.2291  -12.6972   10.8011 N   0  0  0  0  0  0  0  0  0  0  0  0
  -33.7782  -13.0070   11.9734 C   0  0  0  0  0  0  0  0  0  0  0  0
  -33.8696  -14.3303   12.0877 N   0  0  0  0  0  0  0  0  0  0  0  0
  1  7  2  0  0  0  0
  1  2  1  0  0  0  0
  2  3  1  0  0  0  0
  2  4  2  0  0  0  0
  4  5  1  0  0  0  0
  5  6  2  0  0  0  0
  5 11  1  0  0  0  0
  6  7  1  0  0  0  0
  6  9  1  0  0  0  0
  7  8  1  0  0  0  0
  9 10  1  0  0  0  0
 10 11  2  0  0  0  0
M  END
>  <CHROM.1>
-32.94886450,-14.72086306,10.02710116,-0.97890731,1.14273789,0.08622434

>  <Name>
ligand

>  <RI>
0

>  <Rbt.Current_Directory>
/home/itssahil/PROJECTS/Mol_Feturizer/New_Systems/rnas/2b57

>  <Rbt.Executable>
rbdock ($Id: //depot/dev/client3/rdock/2013.1/src/exe/rbdock.cxx#4 $)

>  <Rbt.Library>
libRbt.so (2013.1, Build901 2013/11/27)

>  <Rbt.Parameter_File>
/export/apps/rDock/src/rDock_2013.1_src/data/scripts/dock_solv.prm

>  <Rbt.Receptor>
prm/blind_docking_60.prm

>  <SCORE>
-6.42101

>  <SCORE.INTER>
-6.42101

>  <SCORE.INTER.CONST>
1

>  <SCORE.INTER.POLAR>
0

>  <SCORE.INTER.ROT>
0

>  <SCORE.INTER.SOLV>
11.0388

>  <SCORE.INTER.VDW>
-11.5603

>  <SCORE.INTER.norm>
-0.583729

>  <SCORE.INTRA>
0

>  <SCORE.INTRA.DIHEDRAL>
0

>  <SCORE.INTRA.DIHEDRAL.0>
0

>  <SCORE.INTRA.POLAR>
0

>  <SCORE.INTRA.POLAR.0>
0

>  <SCORE.INTRA.REPUL>
0

>  <SCORE.INTRA.REPUL.0>
0

>  <SCORE.INTRA.SOLV>
0

>  <SCORE.INTRA.SOLV.lig_0>
-48.3454

>  <SCORE.INTRA.VDW>
0

>  <SCORE.INTRA.VDW.0>
0

>  <SCORE.INTRA.norm>
0

>  <SCORE.RESTR>
0

>  <SCORE.RESTR.CAVITY>
0

>  <SCORE.RESTR.norm>
0

>  <SCORE.SYSTEM>
0

>  <SCORE.SYSTEM.CONST>
0

>  <SCORE.SYSTEM.DIHEDRAL>
0

>  <SCORE.SYSTEM.SOLV>
0

>  <SCORE.SYSTEM.norm>
0

>  <SCORE.heavy>
11

>  <SCORE.norm>
-0.583729

>  <RMSD>
21.816

$$$$
ligand
 OpenBabel01301917033D
libRbt.so/2013.1/901 2013/11/27
 11 12  0  0  0  0  0  0  0  0999 V2000
  -31.2666  -13.7258   11.4400 N   0  0  0  0  0  0  0  0  0  0  0  0
  -32.2603  -14.3409   10.7789 C   0  0  0  0  0  0  0  0  0  0  0  0
  -32.0273  -14.8732    9.5826 N   0  0  0  0  0  0  0  0  0  0  0  0
  -33.4904  -14.4146   11.3104 N   0  0  0  0  0  0  0  0  0  0  0  0
  -33.7518  -13.8733   12.5094 C   0  0  0  0  0  0  0  0  0  0  0  0
  -32.7418  -13.2310   13.2143 C   0  0  0  0  0  0  0  0  0  0  0  0
  -31.4746  -13.1698   12.6439 C   0  0  0  0  0  0  0  0  0  0  0  0
  -30.4763  -12.5729   13.2884 N   0  0  0  0  0  0  0  0  0  0  0  0
  -33.2697  -12.7799   14.3483 N   0  0  0  0  0  0  0  0  0  0  0  0
  -34.5566  -13.1201   14.3620 C   0  0  0  0  0  0  0  0  0  0  0  0
  -34.8545  -13.7848   13.2476 N   0  0  0  0  0  0  0  0  0  0  0  0
  1  7  2  0  0  0  0
  1  2  1  0  0  0  0
  2  3  1  0  0  0  0
  2  4  2  0  0  0  0
  4  5  1  0  0  0  0
  5  6  2  0  0  0  0
  5 11  1  0  0  0  0
  6  7  1  0  0  0  0
  6  9  1  0  0  0  0
  7  8  1  0  0  0  0
  9 10  1  0  0  0  0
 10 11  2  0  0  0  0
M  END
>  <CHROM.1>
-32.72786520,-13.63149925,12.41076758,-1.02817955,0.23847448,1.09790793

>  <Name>
ligand

>  <RI>
0

>  <Rbt.Current_Directory>
/home/itssahil/PROJECTS/Mol_Feturizer/New_Systems/rnas/2b57

>  <Rbt.Executable>
rbdock ($Id: //depot/dev/client3/rdock/2013.1/src/exe/rbdock.cxx#4 $)

>  <Rbt.Library>
libRbt.so (2013.1, Build901 2013/11/27)

>  <Rbt.Parameter_File>
/export/apps/rDock/src/rDock_2013.1_src/data/scripts/dock_solv.prm

>  <Rbt.Receptor>
prm/blind_docking_40.prm

>  <SCORE>
-7.04948

>  <SCORE.INTER>
-7.04948

>  <SCORE.INTER.CONST>
1

>  <SCORE.INTER.POLAR>
0

>  <SCORE.INTER.ROT>
0

>  <SCORE.INTER.SOLV>
3.06733

>  <SCORE.INTER.VDW>
-9.3221

>  <SCORE.INTER.norm>
-0.640862

>  <SCORE.INTRA>
0

>  <SCORE.INTRA.DIHEDRAL>
0

>  <SCORE.INTRA.DIHEDRAL.0>
0

>  <SCORE.INTRA.POLAR>
0

>  <SCORE.INTRA.POLAR.0>
0

>  <SCORE.INTRA.REPUL>
0

>  <SCORE.INTRA.REPUL.0>
0

>  <SCORE.INTRA.SOLV>
0

>  <SCORE.INTRA.SOLV.lig_0>
-48.3454

>  <SCORE.INTRA.VDW>
0

>  <SCORE.INTRA.VDW.0>
0

>  <SCORE.INTRA.norm>
0

>  <SCORE.RESTR>
0

>  <SCORE.RESTR.CAVITY>
0

>  <SCORE.RESTR.norm>
0

>  <SCORE.SYSTEM>
0

>  <SCORE.SYSTEM.CONST>
0

>  <SCORE.SYSTEM.DIHEDRAL>
0

>  <SCORE.SYSTEM.SOLV>
0

>  <SCORE.SYSTEM.norm>
0

>  <SCORE.heavy>
11

>  <SCORE.norm>
-0.640862

>  <RMSD>
21.999

$$$$
ligand
 OpenBabel01301917033D
libRbt.so/2013.1/901 2013/11/27
 11 12  0  0  0  0  0  0  0  0999 V2000
  -31.4435  -13.5569   11.5696 N   0  0  0  0  0  0  0  0  0  0  0  0
  -32.3982  -14.2472   10.9255 C   0  0  0  0  0  0  0  0  0  0  0  0
  -32.1360  -14.7865    9.7383 N   0  0  0  0  0  0  0  0  0  0  0  0
  -33.6190  -14.3894   11.4644 N   0  0  0  0  0  0  0  0  0  0  0  0
  -33.9100  -13.8428   12.6542 C   0  0  0  0  0  0  0  0  0  0  0  0
  -32.9406  -13.1235   13.3416 C   0  0  0  0  0  0  0  0  0  0  0  0
  -31.6822  -12.9922   12.7638 C   0  0  0  0  0  0  0  0  0  0  0  0
  -30.7219  -12.3202   13.3917 N   0  0  0  0  0  0  0  0  0  0  0  0
  -33.4921  -12.6854   14.4694 N   0  0  0  0  0  0  0  0  0  0  0  0
  -34.7545  -13.1071   14.4961 C   0  0  0  0  0  0  0  0  0  0  0  0
  -35.0133  -13.8109   13.3961 N   0  0  0  0  0  0  0  0  0  0  0  0
  1  7  2  0  0  0  0
  1  2  1  0  0  0  0
  2  3  1  0  0  0  0
  2  4  2  0  0  0  0
  4  5  1  0  0  0  0
  5  6  2  0  0  0  0
  5 11  1  0  0  0  0
  6  7  1  0  0  0  0
  6  9  1  0  0  0  0
  7  8  1  0  0  0  0
  9 10  1  0  0  0  0
 10 11  2  0  0  0  0
M  END
>  <CHROM.1>
-32.90412412,-13.53779358,12.54578752,-1.00114076,0.29734732,1.07149713

>  <Name>
ligand

>  <RI>
0

>  <Rbt.Current_Directory>
/home/itssahil/PROJECTS/Mol_Feturizer/New_Systems/rnas/2b57

>  <Rbt.Executable>
rbdock ($Id: //depot/dev/client3/rdock/2013.1/src/exe/rbdock.cxx#4 $)

>  <Rbt.Library>
libRbt.so (2013.1, Build901 2013/11/27)

>  <Rbt.Parameter_File>
/export/apps/rDock/src/rDock_2013.1_src/data/scripts/dock_solv.prm

>  <Rbt.Receptor>
prm/blind_docking_60.prm

>  <SCORE>
-7.38697

>  <SCORE.INTER>
-7.38697

>  <SCORE.INTER.CONST>
1

>  <SCORE.INTER.POLAR>
0

>  <SCORE.INTER.ROT>
0

>  <SCORE.INTER.SOLV>
3.17

>  <SCORE.INTER.VDW>
-9.58131

>  <SCORE.INTER.norm>
-0.671542

>  <SCORE.INTRA>
0

>  <SCORE.INTRA.DIHEDRAL>
0

>  <SCORE.INTRA.DIHEDRAL.0>
0

>  <SCORE.INTRA.POLAR>
0

>  <SCORE.INTRA.POLAR.0>
0

>  <SCORE.INTRA.REPUL>
0

>  <SCORE.INTRA.REPUL.0>
0

>  <SCORE.INTRA.SOLV>
0

>  <SCORE.INTRA.SOLV.lig_0>
-48.3454

>  <SCORE.INTRA.VDW>
0

>  <SCORE.INTRA.VDW.0>
0

>  <SCORE.INTRA.norm>
0

>  <SCORE.RESTR>
0

>  <SCORE.RESTR.CAVITY>
0

>  <SCORE.RESTR.norm>
0

>  <SCORE.SYSTEM>
0

>  <SCORE.SYSTEM.CONST>
0

>  <SCORE.SYSTEM.DIHEDRAL>
0

>  <SCORE.SYSTEM.SOLV>
0

>  <SCORE.SYSTEM.norm>
0

>  <SCORE.heavy>
11

>  <SCORE.norm>
-0.671542

>  <RMSD>
22.192

$$$$
ligand
 OpenBabel01301917033D
libRbt.so/2013.1/901 2013/11/27
 11 12  0  0  0  0  0  0  0  0999 V2000
  -31.3979  -13.4729   11.7245 N   0  0  0  0  0  0  0  0  0  0  0  0
  -32.3235  -14.1418   11.0185 C   0  0  0  0  0  0  0  0  0  0  0  0
  -32.0101  -14.6439    9.8274 N   0  0  0  0  0  0  0  0  0  0  0  0
  -33.5664  -14.2997   11.4995 N   0  0  0  0  0  0  0  0  0  0  0  0
  -33.9087  -13.7904   12.6921 C   0  0  0  0  0  0  0  0  0  0  0  0
  -32.9703  -13.0939   13.4430 C   0  0  0  0  0  0  0  0  0  0  0  0
  -31.6881  -12.9456   12.9244 C   0  0  0  0  0  0  0  0  0  0  0  0
  -30.7561  -12.2945   13.6139 N   0  0  0  0  0  0  0  0  0  0  0  0
  -33.5701  -12.6907   14.5591 N   0  0  0  0  0  0  0  0  0  0  0  0
  -34.8322  -13.1119   14.5181 C   0  0  0  0  0  0  0  0  0  0  0  0
  -35.0430  -13.7807   13.3864 N   0  0  0  0  0  0  0  0  0  0  0  0
  1  7  2  0  0  0  0
  1  2  1  0  0  0  0
  2  3  1  0  0  0  0
  2  4  2  0  0  0  0
  4  5  1  0  0  0  0
  5  6  2  0  0  0  0
  5 11  1  0  0  0  0
  6  7  1  0  0  0  0
  6  9  1  0  0  0  0
  7  8  1  0  0  0  0
  9 10  1  0  0  0  0
 10 11  2  0  0  0  0
M  END
>  <CHROM.1>
-32.89923785,-13.48302671,12.63687331,-0.96151231,0.27683733,1.09161623

>  <Name>
ligand

>  <RI>
0

>  <Rbt.Current_Directory>
/home/itssahil/PROJECTS/Mol_Feturizer/New_Systems/rnas/2b57

>  <Rbt.Executable>
rbdock ($Id: //depot/dev/client3/rdock/2013.1/src/exe/rbdock.cxx#4 $)

>  <Rbt.Library>
libRbt.so (2013.1, Build901 2013/11/27)

>  <Rbt.Parameter_File>
/export/apps/rDock/src/rDock_2013.1_src/data/scripts/dock_solv.prm

>  <Rbt.Receptor>
prm/blind_docking_80.prm

>  <SCORE>
-7.43484

>  <SCORE.INTER>
-7.43484

>  <SCORE.INTER.CONST>
1

>  <SCORE.INTER.POLAR>
0

>  <SCORE.INTER.ROT>
0

>  <SCORE.INTER.SOLV>
3.04298

>  <SCORE.INTER.VDW>
-9.57089

>  <SCORE.INTER.norm>
-0.675894

>  <SCORE.INTRA>
0

>  <SCORE.INTRA.DIHEDRAL>
0

>  <SCORE.INTRA.DIHEDRAL.0>
0

>  <SCORE.INTRA.POLAR>
0

>  <SCORE.INTRA.POLAR.0>
0

>  <SCORE.INTRA.REPUL>
0

>  <SCORE.INTRA.REPUL.0>
0

>  <SCORE.INTRA.SOLV>
0

>  <SCORE.INTRA.SOLV.lig_0>
-48.3454

>  <SCORE.INTRA.VDW>
0

>  <SCORE.INTRA.VDW.0>
0

>  <SCORE.INTRA.norm>
0

>  <SCORE.RESTR>
0

>  <SCORE.RESTR.CAVITY>
0

>  <SCORE.RESTR.norm>
0

>  <SCORE.SYSTEM>
0

>  <SCORE.SYSTEM.CONST>
0

>  <SCORE.SYSTEM.DIHEDRAL>
0

>  <SCORE.SYSTEM.SOLV>
0

>  <SCORE.SYSTEM.norm>
0

>  <SCORE.heavy>
11

>  <SCORE.norm>
-0.675894

>  <RMSD>
22.206

$$$$
ligand
 OpenBabel01301917033D
libRbt.so/2013.1/901 2013/11/27
 11 12  0  0  0  0  0  0  0  0999 V2000
  -31.4317  -13.5174   11.6841 N   0  0  0  0  0  0  0  0  0  0  0  0
  -32.3692  -14.1850   10.9926 C   0  0  0  0  0  0  0  0  0  0  0  0
  -32.0713  -14.6992    9.8027 N   0  0  0  0  0  0  0  0  0  0  0  0
  -33.6085  -14.3294   11.4870 N   0  0  0  0  0  0  0  0  0  0  0  0
  -33.9353  -13.8078   12.6787 C   0  0  0  0  0  0  0  0  0  0  0  0
  -32.9843  -13.1123   13.4146 C   0  0  0  0  0  0  0  0  0  0  0  0
  -31.7062  -12.9781   12.8823 C   0  0  0  0  0  0  0  0  0  0  0  0
  -30.7626  -12.3285   13.5573 N   0  0  0  0  0  0  0  0  0  0  0  0
  -33.5702  -12.6955   14.5331 N   0  0  0  0  0  0  0  0  0  0  0  0
  -34.8357  -13.1074   14.5078 C   0  0  0  0  0  0  0  0  0  0  0  0
  -35.0626  -13.7838   13.3838 N   0  0  0  0  0  0  0  0  0  0  0  0
  1  7  2  0  0  0  0
  1  2  1  0  0  0  0
  2  3  1  0  0  0  0
  2  4  2  0  0  0  0
  4  5  1  0  0  0  0
  5  6  2  0  0  0  0
  5 11  1  0  0  0  0
  6  7  1  0  0  0  0
  6  9  1  0  0  0  0
  7  8  1  0  0  0  0
  9 10  1  0  0  0  0
 10 11  2  0  0  0  0
M  END
>  <CHROM.1>
-32.92411761,-13.50861459,12.61104877,-0.97415271,0.27463614,1.08683392

>  <Name>
ligand

>  <RI>
0

>  <Rbt.Current_Directory>
/home/itssahil/PROJECTS/Mol_Feturizer/New_Systems/rnas/2b57

>  <Rbt.Executable>
rbdock ($Id: //depot/dev/client3/rdock/2013.1/src/exe/rbdock.cxx#4 $)

>  <Rbt.Library>
libRbt.so (2013.1, Build901 2013/11/27)

>  <Rbt.Parameter_File>
/export/apps/rDock/src/rDock_2013.1_src/data/scripts/dock_solv.prm

>  <Rbt.Receptor>
prm/blind_docking_80.prm

>  <SCORE>
-7.40805

>  <SCORE.INTER>
-7.40805

>  <SCORE.INTER.CONST>
1

>  <SCORE.INTER.POLAR>
0

>  <SCORE.INTER.ROT>
0

>  <SCORE.INTER.SOLV>
3.18516

>  <SCORE.INTER.VDW>
-9.60042

>  <SCORE.INTER.norm>
-0.673459

>  <SCORE.INTRA>
0

>  <SCORE.INTRA.DIHEDRAL>
0

>  <SCORE.INTRA.DIHEDRAL.0>
0

>  <SCORE.INTRA.POLAR>
0

>  <SCORE.INTRA.POLAR.0>
0

>  <SCORE.INTRA.REPUL>
0

>  <SCORE.INTRA.REPUL.0>
0

>  <SCORE.INTRA.SOLV>
0

>  <SCORE.INTRA.SOLV.lig_0>
-48.3454

>  <SCORE.INTRA.VDW>
0

>  <SCORE.INTRA.VDW.0>
0

>  <SCORE.INTRA.norm>
0

>  <SCORE.RESTR>
0

>  <SCORE.RESTR.CAVITY>
0

>  <SCORE.RESTR.norm>
0

>  <SCORE.SYSTEM>
0

>  <SCORE.SYSTEM.CONST>
0

>  <SCORE.SYSTEM.DIHEDRAL>
0

>  <SCORE.SYSTEM.SOLV>
0

>  <SCORE.SYSTEM.norm>
0

>  <SCORE.heavy>
11

>  <SCORE.norm>
-0.673459

>  <RMSD>
22.225

$$$$
ligand
 OpenBabel01301917033D
libRbt.so/2013.1/901 2013/11/27
 11 12  0  0  0  0  0  0  0  0999 V2000
  -31.5079  -13.6111   11.5399 N   0  0  0  0  0  0  0  0  0  0  0  0
  -32.4902  -14.2956   10.9323 C   0  0  0  0  0  0  0  0  0  0  0  0
  -32.2702  -14.8527    9.7448 N   0  0  0  0  0  0  0  0  0  0  0  0
  -33.6967  -14.4142   11.5080 N   0  0  0  0  0  0  0  0  0  0  0  0
  -33.9455  -13.8494   12.6988 C   0  0  0  0  0  0  0  0  0  0  0  0
  -32.9468  -13.1356   13.3490 C   0  0  0  0  0  0  0  0  0  0  0  0
  -31.7041  -13.0288   12.7334 C   0  0  0  0  0  0  0  0  0  0  0  0
  -30.7168  -12.3628   13.3249 N   0  0  0  0  0  0  0  0  0  0  0  0
  -33.4592  -12.6762   14.4867 N   0  0  0  0  0  0  0  0  0  0  0  0
  -34.7259  -13.0799   14.5552 C   0  0  0  0  0  0  0  0  0  0  0  0
  -35.0262  -13.7932   13.4719 N   0  0  0  0  0  0  0  0  0  0  0  0
  1  7  2  0  0  0  0
  1  2  1  0  0  0  0
  2  3  1  0  0  0  0
  2  4  2  0  0  0  0
  4  5  1  0  0  0  0
  5  6  2  0  0  0  0
  5 11  1  0  0  0  0
  6  7  1  0  0  0  0
  6  9  1  0  0  0  0
  7  8  1  0  0  0  0
  9 10  1  0  0  0  0
 10 11  2  0  0  0  0
M  END
>  <CHROM.1>
-32.93912563,-13.55979308,12.55762830,-1.03471104,0.29914061,1.06918061

>  <Name>
ligand

>  <RI>
0

>  <Rbt.Current_Directory>
/home/itssahil/PROJECTS/Mol_Feturizer/New_Systems/rnas/2b57

>  <Rbt.Executable>
rbdock ($Id: //depot/dev/client3/rdock/2013.1/src/exe/rbdock.cxx#4 $)

>  <Rbt.Library>
libRbt.so (2013.1, Build901 2013/11/27)

>  <Rbt.Parameter_File>
/export/apps/rDock/src/rDock_2013.1_src/data/scripts/dock_solv.prm

>  <Rbt.Receptor>
prm/blind_docking_60.prm

>  <SCORE>
-7.40224

>  <SCORE.INTER>
-7.40224

>  <SCORE.INTER.CONST>
1

>  <SCORE.INTER.POLAR>
0

>  <SCORE.INTER.ROT>
0

>  <SCORE.INTER.SOLV>
3.51403

>  <SCORE.INTER.VDW>
-9.70617

>  <SCORE.INTER.norm>
-0.672931

>  <SCORE.INTRA>
0

>  <SCORE.INTRA.DIHEDRAL>
0

>  <SCORE.INTRA.DIHEDRAL.0>
0

>  <SCORE.INTRA.POLAR>
0

>  <SCORE.INTRA.POLAR.0>
0

>  <SCORE.INTRA.REPUL>
0

>  <SCORE.INTRA.REPUL.0>
0

>  <SCORE.INTRA.SOLV>
0

>  <SCORE.INTRA.SOLV.lig_0>
-48.3454

>  <SCORE.INTRA.VDW>
0

>  <SCORE.INTRA.VDW.0>
0

>  <SCORE.INTRA.norm>
0

>  <SCORE.RESTR>
0

>  <SCORE.RESTR.CAVITY>
0

>  <SCORE.RESTR.norm>
0

>  <SCORE.SYSTEM>
0

>  <SCORE.SYSTEM.CONST>
0

>  <SCORE.SYSTEM.DIHEDRAL>
0

>  <SCORE.SYSTEM.SOLV>
0

>  <SCORE.SYSTEM.norm>
0

>  <SCORE.heavy>
11

>  <SCORE.norm>
-0.672931

>  <RMSD>
22.229

$$$$
ligand
 OpenBabel01301917033D
libRbt.so/2013.1/901 2013/11/27
 11 12  0  0  0  0  0  0  0  0999 V2000
  -31.5081  -13.6091   11.5543 N   0  0  0  0  0  0  0  0  0  0  0  0
  -32.4933  -14.2885   10.9456 C   0  0  0  0  0  0  0  0  0  0  0  0
  -32.2767  -14.8417    9.7556 N   0  0  0  0  0  0  0  0  0  0  0  0
  -33.6992  -14.4059   11.5228 N   0  0  0  0  0  0  0  0  0  0  0  0
  -33.9445  -13.8450   12.7162 C   0  0  0  0  0  0  0  0  0  0  0  0
  -32.9428  -13.1365   13.3675 C   0  0  0  0  0  0  0  0  0  0  0  0
  -31.7007  -13.0309   12.7503 C   0  0  0  0  0  0  0  0  0  0  0  0
  -30.7106  -12.3700   13.3428 N   0  0  0  0  0  0  0  0  0  0  0  0
  -33.4521  -12.6802   14.5078 N   0  0  0  0  0  0  0  0  0  0  0  0
  -34.7198  -13.0805   14.5767 C   0  0  0  0  0  0  0  0  0  0  0  0
  -35.0238  -13.7888   13.4912 N   0  0  0  0  0  0  0  0  0  0  0  0
  1  7  2  0  0  0  0
  1  2  1  0  0  0  0
  2  3  1  0  0  0  0
  2  4  2  0  0  0  0
  4  5  1  0  0  0  0
  5  6  2  0  0  0  0
  5 11  1  0  0  0  0
  6  7  1  0  0  0  0
  6  9  1  0  0  0  0
  7  8  1  0  0  0  0
  9 10  1  0  0  0  0
 10 11  2  0  0  0  0
M  END
>  <CHROM.1>
-32.93754395,-13.55773801,12.57448246,-1.03758845,0.29743496,1.07388196

>  <Name>
ligand

>  <RI>
0

>  <Rbt.Current_Directory>
/home/itssahil/PROJECTS/Mol_Feturizer/New_Systems/rnas/2b57

>  <Rbt.Executable>
rbdock ($Id: //depot/dev/client3/rdock/2013.1/src/exe/rbdock.cxx#4 $)

>  <Rbt.Library>
libRbt.so (2013.1, Build901 2013/11/27)

>  <Rbt.Parameter_File>
/export/apps/rDock/src/rDock_2013.1_src/data/scripts/dock_solv.prm

>  <Rbt.Receptor>
prm/blind_docking_100.prm

>  <SCORE>
-7.39807

>  <SCORE.INTER>
-7.39807

>  <SCORE.INTER.CONST>
1

>  <SCORE.INTER.POLAR>
0

>  <SCORE.INTER.ROT>
0

>  <SCORE.INTER.SOLV>
3.57556

>  <SCORE.INTER.VDW>
-9.7239

>  <SCORE.INTER.norm>
-0.672552

>  <SCORE.INTRA>
0

>  <SCORE.INTRA.DIHEDRAL>
0

>  <SCORE.INTRA.DIHEDRAL.0>
0

>  <SCORE.INTRA.POLAR>
0

>  <SCORE.INTRA.POLAR.0>
0

>  <SCORE.INTRA.REPUL>
0

>  <SCORE.INTRA.REPUL.0>
0

>  <SCORE.INTRA.SOLV>
0

>  <SCORE.INTRA.SOLV.lig_0>
-48.3454

>  <SCORE.INTRA.VDW>
0

>  <SCORE.INTRA.VDW.0>
0

>  <SCORE.INTRA.norm>
0

>  <SCORE.RESTR>
0

>  <SCORE.RESTR.CAVITY>
0

>  <SCORE.RESTR.norm>
0

>  <SCORE.SYSTEM>
0

>  <SCORE.SYSTEM.CONST>
0

>  <SCORE.SYSTEM.DIHEDRAL>
0

>  <SCORE.SYSTEM.SOLV>
0

>  <SCORE.SYSTEM.norm>
0

>  <SCORE.heavy>
11

>  <SCORE.norm>
-0.672552

>  <RMSD>
22.232

$$$$
ligand
 OpenBabel01301917033D
libRbt.so/2013.1/901 2013/11/27
 11 12  0  0  0  0  0  0  0  0999 V2000
  -31.4675  -13.5334   11.6487 N   0  0  0  0  0  0  0  0  0  0  0  0
  -32.4117  -14.2100   10.9753 C   0  0  0  0  0  0  0  0  0  0  0  0
  -32.1253  -14.7401    9.7896 N   0  0  0  0  0  0  0  0  0  0  0  0
  -33.6461  -14.3477   11.4836 N   0  0  0  0  0  0  0  0  0  0  0  0
  -33.9614  -13.8101   12.6713 C   0  0  0  0  0  0  0  0  0  0  0  0
  -33.0033  -13.1051   13.3886 C   0  0  0  0  0  0  0  0  0  0  0  0
  -31.7305  -12.9782   12.8423 C   0  0  0  0  0  0  0  0  0  0  0  0
  -30.7803  -12.3197   13.4994 N   0  0  0  0  0  0  0  0  0  0  0  0
  -33.5783  -12.6732   14.5070 N   0  0  0  0  0  0  0  0  0  0  0  0
  -34.8441  -13.0852   14.4995 C   0  0  0  0  0  0  0  0  0  0  0  0
  -35.0819  -13.7765   13.3869 N   0  0  0  0  0  0  0  0  0  0  0  0
  1  7  2  0  0  0  0
  1  2  1  0  0  0  0
  2  3  1  0  0  0  0
  2  4  2  0  0  0  0
  4  5  1  0  0  0  0
  5  6  2  0  0  0  0
  5 11  1  0  0  0  0
  6  7  1  0  0  0  0
  6  9  1  0  0  0  0
  7  8  1  0  0  0  0
  9 10  1  0  0  0  0
 10 11  2  0  0  0  0
M  END
>  <CHROM.1>
-32.95090430,-13.51201557,12.58990074,-0.98305853,0.27909563,1.07593156

>  <Name>
ligand

>  <RI>
0

>  <Rbt.Current_Directory>
/home/itssahil/PROJECTS/Mol_Feturizer/New_Systems/rnas/2b57

>  <Rbt.Executable>
rbdock ($Id: //depot/dev/client3/rdock/2013.1/src/exe/rbdock.cxx#4 $)

>  <Rbt.Library>
libRbt.so (2013.1, Build901 2013/11/27)

>  <Rbt.Parameter_File>
/export/apps/rDock/src/rDock_2013.1_src/data/scripts/dock_solv.prm

>  <Rbt.Receptor>
prm/blind_docking_80.prm

>  <SCORE>
-7.40155

>  <SCORE.INTER>
-7.40155

>  <SCORE.INTER.CONST>
1

>  <SCORE.INTER.POLAR>
0

>  <SCORE.INTER.ROT>
0

>  <SCORE.INTER.SOLV>
3.22542

>  <SCORE.INTER.VDW>
-9.6095

>  <SCORE.INTER.norm>
-0.672868

>  <SCORE.INTRA>
0

>  <SCORE.INTRA.DIHEDRAL>
0

>  <SCORE.INTRA.DIHEDRAL.0>
0

>  <SCORE.INTRA.POLAR>
0

>  <SCORE.INTRA.POLAR.0>
0

>  <SCORE.INTRA.REPUL>
0

>  <SCORE.INTRA.REPUL.0>
0

>  <SCORE.INTRA.SOLV>
0

>  <SCORE.INTRA.SOLV.lig_0>
-48.3454

>  <SCORE.INTRA.VDW>
0

>  <SCORE.INTRA.VDW.0>
0

>  <SCORE.INTRA.norm>
0

>  <SCORE.RESTR>
0

>  <SCORE.RESTR.CAVITY>
0

>  <SCORE.RESTR.norm>
0

>  <SCORE.SYSTEM>
0

>  <SCORE.SYSTEM.CONST>
0

>  <SCORE.SYSTEM.DIHEDRAL>
0

>  <SCORE.SYSTEM.SOLV>
0

>  <SCORE.SYSTEM.norm>
0

>  <SCORE.heavy>
11

>  <SCORE.norm>
-0.672868

>  <RMSD>
22.246

$$$$
ligand
 OpenBabel01301917033D
libRbt.so/2013.1/901 2013/11/27
 11 12  0  0  0  0  0  0  0  0999 V2000
  -31.1573  -12.5606   15.2843 N   0  0  0  0  0  0  0  0  0  0  0  0
  -30.7865  -13.1017   14.1128 C   0  0  0  0  0  0  0  0  0  0  0  0
  -29.4951  -13.1985   13.8094 N   0  0  0  0  0  0  0  0  0  0  0  0
  -31.7082  -13.5367   13.2397 N   0  0  0  0  0  0  0  0  0  0  0  0
  -33.0163  -13.4369   13.5186 C   0  0  0  0  0  0  0  0  0  0  0  0
  -33.4272  -12.8810   14.7235 C   0  0  0  0  0  0  0  0  0  0  0  0
  -32.4532  -12.4397   15.6131 C   0  0  0  0  0  0  0  0  0  0  0  0
  -32.8018  -11.9100   16.7819 N   0  0  0  0  0  0  0  0  0  0  0  0
  -34.7567  -12.8903   14.7358 N   0  0  0  0  0  0  0  0  0  0  0  0
  -35.1708  -13.4273   13.5903 C   0  0  0  0  0  0  0  0  0  0  0  0
  -34.1177  -13.7614   12.8475 N   0  0  0  0  0  0  0  0  0  0  0  0
  1  7  2  0  0  0  0
  1  2  1  0  0  0  0
  2  3  1  0  0  0  0
  2  4  2  0  0  0  0
  4  5  1  0  0  0  0
  5  6  2  0  0  0  0
  5 11  1  0  0  0  0
  6  7  1  0  0  0  0
  6  9  1  0  0  0  0
  7  8  1  0  0  0  0
  9 10  1  0  0  0  0
 10 11  2  0  0  0  0
M  END
>  <CHROM.1>
-32.60259207,-13.01004901,14.39221463,0.11884773,0.02008529,1.13613731

>  <Name>
ligand

>  <RI>
0

>  <Rbt.Current_Directory>
/home/itssahil/PROJECTS/Mol_Feturizer/New_Systems/rnas/2b57

>  <Rbt.Executable>
rbdock ($Id: //depot/dev/client3/rdock/2013.1/src/exe/rbdock.cxx#4 $)

>  <Rbt.Library>
libRbt.so (2013.1, Build901 2013/11/27)

>  <Rbt.Parameter_File>
/export/apps/rDock/src/rDock_2013.1_src/data/scripts/dock_solv.prm

>  <Rbt.Receptor>
prm/blind_docking_80.prm

>  <SCORE>
-5.60871

>  <SCORE.INTER>
-5.60871

>  <SCORE.INTER.CONST>
1

>  <SCORE.INTER.POLAR>
0

>  <SCORE.INTER.ROT>
0

>  <SCORE.INTER.SOLV>
3.79399

>  <SCORE.INTER.VDW>
-8.60381

>  <SCORE.INTER.norm>
-0.509883

>  <SCORE.INTRA>
0

>  <SCORE.INTRA.DIHEDRAL>
0

>  <SCORE.INTRA.DIHEDRAL.0>
0

>  <SCORE.INTRA.POLAR>
0

>  <SCORE.INTRA.POLAR.0>
0

>  <SCORE.INTRA.REPUL>
0

>  <SCORE.INTRA.REPUL.0>
0

>  <SCORE.INTRA.SOLV>
0

>  <SCORE.INTRA.SOLV.lig_0>
-48.3454

>  <SCORE.INTRA.VDW>
0

>  <SCORE.INTRA.VDW.0>
0

>  <SCORE.INTRA.norm>
0

>  <SCORE.RESTR>
0

>  <SCORE.RESTR.CAVITY>
0

>  <SCORE.RESTR.norm>
0

>  <SCORE.SYSTEM>
0

>  <SCORE.SYSTEM.CONST>
0

>  <SCORE.SYSTEM.DIHEDRAL>
0

>  <SCORE.SYSTEM.SOLV>
0

>  <SCORE.SYSTEM.norm>
0

>  <SCORE.heavy>
11

>  <SCORE.norm>
-0.509883

>  <RMSD>
22.259

$$$$
ligand
 OpenBabel01301917033D
libRbt.so/2013.1/901 2013/11/27
 11 12  0  0  0  0  0  0  0  0999 V2000
  -32.8346  -12.5809   15.2183 N   0  0  0  0  0  0  0  0  0  0  0  0
  -34.0637  -13.1209   15.2380 C   0  0  0  0  0  0  0  0  0  0  0  0
  -34.7892  -13.0709   16.3517 N   0  0  0  0  0  0  0  0  0  0  0  0
  -34.5635  -13.7205   14.1463 N   0  0  0  0  0  0  0  0  0  0  0  0
  -33.8446  -13.7947   13.0164 C   0  0  0  0  0  0  0  0  0  0  0  0
  -32.5702  -13.2442   12.9689 C   0  0  0  0  0  0  0  0  0  0  0  0
  -32.0751  -12.6258   14.1123 C   0  0  0  0  0  0  0  0  0  0  0  0
  -30.8638  -12.0773   14.1080 N   0  0  0  0  0  0  0  0  0  0  0  0
  -32.0824  -13.4685   11.7525 N   0  0  0  0  0  0  0  0  0  0  0  0
  -33.0054  -14.1318   11.0595 C   0  0  0  0  0  0  0  0  0  0  0  0
  -34.0779  -14.3321   11.8225 N   0  0  0  0  0  0  0  0  0  0  0  0
  1  7  2  0  0  0  0
  1  2  1  0  0  0  0
  2  3  1  0  0  0  0
  2  4  2  0  0  0  0
  4  5  1  0  0  0  0
  5  6  2  0  0  0  0
  5 11  1  0  0  0  0
  6  7  1  0  0  0  0
  6  9  1  0  0  0  0
  7  8  1  0  0  0  0
  9 10  1  0  0  0  0
 10 11  2  0  0  0  0
M  END
>  <CHROM.1>
-33.16435802,-13.28135910,13.64113021,-1.85180324,-0.40108496,-1.90950485

>  <Name>
ligand

>  <RI>
0

>  <Rbt.Current_Directory>
/home/itssahil/PROJECTS/Mol_Feturizer/New_Systems/rnas/2b57

>  <Rbt.Executable>
rbdock ($Id: //depot/dev/client3/rdock/2013.1/src/exe/rbdock.cxx#4 $)

>  <Rbt.Library>
libRbt.so (2013.1, Build901 2013/11/27)

>  <Rbt.Parameter_File>
/export/apps/rDock/src/rDock_2013.1_src/data/scripts/dock_solv.prm

>  <Rbt.Receptor>
prm/blind_docking_100.prm

>  <SCORE>
-6.24043

>  <SCORE.INTER>
-6.24043

>  <SCORE.INTER.CONST>
1

>  <SCORE.INTER.POLAR>
0

>  <SCORE.INTER.ROT>
0

>  <SCORE.INTER.SOLV>
5.35895

>  <SCORE.INTER.VDW>
-9.5466

>  <SCORE.INTER.norm>
-0.567311

>  <SCORE.INTRA>
0

>  <SCORE.INTRA.DIHEDRAL>
0

>  <SCORE.INTRA.DIHEDRAL.0>
0

>  <SCORE.INTRA.POLAR>
0

>  <SCORE.INTRA.POLAR.0>
0

>  <SCORE.INTRA.REPUL>
0

>  <SCORE.INTRA.REPUL.0>
0

>  <SCORE.INTRA.SOLV>
0

>  <SCORE.INTRA.SOLV.lig_0>
-48.3454

>  <SCORE.INTRA.VDW>
0

>  <SCORE.INTRA.VDW.0>
0

>  <SCORE.INTRA.norm>
0

>  <SCORE.RESTR>
0

>  <SCORE.RESTR.CAVITY>
0

>  <SCORE.RESTR.norm>
0

>  <SCORE.SYSTEM>
0

>  <SCORE.SYSTEM.CONST>
0

>  <SCORE.SYSTEM.DIHEDRAL>
0

>  <SCORE.SYSTEM.SOLV>
0

>  <SCORE.SYSTEM.norm>
0

>  <SCORE.heavy>
11

>  <SCORE.norm>
-0.567311

>  <RMSD>
22.454

$$$$
ligand
 OpenBabel01301917033D
libRbt.so/2013.1/901 2013/11/27
 11 12  0  0  0  0  0  0  0  0999 V2000
  -32.8960  -12.5962   15.3201 N   0  0  0  0  0  0  0  0  0  0  0  0
  -34.1282  -13.1292   15.3350 C   0  0  0  0  0  0  0  0  0  0  0  0
  -34.8555  -13.0806   16.4475 N   0  0  0  0  0  0  0  0  0  0  0  0
  -34.6293  -13.7204   14.2393 N   0  0  0  0  0  0  0  0  0  0  0  0
  -33.9089  -13.7931   13.1104 C   0  0  0  0  0  0  0  0  0  0  0  0
  -32.6312  -13.2497   13.0680 C   0  0  0  0  0  0  0  0  0  0  0  0
  -32.1347  -12.6399   14.2154 C   0  0  0  0  0  0  0  0  0  0  0  0
  -30.9203  -12.0984   14.2161 N   0  0  0  0  0  0  0  0  0  0  0  0
  -32.1425  -13.4707   11.8513 N   0  0  0  0  0  0  0  0  0  0  0  0
  -33.0680  -14.1252   11.1534 C   0  0  0  0  0  0  0  0  0  0  0  0
  -34.1430  -14.3231   11.9134 N   0  0  0  0  0  0  0  0  0  0  0  0
  1  7  2  0  0  0  0
  1  2  1  0  0  0  0
  2  3  1  0  0  0  0
  2  4  2  0  0  0  0
  4  5  1  0  0  0  0
  5  6  2  0  0  0  0
  5 11  1  0  0  0  0
  6  7  1  0  0  0  0
  6  9  1  0  0  0  0
  7  8  1  0  0  0  0
  9 10  1  0  0  0  0
 10 11  2  0  0  0  0
M  END
>  <CHROM.1>
-33.22680716,-13.28680221,13.73892262,-1.85162861,-0.39504308,-1.90441373

>  <Name>
ligand

>  <RI>
0

>  <Rbt.Current_Directory>
/home/itssahil/PROJECTS/Mol_Feturizer/New_Systems/rnas/2b57

>  <Rbt.Executable>
rbdock ($Id: //depot/dev/client3/rdock/2013.1/src/exe/rbdock.cxx#4 $)

>  <Rbt.Library>
libRbt.so (2013.1, Build901 2013/11/27)

>  <Rbt.Parameter_File>
/export/apps/rDock/src/rDock_2013.1_src/data/scripts/dock_solv.prm

>  <Rbt.Receptor>
prm/blind_docking_100.prm

>  <SCORE>
-6.18731

>  <SCORE.INTER>
-6.18731

>  <SCORE.INTER.CONST>
1

>  <SCORE.INTER.POLAR>
0

>  <SCORE.INTER.ROT>
0

>  <SCORE.INTER.SOLV>
5.6103

>  <SCORE.INTER.VDW>
-9.59497

>  <SCORE.INTER.norm>
-0.562483

>  <SCORE.INTRA>
0

>  <SCORE.INTRA.DIHEDRAL>
0

>  <SCORE.INTRA.DIHEDRAL.0>
0

>  <SCORE.INTRA.POLAR>
0

>  <SCORE.INTRA.POLAR.0>
0

>  <SCORE.INTRA.REPUL>
0

>  <SCORE.INTRA.REPUL.0>
0

>  <SCORE.INTRA.SOLV>
0

>  <SCORE.INTRA.SOLV.lig_0>
-48.3454

>  <SCORE.INTRA.VDW>
0

>  <SCORE.INTRA.VDW.0>
0

>  <SCORE.INTRA.norm>
0

>  <SCORE.RESTR>
0

>  <SCORE.RESTR.CAVITY>
0

>  <SCORE.RESTR.norm>
0

>  <SCORE.SYSTEM>
0

>  <SCORE.SYSTEM.CONST>
0

>  <SCORE.SYSTEM.DIHEDRAL>
0

>  <SCORE.SYSTEM.SOLV>
0

>  <SCORE.SYSTEM.norm>
0

>  <SCORE.heavy>
11

>  <SCORE.norm>
-0.562483

>  <RMSD>
22.540

$$$$
ligand
 OpenBabel01301917033D
libRbt.so/2013.1/901 2013/11/27
 11 12  0  0  0  0  0  0  0  0999 V2000
  -32.5709  -12.7137   16.2899 N   0  0  0  0  0  0  0  0  0  0  0  0
  -33.8349  -13.0606   16.5810 C   0  0  0  0  0  0  0  0  0  0  0  0
  -34.2549  -13.0277   17.8426 N   0  0  0  0  0  0  0  0  0  0  0  0
  -34.6764  -13.4505   15.6109 N   0  0  0  0  0  0  0  0  0  0  0  0
  -34.2709  -13.5042   14.3336 C   0  0  0  0  0  0  0  0  0  0  0  0
  -32.9682  -13.1508   14.0051 C   0  0  0  0  0  0  0  0  0  0  0  0
  -32.1157  -12.7476   15.0275 C   0  0  0  0  0  0  0  0  0  0  0  0
  -30.8636  -12.3915   14.7565 N   0  0  0  0  0  0  0  0  0  0  0  0
  -32.8303  -13.3073   12.6919 N   0  0  0  0  0  0  0  0  0  0  0  0
  -33.9926  -13.7409   12.2090 C   0  0  0  0  0  0  0  0  0  0  0  0
  -34.8711  -13.8617   13.2020 N   0  0  0  0  0  0  0  0  0  0  0  0
  1  7  2  0  0  0  0
  1  2  1  0  0  0  0
  2  3  1  0  0  0  0
  2  4  2  0  0  0  0
  4  5  1  0  0  0  0
  5  6  2  0  0  0  0
  5 11  1  0  0  0  0
  6  7  1  0  0  0  0
  6  9  1  0  0  0  0
  7  8  1  0  0  0  0
  9 10  1  0  0  0  0
 10 11  2  0  0  0  0
M  END
>  <CHROM.1>
-33.38283926,-13.17350537,14.80123690,-1.55225796,-0.29873533,-1.71118003

>  <Name>
ligand

>  <RI>
0

>  <Rbt.Current_Directory>
/home/itssahil/PROJECTS/Mol_Feturizer/New_Systems/rnas/2b57

>  <Rbt.Executable>
rbdock ($Id: //depot/dev/client3/rdock/2013.1/src/exe/rbdock.cxx#4 $)

>  <Rbt.Library>
libRbt.so (2013.1, Build901 2013/11/27)

>  <Rbt.Parameter_File>
/export/apps/rDock/src/rDock_2013.1_src/data/scripts/dock_solv.prm

>  <Rbt.Receptor>
prm/blind_docking_60.prm

>  <SCORE>
-6.148

>  <SCORE.INTER>
-6.148

>  <SCORE.INTER.CONST>
1

>  <SCORE.INTER.POLAR>
0

>  <SCORE.INTER.ROT>
0

>  <SCORE.INTER.SOLV>
4.30071

>  <SCORE.INTER.VDW>
-9.13224

>  <SCORE.INTER.norm>
-0.558909

>  <SCORE.INTRA>
0

>  <SCORE.INTRA.DIHEDRAL>
0

>  <SCORE.INTRA.DIHEDRAL.0>
0

>  <SCORE.INTRA.POLAR>
0

>  <SCORE.INTRA.POLAR.0>
0

>  <SCORE.INTRA.REPUL>
0

>  <SCORE.INTRA.REPUL.0>
0

>  <SCORE.INTRA.SOLV>
0

>  <SCORE.INTRA.SOLV.lig_0>
-48.3454

>  <SCORE.INTRA.VDW>
0

>  <SCORE.INTRA.VDW.0>
0

>  <SCORE.INTRA.norm>
0

>  <SCORE.RESTR>
0

>  <SCORE.RESTR.CAVITY>
0

>  <SCORE.RESTR.norm>
0

>  <SCORE.SYSTEM>
0

>  <SCORE.SYSTEM.CONST>
0

>  <SCORE.SYSTEM.DIHEDRAL>
0

>  <SCORE.SYSTEM.SOLV>
0

>  <SCORE.SYSTEM.norm>
0

>  <SCORE.heavy>
11

>  <SCORE.norm>
-0.558909

>  <RMSD>
23.007

$$$$
ligand
 OpenBabel01301917033D
libRbt.so/2013.1/901 2013/11/27
 11 12  0  0  0  0  0  0  0  0999 V2000
  -32.4086  -12.7888   16.5962 N   0  0  0  0  0  0  0  0  0  0  0  0
  -33.6583  -13.1149   16.9630 C   0  0  0  0  0  0  0  0  0  0  0  0
  -33.9915  -13.1091   18.2506 N   0  0  0  0  0  0  0  0  0  0  0  0
  -34.5727  -13.4569   16.0420 N   0  0  0  0  0  0  0  0  0  0  0  0
  -34.2555  -13.4827   14.7391 C   0  0  0  0  0  0  0  0  0  0  0  0
  -32.9696  -13.1498   14.3325 C   0  0  0  0  0  0  0  0  0  0  0  0
  -32.0404  -12.7963   15.3053 C   0  0  0  0  0  0  0  0  0  0  0  0
  -30.8009  -12.4613   14.9597 N   0  0  0  0  0  0  0  0  0  0  0  0
  -32.9243  -13.2711   13.0092 N   0  0  0  0  0  0  0  0  0  0  0  0
  -34.1269  -13.6636   12.5948 C   0  0  0  0  0  0  0  0  0  0  0  0
  -34.9393  -13.7932   13.6415 N   0  0  0  0  0  0  0  0  0  0  0  0
  1  7  2  0  0  0  0
  1  2  1  0  0  0  0
  2  3  1  0  0  0  0
  2  4  2  0  0  0  0
  4  5  1  0  0  0  0
  5  6  2  0  0  0  0
  5 11  1  0  0  0  0
  6  7  1  0  0  0  0
  6  9  1  0  0  0  0
  7  8  1  0  0  0  0
  9 10  1  0  0  0  0
 10 11  2  0  0  0  0
M  END
>  <CHROM.1>
-33.33009317,-13.18622005,15.15415170,-1.47913547,-0.28276326,-1.66182234

>  <Name>
ligand

>  <RI>
0

>  <Rbt.Current_Directory>
/home/itssahil/PROJECTS/Mol_Feturizer/New_Systems/rnas/2b57

>  <Rbt.Executable>
rbdock ($Id: //depot/dev/client3/rdock/2013.1/src/exe/rbdock.cxx#4 $)

>  <Rbt.Library>
libRbt.so (2013.1, Build901 2013/11/27)

>  <Rbt.Parameter_File>
/export/apps/rDock/src/rDock_2013.1_src/data/scripts/dock_solv.prm

>  <Rbt.Receptor>
prm/blind_docking_80.prm

>  <SCORE>
-6.10186

>  <SCORE.INTER>
-6.10186

>  <SCORE.INTER.CONST>
1

>  <SCORE.INTER.POLAR>
0

>  <SCORE.INTER.ROT>
0

>  <SCORE.INTER.SOLV>
4.70475

>  <SCORE.INTER.VDW>
-9.23616

>  <SCORE.INTER.norm>
-0.554715

>  <SCORE.INTRA>
0

>  <SCORE.INTRA.DIHEDRAL>
0

>  <SCORE.INTRA.DIHEDRAL.0>
0

>  <SCORE.INTRA.POLAR>
0

>  <SCORE.INTRA.POLAR.0>
0

>  <SCORE.INTRA.REPUL>
0

>  <SCORE.INTRA.REPUL.0>
0

>  <SCORE.INTRA.SOLV>
0

>  <SCORE.INTRA.SOLV.lig_0>
-48.3454

>  <SCORE.INTRA.VDW>
0

>  <SCORE.INTRA.VDW.0>
0

>  <SCORE.INTRA.norm>
0

>  <SCORE.RESTR>
0

>  <SCORE.RESTR.CAVITY>
0

>  <SCORE.RESTR.norm>
0

>  <SCORE.SYSTEM>
0

>  <SCORE.SYSTEM.CONST>
0

>  <SCORE.SYSTEM.DIHEDRAL>
0

>  <SCORE.SYSTEM.SOLV>
0

>  <SCORE.SYSTEM.norm>
0

>  <SCORE.heavy>
11

>  <SCORE.norm>
-0.554715

>  <RMSD>
23.071

$$$$
ligand
 OpenBabel01301917033D
libRbt.so/2013.1/901 2013/11/27
 11 12  0  0  0  0  0  0  0  0999 V2000
  -34.9232  -10.3399   16.5597 N   0  0  0  0  0  0  0  0  0  0  0  0
  -36.1787  -10.4045   16.0882 C   0  0  0  0  0  0  0  0  0  0  0  0
  -37.1173   -9.6121   16.5983 N   0  0  0  0  0  0  0  0  0  0  0  0
  -36.4979  -11.2694   15.1129 N   0  0  0  0  0  0  0  0  0  0  0  0
  -35.5709  -12.0874   14.5929 C   0  0  0  0  0  0  0  0  0  0  0  0
  -34.2645  -12.0412   15.0627 C   0  0  0  0  0  0  0  0  0  0  0  0
  -33.9575  -11.1348   16.0721 C   0  0  0  0  0  0  0  0  0  0  0  0
  -32.7175  -11.0504   16.5445 N   0  0  0  0  0  0  0  0  0  0  0  0
  -33.5664  -12.9546   14.3945 N   0  0  0  0  0  0  0  0  0  0  0  0
  -34.3926  -13.5537   13.5398 C   0  0  0  0  0  0  0  0  0  0  0  0
  -35.6113  -13.0304   13.6559 N   0  0  0  0  0  0  0  0  0  0  0  0
  1  7  2  0  0  0  0
  1  2  1  0  0  0  0
  2  3  1  0  0  0  0
  2  4  2  0  0  0  0
  4  5  1  0  0  0  0
  5  6  2  0  0  0  0
  5 11  1  0  0  0  0
  6  7  1  0  0  0  0
  6  9  1  0  0  0  0
  7  8  1  0  0  0  0
  9 10  1  0  0  0  0
 10 11  2  0  0  0  0
M  END
>  <CHROM.1>
-34.98913884,-11.57125429,15.30821740,-2.01751036,0.22216262,-2.35825713

>  <Name>
ligand

>  <RI>
0

>  <Rbt.Current_Directory>
/home/itssahil/PROJECTS/Mol_Feturizer/New_Systems/rnas/2b57

>  <Rbt.Executable>
rbdock ($Id: //depot/dev/client3/rdock/2013.1/src/exe/rbdock.cxx#4 $)

>  <Rbt.Library>
libRbt.so (2013.1, Build901 2013/11/27)

>  <Rbt.Parameter_File>
/export/apps/rDock/src/rDock_2013.1_src/data/scripts/dock_solv.prm

>  <Rbt.Receptor>
prm/blind_docking_100.prm

>  <SCORE>
-5.75963

>  <SCORE.INTER>
-5.75963

>  <SCORE.INTER.CONST>
1

>  <SCORE.INTER.POLAR>
0

>  <SCORE.INTER.ROT>
0

>  <SCORE.INTER.SOLV>
4.71489

>  <SCORE.INTER.VDW>
-9.01139

>  <SCORE.INTER.norm>
-0.523603

>  <SCORE.INTRA>
0

>  <SCORE.INTRA.DIHEDRAL>
0

>  <SCORE.INTRA.DIHEDRAL.0>
0

>  <SCORE.INTRA.POLAR>
0

>  <SCORE.INTRA.POLAR.0>
0

>  <SCORE.INTRA.REPUL>
0

>  <SCORE.INTRA.REPUL.0>
0

>  <SCORE.INTRA.SOLV>
0

>  <SCORE.INTRA.SOLV.lig_0>
-48.3454

>  <SCORE.INTRA.VDW>
0

>  <SCORE.INTRA.VDW.0>
0

>  <SCORE.INTRA.norm>
0

>  <SCORE.RESTR>
0

>  <SCORE.RESTR.CAVITY>
0

>  <SCORE.RESTR.norm>
0

>  <SCORE.SYSTEM>
0

>  <SCORE.SYSTEM.CONST>
0

>  <SCORE.SYSTEM.DIHEDRAL>
0

>  <SCORE.SYSTEM.SOLV>
0

>  <SCORE.SYSTEM.norm>
0

>  <SCORE.heavy>
11

>  <SCORE.norm>
-0.523603

>  <RMSD>
24.778

$$$$
ligand
 OpenBabel01301917033D
libRbt.so/2013.1/901 2013/11/27
 11 12  0  0  0  0  0  0  0  0999 V2000
  -33.7549  -21.2800    8.4686 N   0  0  0  0  0  0  0  0  0  0  0  0
  -34.8390  -22.0713    8.4342 C   0  0  0  0  0  0  0  0  0  0  0  0
  -34.7146  -23.3470    8.0789 N   0  0  0  0  0  0  0  0  0  0  0  0
  -36.0501  -21.5837    8.7453 N   0  0  0  0  0  0  0  0  0  0  0  0
  -36.2014  -20.2973    9.0933 C   0  0  0  0  0  0  0  0  0  0  0  0
  -35.0962  -19.4569    9.1368 C   0  0  0  0  0  0  0  0  0  0  0  0
  -33.8514  -19.9861    8.8126 C   0  0  0  0  0  0  0  0  0  0  0  0
  -32.7655  -19.2196    8.8505 N   0  0  0  0  0  0  0  0  0  0  0  0
  -35.5254  -18.2495    9.4917 N   0  0  0  0  0  0  0  0  0  0  0  0
  -36.8433  -18.3203    9.6650 C   0  0  0  0  0  0  0  0  0  0  0  0
  -37.2589  -19.5621    9.4247 N   0  0  0  0  0  0  0  0  0  0  0  0
  1  7  2  0  0  0  0
  1  2  1  0  0  0  0
  2  3  1  0  0  0  0
  2  4  2  0  0  0  0
  4  5  1  0  0  0  0
  5  6  2  0  0  0  0
  5 11  1  0  0  0  0
  6  7  1  0  0  0  0
  6  9  1  0  0  0  0
  7  8  1  0  0  0  0
  9 10  1  0  0  0  0
 10 11  2  0  0  0  0
M  END
>  <CHROM.1>
-35.15939037,-20.32613337,8.92042123,-1.11588546,0.14247506,0.24744797

>  <Name>
ligand

>  <RI>
0

>  <Rbt.Current_Directory>
/home/itssahil/PROJECTS/Mol_Feturizer/New_Systems/rnas/2b57

>  <Rbt.Executable>
rbdock ($Id: //depot/dev/client3/rdock/2013.1/src/exe/rbdock.cxx#4 $)

>  <Rbt.Library>
libRbt.so (2013.1, Build901 2013/11/27)

>  <Rbt.Parameter_File>
/export/apps/rDock/src/rDock_2013.1_src/data/scripts/dock_solv.prm

>  <Rbt.Receptor>
prm/blind_docking_80.prm

>  <SCORE>
-5.3279

>  <SCORE.INTER>
-5.57085

>  <SCORE.INTER.CONST>
1

>  <SCORE.INTER.POLAR>
0

>  <SCORE.INTER.ROT>
0

>  <SCORE.INTER.SOLV>
13.2775

>  <SCORE.INTER.VDW>
-11.7397

>  <SCORE.INTER.norm>
-0.506441

>  <SCORE.INTRA>
0

>  <SCORE.INTRA.DIHEDRAL>
0

>  <SCORE.INTRA.DIHEDRAL.0>
0

>  <SCORE.INTRA.POLAR>
0

>  <SCORE.INTRA.POLAR.0>
0

>  <SCORE.INTRA.REPUL>
0

>  <SCORE.INTRA.REPUL.0>
0

>  <SCORE.INTRA.SOLV>
0

>  <SCORE.INTRA.SOLV.lig_0>
-48.3454

>  <SCORE.INTRA.VDW>
0

>  <SCORE.INTRA.VDW.0>
0

>  <SCORE.INTRA.norm>
0

>  <SCORE.RESTR>
0.242951

>  <SCORE.RESTR.CAVITY>
0.242951

>  <SCORE.RESTR.norm>
0.0220864

>  <SCORE.SYSTEM>
0

>  <SCORE.SYSTEM.CONST>
0

>  <SCORE.SYSTEM.DIHEDRAL>
0

>  <SCORE.SYSTEM.SOLV>
0

>  <SCORE.SYSTEM.norm>
0

>  <SCORE.heavy>
11

>  <SCORE.norm>
-0.484354

>  <RMSD>
24.898

$$$$
ligand
 OpenBabel01301917033D
libRbt.so/2013.1/901 2013/11/27
 11 12  0  0  0  0  0  0  0  0999 V2000
  -35.1541  -12.2885   17.9751 N   0  0  0  0  0  0  0  0  0  0  0  0
  -34.3442  -13.3592   17.9552 C   0  0  0  0  0  0  0  0  0  0  0  0
  -33.8149  -13.8081   19.0898 N   0  0  0  0  0  0  0  0  0  0  0  0
  -34.0555  -13.9753   16.7984 N   0  0  0  0  0  0  0  0  0  0  0  0
  -34.5671  -13.5321   15.6405 C   0  0  0  0  0  0  0  0  0  0  0  0
  -35.4076  -12.4262   15.6329 C   0  0  0  0  0  0  0  0  0  0  0  0
  -35.6941  -11.8063   16.8447 C   0  0  0  0  0  0  0  0  0  0  0  0
  -36.5016  -10.7506   16.8845 N   0  0  0  0  0  0  0  0  0  0  0  0
  -35.7546  -12.1960   14.3701 N   0  0  0  0  0  0  0  0  0  0  0  0
  -35.1607  -13.1139   13.6107 C   0  0  0  0  0  0  0  0  0  0  0  0
  -34.4385  -13.9282   14.3775 N   0  0  0  0  0  0  0  0  0  0  0  0
  1  7  2  0  0  0  0
  1  2  1  0  0  0  0
  2  3  1  0  0  0  0
  2  4  2  0  0  0  0
  4  5  1  0  0  0  0
  5  6  2  0  0  0  0
  5 11  1  0  0  0  0
  6  7  1  0  0  0  0
  6  9  1  0  0  0  0
  7  8  1  0  0  0  0
  9 10  1  0  0  0  0
 10 11  2  0  0  0  0
M  END
>  <CHROM.1>
-34.98716494,-12.83407292,16.31342650,1.24256707,-0.90894695,1.37908082

>  <Name>
ligand

>  <RI>
0

>  <Rbt.Current_Directory>
/home/itssahil/PROJECTS/Mol_Feturizer/New_Systems/rnas/2b57

>  <Rbt.Executable>
rbdock ($Id: //depot/dev/client3/rdock/2013.1/src/exe/rbdock.cxx#4 $)

>  <Rbt.Library>
libRbt.so (2013.1, Build901 2013/11/27)

>  <Rbt.Parameter_File>
/export/apps/rDock/src/rDock_2013.1_src/data/scripts/dock_solv.prm

>  <Rbt.Receptor>
prm/blind_docking_100.prm

>  <SCORE>
-6.55109

>  <SCORE.INTER>
-6.55109

>  <SCORE.INTER.CONST>
1

>  <SCORE.INTER.POLAR>
0

>  <SCORE.INTER.ROT>
0

>  <SCORE.INTER.SOLV>
3.87671

>  <SCORE.INTER.VDW>
-9.25963

>  <SCORE.INTER.norm>
-0.595554

>  <SCORE.INTRA>
0

>  <SCORE.INTRA.DIHEDRAL>
0

>  <SCORE.INTRA.DIHEDRAL.0>
0

>  <SCORE.INTRA.POLAR>
0

>  <SCORE.INTRA.POLAR.0>
0

>  <SCORE.INTRA.REPUL>
0

>  <SCORE.INTRA.REPUL.0>
0

>  <SCORE.INTRA.SOLV>
0

>  <SCORE.INTRA.SOLV.lig_0>
-48.3454

>  <SCORE.INTRA.VDW>
0

>  <SCORE.INTRA.VDW.0>
0

>  <SCORE.INTRA.norm>
0

>  <SCORE.RESTR>
0

>  <SCORE.RESTR.CAVITY>
0

>  <SCORE.RESTR.norm>
0

>  <SCORE.SYSTEM>
0

>  <SCORE.SYSTEM.CONST>
0

>  <SCORE.SYSTEM.DIHEDRAL>
0

>  <SCORE.SYSTEM.SOLV>
0

>  <SCORE.SYSTEM.norm>
0

>  <SCORE.heavy>
11

>  <SCORE.norm>
-0.595554

>  <RMSD>
24.950

$$$$
ligand
 OpenBabel01301917033D
libRbt.so/2013.1/901 2013/11/27
 11 12  0  0  0  0  0  0  0  0999 V2000
  -35.1623  -12.2928   17.9846 N   0  0  0  0  0  0  0  0  0  0  0  0
  -34.3443  -13.3570   17.9531 C   0  0  0  0  0  0  0  0  0  0  0  0
  -33.8084  -13.8118   19.0823 N   0  0  0  0  0  0  0  0  0  0  0  0
  -34.0538  -13.9605   16.7901 N   0  0  0  0  0  0  0  0  0  0  0  0
  -34.5719  -13.5110   15.6375 C   0  0  0  0  0  0  0  0  0  0  0  0
  -35.4210  -12.4116   15.6419 C   0  0  0  0  0  0  0  0  0  0  0  0
  -35.7090  -11.8048   16.8599 C   0  0  0  0  0  0  0  0  0  0  0  0
  -36.5246  -10.7558   16.9113 N   0  0  0  0  0  0  0  0  0  0  0  0
  -35.7731  -12.1729   14.3821 N   0  0  0  0  0  0  0  0  0  0  0  0
  -35.1741  -13.0794   13.6131 C   0  0  0  0  0  0  0  0  0  0  0  0
  -34.4437  -13.8948   14.3707 N   0  0  0  0  0  0  0  0  0  0  0  0
  1  7  2  0  0  0  0
  1  2  1  0  0  0  0
  2  3  1  0  0  0  0
  2  4  2  0  0  0  0
  4  5  1  0  0  0  0
  5  6  2  0  0  0  0
  5 11  1  0  0  0  0
  6  7  1  0  0  0  0
  6  9  1  0  0  0  0
  7  8  1  0  0  0  0
  9 10  1  0  0  0  0
 10 11  2  0  0  0  0
M  END
>  <CHROM.1>
-34.99560388,-12.82226717,16.31771974,1.24072593,-0.90083102,1.38654274

>  <Name>
ligand

>  <RI>
0

>  <Rbt.Current_Directory>
/home/itssahil/PROJECTS/Mol_Feturizer/New_Systems/rnas/2b57

>  <Rbt.Executable>
rbdock ($Id: //depot/dev/client3/rdock/2013.1/src/exe/rbdock.cxx#4 $)

>  <Rbt.Library>
libRbt.so (2013.1, Build901 2013/11/27)

>  <Rbt.Parameter_File>
/export/apps/rDock/src/rDock_2013.1_src/data/scripts/dock_solv.prm

>  <Rbt.Receptor>
prm/blind_docking_60.prm

>  <SCORE>
-6.58412

>  <SCORE.INTER>
-6.58412

>  <SCORE.INTER.CONST>
1

>  <SCORE.INTER.POLAR>
0

>  <SCORE.INTER.ROT>
0

>  <SCORE.INTER.SOLV>
3.81588

>  <SCORE.INTER.VDW>
-9.26137

>  <SCORE.INTER.norm>
-0.598556

>  <SCORE.INTRA>
0

>  <SCORE.INTRA.DIHEDRAL>
0

>  <SCORE.INTRA.DIHEDRAL.0>
0

>  <SCORE.INTRA.POLAR>
0

>  <SCORE.INTRA.POLAR.0>
0

>  <SCORE.INTRA.REPUL>
0

>  <SCORE.INTRA.REPUL.0>
0

>  <SCORE.INTRA.SOLV>
0

>  <SCORE.INTRA.SOLV.lig_0>
-48.3454

>  <SCORE.INTRA.VDW>
0

>  <SCORE.INTRA.VDW.0>
0

>  <SCORE.INTRA.norm>
0

>  <SCORE.RESTR>
0

>  <SCORE.RESTR.CAVITY>
0

>  <SCORE.RESTR.norm>
0

>  <SCORE.SYSTEM>
0

>  <SCORE.SYSTEM.CONST>
0

>  <SCORE.SYSTEM.DIHEDRAL>
0

>  <SCORE.SYSTEM.SOLV>
0

>  <SCORE.SYSTEM.norm>
0

>  <SCORE.heavy>
11

>  <SCORE.norm>
-0.598556

>  <RMSD>
24.960

$$$$
ligand
 OpenBabel01301917033D
libRbt.so/2013.1/901 2013/11/27
 11 12  0  0  0  0  0  0  0  0999 V2000
  -35.1685  -12.2321   17.9393 N   0  0  0  0  0  0  0  0  0  0  0  0
  -34.3936  -13.3286   17.9312 C   0  0  0  0  0  0  0  0  0  0  0  0
  -33.8849  -13.7862   19.0716 N   0  0  0  0  0  0  0  0  0  0  0  0
  -34.1190  -13.9617   16.7802 N   0  0  0  0  0  0  0  0  0  0  0  0
  -34.6100  -13.5105   15.6165 C   0  0  0  0  0  0  0  0  0  0  0  0
  -35.4143  -12.3781   15.5967 C   0  0  0  0  0  0  0  0  0  0  0  0
  -35.6868  -11.7408   16.8027 C   0  0  0  0  0  0  0  0  0  0  0  0
  -36.4600  -10.6593   16.8309 N   0  0  0  0  0  0  0  0  0  0  0  0
  -35.7471  -12.1457   14.3305 N   0  0  0  0  0  0  0  0  0  0  0  0
  -35.1793  -13.0877   13.5807 C   0  0  0  0  0  0  0  0  0  0  0  0
  -34.4878  -13.9194   14.3569 N   0  0  0  0  0  0  0  0  0  0  0  0
  1  7  2  0  0  0  0
  1  2  1  0  0  0  0
  2  3  1  0  0  0  0
  2  4  2  0  0  0  0
  4  5  1  0  0  0  0
  5  6  2  0  0  0  0
  5 11  1  0  0  0  0
  6  7  1  0  0  0  0
  6  9  1  0  0  0  0
  7  8  1  0  0  0  0
  9 10  1  0  0  0  0
 10 11  2  0  0  0  0
M  END
>  <CHROM.1>
-35.01077737,-12.79450723,16.28232349,1.24069882,-0.94164811,1.37061851

>  <Name>
ligand

>  <RI>
0

>  <Rbt.Current_Directory>
/home/itssahil/PROJECTS/Mol_Feturizer/New_Systems/rnas/2b57

>  <Rbt.Executable>
rbdock ($Id: //depot/dev/client3/rdock/2013.1/src/exe/rbdock.cxx#4 $)

>  <Rbt.Library>
libRbt.so (2013.1, Build901 2013/11/27)

>  <Rbt.Parameter_File>
/export/apps/rDock/src/rDock_2013.1_src/data/scripts/dock_solv.prm

>  <Rbt.Receptor>
prm/blind_docking_100.prm

>  <SCORE>
-6.58394

>  <SCORE.INTER>
-6.58394

>  <SCORE.INTER.CONST>
1

>  <SCORE.INTER.POLAR>
0

>  <SCORE.INTER.ROT>
0

>  <SCORE.INTER.SOLV>
4.012

>  <SCORE.INTER.VDW>
-9.32663

>  <SCORE.INTER.norm>
-0.59854

>  <SCORE.INTRA>
0

>  <SCORE.INTRA.DIHEDRAL>
0

>  <SCORE.INTRA.DIHEDRAL.0>
0

>  <SCORE.INTRA.POLAR>
0

>  <SCORE.INTRA.POLAR.0>
0

>  <SCORE.INTRA.REPUL>
0

>  <SCORE.INTRA.REPUL.0>
0

>  <SCORE.INTRA.SOLV>
0

>  <SCORE.INTRA.SOLV.lig_0>
-48.3454

>  <SCORE.INTRA.VDW>
0

>  <SCORE.INTRA.VDW.0>
0

>  <SCORE.INTRA.norm>
0

>  <SCORE.RESTR>
0

>  <SCORE.RESTR.CAVITY>
0

>  <SCORE.RESTR.norm>
0

>  <SCORE.SYSTEM>
0

>  <SCORE.SYSTEM.CONST>
0

>  <SCORE.SYSTEM.DIHEDRAL>
0

>  <SCORE.SYSTEM.SOLV>
0

>  <SCORE.SYSTEM.norm>
0

>  <SCORE.heavy>
11

>  <SCORE.norm>
-0.59854

>  <RMSD>
24.962

$$$$
ligand
 OpenBabel01301917033D
libRbt.so/2013.1/901 2013/11/27
 11 12  0  0  0  0  0  0  0  0999 V2000
  -34.3354  -22.0759    8.1434 N   0  0  0  0  0  0  0  0  0  0  0  0
  -35.6236  -22.4277    8.0046 C   0  0  0  0  0  0  0  0  0  0  0  0
  -35.9324  -23.6452    7.5671 N   0  0  0  0  0  0  0  0  0  0  0  0
  -36.6037  -21.5577    8.2938 N   0  0  0  0  0  0  0  0  0  0  0  0
  -36.3159  -20.3202    8.7236 C   0  0  0  0  0  0  0  0  0  0  0  0
  -34.9913  -19.9305    8.8758 C   0  0  0  0  0  0  0  0  0  0  0  0
  -33.9934  -20.8507    8.5722 C   0  0  0  0  0  0  0  0  0  0  0  0
  -32.7124  -20.5229    8.7128 N   0  0  0  0  0  0  0  0  0  0  0  0
  -34.9911  -18.6685    9.2944 N   0  0  0  0  0  0  0  0  0  0  0  0
  -36.2581  -18.2750    9.4024 C   0  0  0  0  0  0  0  0  0  0  0  0
  -37.0669  -19.2746    9.0573 N   0  0  0  0  0  0  0  0  0  0  0  0
  1  7  2  0  0  0  0
  1  2  1  0  0  0  0
  2  3  1  0  0  0  0
  2  4  2  0  0  0  0
  4  5  1  0  0  0  0
  5  6  2  0  0  0  0
  5 11  1  0  0  0  0
  6  7  1  0  0  0  0
  6  9  1  0  0  0  0
  7  8  1  0  0  0  0
  9 10  1  0  0  0  0
 10 11  2  0  0  0  0
M  END
>  <CHROM.1>
-35.34149282,-20.70880545,8.59657312,-1.44653874,-0.01716426,0.33007844

>  <Name>
ligand

>  <RI>
0

>  <Rbt.Current_Directory>
/home/itssahil/PROJECTS/Mol_Feturizer/New_Systems/rnas/2b57

>  <Rbt.Executable>
rbdock ($Id: //depot/dev/client3/rdock/2013.1/src/exe/rbdock.cxx#4 $)

>  <Rbt.Library>
libRbt.so (2013.1, Build901 2013/11/27)

>  <Rbt.Parameter_File>
/export/apps/rDock/src/rDock_2013.1_src/data/scripts/dock_solv.prm

>  <Rbt.Receptor>
prm/blind_docking_100.prm

>  <SCORE>
-4.89243

>  <SCORE.INTER>
-5.23161

>  <SCORE.INTER.CONST>
1

>  <SCORE.INTER.POLAR>
0

>  <SCORE.INTER.ROT>
0

>  <SCORE.INTER.SOLV>
13.4254

>  <SCORE.INTER.VDW>
-11.5629

>  <SCORE.INTER.norm>
-0.475601

>  <SCORE.INTRA>
0

>  <SCORE.INTRA.DIHEDRAL>
0

>  <SCORE.INTRA.DIHEDRAL.0>
0

>  <SCORE.INTRA.POLAR>
0

>  <SCORE.INTRA.POLAR.0>
0

>  <SCORE.INTRA.REPUL>
0

>  <SCORE.INTRA.REPUL.0>
0

>  <SCORE.INTRA.SOLV>
0

>  <SCORE.INTRA.SOLV.lig_0>
-48.3454

>  <SCORE.INTRA.VDW>
0

>  <SCORE.INTRA.VDW.0>
0

>  <SCORE.INTRA.norm>
0

>  <SCORE.RESTR>
0.339182

>  <SCORE.RESTR.CAVITY>
0.339182

>  <SCORE.RESTR.norm>
0.0308347

>  <SCORE.SYSTEM>
0

>  <SCORE.SYSTEM.CONST>
0

>  <SCORE.SYSTEM.DIHEDRAL>
0

>  <SCORE.SYSTEM.SOLV>
0

>  <SCORE.SYSTEM.norm>
0

>  <SCORE.heavy>
11

>  <SCORE.norm>
-0.444766

>  <RMSD>
25.181

$$$$
ligand
 OpenBabel01301917033D
libRbt.so/2013.1/901 2013/11/27
 11 12  0  0  0  0  0  0  0  0999 V2000
  -35.9637  -11.3127   17.3792 N   0  0  0  0  0  0  0  0  0  0  0  0
  -36.6963  -10.6575   16.4644 C   0  0  0  0  0  0  0  0  0  0  0  0
  -37.5035   -9.6722   16.8471 N   0  0  0  0  0  0  0  0  0  0  0  0
  -36.6291  -10.9950   15.1672 N   0  0  0  0  0  0  0  0  0  0  0  0
  -35.8323  -11.9941   14.7600 C   0  0  0  0  0  0  0  0  0  0  0  0
  -35.0639  -12.6883   15.6859 C   0  0  0  0  0  0  0  0  0  0  0  0
  -35.1486  -12.3184   17.0241 C   0  0  0  0  0  0  0  0  0  0  0  0
  -34.4233  -12.9498   17.9425 N   0  0  0  0  0  0  0  0  0  0  0  0
  -34.3881  -13.6232   15.0245 N   0  0  0  0  0  0  0  0  0  0  0  0
  -34.7133  -13.5269   13.7373 C   0  0  0  0  0  0  0  0  0  0  0  0
  -35.5899  -12.5387   13.5712 N   0  0  0  0  0  0  0  0  0  0  0  0
  1  7  2  0  0  0  0
  1  2  1  0  0  0  0
  2  3  1  0  0  0  0
  2  4  2  0  0  0  0
  4  5  1  0  0  0  0
  5  6  2  0  0  0  0
  5 11  1  0  0  0  0
  6  7  1  0  0  0  0
  6  9  1  0  0  0  0
  7  8  1  0  0  0  0
  9 10  1  0  0  0  0
 10 11  2  0  0  0  0
M  END
>  <CHROM.1>
-35.64178440,-12.01048807,15.79929409,-2.33353125,0.84311042,-1.77850371

>  <Name>
ligand

>  <RI>
0

>  <Rbt.Current_Directory>
/home/itssahil/PROJECTS/Mol_Feturizer/New_Systems/rnas/2b57

>  <Rbt.Executable>
rbdock ($Id: //depot/dev/client3/rdock/2013.1/src/exe/rbdock.cxx#4 $)

>  <Rbt.Library>
libRbt.so (2013.1, Build901 2013/11/27)

>  <Rbt.Parameter_File>
/export/apps/rDock/src/rDock_2013.1_src/data/scripts/dock_solv.prm

>  <Rbt.Receptor>
prm/blind_docking_100.prm

>  <SCORE>
-6.53274

>  <SCORE.INTER>
-6.53274

>  <SCORE.INTER.CONST>
1

>  <SCORE.INTER.POLAR>
0

>  <SCORE.INTER.ROT>
0

>  <SCORE.INTER.SOLV>
3.24975

>  <SCORE.INTER.VDW>
-9.03841

>  <SCORE.INTER.norm>
-0.593885

>  <SCORE.INTRA>
0

>  <SCORE.INTRA.DIHEDRAL>
0

>  <SCORE.INTRA.DIHEDRAL.0>
0

>  <SCORE.INTRA.POLAR>
0

>  <SCORE.INTRA.POLAR.0>
0

>  <SCORE.INTRA.REPUL>
0

>  <SCORE.INTRA.REPUL.0>
0

>  <SCORE.INTRA.SOLV>
0

>  <SCORE.INTRA.SOLV.lig_0>
-48.3454

>  <SCORE.INTRA.VDW>
0

>  <SCORE.INTRA.VDW.0>
0

>  <SCORE.INTRA.norm>
0

>  <SCORE.RESTR>
0

>  <SCORE.RESTR.CAVITY>
0

>  <SCORE.RESTR.norm>
0

>  <SCORE.SYSTEM>
0

>  <SCORE.SYSTEM.CONST>
0

>  <SCORE.SYSTEM.DIHEDRAL>
0

>  <SCORE.SYSTEM.SOLV>
0

>  <SCORE.SYSTEM.norm>
0

>  <SCORE.heavy>
11

>  <SCORE.norm>
-0.593885

>  <RMSD>
25.536

$$$$
ligand
 OpenBabel01301917033D
libRbt.so/2013.1/901 2013/11/27
 11 12  0  0  0  0  0  0  0  0999 V2000
  -35.9891  -11.2768   17.3724 N   0  0  0  0  0  0  0  0  0  0  0  0
  -36.7014  -10.6039   16.4546 C   0  0  0  0  0  0  0  0  0  0  0  0
  -37.4999   -9.6110   16.8361 N   0  0  0  0  0  0  0  0  0  0  0  0
  -36.6228  -10.9309   15.1553 N   0  0  0  0  0  0  0  0  0  0  0  0
  -35.8345  -11.9372   14.7491 C   0  0  0  0  0  0  0  0  0  0  0  0
  -35.0870  -12.6498   15.6781 C   0  0  0  0  0  0  0  0  0  0  0  0
  -35.1833  -12.2905   17.0184 C   0  0  0  0  0  0  0  0  0  0  0  0
  -34.4780  -12.9396   17.9399 N   0  0  0  0  0  0  0  0  0  0  0  0
  -34.4158  -13.5879   15.0168 N   0  0  0  0  0  0  0  0  0  0  0  0
  -34.7238  -13.4760   13.7266 C   0  0  0  0  0  0  0  0  0  0  0  0
  -35.5849  -12.4745   13.5585 N   0  0  0  0  0  0  0  0  0  0  0  0
  1  7  2  0  0  0  0
  1  2  1  0  0  0  0
  2  3  1  0  0  0  0
  2  4  2  0  0  0  0
  4  5  1  0  0  0  0
  5  6  2  0  0  0  0
  5 11  1  0  0  0  0
  6  7  1  0  0  0  0
  6  9  1  0  0  0  0
  7  8  1  0  0  0  0
  9 10  1  0  0  0  0
 10 11  2  0  0  0  0
M  END
>  <CHROM.1>
-35.65711132,-11.96516180,15.79043040,-2.34775997,0.85880800,-1.75900101

>  <Name>
ligand

>  <RI>
0

>  <Rbt.Current_Directory>
/home/itssahil/PROJECTS/Mol_Feturizer/New_Systems/rnas/2b57

>  <Rbt.Executable>
rbdock ($Id: //depot/dev/client3/rdock/2013.1/src/exe/rbdock.cxx#4 $)

>  <Rbt.Library>
libRbt.so (2013.1, Build901 2013/11/27)

>  <Rbt.Parameter_File>
/export/apps/rDock/src/rDock_2013.1_src/data/scripts/dock_solv.prm

>  <Rbt.Receptor>
prm/blind_docking_100.prm

>  <SCORE>
-6.56505

>  <SCORE.INTER>
-6.56505

>  <SCORE.INTER.CONST>
1

>  <SCORE.INTER.POLAR>
0

>  <SCORE.INTER.ROT>
0

>  <SCORE.INTER.SOLV>
3.33486

>  <SCORE.INTER.VDW>
-9.08832

>  <SCORE.INTER.norm>
-0.596822

>  <SCORE.INTRA>
0

>  <SCORE.INTRA.DIHEDRAL>
0

>  <SCORE.INTRA.DIHEDRAL.0>
0

>  <SCORE.INTRA.POLAR>
0

>  <SCORE.INTRA.POLAR.0>
0

>  <SCORE.INTRA.REPUL>
0

>  <SCORE.INTRA.REPUL.0>
0

>  <SCORE.INTRA.SOLV>
0

>  <SCORE.INTRA.SOLV.lig_0>
-48.3454

>  <SCORE.INTRA.VDW>
0

>  <SCORE.INTRA.VDW.0>
0

>  <SCORE.INTRA.norm>
0

>  <SCORE.RESTR>
0

>  <SCORE.RESTR.CAVITY>
0

>  <SCORE.RESTR.norm>
0

>  <SCORE.SYSTEM>
0

>  <SCORE.SYSTEM.CONST>
0

>  <SCORE.SYSTEM.DIHEDRAL>
0

>  <SCORE.SYSTEM.SOLV>
0

>  <SCORE.SYSTEM.norm>
0

>  <SCORE.heavy>
11

>  <SCORE.norm>
-0.596822

>  <RMSD>
25.550

$$$$
ligand
 OpenBabel01301917033D
libRbt.so/2013.1/901 2013/11/27
 11 12  0  0  0  0  0  0  0  0999 V2000
  -35.9898  -11.2691   17.3677 N   0  0  0  0  0  0  0  0  0  0  0  0
  -36.7058  -10.5987   16.4507 C   0  0  0  0  0  0  0  0  0  0  0  0
  -37.5039   -9.6058   16.8328 N   0  0  0  0  0  0  0  0  0  0  0  0
  -36.6312  -10.9285   15.1520 N   0  0  0  0  0  0  0  0  0  0  0  0
  -35.8433  -11.9349   14.7453 C   0  0  0  0  0  0  0  0  0  0  0  0
  -35.0921  -12.6449   15.6733 C   0  0  0  0  0  0  0  0  0  0  0  0
  -35.1843  -12.2828   17.0131 C   0  0  0  0  0  0  0  0  0  0  0  0
  -34.4754  -12.9293   17.9337 N   0  0  0  0  0  0  0  0  0  0  0  0
  -34.4223  -13.5838   15.0117 N   0  0  0  0  0  0  0  0  0  0  0  0
  -34.7346  -13.4749   13.7223 C   0  0  0  0  0  0  0  0  0  0  0  0
  -35.5971  -12.4746   13.5550 N   0  0  0  0  0  0  0  0  0  0  0  0
  1  7  2  0  0  0  0
  1  2  1  0  0  0  0
  2  3  1  0  0  0  0
  2  4  2  0  0  0  0
  4  5  1  0  0  0  0
  5  6  2  0  0  0  0
  5 11  1  0  0  0  0
  6  7  1  0  0  0  0
  6  9  1  0  0  0  0
  7  8  1  0  0  0  0
  9 10  1  0  0  0  0
 10 11  2  0  0  0  0
M  END
>  <CHROM.1>
-35.66245118,-11.96050801,15.78604330,-2.34307416,0.85729443,-1.76467090

>  <Name>
ligand

>  <RI>
0

>  <Rbt.Current_Directory>
/home/itssahil/PROJECTS/Mol_Feturizer/New_Systems/rnas/2b57

>  <Rbt.Executable>
rbdock ($Id: //depot/dev/client3/rdock/2013.1/src/exe/rbdock.cxx#4 $)

>  <Rbt.Library>
libRbt.so (2013.1, Build901 2013/11/27)

>  <Rbt.Parameter_File>
/export/apps/rDock/src/rDock_2013.1_src/data/scripts/dock_solv.prm

>  <Rbt.Receptor>
prm/blind_docking_60.prm

>  <SCORE>
-6.56739

>  <SCORE.INTER>
-6.56739

>  <SCORE.INTER.CONST>
1

>  <SCORE.INTER.POLAR>
0

>  <SCORE.INTER.ROT>
0

>  <SCORE.INTER.SOLV>
3.32118

>  <SCORE.INTER.VDW>
-9.08532

>  <SCORE.INTER.norm>
-0.597036

>  <SCORE.INTRA>
0

>  <SCORE.INTRA.DIHEDRAL>
0

>  <SCORE.INTRA.DIHEDRAL.0>
0

>  <SCORE.INTRA.POLAR>
0

>  <SCORE.INTRA.POLAR.0>
0

>  <SCORE.INTRA.REPUL>
0

>  <SCORE.INTRA.REPUL.0>
0

>  <SCORE.INTRA.SOLV>
0

>  <SCORE.INTRA.SOLV.lig_0>
-48.3454

>  <SCORE.INTRA.VDW>
0

>  <SCORE.INTRA.VDW.0>
0

>  <SCORE.INTRA.norm>
0

>  <SCORE.RESTR>
0

>  <SCORE.RESTR.CAVITY>
0

>  <SCORE.RESTR.norm>
0

>  <SCORE.SYSTEM>
0

>  <SCORE.SYSTEM.CONST>
0

>  <SCORE.SYSTEM.DIHEDRAL>
0

>  <SCORE.SYSTEM.SOLV>
0

>  <SCORE.SYSTEM.norm>
0

>  <SCORE.heavy>
11

>  <SCORE.norm>
-0.597036

>  <RMSD>
25.554

$$$$
ligand
 OpenBabel01301917033D
libRbt.so/2013.1/901 2013/11/27
 11 12  0  0  0  0  0  0  0  0999 V2000
  -35.9909  -11.2746   17.3788 N   0  0  0  0  0  0  0  0  0  0  0  0
  -36.7023  -10.5992   16.4620 C   0  0  0  0  0  0  0  0  0  0  0  0
  -37.4973   -9.6040   16.8448 N   0  0  0  0  0  0  0  0  0  0  0  0
  -36.6264  -10.9261   15.1626 N   0  0  0  0  0  0  0  0  0  0  0  0
  -35.8417  -11.9347   14.7552 C   0  0  0  0  0  0  0  0  0  0  0  0
  -35.0953  -12.6499   15.6830 C   0  0  0  0  0  0  0  0  0  0  0  0
  -35.1888  -12.2906   17.0235 C   0  0  0  0  0  0  0  0  0  0  0  0
  -34.4843  -12.9421   17.9440 N   0  0  0  0  0  0  0  0  0  0  0  0
  -34.4278  -13.5899   15.0206 N   0  0  0  0  0  0  0  0  0  0  0  0
  -34.7371  -13.4767   13.7308 C   0  0  0  0  0  0  0  0  0  0  0  0
  -35.5952  -12.4726   13.5641 N   0  0  0  0  0  0  0  0  0  0  0  0
  1  7  2  0  0  0  0
  1  2  1  0  0  0  0
  2  3  1  0  0  0  0
  2  4  2  0  0  0  0
  4  5  1  0  0  0  0
  5  6  2  0  0  0  0
  5 11  1  0  0  0  0
  6  7  1  0  0  0  0
  6  9  1  0  0  0  0
  7  8  1  0  0  0  0
  9 10  1  0  0  0  0
 10 11  2  0  0  0  0
M  END
>  <CHROM.1>
-35.66309069,-11.96351275,15.79623294,-2.34497700,0.86159705,-1.76086240

>  <Name>
ligand

>  <RI>
0

>  <Rbt.Current_Directory>
/home/itssahil/PROJECTS/Mol_Feturizer/New_Systems/rnas/2b57

>  <Rbt.Executable>
rbdock ($Id: //depot/dev/client3/rdock/2013.1/src/exe/rbdock.cxx#4 $)

>  <Rbt.Library>
libRbt.so (2013.1, Build901 2013/11/27)

>  <Rbt.Parameter_File>
/export/apps/rDock/src/rDock_2013.1_src/data/scripts/dock_solv.prm

>  <Rbt.Receptor>
prm/blind_docking_100.prm

>  <SCORE>
-6.56328

>  <SCORE.INTER>
-6.56328

>  <SCORE.INTER.CONST>
1

>  <SCORE.INTER.POLAR>
0

>  <SCORE.INTER.ROT>
0

>  <SCORE.INTER.SOLV>
3.34354

>  <SCORE.INTER.VDW>
-9.09004

>  <SCORE.INTER.norm>
-0.596662

>  <SCORE.INTRA>
0

>  <SCORE.INTRA.DIHEDRAL>
0

>  <SCORE.INTRA.DIHEDRAL.0>
0

>  <SCORE.INTRA.POLAR>
0

>  <SCORE.INTRA.POLAR.0>
0

>  <SCORE.INTRA.REPUL>
0

>  <SCORE.INTRA.REPUL.0>
0

>  <SCORE.INTRA.SOLV>
0

>  <SCORE.INTRA.SOLV.lig_0>
-48.3454

>  <SCORE.INTRA.VDW>
0

>  <SCORE.INTRA.VDW.0>
0

>  <SCORE.INTRA.norm>
0

>  <SCORE.RESTR>
0

>  <SCORE.RESTR.CAVITY>
0

>  <SCORE.RESTR.norm>
0

>  <SCORE.SYSTEM>
0

>  <SCORE.SYSTEM.CONST>
0

>  <SCORE.SYSTEM.DIHEDRAL>
0

>  <SCORE.SYSTEM.SOLV>
0

>  <SCORE.SYSTEM.norm>
0

>  <SCORE.heavy>
11

>  <SCORE.norm>
-0.596662

>  <RMSD>
25.558

$$$$
ligand
 OpenBabel01301917033D
libRbt.so/2013.1/901 2013/11/27
 11 12  0  0  0  0  0  0  0  0999 V2000
  -36.0172  -11.2826   17.3575 N   0  0  0  0  0  0  0  0  0  0  0  0
  -36.7233  -10.6050   16.4384 C   0  0  0  0  0  0  0  0  0  0  0  0
  -37.5227   -9.6126   16.8194 N   0  0  0  0  0  0  0  0  0  0  0  0
  -36.6376  -10.9268   15.1383 N   0  0  0  0  0  0  0  0  0  0  0  0
  -35.8484  -11.9324   14.7325 C   0  0  0  0  0  0  0  0  0  0  0  0
  -35.1071  -12.6498   15.6628 C   0  0  0  0  0  0  0  0  0  0  0  0
  -35.2107  -12.2959   17.0040 C   0  0  0  0  0  0  0  0  0  0  0  0
  -34.5115  -12.9497   17.9269 N   0  0  0  0  0  0  0  0  0  0  0  0
  -34.4334  -13.5861   15.0015 N   0  0  0  0  0  0  0  0  0  0  0  0
  -34.7338  -13.4685   13.7100 C   0  0  0  0  0  0  0  0  0  0  0  0
  -35.5925  -12.4653   13.5411 N   0  0  0  0  0  0  0  0  0  0  0  0
  1  7  2  0  0  0  0
  1  2  1  0  0  0  0
  2  3  1  0  0  0  0
  2  4  2  0  0  0  0
  4  5  1  0  0  0  0
  5  6  2  0  0  0  0
  5 11  1  0  0  0  0
  6  7  1  0  0  0  0
  6  9  1  0  0  0  0
  7  8  1  0  0  0  0
  9 10  1  0  0  0  0
 10 11  2  0  0  0  0
M  END
>  <CHROM.1>
-35.67697091,-11.96492007,15.77465919,-2.35607095,0.86114242,-1.74860628

>  <Name>
ligand

>  <RI>
0

>  <Rbt.Current_Directory>
/home/itssahil/PROJECTS/Mol_Feturizer/New_Systems/rnas/2b57

>  <Rbt.Executable>
rbdock ($Id: //depot/dev/client3/rdock/2013.1/src/exe/rbdock.cxx#4 $)

>  <Rbt.Library>
libRbt.so (2013.1, Build901 2013/11/27)

>  <Rbt.Parameter_File>
/export/apps/rDock/src/rDock_2013.1_src/data/scripts/dock_solv.prm

>  <Rbt.Receptor>
prm/blind_docking_80.prm

>  <SCORE>
-6.55529

>  <SCORE.INTER>
-6.55529

>  <SCORE.INTER.CONST>
1

>  <SCORE.INTER.POLAR>
0

>  <SCORE.INTER.ROT>
0

>  <SCORE.INTER.SOLV>
3.42548

>  <SCORE.INTER.VDW>
-9.11202

>  <SCORE.INTER.norm>
-0.595935

>  <SCORE.INTRA>
0

>  <SCORE.INTRA.DIHEDRAL>
0

>  <SCORE.INTRA.DIHEDRAL.0>
0

>  <SCORE.INTRA.POLAR>
0

>  <SCORE.INTRA.POLAR.0>
0

>  <SCORE.INTRA.REPUL>
0

>  <SCORE.INTRA.REPUL.0>
0

>  <SCORE.INTRA.SOLV>
0

>  <SCORE.INTRA.SOLV.lig_0>
-48.3454

>  <SCORE.INTRA.VDW>
0

>  <SCORE.INTRA.VDW.0>
0

>  <SCORE.INTRA.norm>
0

>  <SCORE.RESTR>
0

>  <SCORE.RESTR.CAVITY>
0

>  <SCORE.RESTR.norm>
0

>  <SCORE.SYSTEM>
0

>  <SCORE.SYSTEM.CONST>
0

>  <SCORE.SYSTEM.DIHEDRAL>
0

>  <SCORE.SYSTEM.SOLV>
0

>  <SCORE.SYSTEM.norm>
0

>  <SCORE.heavy>
11

>  <SCORE.norm>
-0.595935

>  <RMSD>
25.564

$$$$
ligand
 OpenBabel01301917033D
libRbt.so/2013.1/901 2013/11/27
 11 12  0  0  0  0  0  0  0  0999 V2000
  -36.1404  -11.3310   17.3048 N   0  0  0  0  0  0  0  0  0  0  0  0
  -36.8047  -10.6440   16.3618 C   0  0  0  0  0  0  0  0  0  0  0  0
  -37.6295   -9.6630   16.7172 N   0  0  0  0  0  0  0  0  0  0  0  0
  -36.6518  -10.9451   15.0629 N   0  0  0  0  0  0  0  0  0  0  0  0
  -35.8358  -11.9391   14.6820 C   0  0  0  0  0  0  0  0  0  0  0  0
  -35.1367  -12.6658   15.6374 C   0  0  0  0  0  0  0  0  0  0  0  0
  -35.3098  -12.3333   16.9769 C   0  0  0  0  0  0  0  0  0  0  0  0
  -34.6528  -12.9966   17.9237 N   0  0  0  0  0  0  0  0  0  0  0  0
  -34.4238  -13.5873   14.9966 N   0  0  0  0  0  0  0  0  0  0  0  0
  -34.6601  -13.4517   13.6937 C   0  0  0  0  0  0  0  0  0  0  0  0
  -35.5168  -12.4517   13.4971 N   0  0  0  0  0  0  0  0  0  0  0  0
  1  7  2  0  0  0  0
  1  2  1  0  0  0  0
  2  3  1  0  0  0  0
  2  4  2  0  0  0  0
  4  5  1  0  0  0  0
  5  6  2  0  0  0  0
  5 11  1  0  0  0  0
  6  7  1  0  0  0  0
  6  9  1  0  0  0  0
  7  8  1  0  0  0  0
  9 10  1  0  0  0  0
 10 11  2  0  0  0  0
M  END
>  <CHROM.1>
-35.71649090,-11.98651543,15.73088457,-2.43369426,0.86120107,-1.67443507

>  <Name>
ligand

>  <RI>
0

>  <Rbt.Current_Directory>
/home/itssahil/PROJECTS/Mol_Feturizer/New_Systems/rnas/2b57

>  <Rbt.Executable>
rbdock ($Id: //depot/dev/client3/rdock/2013.1/src/exe/rbdock.cxx#4 $)

>  <Rbt.Library>
libRbt.so (2013.1, Build901 2013/11/27)

>  <Rbt.Parameter_File>
/export/apps/rDock/src/rDock_2013.1_src/data/scripts/dock_solv.prm

>  <Rbt.Receptor>
prm/blind_docking_80.prm

>  <SCORE>
-6.5334

>  <SCORE.INTER>
-6.5334

>  <SCORE.INTER.CONST>
1

>  <SCORE.INTER.POLAR>
0

>  <SCORE.INTER.ROT>
0

>  <SCORE.INTER.SOLV>
3.838

>  <SCORE.INTER.VDW>
-9.23493

>  <SCORE.INTER.norm>
-0.593945

>  <SCORE.INTRA>
0

>  <SCORE.INTRA.DIHEDRAL>
0

>  <SCORE.INTRA.DIHEDRAL.0>
0

>  <SCORE.INTRA.POLAR>
0

>  <SCORE.INTRA.POLAR.0>
0

>  <SCORE.INTRA.REPUL>
0

>  <SCORE.INTRA.REPUL.0>
0

>  <SCORE.INTRA.SOLV>
0

>  <SCORE.INTRA.SOLV.lig_0>
-48.3454

>  <SCORE.INTRA.VDW>
0

>  <SCORE.INTRA.VDW.0>
0

>  <SCORE.INTRA.norm>
0

>  <SCORE.RESTR>
0

>  <SCORE.RESTR.CAVITY>
0

>  <SCORE.RESTR.norm>
0

>  <SCORE.SYSTEM>
0

>  <SCORE.SYSTEM.CONST>
0

>  <SCORE.SYSTEM.DIHEDRAL>
0

>  <SCORE.SYSTEM.SOLV>
0

>  <SCORE.SYSTEM.norm>
0

>  <SCORE.heavy>
11

>  <SCORE.norm>
-0.593945

>  <RMSD>
25.586

$$$$
ligand
 OpenBabel01301917033D
libRbt.so/2013.1/901 2013/11/27
 11 12  0  0  0  0  0  0  0  0999 V2000
  -36.1367  -11.3244   17.2842 N   0  0  0  0  0  0  0  0  0  0  0  0
  -36.8096  -10.6374   16.3472 C   0  0  0  0  0  0  0  0  0  0  0  0
  -37.6312   -9.6565   16.7102 N   0  0  0  0  0  0  0  0  0  0  0  0
  -36.6685  -10.9385   15.0470 N   0  0  0  0  0  0  0  0  0  0  0  0
  -35.8559  -11.9324   14.6587 C   0  0  0  0  0  0  0  0  0  0  0  0
  -35.1481  -12.6591   15.6077 C   0  0  0  0  0  0  0  0  0  0  0  0
  -35.3090  -12.3266   16.9487 C   0  0  0  0  0  0  0  0  0  0  0  0
  -34.6433  -12.9899   17.8894 N   0  0  0  0  0  0  0  0  0  0  0  0
  -34.4409  -13.5805   14.9604 N   0  0  0  0  0  0  0  0  0  0  0  0
  -34.6892  -13.4449   13.6596 C   0  0  0  0  0  0  0  0  0  0  0  0
  -35.5477  -12.4450   13.4709 N   0  0  0  0  0  0  0  0  0  0  0  0
  1  7  2  0  0  0  0
  1  2  1  0  0  0  0
  2  3  1  0  0  0  0
  2  4  2  0  0  0  0
  4  5  1  0  0  0  0
  5  6  2  0  0  0  0
  5 11  1  0  0  0  0
  6  7  1  0  0  0  0
  6  9  1  0  0  0  0
  7  8  1  0  0  0  0
  9 10  1  0  0  0  0
 10 11  2  0  0  0  0
M  END
>  <CHROM.1>
-35.72702795,-11.97984442,15.70642222,-2.41979861,0.86011451,-1.68494384

>  <Name>
ligand

>  <RI>
0

>  <Rbt.Current_Directory>
/home/itssahil/PROJECTS/Mol_Feturizer/New_Systems/rnas/2b57

>  <Rbt.Executable>
rbdock ($Id: //depot/dev/client3/rdock/2013.1/src/exe/rbdock.cxx#4 $)

>  <Rbt.Library>
libRbt.so (2013.1, Build901 2013/11/27)

>  <Rbt.Parameter_File>
/export/apps/rDock/src/rDock_2013.1_src/data/scripts/dock_solv.prm

>  <Rbt.Receptor>
prm/blind_docking_80.prm

>  <SCORE>
-6.54596

>  <SCORE.INTER>
-6.54596

>  <SCORE.INTER.CONST>
1

>  <SCORE.INTER.POLAR>
0

>  <SCORE.INTER.ROT>
0

>  <SCORE.INTER.SOLV>
3.83759

>  <SCORE.INTER.VDW>
-9.24317

>  <SCORE.INTER.norm>
-0.595088

>  <SCORE.INTRA>
0

>  <SCORE.INTRA.DIHEDRAL>
0

>  <SCORE.INTRA.DIHEDRAL.0>
0

>  <SCORE.INTRA.POLAR>
0

>  <SCORE.INTRA.POLAR.0>
0

>  <SCORE.INTRA.REPUL>
0

>  <SCORE.INTRA.REPUL.0>
0

>  <SCORE.INTRA.SOLV>
0

>  <SCORE.INTRA.SOLV.lig_0>
-48.3454

>  <SCORE.INTRA.VDW>
0

>  <SCORE.INTRA.VDW.0>
0

>  <SCORE.INTRA.norm>
0

>  <SCORE.RESTR>
0

>  <SCORE.RESTR.CAVITY>
0

>  <SCORE.RESTR.norm>
0

>  <SCORE.SYSTEM>
0

>  <SCORE.SYSTEM.CONST>
0

>  <SCORE.SYSTEM.DIHEDRAL>
0

>  <SCORE.SYSTEM.SOLV>
0

>  <SCORE.SYSTEM.norm>
0

>  <SCORE.heavy>
11

>  <SCORE.norm>
-0.595088

>  <RMSD>
25.589

$$$$
ligand
 OpenBabel01301917033D
libRbt.so/2013.1/901 2013/11/27
 11 12  0  0  0  0  0  0  0  0999 V2000
  -36.1431  -11.3316   17.2820 N   0  0  0  0  0  0  0  0  0  0  0  0
  -36.8109  -10.6421   16.3433 C   0  0  0  0  0  0  0  0  0  0  0  0
  -37.6317   -9.6597   16.7041 N   0  0  0  0  0  0  0  0  0  0  0  0
  -36.6657  -10.9422   15.0433 N   0  0  0  0  0  0  0  0  0  0  0  0
  -35.8539  -11.9376   14.6570 C   0  0  0  0  0  0  0  0  0  0  0  0
  -35.1513  -12.6669   15.6078 C   0  0  0  0  0  0  0  0  0  0  0  0
  -35.3165  -12.3354   16.9486 C   0  0  0  0  0  0  0  0  0  0  0  0
  -34.6558  -13.0011   17.8912 N   0  0  0  0  0  0  0  0  0  0  0  0
  -34.4439  -13.5892   14.9623 N   0  0  0  0  0  0  0  0  0  0  0  0
  -34.6870  -13.4518   13.6607 C   0  0  0  0  0  0  0  0  0  0  0  0
  -35.5425  -12.4497   13.4698 N   0  0  0  0  0  0  0  0  0  0  0  0
  1  7  2  0  0  0  0
  1  2  1  0  0  0  0
  2  3  1  0  0  0  0
  2  4  2  0  0  0  0
  4  5  1  0  0  0  0
  5  6  2  0  0  0  0
  5 11  1  0  0  0  0
  6  7  1  0  0  0  0
  6  9  1  0  0  0  0
  7  8  1  0  0  0  0
  9 10  1  0  0  0  0
 10 11  2  0  0  0  0
M  END
>  <CHROM.1>
-35.72908595,-11.98639767,15.70513113,-2.42508147,0.86281307,-1.67993956

>  <Name>
ligand

>  <RI>
0

>  <Rbt.Current_Directory>
/home/itssahil/PROJECTS/Mol_Feturizer/New_Systems/rnas/2b57

>  <Rbt.Executable>
rbdock ($Id: //depot/dev/client3/rdock/2013.1/src/exe/rbdock.cxx#4 $)

>  <Rbt.Library>
libRbt.so (2013.1, Build901 2013/11/27)

>  <Rbt.Parameter_File>
/export/apps/rDock/src/rDock_2013.1_src/data/scripts/dock_solv.prm

>  <Rbt.Receptor>
prm/blind_docking_60.prm

>  <SCORE>
-6.54167

>  <SCORE.INTER>
-6.54167

>  <SCORE.INTER.CONST>
1

>  <SCORE.INTER.POLAR>
0

>  <SCORE.INTER.ROT>
0

>  <SCORE.INTER.SOLV>
3.89698

>  <SCORE.INTER.VDW>
-9.26011

>  <SCORE.INTER.norm>
-0.594697

>  <SCORE.INTRA>
0

>  <SCORE.INTRA.DIHEDRAL>
0

>  <SCORE.INTRA.DIHEDRAL.0>
0

>  <SCORE.INTRA.POLAR>
0

>  <SCORE.INTRA.POLAR.0>
0

>  <SCORE.INTRA.REPUL>
0

>  <SCORE.INTRA.REPUL.0>
0

>  <SCORE.INTRA.SOLV>
0

>  <SCORE.INTRA.SOLV.lig_0>
-48.3454

>  <SCORE.INTRA.VDW>
0

>  <SCORE.INTRA.VDW.0>
0

>  <SCORE.INTRA.norm>
0

>  <SCORE.RESTR>
0

>  <SCORE.RESTR.CAVITY>
0

>  <SCORE.RESTR.norm>
0

>  <SCORE.SYSTEM>
0

>  <SCORE.SYSTEM.CONST>
0

>  <SCORE.SYSTEM.DIHEDRAL>
0

>  <SCORE.SYSTEM.SOLV>
0

>  <SCORE.SYSTEM.norm>
0

>  <SCORE.heavy>
11

>  <SCORE.norm>
-0.594697

>  <RMSD>
25.590

$$$$
ligand
 OpenBabel01301917033D
libRbt.so/2013.1/901 2013/11/27
 11 12  0  0  0  0  0  0  0  0999 V2000
  -35.5546  -22.1461    9.5533 N   0  0  0  0  0  0  0  0  0  0  0  0
  -35.7835  -22.3384    8.2443 C   0  0  0  0  0  0  0  0  0  0  0  0
  -35.5763  -23.5371    7.7067 N   0  0  0  0  0  0  0  0  0  0  0  0
  -36.2102  -21.3283    7.4705 N   0  0  0  0  0  0  0  0  0  0  0  0
  -36.4131  -20.1077    7.9881 C   0  0  0  0  0  0  0  0  0  0  0  0
  -36.1838  -19.8816    9.3394 C   0  0  0  0  0  0  0  0  0  0  0  0
  -35.7444  -20.9447   10.1214 C   0  0  0  0  0  0  0  0  0  0  0  0
  -35.5217  -20.7751   11.4213 N   0  0  0  0  0  0  0  0  0  0  0  0
  -36.4452  -18.6005    9.5807 N   0  0  0  0  0  0  0  0  0  0  0  0
  -36.8228  -18.0389    8.4344 C   0  0  0  0  0  0  0  0  0  0  0  0
  -36.8055  -18.9502    7.4640 N   0  0  0  0  0  0  0  0  0  0  0  0
  1  7  2  0  0  0  0
  1  2  1  0  0  0  0
  2  3  1  0  0  0  0
  2  4  2  0  0  0  0
  4  5  1  0  0  0  0
  5  6  2  0  0  0  0
  5 11  1  0  0  0  0
  6  7  1  0  0  0  0
  6  9  1  0  0  0  0
  7  8  1  0  0  0  0
  9 10  1  0  0  0  0
 10 11  2  0  0  0  0
M  END
>  <CHROM.1>
-36.09000933,-20.62811588,8.84916773,-0.72581578,-1.25336868,0.88400818

>  <Name>
ligand

>  <RI>
0

>  <Rbt.Current_Directory>
/home/itssahil/PROJECTS/Mol_Feturizer/New_Systems/rnas/2b57

>  <Rbt.Executable>
rbdock ($Id: //depot/dev/client3/rdock/2013.1/src/exe/rbdock.cxx#4 $)

>  <Rbt.Library>
libRbt.so (2013.1, Build901 2013/11/27)

>  <Rbt.Parameter_File>
/export/apps/rDock/src/rDock_2013.1_src/data/scripts/dock_solv.prm

>  <Rbt.Receptor>
prm/blind_docking_60.prm

>  <SCORE>
-4.31771

>  <SCORE.INTER>
-4.40906

>  <SCORE.INTER.CONST>
1

>  <SCORE.INTER.POLAR>
0

>  <SCORE.INTER.ROT>
0

>  <SCORE.INTER.SOLV>
19.7087

>  <SCORE.INTER.VDW>
-13.1089

>  <SCORE.INTER.norm>
-0.400824

>  <SCORE.INTRA>
0

>  <SCORE.INTRA.DIHEDRAL>
0

>  <SCORE.INTRA.DIHEDRAL.0>
0

>  <SCORE.INTRA.POLAR>
0

>  <SCORE.INTRA.POLAR.0>
0

>  <SCORE.INTRA.REPUL>
0

>  <SCORE.INTRA.REPUL.0>
0

>  <SCORE.INTRA.SOLV>
0

>  <SCORE.INTRA.SOLV.lig_0>
-48.3454

>  <SCORE.INTRA.VDW>
0

>  <SCORE.INTRA.VDW.0>
0

>  <SCORE.INTRA.norm>
0

>  <SCORE.RESTR>
0.0913466

>  <SCORE.RESTR.CAVITY>
0.0913466

>  <SCORE.RESTR.norm>
0.00830424

>  <SCORE.SYSTEM>
0

>  <SCORE.SYSTEM.CONST>
0

>  <SCORE.SYSTEM.DIHEDRAL>
0

>  <SCORE.SYSTEM.SOLV>
0

>  <SCORE.SYSTEM.norm>
0

>  <SCORE.heavy>
11

>  <SCORE.norm>
-0.392519

>  <RMSD>
25.837

$$$$
ligand
 OpenBabel01301917033D
libRbt.so/2013.1/901 2013/11/27
 11 12  0  0  0  0  0  0  0  0999 V2000
  -34.6023  -22.0417    8.3353 N   0  0  0  0  0  0  0  0  0  0  0  0
  -35.8830  -21.6521    8.4389 C   0  0  0  0  0  0  0  0  0  0  0  0
  -36.1812  -20.5280    9.0841 N   0  0  0  0  0  0  0  0  0  0  0  0
  -36.8670  -22.3927    7.9057 N   0  0  0  0  0  0  0  0  0  0  0  0
  -36.5911  -23.5368    7.2623 C   0  0  0  0  0  0  0  0  0  0  0  0
  -35.2745  -23.9629    7.1409 C   0  0  0  0  0  0  0  0  0  0  0  0
  -34.2721  -23.1770    7.6996 C   0  0  0  0  0  0  0  0  0  0  0  0
  -32.9976  -23.5424    7.5984 N   0  0  0  0  0  0  0  0  0  0  0  0
  -35.2868  -25.1171    6.4809 N   0  0  0  0  0  0  0  0  0  0  0  0
  -36.5538  -25.4104    6.1968 C   0  0  0  0  0  0  0  0  0  0  0  0
  -37.3500  -24.4535    6.6688 N   0  0  0  0  0  0  0  0  0  0  0  0
  1  7  2  0  0  0  0
  1  2  1  0  0  0  0
  2  3  1  0  0  0  0
  2  4  2  0  0  0  0
  4  5  1  0  0  0  0
  5  6  2  0  0  0  0
  5 11  1  0  0  0  0
  6  7  1  0  0  0  0
  6  9  1  0  0  0  0
  7  8  1  0  0  0  0
  9 10  1  0  0  0  0
 10 11  2  0  0  0  0
M  END
>  <CHROM.1>
-35.61726823,-23.23565147,7.54082598,-1.43806532,0.07959534,-2.61299403

>  <Name>
ligand

>  <RI>
0

>  <Rbt.Current_Directory>
/home/itssahil/PROJECTS/Mol_Feturizer/New_Systems/rnas/2b57

>  <Rbt.Executable>
rbdock ($Id: //depot/dev/client3/rdock/2013.1/src/exe/rbdock.cxx#4 $)

>  <Rbt.Library>
libRbt.so (2013.1, Build901 2013/11/27)

>  <Rbt.Parameter_File>
/export/apps/rDock/src/rDock_2013.1_src/data/scripts/dock_solv.prm

>  <Rbt.Receptor>
prm/blind_docking_60.prm

>  <SCORE>
-3.45373

>  <SCORE.INTER>
-3.45373

>  <SCORE.INTER.CONST>
1

>  <SCORE.INTER.POLAR>
0

>  <SCORE.INTER.ROT>
0

>  <SCORE.INTER.SOLV>
10.3632

>  <SCORE.INTER.VDW>
-9.35688

>  <SCORE.INTER.norm>
-0.313975

>  <SCORE.INTRA>
0

>  <SCORE.INTRA.DIHEDRAL>
0

>  <SCORE.INTRA.DIHEDRAL.0>
0

>  <SCORE.INTRA.POLAR>
0

>  <SCORE.INTRA.POLAR.0>
0

>  <SCORE.INTRA.REPUL>
0

>  <SCORE.INTRA.REPUL.0>
0

>  <SCORE.INTRA.SOLV>
0

>  <SCORE.INTRA.SOLV.lig_0>
-48.3454

>  <SCORE.INTRA.VDW>
0

>  <SCORE.INTRA.VDW.0>
0

>  <SCORE.INTRA.norm>
0

>  <SCORE.RESTR>
0

>  <SCORE.RESTR.CAVITY>
0

>  <SCORE.RESTR.norm>
0

>  <SCORE.SYSTEM>
0

>  <SCORE.SYSTEM.CONST>
0

>  <SCORE.SYSTEM.DIHEDRAL>
0

>  <SCORE.SYSTEM.SOLV>
0

>  <SCORE.SYSTEM.norm>
0

>  <SCORE.heavy>
11

>  <SCORE.norm>
-0.313975

>  <RMSD>
26.256

$$$$
ligand
 OpenBabel01301917033D
libRbt.so/2013.1/901 2013/11/27
 11 12  0  0  0  0  0  0  0  0999 V2000
  -38.2444  -25.8374    7.2662 N   0  0  0  0  0  0  0  0  0  0  0  0
  -39.1336  -25.2993    8.1161 C   0  0  0  0  0  0  0  0  0  0  0  0
  -40.1756  -26.0181    8.5244 N   0  0  0  0  0  0  0  0  0  0  0  0
  -38.9863  -24.0379    8.5499 N   0  0  0  0  0  0  0  0  0  0  0  0
  -37.9508  -23.2898    8.1411 C   0  0  0  0  0  0  0  0  0  0  0  0
  -37.0163  -23.8221    7.2618 C   0  0  0  0  0  0  0  0  0  0  0  0
  -37.1892  -25.1324    6.8284 C   0  0  0  0  0  0  0  0  0  0  0  0
  -36.3133  -25.6848    5.9941 N   0  0  0  0  0  0  0  0  0  0  0  0
  -36.1166  -22.8753    7.0127 N   0  0  0  0  0  0  0  0  0  0  0  0
  -36.4646  -21.7912    7.7023 C   0  0  0  0  0  0  0  0  0  0  0  0
  -37.5778  -22.0377    8.3897 N   0  0  0  0  0  0  0  0  0  0  0  0
  1  7  2  0  0  0  0
  1  2  1  0  0  0  0
  2  3  1  0  0  0  0
  2  4  2  0  0  0  0
  4  5  1  0  0  0  0
  5  6  2  0  0  0  0
  5 11  1  0  0  0  0
  6  7  1  0  0  0  0
  6  9  1  0  0  0  0
  7  8  1  0  0  0  0
  9 10  1  0  0  0  0
 10 11  2  0  0  0  0
M  END
>  <CHROM.1>
-37.75588001,-24.18670916,7.61746153,-2.39215298,0.57145534,0.39483150

>  <Name>
ligand

>  <RI>
0

>  <Rbt.Current_Directory>
/home/itssahil/PROJECTS/Mol_Feturizer/New_Systems/rnas/2b57

>  <Rbt.Executable>
rbdock ($Id: //depot/dev/client3/rdock/2013.1/src/exe/rbdock.cxx#4 $)

>  <Rbt.Library>
libRbt.so (2013.1, Build901 2013/11/27)

>  <Rbt.Parameter_File>
/export/apps/rDock/src/rDock_2013.1_src/data/scripts/dock_solv.prm

>  <Rbt.Receptor>
prm/blind_docking_100.prm

>  <SCORE>
-4.66683

>  <SCORE.INTER>
-4.66683

>  <SCORE.INTER.CONST>
1

>  <SCORE.INTER.POLAR>
0

>  <SCORE.INTER.ROT>
0

>  <SCORE.INTER.SOLV>
6.67577

>  <SCORE.INTER.VDW>
-8.93648

>  <SCORE.INTER.norm>
-0.424257

>  <SCORE.INTRA>
0

>  <SCORE.INTRA.DIHEDRAL>
0

>  <SCORE.INTRA.DIHEDRAL.0>
0

>  <SCORE.INTRA.POLAR>
0

>  <SCORE.INTRA.POLAR.0>
0

>  <SCORE.INTRA.REPUL>
0

>  <SCORE.INTRA.REPUL.0>
0

>  <SCORE.INTRA.SOLV>
0

>  <SCORE.INTRA.SOLV.lig_0>
-48.3454

>  <SCORE.INTRA.VDW>
0

>  <SCORE.INTRA.VDW.0>
0

>  <SCORE.INTRA.norm>
0

>  <SCORE.RESTR>
0

>  <SCORE.RESTR.CAVITY>
0

>  <SCORE.RESTR.norm>
0

>  <SCORE.SYSTEM>
0

>  <SCORE.SYSTEM.CONST>
0

>  <SCORE.SYSTEM.DIHEDRAL>
0

>  <SCORE.SYSTEM.SOLV>
0

>  <SCORE.SYSTEM.norm>
0

>  <SCORE.heavy>
11

>  <SCORE.norm>
-0.424257

>  <RMSD>
28.569

$$$$
ligand
 OpenBabel01301917033D
libRbt.so/2013.1/901 2013/11/27
 11 12  0  0  0  0  0  0  0  0999 V2000
  -39.3067  -26.4659    8.7708 N   0  0  0  0  0  0  0  0  0  0  0  0
  -39.4473  -25.2913    9.4057 C   0  0  0  0  0  0  0  0  0  0  0  0
  -39.4885  -24.1621    8.7041 N   0  0  0  0  0  0  0  0  0  0  0  0
  -39.5365  -25.2452   10.7440 N   0  0  0  0  0  0  0  0  0  0  0  0
  -39.4839  -26.3699   11.4728 C   0  0  0  0  0  0  0  0  0  0  0  0
  -39.3387  -27.5984   10.8410 C   0  0  0  0  0  0  0  0  0  0  0  0
  -39.2510  -27.6207    9.4530 C   0  0  0  0  0  0  0  0  0  0  0  0
  -39.1211  -28.7756    8.8069 N   0  0  0  0  0  0  0  0  0  0  0  0
  -39.3008  -28.5326   11.7864 N   0  0  0  0  0  0  0  0  0  0  0  0
  -39.4163  -27.9244   12.9649 C   0  0  0  0  0  0  0  0  0  0  0  0
  -39.5282  -26.6107   12.7800 N   0  0  0  0  0  0  0  0  0  0  0  0
  1  7  2  0  0  0  0
  1  2  1  0  0  0  0
  2  3  1  0  0  0  0
  2  4  2  0  0  0  0
  4  5  1  0  0  0  0
  5  6  2  0  0  0  0
  5 11  1  0  0  0  0
  6  7  1  0  0  0  0
  6  9  1  0  0  0  0
  7  8  1  0  0  0  0
  9 10  1  0  0  0  0
 10 11  2  0  0  0  0
M  END
>  <CHROM.1>
-39.38327317,-26.76910834,10.49963682,-1.63132620,-1.46897231,2.16733614

>  <Name>
ligand

>  <RI>
0

>  <Rbt.Current_Directory>
/home/itssahil/PROJECTS/Mol_Feturizer/New_Systems/rnas/2b57

>  <Rbt.Executable>
rbdock ($Id: //depot/dev/client3/rdock/2013.1/src/exe/rbdock.cxx#4 $)

>  <Rbt.Library>
libRbt.so (2013.1, Build901 2013/11/27)

>  <Rbt.Parameter_File>
/export/apps/rDock/src/rDock_2013.1_src/data/scripts/dock_solv.prm

>  <Rbt.Receptor>
prm/blind_docking_60.prm

>  <SCORE>
-6.81157

>  <SCORE.INTER>
-6.81157

>  <SCORE.INTER.CONST>
1

>  <SCORE.INTER.POLAR>
0

>  <SCORE.INTER.ROT>
0

>  <SCORE.INTER.SOLV>
9.89543

>  <SCORE.INTER.VDW>
-11.4395

>  <SCORE.INTER.norm>
-0.619233

>  <SCORE.INTRA>
0

>  <SCORE.INTRA.DIHEDRAL>
0

>  <SCORE.INTRA.DIHEDRAL.0>
0

>  <SCORE.INTRA.POLAR>
0

>  <SCORE.INTRA.POLAR.0>
0

>  <SCORE.INTRA.REPUL>
0

>  <SCORE.INTRA.REPUL.0>
0

>  <SCORE.INTRA.SOLV>
0

>  <SCORE.INTRA.SOLV.lig_0>
-48.3454

>  <SCORE.INTRA.VDW>
0

>  <SCORE.INTRA.VDW.0>
0

>  <SCORE.INTRA.norm>
0

>  <SCORE.RESTR>
0

>  <SCORE.RESTR.CAVITY>
0

>  <SCORE.RESTR.norm>
0

>  <SCORE.SYSTEM>
0

>  <SCORE.SYSTEM.CONST>
0

>  <SCORE.SYSTEM.DIHEDRAL>
0

>  <SCORE.SYSTEM.SOLV>
0

>  <SCORE.SYSTEM.norm>
0

>  <SCORE.heavy>
11

>  <SCORE.norm>
-0.619233

>  <RMSD>
31.356

$$$$
ligand
 OpenBabel01301917033D
libRbt.so/2013.1/901 2013/11/27
 11 12  0  0  0  0  0  0  0  0999 V2000
  -38.9909  -27.6142    8.6264 N   0  0  0  0  0  0  0  0  0  0  0  0
  -39.0796  -26.2793    8.7396 C   0  0  0  0  0  0  0  0  0  0  0  0
  -38.9746  -25.5161    7.6554 N   0  0  0  0  0  0  0  0  0  0  0  0
  -39.2631  -25.7067    9.9395 N   0  0  0  0  0  0  0  0  0  0  0  0
  -39.3583  -26.4556   11.0481 C   0  0  0  0  0  0  0  0  0  0  0  0
  -39.2698  -27.8390   10.9590 C   0  0  0  0  0  0  0  0  0  0  0  0
  -39.0821  -28.4092    9.7043 C   0  0  0  0  0  0  0  0  0  0  0  0
  -39.0015  -29.7298    9.5721 N   0  0  0  0  0  0  0  0  0  0  0  0
  -39.3798  -28.3271   12.1910 N   0  0  0  0  0  0  0  0  0  0  0  0
  -39.5307  -27.2999   13.0241 C   0  0  0  0  0  0  0  0  0  0  0  0
  -39.5188  -26.1609   12.3349 N   0  0  0  0  0  0  0  0  0  0  0  0
  1  7  2  0  0  0  0
  1  2  1  0  0  0  0
  2  3  1  0  0  0  0
  2  4  2  0  0  0  0
  4  5  1  0  0  0  0
  5  6  2  0  0  0  0
  5 11  1  0  0  0  0
  6  7  1  0  0  0  0
  6  9  1  0  0  0  0
  7  8  1  0  0  0  0
  9 10  1  0  0  0  0
 10 11  2  0  0  0  0
M  END
>  <CHROM.1>
-39.21978304,-27.20948201,10.32069878,-0.65974543,-1.43981098,2.73142511

>  <Name>
ligand

>  <RI>
0

>  <Rbt.Current_Directory>
/home/itssahil/PROJECTS/Mol_Feturizer/New_Systems/rnas/2b57

>  <Rbt.Executable>
rbdock ($Id: //depot/dev/client3/rdock/2013.1/src/exe/rbdock.cxx#4 $)

>  <Rbt.Library>
libRbt.so (2013.1, Build901 2013/11/27)

>  <Rbt.Parameter_File>
/export/apps/rDock/src/rDock_2013.1_src/data/scripts/dock_solv.prm

>  <Rbt.Receptor>
prm/blind_docking_60.prm

>  <SCORE>
-6.01757

>  <SCORE.INTER>
-6.01757

>  <SCORE.INTER.CONST>
1

>  <SCORE.INTER.POLAR>
0

>  <SCORE.INTER.ROT>
0

>  <SCORE.INTER.SOLV>
7.38213

>  <SCORE.INTER.VDW>
-10.0724

>  <SCORE.INTER.norm>
-0.547052

>  <SCORE.INTRA>
0

>  <SCORE.INTRA.DIHEDRAL>
0

>  <SCORE.INTRA.DIHEDRAL.0>
0

>  <SCORE.INTRA.POLAR>
0

>  <SCORE.INTRA.POLAR.0>
0

>  <SCORE.INTRA.REPUL>
0

>  <SCORE.INTRA.REPUL.0>
0

>  <SCORE.INTRA.SOLV>
0

>  <SCORE.INTRA.SOLV.lig_0>
-48.3454

>  <SCORE.INTRA.VDW>
0

>  <SCORE.INTRA.VDW.0>
0

>  <SCORE.INTRA.norm>
0

>  <SCORE.RESTR>
0

>  <SCORE.RESTR.CAVITY>
0

>  <SCORE.RESTR.norm>
0

>  <SCORE.SYSTEM>
0

>  <SCORE.SYSTEM.CONST>
0

>  <SCORE.SYSTEM.DIHEDRAL>
0

>  <SCORE.SYSTEM.SOLV>
0

>  <SCORE.SYSTEM.norm>
0

>  <SCORE.heavy>
11

>  <SCORE.norm>
-0.547052

>  <RMSD>
31.408

$$$$
ligand
 OpenBabel01301917033D
libRbt.so/2013.1/901 2013/11/27
 11 12  0  0  0  0  0  0  0  0999 V2000
  -38.8407  -27.5706    8.7633 N   0  0  0  0  0  0  0  0  0  0  0  0
  -38.5918  -28.7849    9.2792 C   0  0  0  0  0  0  0  0  0  0  0  0
  -38.1837  -29.7695    8.4836 N   0  0  0  0  0  0  0  0  0  0  0  0
  -38.7611  -29.0174   10.5901 N   0  0  0  0  0  0  0  0  0  0  0  0
  -39.1847  -28.0433   11.4090 C   0  0  0  0  0  0  0  0  0  0  0  0
  -39.4496  -26.7778   10.9011 C   0  0  0  0  0  0  0  0  0  0  0  0
  -39.2642  -26.5607    9.5398 C   0  0  0  0  0  0  0  0  0  0  0  0
  -39.4966  -25.3620    9.0132 N   0  0  0  0  0  0  0  0  0  0  0  0
  -39.8630  -26.0193   11.9120 N   0  0  0  0  0  0  0  0  0  0  0  0
  -39.8610  -26.7697   13.0115 C   0  0  0  0  0  0  0  0  0  0  0  0
  -39.4494  -27.9998   12.7116 N   0  0  0  0  0  0  0  0  0  0  0  0
  1  7  2  0  0  0  0
  1  2  1  0  0  0  0
  2  3  1  0  0  0  0
  2  4  2  0  0  0  0
  4  5  1  0  0  0  0
  5  6  2  0  0  0  0
  5 11  1  0  0  0  0
  6  7  1  0  0  0  0
  6  9  1  0  0  0  0
  7  8  1  0  0  0  0
  9 10  1  0  0  0  0
 10 11  2  0  0  0  0
M  END
>  <CHROM.1>
-39.17042020,-27.52481290,10.48840520,0.44798549,1.24708474,-0.98493922

>  <Name>
ligand

>  <RI>
0

>  <Rbt.Current_Directory>
/home/itssahil/PROJECTS/Mol_Feturizer/New_Systems/rnas/2b57

>  <Rbt.Executable>
rbdock ($Id: //depot/dev/client3/rdock/2013.1/src/exe/rbdock.cxx#4 $)

>  <Rbt.Library>
libRbt.so (2013.1, Build901 2013/11/27)

>  <Rbt.Parameter_File>
/export/apps/rDock/src/rDock_2013.1_src/data/scripts/dock_solv.prm

>  <Rbt.Receptor>
prm/blind_docking_60.prm

>  <SCORE>
-6.68081

>  <SCORE.INTER>
-6.68081

>  <SCORE.INTER.CONST>
1

>  <SCORE.INTER.POLAR>
0

>  <SCORE.INTER.ROT>
0

>  <SCORE.INTER.SOLV>
5.92546

>  <SCORE.INTER.VDW>
-10.029

>  <SCORE.INTER.norm>
-0.607346

>  <SCORE.INTRA>
0

>  <SCORE.INTRA.DIHEDRAL>
0

>  <SCORE.INTRA.DIHEDRAL.0>
0

>  <SCORE.INTRA.POLAR>
0

>  <SCORE.INTRA.POLAR.0>
0

>  <SCORE.INTRA.REPUL>
0

>  <SCORE.INTRA.REPUL.0>
0

>  <SCORE.INTRA.SOLV>
0

>  <SCORE.INTRA.SOLV.lig_0>
-48.3454

>  <SCORE.INTRA.VDW>
0

>  <SCORE.INTRA.VDW.0>
0

>  <SCORE.INTRA.norm>
0

>  <SCORE.RESTR>
0

>  <SCORE.RESTR.CAVITY>
0

>  <SCORE.RESTR.norm>
0

>  <SCORE.SYSTEM>
0

>  <SCORE.SYSTEM.CONST>
0

>  <SCORE.SYSTEM.DIHEDRAL>
0

>  <SCORE.SYSTEM.SOLV>
0

>  <SCORE.SYSTEM.norm>
0

>  <SCORE.heavy>
11

>  <SCORE.norm>
-0.607346

>  <RMSD>
31.419

$$$$
ligand
 OpenBabel01301917033D
libRbt.so/2013.1/901 2013/11/27
 11 12  0  0  0  0  0  0  0  0999 V2000
  -39.4421  -26.5573    8.8204 N   0  0  0  0  0  0  0  0  0  0  0  0
  -39.4467  -25.4097    9.5173 C   0  0  0  0  0  0  0  0  0  0  0  0
  -39.4325  -24.2460    8.8736 N   0  0  0  0  0  0  0  0  0  0  0  0
  -39.4550  -25.4262   10.8593 N   0  0  0  0  0  0  0  0  0  0  0  0
  -39.4558  -26.5879   11.5297 C   0  0  0  0  0  0  0  0  0  0  0  0
  -39.4510  -27.7896   10.8330 C   0  0  0  0  0  0  0  0  0  0  0  0
  -39.4450  -27.7467    9.4427 C   0  0  0  0  0  0  0  0  0  0  0  0
  -39.4500  -28.8732    8.7362 N   0  0  0  0  0  0  0  0  0  0  0  0
  -39.4381  -28.7717   11.7293 N   0  0  0  0  0  0  0  0  0  0  0  0
  -39.4343  -28.2182   12.9399 C   0  0  0  0  0  0  0  0  0  0  0  0
  -39.4454  -26.8919   12.8243 N   0  0  0  0  0  0  0  0  0  0  0  0
  1  7  2  0  0  0  0
  1  2  1  0  0  0  0
  2  3  1  0  0  0  0
  2  4  2  0  0  0  0
  4  5  1  0  0  0  0
  5  6  2  0  0  0  0
  5 11  1  0  0  0  0
  6  7  1  0  0  0  0
  6  9  1  0  0  0  0
  7  8  1  0  0  0  0
  9 10  1  0  0  0  0
 10 11  2  0  0  0  0
M  END
>  <CHROM.1>
-39.44497352,-26.94277301,10.53445336,2.43463063,-1.57079633,0.00000000

>  <Name>
ligand

>  <RI>
0

>  <Rbt.Current_Directory>
/home/itssahil/PROJECTS/Mol_Feturizer/New_Systems/rnas/2b57

>  <Rbt.Executable>
rbdock ($Id: //depot/dev/client3/rdock/2013.1/src/exe/rbdock.cxx#4 $)

>  <Rbt.Library>
libRbt.so (2013.1, Build901 2013/11/27)

>  <Rbt.Parameter_File>
/export/apps/rDock/src/rDock_2013.1_src/data/scripts/dock_solv.prm

>  <Rbt.Receptor>
prm/blind_docking_80.prm

>  <SCORE>
-6.62787

>  <SCORE.INTER>
-6.62787

>  <SCORE.INTER.CONST>
1

>  <SCORE.INTER.POLAR>
0

>  <SCORE.INTER.ROT>
0

>  <SCORE.INTER.SOLV>
9.30625

>  <SCORE.INTER.VDW>
-11.1207

>  <SCORE.INTER.norm>
-0.602534

>  <SCORE.INTRA>
0

>  <SCORE.INTRA.DIHEDRAL>
0

>  <SCORE.INTRA.DIHEDRAL.0>
0

>  <SCORE.INTRA.POLAR>
0

>  <SCORE.INTRA.POLAR.0>
0

>  <SCORE.INTRA.REPUL>
0

>  <SCORE.INTRA.REPUL.0>
0

>  <SCORE.INTRA.SOLV>
0

>  <SCORE.INTRA.SOLV.lig_0>
-48.3454

>  <SCORE.INTRA.VDW>
0

>  <SCORE.INTRA.VDW.0>
0

>  <SCORE.INTRA.norm>
0

>  <SCORE.RESTR>
0

>  <SCORE.RESTR.CAVITY>
0

>  <SCORE.RESTR.norm>
0

>  <SCORE.SYSTEM>
0

>  <SCORE.SYSTEM.CONST>
0

>  <SCORE.SYSTEM.DIHEDRAL>
0

>  <SCORE.SYSTEM.SOLV>
0

>  <SCORE.SYSTEM.norm>
0

>  <SCORE.heavy>
11

>  <SCORE.norm>
-0.602534

>  <RMSD>
31.485

$$$$
