2o3w_lig
 OpenBabel11021811463D
libRbt.so/2013.1/901 2013/11/27
 42 45  0  0  0  0  0  0  0  0999 V2000
    7.3206    0.5200    3.5566 C   0  0  2  0  0  0  0  0  0  0  0  0
    7.7919    0.4271    4.9118 O   0  0  0  0  0  0  0  0  0  0  0  0
   11.1959    2.0823    7.0259 C   0  0  2  0  0  0  0  0  0  0  0  0
   12.5818    2.4985    7.3954 N   0  0  0  0  0  0  0  0  0  0  0  0
    8.5568    3.9723    3.4613 C   0  0  1  0  0  0  0  0  0  0  0  0
    7.0872    7.4918    1.1398 C   0  0  1  0  0  0  0  0  0  0  0  0
    5.7716    0.3559    3.6014 C   0  0  2  0  0  0  0  0  0  0  0  0
    5.1398    1.2377    4.5983 N   0  0  0  0  0  0  0  0  0  0  0  0
   11.0692    0.5072    6.9554 C   0  0  0  0  0  0  0  0  0  0  0  0
    9.2341    4.5736    2.1922 C   0  0  2  0  0  0  0  0  0  0  0  0
   10.3703    5.4258    2.4784 O   0  0  0  0  0  0  0  0  0  0  0  0
    6.6341    8.8312    1.8251 C   0  0  2  0  0  0  0  0  0  0  0  0
    5.9271    8.5592    3.1124 N   0  0  0  0  0  0  0  0  0  0  0  0
    5.3463   -1.0830    3.9472 C   0  0  1  0  0  0  0  0  0  0  0  0
    3.9222   -1.1965    3.9381 O   0  0  0  0  0  0  0  0  0  0  0  0
    9.5847    0.1308    6.5848 C   0  0  2  0  0  0  0  0  0  0  0  0
    9.4255   -1.3472    6.5240 N   0  0  0  0  0  0  0  0  0  0  0  0
    8.0450    5.2594    1.5177 C   0  0  2  0  0  0  0  0  0  0  0  0
    7.9004    6.6458    1.9624 O   0  0  0  0  0  0  0  0  0  0  0  0
    5.6975    9.6508    0.8161 C   0  0  1  0  0  0  0  0  0  0  0  0
    6.5192   10.2137   -0.2312 O   0  0  0  0  0  0  0  0  0  0  0  0
    5.9973   -2.0672    2.9489 C   0  0  2  0  0  0  0  0  0  0  0  0
    5.6043   -3.3879    3.2418 O   0  0  0  0  0  0  0  0  0  0  0  0
    9.1795    0.7653    5.1959 C   0  0  2  0  0  0  0  0  0  0  0  0
    6.8077    4.4239    1.8867 C   0  0  2  0  0  0  0  0  0  0  0  0
    7.1413    3.9069    3.1728 O   0  0  0  0  0  0  0  0  0  0  0  0
    4.5442    8.7482    0.1659 C   0  0  2  0  0  0  0  0  0  0  0  0
    3.6168    8.4229    1.2005 O   0  0  0  0  0  0  0  0  0  0  0  0
    7.5536   -1.9224    3.0306 C   0  0  2  0  0  0  0  0  0  0  0  0
    7.9355   -0.5421    2.7323 O   0  0  0  0  0  0  0  0  0  0  0  0
    9.3327    2.3019    5.1720 C   0  0  2  0  0  0  0  0  0  0  0  0
    9.1013    2.6873    3.7891 O   0  0  0  0  0  0  0  0  0  0  0  0
    6.4697    3.2726    0.8894 C   0  0  0  0  0  0  0  0  0  0  0  0
    5.2584    2.6412    1.2930 O   0  0  0  0  0  0  0  0  0  0  0  0
    5.1510    7.4338   -0.4556 C   0  0  1  0  0  0  0  0  0  0  0  0
    5.8629    6.7538    0.6404 O   0  0  0  0  0  0  0  0  0  0  0  0
    8.2745   -2.8481    2.0782 C   0  0  0  0  0  0  0  0  0  0  0  0
    8.1056   -4.1855    2.4808 O   0  0  0  0  0  0  0  0  0  0  0  0
   10.7925    2.7153    5.6341 C   0  0  1  0  0  0  0  0  0  0  0  0
   10.8870    4.1371    5.7574 O   0  0  0  0  0  0  0  0  0  0  0  0
    4.0686    6.4603   -1.0952 C   0  0  0  0  0  0  0  0  0  0  0  0
    2.9849    6.0132   -0.1774 N   0  0  0  0  0  0  0  0  0  0  0  0
  1  2  1  1  0  0  0
  1  7  1  0  0  0  0
  1 30  1  0  0  0  0
  3  4  1  6  0  0  0
  3  9  1  0  0  0  0
  3 39  1  0  0  0  0
  5 10  1  0  0  0  0
  5 26  1  0  0  0  0
  5 32  1  6  0  0  0
  6 12  1  0  0  0  0
  6 36  1  0  0  0  0
  6 19  1  1  0  0  0
  7  8  1  1  0  0  0
  7 14  1  0  0  0  0
  9 16  1  0  0  0  0
 10 11  1  1  0  0  0
 10 18  1  0  0  0  0
 12 13  1  1  0  0  0
 12 20  1  0  0  0  0
 14 15  1  6  0  0  0
 14 22  1  0  0  0  0
 16 17  1  6  0  0  0
 16 24  1  0  0  0  0
 18 19  1  1  0  0  0
 18 25  1  0  0  0  0
 20 21  1  6  0  0  0
 20 27  1  0  0  0  0
 22 23  1  1  0  0  0
 22 29  1  0  0  0  0
 24  2  1  1  0  0  0
 24 31  1  0  0  0  0
 25 26  1  0  0  0  0
 25 33  1  6  0  0  0
 27 28  1  1  0  0  0
 27 35  1  0  0  0  0
 29 30  1  0  0  0  0
 29 37  1  6  0  0  0
 31 32  1  6  0  0  0
 31 39  1  0  0  0  0
 33 34  1  0  0  0  0
 35 36  1  0  0  0  0
 35 41  1  1  0  0  0
 37 38  1  0  0  0  0
 39 40  1  1  0  0  0
 41 42  1  0  0  0  0
M  END
>  <CHROM.1>
-169.95535031,140.84190682,164.19554143,162.70101661,-160.76615546,-175.97645192
-67.96643744,150.87628390,-57.00760182,7.35904980,3.09299157,3.00170178,1.24237514
0.63230165,2.93075657

>  <Name>
2o3w_lig

>  <RI>
0

>  <Rbt.Current_Directory>
/home/itssahil/PROJECTS/Mol_Feturizer/New_Systems/rnas/2o3w

>  <Rbt.Executable>
rbdock ($Id: //depot/dev/client3/rdock/2013.1/src/exe/rbdock.cxx#4 $)

>  <Rbt.Library>
libRbt.so (2013.1, Build901 2013/11/27)

>  <Rbt.Parameter_File>
/export/apps/rDock/src/rDock_2013.1_src/data/scripts/dock_solv.prm

>  <Rbt.Receptor>
prm/pocket_docking_2.prm

>  <SCORE>
-10.4648

>  <SCORE.INTER>
-3.3525

>  <SCORE.INTER.CONST>
1

>  <SCORE.INTER.POLAR>
-1

>  <SCORE.INTER.ROT>
9

>  <SCORE.INTER.SOLV>
8.44114

>  <SCORE.INTER.VDW>
-11.3154

>  <SCORE.INTER.norm>
-0.0798215

>  <SCORE.INTRA>
-7.159

>  <SCORE.INTRA.DIHEDRAL>
-14.0873

>  <SCORE.INTRA.DIHEDRAL.0>
27.8999

>  <SCORE.INTRA.POLAR>
0

>  <SCORE.INTRA.POLAR.0>
0

>  <SCORE.INTRA.REPUL>
0

>  <SCORE.INTRA.REPUL.0>
0

>  <SCORE.INTRA.SOLV>
-2.14308

>  <SCORE.INTRA.SOLV.lig_0>
-104.479

>  <SCORE.INTRA.VDW>
0.956177

>  <SCORE.INTRA.VDW.0>
-6.17816

>  <SCORE.INTRA.norm>
-0.170452

>  <SCORE.RESTR>
0.046667

>  <SCORE.RESTR.CAVITY>
0.046667

>  <SCORE.RESTR.norm>
0.00111112

>  <SCORE.SYSTEM>
0

>  <SCORE.SYSTEM.CONST>
0

>  <SCORE.SYSTEM.DIHEDRAL>
0

>  <SCORE.SYSTEM.SOLV>
0

>  <SCORE.SYSTEM.norm>
0

>  <SCORE.heavy>
42

>  <SCORE.norm>
-0.249163

>  <RMSD>
0.911

$$$$
2o3w_lig
 OpenBabel11021811463D
libRbt.so/2013.1/901 2013/11/27
 42 45  0  0  0  0  0  0  0  0999 V2000
    7.1701    0.4919    3.5877 C   0  0  2  0  0  0  0  0  0  0  0  0
    7.6293    0.4737    4.9501 O   0  0  0  0  0  0  0  0  0  0  0  0
   11.0822    2.0825    7.0201 C   0  0  2  0  0  0  0  0  0  0  0  0
   12.4797    2.4702    7.3769 N   0  0  0  0  0  0  0  0  0  0  0  0
    8.4915    3.9733    3.4262 C   0  0  1  0  0  0  0  0  0  0  0  0
    7.0937    7.4825    1.0702 C   0  0  1  0  0  0  0  0  0  0  0  0
    5.6207    0.3312    3.6275 C   0  0  2  0  0  0  0  0  0  0  0  0
    4.9809    1.2671    4.5685 N   0  0  0  0  0  0  0  0  0  0  0  0
   10.9149    0.5101    6.9814 C   0  0  0  0  0  0  0  0  0  0  0  0
    9.1872    4.5261    2.1451 C   0  0  2  0  0  0  0  0  0  0  0  0
   10.3524    5.3441    2.4137 O   0  0  0  0  0  0  0  0  0  0  0  0
    6.6494    8.8195    1.7658 C   0  0  2  0  0  0  0  0  0  0  0  0
    5.9681    8.5435    3.0661 N   0  0  0  0  0  0  0  0  0  0  0  0
    5.1908   -1.0861    4.0485 C   0  0  1  0  0  0  0  0  0  0  0  0
    3.7668   -1.1992    4.0329 O   0  0  0  0  0  0  0  0  0  0  0  0
    9.4200    0.1647    6.6230 C   0  0  2  0  0  0  0  0  0  0  0  0
    9.2228   -1.3096    6.5920 N   0  0  0  0  0  0  0  0  0  0  0  0
    8.0215    5.2392    1.4582 C   0  0  2  0  0  0  0  0  0  0  0  0
    7.9252    6.6381    1.8760 O   0  0  0  0  0  0  0  0  0  0  0  0
    5.6909    9.6372    0.7761 C   0  0  1  0  0  0  0  0  0  0  0  0
    6.4905   10.2042   -0.2860 O   0  0  0  0  0  0  0  0  0  0  0  0
    5.8497   -2.1243    3.1120 C   0  0  2  0  0  0  0  0  0  0  0  0
    5.4528   -3.4266    3.4739 O   0  0  0  0  0  0  0  0  0  0  0  0
    9.0260    0.7818    5.2230 C   0  0  2  0  0  0  0  0  0  0  0  0
    6.7567    4.4540    1.8444 C   0  0  2  0  0  0  0  0  0  0  0  0
    7.0742    3.9510    3.1400 O   0  0  0  0  0  0  0  0  0  0  0  0
    4.5283    8.7317    0.1469 C   0  0  2  0  0  0  0  0  0  0  0  0
    3.6220    8.4020    1.1986 O   0  0  0  0  0  0  0  0  0  0  0  0
    7.4053   -1.9760    3.1994 C   0  0  2  0  0  0  0  0  0  0  0  0
    7.7912   -0.6145    2.8288 O   0  0  0  0  0  0  0  0  0  0  0  0
    9.2185    2.3132    5.1680 C   0  0  2  0  0  0  0  0  0  0  0  0
    8.9920    2.6769    3.7785 O   0  0  0  0  0  0  0  0  0  0  0  0
    6.3778    3.2959    0.8700 C   0  0  0  0  0  0  0  0  0  0  0  0
    5.2095    2.6389    1.3519 O   0  0  0  0  0  0  0  0  0  0  0  0
    5.1274    7.4201   -0.4879 C   0  0  1  0  0  0  0  0  0  0  0  0
    5.8625    6.7411    0.5933 O   0  0  0  0  0  0  0  0  0  0  0  0
    8.1338   -2.9533    2.3061 C   0  0  0  0  0  0  0  0  0  0  0  0
    9.5140   -2.9218    2.5769 O   0  0  0  0  0  0  0  0  0  0  0  0
   10.6901    2.6980    5.6173 C   0  0  1  0  0  0  0  0  0  0  0  0
   10.8214    4.1191    5.7119 O   0  0  0  0  0  0  0  0  0  0  0  0
    4.0361    6.4438   -1.1079 C   0  0  0  0  0  0  0  0  0  0  0  0
    2.9564    6.0137   -0.1775 N   0  0  0  0  0  0  0  0  0  0  0  0
  1  2  1  1  0  0  0
  1  7  1  0  0  0  0
  1 30  1  0  0  0  0
  3  4  1  6  0  0  0
  3  9  1  0  0  0  0
  3 39  1  0  0  0  0
  5 10  1  0  0  0  0
  5 26  1  0  0  0  0
  5 32  1  6  0  0  0
  6 12  1  0  0  0  0
  6 36  1  0  0  0  0
  6 19  1  1  0  0  0
  7  8  1  1  0  0  0
  7 14  1  0  0  0  0
  9 16  1  0  0  0  0
 10 11  1  1  0  0  0
 10 18  1  0  0  0  0
 12 13  1  1  0  0  0
 12 20  1  0  0  0  0
 14 15  1  6  0  0  0
 14 22  1  0  0  0  0
 16 17  1  6  0  0  0
 16 24  1  0  0  0  0
 18 19  1  1  0  0  0
 18 25  1  0  0  0  0
 20 21  1  6  0  0  0
 20 27  1  0  0  0  0
 22 23  1  1  0  0  0
 22 29  1  0  0  0  0
 24  2  1  1  0  0  0
 24 31  1  0  0  0  0
 25 26  1  0  0  0  0
 25 33  1  6  0  0  0
 27 28  1  1  0  0  0
 27 35  1  0  0  0  0
 29 30  1  0  0  0  0
 29 37  1  6  0  0  0
 31 32  1  6  0  0  0
 31 39  1  0  0  0  0
 33 34  1  0  0  0  0
 35 36  1  0  0  0  0
 35 41  1  1  0  0  0
 37 38  1  0  0  0  0
 39 40  1  1  0  0  0
 41 42  1  0  0  0  0
M  END
>  <CHROM.1>
-172.03530798,140.52275918,161.74567528,165.30488527,-157.93961535,178.98368185
-170.81366628,151.48156494,-55.83220600,7.31652052,3.11526779,3.01631513
1.24428551,0.60174229,2.89905261

>  <Name>
2o3w_lig

>  <RI>
0

>  <Rbt.Current_Directory>
/home/itssahil/PROJECTS/Mol_Feturizer/New_Systems/rnas/2o3w

>  <Rbt.Executable>
rbdock ($Id: //depot/dev/client3/rdock/2013.1/src/exe/rbdock.cxx#4 $)

>  <Rbt.Library>
libRbt.so (2013.1, Build901 2013/11/27)

>  <Rbt.Parameter_File>
/export/apps/rDock/src/rDock_2013.1_src/data/scripts/dock_solv.prm

>  <Rbt.Receptor>
prm/pocket_docking_2.prm

>  <SCORE>
-10.4855

>  <SCORE.INTER>
-3.32897

>  <SCORE.INTER.CONST>
1

>  <SCORE.INTER.POLAR>
-0.979531

>  <SCORE.INTER.ROT>
9

>  <SCORE.INTER.SOLV>
8.61538

>  <SCORE.INTER.VDW>
-11.426

>  <SCORE.INTER.norm>
-0.0792613

>  <SCORE.INTRA>
-7.168

>  <SCORE.INTRA.DIHEDRAL>
-13.8051

>  <SCORE.INTRA.DIHEDRAL.0>
27.8999

>  <SCORE.INTRA.POLAR>
0

>  <SCORE.INTRA.POLAR.0>
0

>  <SCORE.INTRA.REPUL>
0

>  <SCORE.INTRA.REPUL.0>
0

>  <SCORE.INTRA.SOLV>
-2.30145

>  <SCORE.INTRA.SOLV.lig_0>
-104.479

>  <SCORE.INTRA.VDW>
0.885273

>  <SCORE.INTRA.VDW.0>
-6.17816

>  <SCORE.INTRA.norm>
-0.170667

>  <SCORE.RESTR>
0.0114854

>  <SCORE.RESTR.CAVITY>
0.0114854

>  <SCORE.RESTR.norm>
0.000273463

>  <SCORE.SYSTEM>
0

>  <SCORE.SYSTEM.CONST>
0

>  <SCORE.SYSTEM.DIHEDRAL>
0

>  <SCORE.SYSTEM.SOLV>
0

>  <SCORE.SYSTEM.norm>
0

>  <SCORE.heavy>
42

>  <SCORE.norm>
-0.249655

>  <RMSD>
0.949

$$$$
2o3w_lig
 OpenBabel11021811463D
libRbt.so/2013.1/901 2013/11/27
 42 45  0  0  0  0  0  0  0  0999 V2000
    7.2276   -0.3618    3.5483 C   0  0  2  0  0  0  0  0  0  0  0  0
    7.5630   -0.0644    4.9144 O   0  0  0  0  0  0  0  0  0  0  0  0
   10.6797    2.0209    7.0902 C   0  0  2  0  0  0  0  0  0  0  0  0
   11.9854    2.6355    7.4746 N   0  0  0  0  0  0  0  0  0  0  0  0
    7.9747    3.7236    3.5927 C   0  0  1  0  0  0  0  0  0  0  0  0
    6.5670    7.2934    1.2235 C   0  0  1  0  0  0  0  0  0  0  0  0
    5.7306   -0.7940    3.5310 C   0  0  2  0  0  0  0  0  0  0  0  0
    4.8615    0.1548    4.2487 N   0  0  0  0  0  0  0  0  0  0  0  0
   10.8026    0.4498    6.9550 C   0  0  0  0  0  0  0  0  0  0  0  0
    8.4651    4.2352    2.2040 C   0  0  2  0  0  0  0  0  0  0  0  0
    9.6808    5.0212    2.2613 O   0  0  0  0  0  0  0  0  0  0  0  0
    6.2393    8.6929    1.8583 C   0  0  2  0  0  0  0  0  0  0  0  0
    5.4431    8.5365    3.1123 N   0  0  0  0  0  0  0  0  0  0  0  0
    5.5132   -2.1738    4.1790 C   0  0  1  0  0  0  0  0  0  0  0  0
    4.1361   -2.5464    4.1056 O   0  0  0  0  0  0  0  0  0  0  0  0
    9.3933   -0.1411    6.5712 C   0  0  2  0  0  0  0  0  0  0  0  0
    9.4689   -1.6221    6.4496 N   0  0  0  0  0  0  0  0  0  0  0  0
    7.2224    4.9731    1.7036 C   0  0  2  0  0  0  0  0  0  0  0  0
    7.2350    6.3806    2.1033 O   0  0  0  0  0  0  0  0  0  0  0  0
    5.4549    9.5890    0.7866 C   0  0  1  0  0  0  0  0  0  0  0  0
    6.3868   10.0271   -0.2275 O   0  0  0  0  0  0  0  0  0  0  0  0
    6.4181   -3.2175    3.4854 C   0  0  2  0  0  0  0  0  0  0  0  0
    6.2186   -4.4898    4.0562 O   0  0  0  0  0  0  0  0  0  0  0  0
    8.8820    0.4771    5.2103 C   0  0  2  0  0  0  0  0  0  0  0  0
    6.0172    4.2331    2.3078 C   0  0  2  0  0  0  0  0  0  0  0  0
    6.5296    3.7403    3.5436 O   0  0  0  0  0  0  0  0  0  0  0  0
    4.2380    8.8089    0.0951 C   0  0  2  0  0  0  0  0  0  0  0  0
    3.2293    8.6185    1.0864 O   0  0  0  0  0  0  0  0  0  0  0  0
    7.9122   -2.7745    3.6302 C   0  0  2  0  0  0  0  0  0  0  0  0
    8.0915   -1.4483    3.0394 O   0  0  0  0  0  0  0  0  0  0  0  0
    8.7905    2.0183    5.2495 C   0  0  2  0  0  0  0  0  0  0  0  0
    8.4903    2.4180    3.8840 O   0  0  0  0  0  0  0  0  0  0  0  0
    5.4511    3.0724    1.4323 C   0  0  0  0  0  0  0  0  0  0  0  0
    4.9662    3.6038    0.2029 O   0  0  0  0  0  0  0  0  0  0  0  0
    4.7180    7.4181   -0.4686 C   0  0  1  0  0  0  0  0  0  0  0  0
    5.2914    6.6887    0.6757 O   0  0  0  0  0  0  0  0  0  0  0  0
    8.8712   -3.7391    2.9717 C   0  0  0  0  0  0  0  0  0  0  0  0
    8.5036   -3.9483    1.6299 O   0  0  0  0  0  0  0  0  0  0  0  0
   10.1705    2.6381    5.7263 C   0  0  1  0  0  0  0  0  0  0  0  0
   10.0403    4.0508    5.9080 O   0  0  0  0  0  0  0  0  0  0  0  0
    3.5626    6.5597   -1.1444 C   0  0  0  0  0  0  0  0  0  0  0  0
    2.4055    6.2353   -0.2655 N   0  0  0  0  0  0  0  0  0  0  0  0
  1  2  1  1  0  0  0
  1  7  1  0  0  0  0
  1 30  1  0  0  0  0
  3  4  1  6  0  0  0
  3  9  1  0  0  0  0
  3 39  1  0  0  0  0
  5 10  1  0  0  0  0
  5 26  1  0  0  0  0
  5 32  1  6  0  0  0
  6 12  1  0  0  0  0
  6 36  1  0  0  0  0
  6 19  1  1  0  0  0
  7  8  1  1  0  0  0
  7 14  1  0  0  0  0
  9 16  1  0  0  0  0
 10 11  1  1  0  0  0
 10 18  1  0  0  0  0
 12 13  1  1  0  0  0
 12 20  1  0  0  0  0
 14 15  1  6  0  0  0
 14 22  1  0  0  0  0
 16 17  1  6  0  0  0
 16 24  1  0  0  0  0
 18 19  1  1  0  0  0
 18 25  1  0  0  0  0
 20 21  1  6  0  0  0
 20 27  1  0  0  0  0
 22 23  1  1  0  0  0
 22 29  1  0  0  0  0
 24  2  1  1  0  0  0
 24 31  1  0  0  0  0
 25 26  1  0  0  0  0
 25 33  1  6  0  0  0
 27 28  1  1  0  0  0
 27 35  1  0  0  0  0
 29 30  1  0  0  0  0
 29 37  1  6  0  0  0
 31 32  1  6  0  0  0
 31 39  1  0  0  0  0
 33 34  1  0  0  0  0
 35 36  1  0  0  0  0
 35 41  1  1  0  0  0
 37 38  1  0  0  0  0
 39 40  1  1  0  0  0
 41 42  1  0  0  0  0
M  END
>  <CHROM.1>
-174.89603777,147.53969705,163.32224144,150.27331456,-142.44685843,-62.79975233
53.74990212,162.72435233,-58.43124560,7.05324406,2.77607322,3.06880384,1.21352798
0.68359729,2.98565599

>  <Name>
2o3w_lig

>  <RI>
0

>  <Rbt.Current_Directory>
/home/itssahil/PROJECTS/Mol_Feturizer/New_Systems/rnas/2o3w

>  <Rbt.Executable>
rbdock ($Id: //depot/dev/client3/rdock/2013.1/src/exe/rbdock.cxx#4 $)

>  <Rbt.Library>
libRbt.so (2013.1, Build901 2013/11/27)

>  <Rbt.Parameter_File>
/export/apps/rDock/src/rDock_2013.1_src/data/scripts/dock_solv.prm

>  <Rbt.Receptor>
prm/pocket_docking_2.prm

>  <SCORE>
-6.74041

>  <SCORE.INTER>
-0.672923

>  <SCORE.INTER.CONST>
1

>  <SCORE.INTER.POLAR>
-0.84794

>  <SCORE.INTER.ROT>
9

>  <SCORE.INTER.SOLV>
8.17162

>  <SCORE.INTER.VDW>
-9.94602

>  <SCORE.INTER.norm>
-0.016022

>  <SCORE.INTRA>
-6.10571

>  <SCORE.INTRA.DIHEDRAL>
-12.2696

>  <SCORE.INTRA.DIHEDRAL.0>
27.8999

>  <SCORE.INTRA.POLAR>
0

>  <SCORE.INTRA.POLAR.0>
0

>  <SCORE.INTRA.REPUL>
0

>  <SCORE.INTRA.REPUL.0>
0

>  <SCORE.INTRA.SOLV>
-1.35823

>  <SCORE.INTRA.SOLV.lig_0>
-104.479

>  <SCORE.INTRA.VDW>
0.708198

>  <SCORE.INTRA.VDW.0>
-6.17816

>  <SCORE.INTRA.norm>
-0.145374

>  <SCORE.RESTR>
0.0382217

>  <SCORE.RESTR.CAVITY>
0.0382217

>  <SCORE.RESTR.norm>
0.000910041

>  <SCORE.SYSTEM>
0

>  <SCORE.SYSTEM.CONST>
0

>  <SCORE.SYSTEM.DIHEDRAL>
0

>  <SCORE.SYSTEM.SOLV>
0

>  <SCORE.SYSTEM.norm>
0

>  <SCORE.heavy>
42

>  <SCORE.norm>
-0.160486

>  <RMSD>
0.950

$$$$
2o3w_lig
 OpenBabel11021811463D
libRbt.so/2013.1/901 2013/11/27
 42 45  0  0  0  0  0  0  0  0999 V2000
    7.3982    0.7519    3.6293 C   0  0  2  0  0  0  0  0  0  0  0  0
    7.8577    0.7221    4.9914 O   0  0  0  0  0  0  0  0  0  0  0  0
   11.3795    2.1690    7.0649 C   0  0  2  0  0  0  0  0  0  0  0  0
   12.7924    2.4977    7.4198 N   0  0  0  0  0  0  0  0  0  0  0  0
    8.7595    4.1734    3.5138 C   0  0  1  0  0  0  0  0  0  0  0  0
    6.9185    7.5350    1.1764 C   0  0  1  0  0  0  0  0  0  0  0  0
    5.8406    0.7407    3.6741 C   0  0  2  0  0  0  0  0  0  0  0  0
    5.2958    1.7552    4.5932 N   0  0  0  0  0  0  0  0  0  0  0  0
   11.1514    0.6049    7.0065 C   0  0  0  0  0  0  0  0  0  0  0  0
    9.0216    4.5398    2.0212 C   0  0  2  0  0  0  0  0  0  0  0  0
   10.2401    5.2930    1.8045 O   0  0  0  0  0  0  0  0  0  0  0  0
    6.8767    9.0327    1.6495 C   0  0  2  0  0  0  0  0  0  0  0  0
    6.5583    9.1234    3.1060 N   0  0  0  0  0  0  0  0  0  0  0  0
    5.2789   -0.6189    4.1290 C   0  0  1  0  0  0  0  0  0  0  0  0
    3.8506   -0.5961    4.1171 O   0  0  0  0  0  0  0  0  0  0  0  0
    9.6426    0.3222    6.6511 C   0  0  2  0  0  0  0  0  0  0  0  0
    9.3885   -1.1430    6.6019 N   0  0  0  0  0  0  0  0  0  0  0  0
    7.7230    5.2629    1.6604 C   0  0  2  0  0  0  0  0  0  0  0  0
    7.8190    6.7005    1.9155 O   0  0  0  0  0  0  0  0  0  0  0  0
    5.8002    9.8338    0.7741 C   0  0  1  0  0  0  0  0  0  0  0  0
    6.3380   10.0430   -0.5510 O   0  0  0  0  0  0  0  0  0  0  0  0
    5.8331   -1.7369    3.2168 C   0  0  2  0  0  0  0  0  0  0  0  0
    5.3149   -2.9866    3.6097 O   0  0  0  0  0  0  0  0  0  0  0  0
    9.2665    0.9724    5.2613 C   0  0  2  0  0  0  0  0  0  0  0  0
    6.6241    4.6165    2.5206 C   0  0  2  0  0  0  0  0  0  0  0  0
    7.3262    4.2264    3.6985 O   0  0  0  0  0  0  0  0  0  0  0  0
    4.3943    9.0724    0.6678 C   0  0  2  0  0  0  0  0  0  0  0  0
    3.7847    9.1110    1.9575 O   0  0  0  0  0  0  0  0  0  0  0  0
    7.3960   -1.7355    3.2995 C   0  0  2  0  0  0  0  0  0  0  0  0
    7.9088   -0.4262    2.8964 O   0  0  0  0  0  0  0  0  0  0  0  0
    9.5177    2.4959    5.2254 C   0  0  2  0  0  0  0  0  0  0  0  0
    9.2992    2.8865    3.8418 O   0  0  0  0  0  0  0  0  0  0  0  0
    5.9072    3.3960    1.8644 C   0  0  0  0  0  0  0  0  0  0  0  0
    5.7220    3.6504    0.4752 O   0  0  0  0  0  0  0  0  0  0  0  0
    4.6037    7.5801    0.2082 C   0  0  1  0  0  0  0  0  0  0  0  0
    5.5130    6.9718    1.1948 O   0  0  0  0  0  0  0  0  0  0  0  0
    8.0253   -2.7986    2.4290 C   0  0  0  0  0  0  0  0  0  0  0  0
    9.4113   -2.8590    2.6629 O   0  0  0  0  0  0  0  0  0  0  0  0
   11.0051    2.8177    5.6722 C   0  0  1  0  0  0  0  0  0  0  0  0
   11.1916    4.2312    5.7848 O   0  0  0  0  0  0  0  0  0  0  0  0
    3.2584    6.7383    0.1084 C   0  0  0  0  0  0  0  0  0  0  0  0
    3.4311    5.2700   -0.0671 N   0  0  0  0  0  0  0  0  0  0  0  0
  1  2  1  1  0  0  0
  1  7  1  0  0  0  0
  1 30  1  0  0  0  0
  3  4  1  6  0  0  0
  3  9  1  0  0  0  0
  3 39  1  0  0  0  0
  5 10  1  0  0  0  0
  5 26  1  0  0  0  0
  5 32  1  6  0  0  0
  6 12  1  0  0  0  0
  6 36  1  0  0  0  0
  6 19  1  1  0  0  0
  7  8  1  1  0  0  0
  7 14  1  0  0  0  0
  9 16  1  0  0  0  0
 10 11  1  1  0  0  0
 10 18  1  0  0  0  0
 12 13  1  1  0  0  0
 12 20  1  0  0  0  0
 14 15  1  6  0  0  0
 14 22  1  0  0  0  0
 16 17  1  6  0  0  0
 16 24  1  0  0  0  0
 18 19  1  1  0  0  0
 18 25  1  0  0  0  0
 20 21  1  6  0  0  0
 20 27  1  0  0  0  0
 22 23  1  1  0  0  0
 22 29  1  0  0  0  0
 24  2  1  1  0  0  0
 24 31  1  0  0  0  0
 25 26  1  0  0  0  0
 25 33  1  6  0  0  0
 27 28  1  1  0  0  0
 27 35  1  0  0  0  0
 29 30  1  0  0  0  0
 29 37  1  6  0  0  0
 31 32  1  6  0  0  0
 31 39  1  0  0  0  0
 33 34  1  0  0  0  0
 35 36  1  0  0  0  0
 35 41  1  1  0  0  0
 37 38  1  0  0  0  0
 39 40  1  1  0  0  0
 41 42  1  0  0  0  0
M  END
>  <CHROM.1>
-168.81760208,162.35494014,170.01811116,157.00807576,-156.81828009,-38.80007951
-172.94483717,147.09616409,-168.80631652,7.38562627,3.33228388,3.15494821
1.20583038,0.56278397,2.92253086

>  <Name>
2o3w_lig

>  <RI>
0

>  <Rbt.Current_Directory>
/home/itssahil/PROJECTS/Mol_Feturizer/New_Systems/rnas/2o3w

>  <Rbt.Executable>
rbdock ($Id: //depot/dev/client3/rdock/2013.1/src/exe/rbdock.cxx#4 $)

>  <Rbt.Library>
libRbt.so (2013.1, Build901 2013/11/27)

>  <Rbt.Parameter_File>
/export/apps/rDock/src/rDock_2013.1_src/data/scripts/dock_solv.prm

>  <Rbt.Receptor>
prm/pocket_docking_2.prm

>  <SCORE>
-7.3347

>  <SCORE.INTER>
-0.392244

>  <SCORE.INTER.CONST>
1

>  <SCORE.INTER.POLAR>
-0.341062

>  <SCORE.INTER.ROT>
9

>  <SCORE.INTER.SOLV>
9.71603

>  <SCORE.INTER.VDW>
-11.9633

>  <SCORE.INTER.norm>
-0.00933913

>  <SCORE.INTRA>
-7.23584

>  <SCORE.INTRA.DIHEDRAL>
-14.4311

>  <SCORE.INTRA.DIHEDRAL.0>
27.8999

>  <SCORE.INTRA.POLAR>
0

>  <SCORE.INTRA.POLAR.0>
0

>  <SCORE.INTRA.REPUL>
0

>  <SCORE.INTRA.REPUL.0>
0

>  <SCORE.INTRA.SOLV>
-0.875519

>  <SCORE.INTRA.SOLV.lig_0>
-104.479

>  <SCORE.INTRA.VDW>
0.417473

>  <SCORE.INTRA.VDW.0>
-6.17816

>  <SCORE.INTRA.norm>
-0.172282

>  <SCORE.RESTR>
0.293377

>  <SCORE.RESTR.CAVITY>
0.293377

>  <SCORE.RESTR.norm>
0.00698517

>  <SCORE.SYSTEM>
0

>  <SCORE.SYSTEM.CONST>
0

>  <SCORE.SYSTEM.DIHEDRAL>
0

>  <SCORE.SYSTEM.SOLV>
0

>  <SCORE.SYSTEM.norm>
0

>  <SCORE.heavy>
42

>  <SCORE.norm>
-0.174636

>  <RMSD>
0.961

$$$$
2o3w_lig
 OpenBabel11021811463D
libRbt.so/2013.1/901 2013/11/27
 42 45  0  0  0  0  0  0  0  0999 V2000
    7.3565    0.5520    3.5648 C   0  0  2  0  0  0  0  0  0  0  0  0
    7.7130    0.8715    4.9206 O   0  0  0  0  0  0  0  0  0  0  0  0
   11.1246    2.4955    7.0465 C   0  0  2  0  0  0  0  0  0  0  0  0
   12.5162    2.8735    7.4351 N   0  0  0  0  0  0  0  0  0  0  0  0
    8.6895    4.3075    3.3101 C   0  0  1  0  0  0  0  0  0  0  0  0
    7.1391    7.6784    0.9294 C   0  0  1  0  0  0  0  0  0  0  0  0
    5.8014    0.4672    3.5111 C   0  0  2  0  0  0  0  0  0  0  0  0
    5.1515    1.6397    4.1221 N   0  0  0  0  0  0  0  0  0  0  0  0
   10.9328    0.9255    7.0542 C   0  0  0  0  0  0  0  0  0  0  0  0
    9.2715    4.7051    1.9195 C   0  0  2  0  0  0  0  0  0  0  0  0
   10.5056    5.4608    1.9914 O   0  0  0  0  0  0  0  0  0  0  0  0
    6.9107    9.0939    1.5721 C   0  0  2  0  0  0  0  0  0  0  0  0
    6.5515    8.9722    3.0167 N   0  0  0  0  0  0  0  0  0  0  0  0
    5.2583   -0.7740    4.2428 C   0  0  1  0  0  0  0  0  0  0  0  0
    3.8350   -0.8322    4.1343 O   0  0  0  0  0  0  0  0  0  0  0  0
    9.4445    0.5912    6.6595 C   0  0  2  0  0  0  0  0  0  0  0  0
    9.2242   -0.8801    6.6709 N   0  0  0  0  0  0  0  0  0  0  0  0
    8.0815    5.4379    1.2980 C   0  0  2  0  0  0  0  0  0  0  0  0
    8.1148    6.8696    1.5982 O   0  0  0  0  0  0  0  0  0  0  0  0
    5.7672    9.8660    0.7578 C   0  0  1  0  0  0  0  0  0  0  0  0
    6.3060   10.2928   -0.5136 O   0  0  0  0  0  0  0  0  0  0  0  0
    5.9209   -2.0448    3.6639 C   0  0  2  0  0  0  0  0  0  0  0  0
    5.4217   -3.1916    4.3120 O   0  0  0  0  0  0  0  0  0  0  0  0
    9.1053    1.1670    5.2280 C   0  0  2  0  0  0  0  0  0  0  0  0
    6.8226    4.7752    1.8823 C   0  0  2  0  0  0  0  0  0  0  0  0
    7.2505    4.3589    3.1770 O   0  0  0  0  0  0  0  0  0  0  0  0
    4.4634    8.9673    0.5128 C   0  0  2  0  0  0  0  0  0  0  0  0
    3.8249    8.7810    1.7754 O   0  0  0  0  0  0  0  0  0  0  0  0
    7.4721   -1.9390    3.8438 C   0  0  2  0  0  0  0  0  0  0  0  0
    7.9644   -0.7369    3.1712 O   0  0  0  0  0  0  0  0  0  0  0  0
    9.3244    2.6926    5.1288 C   0  0  2  0  0  0  0  0  0  0  0  0
    9.1481    3.0130    3.7214 O   0  0  0  0  0  0  0  0  0  0  0  0
    6.2709    3.5701    1.0591 C   0  0  0  0  0  0  0  0  0  0  0  0
    5.0713    3.0971    1.6640 O   0  0  0  0  0  0  0  0  0  0  0  0
    4.8572    7.5747   -0.1099 C   0  0  1  0  0  0  0  0  0  0  0  0
    5.8095    6.9603    0.8313 O   0  0  0  0  0  0  0  0  0  0  0  0
    8.2043   -3.1425    3.2969 C   0  0  0  0  0  0  0  0  0  0  0  0
    8.0367   -3.2196    1.9022 O   0  0  0  0  0  0  0  0  0  0  0  0
   10.7872    3.0696    5.6122 C   0  0  1  0  0  0  0  0  0  0  0  0
   10.9387    4.4909    5.6641 O   0  0  0  0  0  0  0  0  0  0  0  0
    3.6228    6.6028   -0.3556 C   0  0  0  0  0  0  0  0  0  0  0  0
    2.4846    7.1897   -1.1150 N   0  0  0  0  0  0  0  0  0  0  0  0
  1  2  1  1  0  0  0
  1  7  1  0  0  0  0
  1 30  1  0  0  0  0
  3  4  1  6  0  0  0
  3  9  1  0  0  0  0
  3 39  1  0  0  0  0
  5 10  1  0  0  0  0
  5 26  1  0  0  0  0
  5 32  1  6  0  0  0
  6 12  1  0  0  0  0
  6 36  1  0  0  0  0
  6 19  1  1  0  0  0
  7  8  1  1  0  0  0
  7 14  1  0  0  0  0
  9 16  1  0  0  0  0
 10 11  1  1  0  0  0
 10 18  1  0  0  0  0
 12 13  1  1  0  0  0
 12 20  1  0  0  0  0
 14 15  1  6  0  0  0
 14 22  1  0  0  0  0
 16 17  1  6  0  0  0
 16 24  1  0  0  0  0
 18 19  1  1  0  0  0
 18 25  1  0  0  0  0
 20 21  1  6  0  0  0
 20 27  1  0  0  0  0
 22 23  1  1  0  0  0
 22 29  1  0  0  0  0
 24  2  1  1  0  0  0
 24 31  1  0  0  0  0
 25 26  1  0  0  0  0
 25 33  1  6  0  0  0
 27 28  1  1  0  0  0
 27 35  1  0  0  0  0
 29 30  1  0  0  0  0
 29 37  1  6  0  0  0
 31 32  1  6  0  0  0
 31 39  1  0  0  0  0
 33 34  1  0  0  0  0
 35 36  1  0  0  0  0
 35 41  1  1  0  0  0
 37 38  1  0  0  0  0
 39 40  1  1  0  0  0
 41 42  1  0  0  0  0
M  END
>  <CHROM.1>
-172.90554190,149.25568143,162.55112346,172.59309506,-144.02120610,-176.86517100
64.83884942,151.93467564,51.43971621,7.32882198,3.38492537,3.07817022,1.26980538
0.57650127,2.87723793

>  <Name>
2o3w_lig

>  <RI>
0

>  <Rbt.Current_Directory>
/home/itssahil/PROJECTS/Mol_Feturizer/New_Systems/rnas/2o3w

>  <Rbt.Executable>
rbdock ($Id: //depot/dev/client3/rdock/2013.1/src/exe/rbdock.cxx#4 $)

>  <Rbt.Library>
libRbt.so (2013.1, Build901 2013/11/27)

>  <Rbt.Parameter_File>
/export/apps/rDock/src/rDock_2013.1_src/data/scripts/dock_solv.prm

>  <Rbt.Receptor>
prm/pocket_docking_2.prm

>  <SCORE>
-8.23138

>  <SCORE.INTER>
-2.1865

>  <SCORE.INTER.CONST>
1

>  <SCORE.INTER.POLAR>
-0.7083

>  <SCORE.INTER.ROT>
9

>  <SCORE.INTER.SOLV>
9.08576

>  <SCORE.INTER.VDW>
-11.7253

>  <SCORE.INTER.norm>
-0.0520595

>  <SCORE.INTRA>
-6.11397

>  <SCORE.INTRA.DIHEDRAL>
-13.8487

>  <SCORE.INTRA.DIHEDRAL.0>
27.8999

>  <SCORE.INTRA.POLAR>
0

>  <SCORE.INTRA.POLAR.0>
0

>  <SCORE.INTRA.REPUL>
0

>  <SCORE.INTRA.REPUL.0>
0

>  <SCORE.INTRA.SOLV>
-1.33253

>  <SCORE.INTRA.SOLV.lig_0>
-104.479

>  <SCORE.INTRA.VDW>
1.47665

>  <SCORE.INTRA.VDW.0>
-6.17816

>  <SCORE.INTRA.norm>
-0.145571

>  <SCORE.RESTR>
0.0690812

>  <SCORE.RESTR.CAVITY>
0.0690812

>  <SCORE.RESTR.norm>
0.00164479

>  <SCORE.SYSTEM>
0

>  <SCORE.SYSTEM.CONST>
0

>  <SCORE.SYSTEM.DIHEDRAL>
0

>  <SCORE.SYSTEM.SOLV>
0

>  <SCORE.SYSTEM.norm>
0

>  <SCORE.heavy>
42

>  <SCORE.norm>
-0.195985

>  <RMSD>
0.980

$$$$
2o3w_lig
 OpenBabel11021811463D
libRbt.so/2013.1/901 2013/11/27
 42 45  0  0  0  0  0  0  0  0999 V2000
    7.7595    0.7076    3.7869 C   0  0  2  0  0  0  0  0  0  0  0  0
    8.1173    0.9495    5.1583 O   0  0  0  0  0  0  0  0  0  0  0  0
   11.5136    2.4962    7.3648 C   0  0  2  0  0  0  0  0  0  0  0  0
   12.9012    2.8708    7.7705 N   0  0  0  0  0  0  0  0  0  0  0  0
    8.8341    4.3927    3.7477 C   0  0  1  0  0  0  0  0  0  0  0  0
    6.9053    7.6296    1.2716 C   0  0  1  0  0  0  0  0  0  0  0  0
    6.2058    0.6015    3.7338 C   0  0  2  0  0  0  0  0  0  0  0  0
    5.5404    1.7241    4.4176 N   0  0  0  0  0  0  0  0  0  0  0  0
   11.3442    0.9257    7.2819 C   0  0  0  0  0  0  0  0  0  0  0  0
    9.2087    4.8850    2.3166 C   0  0  2  0  0  0  0  0  0  0  0  0
   10.3188    5.8154    2.2853 O   0  0  0  0  0  0  0  0  0  0  0  0
    6.4379    9.0141    1.8491 C   0  0  2  0  0  0  0  0  0  0  0  0
    5.7246    8.8363    3.1493 N   0  0  0  0  0  0  0  0  0  0  0  0
    5.6856   -0.6905    4.3905 C   0  0  1  0  0  0  0  0  0  0  0  0
    4.2629   -0.7646    4.2839 O   0  0  0  0  0  0  0  0  0  0  0  0
    9.8593    0.5936    6.8728 C   0  0  2  0  0  0  0  0  0  0  0  0
    9.6598   -0.8790    6.7994 N   0  0  0  0  0  0  0  0  0  0  0  0
    7.8674    5.4379    1.8322 C   0  0  2  0  0  0  0  0  0  0  0  0
    7.7193    6.8557    2.1615 O   0  0  0  0  0  0  0  0  0  0  0  0
    5.5018    9.7463    0.7747 C   0  0  1  0  0  0  0  0  0  0  0  0
    6.3261   10.2336   -0.3080 O   0  0  0  0  0  0  0  0  0  0  0  0
    6.3653   -1.9130    3.7328 C   0  0  2  0  0  0  0  0  0  0  0  0
    5.8872   -3.1050    4.3115 O   0  0  0  0  0  0  0  0  0  0  0  0
    9.5064    1.2466    5.4782 C   0  0  2  0  0  0  0  0  0  0  0  0
    6.7850    4.5898    2.5210 C   0  0  2  0  0  0  0  0  0  0  0  0
    7.3972    4.2304    3.7573 O   0  0  0  0  0  0  0  0  0  0  0  0
    4.3594    8.7875    0.1889 C   0  0  2  0  0  0  0  0  0  0  0  0
    3.4277    8.5353    1.2400 O   0  0  0  0  0  0  0  0  0  0  0  0
    7.9154   -1.7936    3.9131 C   0  0  2  0  0  0  0  0  0  0  0  0
    8.3858   -0.5451    3.3132 O   0  0  0  0  0  0  0  0  0  0  0  0
    9.7036    2.7783    5.4671 C   0  0  2  0  0  0  0  0  0  0  0  0
    9.5173    3.1774    4.0813 O   0  0  0  0  0  0  0  0  0  0  0  0
    6.3371    3.3233    1.7274 C   0  0  0  0  0  0  0  0  0  0  0  0
    5.8933    3.7130    0.4312 O   0  0  0  0  0  0  0  0  0  0  0  0
    4.9799    7.4340   -0.3261 C   0  0  1  0  0  0  0  0  0  0  0  0
    5.6898    6.8459    0.8231 O   0  0  0  0  0  0  0  0  0  0  0  0
    8.6639   -2.9498    3.2911 C   0  0  0  0  0  0  0  0  0  0  0  0
    8.3700   -3.0352    1.9180 O   0  0  0  0  0  0  0  0  0  0  0  0
   11.1627    3.1477    5.9673 C   0  0  1  0  0  0  0  0  0  0  0  0
   11.2943    4.5655    6.1012 O   0  0  0  0  0  0  0  0  0  0  0  0
    3.9089    6.4057   -0.8953 C   0  0  0  0  0  0  0  0  0  0  0  0
    2.8534    5.9804    0.0647 N   0  0  0  0  0  0  0  0  0  0  0  0
  1  2  1  1  0  0  0
  1  7  1  0  0  0  0
  1 30  1  0  0  0  0
  3  4  1  6  0  0  0
  3  9  1  0  0  0  0
  3 39  1  0  0  0  0
  5 10  1  0  0  0  0
  5 26  1  0  0  0  0
  5 32  1  6  0  0  0
  6 12  1  0  0  0  0
  6 36  1  0  0  0  0
  6 19  1  1  0  0  0
  7  8  1  1  0  0  0
  7 14  1  0  0  0  0
  9 16  1  0  0  0  0
 10 11  1  1  0  0  0
 10 18  1  0  0  0  0
 12 13  1  1  0  0  0
 12 20  1  0  0  0  0
 14 15  1  6  0  0  0
 14 22  1  0  0  0  0
 16 17  1  6  0  0  0
 16 24  1  0  0  0  0
 18 19  1  1  0  0  0
 18 25  1  0  0  0  0
 20 21  1  6  0  0  0
 20 27  1  0  0  0  0
 22 23  1  1  0  0  0
 22 29  1  0  0  0  0
 24  2  1  1  0  0  0
 24 31  1  0  0  0  0
 25 26  1  0  0  0  0
 25 33  1  6  0  0  0
 27 28  1  1  0  0  0
 27 35  1  0  0  0  0
 29 30  1  0  0  0  0
 29 37  1  6  0  0  0
 31 32  1  6  0  0  0
 31 39  1  0  0  0  0
 33 34  1  0  0  0  0
 35 36  1  0  0  0  0
 35 41  1  1  0  0  0
 37 38  1  0  0  0  0
 39 40  1  1  0  0  0
 41 42  1  0  0  0  0
M  END
>  <CHROM.1>
-172.96253605,158.48255133,163.67101561,150.70462824,-144.17873767,-56.00908944
58.19747281,141.40624518,-59.33071932,7.51104415,3.39195831,3.26122292,1.15117307
0.62892111,2.92467472

>  <Name>
2o3w_lig

>  <RI>
0

>  <Rbt.Current_Directory>
/home/itssahil/PROJECTS/Mol_Feturizer/New_Systems/rnas/2o3w

>  <Rbt.Executable>
rbdock ($Id: //depot/dev/client3/rdock/2013.1/src/exe/rbdock.cxx#4 $)

>  <Rbt.Library>
libRbt.so (2013.1, Build901 2013/11/27)

>  <Rbt.Parameter_File>
/export/apps/rDock/src/rDock_2013.1_src/data/scripts/dock_solv.prm

>  <Rbt.Receptor>
prm/pocket_docking_2.prm

>  <SCORE>
-8.4064

>  <SCORE.INTER>
-3.07639

>  <SCORE.INTER.CONST>
1

>  <SCORE.INTER.POLAR>
-1

>  <SCORE.INTER.ROT>
9

>  <SCORE.INTER.SOLV>
9.24807

>  <SCORE.INTER.VDW>
-11.4003

>  <SCORE.INTER.norm>
-0.0732473

>  <SCORE.INTRA>
-5.34622

>  <SCORE.INTRA.DIHEDRAL>
-10.9208

>  <SCORE.INTRA.DIHEDRAL.0>
27.8999

>  <SCORE.INTRA.POLAR>
0

>  <SCORE.INTRA.POLAR.0>
0

>  <SCORE.INTRA.REPUL>
0

>  <SCORE.INTRA.REPUL.0>
0

>  <SCORE.INTRA.SOLV>
0.226202

>  <SCORE.INTRA.SOLV.lig_0>
-104.479

>  <SCORE.INTRA.VDW>
0.00110098

>  <SCORE.INTRA.VDW.0>
-6.17816

>  <SCORE.INTRA.norm>
-0.127291

>  <SCORE.RESTR>
0.0162077

>  <SCORE.RESTR.CAVITY>
0.0162077

>  <SCORE.RESTR.norm>
0.000385898

>  <SCORE.SYSTEM>
0

>  <SCORE.SYSTEM.CONST>
0

>  <SCORE.SYSTEM.DIHEDRAL>
0

>  <SCORE.SYSTEM.SOLV>
0

>  <SCORE.SYSTEM.norm>
0

>  <SCORE.heavy>
42

>  <SCORE.norm>
-0.200152

>  <RMSD>
1.007

$$$$
2o3w_lig
 OpenBabel11021811463D
libRbt.so/2013.1/901 2013/11/27
 42 45  0  0  0  0  0  0  0  0999 V2000
    7.8716    0.7081    3.8188 C   0  0  2  0  0  0  0  0  0  0  0  0
    8.2295    0.9409    5.1918 O   0  0  0  0  0  0  0  0  0  0  0  0
   11.5911    2.5676    7.3940 C   0  0  2  0  0  0  0  0  0  0  0  0
   12.9697    2.9761    7.7975 N   0  0  0  0  0  0  0  0  0  0  0  0
    8.8690    4.4115    3.7875 C   0  0  1  0  0  0  0  0  0  0  0  0
    6.9487    7.6536    1.3056 C   0  0  1  0  0  0  0  0  0  0  0  0
    6.3220    0.5501    3.7730 C   0  0  2  0  0  0  0  0  0  0  0  0
    5.6233    1.6388    4.4780 N   0  0  0  0  0  0  0  0  0  0  0  0
   11.4608    0.9936    7.3081 C   0  0  0  0  0  0  0  0  0  0  0  0
    9.2622    4.9340    2.3722 C   0  0  2  0  0  0  0  0  0  0  0  0
   10.3529    5.8876    2.3780 O   0  0  0  0  0  0  0  0  0  0  0  0
    6.4872    9.0475    1.8650 C   0  0  2  0  0  0  0  0  0  0  0  0
    5.7461    8.8870    3.1518 N   0  0  0  0  0  0  0  0  0  0  0  0
    5.8500   -0.7687    4.4125 C   0  0  1  0  0  0  0  0  0  0  0  0
    4.4300   -0.8895    4.3128 O   0  0  0  0  0  0  0  0  0  0  0  0
    9.9838    0.6252    6.9016 C   0  0  2  0  0  0  0  0  0  0  0  0
    9.8212   -0.8517    6.8254 N   0  0  0  0  0  0  0  0  0  0  0  0
    7.9197    5.4664    1.8686 C   0  0  2  0  0  0  0  0  0  0  0  0
    7.7351    6.8755    2.2164 O   0  0  0  0  0  0  0  0  0  0  0  0
    5.5819    9.7842    0.7675 C   0  0  1  0  0  0  0  0  0  0  0  0
    6.4334   10.2541   -0.3016 O   0  0  0  0  0  0  0  0  0  0  0  0
    6.5666   -1.9572    3.7319 C   0  0  2  0  0  0  0  0  0  0  0  0
    6.1328   -3.1735    4.2948 O   0  0  0  0  0  0  0  0  0  0  0  0
    9.6115    1.2721    5.5092 C   0  0  2  0  0  0  0  0  0  0  0  0
    6.8416    4.5853    2.5218 C   0  0  2  0  0  0  0  0  0  0  0  0
    7.4359    4.2193    3.7649 O   0  0  0  0  0  0  0  0  0  0  0  0
    4.4394    8.8357    0.1652 C   0  0  2  0  0  0  0  0  0  0  0  0
    3.4840    8.6020    1.1990 O   0  0  0  0  0  0  0  0  0  0  0  0
    8.1129   -1.7880    3.9052 C   0  0  2  0  0  0  0  0  0  0  0  0
    8.5369   -0.5152    3.3221 O   0  0  0  0  0  0  0  0  0  0  0  0
    9.7701    2.8083    5.5011 C   0  0  2  0  0  0  0  0  0  0  0  0
    9.5707    3.2056    4.1165 O   0  0  0  0  0  0  0  0  0  0  0  0
    6.4368    3.3225    1.6998 C   0  0  0  0  0  0  0  0  0  0  0  0
    5.8614    3.7311    0.4625 O   0  0  0  0  0  0  0  0  0  0  0  0
    5.0531    7.4713   -0.3288 C   0  0  1  0  0  0  0  0  0  0  0  0
    5.7326    6.8820    0.8379 O   0  0  0  0  0  0  0  0  0  0  0  0
    8.8962   -2.9084    3.2610 C   0  0  0  0  0  0  0  0  0  0  0  0
    8.5563   -3.0177    1.9002 O   0  0  0  0  0  0  0  0  0  0  0  0
   11.2207    3.2131    5.9988 C   0  0  1  0  0  0  0  0  0  0  0  0
   11.3169    4.6335    6.1355 O   0  0  0  0  0  0  0  0  0  0  0  0
    3.9807    6.4526   -0.9128 C   0  0  0  0  0  0  0  0  0  0  0  0
    2.9478    5.9845    0.0518 N   0  0  0  0  0  0  0  0  0  0  0  0
  1  2  1  1  0  0  0
  1  7  1  0  0  0  0
  1 30  1  0  0  0  0
  3  4  1  6  0  0  0
  3  9  1  0  0  0  0
  3 39  1  0  0  0  0
  5 10  1  0  0  0  0
  5 26  1  0  0  0  0
  5 32  1  6  0  0  0
  6 12  1  0  0  0  0
  6 36  1  0  0  0  0
  6 19  1  1  0  0  0
  7  8  1  1  0  0  0
  7 14  1  0  0  0  0
  9 16  1  0  0  0  0
 10 11  1  1  0  0  0
 10 18  1  0  0  0  0
 12 13  1  1  0  0  0
 12 20  1  0  0  0  0
 14 15  1  6  0  0  0
 14 22  1  0  0  0  0
 16 17  1  6  0  0  0
 16 24  1  0  0  0  0
 18 19  1  1  0  0  0
 18 25  1  0  0  0  0
 20 21  1  6  0  0  0
 20 27  1  0  0  0  0
 22 23  1  1  0  0  0
 22 29  1  0  0  0  0
 24  2  1  1  0  0  0
 24 31  1  0  0  0  0
 25 26  1  0  0  0  0
 25 33  1  6  0  0  0
 27 28  1  1  0  0  0
 27 35  1  0  0  0  0
 29 30  1  0  0  0  0
 29 37  1  6  0  0  0
 31 32  1  6  0  0  0
 31 39  1  0  0  0  0
 33 34  1  0  0  0  0
 35 36  1  0  0  0  0
 35 41  1  1  0  0  0
 37 38  1  0  0  0  0
 39 40  1  1  0  0  0
 41 42  1  0  0  0  0
M  END
>  <CHROM.1>
-173.33139327,156.71336090,166.20256631,149.32579014,-144.88326108,-62.93547033
55.81667055,142.08698417,-62.78957357,7.60353236,3.40954954,3.27824107,1.14154425
0.64139805,2.93762987

>  <Name>
2o3w_lig

>  <RI>
0

>  <Rbt.Current_Directory>
/home/itssahil/PROJECTS/Mol_Feturizer/New_Systems/rnas/2o3w

>  <Rbt.Executable>
rbdock ($Id: //depot/dev/client3/rdock/2013.1/src/exe/rbdock.cxx#4 $)

>  <Rbt.Library>
libRbt.so (2013.1, Build901 2013/11/27)

>  <Rbt.Parameter_File>
/export/apps/rDock/src/rDock_2013.1_src/data/scripts/dock_solv.prm

>  <Rbt.Receptor>
prm/pocket_docking_2.prm

>  <SCORE>
-8.37523

>  <SCORE.INTER>
-2.85181

>  <SCORE.INTER.CONST>
1

>  <SCORE.INTER.POLAR>
-0.998047

>  <SCORE.INTER.ROT>
9

>  <SCORE.INTER.SOLV>
9.53355

>  <SCORE.INTER.VDW>
-11.3522

>  <SCORE.INTER.norm>
-0.0679003

>  <SCORE.INTRA>
-5.52358

>  <SCORE.INTRA.DIHEDRAL>
-10.8974

>  <SCORE.INTRA.DIHEDRAL.0>
27.8999

>  <SCORE.INTRA.POLAR>
0

>  <SCORE.INTRA.POLAR.0>
0

>  <SCORE.INTRA.REPUL>
0

>  <SCORE.INTRA.REPUL.0>
0

>  <SCORE.INTRA.SOLV>
-0.00655694

>  <SCORE.INTRA.SOLV.lig_0>
-104.479

>  <SCORE.INTRA.VDW>
-0.0716203

>  <SCORE.INTRA.VDW.0>
-6.17816

>  <SCORE.INTRA.norm>
-0.131514

>  <SCORE.RESTR>
0.000158614

>  <SCORE.RESTR.CAVITY>
0.000158614

>  <SCORE.RESTR.norm>
3.77652e-06

>  <SCORE.SYSTEM>
0

>  <SCORE.SYSTEM.CONST>
0

>  <SCORE.SYSTEM.DIHEDRAL>
0

>  <SCORE.SYSTEM.SOLV>
0

>  <SCORE.SYSTEM.norm>
0

>  <SCORE.heavy>
42

>  <SCORE.norm>
-0.19941

>  <RMSD>
1.010

$$$$
2o3w_lig
 OpenBabel11021811463D
libRbt.so/2013.1/901 2013/11/27
 42 45  0  0  0  0  0  0  0  0999 V2000
    6.9335    0.0852    3.5496 C   0  0  2  0  0  0  0  0  0  0  0  0
    7.3871    0.0625    4.9138 O   0  0  0  0  0  0  0  0  0  0  0  0
   10.3937    2.2707    7.1229 C   0  0  2  0  0  0  0  0  0  0  0  0
   11.6731    2.9267    7.5267 N   0  0  0  0  0  0  0  0  0  0  0  0
    7.8265    3.8663    3.5170 C   0  0  1  0  0  0  0  0  0  0  0  0
    6.8370    7.5507    1.2524 C   0  0  1  0  0  0  0  0  0  0  0  0
    5.4577   -0.4150    3.5523 C   0  0  2  0  0  0  0  0  0  0  0  0
    4.6284    0.2809    4.5516 N   0  0  0  0  0  0  0  0  0  0  0  0
   10.5604    0.7010    7.0222 C   0  0  0  0  0  0  0  0  0  0  0  0
    8.7794    4.5474    2.4880 C   0  0  2  0  0  0  0  0  0  0  0  0
    9.8236    5.3492    3.0928 O   0  0  0  0  0  0  0  0  0  0  0  0
    6.4581    8.9340    1.8942 C   0  0  2  0  0  0  0  0  0  0  0  0
    5.6737    8.7421    3.1507 N   0  0  0  0  0  0  0  0  0  0  0  0
    5.3516   -1.9206    3.8572 C   0  0  1  0  0  0  0  0  0  0  0  0
    3.9876   -2.3427    3.8103 O   0  0  0  0  0  0  0  0  0  0  0  0
    9.1768    0.0660    6.6160 C   0  0  2  0  0  0  0  0  0  0  0  0
    9.2935   -1.4145    6.5260 N   0  0  0  0  0  0  0  0  0  0  0  0
    7.7797    5.3097    1.6168 C   0  0  2  0  0  0  0  0  0  0  0  0
    7.5433    6.6609    2.1259 O   0  0  0  0  0  0  0  0  0  0  0  0
    5.6354    9.8033    0.8292 C   0  0  1  0  0  0  0  0  0  0  0  0
    6.5455   10.2810   -0.1868 O   0  0  0  0  0  0  0  0  0  0  0  0
    6.2222   -2.7122    2.8549 C   0  0  2  0  0  0  0  0  0  0  0  0
    6.1227   -4.0940    3.1101 O   0  0  0  0  0  0  0  0  0  0  0  0
    8.6838    0.6440    5.2308 C   0  0  2  0  0  0  0  0  0  0  0  0
    6.4869    4.4766    1.6260 C   0  0  2  0  0  0  0  0  0  0  0  0
    6.5145    3.8553    2.9089 O   0  0  0  0  0  0  0  0  0  0  0  0
    4.4466    8.9795    0.1394 C   0  0  2  0  0  0  0  0  0  0  0  0
    3.4501    8.7465    1.1340 O   0  0  0  0  0  0  0  0  0  0  0  0
    7.7068   -2.2325    2.9782 C   0  0  2  0  0  0  0  0  0  0  0  0
    7.7824   -0.7949    2.7186 O   0  0  0  0  0  0  0  0  0  0  0  0
    8.5518    2.1828    5.2370 C   0  0  2  0  0  0  0  0  0  0  0  0
    8.2755    2.5480    3.8568 O   0  0  0  0  0  0  0  0  0  0  0  0
    6.3812    3.4130    0.4894 C   0  0  0  0  0  0  0  0  0  0  0  0
    5.1277    2.7437    0.5866 O   0  0  0  0  0  0  0  0  0  0  0  0
    4.9775    7.6106   -0.4318 C   0  0  1  0  0  0  0  0  0  0  0  0
    5.5834    6.8993    0.7073 O   0  0  0  0  0  0  0  0  0  0  0  0
    8.6318   -2.9529    2.0247 C   0  0  0  0  0  0  0  0  0  0  0  0
    8.7134   -4.3156    2.3650 O   0  0  0  0  0  0  0  0  0  0  0  0
    9.9029    2.8478    5.7348 C   0  0  1  0  0  0  0  0  0  0  0  0
    9.7319    4.2598    5.8849 O   0  0  0  0  0  0  0  0  0  0  0  0
    3.8533    6.7108   -1.1065 C   0  0  0  0  0  0  0  0  0  0  0  0
    2.6875    6.3829   -0.2404 N   0  0  0  0  0  0  0  0  0  0  0  0
  1  2  1  1  0  0  0
  1  7  1  0  0  0  0
  1 30  1  0  0  0  0
  3  4  1  6  0  0  0
  3  9  1  0  0  0  0
  3 39  1  0  0  0  0
  5 10  1  0  0  0  0
  5 26  1  0  0  0  0
  5 32  1  6  0  0  0
  6 12  1  0  0  0  0
  6 36  1  0  0  0  0
  6 19  1  1  0  0  0
  7  8  1  1  0  0  0
  7 14  1  0  0  0  0
  9 16  1  0  0  0  0
 10 11  1  1  0  0  0
 10 18  1  0  0  0  0
 12 13  1  1  0  0  0
 12 20  1  0  0  0  0
 14 15  1  6  0  0  0
 14 22  1  0  0  0  0
 16 17  1  6  0  0  0
 16 24  1  0  0  0  0
 18 19  1  1  0  0  0
 18 25  1  0  0  0  0
 20 21  1  6  0  0  0
 20 27  1  0  0  0  0
 22 23  1  1  0  0  0
 22 29  1  0  0  0  0
 24  2  1  1  0  0  0
 24 31  1  0  0  0  0
 25 26  1  0  0  0  0
 25 33  1  6  0  0  0
 27 28  1  1  0  0  0
 27 35  1  0  0  0  0
 29 30  1  0  0  0  0
 29 37  1  6  0  0  0
 31 32  1  6  0  0  0
 31 39  1  0  0  0  0
 33 34  1  0  0  0  0
 35 36  1  0  0  0  0
 35 41  1  1  0  0  0
 37 38  1  0  0  0  0
 39 40  1  1  0  0  0
 41 42  1  0  0  0  0
M  END
>  <CHROM.1>
-172.24353565,122.72596511,173.30909927,168.07809947,-160.23461325,-178.23832197
-65.78090336,167.32656848,-56.14073100,7.07164148,2.99736432,2.99384072,1.26294697
0.73932707,2.99259169

>  <Name>
2o3w_lig

>  <RI>
0

>  <Rbt.Current_Directory>
/home/itssahil/PROJECTS/Mol_Feturizer/New_Systems/rnas/2o3w

>  <Rbt.Executable>
rbdock ($Id: //depot/dev/client3/rdock/2013.1/src/exe/rbdock.cxx#4 $)

>  <Rbt.Library>
libRbt.so (2013.1, Build901 2013/11/27)

>  <Rbt.Parameter_File>
/export/apps/rDock/src/rDock_2013.1_src/data/scripts/dock_solv.prm

>  <Rbt.Receptor>
prm/pocket_docking_2.prm

>  <SCORE>
-10.8037

>  <SCORE.INTER>
-2.29031

>  <SCORE.INTER.CONST>
1

>  <SCORE.INTER.POLAR>
-1

>  <SCORE.INTER.ROT>
9

>  <SCORE.INTER.SOLV>
10.2902

>  <SCORE.INTER.VDW>
-11.2236

>  <SCORE.INTER.norm>
-0.0545311

>  <SCORE.INTRA>
-8.51646

>  <SCORE.INTRA.DIHEDRAL>
-16.7193

>  <SCORE.INTRA.DIHEDRAL.0>
27.8999

>  <SCORE.INTRA.POLAR>
0

>  <SCORE.INTRA.POLAR.0>
0

>  <SCORE.INTRA.REPUL>
0

>  <SCORE.INTRA.REPUL.0>
0

>  <SCORE.INTRA.SOLV>
-3.68804

>  <SCORE.INTRA.SOLV.lig_0>
-104.479

>  <SCORE.INTRA.VDW>
1.68723

>  <SCORE.INTRA.VDW.0>
-6.17816

>  <SCORE.INTRA.norm>
-0.202773

>  <SCORE.RESTR>
0.00310427

>  <SCORE.RESTR.CAVITY>
0.00310427

>  <SCORE.RESTR.norm>
7.39113e-05

>  <SCORE.SYSTEM>
0

>  <SCORE.SYSTEM.CONST>
0

>  <SCORE.SYSTEM.DIHEDRAL>
0

>  <SCORE.SYSTEM.SOLV>
0

>  <SCORE.SYSTEM.norm>
0

>  <SCORE.heavy>
42

>  <SCORE.norm>
-0.25723

>  <RMSD>
1.020

$$$$
2o3w_lig
 OpenBabel11021811463D
libRbt.so/2013.1/901 2013/11/27
 42 45  0  0  0  0  0  0  0  0999 V2000
    7.0238    0.0726    3.5296 C   0  0  2  0  0  0  0  0  0  0  0  0
    7.2807    0.4374    4.8965 O   0  0  0  0  0  0  0  0  0  0  0  0
   10.3789    2.4162    7.1947 C   0  0  2  0  0  0  0  0  0  0  0  0
   11.6936    2.9667    7.6407 N   0  0  0  0  0  0  0  0  0  0  0  0
    7.9785    4.1322    3.4755 C   0  0  1  0  0  0  0  0  0  0  0  0
    6.7899    7.6893    1.0711 C   0  0  1  0  0  0  0  0  0  0  0  0
    5.5132   -0.2974    3.4336 C   0  0  2  0  0  0  0  0  0  0  0  0
    4.6423    0.7281    4.0342 N   0  0  0  0  0  0  0  0  0  0  0  0
   10.4130    0.8365    7.1219 C   0  0  0  0  0  0  0  0  0  0  0  0
    8.7316    4.6581    2.2157 C   0  0  2  0  0  0  0  0  0  0  0  0
    9.9170    5.4340    2.5189 O   0  0  0  0  0  0  0  0  0  0  0  0
    6.4343    9.0739    1.7233 C   0  0  2  0  0  0  0  0  0  0  0  0
    5.7261    8.8844    3.0247 N   0  0  0  0  0  0  0  0  0  0  0  0
    5.1906   -1.6255    4.1428 C   0  0  1  0  0  0  0  0  0  0  0  0
    3.8059   -1.9444    3.9957 O   0  0  0  0  0  0  0  0  0  0  0  0
    8.9965    0.3159    6.6691 C   0  0  2  0  0  0  0  0  0  0  0  0
    8.9882   -1.1705    6.6038 N   0  0  0  0  0  0  0  0  0  0  0  0
    7.6133    5.4119    1.4942 C   0  0  2  0  0  0  0  0  0  0  0  0
    7.5551    6.8139    1.9088 O   0  0  0  0  0  0  0  0  0  0  0  0
    5.5419    9.9261    0.7014 C   0  0  1  0  0  0  0  0  0  0  0  0
    6.3865   10.4047   -0.3694 O   0  0  0  0  0  0  0  0  0  0  0  0
    6.0912   -2.7456    3.5741 C   0  0  2  0  0  0  0  0  0  0  0  0
    5.7965   -3.9720    4.2014 O   0  0  0  0  0  0  0  0  0  0  0  0
    8.6096    0.9106    5.2576 C   0  0  2  0  0  0  0  0  0  0  0  0
    6.3100    4.6732    1.8426 C   0  0  2  0  0  0  0  0  0  0  0  0
    6.5704    4.1606    3.1472 O   0  0  0  0  0  0  0  0  0  0  0  0
    4.3240    9.0847    0.0880 C   0  0  2  0  0  0  0  0  0  0  0  0
    3.3894    8.8498    1.1405 O   0  0  0  0  0  0  0  0  0  0  0  0
    7.5910   -2.3571    3.7963 C   0  0  2  0  0  0  0  0  0  0  0  0
    7.8694   -1.0774    3.1446 O   0  0  0  0  0  0  0  0  0  0  0  0
    8.6110    2.4549    5.2376 C   0  0  2  0  0  0  0  0  0  0  0  0
    8.4212    2.8191    3.8427 O   0  0  0  0  0  0  0  0  0  0  0  0
    5.9189    3.5283    0.8575 C   0  0  0  0  0  0  0  0  0  0  0  0
    6.9257    2.5210    0.8834 O   0  0  0  0  0  0  0  0  0  0  0  0
    4.8353    7.7166   -0.5026 C   0  0  1  0  0  0  0  0  0  0  0  0
    5.5137    7.0209    0.6046 O   0  0  0  0  0  0  0  0  0  0  0  0
    8.5468   -3.3986    3.2618 C   0  0  0  0  0  0  0  0  0  0  0  0
    8.3641   -3.5587    1.8761 O   0  0  0  0  0  0  0  0  0  0  0  0
    9.9942    3.0097    5.7804 C   0  0  1  0  0  0  0  0  0  0  0  0
    9.9402    4.4336    5.9044 O   0  0  0  0  0  0  0  0  0  0  0  0
    3.6835    6.8000   -1.1041 C   0  0  0  0  0  0  0  0  0  0  0  0
    2.6002    6.4240   -0.1545 N   0  0  0  0  0  0  0  0  0  0  0  0
  1  2  1  1  0  0  0
  1  7  1  0  0  0  0
  1 30  1  0  0  0  0
  3  4  1  6  0  0  0
  3  9  1  0  0  0  0
  3 39  1  0  0  0  0
  5 10  1  0  0  0  0
  5 26  1  0  0  0  0
  5 32  1  6  0  0  0
  6 12  1  0  0  0  0
  6 36  1  0  0  0  0
  6 19  1  1  0  0  0
  7  8  1  1  0  0  0
  7 14  1  0  0  0  0
  9 16  1  0  0  0  0
 10 11  1  1  0  0  0
 10 18  1  0  0  0  0
 12 13  1  1  0  0  0
 12 20  1  0  0  0  0
 14 15  1  6  0  0  0
 14 22  1  0  0  0  0
 16 17  1  6  0  0  0
 16 24  1  0  0  0  0
 18 19  1  1  0  0  0
 18 25  1  0  0  0  0
 20 21  1  6  0  0  0
 20 27  1  0  0  0  0
 22 23  1  1  0  0  0
 22 29  1  0  0  0  0
 24  2  1  1  0  0  0
 24 31  1  0  0  0  0
 25 26  1  0  0  0  0
 25 33  1  6  0  0  0
 27 28  1  1  0  0  0
 27 35  1  0  0  0  0
 29 30  1  0  0  0  0
 29 37  1  6  0  0  0
 31 32  1  6  0  0  0
 31 39  1  0  0  0  0
 33 34  1  0  0  0  0
 35 36  1  0  0  0  0
 35 41  1  1  0  0  0
 37 38  1  0  0  0  0
 39 40  1  1  0  0  0
 41 42  1  0  0  0  0
M  END
>  <CHROM.1>
-176.32190303,139.64752446,164.76451728,164.70368722,-140.72871720,62.55147961
60.61903547,161.37495177,-58.40634572,7.05202666,3.14003811,3.06630674,1.28393056
0.69726628,2.93409673

>  <Name>
2o3w_lig

>  <RI>
0

>  <Rbt.Current_Directory>
/home/itssahil/PROJECTS/Mol_Feturizer/New_Systems/rnas/2o3w

>  <Rbt.Executable>
rbdock ($Id: //depot/dev/client3/rdock/2013.1/src/exe/rbdock.cxx#4 $)

>  <Rbt.Library>
libRbt.so (2013.1, Build901 2013/11/27)

>  <Rbt.Parameter_File>
/export/apps/rDock/src/rDock_2013.1_src/data/scripts/dock_solv.prm

>  <Rbt.Receptor>
prm/pocket_docking_2.prm

>  <SCORE>
-8.5492

>  <SCORE.INTER>
-2.18141

>  <SCORE.INTER.CONST>
1

>  <SCORE.INTER.POLAR>
-0.985067

>  <SCORE.INTER.ROT>
9

>  <SCORE.INTER.SOLV>
10.1767

>  <SCORE.INTER.VDW>
-11.1629

>  <SCORE.INTER.norm>
-0.0519383

>  <SCORE.INTRA>
-6.38114

>  <SCORE.INTRA.DIHEDRAL>
-13.2319

>  <SCORE.INTRA.DIHEDRAL.0>
27.8999

>  <SCORE.INTRA.POLAR>
0

>  <SCORE.INTRA.POLAR.0>
0

>  <SCORE.INTRA.REPUL>
0

>  <SCORE.INTRA.REPUL.0>
0

>  <SCORE.INTRA.SOLV>
-1.23115

>  <SCORE.INTRA.SOLV.lig_0>
-104.479

>  <SCORE.INTRA.VDW>
0.850371

>  <SCORE.INTRA.VDW.0>
-6.17816

>  <SCORE.INTRA.norm>
-0.151932

>  <SCORE.RESTR>
0.0133505

>  <SCORE.RESTR.CAVITY>
0.0133505

>  <SCORE.RESTR.norm>
0.00031787

>  <SCORE.SYSTEM>
0

>  <SCORE.SYSTEM.CONST>
0

>  <SCORE.SYSTEM.DIHEDRAL>
0

>  <SCORE.SYSTEM.SOLV>
0

>  <SCORE.SYSTEM.norm>
0

>  <SCORE.heavy>
42

>  <SCORE.norm>
-0.203552

>  <RMSD>
1.044

$$$$
2o3w_lig
 OpenBabel11021811463D
libRbt.so/2013.1/901 2013/11/27
 42 45  0  0  0  0  0  0  0  0999 V2000
    6.8603   -0.1212    3.3670 C   0  0  2  0  0  0  0  0  0  0  0  0
    7.1625    0.3019    4.7075 O   0  0  0  0  0  0  0  0  0  0  0  0
   10.3981    2.2020    6.8793 C   0  0  2  0  0  0  0  0  0  0  0  0
   11.7428    2.7193    7.2723 N   0  0  0  0  0  0  0  0  0  0  0  0
    8.0089    4.0069    3.2458 C   0  0  1  0  0  0  0  0  0  0  0  0
    6.8001    7.6049    0.9444 C   0  0  1  0  0  0  0  0  0  0  0  0
    5.3290   -0.4051    3.3138 C   0  0  2  0  0  0  0  0  0  0  0  0
    4.5308    0.7017    3.8690 N   0  0  0  0  0  0  0  0  0  0  0  0
   10.3899    0.6220    6.8062 C   0  0  0  0  0  0  0  0  0  0  0  0
    8.5132    4.3445    1.8096 C   0  0  2  0  0  0  0  0  0  0  0  0
    9.8413    4.9222    1.7721 O   0  0  0  0  0  0  0  0  0  0  0  0
    6.8555    9.0554    1.5458 C   0  0  2  0  0  0  0  0  0  0  0  0
    6.5412    9.0399    3.0059 N   0  0  0  0  0  0  0  0  0  0  0  0
    4.9418   -1.6709    4.1005 C   0  0  1  0  0  0  0  0  0  0  0  0
    3.5383   -1.9142    3.9916 O   0  0  0  0  0  0  0  0  0  0  0  0
    8.9440    0.1370    6.4104 C   0  0  2  0  0  0  0  0  0  0  0  0
    8.8960   -1.3487    6.3464 N   0  0  0  0  0  0  0  0  0  0  0  0
    7.3851    5.2441    1.3025 C   0  0  2  0  0  0  0  0  0  0  0  0
    7.6428    6.6523    1.6047 O   0  0  0  0  0  0  0  0  0  0  0  0
    5.8353    9.9981    0.7475 C   0  0  1  0  0  0  0  0  0  0  0  0
    6.3880   10.2861   -0.5565 O   0  0  0  0  0  0  0  0  0  0  0  0
    5.7648   -2.8721    3.5820 C   0  0  2  0  0  0  0  0  0  0  0  0
    5.4098   -4.0426    4.2809 O   0  0  0  0  0  0  0  0  0  0  0  0
    8.5161    0.7418    5.0151 C   0  0  2  0  0  0  0  0  0  0  0  0
    6.1042    4.7507    1.9961 C   0  0  2  0  0  0  0  0  0  0  0  0
    6.5847    4.2577    3.2446 O   0  0  0  0  0  0  0  0  0  0  0  0
    4.3828    9.3423    0.5811 C   0  0  2  0  0  0  0  0  0  0  0  0
    3.7748    9.3085    1.8716 O   0  0  0  0  0  0  0  0  0  0  0  0
    7.2885   -2.5621    3.7603 C   0  0  2  0  0  0  0  0  0  0  0  0
    7.6298   -1.3389    3.0343 O   0  0  0  0  0  0  0  0  0  0  0  0
    8.5551    2.2856    4.9942 C   0  0  2  0  0  0  0  0  0  0  0  0
    8.3191    2.6550    3.6077 O   0  0  0  0  0  0  0  0  0  0  0  0
    5.3196    3.6469    1.2213 C   0  0  0  0  0  0  0  0  0  0  0  0
    4.1503    3.2975    1.9558 O   0  0  0  0  0  0  0  0  0  0  0  0
    4.4950    7.8851   -0.0072 C   0  0  1  0  0  0  0  0  0  0  0  0
    5.3608    7.1353    0.9194 O   0  0  0  0  0  0  0  0  0  0  0  0
    8.1718   -3.6864    3.2708 C   0  0  0  0  0  0  0  0  0  0  0  0
    8.0159   -3.8564    1.8829 O   0  0  0  0  0  0  0  0  0  0  0  0
    9.9723    2.8055    5.4811 C   0  0  1  0  0  0  0  0  0  0  0  0
    9.9588    4.2302    5.6064 O   0  0  0  0  0  0  0  0  0  0  0  0
    3.0976    7.1448   -0.1744 C   0  0  0  0  0  0  0  0  0  0  0  0
    3.1206    5.9094   -1.0050 N   0  0  0  0  0  0  0  0  0  0  0  0
  1  2  1  1  0  0  0
  1  7  1  0  0  0  0
  1 30  1  0  0  0  0
  3  4  1  6  0  0  0
  3  9  1  0  0  0  0
  3 39  1  0  0  0  0
  5 10  1  0  0  0  0
  5 26  1  0  0  0  0
  5 32  1  6  0  0  0
  6 12  1  0  0  0  0
  6 36  1  0  0  0  0
  6 19  1  1  0  0  0
  7  8  1  1  0  0  0
  7 14  1  0  0  0  0
  9 16  1  0  0  0  0
 10 11  1  1  0  0  0
 10 18  1  0  0  0  0
 12 13  1  1  0  0  0
 12 20  1  0  0  0  0
 14 15  1  6  0  0  0
 14 22  1  0  0  0  0
 16 17  1  6  0  0  0
 16 24  1  0  0  0  0
 18 19  1  1  0  0  0
 18 25  1  0  0  0  0
 20 21  1  6  0  0  0
 20 27  1  0  0  0  0
 22 23  1  1  0  0  0
 22 29  1  0  0  0  0
 24  2  1  1  0  0  0
 24 31  1  0  0  0  0
 25 26  1  0  0  0  0
 25 33  1  6  0  0  0
 27 28  1  1  0  0  0
 27 35  1  0  0  0  0
 29 30  1  0  0  0  0
 29 37  1  6  0  0  0
 31 32  1  6  0  0  0
 31 39  1  0  0  0  0
 33 34  1  0  0  0  0
 35 36  1  0  0  0  0
 35 41  1  1  0  0  0
 37 38  1  0  0  0  0
 39 40  1  1  0  0  0
 41 42  1  0  0  0  0
M  END
>  <CHROM.1>
-175.00504759,150.19023317,165.53910856,167.67026693,-137.57260319,-178.99066467
64.22420368,166.87887189,166.50515485,6.90148052,3.07003823,3.02057980,1.34598272
0.60294437,2.91336266

>  <Name>
2o3w_lig

>  <RI>
0

>  <Rbt.Current_Directory>
/home/itssahil/PROJECTS/Mol_Feturizer/New_Systems/rnas/2o3w

>  <Rbt.Executable>
rbdock ($Id: //depot/dev/client3/rdock/2013.1/src/exe/rbdock.cxx#4 $)

>  <Rbt.Library>
libRbt.so (2013.1, Build901 2013/11/27)

>  <Rbt.Parameter_File>
/export/apps/rDock/src/rDock_2013.1_src/data/scripts/dock_solv.prm

>  <Rbt.Receptor>
prm/pocket_docking_2.prm

>  <SCORE>
-7.03635

>  <SCORE.INTER>
0.216831

>  <SCORE.INTER.CONST>
1

>  <SCORE.INTER.POLAR>
-0.41737

>  <SCORE.INTER.ROT>
9

>  <SCORE.INTER.SOLV>
8.92109

>  <SCORE.INTER.VDW>
-11.0379

>  <SCORE.INTER.norm>
0.00516265

>  <SCORE.INTRA>
-7.27227

>  <SCORE.INTRA.DIHEDRAL>
-15.1381

>  <SCORE.INTRA.DIHEDRAL.0>
27.8999

>  <SCORE.INTRA.POLAR>
0

>  <SCORE.INTRA.POLAR.0>
0

>  <SCORE.INTRA.REPUL>
0

>  <SCORE.INTRA.REPUL.0>
0

>  <SCORE.INTRA.SOLV>
-2.02009

>  <SCORE.INTRA.SOLV.lig_0>
-104.479

>  <SCORE.INTRA.VDW>
1.30681

>  <SCORE.INTRA.VDW.0>
-6.17816

>  <SCORE.INTRA.norm>
-0.173149

>  <SCORE.RESTR>
0.0190926

>  <SCORE.RESTR.CAVITY>
0.0190926

>  <SCORE.RESTR.norm>
0.000454586

>  <SCORE.SYSTEM>
0

>  <SCORE.SYSTEM.CONST>
0

>  <SCORE.SYSTEM.DIHEDRAL>
0

>  <SCORE.SYSTEM.SOLV>
0

>  <SCORE.SYSTEM.norm>
0

>  <SCORE.heavy>
42

>  <SCORE.norm>
-0.167532

>  <RMSD>
1.047

$$$$
2o3w_lig
 OpenBabel11021811463D
libRbt.so/2013.1/901 2013/11/27
 42 45  0  0  0  0  0  0  0  0999 V2000
    7.1909   -0.4205    3.5612 C   0  0  2  0  0  0  0  0  0  0  0  0
    7.5592   -0.1260    4.9195 O   0  0  0  0  0  0  0  0  0  0  0  0
   10.7402    2.0271    6.9299 C   0  0  2  0  0  0  0  0  0  0  0  0
   12.0699    2.6105    7.2789 N   0  0  0  0  0  0  0  0  0  0  0  0
    8.3729    3.4874    3.1601 C   0  0  1  0  0  0  0  0  0  0  0  0
    6.7572    6.9113    0.9199 C   0  0  1  0  0  0  0  0  0  0  0  0
    5.6835   -0.8154    3.5739 C   0  0  2  0  0  0  0  0  0  0  0  0
    4.8520    0.1576    4.3036 N   0  0  0  0  0  0  0  0  0  0  0  0
   10.7755    0.4466    6.9812 C   0  0  0  0  0  0  0  0  0  0  0  0
    8.3608    3.5436    1.6021 C   0  0  2  0  0  0  0  0  0  0  0  0
    9.6392    3.8902    1.0149 O   0  0  0  0  0  0  0  0  0  0  0  0
    7.3431    8.3624    0.7794 C   0  0  2  0  0  0  0  0  0  0  0  0
    8.0429    8.7787    2.0316 N   0  0  0  0  0  0  0  0  0  0  0  0
    5.4443   -2.1867    4.2320 C   0  0  1  0  0  0  0  0  0  0  0  0
    4.0571   -2.5252    4.1860 O   0  0  0  0  0  0  0  0  0  0  0  0
    9.3437   -0.1076    6.6272 C   0  0  2  0  0  0  0  0  0  0  0  0
    9.3367   -1.5945    6.6801 N   0  0  0  0  0  0  0  0  0  0  0  0
    7.2251    4.5363    1.3495 C   0  0  2  0  0  0  0  0  0  0  0  0
    7.7177    5.9126    1.2854 O   0  0  0  0  0  0  0  0  0  0  0  0
    6.1582    9.3783    0.4175 C   0  0  1  0  0  0  0  0  0  0  0  0
    5.7690    9.1707   -0.9588 O   0  0  0  0  0  0  0  0  0  0  0  0
    6.3097   -3.2554    3.5262 C   0  0  2  0  0  0  0  0  0  0  0  0
    6.0895   -4.5201    4.1063 O   0  0  0  0  0  0  0  0  0  0  0  0
    8.9001    0.3737    5.1893 C   0  0  2  0  0  0  0  0  0  0  0  0
    6.2344    4.3527    2.5115 C   0  0  2  0  0  0  0  0  0  0  0  0
    7.0770    3.9611    3.5928 O   0  0  0  0  0  0  0  0  0  0  0  0
    4.8796    9.2065    1.3679 C   0  0  2  0  0  0  0  0  0  0  0  0
    5.2458    9.6625    2.6695 O   0  0  0  0  0  0  0  0  0  0  0  0
    7.8168   -2.8491    3.6410 C   0  0  2  0  0  0  0  0  0  0  0  0
    8.0178   -1.5302    3.0411 O   0  0  0  0  0  0  0  0  0  0  0  0
    8.8966    1.9116    5.0472 C   0  0  2  0  0  0  0  0  0  0  0  0
    8.6511    2.1642    3.6363 O   0  0  0  0  0  0  0  0  0  0  0  0
    5.1149    3.2953    2.2610 C   0  0  0  0  0  0  0  0  0  0  0  0
    4.3940    3.6435    1.0829 O   0  0  0  0  0  0  0  0  0  0  0  0
    4.4285    7.6981    1.4254 C   0  0  1  0  0  0  0  0  0  0  0  0
    5.5997    6.9383    1.8958 O   0  0  0  0  0  0  0  0  0  0  0  0
    8.7390   -3.8399    2.9690 C   0  0  0  0  0  0  0  0  0  0  0  0
    8.4776   -3.8857    1.5874 O   0  0  0  0  0  0  0  0  0  0  0  0
   10.2986    2.5069    5.4894 C   0  0  1  0  0  0  0  0  0  0  0  0
   10.2458    3.9361    5.5023 O   0  0  0  0  0  0  0  0  0  0  0  0
    3.1820    7.4307    2.3759 C   0  0  0  0  0  0  0  0  0  0  0  0
    1.9144    8.1019    1.9769 N   0  0  0  0  0  0  0  0  0  0  0  0
  1  2  1  1  0  0  0
  1  7  1  0  0  0  0
  1 30  1  0  0  0  0
  3  4  1  6  0  0  0
  3  9  1  0  0  0  0
  3 39  1  0  0  0  0
  5 10  1  0  0  0  0
  5 26  1  0  0  0  0
  5 32  1  6  0  0  0
  6 12  1  0  0  0  0
  6 36  1  0  0  0  0
  6 19  1  1  0  0  0
  7  8  1  1  0  0  0
  7 14  1  0  0  0  0
  9 16  1  0  0  0  0
 10 11  1  1  0  0  0
 10 18  1  0  0  0  0
 12 13  1  1  0  0  0
 12 20  1  0  0  0  0
 14 15  1  6  0  0  0
 14 22  1  0  0  0  0
 16 17  1  6  0  0  0
 16 24  1  0  0  0  0
 18 19  1  1  0  0  0
 18 25  1  0  0  0  0
 20 21  1  6  0  0  0
 20 27  1  0  0  0  0
 22 23  1  1  0  0  0
 22 29  1  0  0  0  0
 24  2  1  1  0  0  0
 24 31  1  0  0  0  0
 25 26  1  0  0  0  0
 25 33  1  6  0  0  0
 27 28  1  1  0  0  0
 27 35  1  0  0  0  0
 29 30  1  0  0  0  0
 29 37  1  6  0  0  0
 31 32  1  6  0  0  0
 31 39  1  0  0  0  0
 33 34  1  0  0  0  0
 35 36  1  0  0  0  0
 35 41  1  1  0  0  0
 37 38  1  0  0  0  0
 39 40  1  1  0  0  0
 41 42  1  0  0  0  0
M  END
>  <CHROM.1>
-175.36971864,171.32626963,-176.55977228,173.98653878,-149.38441639,-56.89278166
63.10255839,170.18267287,63.05912403,7.19945295,2.76892110,3.20712276,1.31860581
0.53290827,2.96106353

>  <Name>
2o3w_lig

>  <RI>
0

>  <Rbt.Current_Directory>
/home/itssahil/PROJECTS/Mol_Feturizer/New_Systems/rnas/2o3w

>  <Rbt.Executable>
rbdock ($Id: //depot/dev/client3/rdock/2013.1/src/exe/rbdock.cxx#4 $)

>  <Rbt.Library>
libRbt.so (2013.1, Build901 2013/11/27)

>  <Rbt.Parameter_File>
/export/apps/rDock/src/rDock_2013.1_src/data/scripts/dock_solv.prm

>  <Rbt.Receptor>
prm/pocket_docking_2.prm

>  <SCORE>
-9.42959

>  <SCORE.INTER>
2.31498

>  <SCORE.INTER.CONST>
1

>  <SCORE.INTER.POLAR>
0

>  <SCORE.INTER.ROT>
9

>  <SCORE.INTER.SOLV>
14.9478

>  <SCORE.INTER.VDW>
-13.0393

>  <SCORE.INTER.norm>
0.0551187

>  <SCORE.INTRA>
-11.7649

>  <SCORE.INTRA.DIHEDRAL>
-22.7996

>  <SCORE.INTRA.DIHEDRAL.0>
27.8999

>  <SCORE.INTRA.POLAR>
0

>  <SCORE.INTRA.POLAR.0>
0

>  <SCORE.INTRA.REPUL>
0

>  <SCORE.INTRA.REPUL.0>
0

>  <SCORE.INTRA.SOLV>
-4.02561

>  <SCORE.INTRA.SOLV.lig_0>
-104.479

>  <SCORE.INTRA.VDW>
1.64772

>  <SCORE.INTRA.VDW.0>
-6.17816

>  <SCORE.INTRA.norm>
-0.280116

>  <SCORE.RESTR>
0.0202938

>  <SCORE.RESTR.CAVITY>
0.0202938

>  <SCORE.RESTR.norm>
0.000483185

>  <SCORE.SYSTEM>
0

>  <SCORE.SYSTEM.CONST>
0

>  <SCORE.SYSTEM.DIHEDRAL>
0

>  <SCORE.SYSTEM.SOLV>
0

>  <SCORE.SYSTEM.norm>
0

>  <SCORE.heavy>
42

>  <SCORE.norm>
-0.224514

>  <RMSD>
1.070

$$$$
2o3w_lig
 OpenBabel11021811463D
libRbt.so/2013.1/901 2013/11/27
 42 45  0  0  0  0  0  0  0  0999 V2000
    6.8871    0.0347    3.4164 C   0  0  2  0  0  0  0  0  0  0  0  0
    7.3219    0.0254    4.7869 O   0  0  0  0  0  0  0  0  0  0  0  0
   10.4009    2.2342    6.8932 C   0  0  2  0  0  0  0  0  0  0  0  0
   11.7111    2.8322    7.2886 N   0  0  0  0  0  0  0  0  0  0  0  0
    8.1635    3.6070    3.0016 C   0  0  1  0  0  0  0  0  0  0  0  0
    6.5928    6.9355    0.5344 C   0  0  1  0  0  0  0  0  0  0  0  0
    5.4068   -0.4517    3.4054 C   0  0  2  0  0  0  0  0  0  0  0  0
    4.5706    0.2647    4.3843 N   0  0  0  0  0  0  0  0  0  0  0  0
   10.4428    0.6552    6.9747 C   0  0  0  0  0  0  0  0  0  0  0  0
    8.2184    3.6398    1.4438 C   0  0  2  0  0  0  0  0  0  0  0  0
    9.5117    4.0124    0.9074 O   0  0  0  0  0  0  0  0  0  0  0  0
    7.0687    8.4311    0.6075 C   0  0  2  0  0  0  0  0  0  0  0  0
    7.4275    8.8090    2.0072 N   0  0  0  0  0  0  0  0  0  0  0  0
    5.2823   -1.9522    3.7279 C   0  0  1  0  0  0  0  0  0  0  0  0
    3.9151   -2.3621    3.6677 O   0  0  0  0  0  0  0  0  0  0  0  0
    9.0307    0.0857    6.5694 C   0  0  2  0  0  0  0  0  0  0  0  0
    9.0297   -1.4000    6.6491 N   0  0  0  0  0  0  0  0  0  0  0  0
    7.0689    4.5973    1.1262 C   0  0  2  0  0  0  0  0  0  0  0  0
    7.5271    5.9854    1.0617 O   0  0  0  0  0  0  0  0  0  0  0  0
    5.9144    9.3819    0.0326 C   0  0  1  0  0  0  0  0  0  0  0  0
    5.8672    9.2425   -1.4052 O   0  0  0  0  0  0  0  0  0  0  0  0
    6.1588   -2.7646    2.7477 C   0  0  2  0  0  0  0  0  0  0  0  0
    6.0429   -4.1421    3.0191 O   0  0  0  0  0  0  0  0  0  0  0  0
    8.6470    0.5383    5.1052 C   0  0  2  0  0  0  0  0  0  0  0  0
    6.0334    4.4039    2.2468 C   0  0  2  0  0  0  0  0  0  0  0  0
    6.8377    4.0515    3.3699 O   0  0  0  0  0  0  0  0  0  0  0  0
    4.4729    9.0537    0.6505 C   0  0  2  0  0  0  0  0  0  0  0  0
    4.4934    9.4438    2.0230 O   0  0  0  0  0  0  0  0  0  0  0  0
    7.6462   -2.2972    2.8852 C   0  0  2  0  0  0  0  0  0  0  0  0
    7.7389   -0.8638    2.6084 O   0  0  0  0  0  0  0  0  0  0  0  0
    8.6412    2.0733    4.9351 C   0  0  2  0  0  0  0  0  0  0  0  0
    8.4556    2.2991    3.5106 O   0  0  0  0  0  0  0  0  0  0  0  0
    4.9544    3.3128    1.9647 C   0  0  0  0  0  0  0  0  0  0  0  0
    4.2582    3.6386    0.7655 O   0  0  0  0  0  0  0  0  0  0  0  0
    4.1515    7.5164    0.5253 C   0  0  1  0  0  0  0  0  0  0  0  0
    5.2459    6.8120    1.2154 O   0  0  0  0  0  0  0  0  0  0  0  0
    8.5771   -3.0384    1.9537 C   0  0  0  0  0  0  0  0  0  0  0  0
    8.6386   -4.3979    2.3103 O   0  0  0  0  0  0  0  0  0  0  0  0
   10.0195    2.6854    5.4264 C   0  0  1  0  0  0  0  0  0  0  0  0
    9.9583    4.1142    5.4111 O   0  0  0  0  0  0  0  0  0  0  0  0
    2.7493    7.0953    1.1460 C   0  0  0  0  0  0  0  0  0  0  0  0
    2.5778    7.3803    2.5972 N   0  0  0  0  0  0  0  0  0  0  0  0
  1  2  1  1  0  0  0
  1  7  1  0  0  0  0
  1 30  1  0  0  0  0
  3  4  1  6  0  0  0
  3  9  1  0  0  0  0
  3 39  1  0  0  0  0
  5 10  1  0  0  0  0
  5 26  1  0  0  0  0
  5 32  1  6  0  0  0
  6 12  1  0  0  0  0
  6 36  1  0  0  0  0
  6 19  1  1  0  0  0
  7  8  1  1  0  0  0
  7 14  1  0  0  0  0
  9 16  1  0  0  0  0
 10 11  1  1  0  0  0
 10 18  1  0  0  0  0
 12 13  1  1  0  0  0
 12 20  1  0  0  0  0
 14 15  1  6  0  0  0
 14 22  1  0  0  0  0
 16 17  1  6  0  0  0
 16 24  1  0  0  0  0
 18 19  1  1  0  0  0
 18 25  1  0  0  0  0
 20 21  1  6  0  0  0
 20 27  1  0  0  0  0
 22 23  1  1  0  0  0
 22 29  1  0  0  0  0
 24  2  1  1  0  0  0
 24 31  1  0  0  0  0
 25 26  1  0  0  0  0
 25 33  1  6  0  0  0
 27 28  1  1  0  0  0
 27 35  1  0  0  0  0
 29 30  1  0  0  0  0
 29 37  1  6  0  0  0
 31 32  1  6  0  0  0
 31 39  1  0  0  0  0
 33 34  1  0  0  0  0
 35 36  1  0  0  0  0
 35 41  1  1  0  0  0
 37 38  1  0  0  0  0
 39 40  1  1  0  0  0
 41 42  1  0  0  0  0
M  END
>  <CHROM.1>
-175.25143672,171.52527314,174.47180497,169.02387018,-165.53568767,-58.08967281
-65.63522627,168.87710703,-59.64414541,6.98000013,2.87985297,2.91501245,1.28261939
0.62569453,2.97160426

>  <Name>
2o3w_lig

>  <RI>
0

>  <Rbt.Current_Directory>
/home/itssahil/PROJECTS/Mol_Feturizer/New_Systems/rnas/2o3w

>  <Rbt.Executable>
rbdock ($Id: //depot/dev/client3/rdock/2013.1/src/exe/rbdock.cxx#4 $)

>  <Rbt.Library>
libRbt.so (2013.1, Build901 2013/11/27)

>  <Rbt.Parameter_File>
/export/apps/rDock/src/rDock_2013.1_src/data/scripts/dock_solv.prm

>  <Rbt.Receptor>
prm/pocket_docking_2.prm

>  <SCORE>
-9.47083

>  <SCORE.INTER>
2.80505

>  <SCORE.INTER.CONST>
1

>  <SCORE.INTER.POLAR>
0

>  <SCORE.INTER.ROT>
9

>  <SCORE.INTER.SOLV>
12.23

>  <SCORE.INTER.VDW>
-11.8066

>  <SCORE.INTER.norm>
0.066787

>  <SCORE.INTRA>
-12.2765

>  <SCORE.INTRA.DIHEDRAL>
-24.8773

>  <SCORE.INTRA.DIHEDRAL.0>
27.8999

>  <SCORE.INTRA.POLAR>
0

>  <SCORE.INTRA.POLAR.0>
0

>  <SCORE.INTRA.REPUL>
0

>  <SCORE.INTRA.REPUL.0>
0

>  <SCORE.INTRA.SOLV>
-3.41061

>  <SCORE.INTRA.SOLV.lig_0>
-104.479

>  <SCORE.INTRA.VDW>
1.86751

>  <SCORE.INTRA.VDW.0>
-6.17816

>  <SCORE.INTRA.norm>
-0.292297

>  <SCORE.RESTR>
0.000577733

>  <SCORE.RESTR.CAVITY>
0.000577733

>  <SCORE.RESTR.norm>
1.37555e-05

>  <SCORE.SYSTEM>
0

>  <SCORE.SYSTEM.CONST>
0

>  <SCORE.SYSTEM.DIHEDRAL>
0

>  <SCORE.SYSTEM.SOLV>
0

>  <SCORE.SYSTEM.norm>
0

>  <SCORE.heavy>
42

>  <SCORE.norm>
-0.225496

>  <RMSD>
1.073

$$$$
2o3w_lig
 OpenBabel11021811463D
libRbt.so/2013.1/901 2013/11/27
 42 45  0  0  0  0  0  0  0  0999 V2000
    7.0349    0.1624    3.5345 C   0  0  2  0  0  0  0  0  0  0  0  0
    7.2879    0.5195    4.9041 O   0  0  0  0  0  0  0  0  0  0  0  0
   10.3565    2.5983    7.1531 C   0  0  2  0  0  0  0  0  0  0  0  0
   11.6681    3.1562    7.5991 N   0  0  0  0  0  0  0  0  0  0  0  0
    8.2862    4.1401    3.2478 C   0  0  1  0  0  0  0  0  0  0  0  0
    6.9943    7.6001    0.7806 C   0  0  1  0  0  0  0  0  0  0  0  0
    5.5080   -0.1243    3.4136 C   0  0  2  0  0  0  0  0  0  0  0  0
    4.6848    0.9507    3.9944 N   0  0  0  0  0  0  0  0  0  0  0  0
   10.3639    1.0169    7.1874 C   0  0  0  0  0  0  0  0  0  0  0  0
    8.4237    4.2201    1.6969 C   0  0  2  0  0  0  0  0  0  0  0  0
    9.7567    4.5567    1.2400 O   0  0  0  0  0  0  0  0  0  0  0  0
    6.8020    8.8873    1.6609 C   0  0  2  0  0  0  0  0  0  0  0  0
    6.2995    8.5326    3.0220 N   0  0  0  0  0  0  0  0  0  0  0  0
    5.1005   -1.4290    4.1225 C   0  0  1  0  0  0  0  0  0  0  0  0
    3.7030   -1.6719    3.9525 O   0  0  0  0  0  0  0  0  0  0  0  0
    8.9513    0.4900    6.7297 C   0  0  2  0  0  0  0  0  0  0  0  0
    8.9179   -0.9970    6.7639 N   0  0  0  0  0  0  0  0  0  0  0  0
    7.3304    5.2331    1.3536 C   0  0  2  0  0  0  0  0  0  0  0  0
    7.8451    6.6028    1.3595 O   0  0  0  0  0  0  0  0  0  0  0  0
    5.7958    9.8896    0.9191 C   0  0  1  0  0  0  0  0  0  0  0  0
    6.4808   10.4960   -0.1998 O   0  0  0  0  0  0  0  0  0  0  0  0
    5.9477   -2.5999    3.5744 C   0  0  2  0  0  0  0  0  0  0  0  0
    5.5750   -3.8050    4.2016 O   0  0  0  0  0  0  0  0  0  0  0  0
    8.6146    0.9944    5.2709 C   0  0  2  0  0  0  0  0  0  0  0  0
    6.2310    5.0465    2.4128 C   0  0  2  0  0  0  0  0  0  0  0  0
    6.9612    4.6263    3.5629 O   0  0  0  0  0  0  0  0  0  0  0  0
    4.4636    9.1643    0.4028 C   0  0  2  0  0  0  0  0  0  0  0  0
    3.6968    8.8034    1.5509 O   0  0  0  0  0  0  0  0  0  0  0  0
    7.4625   -2.2935    3.8212 C   0  0  2  0  0  0  0  0  0  0  0  0
    7.8223   -1.0344    3.1692 O   0  0  0  0  0  0  0  0  0  0  0  0
    8.6445    2.5336    5.1477 C   0  0  2  0  0  0  0  0  0  0  0  0
    8.5002    2.8059    3.7266 O   0  0  0  0  0  0  0  0  0  0  0  0
    5.1266    4.0096    2.0394 C   0  0  0  0  0  0  0  0  0  0  0  0
    5.7252    2.7300    1.8568 O   0  0  0  0  0  0  0  0  0  0  0  0
    4.8199    7.8819   -0.4402 C   0  0  1  0  0  0  0  0  0  0  0  0
    5.6346    7.0268    0.4403 O   0  0  0  0  0  0  0  0  0  0  0  0
    8.3685   -3.3887    3.3080 C   0  0  0  0  0  0  0  0  0  0  0  0
    8.2437   -3.5067    1.9117 O   0  0  0  0  0  0  0  0  0  0  0  0
   10.0220    3.1012    5.6917 C   0  0  1  0  0  0  0  0  0  0  0  0
    9.9905    4.5309    5.7186 O   0  0  0  0  0  0  0  0  0  0  0  0
    3.5517    7.0793   -0.9656 C   0  0  0  0  0  0  0  0  0  0  0  0
    2.6083    6.6091    0.0859 N   0  0  0  0  0  0  0  0  0  0  0  0
  1  2  1  1  0  0  0
  1  7  1  0  0  0  0
  1 30  1  0  0  0  0
  3  4  1  6  0  0  0
  3  9  1  0  0  0  0
  3 39  1  0  0  0  0
  5 10  1  0  0  0  0
  5 26  1  0  0  0  0
  5 32  1  6  0  0  0
  6 12  1  0  0  0  0
  6 36  1  0  0  0  0
  6 19  1  1  0  0  0
  7  8  1  1  0  0  0
  7 14  1  0  0  0  0
  9 16  1  0  0  0  0
 10 11  1  1  0  0  0
 10 18  1  0  0  0  0
 12 13  1  1  0  0  0
 12 20  1  0  0  0  0
 14 15  1  6  0  0  0
 14 22  1  0  0  0  0
 16 17  1  6  0  0  0
 16 24  1  0  0  0  0
 18 19  1  1  0  0  0
 18 25  1  0  0  0  0
 20 21  1  6  0  0  0
 20 27  1  0  0  0  0
 22 23  1  1  0  0  0
 22 29  1  0  0  0  0
 24  2  1  1  0  0  0
 24 31  1  0  0  0  0
 25 26  1  0  0  0  0
 25 33  1  6  0  0  0
 27 28  1  1  0  0  0
 27 35  1  0  0  0  0
 29 30  1  0  0  0  0
 29 37  1  6  0  0  0
 31 32  1  6  0  0  0
 31 39  1  0  0  0  0
 33 34  1  0  0  0  0
 35 36  1  0  0  0  0
 35 41  1  1  0  0  0
 37 38  1  0  0  0  0
 39 40  1  1  0  0  0
 41 42  1  0  0  0  0
M  END
>  <CHROM.1>
-172.82632093,169.55109197,131.66086081,167.18476599,-145.34145446,60.68956141
63.14313193,170.68278101,-57.74208952,7.02867134,3.20249181,3.09424957,1.31428891
0.66152298,2.90860668

>  <Name>
2o3w_lig

>  <RI>
0

>  <Rbt.Current_Directory>
/home/itssahil/PROJECTS/Mol_Feturizer/New_Systems/rnas/2o3w

>  <Rbt.Executable>
rbdock ($Id: //depot/dev/client3/rdock/2013.1/src/exe/rbdock.cxx#4 $)

>  <Rbt.Library>
libRbt.so (2013.1, Build901 2013/11/27)

>  <Rbt.Parameter_File>
/export/apps/rDock/src/rDock_2013.1_src/data/scripts/dock_solv.prm

>  <Rbt.Receptor>
prm/pocket_docking_2.prm

>  <SCORE>
-8.48243

>  <SCORE.INTER>
-2.41657

>  <SCORE.INTER.CONST>
1

>  <SCORE.INTER.POLAR>
-0.976246

>  <SCORE.INTER.ROT>
9

>  <SCORE.INTER.SOLV>
9.16795

>  <SCORE.INTER.VDW>
-11.0129

>  <SCORE.INTER.norm>
-0.0575374

>  <SCORE.INTRA>
-6.06586

>  <SCORE.INTRA.DIHEDRAL>
-14.8469

>  <SCORE.INTRA.DIHEDRAL.0>
27.8999

>  <SCORE.INTRA.POLAR>
0

>  <SCORE.INTRA.POLAR.0>
0

>  <SCORE.INTRA.REPUL>
0

>  <SCORE.INTRA.REPUL.0>
0

>  <SCORE.INTRA.SOLV>
0.753817

>  <SCORE.INTRA.SOLV.lig_0>
-104.479

>  <SCORE.INTRA.VDW>
0.980691

>  <SCORE.INTRA.VDW.0>
-6.17816

>  <SCORE.INTRA.norm>
-0.144425

>  <SCORE.RESTR>
0

>  <SCORE.RESTR.CAVITY>
0

>  <SCORE.RESTR.norm>
0

>  <SCORE.SYSTEM>
0

>  <SCORE.SYSTEM.CONST>
0

>  <SCORE.SYSTEM.DIHEDRAL>
0

>  <SCORE.SYSTEM.SOLV>
0

>  <SCORE.SYSTEM.norm>
0

>  <SCORE.heavy>
42

>  <SCORE.norm>
-0.201963

>  <RMSD>
1.075

$$$$
2o3w_lig
 OpenBabel11021811463D
libRbt.so/2013.1/901 2013/11/27
 42 45  0  0  0  0  0  0  0  0999 V2000
    7.0002   -0.4978    3.4470 C   0  0  2  0  0  0  0  0  0  0  0  0
    7.3054   -0.1920    4.8184 O   0  0  0  0  0  0  0  0  0  0  0  0
   10.3197    2.0797    6.9513 C   0  0  2  0  0  0  0  0  0  0  0  0
   11.6106    2.7158    7.3505 N   0  0  0  0  0  0  0  0  0  0  0  0
    8.0610    3.4677    3.1013 C   0  0  1  0  0  0  0  0  0  0  0  0
    6.5987    6.8459    0.6233 C   0  0  1  0  0  0  0  0  0  0  0  0
    5.5244   -0.9965    3.4096 C   0  0  2  0  0  0  0  0  0  0  0  0
    4.6051   -0.0910    4.1206 N   0  0  0  0  0  0  0  0  0  0  0  0
   10.4190    0.5018    6.9972 C   0  0  0  0  0  0  0  0  0  0  0  0
    8.2195    3.5555    1.5528 C   0  0  2  0  0  0  0  0  0  0  0  0
    9.5376    3.9713    1.1180 O   0  0  0  0  0  0  0  0  0  0  0  0
    7.0968    8.3357    0.6594 C   0  0  2  0  0  0  0  0  0  0  0  0
    7.4290    8.7534    2.0544 N   0  0  0  0  0  0  0  0  0  0  0  0
    5.3613   -2.3877    4.0492 C   0  0  1  0  0  0  0  0  0  0  0  0
    4.0032   -2.8213    3.9574 O   0  0  0  0  0  0  0  0  0  0  0  0
    9.0252   -0.1093    6.5894 C   0  0  2  0  0  0  0  0  0  0  0  0
    9.0783   -1.5954    6.6359 N   0  0  0  0  0  0  0  0  0  0  0  0
    7.0736    4.5013    1.1900 C   0  0  2  0  0  0  0  0  0  0  0  0
    7.5052    5.8993    1.2029 O   0  0  0  0  0  0  0  0  0  0  0  0
    5.9716    9.2848    0.0270 C   0  0  1  0  0  0  0  0  0  0  0  0
    5.9555    9.0993   -1.4063 O   0  0  0  0  0  0  0  0  0  0  0  0
    6.3204   -3.3865    3.3624 C   0  0  2  0  0  0  0  0  0  0  0  0
    6.1713   -4.6692    3.9254 O   0  0  0  0  0  0  0  0  0  0  0  0
    8.6137    0.3614    5.1385 C   0  0  2  0  0  0  0  0  0  0  0  0
    5.9696    4.2493    2.2307 C   0  0  2  0  0  0  0  0  0  0  0  0
    6.7042    3.8737    3.3934 O   0  0  0  0  0  0  0  0  0  0  0  0
    4.5110    8.9989    0.6208 C   0  0  2  0  0  0  0  0  0  0  0  0
    4.5059    9.4331    1.9801 O   0  0  0  0  0  0  0  0  0  0  0  0
    7.7913   -2.8777    3.5273 C   0  0  2  0  0  0  0  0  0  0  0  0
    7.9180   -1.5421    2.9443 O   0  0  0  0  0  0  0  0  0  0  0  0
    8.5512    1.8985    5.0028 C   0  0  2  0  0  0  0  0  0  0  0  0
    8.3463    2.1488    3.5851 O   0  0  0  0  0  0  0  0  0  0  0  0
    4.9357    3.1481    1.8400 C   0  0  0  0  0  0  0  0  0  0  0  0
    5.6056    1.8974    1.7141 O   0  0  0  0  0  0  0  0  0  0  0  0
    4.1679    7.4635    0.5375 C   0  0  1  0  0  0  0  0  0  0  0  0
    5.2346    6.7652    1.2757 O   0  0  0  0  0  0  0  0  0  0  0  0
    8.8004   -3.7954    2.8766 C   0  0  0  0  0  0  0  0  0  0  0  0
    8.5169   -3.9334    1.5055 O   0  0  0  0  0  0  0  0  0  0  0  0
    9.9105    2.5490    5.4978 C   0  0  1  0  0  0  0  0  0  0  0  0
    9.7978    3.9747    5.5149 O   0  0  0  0  0  0  0  0  0  0  0  0
    2.7451    7.0843    1.1380 C   0  0  0  0  0  0  0  0  0  0  0  0
    2.5703    7.3504    2.5924 N   0  0  0  0  0  0  0  0  0  0  0  0
  1  2  1  1  0  0  0
  1  7  1  0  0  0  0
  1 30  1  0  0  0  0
  3  4  1  6  0  0  0
  3  9  1  0  0  0  0
  3 39  1  0  0  0  0
  5 10  1  0  0  0  0
  5 26  1  0  0  0  0
  5 32  1  6  0  0  0
  6 12  1  0  0  0  0
  6 36  1  0  0  0  0
  6 19  1  1  0  0  0
  7  8  1  1  0  0  0
  7 14  1  0  0  0  0
  9 16  1  0  0  0  0
 10 11  1  1  0  0  0
 10 18  1  0  0  0  0
 12 13  1  1  0  0  0
 12 20  1  0  0  0  0
 14 15  1  6  0  0  0
 14 22  1  0  0  0  0
 16 17  1  6  0  0  0
 16 24  1  0  0  0  0
 18 19  1  1  0  0  0
 18 25  1  0  0  0  0
 20 21  1  6  0  0  0
 20 27  1  0  0  0  0
 22 23  1  1  0  0  0
 22 29  1  0  0  0  0
 24  2  1  1  0  0  0
 24 31  1  0  0  0  0
 25 26  1  0  0  0  0
 25 33  1  6  0  0  0
 27 28  1  1  0  0  0
 27 35  1  0  0  0  0
 29 30  1  0  0  0  0
 29 37  1  6  0  0  0
 31 32  1  6  0  0  0
 31 39  1  0  0  0  0
 33 34  1  0  0  0  0
 35 36  1  0  0  0  0
 35 41  1  1  0  0  0
 37 38  1  0  0  0  0
 39 40  1  1  0  0  0
 41 42  1  0  0  0  0
M  END
>  <CHROM.1>
-177.10591385,166.33426399,179.86775994,167.92233936,-149.18688407,62.67417920
58.20346609,171.63932406,-62.85741580,7.02443439,2.63457691,3.03976586,1.31208570
0.62162471,2.95724282

>  <Name>
2o3w_lig

>  <RI>
0

>  <Rbt.Current_Directory>
/home/itssahil/PROJECTS/Mol_Feturizer/New_Systems/rnas/2o3w

>  <Rbt.Executable>
rbdock ($Id: //depot/dev/client3/rdock/2013.1/src/exe/rbdock.cxx#4 $)

>  <Rbt.Library>
libRbt.so (2013.1, Build901 2013/11/27)

>  <Rbt.Parameter_File>
/export/apps/rDock/src/rDock_2013.1_src/data/scripts/dock_solv.prm

>  <Rbt.Receptor>
prm/pocket_docking_2.prm

>  <SCORE>
-7.66675

>  <SCORE.INTER>
3.19277

>  <SCORE.INTER.CONST>
1

>  <SCORE.INTER.POLAR>
0

>  <SCORE.INTER.ROT>
9

>  <SCORE.INTER.SOLV>
11.2791

>  <SCORE.INTER.VDW>
-11.2312

>  <SCORE.INTER.norm>
0.0760184

>  <SCORE.INTRA>
-10.8595

>  <SCORE.INTRA.DIHEDRAL>
-22.0147

>  <SCORE.INTRA.DIHEDRAL.0>
27.8999

>  <SCORE.INTRA.POLAR>
0

>  <SCORE.INTRA.POLAR.0>
0

>  <SCORE.INTRA.REPUL>
0

>  <SCORE.INTRA.REPUL.0>
0

>  <SCORE.INTRA.SOLV>
-1.50501

>  <SCORE.INTRA.SOLV.lig_0>
-104.479

>  <SCORE.INTRA.VDW>
0.900355

>  <SCORE.INTRA.VDW.0>
-6.17816

>  <SCORE.INTRA.norm>
-0.25856

>  <SCORE.RESTR>
0

>  <SCORE.RESTR.CAVITY>
0

>  <SCORE.RESTR.norm>
0

>  <SCORE.SYSTEM>
0

>  <SCORE.SYSTEM.CONST>
0

>  <SCORE.SYSTEM.DIHEDRAL>
0

>  <SCORE.SYSTEM.SOLV>
0

>  <SCORE.SYSTEM.norm>
0

>  <SCORE.heavy>
42

>  <SCORE.norm>
-0.182542

>  <RMSD>
1.087

$$$$
2o3w_lig
 OpenBabel11021811463D
libRbt.so/2013.1/901 2013/11/27
 42 45  0  0  0  0  0  0  0  0999 V2000
    7.1611   -0.4247    3.5421 C   0  0  2  0  0  0  0  0  0  0  0  0
    7.5025   -0.1236    4.9060 O   0  0  0  0  0  0  0  0  0  0  0  0
   10.6122    2.0835    6.9685 C   0  0  2  0  0  0  0  0  0  0  0  0
   11.9255    2.6908    7.3385 N   0  0  0  0  0  0  0  0  0  0  0  0
    8.3026    3.5137    3.1635 C   0  0  1  0  0  0  0  0  0  0  0  0
    6.6991    6.9443    0.9252 C   0  0  1  0  0  0  0  0  0  0  0  0
    5.6721   -0.8840    3.5365 C   0  0  2  0  0  0  0  0  0  0  0  0
    4.7920    0.0475    4.2633 N   0  0  0  0  0  0  0  0  0  0  0  0
   10.6765    0.5038    7.0166 C   0  0  0  0  0  0  0  0  0  0  0  0
    8.2675    3.5597    1.6055 C   0  0  2  0  0  0  0  0  0  0  0  0
    9.5413    3.8850    0.9967 O   0  0  0  0  0  0  0  0  0  0  0  0
    7.2888    8.3979    0.8345 C   0  0  2  0  0  0  0  0  0  0  0  0
    7.9648    8.7799    2.1104 N   0  0  0  0  0  0  0  0  0  0  0  0
    5.4853   -2.2687    4.1836 C   0  0  1  0  0  0  0  0  0  0  0  0
    4.1146   -2.6662    4.1210 O   0  0  0  0  0  0  0  0  0  0  0  0
    9.2608   -0.0762    6.6400 C   0  0  2  0  0  0  0  0  0  0  0  0
    9.2809   -1.5630    6.6895 N   0  0  0  0  0  0  0  0  0  0  0  0
    7.1415    4.5661    1.3633 C   0  0  2  0  0  0  0  0  0  0  0  0
    7.6516    5.9350    1.2823 O   0  0  0  0  0  0  0  0  0  0  0  0
    6.1118    9.4245    0.4771 C   0  0  1  0  0  0  0  0  0  0  0  0
    5.7488    9.2540   -0.9115 O   0  0  0  0  0  0  0  0  0  0  0  0
    6.4032   -3.2945    3.4805 C   0  0  2  0  0  0  0  0  0  0  0  0
    6.2317   -4.5713    4.0504 O   0  0  0  0  0  0  0  0  0  0  0  0
    8.8295    0.4005    5.1969 C   0  0  2  0  0  0  0  0  0  0  0  0
    6.1663    4.4036    2.5414 C   0  0  2  0  0  0  0  0  0  0  0  0
    7.0199    4.0078    3.6125 O   0  0  0  0  0  0  0  0  0  0  0  0
    4.8151    9.2293    1.3980 C   0  0  2  0  0  0  0  0  0  0  0  0
    5.1568    9.6501    2.7180 O   0  0  0  0  0  0  0  0  0  0  0  0
    7.8901   -2.8246    3.6136 C   0  0  2  0  0  0  0  0  0  0  0  0
    8.0403   -1.4944    3.0239 O   0  0  0  0  0  0  0  0  0  0  0  0
    8.7993    1.9384    5.0583 C   0  0  2  0  0  0  0  0  0  0  0  0
    8.5701    2.1900    3.6445 O   0  0  0  0  0  0  0  0  0  0  0  0
    5.0289    3.3598    2.3151 C   0  0  0  0  0  0  0  0  0  0  0  0
    5.6053    2.1011    1.9803 O   0  0  0  0  0  0  0  0  0  0  0  0
    4.3618    7.7205    1.4069 C   0  0  1  0  0  0  0  0  0  0  0  0
    5.5232    6.9470    1.8792 O   0  0  0  0  0  0  0  0  0  0  0  0
    8.8609   -3.7705    2.9453 C   0  0  0  0  0  0  0  0  0  0  0  0
    8.5309   -3.9237    1.5863 O   0  0  0  0  0  0  0  0  0  0  0  0
   10.1832    2.5587    5.5226 C   0  0  1  0  0  0  0  0  0  0  0  0
   10.1034    3.9867    5.5381 O   0  0  0  0  0  0  0  0  0  0  0  0
    3.0972    7.4296    2.3260 C   0  0  0  0  0  0  0  0  0  0  0  0
    1.8288    8.0813    1.8981 N   0  0  0  0  0  0  0  0  0  0  0  0
  1  2  1  1  0  0  0
  1  7  1  0  0  0  0
  1 30  1  0  0  0  0
  3  4  1  6  0  0  0
  3  9  1  0  0  0  0
  3 39  1  0  0  0  0
  5 10  1  0  0  0  0
  5 26  1  0  0  0  0
  5 32  1  6  0  0  0
  6 12  1  0  0  0  0
  6 36  1  0  0  0  0
  6 19  1  1  0  0  0
  7  8  1  1  0  0  0
  7 14  1  0  0  0  0
  9 16  1  0  0  0  0
 10 11  1  1  0  0  0
 10 18  1  0  0  0  0
 12 13  1  1  0  0  0
 12 20  1  0  0  0  0
 14 15  1  6  0  0  0
 14 22  1  0  0  0  0
 16 17  1  6  0  0  0
 16 24  1  0  0  0  0
 18 19  1  1  0  0  0
 18 25  1  0  0  0  0
 20 21  1  6  0  0  0
 20 27  1  0  0  0  0
 22 23  1  1  0  0  0
 22 29  1  0  0  0  0
 24  2  1  1  0  0  0
 24 31  1  0  0  0  0
 25 26  1  0  0  0  0
 25 33  1  6  0  0  0
 27 28  1  1  0  0  0
 27 35  1  0  0  0  0
 29 30  1  0  0  0  0
 29 37  1  6  0  0  0
 31 32  1  6  0  0  0
 31 39  1  0  0  0  0
 33 34  1  0  0  0  0
 35 36  1  0  0  0  0
 35 41  1  1  0  0  0
 37 38  1  0  0  0  0
 39 40  1  1  0  0  0
 41 42  1  0  0  0  0
M  END
>  <CHROM.1>
-176.87071268,172.93638754,-179.40150373,174.01469797,-149.22446218,55.67131619
57.12289978,171.53451280,64.76030104,7.18711848,2.73910234,3.23370935,1.32045821
0.55528868,2.97736753

>  <Name>
2o3w_lig

>  <RI>
0

>  <Rbt.Current_Directory>
/home/itssahil/PROJECTS/Mol_Feturizer/New_Systems/rnas/2o3w

>  <Rbt.Executable>
rbdock ($Id: //depot/dev/client3/rdock/2013.1/src/exe/rbdock.cxx#4 $)

>  <Rbt.Library>
libRbt.so (2013.1, Build901 2013/11/27)

>  <Rbt.Parameter_File>
/export/apps/rDock/src/rDock_2013.1_src/data/scripts/dock_solv.prm

>  <Rbt.Receptor>
prm/pocket_docking_2.prm

>  <SCORE>
-9.25976

>  <SCORE.INTER>
2.12387

>  <SCORE.INTER.CONST>
1

>  <SCORE.INTER.POLAR>
0

>  <SCORE.INTER.ROT>
9

>  <SCORE.INTER.SOLV>
14.8712

>  <SCORE.INTER.VDW>
-13.1412

>  <SCORE.INTER.norm>
0.0505683

>  <SCORE.INTRA>
-11.412

>  <SCORE.INTRA.DIHEDRAL>
-23.0422

>  <SCORE.INTRA.DIHEDRAL.0>
27.8999

>  <SCORE.INTRA.POLAR>
0

>  <SCORE.INTRA.POLAR.0>
0

>  <SCORE.INTRA.REPUL>
0

>  <SCORE.INTRA.REPUL.0>
0

>  <SCORE.INTRA.SOLV>
-2.70816

>  <SCORE.INTRA.SOLV.lig_0>
-104.479

>  <SCORE.INTRA.VDW>
1.46324

>  <SCORE.INTRA.VDW.0>
-6.17816

>  <SCORE.INTRA.norm>
-0.271713

>  <SCORE.RESTR>
0.0283209

>  <SCORE.RESTR.CAVITY>
0.0283209

>  <SCORE.RESTR.norm>
0.000674308

>  <SCORE.SYSTEM>
0

>  <SCORE.SYSTEM.CONST>
0

>  <SCORE.SYSTEM.DIHEDRAL>
0

>  <SCORE.SYSTEM.SOLV>
0

>  <SCORE.SYSTEM.norm>
0

>  <SCORE.heavy>
42

>  <SCORE.norm>
-0.220471

>  <RMSD>
1.090

$$$$
2o3w_lig
 OpenBabel11021811463D
libRbt.so/2013.1/901 2013/11/27
 42 45  0  0  0  0  0  0  0  0999 V2000
    7.1562   -0.4683    3.4046 C   0  0  2  0  0  0  0  0  0  0  0  0
    7.4869   -0.1715    4.7720 O   0  0  0  0  0  0  0  0  0  0  0  0
   10.6040    1.9790    6.8827 C   0  0  2  0  0  0  0  0  0  0  0  0
   11.9201    2.5707    7.2677 N   0  0  0  0  0  0  0  0  0  0  0  0
    8.3128    3.4869    3.0935 C   0  0  1  0  0  0  0  0  0  0  0  0
    6.7557    6.9542    0.8747 C   0  0  1  0  0  0  0  0  0  0  0  0
    5.6565   -0.8910    3.3805 C   0  0  2  0  0  0  0  0  0  0  0  0
    4.7901    0.0641    4.0930 N   0  0  0  0  0  0  0  0  0  0  0  0
   10.6567    0.3983    6.9051 C   0  0  0  0  0  0  0  0  0  0  0  0
    8.3292    3.5686    1.5366 C   0  0  2  0  0  0  0  0  0  0  0  0
    9.6196    3.9184    0.9785 O   0  0  0  0  0  0  0  0  0  0  0  0
    7.3422    8.4103    0.8079 C   0  0  2  0  0  0  0  0  0  0  0  0
    7.9867    8.7857    2.1020 N   0  0  0  0  0  0  0  0  0  0  0  0
    5.4273   -2.2687    4.0289 C   0  0  1  0  0  0  0  0  0  0  0  0
    4.0482   -2.6326    3.9492 O   0  0  0  0  0  0  0  0  0  0  0  0
    9.2384   -0.1652    6.5135 C   0  0  2  0  0  0  0  0  0  0  0  0
    9.2477   -1.6528    6.5386 N   0  0  0  0  0  0  0  0  0  0  0  0
    7.2029    4.5710    1.2799 C   0  0  2  0  0  0  0  0  0  0  0  0
    7.7031    5.9456    1.2474 O   0  0  0  0  0  0  0  0  0  0  0  0
    6.1704    9.4355    0.4299 C   0  0  1  0  0  0  0  0  0  0  0  0
    5.8408    9.2733   -0.9680 O   0  0  0  0  0  0  0  0  0  0  0  0
    6.3288   -3.3188    3.3407 C   0  0  2  0  0  0  0  0  0  0  0  0
    6.1185   -4.5893    3.9119 O   0  0  0  0  0  0  0  0  0  0  0  0
    8.8165    0.3381    5.0767 C   0  0  2  0  0  0  0  0  0  0  0  0
    6.1905    4.3732    2.4207 C   0  0  2  0  0  0  0  0  0  0  0  0
    7.0115    3.9599    3.5105 O   0  0  0  0  0  0  0  0  0  0  0  0
    4.8531    9.2295    1.3186 C   0  0  2  0  0  0  0  0  0  0  0  0
    5.1621    9.6424    2.6492 O   0  0  0  0  0  0  0  0  0  0  0  0
    7.8250   -2.8851    3.4922 C   0  0  2  0  0  0  0  0  0  0  0  0
    8.0156   -1.5608    2.9010 O   0  0  0  0  0  0  0  0  0  0  0  0
    8.7978    1.8783    4.9632 C   0  0  2  0  0  0  0  0  0  0  0  0
    8.5761    2.1547    3.5529 O   0  0  0  0  0  0  0  0  0  0  0  0
    5.0708    3.3257    2.1326 C   0  0  0  0  0  0  0  0  0  0  0  0
    5.6694    2.0784    1.7936 O   0  0  0  0  0  0  0  0  0  0  0  0
    4.4050    7.7192    1.3065 C   0  0  1  0  0  0  0  0  0  0  0  0
    5.5576    6.9464    1.8008 O   0  0  0  0  0  0  0  0  0  0  0  0
    8.7810   -3.8565    2.8394 C   0  0  0  0  0  0  0  0  0  0  0  0
    8.5127   -3.9488    1.4615 O   0  0  0  0  0  0  0  0  0  0  0  0
   10.1842    2.4809    5.4431 C   0  0  1  0  0  0  0  0  0  0  0  0
   10.1146    3.9090    5.4817 O   0  0  0  0  0  0  0  0  0  0  0  0
    3.1201    7.4178    2.1935 C   0  0  0  0  0  0  0  0  0  0  0  0
    2.5689    6.0396    2.0783 N   0  0  0  0  0  0  0  0  0  0  0  0
  1  2  1  1  0  0  0
  1  7  1  0  0  0  0
  1 30  1  0  0  0  0
  3  4  1  6  0  0  0
  3  9  1  0  0  0  0
  3 39  1  0  0  0  0
  5 10  1  0  0  0  0
  5 26  1  0  0  0  0
  5 32  1  6  0  0  0
  6 12  1  0  0  0  0
  6 36  1  0  0  0  0
  6 19  1  1  0  0  0
  7  8  1  1  0  0  0
  7 14  1  0  0  0  0
  9 16  1  0  0  0  0
 10 11  1  1  0  0  0
 10 18  1  0  0  0  0
 12 13  1  1  0  0  0
 12 20  1  0  0  0  0
 14 15  1  6  0  0  0
 14 22  1  0  0  0  0
 16 17  1  6  0  0  0
 16 24  1  0  0  0  0
 18 19  1  1  0  0  0
 18 25  1  0  0  0  0
 20 21  1  6  0  0  0
 20 27  1  0  0  0  0
 22 23  1  1  0  0  0
 22 29  1  0  0  0  0
 24  2  1  1  0  0  0
 24 31  1  0  0  0  0
 25 26  1  0  0  0  0
 25 33  1  6  0  0  0
 27 28  1  1  0  0  0
 27 35  1  0  0  0  0
 29 30  1  0  0  0  0
 29 37  1  6  0  0  0
 31 32  1  6  0  0  0
 31 39  1  0  0  0  0
 33 34  1  0  0  0  0
 35 36  1  0  0  0  0
 35 41  1  1  0  0  0
 37 38  1  0  0  0  0
 39 40  1  1  0  0  0
 41 42  1  0  0  0  0
M  END
>  <CHROM.1>
-176.03939491,171.18287730,-178.17387869,173.69531465,-148.22512570,55.88957318
60.40578548,171.19107380,172.91262637,7.20896567,2.66274436,3.13833638,1.34601652
0.56820843,2.97101315

>  <Name>
2o3w_lig

>  <RI>
0

>  <Rbt.Current_Directory>
/home/itssahil/PROJECTS/Mol_Feturizer/New_Systems/rnas/2o3w

>  <Rbt.Executable>
rbdock ($Id: //depot/dev/client3/rdock/2013.1/src/exe/rbdock.cxx#4 $)

>  <Rbt.Library>
libRbt.so (2013.1, Build901 2013/11/27)

>  <Rbt.Parameter_File>
/export/apps/rDock/src/rDock_2013.1_src/data/scripts/dock_solv.prm

>  <Rbt.Receptor>
prm/pocket_docking_2.prm

>  <SCORE>
-9.43894

>  <SCORE.INTER>
1.58273

>  <SCORE.INTER.CONST>
1

>  <SCORE.INTER.POLAR>
0

>  <SCORE.INTER.ROT>
9

>  <SCORE.INTER.SOLV>
10.5186

>  <SCORE.INTER.VDW>
-12.051

>  <SCORE.INTER.norm>
0.0376841

>  <SCORE.INTRA>
-11.0557

>  <SCORE.INTRA.DIHEDRAL>
-22.571

>  <SCORE.INTRA.DIHEDRAL.0>
27.8999

>  <SCORE.INTRA.POLAR>
0

>  <SCORE.INTRA.POLAR.0>
0

>  <SCORE.INTRA.REPUL>
0

>  <SCORE.INTRA.REPUL.0>
0

>  <SCORE.INTRA.SOLV>
-1.82651

>  <SCORE.INTRA.SOLV.lig_0>
-104.479

>  <SCORE.INTRA.VDW>
1.14309

>  <SCORE.INTRA.VDW.0>
-6.17816

>  <SCORE.INTRA.norm>
-0.263231

>  <SCORE.RESTR>
0.0340052

>  <SCORE.RESTR.CAVITY>
0.0340052

>  <SCORE.RESTR.norm>
0.000809648

>  <SCORE.SYSTEM>
0

>  <SCORE.SYSTEM.CONST>
0

>  <SCORE.SYSTEM.DIHEDRAL>
0

>  <SCORE.SYSTEM.SOLV>
0

>  <SCORE.SYSTEM.norm>
0

>  <SCORE.heavy>
42

>  <SCORE.norm>
-0.224737

>  <RMSD>
1.091

$$$$
2o3w_lig
 OpenBabel11021811463D
libRbt.so/2013.1/901 2013/11/27
 42 45  0  0  0  0  0  0  0  0999 V2000
    6.9947   -0.1570    3.3891 C   0  0  2  0  0  0  0  0  0  0  0  0
    7.4440   -0.1151    4.7542 O   0  0  0  0  0  0  0  0  0  0  0  0
   10.6461    1.9689    6.8036 C   0  0  2  0  0  0  0  0  0  0  0  0
   11.9820    2.5307    7.1641 N   0  0  0  0  0  0  0  0  0  0  0  0
    8.2993    3.5126    3.0513 C   0  0  1  0  0  0  0  0  0  0  0  0
    6.7237    6.9847    0.8854 C   0  0  1  0  0  0  0  0  0  0  0  0
    5.5417   -0.7199    3.4054 C   0  0  2  0  0  0  0  0  0  0  0  0
    4.6798   -0.0276    4.3793 N   0  0  0  0  0  0  0  0  0  0  0  0
   10.6620    0.3875    6.8316 C   0  0  0  0  0  0  0  0  0  0  0  0
    8.3236    3.5996    1.4948 C   0  0  2  0  0  0  0  0  0  0  0  0
    9.6151    3.9579    0.9446 O   0  0  0  0  0  0  0  0  0  0  0  0
    7.3077    8.4406    0.7953 C   0  0  2  0  0  0  0  0  0  0  0  0
    8.0126    8.8118    2.0587 N   0  0  0  0  0  0  0  0  0  0  0  0
    5.4993   -2.2178    3.7597 C   0  0  1  0  0  0  0  0  0  0  0  0
    4.1548   -2.6994    3.7240 O   0  0  0  0  0  0  0  0  0  0  0  0
    9.2244   -0.1438    6.4661 C   0  0  2  0  0  0  0  0  0  0  0  0
    9.1990   -1.6311    6.4971 N   0  0  0  0  0  0  0  0  0  0  0  0
    7.1935    4.5971    1.2355 C   0  0  2  0  0  0  0  0  0  0  0  0
    7.6867    5.9743    1.2102 O   0  0  0  0  0  0  0  0  0  0  0  0
    6.1203    9.4676    0.4757 C   0  0  1  0  0  0  0  0  0  0  0  0
    5.7252    9.3098   -0.9056 O   0  0  0  0  0  0  0  0  0  0  0  0
    6.4065   -3.0039    2.7860 C   0  0  2  0  0  0  0  0  0  0  0  0
    6.3656   -4.3795    3.0867 O   0  0  0  0  0  0  0  0  0  0  0  0
    8.7902    0.3641    5.0345 C   0  0  2  0  0  0  0  0  0  0  0  0
    6.1761    4.3903    2.3702 C   0  0  2  0  0  0  0  0  0  0  0  0
    6.9934    3.9775    3.4629 O   0  0  0  0  0  0  0  0  0  0  0  0
    4.8460    9.2601    1.4247 C   0  0  2  0  0  0  0  0  0  0  0  0
    5.2175    9.6688    2.7405 O   0  0  0  0  0  0  0  0  0  0  0  0
    7.8688   -2.4569    2.8964 C   0  0  2  0  0  0  0  0  0  0  0  0
    7.8835   -1.0267    2.5895 O   0  0  0  0  0  0  0  0  0  0  0  0
    8.8059    1.9038    4.9151 C   0  0  2  0  0  0  0  0  0  0  0  0
    8.5671    2.1802    3.5076 O   0  0  0  0  0  0  0  0  0  0  0  0
    5.0633    3.3380    2.0727 C   0  0  0  0  0  0  0  0  0  0  0  0
    5.6684    2.0779    1.7991 O   0  0  0  0  0  0  0  0  0  0  0  0
    4.3965    7.7501    1.4294 C   0  0  1  0  0  0  0  0  0  0  0  0
    5.5705    6.9750    1.8667 O   0  0  0  0  0  0  0  0  0  0  0  0
    8.8272   -3.1680    1.9693 C   0  0  0  0  0  0  0  0  0  0  0  0
    8.9468   -4.5200    2.3395 O   0  0  0  0  0  0  0  0  0  0  0  0
   10.2140    2.4753    5.3692 C   0  0  1  0  0  0  0  0  0  0  0  0
   10.1787    3.9047    5.4032 O   0  0  0  0  0  0  0  0  0  0  0  0
    3.1545    7.4470    2.3750 C   0  0  0  0  0  0  0  0  0  0  0  0
    1.8719    8.0891    1.9761 N   0  0  0  0  0  0  0  0  0  0  0  0
  1  2  1  1  0  0  0
  1  7  1  0  0  0  0
  1 30  1  0  0  0  0
  3  4  1  6  0  0  0
  3  9  1  0  0  0  0
  3 39  1  0  0  0  0
  5 10  1  0  0  0  0
  5 26  1  0  0  0  0
  5 32  1  6  0  0  0
  6 12  1  0  0  0  0
  6 36  1  0  0  0  0
  6 19  1  1  0  0  0
  7  8  1  1  0  0  0
  7 14  1  0  0  0  0
  9 16  1  0  0  0  0
 10 11  1  1  0  0  0
 10 18  1  0  0  0  0
 12 13  1  1  0  0  0
 12 20  1  0  0  0  0
 14 15  1  6  0  0  0
 14 22  1  0  0  0  0
 16 17  1  6  0  0  0
 16 24  1  0  0  0  0
 18 19  1  1  0  0  0
 18 25  1  0  0  0  0
 20 21  1  6  0  0  0
 20 27  1  0  0  0  0
 22 23  1  1  0  0  0
 22 29  1  0  0  0  0
 24  2  1  1  0  0  0
 24 31  1  0  0  0  0
 25 26  1  0  0  0  0
 25 33  1  6  0  0  0
 27 28  1  1  0  0  0
 27 35  1  0  0  0  0
 29 30  1  0  0  0  0
 29 37  1  6  0  0  0
 31 32  1  6  0  0  0
 31 39  1  0  0  0  0
 33 34  1  0  0  0  0
 35 36  1  0  0  0  0
 35 41  1  1  0  0  0
 37 38  1  0  0  0  0
 39 40  1  1  0  0  0
 41 42  1  0  0  0  0
M  END
>  <CHROM.1>
179.42331330,170.09365790,-176.97116855,175.98163596,-160.39535222,58.81313204
-64.68725029,169.85233577,65.32191780,7.20358967,2.76994984,3.07002418,1.31398955
0.55679854,3.00751690

>  <Name>
2o3w_lig

>  <RI>
0

>  <Rbt.Current_Directory>
/home/itssahil/PROJECTS/Mol_Feturizer/New_Systems/rnas/2o3w

>  <Rbt.Executable>
rbdock ($Id: //depot/dev/client3/rdock/2013.1/src/exe/rbdock.cxx#4 $)

>  <Rbt.Library>
libRbt.so (2013.1, Build901 2013/11/27)

>  <Rbt.Parameter_File>
/export/apps/rDock/src/rDock_2013.1_src/data/scripts/dock_solv.prm

>  <Rbt.Receptor>
prm/pocket_docking_2.prm

>  <SCORE>
-10.7697

>  <SCORE.INTER>
1.59473

>  <SCORE.INTER.CONST>
1

>  <SCORE.INTER.POLAR>
0

>  <SCORE.INTER.ROT>
9

>  <SCORE.INTER.SOLV>
14.6608

>  <SCORE.INTER.VDW>
-13.4238

>  <SCORE.INTER.norm>
0.0379698

>  <SCORE.INTRA>
-12.3671

>  <SCORE.INTRA.DIHEDRAL>
-24.7508

>  <SCORE.INTRA.DIHEDRAL.0>
27.8999

>  <SCORE.INTRA.POLAR>
0

>  <SCORE.INTRA.POLAR.0>
0

>  <SCORE.INTRA.REPUL>
0

>  <SCORE.INTRA.REPUL.0>
0

>  <SCORE.INTRA.SOLV>
-3.64945

>  <SCORE.INTRA.SOLV.lig_0>
-104.479

>  <SCORE.INTRA.VDW>
1.83309

>  <SCORE.INTRA.VDW.0>
-6.17816

>  <SCORE.INTRA.norm>
-0.294454

>  <SCORE.RESTR>
0.00267882

>  <SCORE.RESTR.CAVITY>
0.00267882

>  <SCORE.RESTR.norm>
6.37813e-05

>  <SCORE.SYSTEM>
0

>  <SCORE.SYSTEM.CONST>
0

>  <SCORE.SYSTEM.DIHEDRAL>
0

>  <SCORE.SYSTEM.SOLV>
0

>  <SCORE.SYSTEM.norm>
0

>  <SCORE.heavy>
42

>  <SCORE.norm>
-0.25642

>  <RMSD>
1.105

$$$$
2o3w_lig
 OpenBabel11021811463D
libRbt.so/2013.1/901 2013/11/27
 42 45  0  0  0  0  0  0  0  0999 V2000
    7.4728    0.8197    3.6298 C   0  0  2  0  0  0  0  0  0  0  0  0
    7.8151    1.1187    4.9939 O   0  0  0  0  0  0  0  0  0  0  0  0
   11.1834    2.7990    7.1450 C   0  0  2  0  0  0  0  0  0  0  0  0
   12.5663    3.1935    7.5479 N   0  0  0  0  0  0  0  0  0  0  0  0
    8.7613    4.5322    3.3524 C   0  0  1  0  0  0  0  0  0  0  0  0
    7.1023    7.8046    0.8375 C   0  0  1  0  0  0  0  0  0  0  0  0
    5.9231    0.6672    3.5725 C   0  0  2  0  0  0  0  0  0  0  0  0
    5.2217    1.7930    4.2138 N   0  0  0  0  0  0  0  0  0  0  0  0
   11.0043    1.2276    7.1711 C   0  0  0  0  0  0  0  0  0  0  0  0
    9.2119    4.8512    1.8943 C   0  0  2  0  0  0  0  0  0  0  0  0
   10.4514    5.5967    1.8103 O   0  0  0  0  0  0  0  0  0  0  0  0
    6.6952    9.1490    1.5416 C   0  0  2  0  0  0  0  0  0  0  0  0
    6.1679    8.8931    2.9155 N   0  0  0  0  0  0  0  0  0  0  0  0
    5.4360   -0.6159    4.2707 C   0  0  1  0  0  0  0  0  0  0  0  0
    4.0167   -0.7345    4.1595 O   0  0  0  0  0  0  0  0  0  0  0  0
    9.5245    0.8758    6.7603 C   0  0  2  0  0  0  0  0  0  0  0  0
    9.3159   -0.5970    6.7882 N   0  0  0  0  0  0  0  0  0  0  0  0
    7.9727    5.5632    1.3495 C   0  0  2  0  0  0  0  0  0  0  0  0
    8.0420    7.0080    1.5696 O   0  0  0  0  0  0  0  0  0  0  0  0
    5.6103    9.9100    0.6412 C   0  0  1  0  0  0  0  0  0  0  0  0
    6.2720   10.4669   -0.5167 O   0  0  0  0  0  0  0  0  0  0  0  0
    6.1544   -1.8402    3.6590 C   0  0  2  0  0  0  0  0  0  0  0  0
    5.7070   -3.0249    4.2761 O   0  0  0  0  0  0  0  0  0  0  0  0
    9.2006    1.4298    5.3166 C   0  0  2  0  0  0  0  0  0  0  0  0
    6.7708    4.9447    2.0833 C   0  0  2  0  0  0  0  0  0  0  0  0
    7.3164    4.5917    3.3522 O   0  0  0  0  0  0  0  0  0  0  0  0
    4.4147    8.9542    0.1673 C   0  0  2  0  0  0  0  0  0  0  0  0
    3.6384    8.6311    1.3203 O   0  0  0  0  0  0  0  0  0  0  0  0
    7.6993   -1.6702    3.8430 C   0  0  2  0  0  0  0  0  0  0  0  0
    8.1374   -0.4300    3.2028 O   0  0  0  0  0  0  0  0  0  0  0  0
    9.4087    2.9557    5.2001 C   0  0  2  0  0  0  0  0  0  0  0  0
    9.2494    3.2561    3.7863 O   0  0  0  0  0  0  0  0  0  0  0  0
    6.1374    3.7045    1.3800 C   0  0  0  0  0  0  0  0  0  0  0  0
    7.1555    2.7453    1.1109 O   0  0  0  0  0  0  0  0  0  0  0  0
    4.9814    7.6413   -0.4940 C   0  0  1  0  0  0  0  0  0  0  0  0
    5.8500    7.0155    0.5180 O   0  0  0  0  0  0  0  0  0  0  0  0
    8.4843   -2.8250    3.2651 C   0  0  0  0  0  0  0  0  0  0  0  0
    8.1598   -3.0007    1.9075 O   0  0  0  0  0  0  0  0  0  0  0  0
   10.8615    3.3512    5.6987 C   0  0  1  0  0  0  0  0  0  0  0  0
   11.0008    4.7743    5.7338 O   0  0  0  0  0  0  0  0  0  0  0  0
    3.8598    6.6171   -0.9647 C   0  0  0  0  0  0  0  0  0  0  0  0
    2.9571    6.1157    0.1077 N   0  0  0  0  0  0  0  0  0  0  0  0
  1  2  1  1  0  0  0
  1  7  1  0  0  0  0
  1 30  1  0  0  0  0
  3  4  1  6  0  0  0
  3  9  1  0  0  0  0
  3 39  1  0  0  0  0
  5 10  1  0  0  0  0
  5 26  1  0  0  0  0
  5 32  1  6  0  0  0
  6 12  1  0  0  0  0
  6 36  1  0  0  0  0
  6 19  1  1  0  0  0
  7  8  1  1  0  0  0
  7 14  1  0  0  0  0
  9 16  1  0  0  0  0
 10 11  1  1  0  0  0
 10 18  1  0  0  0  0
 12 13  1  1  0  0  0
 12 20  1  0  0  0  0
 14 15  1  6  0  0  0
 14 22  1  0  0  0  0
 16 17  1  6  0  0  0
 16 24  1  0  0  0  0
 18 19  1  1  0  0  0
 18 25  1  0  0  0  0
 20 21  1  6  0  0  0
 20 27  1  0  0  0  0
 22 23  1  1  0  0  0
 22 29  1  0  0  0  0
 24  2  1  1  0  0  0
 24 31  1  0  0  0  0
 25 26  1  0  0  0  0
 25 33  1  6  0  0  0
 27 28  1  1  0  0  0
 27 35  1  0  0  0  0
 29 30  1  0  0  0  0
 29 37  1  6  0  0  0
 31 32  1  6  0  0  0
 31 39  1  0  0  0  0
 33 34  1  0  0  0  0
 35 36  1  0  0  0  0
 35 41  1  1  0  0  0
 37 38  1  0  0  0  0
 39 40  1  1  0  0  0
 41 42  1  0  0  0  0
M  END
>  <CHROM.1>
-174.66402556,156.45690537,151.39261691,166.00535425,-145.96004014,52.81650867
55.77652883,150.70028350,-59.71934008,7.44061463,3.51676138,3.07482860,1.24112306
0.61598508,2.87977186

>  <Name>
2o3w_lig

>  <RI>
0

>  <Rbt.Current_Directory>
/home/itssahil/PROJECTS/Mol_Feturizer/New_Systems/rnas/2o3w

>  <Rbt.Executable>
rbdock ($Id: //depot/dev/client3/rdock/2013.1/src/exe/rbdock.cxx#4 $)

>  <Rbt.Library>
libRbt.so (2013.1, Build901 2013/11/27)

>  <Rbt.Parameter_File>
/export/apps/rDock/src/rDock_2013.1_src/data/scripts/dock_solv.prm

>  <Rbt.Receptor>
prm/pocket_docking_2.prm

>  <SCORE>
-9.37961

>  <SCORE.INTER>
-3.68308

>  <SCORE.INTER.CONST>
1

>  <SCORE.INTER.POLAR>
-0.998183

>  <SCORE.INTER.ROT>
9

>  <SCORE.INTER.SOLV>
9.40044

>  <SCORE.INTER.VDW>
-11.8616

>  <SCORE.INTER.norm>
-0.0876924

>  <SCORE.INTRA>
-5.70235

>  <SCORE.INTRA.DIHEDRAL>
-12.9689

>  <SCORE.INTRA.DIHEDRAL.0>
27.8999

>  <SCORE.INTRA.POLAR>
0

>  <SCORE.INTRA.POLAR.0>
0

>  <SCORE.INTRA.REPUL>
0

>  <SCORE.INTRA.REPUL.0>
0

>  <SCORE.INTRA.SOLV>
0.443846

>  <SCORE.INTRA.SOLV.lig_0>
-104.479

>  <SCORE.INTRA.VDW>
0.56019

>  <SCORE.INTRA.VDW.0>
-6.17816

>  <SCORE.INTRA.norm>
-0.13577

>  <SCORE.RESTR>
0.00581902

>  <SCORE.RESTR.CAVITY>
0.00581902

>  <SCORE.RESTR.norm>
0.000138548

>  <SCORE.SYSTEM>
0

>  <SCORE.SYSTEM.CONST>
0

>  <SCORE.SYSTEM.DIHEDRAL>
0

>  <SCORE.SYSTEM.SOLV>
0

>  <SCORE.SYSTEM.norm>
0

>  <SCORE.heavy>
42

>  <SCORE.norm>
-0.223324

>  <RMSD>
1.126

$$$$
2o3w_lig
 OpenBabel11021811463D
libRbt.so/2013.1/901 2013/11/27
 42 45  0  0  0  0  0  0  0  0999 V2000
    7.2650    1.0193    3.5488 C   0  0  2  0  0  0  0  0  0  0  0  0
    7.7786    1.0984    4.8895 O   0  0  0  0  0  0  0  0  0  0  0  0
   11.4528    2.4925    6.7206 C   0  0  2  0  0  0  0  0  0  0  0  0
   12.8936    2.7757    6.9930 N   0  0  0  0  0  0  0  0  0  0  0  0
    8.7635    4.4269    3.1865 C   0  0  1  0  0  0  0  0  0  0  0  0
    7.1345    7.8163    0.7878 C   0  0  1  0  0  0  0  0  0  0  0  0
    5.7145    0.9125    3.6611 C   0  0  2  0  0  0  0  0  0  0  0  0
    5.1409    1.9426    4.5445 N   0  0  0  0  0  0  0  0  0  0  0  0
   11.1562    0.9393    6.7575 C   0  0  0  0  0  0  0  0  0  0  0  0
    9.2145    4.8153    1.7455 C   0  0  2  0  0  0  0  0  0  0  0  0
   10.4522    5.5668    1.6979 O   0  0  0  0  0  0  0  0  0  0  0  0
    6.7532    9.1600    1.5074 C   0  0  2  0  0  0  0  0  0  0  0  0
    6.1966    8.8971    2.8682 N   0  0  0  0  0  0  0  0  0  0  0  0
    5.2613   -0.4509    4.2149 C   0  0  1  0  0  0  0  0  0  0  0  0
    3.8352   -0.5190    4.2632 O   0  0  0  0  0  0  0  0  0  0  0  0
    9.6217    0.7062    6.4864 C   0  0  2  0  0  0  0  0  0  0  0  0
    9.3036   -0.7466    6.5283 N   0  0  0  0  0  0  0  0  0  0  0  0
    7.9740    5.5491    1.2337 C   0  0  2  0  0  0  0  0  0  0  0  0
    8.0396    6.9821    1.5216 O   0  0  0  0  0  0  0  0  0  0  0  0
    5.7047    9.9653    0.6024 C   0  0  1  0  0  0  0  0  0  0  0  0
    6.4004   10.5220   -0.5355 O   0  0  0  0  0  0  0  0  0  0  0  0
    5.8513   -1.5832    3.3437 C   0  0  2  0  0  0  0  0  0  0  0  0
    5.4319   -2.8379    3.8278 O   0  0  0  0  0  0  0  0  0  0  0  0
    9.2080    1.2991    5.0817 C   0  0  2  0  0  0  0  0  0  0  0  0
    6.7731    4.8939    1.9364 C   0  0  2  0  0  0  0  0  0  0  0  0
    7.3185    4.4828    3.1878 O   0  0  0  0  0  0  0  0  0  0  0  0
    4.4910    9.0511    0.0938 C   0  0  2  0  0  0  0  0  0  0  0  0
    3.6873    8.7313    1.2288 O   0  0  0  0  0  0  0  0  0  0  0  0
    7.4128   -1.4783    3.3590 C   0  0  2  0  0  0  0  0  0  0  0  0
    7.8225   -0.1651    2.8617 O   0  0  0  0  0  0  0  0  0  0  0  0
    9.5215    2.8058    4.9518 C   0  0  2  0  0  0  0  0  0  0  0  0
    9.2544    3.1329    3.5603 O   0  0  0  0  0  0  0  0  0  0  0  0
    6.1433    3.6866    1.1748 C   0  0  0  0  0  0  0  0  0  0  0  0
    7.1388    2.6886    0.9699 O   0  0  0  0  0  0  0  0  0  0  0  0
    5.0319    7.7336   -0.5798 C   0  0  1  0  0  0  0  0  0  0  0  0
    5.8662    7.0677    0.4355 O   0  0  0  0  0  0  0  0  0  0  0  0
    8.0757   -2.5487    2.5231 C   0  0  0  0  0  0  0  0  0  0  0  0
    7.8343   -3.8178    3.0802 O   0  0  0  0  0  0  0  0  0  0  0  0
   11.0407    3.0836    5.3130 C   0  0  1  0  0  0  0  0  0  0  0  0
   11.2920    4.4913    5.3401 O   0  0  0  0  0  0  0  0  0  0  0  0
    3.8903    6.7488   -1.0851 C   0  0  0  0  0  0  0  0  0  0  0  0
    2.8983    6.3335   -0.0556 N   0  0  0  0  0  0  0  0  0  0  0  0
  1  2  1  1  0  0  0
  1  7  1  0  0  0  0
  1 30  1  0  0  0  0
  3  4  1  6  0  0  0
  3  9  1  0  0  0  0
  3 39  1  0  0  0  0
  5 10  1  0  0  0  0
  5 26  1  0  0  0  0
  5 32  1  6  0  0  0
  6 12  1  0  0  0  0
  6 36  1  0  0  0  0
  6 19  1  1  0  0  0
  7  8  1  1  0  0  0
  7 14  1  0  0  0  0
  9 16  1  0  0  0  0
 10 11  1  1  0  0  0
 10 18  1  0  0  0  0
 12 13  1  1  0  0  0
 12 20  1  0  0  0  0
 14 15  1  6  0  0  0
 14 22  1  0  0  0  0
 16 17  1  6  0  0  0
 16 24  1  0  0  0  0
 18 19  1  1  0  0  0
 18 25  1  0  0  0  0
 20 21  1  6  0  0  0
 20 27  1  0  0  0  0
 22 23  1  1  0  0  0
 22 29  1  0  0  0  0
 24  2  1  1  0  0  0
 24 31  1  0  0  0  0
 25 26  1  0  0  0  0
 25 33  1  6  0  0  0
 27 28  1  1  0  0  0
 27 35  1  0  0  0  0
 29 30  1  0  0  0  0
 29 37  1  6  0  0  0
 31 32  1  6  0  0  0
 31 39  1  0  0  0  0
 33 34  1  0  0  0  0
 35 36  1  0  0  0  0
 35 41  1  1  0  0  0
 37 38  1  0  0  0  0
 39 40  1  1  0  0  0
 41 42  1  0  0  0  0
M  END
>  <CHROM.1>
-175.84419146,151.15411409,153.97076778,163.62484278,-154.14655263,58.09425572
-65.42143499,147.53310258,-55.48565553,7.41830297,3.50082905,2.92844601,1.26734442
0.53670820,2.85532653

>  <Name>
2o3w_lig

>  <RI>
0

>  <Rbt.Current_Directory>
/home/itssahil/PROJECTS/Mol_Feturizer/New_Systems/rnas/2o3w

>  <Rbt.Executable>
rbdock ($Id: //depot/dev/client3/rdock/2013.1/src/exe/rbdock.cxx#4 $)

>  <Rbt.Library>
libRbt.so (2013.1, Build901 2013/11/27)

>  <Rbt.Parameter_File>
/export/apps/rDock/src/rDock_2013.1_src/data/scripts/dock_solv.prm

>  <Rbt.Receptor>
prm/pocket_docking_2.prm

>  <SCORE>
-10.6409

>  <SCORE.INTER>
-4.33251

>  <SCORE.INTER.CONST>
1

>  <SCORE.INTER.POLAR>
-0.989272

>  <SCORE.INTER.ROT>
9

>  <SCORE.INTER.SOLV>
9.16202

>  <SCORE.INTER.VDW>
-12.2448

>  <SCORE.INTER.norm>
-0.103155

>  <SCORE.INTRA>
-6.30836

>  <SCORE.INTRA.DIHEDRAL>
-13.1834

>  <SCORE.INTRA.DIHEDRAL.0>
27.8999

>  <SCORE.INTRA.POLAR>
0

>  <SCORE.INTRA.POLAR.0>
0

>  <SCORE.INTRA.REPUL>
0

>  <SCORE.INTRA.REPUL.0>
0

>  <SCORE.INTRA.SOLV>
-0.788146

>  <SCORE.INTRA.SOLV.lig_0>
-104.479

>  <SCORE.INTRA.VDW>
0.67743

>  <SCORE.INTRA.VDW.0>
-6.17816

>  <SCORE.INTRA.norm>
-0.150199

>  <SCORE.RESTR>
0

>  <SCORE.RESTR.CAVITY>
0

>  <SCORE.RESTR.norm>
0

>  <SCORE.SYSTEM>
0

>  <SCORE.SYSTEM.CONST>
0

>  <SCORE.SYSTEM.DIHEDRAL>
0

>  <SCORE.SYSTEM.SOLV>
0

>  <SCORE.SYSTEM.norm>
0

>  <SCORE.heavy>
42

>  <SCORE.norm>
-0.253354

>  <RMSD>
1.132

$$$$
2o3w_lig
 OpenBabel11021811463D
libRbt.so/2013.1/901 2013/11/27
 42 45  0  0  0  0  0  0  0  0999 V2000
    6.7616    0.0395    3.1693 C   0  0  2  0  0  0  0  0  0  0  0  0
    7.1487    0.0932    4.5530 O   0  0  0  0  0  0  0  0  0  0  0  0
   10.2047    2.2623    6.7328 C   0  0  2  0  0  0  0  0  0  0  0  0
   11.5096    2.8564    7.1508 N   0  0  0  0  0  0  0  0  0  0  0  0
    7.9927    3.7253    2.8638 C   0  0  1  0  0  0  0  0  0  0  0  0
    6.5843    7.1313    0.5060 C   0  0  1  0  0  0  0  0  0  0  0  0
    5.2864   -0.4607    3.1286 C   0  0  2  0  0  0  0  0  0  0  0  0
    4.4112    0.2893    4.0462 N   0  0  0  0  0  0  0  0  0  0  0  0
   10.2540    0.6819    6.7741 C   0  0  0  0  0  0  0  0  0  0  0  0
    8.3320    3.8710    1.3491 C   0  0  2  0  0  0  0  0  0  0  0  0
    9.6722    4.3563    1.0894 O   0  0  0  0  0  0  0  0  0  0  0  0
    7.0024    8.6387    0.6531 C   0  0  2  0  0  0  0  0  0  0  0  0
    7.3547    8.9589    2.0688 N   0  0  0  0  0  0  0  0  0  0  0  0
    5.1626   -1.9470    3.5113 C   0  0  1  0  0  0  0  0  0  0  0  0
    3.8016   -2.3719    3.4220 O   0  0  0  0  0  0  0  0  0  0  0  0
    8.8471    0.1162    6.3462 C   0  0  2  0  0  0  0  0  0  0  0  0
    8.8530   -1.3711    6.3879 N   0  0  0  0  0  0  0  0  0  0  0  0
    7.1957    4.7791    0.8762 C   0  0  2  0  0  0  0  0  0  0  0  0
    7.5579    6.1928    0.9803 O   0  0  0  0  0  0  0  0  0  0  0  0
    5.8087    9.5717    0.1320 C   0  0  1  0  0  0  0  0  0  0  0  0
    5.7582    9.5036   -1.3108 O   0  0  0  0  0  0  0  0  0  0  0  0
    6.0789   -2.7927    2.5979 C   0  0  2  0  0  0  0  0  0  0  0  0
    5.9644   -4.1582    2.9245 O   0  0  0  0  0  0  0  0  0  0  0  0
    8.4694    0.6042    4.8919 C   0  0  2  0  0  0  0  0  0  0  0  0
    5.9874    4.4463    1.7677 C   0  0  2  0  0  0  0  0  0  0  0  0
    6.5934    4.0637    3.0001 O   0  0  0  0  0  0  0  0  0  0  0  0
    4.3847    9.1566    0.7384 C   0  0  2  0  0  0  0  0  0  0  0  0
    4.3985    9.4771    2.1289 O   0  0  0  0  0  0  0  0  0  0  0  0
    7.5569   -2.3059    2.7659 C   0  0  2  0  0  0  0  0  0  0  0  0
    7.6479   -0.8850    2.4307 O   0  0  0  0  0  0  0  0  0  0  0  0
    8.4568    2.1430    4.7611 C   0  0  2  0  0  0  0  0  0  0  0  0
    8.2781    2.4043    3.3418 O   0  0  0  0  0  0  0  0  0  0  0  0
    5.0596    3.3160    1.2237 C   0  0  0  0  0  0  0  0  0  0  0  0
    3.9223    3.1918    2.0722 O   0  0  0  0  0  0  0  0  0  0  0  0
    4.1223    7.6163    0.5364 C   0  0  1  0  0  0  0  0  0  0  0  0
    5.2474    6.9210    1.1853 O   0  0  0  0  0  0  0  0  0  0  0  0
    8.5253   -3.0778    1.8999 C   0  0  0  0  0  0  0  0  0  0  0  0
    8.4916   -4.4441    2.2337 O   0  0  0  0  0  0  0  0  0  0  0  0
    9.8292    2.7490    5.2758 C   0  0  1  0  0  0  0  0  0  0  0  0
    9.7609    4.1775    5.2967 O   0  0  0  0  0  0  0  0  0  0  0  0
    2.7413    7.1099    1.1406 C   0  0  0  0  0  0  0  0  0  0  0  0
    2.5749    7.2979    2.6081 N   0  0  0  0  0  0  0  0  0  0  0  0
  1  2  1  1  0  0  0
  1  7  1  0  0  0  0
  1 30  1  0  0  0  0
  3  4  1  6  0  0  0
  3  9  1  0  0  0  0
  3 39  1  0  0  0  0
  5 10  1  0  0  0  0
  5 26  1  0  0  0  0
  5 32  1  6  0  0  0
  6 12  1  0  0  0  0
  6 36  1  0  0  0  0
  6 19  1  1  0  0  0
  7  8  1  1  0  0  0
  7 14  1  0  0  0  0
  9 16  1  0  0  0  0
 10 11  1  1  0  0  0
 10 18  1  0  0  0  0
 12 13  1  1  0  0  0
 12 20  1  0  0  0  0
 14 15  1  6  0  0  0
 14 22  1  0  0  0  0
 16 17  1  6  0  0  0
 16 24  1  0  0  0  0
 18 19  1  1  0  0  0
 18 25  1  0  0  0  0
 20 21  1  6  0  0  0
 20 27  1  0  0  0  0
 22 23  1  1  0  0  0
 22 29  1  0  0  0  0
 24  2  1  1  0  0  0
 24 31  1  0  0  0  0
 25 26  1  0  0  0  0
 25 33  1  6  0  0  0
 27 28  1  1  0  0  0
 27 35  1  0  0  0  0
 29 30  1  0  0  0  0
 29 37  1  6  0  0  0
 31 32  1  6  0  0  0
 31 39  1  0  0  0  0
 33 34  1  0  0  0  0
 35 36  1  0  0  0  0
 35 41  1  1  0  0  0
 37 38  1  0  0  0  0
 39 40  1  1  0  0  0
 41 42  1  0  0  0  0
M  END
>  <CHROM.1>
-176.58983688,160.02844517,179.20113526,177.31419401,-160.77778054,-174.68834253
-60.10262341,169.37167203,-60.41039373,6.88228915,2.93580410,2.82018247,1.31795402
0.59204107,2.97658494

>  <Name>
2o3w_lig

>  <RI>
0

>  <Rbt.Current_Directory>
/home/itssahil/PROJECTS/Mol_Feturizer/New_Systems/rnas/2o3w

>  <Rbt.Executable>
rbdock ($Id: //depot/dev/client3/rdock/2013.1/src/exe/rbdock.cxx#4 $)

>  <Rbt.Library>
libRbt.so (2013.1, Build901 2013/11/27)

>  <Rbt.Parameter_File>
/export/apps/rDock/src/rDock_2013.1_src/data/scripts/dock_solv.prm

>  <Rbt.Receptor>
prm/pocket_docking_2.prm

>  <SCORE>
-8.55292

>  <SCORE.INTER>
2.58029

>  <SCORE.INTER.CONST>
1

>  <SCORE.INTER.POLAR>
0

>  <SCORE.INTER.ROT>
9

>  <SCORE.INTER.SOLV>
11.084

>  <SCORE.INTER.VDW>
-11.5745

>  <SCORE.INTER.norm>
0.0614354

>  <SCORE.INTRA>
-11.1414

>  <SCORE.INTRA.DIHEDRAL>
-23.5642

>  <SCORE.INTRA.DIHEDRAL.0>
27.8999

>  <SCORE.INTRA.POLAR>
0

>  <SCORE.INTRA.POLAR.0>
0

>  <SCORE.INTRA.REPUL>
0

>  <SCORE.INTRA.REPUL.0>
0

>  <SCORE.INTRA.SOLV>
-3.14682

>  <SCORE.INTRA.SOLV.lig_0>
-104.479

>  <SCORE.INTRA.VDW>
2.21407

>  <SCORE.INTRA.VDW.0>
-6.17816

>  <SCORE.INTRA.norm>
-0.265272

>  <SCORE.RESTR>
0.00823851

>  <SCORE.RESTR.CAVITY>
0.00823851

>  <SCORE.RESTR.norm>
0.000196155

>  <SCORE.SYSTEM>
0

>  <SCORE.SYSTEM.CONST>
0

>  <SCORE.SYSTEM.DIHEDRAL>
0

>  <SCORE.SYSTEM.SOLV>
0

>  <SCORE.SYSTEM.norm>
0

>  <SCORE.heavy>
42

>  <SCORE.norm>
-0.203641

>  <RMSD>
1.134

$$$$
2o3w_lig
 OpenBabel11021811463D
libRbt.so/2013.1/901 2013/11/27
 42 45  0  0  0  0  0  0  0  0999 V2000
    6.8562    0.2728    3.4377 C   0  0  2  0  0  0  0  0  0  0  0  0
    7.3131    0.2389    4.8006 O   0  0  0  0  0  0  0  0  0  0  0  0
   10.5345    2.2334    6.9079 C   0  0  2  0  0  0  0  0  0  0  0  0
   11.8769    2.7671    7.2870 N   0  0  0  0  0  0  0  0  0  0  0  0
    8.2555    3.8862    3.1684 C   0  0  1  0  0  0  0  0  0  0  0  0
    6.8159    7.4190    0.8911 C   0  0  1  0  0  0  0  0  0  0  0  0
    5.3388   -0.0811    3.4577 C   0  0  2  0  0  0  0  0  0  0  0  0
    4.5868    0.7162    4.4423 N   0  0  0  0  0  0  0  0  0  0  0  0
   10.5253    0.6517    6.9064 C   0  0  0  0  0  0  0  0  0  0  0  0
    8.2352    3.9884    1.6128 C   0  0  2  0  0  0  0  0  0  0  0  0
    9.5231    4.2974    1.0257 O   0  0  0  0  0  0  0  0  0  0  0  0
    6.8626    8.7553    1.7162 C   0  0  2  0  0  0  0  0  0  0  0  0
    6.5873    8.4996    3.1618 N   0  0  0  0  0  0  0  0  0  0  0  0
    5.0885   -1.5614    3.7997 C   0  0  1  0  0  0  0  0  0  0  0  0
    3.6896   -1.8496    3.7677 O   0  0  0  0  0  0  0  0  0  0  0  0
    9.0819    0.1502    6.5224 C   0  0  2  0  0  0  0  0  0  0  0  0
    9.0329   -1.3368    6.5254 N   0  0  0  0  0  0  0  0  0  0  0  0
    7.1412    5.0355    1.3982 C   0  0  2  0  0  0  0  0  0  0  0  0
    7.6918    6.3908    1.3701 O   0  0  0  0  0  0  0  0  0  0  0  0
    5.8058    9.7921    1.1037 C   0  0  1  0  0  0  0  0  0  0  0  0
    6.3189   10.2966   -0.1497 O   0  0  0  0  0  0  0  0  0  0  0  0
    5.8722   -2.4579    2.8142 C   0  0  2  0  0  0  0  0  0  0  0  0
    5.6403   -3.8170    3.1035 O   0  0  0  0  0  0  0  0  0  0  0  0
    8.6649    0.6914    5.0979 C   0  0  2  0  0  0  0  0  0  0  0  0
    6.1516    4.8602    2.5624 C   0  0  2  0  0  0  0  0  0  0  0  0
    6.9840    4.4017    3.6251 O   0  0  0  0  0  0  0  0  0  0  0  0
    4.3607    9.1410    0.8681 C   0  0  2  0  0  0  0  0  0  0  0  0
    3.7877    8.8883    2.1504 O   0  0  0  0  0  0  0  0  0  0  0  0
    7.3971   -2.1222    2.9208 C   0  0  2  0  0  0  0  0  0  0  0  0
    7.6107   -0.7055    2.6258 O   0  0  0  0  0  0  0  0  0  0  0  0
    8.7056    2.2326    5.0074 C   0  0  2  0  0  0  0  0  0  0  0  0
    8.4801    2.5389    3.6039 O   0  0  0  0  0  0  0  0  0  0  0  0
    4.9861    3.8592    2.2904 C   0  0  0  0  0  0  0  0  0  0  0  0
    4.4952    4.0568    0.9680 O   0  0  0  0  0  0  0  0  0  0  0  0
    4.4820    7.7994    0.0510 C   0  0  1  0  0  0  0  0  0  0  0  0
    5.3846    6.9293    0.8247 O   0  0  0  0  0  0  0  0  0  0  0  0
    8.2422   -2.9521    1.9822 C   0  0  0  0  0  0  0  0  0  0  0  0
    8.1475   -4.3143    2.3207 O   0  0  0  0  0  0  0  0  0  0  0  0
   10.1196    2.7732    5.4807 C   0  0  1  0  0  0  0  0  0  0  0  0
   10.1066    4.2021    5.5411 O   0  0  0  0  0  0  0  0  0  0  0  0
    3.0935    7.0663   -0.2001 C   0  0  0  0  0  0  0  0  0  0  0  0
    3.1535    5.8558   -1.0648 N   0  0  0  0  0  0  0  0  0  0  0  0
  1  2  1  1  0  0  0
  1  7  1  0  0  0  0
  1 30  1  0  0  0  0
  3  4  1  6  0  0  0
  3  9  1  0  0  0  0
  3 39  1  0  0  0  0
  5 10  1  0  0  0  0
  5 26  1  0  0  0  0
  5 32  1  6  0  0  0
  6 12  1  0  0  0  0
  6 36  1  0  0  0  0
  6 19  1  1  0  0  0
  7  8  1  1  0  0  0
  7 14  1  0  0  0  0
  9 16  1  0  0  0  0
 10 11  1  1  0  0  0
 10 18  1  0  0  0  0
 12 13  1  1  0  0  0
 12 20  1  0  0  0  0
 14 15  1  6  0  0  0
 14 22  1  0  0  0  0
 16 17  1  6  0  0  0
 16 24  1  0  0  0  0
 18 19  1  1  0  0  0
 18 25  1  0  0  0  0
 20 21  1  6  0  0  0
 20 27  1  0  0  0  0
 22 23  1  1  0  0  0
 22 29  1  0  0  0  0
 24  2  1  1  0  0  0
 24 31  1  0  0  0  0
 25 26  1  0  0  0  0
 25 33  1  6  0  0  0
 27 28  1  1  0  0  0
 27 35  1  0  0  0  0
 29 30  1  0  0  0  0
 29 37  1  6  0  0  0
 31 32  1  6  0  0  0
 31 39  1  0  0  0  0
 33 34  1  0  0  0  0
 35 36  1  0  0  0  0
 35 41  1  1  0  0  0
 37 38  1  0  0  0  0
 39 40  1  1  0  0  0
 41 42  1  0  0  0  0
M  END
>  <CHROM.1>
-172.60358794,172.19213518,137.87733480,166.95224810,-162.50330606,-41.98965929
-63.28541701,170.76260368,175.11604365,6.96315077,3.07060027,2.96911832,1.28595312
0.65605839,2.97178145

>  <Name>
2o3w_lig

>  <RI>
0

>  <Rbt.Current_Directory>
/home/itssahil/PROJECTS/Mol_Feturizer/New_Systems/rnas/2o3w

>  <Rbt.Executable>
rbdock ($Id: //depot/dev/client3/rdock/2013.1/src/exe/rbdock.cxx#4 $)

>  <Rbt.Library>
libRbt.so (2013.1, Build901 2013/11/27)

>  <Rbt.Parameter_File>
/export/apps/rDock/src/rDock_2013.1_src/data/scripts/dock_solv.prm

>  <Rbt.Receptor>
prm/pocket_docking_2.prm

>  <SCORE>
-9.53643

>  <SCORE.INTER>
-1.68378

>  <SCORE.INTER.CONST>
1

>  <SCORE.INTER.POLAR>
-0.661623

>  <SCORE.INTER.ROT>
9

>  <SCORE.INTER.SOLV>
8.6393

>  <SCORE.INTER.VDW>
-11.3969

>  <SCORE.INTER.norm>
-0.0400901

>  <SCORE.INTRA>
-8.09368

>  <SCORE.INTRA.DIHEDRAL>
-17.7499

>  <SCORE.INTRA.DIHEDRAL.0>
27.8999

>  <SCORE.INTRA.POLAR>
0

>  <SCORE.INTRA.POLAR.0>
0

>  <SCORE.INTRA.REPUL>
0

>  <SCORE.INTRA.REPUL.0>
0

>  <SCORE.INTRA.SOLV>
-2.59006

>  <SCORE.INTRA.SOLV.lig_0>
-104.479

>  <SCORE.INTRA.VDW>
2.07631

>  <SCORE.INTRA.VDW.0>
-6.17816

>  <SCORE.INTRA.norm>
-0.192707

>  <SCORE.RESTR>
0.241025

>  <SCORE.RESTR.CAVITY>
0.241025

>  <SCORE.RESTR.norm>
0.00573869

>  <SCORE.SYSTEM>
0

>  <SCORE.SYSTEM.CONST>
0

>  <SCORE.SYSTEM.DIHEDRAL>
0

>  <SCORE.SYSTEM.SOLV>
0

>  <SCORE.SYSTEM.norm>
0

>  <SCORE.heavy>
42

>  <SCORE.norm>
-0.227058

>  <RMSD>
1.137

$$$$
2o3w_lig
 OpenBabel11021811463D
libRbt.so/2013.1/901 2013/11/27
 42 45  0  0  0  0  0  0  0  0999 V2000
    6.8109   -0.0734    3.3460 C   0  0  2  0  0  0  0  0  0  0  0  0
    7.2414   -0.0571    4.7178 O   0  0  0  0  0  0  0  0  0  0  0  0
   10.2302    2.2455    6.8535 C   0  0  2  0  0  0  0  0  0  0  0  0
   11.5134    2.8972    7.2522 N   0  0  0  0  0  0  0  0  0  0  0  0
    7.9778    3.6268    3.0118 C   0  0  1  0  0  0  0  0  0  0  0  0
    6.4518    7.0382    0.6458 C   0  0  1  0  0  0  0  0  0  0  0  0
    5.3499   -0.6151    3.3340 C   0  0  2  0  0  0  0  0  0  0  0  0
    4.4844    0.0761    4.3054 N   0  0  0  0  0  0  0  0  0  0  0  0
   10.3511    0.6688    6.8916 C   0  0  0  0  0  0  0  0  0  0  0  0
    8.0280    3.6906    1.4549 C   0  0  2  0  0  0  0  0  0  0  0  0
    9.3262    4.0499    0.9214 O   0  0  0  0  0  0  0  0  0  0  0  0
    6.9731    8.5189    0.7141 C   0  0  2  0  0  0  0  0  0  0  0  0
    7.4007    8.8703    2.1014 N   0  0  0  0  0  0  0  0  0  0  0  0
    5.2808   -2.1169    3.6666 C   0  0  1  0  0  0  0  0  0  0  0  0
    3.9301   -2.5783    3.6053 O   0  0  0  0  0  0  0  0  0  0  0  0
    8.9646    0.0407    6.4846 C   0  0  2  0  0  0  0  0  0  0  0  0
    9.0381   -1.4448    6.5239 N   0  0  0  0  0  0  0  0  0  0  0  0
    6.8956    4.6758    1.1612 C   0  0  2  0  0  0  0  0  0  0  0  0
    7.3796    6.0561    1.1234 O   0  0  0  0  0  0  0  0  0  0  0  0
    5.8236    9.5085    0.1981 C   0  0  1  0  0  0  0  0  0  0  0  0
    5.7124    9.3870   -1.2377 O   0  0  0  0  0  0  0  0  0  0  0  0
    6.1902   -2.9027    2.6947 C   0  0  2  0  0  0  0  0  0  0  0  0
    6.1251   -4.2816    2.9753 O   0  0  0  0  0  0  0  0  0  0  0  0
    8.5429    0.5126    5.0371 C   0  0  2  0  0  0  0  0  0  0  0  0
    5.8604    4.4788    2.2814 C   0  0  2  0  0  0  0  0  0  0  0  0
    6.6617    4.0884    3.3941 O   0  0  0  0  0  0  0  0  0  0  0  0
    4.4003    9.2141    0.8728 C   0  0  2  0  0  0  0  0  0  0  0  0
    4.4894    9.5876    2.2472 O   0  0  0  0  0  0  0  0  0  0  0  0
    7.6586   -2.3788    2.8332 C   0  0  2  0  0  0  0  0  0  0  0  0
    7.6983   -0.9449    2.5467 O   0  0  0  0  0  0  0  0  0  0  0  0
    8.4591    2.0494    4.9088 C   0  0  2  0  0  0  0  0  0  0  0  0
    8.2469    2.3035    3.4928 O   0  0  0  0  0  0  0  0  0  0  0  0
    4.7602    3.4140    1.9811 C   0  0  0  0  0  0  0  0  0  0  0  0
    5.3794    2.1567    1.7267 O   0  0  0  0  0  0  0  0  0  0  0  0
    4.0299    7.6881    0.7454 C   0  0  1  0  0  0  0  0  0  0  0  0
    5.1315    6.9451    1.3815 O   0  0  0  0  0  0  0  0  0  0  0  0
    8.6196   -3.0909    1.9096 C   0  0  0  0  0  0  0  0  0  0  0  0
    8.7484   -4.4393    2.2899 O   0  0  0  0  0  0  0  0  0  0  0  0
    9.8107    2.7160    5.4033 C   0  0  1  0  0  0  0  0  0  0  0  0
    9.6786    4.1399    5.4274 O   0  0  0  0  0  0  0  0  0  0  0  0
    2.6433    7.2997    1.4201 C   0  0  0  0  0  0  0  0  0  0  0  0
    1.4354    7.9176    0.8072 N   0  0  0  0  0  0  0  0  0  0  0  0
  1  2  1  1  0  0  0
  1  7  1  0  0  0  0
  1 30  1  0  0  0  0
  3  4  1  6  0  0  0
  3  9  1  0  0  0  0
  3 39  1  0  0  0  0
  5 10  1  0  0  0  0
  5 26  1  0  0  0  0
  5 32  1  6  0  0  0
  6 12  1  0  0  0  0
  6 36  1  0  0  0  0
  6 19  1  1  0  0  0
  7  8  1  1  0  0  0
  7 14  1  0  0  0  0
  9 16  1  0  0  0  0
 10 11  1  1  0  0  0
 10 18  1  0  0  0  0
 12 13  1  1  0  0  0
 12 20  1  0  0  0  0
 14 15  1  6  0  0  0
 14 22  1  0  0  0  0
 16 17  1  6  0  0  0
 16 24  1  0  0  0  0
 18 19  1  1  0  0  0
 18 25  1  0  0  0  0
 20 21  1  6  0  0  0
 20 27  1  0  0  0  0
 22 23  1  1  0  0  0
 22 29  1  0  0  0  0
 24  2  1  1  0  0  0
 24 31  1  0  0  0  0
 25 26  1  0  0  0  0
 25 33  1  6  0  0  0
 27 28  1  1  0  0  0
 27 35  1  0  0  0  0
 29 30  1  0  0  0  0
 29 37  1  6  0  0  0
 31 32  1  6  0  0  0
 31 39  1  0  0  0  0
 33 34  1  0  0  0  0
 35 36  1  0  0  0  0
 35 41  1  1  0  0  0
 37 38  1  0  0  0  0
 39 40  1  1  0  0  0
 41 42  1  0  0  0  0
M  END
>  <CHROM.1>
-174.99180739,170.30025773,175.94864299,170.29629854,-163.47279927,58.36098094
-66.63483060,173.32465616,64.58544542,6.89120595,2.86106246,2.91785238,1.27838403
0.62020360,2.99919943

>  <Name>
2o3w_lig

>  <RI>
0

>  <Rbt.Current_Directory>
/home/itssahil/PROJECTS/Mol_Feturizer/New_Systems/rnas/2o3w

>  <Rbt.Executable>
rbdock ($Id: //depot/dev/client3/rdock/2013.1/src/exe/rbdock.cxx#4 $)

>  <Rbt.Library>
libRbt.so (2013.1, Build901 2013/11/27)

>  <Rbt.Parameter_File>
/export/apps/rDock/src/rDock_2013.1_src/data/scripts/dock_solv.prm

>  <Rbt.Receptor>
prm/pocket_docking_2.prm

>  <SCORE>
-10.1808

>  <SCORE.INTER>
2.27392

>  <SCORE.INTER.CONST>
1

>  <SCORE.INTER.POLAR>
0

>  <SCORE.INTER.ROT>
9

>  <SCORE.INTER.SOLV>
12.3108

>  <SCORE.INTER.VDW>
-12.1877

>  <SCORE.INTER.norm>
0.0541409

>  <SCORE.INTRA>
-12.4547

>  <SCORE.INTRA.DIHEDRAL>
-24.9271

>  <SCORE.INTRA.DIHEDRAL.0>
27.8999

>  <SCORE.INTRA.POLAR>
0

>  <SCORE.INTRA.POLAR.0>
0

>  <SCORE.INTRA.REPUL>
0

>  <SCORE.INTRA.REPUL.0>
0

>  <SCORE.INTRA.SOLV>
-3.66472

>  <SCORE.INTRA.SOLV.lig_0>
-104.479

>  <SCORE.INTRA.VDW>
1.8412

>  <SCORE.INTRA.VDW.0>
-6.17816

>  <SCORE.INTRA.norm>
-0.296541

>  <SCORE.RESTR>
0

>  <SCORE.RESTR.CAVITY>
0

>  <SCORE.RESTR.norm>
0

>  <SCORE.SYSTEM>
0

>  <SCORE.SYSTEM.CONST>
0

>  <SCORE.SYSTEM.DIHEDRAL>
0

>  <SCORE.SYSTEM.SOLV>
0

>  <SCORE.SYSTEM.norm>
0

>  <SCORE.heavy>
42

>  <SCORE.norm>
-0.2424

>  <RMSD>
1.139

$$$$
2o3w_lig
 OpenBabel11021811463D
libRbt.so/2013.1/901 2013/11/27
 42 45  0  0  0  0  0  0  0  0999 V2000
    6.6564   -0.0306    3.4199 C   0  0  2  0  0  0  0  0  0  0  0  0
    7.1398   -0.0102    4.7739 O   0  0  0  0  0  0  0  0  0  0  0  0
   10.4903    1.9344    6.7204 C   0  0  2  0  0  0  0  0  0  0  0  0
   11.8620    2.4274    7.0456 N   0  0  0  0  0  0  0  0  0  0  0  0
    8.0898    3.5132    2.9833 C   0  0  1  0  0  0  0  0  0  0  0  0
    6.6028    6.9229    0.5676 C   0  0  1  0  0  0  0  0  0  0  0  0
    5.1249   -0.3105    3.4878 C   0  0  2  0  0  0  0  0  0  0  0  0
    4.4316    0.5751    4.4394 N   0  0  0  0  0  0  0  0  0  0  0  0
   10.4172    0.3558    6.7857 C   0  0  0  0  0  0  0  0  0  0  0  0
    8.2011    3.6029    1.4308 C   0  0  2  0  0  0  0  0  0  0  0  0
    9.5115    3.9985    0.9558 O   0  0  0  0  0  0  0  0  0  0  0  0
    7.1042    8.4103    0.6390 C   0  0  2  0  0  0  0  0  0  0  0  0
    7.4546    8.7884    2.0408 N   0  0  0  0  0  0  0  0  0  0  0  0
    4.8136   -1.7560    3.9176 C   0  0  1  0  0  0  0  0  0  0  0  0
    3.4026   -1.9789    3.9277 O   0  0  0  0  0  0  0  0  0  0  0  0
    8.9457   -0.1011    6.4566 C   0  0  2  0  0  0  0  0  0  0  0  0
    8.8369   -1.5834    6.5234 N   0  0  0  0  0  0  0  0  0  0  0  0
    7.0599    4.5682    1.1064 C   0  0  2  0  0  0  0  0  0  0  0  0
    7.5145    5.9590    1.1091 O   0  0  0  0  0  0  0  0  0  0  0  0
    5.9731    9.3785    0.0473 C   0  0  1  0  0  0  0  0  0  0  0  0
    5.9388    9.2331   -1.3902 O   0  0  0  0  0  0  0  0  0  0  0  0
    5.5340   -2.7421    2.9702 C   0  0  2  0  0  0  0  0  0  0  0  0
    5.2456   -4.0704    3.3402 O   0  0  0  0  0  0  0  0  0  0  0  0
    8.5157    0.3979    5.0206 C   0  0  2  0  0  0  0  0  0  0  0  0
    5.9852    4.3312    2.1807 C   0  0  2  0  0  0  0  0  0  0  0  0
    6.7496    3.9403    3.3189 O   0  0  0  0  0  0  0  0  0  0  0  0
    4.5195    9.0785    0.6511 C   0  0  2  0  0  0  0  0  0  0  0  0
    4.5322    9.4747    2.0220 O   0  0  0  0  0  0  0  0  0  0  0  0
    7.0748   -2.4737    3.0295 C   0  0  2  0  0  0  0  0  0  0  0  0
    7.3476   -1.0873    2.6509 O   0  0  0  0  0  0  0  0  0  0  0  0
    8.6162    1.9311    4.8643 C   0  0  2  0  0  0  0  0  0  0  0  0
    8.3686    2.1884    3.4547 O   0  0  0  0  0  0  0  0  0  0  0  0
    4.9217    3.2480    1.8200 C   0  0  0  0  0  0  0  0  0  0  0  0
    5.5812    2.0188    1.5319 O   0  0  0  0  0  0  0  0  0  0  0  0
    4.1723    7.5466    0.5295 C   0  0  1  0  0  0  0  0  0  0  0  0
    5.2467    6.8263    1.2345 O   0  0  0  0  0  0  0  0  0  0  0  0
    7.8606   -3.3937    2.1240 C   0  0  0  0  0  0  0  0  0  0  0  0
    9.2400   -3.1636    2.2779 O   0  0  0  0  0  0  0  0  0  0  0  0
   10.0622    2.4317    5.2816 C   0  0  1  0  0  0  0  0  0  0  0  0
   10.1084    3.8612    5.2821 O   0  0  0  0  0  0  0  0  0  0  0  0
    2.7564    7.1532    1.1369 C   0  0  0  0  0  0  0  0  0  0  0  0
    2.5920    7.4014    2.5956 N   0  0  0  0  0  0  0  0  0  0  0  0
  1  2  1  1  0  0  0
  1  7  1  0  0  0  0
  1 30  1  0  0  0  0
  3  4  1  6  0  0  0
  3  9  1  0  0  0  0
  3 39  1  0  0  0  0
  5 10  1  0  0  0  0
  5 26  1  0  0  0  0
  5 32  1  6  0  0  0
  6 12  1  0  0  0  0
  6 36  1  0  0  0  0
  6 19  1  1  0  0  0
  7  8  1  1  0  0  0
  7 14  1  0  0  0  0
  9 16  1  0  0  0  0
 10 11  1  1  0  0  0
 10 18  1  0  0  0  0
 12 13  1  1  0  0  0
 12 20  1  0  0  0  0
 14 15  1  6  0  0  0
 14 22  1  0  0  0  0
 16 17  1  6  0  0  0
 16 24  1  0  0  0  0
 18 19  1  1  0  0  0
 18 25  1  0  0  0  0
 20 21  1  6  0  0  0
 20 27  1  0  0  0  0
 22 23  1  1  0  0  0
 22 29  1  0  0  0  0
 24  2  1  1  0  0  0
 24 31  1  0  0  0  0
 25 26  1  0  0  0  0
 25 33  1  6  0  0  0
 27 28  1  1  0  0  0
 27 35  1  0  0  0  0
 29 30  1  0  0  0  0
 29 37  1  6  0  0  0
 31 32  1  6  0  0  0
 31 39  1  0  0  0  0
 33 34  1  0  0  0  0
 35 36  1  0  0  0  0
 35 41  1  1  0  0  0
 37 38  1  0  0  0  0
 39 40  1  1  0  0  0
 41 42  1  0  0  0  0
M  END
>  <CHROM.1>
-172.39704879,166.21977725,177.75446981,168.26374997,-161.68615758,56.59648570
-176.44368967,166.10707093,-61.82044287,6.91246425,2.81551379,2.93801572
1.33610694,0.51642315,2.90963533

>  <Name>
2o3w_lig

>  <RI>
0

>  <Rbt.Current_Directory>
/home/itssahil/PROJECTS/Mol_Feturizer/New_Systems/rnas/2o3w

>  <Rbt.Executable>
rbdock ($Id: //depot/dev/client3/rdock/2013.1/src/exe/rbdock.cxx#4 $)

>  <Rbt.Library>
libRbt.so (2013.1, Build901 2013/11/27)

>  <Rbt.Parameter_File>
/export/apps/rDock/src/rDock_2013.1_src/data/scripts/dock_solv.prm

>  <Rbt.Receptor>
prm/pocket_docking_2.prm

>  <SCORE>
-9.2887

>  <SCORE.INTER>
2.57439

>  <SCORE.INTER.CONST>
1

>  <SCORE.INTER.POLAR>
0

>  <SCORE.INTER.ROT>
9

>  <SCORE.INTER.SOLV>
12.0603

>  <SCORE.INTER.VDW>
-11.9038

>  <SCORE.INTER.norm>
0.061295

>  <SCORE.INTRA>
-11.8631

>  <SCORE.INTRA.DIHEDRAL>
-23.3584

>  <SCORE.INTRA.DIHEDRAL.0>
27.8999

>  <SCORE.INTRA.POLAR>
0

>  <SCORE.INTRA.POLAR.0>
0

>  <SCORE.INTRA.REPUL>
0

>  <SCORE.INTRA.REPUL.0>
0

>  <SCORE.INTRA.SOLV>
-2.30402

>  <SCORE.INTRA.SOLV.lig_0>
-104.479

>  <SCORE.INTRA.VDW>
0.968123

>  <SCORE.INTRA.VDW.0>
-6.17816

>  <SCORE.INTRA.norm>
-0.282454

>  <SCORE.RESTR>
0

>  <SCORE.RESTR.CAVITY>
0

>  <SCORE.RESTR.norm>
0

>  <SCORE.SYSTEM>
0

>  <SCORE.SYSTEM.CONST>
0

>  <SCORE.SYSTEM.DIHEDRAL>
0

>  <SCORE.SYSTEM.SOLV>
0

>  <SCORE.SYSTEM.norm>
0

>  <SCORE.heavy>
42

>  <SCORE.norm>
-0.221159

>  <RMSD>
1.140

$$$$
2o3w_lig
 OpenBabel11021811463D
libRbt.so/2013.1/901 2013/11/27
 42 45  0  0  0  0  0  0  0  0999 V2000
    6.6344    0.0321    3.4952 C   0  0  2  0  0  0  0  0  0  0  0  0
    7.1269    0.0363    4.8460 O   0  0  0  0  0  0  0  0  0  0  0  0
   10.5776    1.8313    6.7609 C   0  0  2  0  0  0  0  0  0  0  0  0
   11.9731    2.2605    7.0750 N   0  0  0  0  0  0  0  0  0  0  0  0
    8.1674    3.4911    3.0375 C   0  0  1  0  0  0  0  0  0  0  0  0
    6.6483    6.8967    0.6191 C   0  0  1  0  0  0  0  0  0  0  0  0
    5.1002   -0.2299    3.5710 C   0  0  2  0  0  0  0  0  0  0  0  0
    4.4237    0.6566    4.5339 N   0  0  0  0  0  0  0  0  0  0  0  0
   10.4301    0.2583    6.8365 C   0  0  0  0  0  0  0  0  0  0  0  0
    8.2338    3.5739    1.4820 C   0  0  2  0  0  0  0  0  0  0  0  0
    9.5324    3.9582    0.9673 O   0  0  0  0  0  0  0  0  0  0  0  0
    7.1503    8.3839    0.6909 C   0  0  2  0  0  0  0  0  0  0  0  0
    7.4891    8.7654    2.0947 N   0  0  0  0  0  0  0  0  0  0  0  0
    4.7742   -1.6748    3.9919 C   0  0  1  0  0  0  0  0  0  0  0  0
    3.3607   -1.8808    4.0096 O   0  0  0  0  0  0  0  0  0  0  0  0
    8.9366   -0.1301    6.5188 C   0  0  2  0  0  0  0  0  0  0  0  0
    8.7580   -1.6052    6.5955 N   0  0  0  0  0  0  0  0  0  0  0  0
    7.0904    4.5461    1.1873 C   0  0  2  0  0  0  0  0  0  0  0  0
    7.5546    5.9335    1.1709 O   0  0  0  0  0  0  0  0  0  0  0  0
    6.0250    9.3514    0.0872 C   0  0  1  0  0  0  0  0  0  0  0  0
    6.0028    9.2023   -1.3502 O   0  0  0  0  0  0  0  0  0  0  0  0
    5.4766   -2.6622    3.0323 C   0  0  2  0  0  0  0  0  0  0  0  0
    5.1745   -3.9897    3.3941 O   0  0  0  0  0  0  0  0  0  0  0  0
    8.5220    0.3801    5.0822 C   0  0  2  0  0  0  0  0  0  0  0  0
    6.0460    4.3209    2.2935 C   0  0  2  0  0  0  0  0  0  0  0  0
    6.8406    3.9291    3.4104 O   0  0  0  0  0  0  0  0  0  0  0  0
    4.5661    9.0542    0.6795 C   0  0  2  0  0  0  0  0  0  0  0  0
    4.5675    9.4539    2.0494 O   0  0  0  0  0  0  0  0  0  0  0  0
    7.0208   -2.4127    3.0834 C   0  0  2  0  0  0  0  0  0  0  0  0
    7.3078   -1.0268    2.7136 O   0  0  0  0  0  0  0  0  0  0  0  0
    8.6942    1.9058    4.9158 C   0  0  2  0  0  0  0  0  0  0  0  0
    8.4505    2.1662    3.5060 O   0  0  0  0  0  0  0  0  0  0  0  0
    4.9648    3.2440    1.9685 C   0  0  0  0  0  0  0  0  0  0  0  0
    4.2555    3.6288    0.7947 O   0  0  0  0  0  0  0  0  0  0  0  0
    4.2188    7.5222    0.5588 C   0  0  1  0  0  0  0  0  0  0  0  0
    5.2866    6.8029    1.2748 O   0  0  0  0  0  0  0  0  0  0  0  0
    7.7896   -3.3351    2.1658 C   0  0  0  0  0  0  0  0  0  0  0  0
    9.1697   -3.0828    2.2699 O   0  0  0  0  0  0  0  0  0  0  0  0
   10.1649    2.3397    5.3215 C   0  0  1  0  0  0  0  0  0  0  0  0
   10.2788    3.7654    5.3128 O   0  0  0  0  0  0  0  0  0  0  0  0
    2.7974    7.1315    1.1553 C   0  0  0  0  0  0  0  0  0  0  0  0
    2.6200    7.3860    2.6114 N   0  0  0  0  0  0  0  0  0  0  0  0
  1  2  1  1  0  0  0
  1  7  1  0  0  0  0
  1 30  1  0  0  0  0
  3  4  1  6  0  0  0
  3  9  1  0  0  0  0
  3 39  1  0  0  0  0
  5 10  1  0  0  0  0
  5 26  1  0  0  0  0
  5 32  1  6  0  0  0
  6 12  1  0  0  0  0
  6 36  1  0  0  0  0
  6 19  1  1  0  0  0
  7  8  1  1  0  0  0
  7 14  1  0  0  0  0
  9 16  1  0  0  0  0
 10 11  1  1  0  0  0
 10 18  1  0  0  0  0
 12 13  1  1  0  0  0
 12 20  1  0  0  0  0
 14 15  1  6  0  0  0
 14 22  1  0  0  0  0
 16 17  1  6  0  0  0
 16 24  1  0  0  0  0
 18 19  1  1  0  0  0
 18 25  1  0  0  0  0
 20 21  1  6  0  0  0
 20 27  1  0  0  0  0
 22 23  1  1  0  0  0
 22 29  1  0  0  0  0
 24  2  1  1  0  0  0
 24 31  1  0  0  0  0
 25 26  1  0  0  0  0
 25 33  1  6  0  0  0
 27 28  1  1  0  0  0
 27 35  1  0  0  0  0
 29 30  1  0  0  0  0
 29 37  1  6  0  0  0
 31 32  1  6  0  0  0
 31 39  1  0  0  0  0
 33 34  1  0  0  0  0
 35 36  1  0  0  0  0
 35 41  1  1  0  0  0
 37 38  1  0  0  0  0
 39 40  1  1  0  0  0
 41 42  1  0  0  0  0
M  END
>  <CHROM.1>
-174.54698130,168.25891295,176.82495785,166.64427673,-161.74883243,-59.57184201
-178.97327506,163.03041211,-61.71113389,6.89885962,2.85381264,2.97118483
1.32776615,0.49832424,2.89482335

>  <Name>
2o3w_lig

>  <RI>
0

>  <Rbt.Current_Directory>
/home/itssahil/PROJECTS/Mol_Feturizer/New_Systems/rnas/2o3w

>  <Rbt.Executable>
rbdock ($Id: //depot/dev/client3/rdock/2013.1/src/exe/rbdock.cxx#4 $)

>  <Rbt.Library>
libRbt.so (2013.1, Build901 2013/11/27)

>  <Rbt.Parameter_File>
/export/apps/rDock/src/rDock_2013.1_src/data/scripts/dock_solv.prm

>  <Rbt.Receptor>
prm/pocket_docking_2.prm

>  <SCORE>
-9.80334

>  <SCORE.INTER>
2.44552

>  <SCORE.INTER.CONST>
1

>  <SCORE.INTER.POLAR>
0

>  <SCORE.INTER.ROT>
9

>  <SCORE.INTER.SOLV>
12.8281

>  <SCORE.INTER.VDW>
-12.2457

>  <SCORE.INTER.norm>
0.0582266

>  <SCORE.INTRA>
-12.2674

>  <SCORE.INTRA.DIHEDRAL>
-23.2026

>  <SCORE.INTRA.DIHEDRAL.0>
27.8999

>  <SCORE.INTRA.POLAR>
0

>  <SCORE.INTRA.POLAR.0>
0

>  <SCORE.INTRA.REPUL>
0

>  <SCORE.INTRA.REPUL.0>
0

>  <SCORE.INTRA.SOLV>
-3.47792

>  <SCORE.INTRA.SOLV.lig_0>
-104.479

>  <SCORE.INTRA.VDW>
1.07283

>  <SCORE.INTRA.VDW.0>
-6.17816

>  <SCORE.INTRA.norm>
-0.292081

>  <SCORE.RESTR>
0.018555

>  <SCORE.RESTR.CAVITY>
0.018555

>  <SCORE.RESTR.norm>
0.000441786

>  <SCORE.SYSTEM>
0

>  <SCORE.SYSTEM.CONST>
0

>  <SCORE.SYSTEM.DIHEDRAL>
0

>  <SCORE.SYSTEM.SOLV>
0

>  <SCORE.SYSTEM.norm>
0

>  <SCORE.heavy>
42

>  <SCORE.norm>
-0.233413

>  <RMSD>
1.146

$$$$
2o3w_lig
 OpenBabel11021811463D
libRbt.so/2013.1/901 2013/11/27
 42 45  0  0  0  0  0  0  0  0999 V2000
    7.3616    0.7960    3.5734 C   0  0  2  0  0  0  0  0  0  0  0  0
    7.7260    1.1315    4.9232 O   0  0  0  0  0  0  0  0  0  0  0  0
   11.1846    2.6776    7.0313 C   0  0  2  0  0  0  0  0  0  0  0  0
   12.5868    3.0186    7.4158 N   0  0  0  0  0  0  0  0  0  0  0  0
    8.7430    4.4990    3.2775 C   0  0  1  0  0  0  0  0  0  0  0  0
    7.1379    7.8140    0.7916 C   0  0  1  0  0  0  0  0  0  0  0  0
    5.8111    0.6431    3.5454 C   0  0  2  0  0  0  0  0  0  0  0  0
    5.1205    1.7863    4.1672 N   0  0  0  0  0  0  0  0  0  0  0  0
   10.9465    1.1141    7.0565 C   0  0  0  0  0  0  0  0  0  0  0  0
    9.2398    4.8509    1.8422 C   0  0  2  0  0  0  0  0  0  0  0  0
   10.4773    5.6038    1.8150 O   0  0  0  0  0  0  0  0  0  0  0  0
    6.7048    9.1382    1.5181 C   0  0  2  0  0  0  0  0  0  0  0  0
    6.1522    8.8462    2.8746 N   0  0  0  0  0  0  0  0  0  0  0  0
    5.3350   -0.6203    4.2858 C   0  0  1  0  0  0  0  0  0  0  0  0
    3.9141   -0.7409    4.2007 O   0  0  0  0  0  0  0  0  0  0  0  0
    9.4489    0.8196    6.6654 C   0  0  2  0  0  0  0  0  0  0  0  0
    9.1853   -0.6444    6.6931 N   0  0  0  0  0  0  0  0  0  0  0  0
    8.0154    5.5683    1.2717 C   0  0  2  0  0  0  0  0  0  0  0  0
    8.0695    7.0085    1.5242 O   0  0  0  0  0  0  0  0  0  0  0  0
    5.6317    9.9109    0.6135 C   0  0  1  0  0  0  0  0  0  0  0  0
    6.3117   10.5000   -0.5175 O   0  0  0  0  0  0  0  0  0  0  0  0
    6.0431   -1.8612    3.6959 C   0  0  2  0  0  0  0  0  0  0  0  0
    5.6054   -3.0284    4.3519 O   0  0  0  0  0  0  0  0  0  0  0  0
    9.1265    1.3892    5.2275 C   0  0  2  0  0  0  0  0  0  0  0  0
    6.7934    4.9288    1.9520 C   0  0  2  0  0  0  0  0  0  0  0  0
    7.2986    4.5515    3.2307 O   0  0  0  0  0  0  0  0  0  0  0  0
    4.4543    8.9565    0.0934 C   0  0  2  0  0  0  0  0  0  0  0  0
    3.6578    8.6002    1.2226 O   0  0  0  0  0  0  0  0  0  0  0  0
    7.5908   -1.6874    3.8502 C   0  0  2  0  0  0  0  0  0  0  0  0
    8.0188   -0.4653    3.1697 O   0  0  0  0  0  0  0  0  0  0  0  0
    9.3906    2.9064    5.1113 C   0  0  2  0  0  0  0  0  0  0  0  0
    9.2235    3.2163    3.7004 O   0  0  0  0  0  0  0  0  0  0  0  0
    6.1903    3.7006    1.2022 C   0  0  0  0  0  0  0  0  0  0  0  0
    7.1911    2.6966    1.0630 O   0  0  0  0  0  0  0  0  0  0  0  0
    5.0458    7.6641   -0.5863 C   0  0  1  0  0  0  0  0  0  0  0  0
    5.8993    7.0222    0.4286 O   0  0  0  0  0  0  0  0  0  0  0  0
    8.3660   -2.8580    3.2911 C   0  0  0  0  0  0  0  0  0  0  0  0
    8.0931   -3.0096    1.9193 O   0  0  0  0  0  0  0  0  0  0  0  0
   10.8640    3.2454    5.5907 C   0  0  1  0  0  0  0  0  0  0  0  0
   11.0575    4.6621    5.6268 O   0  0  0  0  0  0  0  0  0  0  0  0
    3.9430    6.6418   -1.1033 C   0  0  0  0  0  0  0  0  0  0  0  0
    3.0062    6.1288   -0.0660 N   0  0  0  0  0  0  0  0  0  0  0  0
  1  2  1  1  0  0  0
  1  7  1  0  0  0  0
  1 30  1  0  0  0  0
  3  4  1  6  0  0  0
  3  9  1  0  0  0  0
  3 39  1  0  0  0  0
  5 10  1  0  0  0  0
  5 26  1  0  0  0  0
  5 32  1  6  0  0  0
  6 12  1  0  0  0  0
  6 36  1  0  0  0  0
  6 19  1  1  0  0  0
  7  8  1  1  0  0  0
  7 14  1  0  0  0  0
  9 16  1  0  0  0  0
 10 11  1  1  0  0  0
 10 18  1  0  0  0  0
 12 13  1  1  0  0  0
 12 20  1  0  0  0  0
 14 15  1  6  0  0  0
 14 22  1  0  0  0  0
 16 17  1  6  0  0  0
 16 24  1  0  0  0  0
 18 19  1  1  0  0  0
 18 25  1  0  0  0  0
 20 21  1  6  0  0  0
 20 27  1  0  0  0  0
 22 23  1  1  0  0  0
 22 29  1  0  0  0  0
 24  2  1  1  0  0  0
 24 31  1  0  0  0  0
 25 26  1  0  0  0  0
 25 33  1  6  0  0  0
 27 28  1  1  0  0  0
 27 35  1  0  0  0  0
 29 30  1  0  0  0  0
 29 37  1  6  0  0  0
 31 32  1  6  0  0  0
 31 39  1  0  0  0  0
 33 34  1  0  0  0  0
 35 36  1  0  0  0  0
 35 41  1  1  0  0  0
 37 38  1  0  0  0  0
 39 40  1  1  0  0  0
 41 42  1  0  0  0  0
M  END
>  <CHROM.1>
-177.49679171,153.85589551,151.26614204,166.82218741,-143.47273949,58.45744620
60.04868750,148.96742396,-58.55932885,7.41823968,3.48999738,3.01435827,1.26336753
0.59682325,2.85977300

>  <Name>
2o3w_lig

>  <RI>
0

>  <Rbt.Current_Directory>
/home/itssahil/PROJECTS/Mol_Feturizer/New_Systems/rnas/2o3w

>  <Rbt.Executable>
rbdock ($Id: //depot/dev/client3/rdock/2013.1/src/exe/rbdock.cxx#4 $)

>  <Rbt.Library>
libRbt.so (2013.1, Build901 2013/11/27)

>  <Rbt.Parameter_File>
/export/apps/rDock/src/rDock_2013.1_src/data/scripts/dock_solv.prm

>  <Rbt.Receptor>
prm/pocket_docking_2.prm

>  <SCORE>
-9.43243

>  <SCORE.INTER>
-4.13425

>  <SCORE.INTER.CONST>
1

>  <SCORE.INTER.POLAR>
-1

>  <SCORE.INTER.ROT>
9

>  <SCORE.INTER.SOLV>
9.05282

>  <SCORE.INTER.VDW>
-12.0404

>  <SCORE.INTER.norm>
-0.0984344

>  <SCORE.INTRA>
-5.29951

>  <SCORE.INTRA.DIHEDRAL>
-12.1443

>  <SCORE.INTRA.DIHEDRAL.0>
27.8999

>  <SCORE.INTRA.POLAR>
0

>  <SCORE.INTRA.POLAR.0>
0

>  <SCORE.INTRA.REPUL>
0

>  <SCORE.INTRA.REPUL.0>
0

>  <SCORE.INTRA.SOLV>
0.48452

>  <SCORE.INTRA.SOLV.lig_0>
-104.479

>  <SCORE.INTRA.VDW>
0.53037

>  <SCORE.INTRA.VDW.0>
-6.17816

>  <SCORE.INTRA.norm>
-0.126179

>  <SCORE.RESTR>
0.00133219

>  <SCORE.RESTR.CAVITY>
0.00133219

>  <SCORE.RESTR.norm>
3.17187e-05

>  <SCORE.SYSTEM>
0

>  <SCORE.SYSTEM.CONST>
0

>  <SCORE.SYSTEM.DIHEDRAL>
0

>  <SCORE.SYSTEM.SOLV>
0

>  <SCORE.SYSTEM.norm>
0

>  <SCORE.heavy>
42

>  <SCORE.norm>
-0.224582

>  <RMSD>
1.149

$$$$
2o3w_lig
 OpenBabel11021811463D
libRbt.so/2013.1/901 2013/11/27
 42 45  0  0  0  0  0  0  0  0999 V2000
    6.7036   -0.1354    3.2286 C   0  0  2  0  0  0  0  0  0  0  0  0
    7.1190   -0.0983    4.6045 O   0  0  0  0  0  0  0  0  0  0  0  0
   10.2602    1.9759    6.7555 C   0  0  2  0  0  0  0  0  0  0  0  0
   11.5835    2.5429    7.1529 N   0  0  0  0  0  0  0  0  0  0  0  0
    7.9952    3.5717    2.9840 C   0  0  1  0  0  0  0  0  0  0  0  0
    6.6593    7.0816    0.8178 C   0  0  1  0  0  0  0  0  0  0  0  0
    5.2210   -0.6151    3.2136 C   0  0  2  0  0  0  0  0  0  0  0  0
    4.3749    0.1394    4.1546 N   0  0  0  0  0  0  0  0  0  0  0  0
   10.2905    0.3944    6.7544 C   0  0  0  0  0  0  0  0  0  0  0  0
    8.3692    3.7605    1.4822 C   0  0  2  0  0  0  0  0  0  0  0  0
    9.7238    4.2270    1.2664 O   0  0  0  0  0  0  0  0  0  0  0  0
    7.1826    8.5626    0.7788 C   0  0  2  0  0  0  0  0  0  0  0  0
    7.8071    8.9422    2.0814 N   0  0  0  0  0  0  0  0  0  0  0  0
    5.0843   -2.1026    3.5872 C   0  0  1  0  0  0  0  0  0  0  0  0
    3.7161   -2.5081    3.5221 O   0  0  0  0  0  0  0  0  0  0  0  0
    8.8654   -0.1429    6.3506 C   0  0  2  0  0  0  0  0  0  0  0  0
    8.8535   -1.6307    6.3535 N   0  0  0  0  0  0  0  0  0  0  0  0
    7.2610    4.7063    1.0168 C   0  0  2  0  0  0  0  0  0  0  0  0
    7.6484    6.1083    1.1755 O   0  0  0  0  0  0  0  0  0  0  0  0
    5.9687    9.5429    0.4152 C   0  0  1  0  0  0  0  0  0  0  0  0
    5.6498    9.3918   -0.9864 O   0  0  0  0  0  0  0  0  0  0  0  0
    5.9704   -2.9533    2.6489 C   0  0  2  0  0  0  0  0  0  0  0  0
    5.8435   -4.3197    2.9671 O   0  0  0  0  0  0  0  0  0  0  0  0
    8.4548    0.3878    4.9204 C   0  0  2  0  0  0  0  0  0  0  0  0
    6.0279    4.3686    1.8716 C   0  0  2  0  0  0  0  0  0  0  0  0
    6.6002    3.9335    3.1028 O   0  0  0  0  0  0  0  0  0  0  0  0
    4.6592    9.2645    1.2958 C   0  0  2  0  0  0  0  0  0  0  0  0
    4.9468    9.6664    2.6345 O   0  0  0  0  0  0  0  0  0  0  0  0
    7.4580   -2.4882    2.7909 C   0  0  2  0  0  0  0  0  0  0  0  0
    7.5620   -1.0659    2.4650 O   0  0  0  0  0  0  0  0  0  0  0  0
    8.4583    1.9295    4.8299 C   0  0  2  0  0  0  0  0  0  0  0  0
    8.2447    2.2301    3.4233 O   0  0  0  0  0  0  0  0  0  0  0  0
    5.0901    3.2758    1.2713 C   0  0  0  0  0  0  0  0  0  0  0  0
    3.9451    3.1284    2.1056 O   0  0  0  0  0  0  0  0  0  0  0  0
    4.2767    7.7367    1.2554 C   0  0  1  0  0  0  0  0  0  0  0  0
    5.4604    7.0056    1.7396 O   0  0  0  0  0  0  0  0  0  0  0  0
    8.3981   -3.2662    1.8995 C   0  0  0  0  0  0  0  0  0  0  0  0
    8.4444   -4.6135    2.3022 O   0  0  0  0  0  0  0  0  0  0  0  0
    9.8518    2.5051    5.3225 C   0  0  1  0  0  0  0  0  0  0  0  0
    9.8023    3.9333    5.3823 O   0  0  0  0  0  0  0  0  0  0  0  0
    3.0038    7.3644    2.1327 C   0  0  0  0  0  0  0  0  0  0  0  0
    2.5195    5.9629    1.9993 N   0  0  0  0  0  0  0  0  0  0  0  0
  1  2  1  1  0  0  0
  1  7  1  0  0  0  0
  1 30  1  0  0  0  0
  3  4  1  6  0  0  0
  3  9  1  0  0  0  0
  3 39  1  0  0  0  0
  5 10  1  0  0  0  0
  5 26  1  0  0  0  0
  5 32  1  6  0  0  0
  6 12  1  0  0  0  0
  6 36  1  0  0  0  0
  6 19  1  1  0  0  0
  7  8  1  1  0  0  0
  7 14  1  0  0  0  0
  9 16  1  0  0  0  0
 10 11  1  1  0  0  0
 10 18  1  0  0  0  0
 12 13  1  1  0  0  0
 12 20  1  0  0  0  0
 14 15  1  6  0  0  0
 14 22  1  0  0  0  0
 16 17  1  6  0  0  0
 16 24  1  0  0  0  0
 18 19  1  1  0  0  0
 18 25  1  0  0  0  0
 20 21  1  6  0  0  0
 20 27  1  0  0  0  0
 22 23  1  1  0  0  0
 22 29  1  0  0  0  0
 24  2  1  1  0  0  0
 24 31  1  0  0  0  0
 25 26  1  0  0  0  0
 25 33  1  6  0  0  0
 27 28  1  1  0  0  0
 27 35  1  0  0  0  0
 29 30  1  0  0  0  0
 29 37  1  6  0  0  0
 31 32  1  6  0  0  0
 31 39  1  0  0  0  0
 33 34  1  0  0  0  0
 35 36  1  0  0  0  0
 35 41  1  1  0  0  0
 37 38  1  0  0  0  0
 39 40  1  1  0  0  0
 41 42  1  0  0  0  0
M  END
>  <CHROM.1>
-176.79043963,156.75117087,-170.59135860,-177.61689902,-159.57453897,-175.79718288
-65.44737587,170.88439665,173.37968818,6.92411244,2.78875256,2.95956399,1.36328811
0.56047716,2.98035131

>  <Name>
2o3w_lig

>  <RI>
0

>  <Rbt.Current_Directory>
/home/itssahil/PROJECTS/Mol_Feturizer/New_Systems/rnas/2o3w

>  <Rbt.Executable>
rbdock ($Id: //depot/dev/client3/rdock/2013.1/src/exe/rbdock.cxx#4 $)

>  <Rbt.Library>
libRbt.so (2013.1, Build901 2013/11/27)

>  <Rbt.Parameter_File>
/export/apps/rDock/src/rDock_2013.1_src/data/scripts/dock_solv.prm

>  <Rbt.Receptor>
prm/pocket_docking_2.prm

>  <SCORE>
-9.20839

>  <SCORE.INTER>
1.52937

>  <SCORE.INTER.CONST>
1

>  <SCORE.INTER.POLAR>
0

>  <SCORE.INTER.ROT>
9

>  <SCORE.INTER.SOLV>
10.7346

>  <SCORE.INTER.VDW>
-12.1586

>  <SCORE.INTER.norm>
0.0364135

>  <SCORE.INTRA>
-10.7562

>  <SCORE.INTRA.DIHEDRAL>
-22.3278

>  <SCORE.INTRA.DIHEDRAL.0>
27.8999

>  <SCORE.INTRA.POLAR>
0

>  <SCORE.INTRA.POLAR.0>
0

>  <SCORE.INTRA.REPUL>
0

>  <SCORE.INTRA.REPUL.0>
0

>  <SCORE.INTRA.SOLV>
-3.02218

>  <SCORE.INTRA.SOLV.lig_0>
-104.479

>  <SCORE.INTRA.VDW>
1.91878

>  <SCORE.INTRA.VDW.0>
-6.17816

>  <SCORE.INTRA.norm>
-0.2561

>  <SCORE.RESTR>
0.0184479

>  <SCORE.RESTR.CAVITY>
0.0184479

>  <SCORE.RESTR.norm>
0.000439235

>  <SCORE.SYSTEM>
0

>  <SCORE.SYSTEM.CONST>
0

>  <SCORE.SYSTEM.DIHEDRAL>
0

>  <SCORE.SYSTEM.SOLV>
0

>  <SCORE.SYSTEM.norm>
0

>  <SCORE.heavy>
42

>  <SCORE.norm>
-0.219247

>  <RMSD>
1.190

$$$$
2o3w_lig
 OpenBabel11021811463D
libRbt.so/2013.1/901 2013/11/27
 42 45  0  0  0  0  0  0  0  0999 V2000
    6.5848   -0.2075    3.2877 C   0  0  2  0  0  0  0  0  0  0  0  0
    7.1312   -0.1691    4.6171 O   0  0  0  0  0  0  0  0  0  0  0  0
   10.5224    1.8215    6.4429 C   0  0  2  0  0  0  0  0  0  0  0  0
   11.8925    2.3544    6.7061 N   0  0  0  0  0  0  0  0  0  0  0  0
    7.9076    3.4768    2.9202 C   0  0  1  0  0  0  0  0  0  0  0  0
    6.5449    7.0039    0.6663 C   0  0  1  0  0  0  0  0  0  0  0  0
    5.0617   -0.5043    3.4301 C   0  0  2  0  0  0  0  0  0  0  0  0
    4.4034    0.3820    4.4056 N   0  0  0  0  0  0  0  0  0  0  0  0
   10.5124    0.2398    6.4401 C   0  0  0  0  0  0  0  0  0  0  0  0
    8.2550    3.7045    1.4175 C   0  0  2  0  0  0  0  0  0  0  0  0
    9.5960    4.2044    1.1918 O   0  0  0  0  0  0  0  0  0  0  0  0
    7.0466    8.4921    0.7152 C   0  0  2  0  0  0  0  0  0  0  0  0
    7.4545    8.8723    2.1008 N   0  0  0  0  0  0  0  0  0  0  0  0
    4.7882   -1.9492    3.8866 C   0  0  1  0  0  0  0  0  0  0  0  0
    3.3819   -2.1881    3.9651 O   0  0  0  0  0  0  0  0  0  0  0  0
    9.0411   -0.2607    6.1807 C   0  0  2  0  0  0  0  0  0  0  0  0
    8.9920   -1.7477    6.1859 N   0  0  0  0  0  0  0  0  0  0  0  0
    7.1201    4.6355    0.9880 C   0  0  2  0  0  0  0  0  0  0  0  0
    7.4799    6.0420    1.1703 O   0  0  0  0  0  0  0  0  0  0  0  0
    5.8903    9.4581    0.1703 C   0  0  1  0  0  0  0  0  0  0  0  0
    5.7964    9.3111   -1.2645 O   0  0  0  0  0  0  0  0  0  0  0  0
    5.4749   -2.9357    2.9149 C   0  0  2  0  0  0  0  0  0  0  0  0
    5.2199   -4.2637    3.3095 O   0  0  0  0  0  0  0  0  0  0  0  0
    8.5036    0.2826    4.7980 C   0  0  2  0  0  0  0  0  0  0  0  0
    5.9074    4.2538    1.8535 C   0  0  2  0  0  0  0  0  0  0  0  0
    6.5071    3.8059    3.0668 O   0  0  0  0  0  0  0  0  0  0  0  0
    4.4636    9.1566    0.8345 C   0  0  2  0  0  0  0  0  0  0  0  0
    4.5329    9.5543    2.2033 O   0  0  0  0  0  0  0  0  0  0  0  0
    7.0135   -2.6491    2.8992 C   0  0  2  0  0  0  0  0  0  0  0  0
    7.2516   -1.2632    2.4962 O   0  0  0  0  0  0  0  0  0  0  0  0
    8.5371    1.8239    4.7064 C   0  0  2  0  0  0  0  0  0  0  0  0
    8.1921    2.1322    3.3278 O   0  0  0  0  0  0  0  0  0  0  0  0
    4.9841    3.1536    1.2441 C   0  0  0  0  0  0  0  0  0  0  0  0
    3.8576    2.9609    2.0943 O   0  0  0  0  0  0  0  0  0  0  0  0
    4.1140    7.6240    0.7290 C   0  0  1  0  0  0  0  0  0  0  0  0
    5.2180    6.9061    1.3893 O   0  0  0  0  0  0  0  0  0  0  0  0
    7.7667   -3.5683    1.9656 C   0  0  0  0  0  0  0  0  0  0  0  0
    9.1401   -3.2642    1.9893 O   0  0  0  0  0  0  0  0  0  0  0  0
    9.9867    2.3634    5.0572 C   0  0  1  0  0  0  0  0  0  0  0  0
    9.9795    3.7922    5.1205 O   0  0  0  0  0  0  0  0  0  0  0  0
    2.7252    7.2292    1.3953 C   0  0  0  0  0  0  0  0  0  0  0  0
    2.2531    5.8438    1.1229 N   0  0  0  0  0  0  0  0  0  0  0  0
  1  2  1  1  0  0  0
  1  7  1  0  0  0  0
  1 30  1  0  0  0  0
  3  4  1  6  0  0  0
  3  9  1  0  0  0  0
  3 39  1  0  0  0  0
  5 10  1  0  0  0  0
  5 26  1  0  0  0  0
  5 32  1  6  0  0  0
  6 12  1  0  0  0  0
  6 36  1  0  0  0  0
  6 19  1  1  0  0  0
  7  8  1  1  0  0  0
  7 14  1  0  0  0  0
  9 16  1  0  0  0  0
 10 11  1  1  0  0  0
 10 18  1  0  0  0  0
 12 13  1  1  0  0  0
 12 20  1  0  0  0  0
 14 15  1  6  0  0  0
 14 22  1  0  0  0  0
 16 17  1  6  0  0  0
 16 24  1  0  0  0  0
 18 19  1  1  0  0  0
 18 25  1  0  0  0  0
 20 21  1  6  0  0  0
 20 27  1  0  0  0  0
 22 23  1  1  0  0  0
 22 29  1  0  0  0  0
 24  2  1  1  0  0  0
 24 31  1  0  0  0  0
 25 26  1  0  0  0  0
 25 33  1  6  0  0  0
 27 28  1  1  0  0  0
 27 35  1  0  0  0  0
 29 30  1  0  0  0  0
 29 37  1  6  0  0  0
 31 32  1  6  0  0  0
 31 39  1  0  0  0  0
 33 34  1  0  0  0  0
 35 36  1  0  0  0  0
 35 41  1  1  0  0  0
 37 38  1  0  0  0  0
 39 40  1  1  0  0  0
 41 42  1  0  0  0  0
M  END
>  <CHROM.1>
-171.17997617,151.83799029,-172.59945558,173.55643849,-158.89323830,-176.00787972
179.85441655,169.60905108,170.29150551,6.82123218,2.75082241,2.84333649,1.34865177
0.46346481,2.91748066

>  <Name>
2o3w_lig

>  <RI>
0

>  <Rbt.Current_Directory>
/home/itssahil/PROJECTS/Mol_Feturizer/New_Systems/rnas/2o3w

>  <Rbt.Executable>
rbdock ($Id: //depot/dev/client3/rdock/2013.1/src/exe/rbdock.cxx#4 $)

>  <Rbt.Library>
libRbt.so (2013.1, Build901 2013/11/27)

>  <Rbt.Parameter_File>
/export/apps/rDock/src/rDock_2013.1_src/data/scripts/dock_solv.prm

>  <Rbt.Receptor>
prm/pocket_docking_2.prm

>  <SCORE>
-8.5428

>  <SCORE.INTER>
2.28145

>  <SCORE.INTER.CONST>
1

>  <SCORE.INTER.POLAR>
0

>  <SCORE.INTER.ROT>
9

>  <SCORE.INTER.SOLV>
9.22314

>  <SCORE.INTER.VDW>
-11.1534

>  <SCORE.INTER.norm>
0.0543203

>  <SCORE.INTRA>
-10.8242

>  <SCORE.INTRA.DIHEDRAL>
-20.7889

>  <SCORE.INTRA.DIHEDRAL.0>
27.8999

>  <SCORE.INTRA.POLAR>
0

>  <SCORE.INTRA.POLAR.0>
0

>  <SCORE.INTRA.REPUL>
0

>  <SCORE.INTRA.REPUL.0>
0

>  <SCORE.INTRA.SOLV>
-3.46998

>  <SCORE.INTRA.SOLV.lig_0>
-104.479

>  <SCORE.INTRA.VDW>
1.30521

>  <SCORE.INTRA.VDW.0>
-6.17816

>  <SCORE.INTRA.norm>
-0.25772

>  <SCORE.RESTR>
0

>  <SCORE.RESTR.CAVITY>
0

>  <SCORE.RESTR.norm>
0

>  <SCORE.SYSTEM>
0

>  <SCORE.SYSTEM.CONST>
0

>  <SCORE.SYSTEM.DIHEDRAL>
0

>  <SCORE.SYSTEM.SOLV>
0

>  <SCORE.SYSTEM.norm>
0

>  <SCORE.heavy>
42

>  <SCORE.norm>
-0.2034

>  <RMSD>
1.190

$$$$
2o3w_lig
 OpenBabel11021811463D
libRbt.so/2013.1/901 2013/11/27
 42 45  0  0  0  0  0  0  0  0999 V2000
    6.7054   -0.1383    3.3914 C   0  0  2  0  0  0  0  0  0  0  0  0
    7.1323   -0.1409    4.7644 O   0  0  0  0  0  0  0  0  0  0  0  0
    9.9870    2.2078    7.0293 C   0  0  2  0  0  0  0  0  0  0  0  0
   11.2263    2.9224    7.4582 N   0  0  0  0  0  0  0  0  0  0  0  0
    7.6283    3.7285    3.3385 C   0  0  1  0  0  0  0  0  0  0  0  0
    6.1913    7.2587    0.9904 C   0  0  1  0  0  0  0  0  0  0  0  0
    5.2392   -0.6653    3.3697 C   0  0  2  0  0  0  0  0  0  0  0  0
    4.3778    0.0239    4.3462 N   0  0  0  0  0  0  0  0  0  0  0  0
   10.2268    0.6470    6.9384 C   0  0  0  0  0  0  0  0  0  0  0  0
    7.7648    3.9344    1.7991 C   0  0  2  0  0  0  0  0  0  0  0  0
    9.0735    4.3930    1.3796 O   0  0  0  0  0  0  0  0  0  0  0  0
    6.5591    8.7545    1.3006 C   0  0  2  0  0  0  0  0  0  0  0  0
    6.5674    9.0075    2.7726 N   0  0  0  0  0  0  0  0  0  0  0  0
    5.1544   -2.1699    3.6859 C   0  0  1  0  0  0  0  0  0  0  0  0
    3.7994   -2.6172    3.6161 O   0  0  0  0  0  0  0  0  0  0  0  0
    8.8826   -0.0513    6.5049 C   0  0  2  0  0  0  0  0  0  0  0  0
    9.0682   -1.5253    6.4232 N   0  0  0  0  0  0  0  0  0  0  0  0
    6.6069    4.8952    1.5241 C   0  0  2  0  0  0  0  0  0  0  0  0
    7.0283    6.2918    1.6371 O   0  0  0  0  0  0  0  0  0  0  0  0
    5.5192    9.7198    0.5565 C   0  0  1  0  0  0  0  0  0  0  0  0
    5.8100    9.7172   -0.8592 O   0  0  0  0  0  0  0  0  0  0  0  0
    6.0588   -2.9541    2.7080 C   0  0  2  0  0  0  0  0  0  0  0  0
    5.9793   -4.3353    2.9736 O   0  0  0  0  0  0  0  0  0  0  0  0
    8.3942    0.4997    5.1071 C   0  0  2  0  0  0  0  0  0  0  0  0
    5.5193    4.5559    2.5573 C   0  0  2  0  0  0  0  0  0  0  0  0
    6.2727    4.0997    3.6784 O   0  0  0  0  0  0  0  0  0  0  0  0
    3.9936    9.2896    0.7911 C   0  0  2  0  0  0  0  0  0  0  0  0
    3.6788    9.5470    2.1589 O   0  0  0  0  0  0  0  0  0  0  0  0
    7.5318   -2.4463    2.8560 C   0  0  2  0  0  0  0  0  0  0  0  0
    7.5864   -1.0098    2.5851 O   0  0  0  0  0  0  0  0  0  0  0  0
    8.1925    2.0309    5.1044 C   0  0  2  0  0  0  0  0  0  0  0  0
    7.9301    2.3792    3.7172 O   0  0  0  0  0  0  0  0  0  0  0  0
    4.4884    3.4787    2.0980 C   0  0  0  0  0  0  0  0  0  0  0  0
    5.1643    2.2444    1.8776 O   0  0  0  0  0  0  0  0  0  0  0  0
    3.7901    7.7622    0.4628 C   0  0  1  0  0  0  0  0  0  0  0  0
    4.7326    7.0291    1.3257 O   0  0  0  0  0  0  0  0  0  0  0  0
    8.4883   -3.1579    1.9274 C   0  0  0  0  0  0  0  0  0  0  0  0
    8.6250   -4.5045    2.3111 O   0  0  0  0  0  0  0  0  0  0  0  0
    9.5010    2.7580    5.6288 C   0  0  1  0  0  0  0  0  0  0  0  0
    9.2629    4.1612    5.7697 O   0  0  0  0  0  0  0  0  0  0  0  0
    2.3070    7.2405    0.7012 C   0  0  0  0  0  0  0  0  0  0  0  0
    1.9713    5.9419    0.0552 N   0  0  0  0  0  0  0  0  0  0  0  0
  1  2  1  1  0  0  0
  1  7  1  0  0  0  0
  1 30  1  0  0  0  0
  3  4  1  6  0  0  0
  3  9  1  0  0  0  0
  3 39  1  0  0  0  0
  5 10  1  0  0  0  0
  5 26  1  0  0  0  0
  5 32  1  6  0  0  0
  6 12  1  0  0  0  0
  6 36  1  0  0  0  0
  6 19  1  1  0  0  0
  7  8  1  1  0  0  0
  7 14  1  0  0  0  0
  9 16  1  0  0  0  0
 10 11  1  1  0  0  0
 10 18  1  0  0  0  0
 12 13  1  1  0  0  0
 12 20  1  0  0  0  0
 14 15  1  6  0  0  0
 14 22  1  0  0  0  0
 16 17  1  6  0  0  0
 16 24  1  0  0  0  0
 18 19  1  1  0  0  0
 18 25  1  0  0  0  0
 20 21  1  6  0  0  0
 20 27  1  0  0  0  0
 22 23  1  1  0  0  0
 22 29  1  0  0  0  0
 24  2  1  1  0  0  0
 24 31  1  0  0  0  0
 25 26  1  0  0  0  0
 25 33  1  6  0  0  0
 27 28  1  1  0  0  0
 27 35  1  0  0  0  0
 29 30  1  0  0  0  0
 29 37  1  6  0  0  0
 31 32  1  6  0  0  0
 31 39  1  0  0  0  0
 33 34  1  0  0  0  0
 35 36  1  0  0  0  0
 35 41  1  1  0  0  0
 37 38  1  0  0  0  0
 39 40  1  1  0  0  0
 41 42  1  0  0  0  0
M  END
>  <CHROM.1>
-170.55091088,164.63675563,171.81554188,160.12856188,-160.47378920,63.06091079
-67.90511831,177.01901696,163.37178021,6.65859928,2.85897544,3.03564027,1.25508274
0.67277719,3.03543935

>  <Name>
2o3w_lig

>  <RI>
0

>  <Rbt.Current_Directory>
/home/itssahil/PROJECTS/Mol_Feturizer/New_Systems/rnas/2o3w

>  <Rbt.Executable>
rbdock ($Id: //depot/dev/client3/rdock/2013.1/src/exe/rbdock.cxx#4 $)

>  <Rbt.Library>
libRbt.so (2013.1, Build901 2013/11/27)

>  <Rbt.Parameter_File>
/export/apps/rDock/src/rDock_2013.1_src/data/scripts/dock_solv.prm

>  <Rbt.Receptor>
prm/pocket_docking_2.prm

>  <SCORE>
-9.9341

>  <SCORE.INTER>
1.15609

>  <SCORE.INTER.CONST>
1

>  <SCORE.INTER.POLAR>
0

>  <SCORE.INTER.ROT>
9

>  <SCORE.INTER.SOLV>
9.7091

>  <SCORE.INTER.VDW>
-12.0656

>  <SCORE.INTER.norm>
0.0275258

>  <SCORE.INTRA>
-11.0911

>  <SCORE.INTRA.DIHEDRAL>
-21.1893

>  <SCORE.INTRA.DIHEDRAL.0>
27.8999

>  <SCORE.INTRA.POLAR>
0

>  <SCORE.INTRA.POLAR.0>
0

>  <SCORE.INTRA.REPUL>
0

>  <SCORE.INTRA.REPUL.0>
0

>  <SCORE.INTRA.SOLV>
-3.59371

>  <SCORE.INTRA.SOLV.lig_0>
-104.479

>  <SCORE.INTRA.VDW>
1.30039

>  <SCORE.INTRA.VDW.0>
-6.17816

>  <SCORE.INTRA.norm>
-0.264074

>  <SCORE.RESTR>
0.00093366

>  <SCORE.RESTR.CAVITY>
0.00093366

>  <SCORE.RESTR.norm>
2.223e-05

>  <SCORE.SYSTEM>
0

>  <SCORE.SYSTEM.CONST>
0

>  <SCORE.SYSTEM.DIHEDRAL>
0

>  <SCORE.SYSTEM.SOLV>
0

>  <SCORE.SYSTEM.norm>
0

>  <SCORE.heavy>
42

>  <SCORE.norm>
-0.236526

>  <RMSD>
1.204

$$$$
2o3w_lig
 OpenBabel11021811463D
libRbt.so/2013.1/901 2013/11/27
 42 45  0  0  0  0  0  0  0  0999 V2000
    6.4735   -0.2492    3.2391 C   0  0  2  0  0  0  0  0  0  0  0  0
    6.8270   -0.1413    4.6286 O   0  0  0  0  0  0  0  0  0  0  0  0
    9.8824    1.8998    6.9295 C   0  0  2  0  0  0  0  0  0  0  0  0
   11.1807    2.4940    7.3677 N   0  0  0  0  0  0  0  0  0  0  0  0
    7.5089    3.6764    3.3007 C   0  0  1  0  0  0  0  0  0  0  0  0
    6.2729    7.3070    1.0192 C   0  0  1  0  0  0  0  0  0  0  0  0
    4.9917   -0.7279    3.1824 C   0  0  2  0  0  0  0  0  0  0  0  0
    4.1065    0.0749    4.0442 N   0  0  0  0  0  0  0  0  0  0  0  0
    9.9844    0.3264    6.8046 C   0  0  0  0  0  0  0  0  0  0  0  0
    7.9689    4.0412    1.8563 C   0  0  2  0  0  0  0  0  0  0  0  0
    9.2911    4.6299    1.7899 O   0  0  0  0  0  0  0  0  0  0  0  0
    6.6396    8.8052    1.3190 C   0  0  2  0  0  0  0  0  0  0  0  0
    6.5913    9.0829    2.7858 N   0  0  0  0  0  0  0  0  0  0  0  0
    4.8338   -2.1940    3.6257 C   0  0  1  0  0  0  0  0  0  0  0  0
    3.4686   -2.6013    3.5203 O   0  0  0  0  0  0  0  0  0  0  0  0
    8.5831   -0.2423    6.3626 C   0  0  2  0  0  0  0  0  0  0  0  0
    8.6387   -1.7248    6.2491 N   0  0  0  0  0  0  0  0  0  0  0  0
    6.8199    4.9402    1.3968 C   0  0  2  0  0  0  0  0  0  0  0  0
    7.0759    6.3452    1.7147 O   0  0  0  0  0  0  0  0  0  0  0  0
    5.6376    9.7652    0.5182 C   0  0  1  0  0  0  0  0  0  0  0  0
    5.9845    9.7367   -0.8846 O   0  0  0  0  0  0  0  0  0  0  0  0
    5.7584   -3.0928    2.7734 C   0  0  2  0  0  0  0  0  0  0  0  0
    5.6132   -4.4408    3.1557 O   0  0  0  0  0  0  0  0  0  0  0  0
    8.1410    0.3791    4.9791 C   0  0  2  0  0  0  0  0  0  0  0  0
    5.5634    4.4255    2.1190 C   0  0  2  0  0  0  0  0  0  0  0  0
    6.0835    3.9160    3.3447 O   0  0  0  0  0  0  0  0  0  0  0  0
    4.1006    9.3497    0.6988 C   0  0  2  0  0  0  0  0  0  0  0  0
    3.7336    9.6323    2.0485 O   0  0  0  0  0  0  0  0  0  0  0  0
    7.2396   -2.6220    2.9579 C   0  0  2  0  0  0  0  0  0  0  0  0
    7.3624   -1.2186    2.5640 O   0  0  0  0  0  0  0  0  0  0  0  0
    8.0741    1.9218    5.0095 C   0  0  2  0  0  0  0  0  0  0  0  0
    7.8394    2.3212    3.6312 O   0  0  0  0  0  0  0  0  0  0  0  0
    4.7648    3.3283    1.3491 C   0  0  0  0  0  0  0  0  0  0  0  0
    3.5688    3.0292    2.0626 O   0  0  0  0  0  0  0  0  0  0  0  0
    3.8985    7.8185    0.3880 C   0  0  1  0  0  0  0  0  0  0  0  0
    4.8002    7.0934    1.2998 O   0  0  0  0  0  0  0  0  0  0  0  0
    8.2163   -3.4458    2.1510 C   0  0  0  0  0  0  0  0  0  0  0  0
    9.5374   -3.1105    2.4996 O   0  0  0  0  0  0  0  0  0  0  0  0
    9.4426    2.5202    5.5431 C   0  0  1  0  0  0  0  0  0  0  0  0
    9.3287    3.9356    5.7146 O   0  0  0  0  0  0  0  0  0  0  0  0
    2.4031    7.3114    0.5756 C   0  0  0  0  0  0  0  0  0  0  0  0
    2.1364    5.9174    0.1259 N   0  0  0  0  0  0  0  0  0  0  0  0
  1  2  1  1  0  0  0
  1  7  1  0  0  0  0
  1 30  1  0  0  0  0
  3  4  1  6  0  0  0
  3  9  1  0  0  0  0
  3 39  1  0  0  0  0
  5 10  1  0  0  0  0
  5 26  1  0  0  0  0
  5 32  1  6  0  0  0
  6 12  1  0  0  0  0
  6 36  1  0  0  0  0
  6 19  1  1  0  0  0
  7  8  1  1  0  0  0
  7 14  1  0  0  0  0
  9 16  1  0  0  0  0
 10 11  1  1  0  0  0
 10 18  1  0  0  0  0
 12 13  1  1  0  0  0
 12 20  1  0  0  0  0
 14 15  1  6  0  0  0
 14 22  1  0  0  0  0
 16 17  1  6  0  0  0
 16 24  1  0  0  0  0
 18 19  1  1  0  0  0
 18 25  1  0  0  0  0
 20 21  1  6  0  0  0
 20 27  1  0  0  0  0
 22 23  1  1  0  0  0
 22 29  1  0  0  0  0
 24  2  1  1  0  0  0
 24 31  1  0  0  0  0
 25 26  1  0  0  0  0
 25 33  1  6  0  0  0
 27 28  1  1  0  0  0
 27 35  1  0  0  0  0
 29 30  1  0  0  0  0
 29 37  1  6  0  0  0
 31 32  1  6  0  0  0
 31 39  1  0  0  0  0
 33 34  1  0  0  0  0
 35 36  1  0  0  0  0
 35 41  1  1  0  0  0
 37 38  1  0  0  0  0
 39 40  1  1  0  0  0
 41 42  1  0  0  0  0
M  END
>  <CHROM.1>
-175.84078089,152.28450697,-176.28705154,163.21364920,-151.66873670,-174.72080947
-171.51014881,170.02207464,172.49160156,6.57012826,2.85341900,2.97761547
1.29843354,0.59908774,2.98200472

>  <Name>
2o3w_lig

>  <RI>
0

>  <Rbt.Current_Directory>
/home/itssahil/PROJECTS/Mol_Feturizer/New_Systems/rnas/2o3w

>  <Rbt.Executable>
rbdock ($Id: //depot/dev/client3/rdock/2013.1/src/exe/rbdock.cxx#4 $)

>  <Rbt.Library>
libRbt.so (2013.1, Build901 2013/11/27)

>  <Rbt.Parameter_File>
/export/apps/rDock/src/rDock_2013.1_src/data/scripts/dock_solv.prm

>  <Rbt.Receptor>
prm/pocket_docking_2.prm

>  <SCORE>
-8.36774

>  <SCORE.INTER>
1.87095

>  <SCORE.INTER.CONST>
1

>  <SCORE.INTER.POLAR>
0

>  <SCORE.INTER.ROT>
9

>  <SCORE.INTER.SOLV>
9.55931

>  <SCORE.INTER.VDW>
-11.5391

>  <SCORE.INTER.norm>
0.0445464

>  <SCORE.INTRA>
-10.2509

>  <SCORE.INTRA.DIHEDRAL>
-18.8439

>  <SCORE.INTRA.DIHEDRAL.0>
27.8999

>  <SCORE.INTRA.POLAR>
0

>  <SCORE.INTRA.POLAR.0>
0

>  <SCORE.INTRA.REPUL>
0

>  <SCORE.INTRA.REPUL.0>
0

>  <SCORE.INTRA.SOLV>
-3.6301

>  <SCORE.INTRA.SOLV.lig_0>
-104.479

>  <SCORE.INTRA.VDW>
0.986157

>  <SCORE.INTRA.VDW.0>
-6.17816

>  <SCORE.INTRA.norm>
-0.244068

>  <SCORE.RESTR>
0.0121705

>  <SCORE.RESTR.CAVITY>
0.0121705

>  <SCORE.RESTR.norm>
0.000289773

>  <SCORE.SYSTEM>
0

>  <SCORE.SYSTEM.CONST>
0

>  <SCORE.SYSTEM.DIHEDRAL>
0

>  <SCORE.SYSTEM.SOLV>
0

>  <SCORE.SYSTEM.norm>
0

>  <SCORE.heavy>
42

>  <SCORE.norm>
-0.199232

>  <RMSD>
1.269

$$$$
2o3w_lig
 OpenBabel11021811463D
libRbt.so/2013.1/901 2013/11/27
 42 45  0  0  0  0  0  0  0  0999 V2000
    6.8044   -0.1981    3.6551 C   0  0  2  0  0  0  0  0  0  0  0  0
    7.3373   -0.1658    4.9901 O   0  0  0  0  0  0  0  0  0  0  0  0
   10.7649    1.7612    6.8161 C   0  0  2  0  0  0  0  0  0  0  0  0
   12.1483    2.2538    7.0881 N   0  0  0  0  0  0  0  0  0  0  0  0
    8.3281    3.4002    3.1851 C   0  0  1  0  0  0  0  0  0  0  0  0
    6.9004    6.9687    1.0087 C   0  0  1  0  0  0  0  0  0  0  0  0
    5.3019   -0.5939    3.7744 C   0  0  2  0  0  0  0  0  0  0  0  0
    4.5820    0.2195    4.7697 N   0  0  0  0  0  0  0  0  0  0  0  0
   10.6988    0.1816    6.8617 C   0  0  0  0  0  0  0  0  0  0  0  0
    8.1650    3.4525    1.6354 C   0  0  2  0  0  0  0  0  0  0  0  0
    9.4085    3.6493    0.9184 O   0  0  0  0  0  0  0  0  0  0  0  0
    7.5778    8.3851    1.0695 C   0  0  2  0  0  0  0  0  0  0  0  0
    8.1822    8.6302    2.4132 N   0  0  0  0  0  0  0  0  0  0  0  0
    5.1164   -2.0662    4.1852 C   0  0  1  0  0  0  0  0  0  0  0  0
    3.7274   -2.3951    4.2435 O   0  0  0  0  0  0  0  0  0  0  0  0
    9.2154   -0.2751    6.5907 C   0  0  2  0  0  0  0  0  0  0  0  0
    9.1134   -1.7586    6.6406 N   0  0  0  0  0  0  0  0  0  0  0  0
    7.1292    4.5674    1.4832 C   0  0  2  0  0  0  0  0  0  0  0  0
    7.7653    5.8783    1.3500 O   0  0  0  0  0  0  0  0  0  0  0  0
    6.4904    9.5069    0.7143 C   0  0  1  0  0  0  0  0  0  0  0  0
    6.2179    9.4608   -0.7043 O   0  0  0  0  0  0  0  0  0  0  0  0
    5.8710   -2.9779    3.1909 C   0  0  2  0  0  0  0  0  0  0  0  0
    5.6971   -4.3307    3.5435 O   0  0  0  0  0  0  0  0  0  0  0  0
    8.7216    0.2430    5.1822 C   0  0  2  0  0  0  0  0  0  0  0  0
    6.2466    4.5015    2.7411 C   0  0  2  0  0  0  0  0  0  0  0  0
    7.1444    4.0199    3.7383 O   0  0  0  0  0  0  0  0  0  0  0  0
    5.1223    9.3271    1.5289 C   0  0  2  0  0  0  0  0  0  0  0  0
    5.3928    9.6286    2.8973 O   0  0  0  0  0  0  0  0  0  0  0  0
    7.3886   -2.5952    3.1980 C   0  0  2  0  0  0  0  0  0  0  0  0
    7.5420   -1.1855    2.8387 O   0  0  0  0  0  0  0  0  0  0  0  0
    8.8114    1.7786    5.0440 C   0  0  2  0  0  0  0  0  0  0  0  0
    8.5016    2.0554    3.6505 O   0  0  0  0  0  0  0  0  0  0  0  0
    4.9951    3.5778    2.6193 C   0  0  0  0  0  0  0  0  0  0  0  0
    5.4172    2.2509    2.3195 O   0  0  0  0  0  0  0  0  0  0  0  0
    4.5833    7.8531    1.3917 C   0  0  1  0  0  0  0  0  0  0  0  0
    5.6616    6.9759    1.8796 O   0  0  0  0  0  0  0  0  0  0  0  0
    8.2050   -3.4367    2.2445 C   0  0  0  0  0  0  0  0  0  0  0  0
    7.7347   -3.2729    0.9288 O   0  0  0  0  0  0  0  0  0  0  0  0
   10.2730    2.2778    5.4049 C   0  0  1  0  0  0  0  0  0  0  0  0
   10.3154    3.7073    5.4241 O   0  0  0  0  0  0  0  0  0  0  0  0
    3.2418    7.5762    2.1994 C   0  0  0  0  0  0  0  0  0  0  0  0
    2.0568    8.3669    1.7666 N   0  0  0  0  0  0  0  0  0  0  0  0
  1  2  1  1  0  0  0
  1  7  1  0  0  0  0
  1 30  1  0  0  0  0
  3  4  1  6  0  0  0
  3  9  1  0  0  0  0
  3 39  1  0  0  0  0
  5 10  1  0  0  0  0
  5 26  1  0  0  0  0
  5 32  1  1  0  0  0
  6 12  1  0  0  0  0
  6 36  1  0  0  0  0
  6 19  1  1  0  0  0
  7  8  1  1  0  0  0
  7 14  1  0  0  0  0
  9 16  1  0  0  0  0
 10 11  1  6  0  0  0
 10 18  1  0  0  0  0
 12 13  1  1  0  0  0
 12 20  1  0  0  0  0
 14 15  1  6  0  0  0
 14 22  1  0  0  0  0
 16 17  1  6  0  0  0
 16 24  1  0  0  0  0
 18 19  1  1  0  0  0
 18 25  1  0  0  0  0
 20 21  1  6  0  0  0
 20 27  1  0  0  0  0
 22 23  1  1  0  0  0
 22 29  1  0  0  0  0
 24  2  1  1  0  0  0
 24 31  1  0  0  0  0
 25 26  1  0  0  0  0
 25 33  1  6  0  0  0
 27 28  1  1  0  0  0
 27 35  1  0  0  0  0
 29 30  1  0  0  0  0
 29 37  1  6  0  0  0
 31 32  1  6  0  0  0
 31 39  1  0  0  0  0
 33 34  1  0  0  0  0
 35 36  1  0  0  0  0
 35 41  1  1  0  0  0
 37 38  1  0  0  0  0
 39 40  1  1  0  0  0
 41 42  1  0  0  0  0
M  END
>  <CHROM.1>
-177.05542749,173.53459628,171.93626058,171.28968187,-160.25926608,58.93725765
60.05527814,172.28567022,62.93502918,7.12817656,2.77735406,3.22312302,1.37900460
0.51935026,2.95500004

>  <Name>
2o3w_lig

>  <RI>
0

>  <Rbt.Current_Directory>
/home/itssahil/PROJECTS/Mol_Feturizer/New_Systems/rnas/2o3w

>  <Rbt.Executable>
rbdock ($Id: //depot/dev/client3/rdock/2013.1/src/exe/rbdock.cxx#4 $)

>  <Rbt.Library>
libRbt.so (2013.1, Build901 2013/11/27)

>  <Rbt.Parameter_File>
/export/apps/rDock/src/rDock_2013.1_src/data/scripts/dock_solv.prm

>  <Rbt.Receptor>
prm/pocket_docking_3.prm

>  <SCORE>
-11.8734

>  <SCORE.INTER>
0.384607

>  <SCORE.INTER.CONST>
1

>  <SCORE.INTER.POLAR>
0

>  <SCORE.INTER.ROT>
9

>  <SCORE.INTER.SOLV>
15.9481

>  <SCORE.INTER.VDW>
-14.6596

>  <SCORE.INTER.norm>
0.0091573

>  <SCORE.INTRA>
-12.2602

>  <SCORE.INTRA.DIHEDRAL>
-24.7574

>  <SCORE.INTRA.DIHEDRAL.0>
27.8999

>  <SCORE.INTRA.POLAR>
0

>  <SCORE.INTRA.POLAR.0>
0

>  <SCORE.INTRA.REPUL>
0

>  <SCORE.INTRA.REPUL.0>
0

>  <SCORE.INTRA.SOLV>
-3.31456

>  <SCORE.INTRA.SOLV.lig_0>
-104.479

>  <SCORE.INTRA.VDW>
1.77575

>  <SCORE.INTRA.VDW.0>
-6.17816

>  <SCORE.INTRA.norm>
-0.29191

>  <SCORE.RESTR>
0.00220748

>  <SCORE.RESTR.CAVITY>
0.00220748

>  <SCORE.RESTR.norm>
5.2559e-05

>  <SCORE.SYSTEM>
0

>  <SCORE.SYSTEM.CONST>
0

>  <SCORE.SYSTEM.DIHEDRAL>
0

>  <SCORE.SYSTEM.SOLV>
0

>  <SCORE.SYSTEM.norm>
0

>  <SCORE.heavy>
42

>  <SCORE.norm>
-0.2827

>  <RMSD>
1.279

$$$$
2o3w_lig
 OpenBabel11021811463D
libRbt.so/2013.1/901 2013/11/27
 42 45  0  0  0  0  0  0  0  0999 V2000
    6.8274    0.2447    3.4416 C   0  0  2  0  0  0  0  0  0  0  0  0
    7.4816    0.0312    4.7040 O   0  0  0  0  0  0  0  0  0  0  0  0
   11.2390    1.5204    6.2726 C   0  0  2  0  0  0  0  0  0  0  0  0
   12.6883    1.8365    6.4453 N   0  0  0  0  0  0  0  0  0  0  0  0
    8.5631    3.4314    2.8496 C   0  0  1  0  0  0  0  0  0  0  0  0
    6.8898    6.9863    0.8110 C   0  0  1  0  0  0  0  0  0  0  0  0
    5.2995    0.0562    3.6831 C   0  0  2  0  0  0  0  0  0  0  0  0
    4.8113    0.8318    4.8366 N   0  0  0  0  0  0  0  0  0  0  0  0
   10.9791   -0.0383    6.3427 C   0  0  0  0  0  0  0  0  0  0  0  0
    8.3502    3.5279    1.3081 C   0  0  2  0  0  0  0  0  0  0  0  0
    9.5591    3.8153    0.5631 O   0  0  0  0  0  0  0  0  0  0  0  0
    7.4649    8.4385    0.9818 C   0  0  2  0  0  0  0  0  0  0  0  0
    8.0030    8.6403    2.3605 N   0  0  0  0  0  0  0  0  0  0  0  0
    4.9266   -1.4144    3.9460 C   0  0  1  0  0  0  0  0  0  0  0  0
    3.5150   -1.5457    4.1221 O   0  0  0  0  0  0  0  0  0  0  0  0
    9.4353   -0.3062    6.1771 C   0  0  2  0  0  0  0  0  0  0  0  0
    9.1522   -1.7648    6.2528 N   0  0  0  0  0  0  0  0  0  0  0  0
    7.2532    4.5905    1.2258 C   0  0  2  0  0  0  0  0  0  0  0  0
    7.8154    5.9373    1.1214 O   0  0  0  0  0  0  0  0  0  0  0  0
    6.3157    9.5046    0.6507 C   0  0  1  0  0  0  0  0  0  0  0  0
    6.0975    9.5277   -0.7778 O   0  0  0  0  0  0  0  0  0  0  0  0
    5.4338   -2.2916    2.7788 C   0  0  2  0  0  0  0  0  0  0  0  0
    5.0854   -3.6391    2.9962 O   0  0  0  0  0  0  0  0  0  0  0  0
    8.9159    0.2637    4.7982 C   0  0  2  0  0  0  0  0  0  0  0  0
    6.4142    4.4346    2.5053 C   0  0  2  0  0  0  0  0  0  0  0  0
    7.3661    3.9677    3.4584 O   0  0  0  0  0  0  0  0  0  0  0  0
    4.9354    9.1839    1.3987 C   0  0  2  0  0  0  0  0  0  0  0  0
    5.1358    9.4181    2.7920 O   0  0  0  0  0  0  0  0  0  0  0  0
    6.9863   -2.1340    2.6589 C   0  0  2  0  0  0  0  0  0  0  0  0
    7.3228   -0.7269    2.4434 O   0  0  0  0  0  0  0  0  0  0  0  0
    9.1874    1.7753    4.6345 C   0  0  2  0  0  0  0  0  0  0  0  0
    8.8209    2.0827    3.2613 O   0  0  0  0  0  0  0  0  0  0  0  0
    5.2097    3.4501    2.3866 C   0  0  0  0  0  0  0  0  0  0  0  0
    4.4910    3.4356    3.6163 O   0  0  0  0  0  0  0  0  0  0  0  0
    4.5049    7.6883    1.1536 C   0  0  1  0  0  0  0  0  0  0  0  0
    5.6234    6.8570    1.6312 O   0  0  0  0  0  0  0  0  0  0  0  0
    7.5690   -2.9563    1.5328 C   0  0  0  0  0  0  0  0  0  0  0  0
    8.9731   -2.8684    1.5445 O   0  0  0  0  0  0  0  0  0  0  0  0
   10.7210    2.0885    4.8907 C   0  0  1  0  0  0  0  0  0  0  0  0
   10.9431    3.5014    4.8887 O   0  0  0  0  0  0  0  0  0  0  0  0
    3.1581    7.2731    1.8900 C   0  0  0  0  0  0  0  0  0  0  0  0
    3.2082    7.2895    3.3779 N   0  0  0  0  0  0  0  0  0  0  0  0
  1  2  1  1  0  0  0
  1  7  1  0  0  0  0
  1 30  1  0  0  0  0
  3  4  1  6  0  0  0
  3  9  1  0  0  0  0
  3 39  1  0  0  0  0
  5 10  1  0  0  0  0
  5 26  1  0  0  0  0
  5 32  1  6  0  0  0
  6 12  1  0  0  0  0
  6 36  1  0  0  0  0
  6 19  1  1  0  0  0
  7  8  1  1  0  0  0
  7 14  1  0  0  0  0
  9 16  1  0  0  0  0
 10 11  1  6  0  0  0
 10 18  1  0  0  0  0
 12 13  1  1  0  0  0
 12 20  1  0  0  0  0
 14 15  1  6  0  0  0
 14 22  1  0  0  0  0
 16 17  1  6  0  0  0
 16 24  1  0  0  0  0
 18 19  1  1  0  0  0
 18 25  1  0  0  0  0
 20 21  1  6  0  0  0
 20 27  1  0  0  0  0
 22 23  1  1  0  0  0
 22 29  1  0  0  0  0
 24  2  1  1  0  0  0
 24 31  1  0  0  0  0
 25 26  1  0  0  0  0
 25 33  1  6  0  0  0
 27 28  1  1  0  0  0
 27 35  1  0  0  0  0
 29 30  1  0  0  0  0
 29 37  1  6  0  0  0
 31 32  1  6  0  0  0
 31 39  1  0  0  0  0
 33 34  1  0  0  0  0
 35 36  1  0  0  0  0
 35 41  1  1  0  0  0
 37 38  1  0  0  0  0
 39 40  1  1  0  0  0
 41 42  1  0  0  0  0
M  END
>  <CHROM.1>
-174.53889504,173.53090519,168.62725274,169.77239432,-168.91327051,-177.84044977
-174.91000862,161.52882287,-64.80412742,7.19302069,2.89644727,3.02843987
1.35127107,0.34834303,2.93268805

>  <Name>
2o3w_lig

>  <RI>
0

>  <Rbt.Current_Directory>
/home/itssahil/PROJECTS/Mol_Feturizer/New_Systems/rnas/2o3w

>  <Rbt.Executable>
rbdock ($Id: //depot/dev/client3/rdock/2013.1/src/exe/rbdock.cxx#4 $)

>  <Rbt.Library>
libRbt.so (2013.1, Build901 2013/11/27)

>  <Rbt.Parameter_File>
/export/apps/rDock/src/rDock_2013.1_src/data/scripts/dock_solv.prm

>  <Rbt.Receptor>
prm/pocket_docking_3.prm

>  <SCORE>
-11.9383

>  <SCORE.INTER>
-0.377377

>  <SCORE.INTER.CONST>
1

>  <SCORE.INTER.POLAR>
0

>  <SCORE.INTER.ROT>
9

>  <SCORE.INTER.SOLV>
13.2909

>  <SCORE.INTER.VDW>
-14.2819

>  <SCORE.INTER.norm>
-0.00898517

>  <SCORE.INTRA>
-11.5609

>  <SCORE.INTRA.DIHEDRAL>
-23.9552

>  <SCORE.INTRA.DIHEDRAL.0>
27.8999

>  <SCORE.INTRA.POLAR>
0

>  <SCORE.INTRA.POLAR.0>
0

>  <SCORE.INTRA.REPUL>
0

>  <SCORE.INTRA.REPUL.0>
0

>  <SCORE.INTRA.SOLV>
-2.23795

>  <SCORE.INTRA.SOLV.lig_0>
-104.479

>  <SCORE.INTRA.VDW>
1.53564

>  <SCORE.INTRA.VDW.0>
-6.17816

>  <SCORE.INTRA.norm>
-0.27526

>  <SCORE.RESTR>
0

>  <SCORE.RESTR.CAVITY>
0

>  <SCORE.RESTR.norm>
0

>  <SCORE.SYSTEM>
0

>  <SCORE.SYSTEM.CONST>
0

>  <SCORE.SYSTEM.DIHEDRAL>
0

>  <SCORE.SYSTEM.SOLV>
0

>  <SCORE.SYSTEM.norm>
0

>  <SCORE.heavy>
42

>  <SCORE.norm>
-0.284245

>  <RMSD>
1.346

$$$$
2o3w_lig
 OpenBabel11021811463D
libRbt.so/2013.1/901 2013/11/27
 42 45  0  0  0  0  0  0  0  0999 V2000
    6.7528    0.0317    3.6759 C   0  0  2  0  0  0  0  0  0  0  0  0
    7.3090    0.0067    5.0015 O   0  0  0  0  0  0  0  0  0  0  0  0
   10.9219    1.6378    6.7572 C   0  0  2  0  0  0  0  0  0  0  0  0
   12.3481    2.0046    7.0058 N   0  0  0  0  0  0  0  0  0  0  0  0
    8.4615    3.4328    3.1539 C   0  0  1  0  0  0  0  0  0  0  0  0
    6.9237    6.9940    1.0122 C   0  0  1  0  0  0  0  0  0  0  0  0
    5.2218   -0.2203    3.8199 C   0  0  2  0  0  0  0  0  0  0  0  0
    4.5993    0.6529    4.8301 N   0  0  0  0  0  0  0  0  0  0  0  0
   10.7106    0.0720    6.8311 C   0  0  0  0  0  0  0  0  0  0  0  0
    8.2018    3.4823    1.6174 C   0  0  2  0  0  0  0  0  0  0  0  0
    9.3987    3.6711    0.8232 O   0  0  0  0  0  0  0  0  0  0  0  0
    7.5914    8.4150    1.0714 C   0  0  2  0  0  0  0  0  0  0  0  0
    8.1974    8.6641    2.4137 N   0  0  0  0  0  0  0  0  0  0  0  0
    4.9043   -1.6703    4.2290 C   0  0  1  0  0  0  0  0  0  0  0  0
    3.4915   -1.8661    4.3102 O   0  0  0  0  0  0  0  0  0  0  0  0
    9.1882   -0.2497    6.5838 C   0  0  2  0  0  0  0  0  0  0  0  0
    8.9501   -1.7163    6.6608 N   0  0  0  0  0  0  0  0  0  0  0  0
    7.1639    4.6022    1.5275 C   0  0  2  0  0  0  0  0  0  0  0  0
    7.7969    5.9095    1.3512 O   0  0  0  0  0  0  0  0  0  0  0  0
    6.4954    9.5293    0.7190 C   0  0  1  0  0  0  0  0  0  0  0  0
    6.2197    9.4814   -0.6989 O   0  0  0  0  0  0  0  0  0  0  0  0
    5.5519   -2.6447    3.2189 C   0  0  2  0  0  0  0  0  0  0  0  0
    5.2564   -3.9765    3.5700 O   0  0  0  0  0  0  0  0  0  0  0  0
    8.7274    0.2887    5.1719 C   0  0  2  0  0  0  0  0  0  0  0  0
    6.3618    4.5437    2.8385 C   0  0  2  0  0  0  0  0  0  0  0  0
    7.3180    4.0599    3.7787 O   0  0  0  0  0  0  0  0  0  0  0  0
    5.1306    9.3400    1.5370 C   0  0  2  0  0  0  0  0  0  0  0  0
    5.4024    9.6432    2.9047 O   0  0  0  0  0  0  0  0  0  0  0  0
    7.0989   -2.4077    3.2010 C   0  0  2  0  0  0  0  0  0  0  0  0
    7.3795   -1.0173    2.8436 O   0  0  0  0  0  0  0  0  0  0  0  0
    8.9570    1.8069    5.0058 C   0  0  2  0  0  0  0  0  0  0  0  0
    8.6572    2.0882    3.6110 O   0  0  0  0  0  0  0  0  0  0  0  0
    5.1005    3.6262    2.7979 C   0  0  0  0  0  0  0  0  0  0  0  0
    4.4418    3.6760    4.0599 O   0  0  0  0  0  0  0  0  0  0  0  0
    4.6015    7.8622    1.4010 C   0  0  1  0  0  0  0  0  0  0  0  0
    5.6870    6.9925    1.8861 O   0  0  0  0  0  0  0  0  0  0  0  0
    7.8154   -3.3183    2.2308 C   0  0  0  0  0  0  0  0  0  0  0  0
    7.3901   -3.0564    0.9156 O   0  0  0  0  0  0  0  0  0  0  0  0
   10.4627    2.1744    5.3424 C   0  0  1  0  0  0  0  0  0  0  0  0
   10.6374    3.5940    5.3361 O   0  0  0  0  0  0  0  0  0  0  0  0
    3.2639    7.5761    2.2119 C   0  0  0  0  0  0  0  0  0  0  0  0
    2.0726    8.3590    1.7826 N   0  0  0  0  0  0  0  0  0  0  0  0
  1  2  1  1  0  0  0
  1  7  1  0  0  0  0
  1 30  1  0  0  0  0
  3  4  1  6  0  0  0
  3  9  1  0  0  0  0
  3 39  1  0  0  0  0
  5 10  1  0  0  0  0
  5 26  1  0  0  0  0
  5 32  1  1  0  0  0
  6 12  1  0  0  0  0
  6 36  1  0  0  0  0
  6 19  1  1  0  0  0
  7  8  1  1  0  0  0
  7 14  1  0  0  0  0
  9 16  1  0  0  0  0
 10 11  1  6  0  0  0
 10 18  1  0  0  0  0
 12 13  1  1  0  0  0
 12 20  1  0  0  0  0
 14 15  1  6  0  0  0
 14 22  1  0  0  0  0
 16 17  1  6  0  0  0
 16 24  1  0  0  0  0
 18 19  1  1  0  0  0
 18 25  1  0  0  0  0
 20 21  1  6  0  0  0
 20 27  1  0  0  0  0
 22 23  1  1  0  0  0
 22 29  1  0  0  0  0
 24  2  1  1  0  0  0
 24 31  1  0  0  0  0
 25 26  1  0  0  0  0
 25 33  1  6  0  0  0
 27 28  1  1  0  0  0
 27 35  1  0  0  0  0
 29 30  1  0  0  0  0
 29 37  1  6  0  0  0
 31 32  1  6  0  0  0
 31 39  1  0  0  0  0
 33 34  1  0  0  0  0
 35 36  1  0  0  0  0
 35 41  1  1  0  0  0
 37 38  1  0  0  0  0
 39 40  1  1  0  0  0
 41 42  1  0  0  0  0
M  END
>  <CHROM.1>
-176.71884269,178.05760031,170.06534614,169.01244016,-161.64521820,-179.17608763
63.05975457,165.53057104,62.91052619,7.08269079,2.89861860,3.27360492,1.38333307
0.44363565,2.92817817

>  <Name>
2o3w_lig

>  <RI>
0

>  <Rbt.Current_Directory>
/home/itssahil/PROJECTS/Mol_Feturizer/New_Systems/rnas/2o3w

>  <Rbt.Executable>
rbdock ($Id: //depot/dev/client3/rdock/2013.1/src/exe/rbdock.cxx#4 $)

>  <Rbt.Library>
libRbt.so (2013.1, Build901 2013/11/27)

>  <Rbt.Parameter_File>
/export/apps/rDock/src/rDock_2013.1_src/data/scripts/dock_solv.prm

>  <Rbt.Receptor>
prm/pocket_docking_3.prm

>  <SCORE>
-12.4415

>  <SCORE.INTER>
-0.152003

>  <SCORE.INTER.CONST>
1

>  <SCORE.INTER.POLAR>
0

>  <SCORE.INTER.ROT>
9

>  <SCORE.INTER.SOLV>
16.6248

>  <SCORE.INTER.VDW>
-15.2429

>  <SCORE.INTER.norm>
-0.00361912

>  <SCORE.INTRA>
-12.3054

>  <SCORE.INTRA.DIHEDRAL>
-24.0558

>  <SCORE.INTRA.DIHEDRAL.0>
27.8999

>  <SCORE.INTRA.POLAR>
0

>  <SCORE.INTRA.POLAR.0>
0

>  <SCORE.INTRA.REPUL>
0

>  <SCORE.INTRA.REPUL.0>
0

>  <SCORE.INTRA.SOLV>
-3.9082

>  <SCORE.INTRA.SOLV.lig_0>
-104.479

>  <SCORE.INTRA.VDW>
1.67658

>  <SCORE.INTRA.VDW.0>
-6.17816

>  <SCORE.INTRA.norm>
-0.292986

>  <SCORE.RESTR>
0.0159465

>  <SCORE.RESTR.CAVITY>
0.0159465

>  <SCORE.RESTR.norm>
0.000379679

>  <SCORE.SYSTEM>
0

>  <SCORE.SYSTEM.CONST>
0

>  <SCORE.SYSTEM.DIHEDRAL>
0

>  <SCORE.SYSTEM.SOLV>
0

>  <SCORE.SYSTEM.norm>
0

>  <SCORE.heavy>
42

>  <SCORE.norm>
-0.296225

>  <RMSD>
1.387

$$$$
2o3w_lig
 OpenBabel11021811463D
libRbt.so/2013.1/901 2013/11/27
 42 45  0  0  0  0  0  0  0  0999 V2000
    6.8227    0.0780    3.4746 C   0  0  2  0  0  0  0  0  0  0  0  0
    7.4625   -0.1186    4.7471 O   0  0  0  0  0  0  0  0  0  0  0  0
   11.2338    1.3026    6.3451 C   0  0  2  0  0  0  0  0  0  0  0  0
   12.6867    1.5969    6.5266 N   0  0  0  0  0  0  0  0  0  0  0  0
    8.6223    3.2876    2.9261 C   0  0  1  0  0  0  0  0  0  0  0  0
    6.9906    6.9173    0.9755 C   0  0  1  0  0  0  0  0  0  0  0  0
    5.2986   -0.1657    3.6891 C   0  0  2  0  0  0  0  0  0  0  0  0
    4.7636    0.5861    4.8375 N   0  0  0  0  0  0  0  0  0  0  0  0
   10.9523   -0.2530    6.3982 C   0  0  0  0  0  0  0  0  0  0  0  0
    8.2821    3.3854    1.4078 C   0  0  2  0  0  0  0  0  0  0  0  0
    9.4363    3.5950    0.5575 O   0  0  0  0  0  0  0  0  0  0  0  0
    7.6551    8.3365    1.0910 C   0  0  2  0  0  0  0  0  0  0  0  0
    8.2924    8.5198    2.4294 N   0  0  0  0  0  0  0  0  0  0  0  0
    4.9738   -1.6500    3.9389 C   0  0  1  0  0  0  0  0  0  0  0  0
    3.5649   -1.8322    4.0901 O   0  0  0  0  0  0  0  0  0  0  0  0
    9.4056   -0.4979    6.2240 C   0  0  2  0  0  0  0  0  0  0  0  0
    9.1023   -1.9532    6.2836 N   0  0  0  0  0  0  0  0  0  0  0  0
    7.2462    4.5107    1.4074 C   0  0  2  0  0  0  0  0  0  0  0  0
    7.8752    5.8209    1.2381 O   0  0  0  0  0  0  0  0  0  0  0  0
    6.5475    9.4624    0.8219 C   0  0  1  0  0  0  0  0  0  0  0  0
    6.2381    9.4854   -0.5897 O   0  0  0  0  0  0  0  0  0  0  0  0
    5.5316   -2.5026    2.7765 C   0  0  2  0  0  0  0  0  0  0  0  0
    5.2278   -3.8628    2.9818 O   0  0  0  0  0  0  0  0  0  0  0  0
    8.8995    0.0932    4.8491 C   0  0  2  0  0  0  0  0  0  0  0  0
    6.5141    4.4142    2.7565 C   0  0  2  0  0  0  0  0  0  0  0  0
    7.5164    3.8985    3.6295 O   0  0  0  0  0  0  0  0  0  0  0  0
    5.2034    9.2259    1.6614 C   0  0  2  0  0  0  0  0  0  0  0  0
    5.5069    9.4605    3.0359 O   0  0  0  0  0  0  0  0  0  0  0  0
    7.0794   -2.2895    2.6840 C   0  0  2  0  0  0  0  0  0  0  0  0
    7.3692   -0.8702    2.4807 O   0  0  0  0  0  0  0  0  0  0  0  0
    9.1924    1.6025    4.7021 C   0  0  2  0  0  0  0  0  0  0  0  0
    8.8355    1.9290    3.3307 O   0  0  0  0  0  0  0  0  0  0  0  0
    5.2482    3.5022    2.7546 C   0  0  0  0  0  0  0  0  0  0  0  0
    4.6091    3.5819    4.0251 O   0  0  0  0  0  0  0  0  0  0  0  0
    4.6757    7.7547    1.4630 C   0  0  1  0  0  0  0  0  0  0  0  0
    5.7753    6.8662    1.8774 O   0  0  0  0  0  0  0  0  0  0  0  0
    7.7100   -3.0848    1.5644 C   0  0  0  0  0  0  0  0  0  0  0  0
    9.1092   -2.9416    1.5963 O   0  0  0  0  0  0  0  0  0  0  0  0
   10.7291    1.8919    4.9672 C   0  0  1  0  0  0  0  0  0  0  0  0
   10.9706    3.3016    4.9806 O   0  0  0  0  0  0  0  0  0  0  0  0
    3.3589    7.4219    2.2899 C   0  0  0  0  0  0  0  0  0  0  0  0
    2.1689    8.2558    1.9656 N   0  0  0  0  0  0  0  0  0  0  0  0
  1  2  1  1  0  0  0
  1  7  1  0  0  0  0
  1 30  1  0  0  0  0
  3  4  1  6  0  0  0
  3  9  1  0  0  0  0
  3 39  1  0  0  0  0
  5 10  1  0  0  0  0
  5 26  1  0  0  0  0
  5 32  1  1  0  0  0
  6 12  1  0  0  0  0
  6 36  1  0  0  0  0
  6 19  1  1  0  0  0
  7  8  1  1  0  0  0
  7 14  1  0  0  0  0
  9 16  1  0  0  0  0
 10 11  1  6  0  0  0
 10 18  1  0  0  0  0
 12 13  1  1  0  0  0
 12 20  1  0  0  0  0
 14 15  1  6  0  0  0
 14 22  1  0  0  0  0
 16 17  1  6  0  0  0
 16 24  1  0  0  0  0
 18 19  1  1  0  0  0
 18 25  1  0  0  0  0
 20 21  1  6  0  0  0
 20 27  1  0  0  0  0
 22 23  1  1  0  0  0
 22 29  1  0  0  0  0
 24  2  1  1  0  0  0
 24 31  1  0  0  0  0
 25 26  1  0  0  0  0
 25 33  1  6  0  0  0
 27 28  1  1  0  0  0
 27 35  1  0  0  0  0
 29 30  1  0  0  0  0
 29 37  1  6  0  0  0
 31 32  1  6  0  0  0
 31 39  1  0  0  0  0
 33 34  1  0  0  0  0
 35 36  1  0  0  0  0
 35 41  1  1  0  0  0
 37 38  1  0  0  0  0
 39 40  1  1  0  0  0
 41 42  1  0  0  0  0
M  END
>  <CHROM.1>
-177.88117124,178.76515081,168.08042196,168.84379346,-167.07092374,-175.49507375
-175.21761672,162.70699566,60.67257359,7.24234721,2.80452980,3.10642351,1.35477126
0.34440556,2.94789702

>  <Name>
2o3w_lig

>  <RI>
0

>  <Rbt.Current_Directory>
/home/itssahil/PROJECTS/Mol_Feturizer/New_Systems/rnas/2o3w

>  <Rbt.Executable>
rbdock ($Id: //depot/dev/client3/rdock/2013.1/src/exe/rbdock.cxx#4 $)

>  <Rbt.Library>
libRbt.so (2013.1, Build901 2013/11/27)

>  <Rbt.Parameter_File>
/export/apps/rDock/src/rDock_2013.1_src/data/scripts/dock_solv.prm

>  <Rbt.Receptor>
prm/pocket_docking_3.prm

>  <SCORE>
-13.074

>  <SCORE.INTER>
-0.69575

>  <SCORE.INTER.CONST>
1

>  <SCORE.INTER.POLAR>
0

>  <SCORE.INTER.ROT>
9

>  <SCORE.INTER.SOLV>
15.2884

>  <SCORE.INTER.VDW>
-15.16

>  <SCORE.INTER.norm>
-0.0165655

>  <SCORE.INTRA>
-12.3783

>  <SCORE.INTRA.DIHEDRAL>
-24.14

>  <SCORE.INTRA.DIHEDRAL.0>
27.8999

>  <SCORE.INTRA.POLAR>
0

>  <SCORE.INTRA.POLAR.0>
0

>  <SCORE.INTRA.REPUL>
0

>  <SCORE.INTRA.REPUL.0>
0

>  <SCORE.INTRA.SOLV>
-4.27521

>  <SCORE.INTRA.SOLV.lig_0>
-104.479

>  <SCORE.INTRA.VDW>
1.82937

>  <SCORE.INTRA.VDW.0>
-6.17816

>  <SCORE.INTRA.norm>
-0.29472

>  <SCORE.RESTR>
0

>  <SCORE.RESTR.CAVITY>
0

>  <SCORE.RESTR.norm>
0

>  <SCORE.SYSTEM>
0

>  <SCORE.SYSTEM.CONST>
0

>  <SCORE.SYSTEM.DIHEDRAL>
0

>  <SCORE.SYSTEM.SOLV>
0

>  <SCORE.SYSTEM.norm>
0

>  <SCORE.heavy>
42

>  <SCORE.norm>
-0.311286

>  <RMSD>
1.410

$$$$
2o3w_lig
 OpenBabel11021811463D
libRbt.so/2013.1/901 2013/11/27
 42 45  0  0  0  0  0  0  0  0999 V2000
    7.9800   -0.4749    3.2781 C   0  0  2  0  0  0  0  0  0  0  0  0
    8.6029   -0.3911    4.5713 O   0  0  0  0  0  0  0  0  0  0  0  0
   11.9123    1.8869    6.2007 C   0  0  2  0  0  0  0  0  0  0  0  0
   13.2434    2.5392    6.3827 N   0  0  0  0  0  0  0  0  0  0  0  0
    8.9978    3.3301    2.8506 C   0  0  1  0  0  0  0  0  0  0  0  0
    6.8601    6.7593    0.9926 C   0  0  1  0  0  0  0  0  0  0  0  0
    6.5266   -0.9887    3.5056 C   0  0  2  0  0  0  0  0  0  0  0  0
    5.8168   -0.2287    4.5493 N   0  0  0  0  0  0  0  0  0  0  0  0
   12.0433    0.3107    6.1820 C   0  0  0  0  0  0  0  0  0  0  0  0
    8.4923    3.3712    1.3762 C   0  0  2  0  0  0  0  0  0  0  0  0
    9.5278    3.6640    0.4062 O   0  0  0  0  0  0  0  0  0  0  0  0
    7.4211    8.2172    0.8234 C   0  0  2  0  0  0  0  0  0  0  0  0
    8.2496    8.6102    2.0024 N   0  0  0  0  0  0  0  0  0  0  0  0
    6.4896   -2.4683    3.9302 C   0  0  1  0  0  0  0  0  0  0  0  0
    5.1392   -2.9068    4.0886 O   0  0  0  0  0  0  0  0  0  0  0  0
   10.6090   -0.3185    6.0105 C   0  0  2  0  0  0  0  0  0  0  0  0
   10.6931   -1.8039    6.0033 N   0  0  0  0  0  0  0  0  0  0  0  0
    7.3679    4.4031    1.4765 C   0  0  2  0  0  0  0  0  0  0  0  0
    7.8586    5.7593    1.2299 O   0  0  0  0  0  0  0  0  0  0  0  0
    6.1998    9.2328    0.6141 C   0  0  1  0  0  0  0  0  0  0  0  0
    5.6658    9.0533   -0.7169 O   0  0  0  0  0  0  0  0  0  0  0  0
    7.2418   -3.3235    2.8852 C   0  0  2  0  0  0  0  0  0  0  0  0
    7.2027   -4.6834    3.2507 O   0  0  0  0  0  0  0  0  0  0  0  0
    9.9383    0.1810    4.6701 C   0  0  2  0  0  0  0  0  0  0  0  0
    6.7931    4.2681    2.8966 C   0  0  2  0  0  0  0  0  0  0  0  0
    7.9229    3.8561    3.6623 O   0  0  0  0  0  0  0  0  0  0  0  0
    5.0314    9.0311    1.6920 C   0  0  2  0  0  0  0  0  0  0  0  0
    5.5334    9.4604    2.9569 O   0  0  0  0  0  0  0  0  0  0  0  0
    8.7204   -2.8207    2.7827 C   0  0  2  0  0  0  0  0  0  0  0  0
    8.7342   -1.4057    2.4118 O   0  0  0  0  0  0  0  0  0  0  0  0
    9.8283    1.7195    4.5927 C   0  0  2  0  0  0  0  0  0  0  0  0
    9.3702    2.0022    3.2418 O   0  0  0  0  0  0  0  0  0  0  0  0
    5.6185    3.2508    3.0373 C   0  0  0  0  0  0  0  0  0  0  0  0
    5.1828    3.2198    4.3930 O   0  0  0  0  0  0  0  0  0  0  0  0
    4.5957    7.5187    1.7630 C   0  0  1  0  0  0  0  0  0  0  0  0
    5.8140    6.7567    2.0874 O   0  0  0  0  0  0  0  0  0  0  0  0
    9.5313   -3.6007    1.7739 C   0  0  0  0  0  0  0  0  0  0  0  0
    8.9486   -3.4955    0.4977 O   0  0  0  0  0  0  0  0  0  0  0  0
   11.2434    2.3851    4.8572 C   0  0  1  0  0  0  0  0  0  0  0  0
   11.1129    3.8072    4.9358 O   0  0  0  0  0  0  0  0  0  0  0  0
    3.4598    7.2217    2.8354 C   0  0  0  0  0  0  0  0  0  0  0  0
    3.0320    5.7996    2.9408 N   0  0  0  0  0  0  0  0  0  0  0  0
  1  2  1  1  0  0  0
  1  7  1  0  0  0  0
  1 30  1  0  0  0  0
  3  4  1  6  0  0  0
  3  9  1  0  0  0  0
  3 39  1  0  0  0  0
  5 10  1  0  0  0  0
  5 26  1  0  0  0  0
  5 32  1  1  0  0  0
  6 12  1  0  0  0  0
  6 36  1  0  0  0  0
  6 19  1  1  0  0  0
  7  8  1  1  0  0  0
  7 14  1  0  0  0  0
  9 16  1  0  0  0  0
 10 11  1  6  0  0  0
 10 18  1  0  0  0  0
 12 13  1  1  0  0  0
 12 20  1  0  0  0  0
 14 15  1  6  0  0  0
 14 22  1  0  0  0  0
 16 17  1  6  0  0  0
 16 24  1  0  0  0  0
 18 19  1  1  0  0  0
 18 25  1  0  0  0  0
 20 21  1  6  0  0  0
 20 27  1  0  0  0  0
 22 23  1  1  0  0  0
 22 29  1  0  0  0  0
 24  2  1  1  0  0  0
 24 31  1  0  0  0  0
 25 26  1  0  0  0  0
 25 33  1  6  0  0  0
 27 28  1  1  0  0  0
 27 35  1  0  0  0  0
 29 30  1  0  0  0  0
 29 37  1  6  0  0  0
 31 32  1  6  0  0  0
 31 39  1  0  0  0  0
 33 34  1  0  0  0  0
 35 36  1  0  0  0  0
 35 41  1  1  0  0  0
 37 38  1  0  0  0  0
 39 40  1  1  0  0  0
 41 42  1  0  0  0  0
M  END
>  <CHROM.1>
-174.48217835,-177.87917231,176.28204209,166.08088085,-158.74502448,179.88890078
59.44234217,172.40046918,-179.39555685,7.85388934,2.57845460,3.07503896,1.25426265
0.42303055,3.04803824

>  <Name>
2o3w_lig

>  <RI>
0

>  <Rbt.Current_Directory>
/home/itssahil/PROJECTS/Mol_Feturizer/New_Systems/rnas/2o3w

>  <Rbt.Executable>
rbdock ($Id: //depot/dev/client3/rdock/2013.1/src/exe/rbdock.cxx#4 $)

>  <Rbt.Library>
libRbt.so (2013.1, Build901 2013/11/27)

>  <Rbt.Parameter_File>
/export/apps/rDock/src/rDock_2013.1_src/data/scripts/dock_solv.prm

>  <Rbt.Receptor>
prm/pocket_docking_3.prm

>  <SCORE>
-12.5447

>  <SCORE.INTER>
-0.314231

>  <SCORE.INTER.CONST>
1

>  <SCORE.INTER.POLAR>
0

>  <SCORE.INTER.ROT>
9

>  <SCORE.INTER.SOLV>
10.3374

>  <SCORE.INTER.VDW>
-13.2553

>  <SCORE.INTER.norm>
-0.0074817

>  <SCORE.INTRA>
-12.2305

>  <SCORE.INTRA.DIHEDRAL>
-24.3271

>  <SCORE.INTRA.DIHEDRAL.0>
27.8999

>  <SCORE.INTRA.POLAR>
0

>  <SCORE.INTRA.POLAR.0>
0

>  <SCORE.INTRA.REPUL>
0

>  <SCORE.INTRA.REPUL.0>
0

>  <SCORE.INTRA.SOLV>
-2.95235

>  <SCORE.INTRA.SOLV.lig_0>
-104.479

>  <SCORE.INTRA.VDW>
1.40926

>  <SCORE.INTRA.VDW.0>
-6.17816

>  <SCORE.INTRA.norm>
-0.291202

>  <SCORE.RESTR>
0

>  <SCORE.RESTR.CAVITY>
0

>  <SCORE.RESTR.norm>
0

>  <SCORE.SYSTEM>
0

>  <SCORE.SYSTEM.CONST>
0

>  <SCORE.SYSTEM.DIHEDRAL>
0

>  <SCORE.SYSTEM.SOLV>
0

>  <SCORE.SYSTEM.norm>
0

>  <SCORE.heavy>
42

>  <SCORE.norm>
-0.298684

>  <RMSD>
1.466

$$$$
2o3w_lig
 OpenBabel11021811463D
libRbt.so/2013.1/901 2013/11/27
 42 45  0  0  0  0  0  0  0  0999 V2000
    7.1760    1.4794    3.8847 C   0  0  2  0  0  0  0  0  0  0  0  0
    7.8266    1.2927    5.1533 O   0  0  0  0  0  0  0  0  0  0  0  0
   11.8563    2.0661    6.5531 C   0  0  2  0  0  0  0  0  0  0  0  0
   13.3448    2.0998    6.6697 N   0  0  0  0  0  0  0  0  0  0  0  0
    8.9241    4.2871    3.2757 C   0  0  1  0  0  0  0  0  0  0  0  0
    7.2142    7.7124    1.0071 C   0  0  1  0  0  0  0  0  0  0  0  0
    5.6464    1.5727    4.1671 C   0  0  2  0  0  0  0  0  0  0  0  0
    5.3283    2.5340    5.2373 N   0  0  0  0  0  0  0  0  0  0  0  0
   11.3037    0.5897    6.6825 C   0  0  0  0  0  0  0  0  0  0  0  0
    9.4667    4.8159    1.9131 C   0  0  2  0  0  0  0  0  0  0  0  0
   10.6405    5.6567    2.0325 O   0  0  0  0  0  0  0  0  0  0  0  0
    6.8192    9.0548    1.7216 C   0  0  2  0  0  0  0  0  0  0  0  0
    6.2912    8.7933    3.0941 N   0  0  0  0  0  0  0  0  0  0  0  0
    5.0471    0.2195    4.5921 C   0  0  1  0  0  0  0  0  0  0  0  0
    3.6393    0.3429    4.8015 O   0  0  0  0  0  0  0  0  0  0  0  0
    9.7321    0.6218    6.5744 C   0  0  2  0  0  0  0  0  0  0  0  0
    9.1762   -0.7519    6.7069 N   0  0  0  0  0  0  0  0  0  0  0  0
    8.2213    5.4947    1.3408 C   0  0  2  0  0  0  0  0  0  0  0  0
    8.1479    6.9025    1.7323 O   0  0  0  0  0  0  0  0  0  0  0  0
    5.7397    9.8315    0.8281 C   0  0  1  0  0  0  0  0  0  0  0  0
    6.4048   10.3915   -0.3264 O   0  0  0  0  0  0  0  0  0  0  0  0
    5.3668   -0.8459    3.5189 C   0  0  2  0  0  0  0  0  0  0  0  0
    4.8104   -2.0872    3.8851 O   0  0  0  0  0  0  0  0  0  0  0  0
    9.2813    1.2453    5.1946 C   0  0  2  0  0  0  0  0  0  0  0  0
    7.0194    4.7024    1.8821 C   0  0  2  0  0  0  0  0  0  0  0  0
    7.4846    4.2377    3.1471 O   0  0  0  0  0  0  0  0  0  0  0  0
    4.5356    8.8894    0.3484 C   0  0  2  0  0  0  0  0  0  0  0  0
    3.7579    8.5643    1.4999 O   0  0  0  0  0  0  0  0  0  0  0  0
    6.9196   -0.9610    3.3605 C   0  0  2  0  0  0  0  0  0  0  0  0
    7.4742    0.3408    2.9899 O   0  0  0  0  0  0  0  0  0  0  0  0
    9.8327    2.6708    4.9729 C   0  0  2  0  0  0  0  0  0  0  0  0
    9.4815    3.0074    3.6026 O   0  0  0  0  0  0  0  0  0  0  0  0
    6.5558    3.5141    0.9836 C   0  0  0  0  0  0  0  0  0  0  0  0
    6.2336    4.0038   -0.3146 O   0  0  0  0  0  0  0  0  0  0  0  0
    5.0906    7.5767   -0.3231 C   0  0  1  0  0  0  0  0  0  0  0  0
    5.9550    6.9362    0.6833 O   0  0  0  0  0  0  0  0  0  0  0  0
    7.3241   -1.9809    2.3213 C   0  0  0  0  0  0  0  0  0  0  0  0
    8.7249   -2.1061    2.2842 O   0  0  0  0  0  0  0  0  0  0  0  0
   11.4064    2.6875    5.1703 C   0  0  1  0  0  0  0  0  0  0  0  0
   11.8964    4.0301    5.1149 O   0  0  0  0  0  0  0  0  0  0  0  0
    3.9599    6.5655   -0.8002 C   0  0  0  0  0  0  0  0  0  0  0  0
    3.0760    7.0588   -1.8919 N   0  0  0  0  0  0  0  0  0  0  0  0
  1  2  1  1  0  0  0
  1  7  1  0  0  0  0
  1 30  1  0  0  0  0
  3  4  1  6  0  0  0
  3  9  1  0  0  0  0
  3 39  1  0  0  0  0
  5 10  1  0  0  0  0
  5 26  1  0  0  0  0
  5 32  1  6  0  0  0
  6 12  1  0  0  0  0
  6 36  1  0  0  0  0
  6 19  1  1  0  0  0
  7  8  1  1  0  0  0
  7 14  1  0  0  0  0
  9 16  1  0  0  0  0
 10 11  1  1  0  0  0
 10 18  1  0  0  0  0
 12 13  1  1  0  0  0
 12 20  1  0  0  0  0
 14 15  1  6  0  0  0
 14 22  1  0  0  0  0
 16 17  1  6  0  0  0
 16 24  1  0  0  0  0
 18 19  1  1  0  0  0
 18 25  1  0  0  0  0
 20 21  1  6  0  0  0
 20 27  1  0  0  0  0
 22 23  1  1  0  0  0
 22 29  1  0  0  0  0
 24  2  1  1  0  0  0
 24 31  1  0  0  0  0
 25 26  1  0  0  0  0
 25 33  1  6  0  0  0
 27 28  1  1  0  0  0
 27 35  1  0  0  0  0
 29 30  1  0  0  0  0
 29 37  1  6  0  0  0
 31 32  1  6  0  0  0
 31 39  1  0  0  0  0
 33 34  1  0  0  0  0
 35 36  1  0  0  0  0
 35 41  1  1  0  0  0
 37 38  1  0  0  0  0
 39 40  1  1  0  0  0
 41 42  1  0  0  0  0
M  END
>  <CHROM.1>
-176.69782902,142.09639655,161.26934150,165.63976254,-163.52900575,-57.44946348
-176.11003783,134.78133504,64.99118848,7.46661389,3.63924316,2.95883191,1.19691805
0.46452093,2.79551743

>  <Name>
2o3w_lig

>  <RI>
0

>  <Rbt.Current_Directory>
/home/itssahil/PROJECTS/Mol_Feturizer/New_Systems/rnas/2o3w

>  <Rbt.Executable>
rbdock ($Id: //depot/dev/client3/rdock/2013.1/src/exe/rbdock.cxx#4 $)

>  <Rbt.Library>
libRbt.so (2013.1, Build901 2013/11/27)

>  <Rbt.Parameter_File>
/export/apps/rDock/src/rDock_2013.1_src/data/scripts/dock_solv.prm

>  <Rbt.Receptor>
prm/pocket_docking_3.prm

>  <SCORE>
-13.0087

>  <SCORE.INTER>
-5.97739

>  <SCORE.INTER.CONST>
1

>  <SCORE.INTER.POLAR>
-1

>  <SCORE.INTER.ROT>
9

>  <SCORE.INTER.SOLV>
11.5973

>  <SCORE.INTER.VDW>
-14.1174

>  <SCORE.INTER.norm>
-0.142319

>  <SCORE.INTRA>
-7.03129

>  <SCORE.INTRA.DIHEDRAL>
-12.5292

>  <SCORE.INTRA.DIHEDRAL.0>
27.8999

>  <SCORE.INTRA.POLAR>
0

>  <SCORE.INTRA.POLAR.0>
0

>  <SCORE.INTRA.REPUL>
0

>  <SCORE.INTRA.REPUL.0>
0

>  <SCORE.INTRA.SOLV>
-3.90299

>  <SCORE.INTRA.SOLV.lig_0>
-104.479

>  <SCORE.INTRA.VDW>
1.18482

>  <SCORE.INTRA.VDW.0>
-6.17816

>  <SCORE.INTRA.norm>
-0.167412

>  <SCORE.RESTR>
0

>  <SCORE.RESTR.CAVITY>
0

>  <SCORE.RESTR.norm>
0

>  <SCORE.SYSTEM>
0

>  <SCORE.SYSTEM.CONST>
0

>  <SCORE.SYSTEM.DIHEDRAL>
0

>  <SCORE.SYSTEM.SOLV>
0

>  <SCORE.SYSTEM.norm>
0

>  <SCORE.heavy>
42

>  <SCORE.norm>
-0.309731

>  <RMSD>
1.537

$$$$
2o3w_lig
 OpenBabel11021811463D
libRbt.so/2013.1/901 2013/11/27
 42 45  0  0  0  0  0  0  0  0999 V2000
    6.5930    0.6809    3.5323 C   0  0  2  0  0  0  0  0  0  0  0  0
    7.3540    0.3238    4.6988 O   0  0  0  0  0  0  0  0  0  0  0  0
   11.4288    1.3284    5.7862 C   0  0  2  0  0  0  0  0  0  0  0  0
   12.9174    1.4495    5.7865 N   0  0  0  0  0  0  0  0  0  0  0  0
    8.5213    3.4958    2.6518 C   0  0  1  0  0  0  0  0  0  0  0  0
    6.8438    7.0922    0.7120 C   0  0  1  0  0  0  0  0  0  0  0  0
    5.0881    0.6009    3.9287 C   0  0  2  0  0  0  0  0  0  0  0  0
    4.7942    1.3283    5.1757 N   0  0  0  0  0  0  0  0  0  0  0  0
   10.9756   -0.1786    5.9456 C   0  0  0  0  0  0  0  0  0  0  0  0
    8.3087    3.6209    1.1123 C   0  0  2  0  0  0  0  0  0  0  0  0
    9.5177    3.9217    0.3729 O   0  0  0  0  0  0  0  0  0  0  0  0
    7.4243    8.5379    0.9161 C   0  0  2  0  0  0  0  0  0  0  0  0
    7.9912    8.6963    2.2889 N   0  0  0  0  0  0  0  0  0  0  0  0
    4.6152   -0.8495    4.1377 C   0  0  1  0  0  0  0  0  0  0  0  0
    3.2237   -0.8773    4.4599 O   0  0  0  0  0  0  0  0  0  0  0  0
    9.4012   -0.2391    5.9608 C   0  0  2  0  0  0  0  0  0  0  0  0
    8.9389   -1.6438    6.1243 N   0  0  0  0  0  0  0  0  0  0  0  0
    7.2119    4.6850    1.0495 C   0  0  2  0  0  0  0  0  0  0  0  0
    7.7744    6.0334    0.9701 O   0  0  0  0  0  0  0  0  0  0  0  0
    6.2699    9.6147    0.6425 C   0  0  1  0  0  0  0  0  0  0  0  0
    6.0219    9.6826   -0.7797 O   0  0  0  0  0  0  0  0  0  0  0  0
    4.9174   -1.6783    2.8685 C   0  0  2  0  0  0  0  0  0  0  0  0
    4.4751   -3.0050    3.0375 O   0  0  0  0  0  0  0  0  0  0  0  0
    8.8078    0.3623    4.6259 C   0  0  2  0  0  0  0  0  0  0  0  0
    6.3727    4.5056    2.3258 C   0  0  2  0  0  0  0  0  0  0  0  0
    7.3243    4.0210    3.2702 O   0  0  0  0  0  0  0  0  0  0  0  0
    4.9051    9.2716    1.4087 C   0  0  2  0  0  0  0  0  0  0  0  0
    5.1347    9.4621    2.8042 O   0  0  0  0  0  0  0  0  0  0  0  0
    6.4567   -1.6399    2.5881 C   0  0  2  0  0  0  0  0  0  0  0  0
    6.8928   -0.2531    2.4261 O   0  0  0  0  0  0  0  0  0  0  0  0
    9.2556    1.8188    4.3743 C   0  0  2  0  0  0  0  0  0  0  0  0
    8.7788    2.1397    3.0385 O   0  0  0  0  0  0  0  0  0  0  0  0
    5.1680    3.5237    2.1887 C   0  0  0  0  0  0  0  0  0  0  0  0
    4.3074    3.9772    1.1481 O   0  0  0  0  0  0  0  0  0  0  0  0
    4.4675    7.7847    1.1261 C   0  0  1  0  0  0  0  0  0  0  0  0
    5.5947    6.9382    1.5540 O   0  0  0  0  0  0  0  0  0  0  0  0
    6.8429   -2.4234    1.3549 C   0  0  0  0  0  0  0  0  0  0  0  0
    6.5957   -3.7940    1.5541 O   0  0  0  0  0  0  0  0  0  0  0  0
   10.8362    1.9277    4.4482 C   0  0  1  0  0  0  0  0  0  0  0  0
   11.2408    3.2971    4.3664 O   0  0  0  0  0  0  0  0  0  0  0  0
    3.1358    7.3477    1.8770 C   0  0  0  0  0  0  0  0  0  0  0  0
    3.2222    7.3001    3.3626 N   0  0  0  0  0  0  0  0  0  0  0  0
  1  2  1  1  0  0  0
  1  7  1  0  0  0  0
  1 30  1  0  0  0  0
  3  4  1  6  0  0  0
  3  9  1  0  0  0  0
  3 39  1  0  0  0  0
  5 10  1  0  0  0  0
  5 26  1  0  0  0  0
  5 32  1  6  0  0  0
  6 12  1  0  0  0  0
  6 36  1  0  0  0  0
  6 19  1  1  0  0  0
  7  8  1  1  0  0  0
  7 14  1  0  0  0  0
  9 16  1  0  0  0  0
 10 11  1  6  0  0  0
 10 18  1  0  0  0  0
 12 13  1  1  0  0  0
 12 20  1  0  0  0  0
 14 15  1  6  0  0  0
 14 22  1  0  0  0  0
 16 17  1  6  0  0  0
 16 24  1  0  0  0  0
 18 19  1  1  0  0  0
 18 25  1  0  0  0  0
 20 21  1  6  0  0  0
 20 27  1  0  0  0  0
 22 23  1  1  0  0  0
 22 29  1  0  0  0  0
 24  2  1  1  0  0  0
 24 31  1  0  0  0  0
 25 26  1  0  0  0  0
 25 33  1  6  0  0  0
 27 28  1  1  0  0  0
 27 35  1  0  0  0  0
 29 30  1  0  0  0  0
 29 37  1  6  0  0  0
 31 32  1  6  0  0  0
 31 39  1  0  0  0  0
 33 34  1  0  0  0  0
 35 36  1  0  0  0  0
 35 41  1  1  0  0  0
 37 38  1  0  0  0  0
 39 40  1  1  0  0  0
 41 42  1  0  0  0  0
M  END
>  <CHROM.1>
-177.78254712,168.21026452,168.38794253,171.27038863,-173.04699490,-58.03607308
-65.83906293,154.88289887,-65.57584262,7.02522062,3.04423757,2.86229714,1.37599036
0.29908581,2.90193120

>  <Name>
2o3w_lig

>  <RI>
0

>  <Rbt.Current_Directory>
/home/itssahil/PROJECTS/Mol_Feturizer/New_Systems/rnas/2o3w

>  <Rbt.Executable>
rbdock ($Id: //depot/dev/client3/rdock/2013.1/src/exe/rbdock.cxx#4 $)

>  <Rbt.Library>
libRbt.so (2013.1, Build901 2013/11/27)

>  <Rbt.Parameter_File>
/export/apps/rDock/src/rDock_2013.1_src/data/scripts/dock_solv.prm

>  <Rbt.Receptor>
prm/pocket_docking_3.prm

>  <SCORE>
-11.8558

>  <SCORE.INTER>
-0.997237

>  <SCORE.INTER.CONST>
1

>  <SCORE.INTER.POLAR>
0

>  <SCORE.INTER.ROT>
9

>  <SCORE.INTER.SOLV>
15.283

>  <SCORE.INTER.VDW>
-15.3592

>  <SCORE.INTER.norm>
-0.0237437

>  <SCORE.INTRA>
-10.8586

>  <SCORE.INTRA.DIHEDRAL>
-22.8963

>  <SCORE.INTRA.DIHEDRAL.0>
27.8999

>  <SCORE.INTRA.POLAR>
0

>  <SCORE.INTRA.POLAR.0>
0

>  <SCORE.INTRA.REPUL>
0

>  <SCORE.INTRA.REPUL.0>
0

>  <SCORE.INTRA.SOLV>
-2.58511

>  <SCORE.INTRA.SOLV.lig_0>
-104.479

>  <SCORE.INTRA.VDW>
1.8821

>  <SCORE.INTRA.VDW.0>
-6.17816

>  <SCORE.INTRA.norm>
-0.258538

>  <SCORE.RESTR>
0

>  <SCORE.RESTR.CAVITY>
0

>  <SCORE.RESTR.norm>
0

>  <SCORE.SYSTEM>
0

>  <SCORE.SYSTEM.CONST>
0

>  <SCORE.SYSTEM.DIHEDRAL>
0

>  <SCORE.SYSTEM.SOLV>
0

>  <SCORE.SYSTEM.norm>
0

>  <SCORE.heavy>
42

>  <SCORE.norm>
-0.282281

>  <RMSD>
1.582

$$$$
2o3w_lig
 OpenBabel11021811463D
libRbt.so/2013.1/901 2013/11/27
 42 45  0  0  0  0  0  0  0  0999 V2000
    8.8372    0.8567    3.2340 C   0  0  2  0  0  0  0  0  0  0  0  0
    9.0743    0.7390    4.6472 O   0  0  0  0  0  0  0  0  0  0  0  0
   11.6788    2.7850    7.4448 C   0  0  2  0  0  0  0  0  0  0  0  0
   12.8730    3.4113    8.0868 N   0  0  0  0  0  0  0  0  0  0  0  0
    9.3870    4.4987    3.5765 C   0  0  1  0  0  0  0  0  0  0  0  0
    7.3541    7.6977    1.1997 C   0  0  1  0  0  0  0  0  0  0  0  0
    7.3889    0.3452    2.9715 C   0  0  2  0  0  0  0  0  0  0  0  0
    6.4013    0.9599    3.8756 N   0  0  0  0  0  0  0  0  0  0  0  0
   11.8776    1.2267    7.2601 C   0  0  0  0  0  0  0  0  0  0  0  0
    9.8461    5.0524    2.1933 C   0  0  2  0  0  0  0  0  0  0  0  0
   10.9235    6.0178    2.2730 O   0  0  0  0  0  0  0  0  0  0  0  0
    6.8585    9.0478    1.8326 C   0  0  2  0  0  0  0  0  0  0  0  0
    6.2975    8.8224    3.1984 N   0  0  0  0  0  0  0  0  0  0  0  0
    7.2664   -1.1793    3.1494 C   0  0  1  0  0  0  0  0  0  0  0  0
    5.9346   -1.6083    2.8608 O   0  0  0  0  0  0  0  0  0  0  0  0
   10.5806    0.6214    6.6013 C   0  0  2  0  0  0  0  0  0  0  0  0
   10.7273   -0.8487    6.4257 N   0  0  0  0  0  0  0  0  0  0  0  0
    8.5249    5.5795    1.6310 C   0  0  2  0  0  0  0  0  0  0  0  0
    8.3057    6.9796    1.9949 O   0  0  0  0  0  0  0  0  0  0  0  0
    5.7694    9.7163    0.8662 C   0  0  1  0  0  0  0  0  0  0  0  0
    6.4426   10.2577   -0.2925 O   0  0  0  0  0  0  0  0  0  0  0  0
    8.2970   -1.8888    2.2419 C   0  0  2  0  0  0  0  0  0  0  0  0
    8.1863   -3.2863    2.3806 O   0  0  0  0  0  0  0  0  0  0  0  0
   10.2999    1.2972    5.2011 C   0  0  2  0  0  0  0  0  0  0  0  0
    7.4254    4.6742    2.2113 C   0  0  2  0  0  0  0  0  0  0  0  0
    7.9594    4.2911    3.4764 O   0  0  0  0  0  0  0  0  0  0  0  0
    4.6384    8.6835    0.3951 C   0  0  2  0  0  0  0  0  0  0  0  0
    3.8398    8.3695    1.5352 O   0  0  0  0  0  0  0  0  0  0  0  0
    9.7350   -1.4069    2.6286 C   0  0  2  0  0  0  0  0  0  0  0  0
    9.8217    0.0464    2.4858 O   0  0  0  0  0  0  0  0  0  0  0  0
   10.1502    2.8314    5.2958 C   0  0  2  0  0  0  0  0  0  0  0  0
   10.0854    3.2946    3.9189 O   0  0  0  0  0  0  0  0  0  0  0  0
    7.0786    3.4229    1.3463 C   0  0  0  0  0  0  0  0  0  0  0  0
    6.6951    3.8448    0.0410 O   0  0  0  0  0  0  0  0  0  0  0  0
    5.2905    7.3746   -0.1912 C   0  0  1  0  0  0  0  0  0  0  0  0
    6.1532    6.8347    0.8740 O   0  0  0  0  0  0  0  0  0  0  0  0
   10.8104   -2.0485    1.7827 C   0  0  0  0  0  0  0  0  0  0  0  0
   12.0759   -1.5584    2.1537 O   0  0  0  0  0  0  0  0  0  0  0  0
   11.4007    3.4599    6.0421 C   0  0  1  0  0  0  0  0  0  0  0  0
   11.1919    4.8574    6.2637 O   0  0  0  0  0  0  0  0  0  0  0  0
    4.2366    6.2773   -0.6537 C   0  0  0  0  0  0  0  0  0  0  0  0
    4.7918    5.1497   -1.4517 N   0  0  0  0  0  0  0  0  0  0  0  0
  1  2  1  1  0  0  0
  1  7  1  0  0  0  0
  1 30  1  0  0  0  0
  3  4  1  6  0  0  0
  3  9  1  0  0  0  0
  3 39  1  0  0  0  0
  5 10  1  0  0  0  0
  5 26  1  0  0  0  0
  5 32  1  6  0  0  0
  6 12  1  0  0  0  0
  6 36  1  0  0  0  0
  6 19  1  1  0  0  0
  7  8  1  1  0  0  0
  7 14  1  0  0  0  0
  9 16  1  0  0  0  0
 10 11  1  1  0  0  0
 10 18  1  0  0  0  0
 12 13  1  1  0  0  0
 12 20  1  0  0  0  0
 14 15  1  6  0  0  0
 14 22  1  0  0  0  0
 16 17  1  6  0  0  0
 16 24  1  0  0  0  0
 18 19  1  1  0  0  0
 18 25  1  0  0  0  0
 20 21  1  6  0  0  0
 20 27  1  0  0  0  0
 22 23  1  1  0  0  0
 22 29  1  0  0  0  0
 24  2  1  1  0  0  0
 24 31  1  0  0  0  0
 25 26  1  0  0  0  0
 25 33  1  6  0  0  0
 27 28  1  1  0  0  0
 27 35  1  0  0  0  0
 29 30  1  0  0  0  0
 29 37  1  6  0  0  0
 31 32  1  6  0  0  0
 31 39  1  0  0  0  0
 33 34  1  0  0  0  0
 35 36  1  0  0  0  0
 35 41  1  1  0  0  0
 37 38  1  0  0  0  0
 39 40  1  1  0  0  0
 41 42  1  0  0  0  0
M  END
>  <CHROM.1>
-172.73992286,160.40198343,164.41696828,160.77841274,-160.10308793,-56.92512248
178.73951231,152.23307929,168.48008888,8.38836983,3.45903408,2.90262110,0.92767075
0.79487595,-3.07182075

>  <Name>
2o3w_lig

>  <RI>
0

>  <Rbt.Current_Directory>
/home/itssahil/PROJECTS/Mol_Feturizer/New_Systems/rnas/2o3w

>  <Rbt.Executable>
rbdock ($Id: //depot/dev/client3/rdock/2013.1/src/exe/rbdock.cxx#4 $)

>  <Rbt.Library>
libRbt.so (2013.1, Build901 2013/11/27)

>  <Rbt.Parameter_File>
/export/apps/rDock/src/rDock_2013.1_src/data/scripts/dock_solv.prm

>  <Rbt.Receptor>
prm/pocket_docking_4.prm

>  <SCORE>
-13.8459

>  <SCORE.INTER>
-4.59144

>  <SCORE.INTER.CONST>
1

>  <SCORE.INTER.POLAR>
-1

>  <SCORE.INTER.ROT>
9

>  <SCORE.INTER.SOLV>
8.59242

>  <SCORE.INTER.VDW>
-12.1918

>  <SCORE.INTER.norm>
-0.10932

>  <SCORE.INTRA>
-9.25449

>  <SCORE.INTRA.DIHEDRAL>
-17.5329

>  <SCORE.INTRA.DIHEDRAL.0>
27.8999

>  <SCORE.INTRA.POLAR>
0

>  <SCORE.INTRA.POLAR.0>
0

>  <SCORE.INTRA.REPUL>
0

>  <SCORE.INTRA.REPUL.0>
0

>  <SCORE.INTRA.SOLV>
-2.43049

>  <SCORE.INTRA.SOLV.lig_0>
-104.479

>  <SCORE.INTRA.VDW>
0.727182

>  <SCORE.INTRA.VDW.0>
-6.17816

>  <SCORE.INTRA.norm>
-0.220345

>  <SCORE.RESTR>
0

>  <SCORE.RESTR.CAVITY>
0

>  <SCORE.RESTR.norm>
0

>  <SCORE.SYSTEM>
0

>  <SCORE.SYSTEM.CONST>
0

>  <SCORE.SYSTEM.DIHEDRAL>
0

>  <SCORE.SYSTEM.SOLV>
0

>  <SCORE.SYSTEM.norm>
0

>  <SCORE.heavy>
42

>  <SCORE.norm>
-0.329665

>  <RMSD>
1.702

$$$$
2o3w_lig
 OpenBabel11021811463D
libRbt.so/2013.1/901 2013/11/27
 42 45  0  0  0  0  0  0  0  0999 V2000
    6.8897    0.1424    3.0843 C   0  0  2  0  0  0  0  0  0  0  0  0
    7.2436    0.2161    4.4760 O   0  0  0  0  0  0  0  0  0  0  0  0
   10.5371    2.0638    6.6056 C   0  0  2  0  0  0  0  0  0  0  0  0
   11.9066    2.4780    7.0338 N   0  0  0  0  0  0  0  0  0  0  0  0
    7.8667    3.1274    2.5319 C   0  0  1  0  0  0  0  0  0  0  0  0
    5.8320    6.8556    1.3161 C   0  0  1  0  0  0  0  0  0  0  0  0
    5.3968   -0.2989    3.0172 C   0  0  2  0  0  0  0  0  0  0  0  0
    4.5301    0.5091    3.8927 N   0  0  0  0  0  0  0  0  0  0  0  0
   10.3253    0.5069    6.7872 C   0  0  0  0  0  0  0  0  0  0  0  0
    7.4805    4.2607    3.5305 C   0  0  2  0  0  0  0  0  0  0  0  0
    6.2815    3.9878    4.2966 O   0  0  0  0  0  0  0  0  0  0  0  0
    6.1028    8.1725    2.1293 C   0  0  2  0  0  0  0  0  0  0  0  0
    5.3060    8.1928    3.3925 N   0  0  0  0  0  0  0  0  0  0  0  0
    5.2028   -1.7687    3.4332 C   0  0  1  0  0  0  0  0  0  0  0  0
    3.8282   -2.1407    3.3187 O   0  0  0  0  0  0  0  0  0  0  0  0
    8.8602    0.1358    6.3417 C   0  0  2  0  0  0  0  0  0  0  0  0
    8.6210   -1.3226    6.5133 N   0  0  0  0  0  0  0  0  0  0  0  0
    7.4081    5.4687    2.5952 C   0  0  2  0  0  0  0  0  0  0  0  0
    6.0631    5.6447    2.0467 O   0  0  0  0  0  0  0  0  0  0  0  0
    5.7596    9.4404    1.2120 C   0  0  1  0  0  0  0  0  0  0  0  0
    6.7944    9.5888    0.2139 O   0  0  0  0  0  0  0  0  0  0  0  0
    6.1066   -2.6738    2.5653 C   0  0  2  0  0  0  0  0  0  0  0  0
    5.9281   -4.0248    2.9225 O   0  0  0  0  0  0  0  0  0  0  0  0
    8.6178    0.5389    4.8335 C   0  0  2  0  0  0  0  0  0  0  0  0
    8.4343    5.2046    1.4804 C   0  0  2  0  0  0  0  0  0  0  0  0
    8.4348    3.7829    1.3749 O   0  0  0  0  0  0  0  0  0  0  0  0
    4.3335    9.3191    0.4915 C   0  0  2  0  0  0  0  0  0  0  0  0
    3.3303    9.4290    1.5004 O   0  0  0  0  0  0  0  0  0  0  0  0
    7.5985   -2.2427    2.7601 C   0  0  2  0  0  0  0  0  0  0  0  0
    7.7559   -0.8356    2.3923 O   0  0  0  0  0  0  0  0  0  0  0  0
    8.8620    2.0406    4.5683 C   0  0  2  0  0  0  0  0  0  0  0  0
    8.7774    2.1922    3.1245 O   0  0  0  0  0  0  0  0  0  0  0  0
    9.8693    5.7468    1.7649 C   0  0  0  0  0  0  0  0  0  0  0  0
   10.6959    5.5084    0.6297 O   0  0  0  0  0  0  0  0  0  0  0  0
    4.2047    7.9390   -0.2574 C   0  0  1  0  0  0  0  0  0  0  0  0
    4.4234    6.8983    0.7620 O   0  0  0  0  0  0  0  0  0  0  0  0
    8.5562   -3.0749    1.9392 C   0  0  0  0  0  0  0  0  0  0  0  0
    8.5508   -4.4073    2.3910 O   0  0  0  0  0  0  0  0  0  0  0  0
   10.2967    2.4649    5.0950 C   0  0  1  0  0  0  0  0  0  0  0  0
   10.4627    3.8814    4.9877 O   0  0  0  0  0  0  0  0  0  0  0  0
    2.8026    7.7198   -0.9748 C   0  0  0  0  0  0  0  0  0  0  0  0
    1.6135    7.7362   -0.0790 N   0  0  0  0  0  0  0  0  0  0  0  0
  1  2  1  1  0  0  0
  1  7  1  0  0  0  0
  1 30  1  0  0  0  0
  3  4  1  6  0  0  0
  3  9  1  0  0  0  0
  3 39  1  0  0  0  0
  5 10  1  0  0  0  0
  5 26  1  0  0  0  0
  5 32  1  1  0  0  0
  6 12  1  0  0  0  0
  6 36  1  0  0  0  0
  6 19  1  1  0  0  0
  7  8  1  1  0  0  0
  7 14  1  0  0  0  0
  9 16  1  0  0  0  0
 10 11  1  6  0  0  0
 10 18  1  0  0  0  0
 12 13  1  1  0  0  0
 12 20  1  0  0  0  0
 14 15  1  6  0  0  0
 14 22  1  0  0  0  0
 16 17  1  6  0  0  0
 16 24  1  0  0  0  0
 18 19  1  6  0  0  0
 18 25  1  0  0  0  0
 20 21  1  6  0  0  0
 20 27  1  0  0  0  0
 22 23  1  1  0  0  0
 22 29  1  0  0  0  0
 24  2  1  1  0  0  0
 24 31  1  0  0  0  0
 25 26  1  0  0  0  0
 25 33  1  1  0  0  0
 27 28  1  1  0  0  0
 27 35  1  0  0  0  0
 29 30  1  0  0  0  0
 29 37  1  6  0  0  0
 31 32  1  6  0  0  0
 31 39  1  0  0  0  0
 33 34  1  0  0  0  0
 35 36  1  0  0  0  0
 35 41  1  1  0  0  0
 37 38  1  0  0  0  0
 39 40  1  1  0  0  0
 41 42  1  0  0  0  0
M  END
>  <CHROM.1>
176.68968583,22.83469509,-57.75362767,171.13252225,-162.98905030,-176.60039291
-65.65297846,124.59335900,-60.47771915,7.08861521,3.04343143,2.88130969,1.26015825
0.51728810,2.98277355

>  <Name>
2o3w_lig

>  <RI>
0

>  <Rbt.Current_Directory>
/home/itssahil/PROJECTS/Mol_Feturizer/New_Systems/rnas/2o3w

>  <Rbt.Executable>
rbdock ($Id: //depot/dev/client3/rdock/2013.1/src/exe/rbdock.cxx#4 $)

>  <Rbt.Library>
libRbt.so (2013.1, Build901 2013/11/27)

>  <Rbt.Parameter_File>
/export/apps/rDock/src/rDock_2013.1_src/data/scripts/dock_solv.prm

>  <Rbt.Receptor>
prm/pocket_docking_2.prm

>  <SCORE>
-7.40815

>  <SCORE.INTER>
-2.21916

>  <SCORE.INTER.CONST>
1

>  <SCORE.INTER.POLAR>
-0.53844

>  <SCORE.INTER.ROT>
9

>  <SCORE.INTER.SOLV>
9.5455

>  <SCORE.INTER.VDW>
-12.4665

>  <SCORE.INTER.norm>
-0.0528371

>  <SCORE.INTRA>
-5.89319

>  <SCORE.INTRA.DIHEDRAL>
-13.8126

>  <SCORE.INTRA.DIHEDRAL.0>
27.8999

>  <SCORE.INTRA.POLAR>
0

>  <SCORE.INTRA.POLAR.0>
0

>  <SCORE.INTRA.REPUL>
0

>  <SCORE.INTRA.REPUL.0>
0

>  <SCORE.INTRA.SOLV>
-3.16416

>  <SCORE.INTRA.SOLV.lig_0>
-104.479

>  <SCORE.INTRA.VDW>
2.59517

>  <SCORE.INTRA.VDW.0>
-6.17816

>  <SCORE.INTRA.norm>
-0.140314

>  <SCORE.RESTR>
0.704198

>  <SCORE.RESTR.CAVITY>
0.704198

>  <SCORE.RESTR.norm>
0.0167666

>  <SCORE.SYSTEM>
0

>  <SCORE.SYSTEM.CONST>
0

>  <SCORE.SYSTEM.DIHEDRAL>
0

>  <SCORE.SYSTEM.SOLV>
0

>  <SCORE.SYSTEM.norm>
0

>  <SCORE.heavy>
42

>  <SCORE.norm>
-0.176385

>  <RMSD>
1.901

$$$$
2o3w_lig
 OpenBabel11021811463D
libRbt.so/2013.1/901 2013/11/27
 42 45  0  0  0  0  0  0  0  0999 V2000
    6.9862    1.0627    3.5943 C   0  0  2  0  0  0  0  0  0  0  0  0
    7.5598    1.1626    4.9089 O   0  0  0  0  0  0  0  0  0  0  0  0
   11.2080    3.0768    6.2588 C   0  0  2  0  0  0  0  0  0  0  0  0
   12.6437    3.4480    6.4361 N   0  0  0  0  0  0  0  0  0  0  0  0
    8.7329    3.9315    2.2783 C   0  0  1  0  0  0  0  0  0  0  0  0
    6.9227    6.8598   -0.4260 C   0  0  1  0  0  0  0  0  0  0  0  0
    5.4557    0.8377    3.7815 C   0  0  2  0  0  0  0  0  0  0  0  0
    4.8523    1.8099    4.7096 N   0  0  0  0  0  0  0  0  0  0  0  0
   10.9351    1.5943    6.7376 C   0  0  0  0  0  0  0  0  0  0  0  0
    8.3647    3.5741    0.8061 C   0  0  2  0  0  0  0  0  0  0  0  0
    9.4957    3.5680   -0.0994 O   0  0  0  0  0  0  0  0  0  0  0  0
    7.4856    7.9203   -1.4396 C   0  0  2  0  0  0  0  0  0  0  0  0
    8.7294    8.5559   -0.9108 N   0  0  0  0  0  0  0  0  0  0  0  0
    5.1342   -0.5631    4.3340 C   0  0  1  0  0  0  0  0  0  0  0  0
    3.7214   -0.7392    4.4517 O   0  0  0  0  0  0  0  0  0  0  0  0
    9.4049    1.2701    6.5475 C   0  0  2  0  0  0  0  0  0  0  0  0
    9.1090   -0.1151    7.0025 N   0  0  0  0  0  0  0  0  0  0  0  0
    7.2842    4.6151    0.5091 C   0  0  2  0  0  0  0  0  0  0  0  0
    7.8568    5.8410   -0.0479 O   0  0  0  0  0  0  0  0  0  0  0  0
    6.3582    9.0197   -1.7349 C   0  0  1  0  0  0  0  0  0  0  0  0
    5.3436    8.4330   -2.5807 O   0  0  0  0  0  0  0  0  0  0  0  0
    5.7621   -1.6362    3.4155 C   0  0  2  0  0  0  0  0  0  0  0  0
    5.4627   -2.9252    3.8985 O   0  0  0  0  0  0  0  0  0  0  0  0
    8.9855    1.4316    5.0329 C   0  0  2  0  0  0  0  0  0  0  0  0
    6.5784    4.8882    1.8480 C   0  0  2  0  0  0  0  0  0  0  0  0
    7.6145    4.6817    2.8052 O   0  0  0  0  0  0  0  0  0  0  0  0
    5.6795    9.5889   -0.3997 C   0  0  2  0  0  0  0  0  0  0  0  0
    6.6584   10.3735    0.2805 O   0  0  0  0  0  0  0  0  0  0  0  0
    7.3102   -1.4140    3.3551 C   0  0  2  0  0  0  0  0  0  0  0  0
    7.5949   -0.0672    2.8604 O   0  0  0  0  0  0  0  0  0  0  0  0
    9.2762    2.8433    4.4782 C   0  0  2  0  0  0  0  0  0  0  0  0
    9.0074    2.7561    3.0518 O   0  0  0  0  0  0  0  0  0  0  0  0
    5.3505    3.9720    2.1435 C   0  0  0  0  0  0  0  0  0  0  0  0
    4.4203    4.0711    1.0695 O   0  0  0  0  0  0  0  0  0  0  0  0
    5.1904    8.4084    0.5219 C   0  0  1  0  0  0  0  0  0  0  0  0
    6.3783    7.5794    0.7901 O   0  0  0  0  0  0  0  0  0  0  0  0
    8.0079   -2.4202    2.4694 C   0  0  0  0  0  0  0  0  0  0  0  0
    9.3990   -2.2126    2.5019 O   0  0  0  0  0  0  0  0  0  0  0  0
   10.7902    3.2358    4.7420 C   0  0  1  0  0  0  0  0  0  0  0  0
   11.0199    4.5965    4.3661 O   0  0  0  0  0  0  0  0  0  0  0  0
    4.5322    8.8842    1.8891 C   0  0  0  0  0  0  0  0  0  0  0  0
    3.2091    9.5556    1.7654 N   0  0  0  0  0  0  0  0  0  0  0  0
  1  2  1  1  0  0  0
  1  7  1  0  0  0  0
  1 30  1  0  0  0  0
  3  4  1  6  0  0  0
  3  9  1  0  0  0  0
  3 39  1  0  0  0  0
  5 10  1  0  0  0  0
  5 26  1  0  0  0  0
  5 32  1  1  0  0  0
  6 12  1  0  0  0  0
  6 36  1  0  0  0  0
  6 19  1  1  0  0  0
  7  8  1  1  0  0  0
  7 14  1  0  0  0  0
  9 16  1  0  0  0  0
 10 11  1  6  0  0  0
 10 18  1  0  0  0  0
 12 13  1  1  0  0  0
 12 20  1  0  0  0  0
 14 15  1  6  0  0  0
 14 22  1  0  0  0  0
 16 17  1  6  0  0  0
 16 24  1  0  0  0  0
 18 19  1  1  0  0  0
 18 25  1  0  0  0  0
 20 21  1  6  0  0  0
 20 27  1  0  0  0  0
 22 23  1  1  0  0  0
 22 29  1  0  0  0  0
 24  2  1  1  0  0  0
 24 31  1  0  0  0  0
 25 26  1  0  0  0  0
 25 33  1  1  0  0  0
 27 28  1  1  0  0  0
 27 35  1  0  0  0  0
 29 30  1  0  0  0  0
 29 37  1  6  0  0  0
 31 32  1  6  0  0  0
 31 39  1  0  0  0  0
 33 34  1  0  0  0  0
 35 36  1  0  0  0  0
 35 41  1  1  0  0  0
 37 38  1  0  0  0  0
 39 40  1  1  0  0  0
 41 42  1  0  0  0  0
M  END
>  <CHROM.1>
-177.51021068,-175.40790794,-160.16605163,176.97656252,-171.27195430,-55.58823786
-177.25502245,158.98024801,69.66995342,7.41297351,3.59167252,2.54799388,1.36504783
0.46400424,2.72400380

>  <Name>
2o3w_lig

>  <RI>
0

>  <Rbt.Current_Directory>
/home/itssahil/PROJECTS/Mol_Feturizer/New_Systems/rnas/2o3w

>  <Rbt.Executable>
rbdock ($Id: //depot/dev/client3/rdock/2013.1/src/exe/rbdock.cxx#4 $)

>  <Rbt.Library>
libRbt.so (2013.1, Build901 2013/11/27)

>  <Rbt.Parameter_File>
/export/apps/rDock/src/rDock_2013.1_src/data/scripts/dock_solv.prm

>  <Rbt.Receptor>
prm/pocket_docking_3.prm

>  <SCORE>
-19.8329

>  <SCORE.INTER>
-7.76687

>  <SCORE.INTER.CONST>
1

>  <SCORE.INTER.POLAR>
-1.68225

>  <SCORE.INTER.ROT>
9

>  <SCORE.INTER.SOLV>
19.7347

>  <SCORE.INTER.VDW>
-15.7487

>  <SCORE.INTER.norm>
-0.184926

>  <SCORE.INTRA>
-12.6206

>  <SCORE.INTRA.DIHEDRAL>
-23.0656

>  <SCORE.INTRA.DIHEDRAL.0>
27.8999

>  <SCORE.INTRA.POLAR>
0

>  <SCORE.INTRA.POLAR.0>
0

>  <SCORE.INTRA.REPUL>
0

>  <SCORE.INTRA.REPUL.0>
0

>  <SCORE.INTRA.SOLV>
-5.32674

>  <SCORE.INTRA.SOLV.lig_0>
-104.479

>  <SCORE.INTRA.VDW>
1.57555

>  <SCORE.INTRA.VDW.0>
-6.17816

>  <SCORE.INTRA.norm>
-0.300491

>  <SCORE.RESTR>
0.554632

>  <SCORE.RESTR.CAVITY>
0.554632

>  <SCORE.RESTR.norm>
0.0132055

>  <SCORE.SYSTEM>
0

>  <SCORE.SYSTEM.CONST>
0

>  <SCORE.SYSTEM.DIHEDRAL>
0

>  <SCORE.SYSTEM.SOLV>
0

>  <SCORE.SYSTEM.norm>
0

>  <SCORE.heavy>
42

>  <SCORE.norm>
-0.472211

>  <RMSD>
1.912

$$$$
2o3w_lig
 OpenBabel11021811463D
libRbt.so/2013.1/901 2013/11/27
 42 45  0  0  0  0  0  0  0  0999 V2000
    7.2240    1.8319    3.9128 C   0  0  2  0  0  0  0  0  0  0  0  0
    7.9535    1.6388    5.1366 O   0  0  0  0  0  0  0  0  0  0  0  0
   12.0174    2.6608    6.2485 C   0  0  2  0  0  0  0  0  0  0  0  0
   13.5072    2.7626    6.2749 N   0  0  0  0  0  0  0  0  0  0  0  0
    8.7461    4.5261    3.0410 C   0  0  1  0  0  0  0  0  0  0  0  0
    7.1780    7.9955    0.9453 C   0  0  1  0  0  0  0  0  0  0  0  0
    5.7119    1.8770    4.2866 C   0  0  2  0  0  0  0  0  0  0  0  0
    5.4324    2.8080    5.3937 N   0  0  0  0  0  0  0  0  0  0  0  0
   11.5393    1.1736    6.4964 C   0  0  0  0  0  0  0  0  0  0  0  0
    9.7089    5.5779    2.4106 C   0  0  2  0  0  0  0  0  0  0  0  0
   10.2780    6.5044    3.3682 O   0  0  0  0  0  0  0  0  0  0  0  0
    6.5717    9.3488    1.4650 C   0  0  2  0  0  0  0  0  0  0  0  0
    5.8859    9.1566    2.7779 N   0  0  0  0  0  0  0  0  0  0  0  0
    5.1753    0.4996    4.7176 C   0  0  1  0  0  0  0  0  0  0  0  0
    3.7796    0.5795    5.0122 O   0  0  0  0  0  0  0  0  0  0  0  0
    9.9642    1.1345    6.4796 C   0  0  2  0  0  0  0  0  0  0  0  0
    9.4784   -0.2503    6.7246 N   0  0  0  0  0  0  0  0  0  0  0  0
    8.8099    6.2000    1.3410 C   0  0  2  0  0  0  0  0  0  0  0  0
    8.0714    7.3508    1.8616 O   0  0  0  0  0  0  0  0  0  0  0  0
    5.5605    9.9312    0.3672 C   0  0  1  0  0  0  0  0  0  0  0  0
    6.3254   10.4520   -0.7430 O   0  0  0  0  0  0  0  0  0  0  0  0
    5.4590   -0.5354    3.6052 C   0  0  2  0  0  0  0  0  0  0  0  0
    4.9587   -1.7986    3.9774 O   0  0  0  0  0  0  0  0  0  0  0  0
    9.4090    1.6538    5.0947 C   0  0  2  0  0  0  0  0  0  0  0  0
    7.8544    5.0834    0.8877 C   0  0  2  0  0  0  0  0  0  0  0  0
    7.7075    4.2898    2.0629 O   0  0  0  0  0  0  0  0  0  0  0  0
    4.5215    8.8339   -0.1656 C   0  0  2  0  0  0  0  0  0  0  0  0
    3.6251    8.5341    0.9035 O   0  0  0  0  0  0  0  0  0  0  0  0
    7.0022   -0.6040    3.3533 C   0  0  2  0  0  0  0  0  0  0  0  0
    7.4987    0.7198    2.9782 O   0  0  0  0  0  0  0  0  0  0  0  0
    9.8830    3.0846    4.7580 C   0  0  2  0  0  0  0  0  0  0  0  0
    9.4404    3.3224    3.3934 O   0  0  0  0  0  0  0  0  0  0  0  0
    8.3670    4.2241   -0.3094 C   0  0  0  0  0  0  0  0  0  0  0  0
    9.6044    3.6142    0.0452 O   0  0  0  0  0  0  0  0  0  0  0  0
    5.2770    7.5301   -0.6255 C   0  0  1  0  0  0  0  0  0  0  0  0
    6.0486    7.0708    0.5424 O   0  0  0  0  0  0  0  0  0  0  0  0
    7.3712   -1.5918    2.2708 C   0  0  0  0  0  0  0  0  0  0  0  0
    7.0242   -2.8966    2.6662 O   0  0  0  0  0  0  0  0  0  0  0  0
   11.4630    3.1778    4.8608 C   0  0  1  0  0  0  0  0  0  0  0  0
   11.8889    4.5335    4.6982 O   0  0  0  0  0  0  0  0  0  0  0  0
    4.3162    6.3720   -1.1395 C   0  0  0  0  0  0  0  0  0  0  0  0
    3.2985    5.9001   -0.1606 N   0  0  0  0  0  0  0  0  0  0  0  0
  1  2  1  1  0  0  0
  1  7  1  0  0  0  0
  1 30  1  0  0  0  0
  3  4  1  6  0  0  0
  3  9  1  0  0  0  0
  3 39  1  0  0  0  0
  5 10  1  0  0  0  0
  5 26  1  0  0  0  0
  5 32  1  6  0  0  0
  6 12  1  0  0  0  0
  6 36  1  0  0  0  0
  6 19  1  1  0  0  0
  7  8  1  1  0  0  0
  7 14  1  0  0  0  0
  9 16  1  0  0  0  0
 10 11  1  1  0  0  0
 10 18  1  0  0  0  0
 12 13  1  1  0  0  0
 12 20  1  0  0  0  0
 14 15  1  6  0  0  0
 14 22  1  0  0  0  0
 16 17  1  6  0  0  0
 16 24  1  0  0  0  0
 18 19  1  1  0  0  0
 18 25  1  0  0  0  0
 20 21  1  6  0  0  0
 20 27  1  0  0  0  0
 22 23  1  1  0  0  0
 22 29  1  0  0  0  0
 24  2  1  1  0  0  0
 24 31  1  0  0  0  0
 25 26  1  0  0  0  0
 25 33  1  6  0  0  0
 27 28  1  1  0  0  0
 27 35  1  0  0  0  0
 29 30  1  0  0  0  0
 29 37  1  6  0  0  0
 31 32  1  6  0  0  0
 31 39  1  0  0  0  0
 33 34  1  0  0  0  0
 35 36  1  0  0  0  0
 35 41  1  1  0  0  0
 37 38  1  0  0  0  0
 39 40  1  1  0  0  0
 41 42  1  0  0  0  0
M  END
>  <CHROM.1>
-175.67609239,98.12927648,-171.11036940,-178.90592398,-168.60354470,58.94050471
-63.95866317,131.45748150,-58.28690799,7.62826392,3.89928606,2.86737633,1.25435125
0.42521686,2.75984970

>  <Name>
2o3w_lig

>  <RI>
0

>  <Rbt.Current_Directory>
/home/itssahil/PROJECTS/Mol_Feturizer/New_Systems/rnas/2o3w

>  <Rbt.Executable>
rbdock ($Id: //depot/dev/client3/rdock/2013.1/src/exe/rbdock.cxx#4 $)

>  <Rbt.Library>
libRbt.so (2013.1, Build901 2013/11/27)

>  <Rbt.Parameter_File>
/export/apps/rDock/src/rDock_2013.1_src/data/scripts/dock_solv.prm

>  <Rbt.Receptor>
prm/pocket_docking_3.prm

>  <SCORE>
-14.1979

>  <SCORE.INTER>
-7.22931

>  <SCORE.INTER.CONST>
1

>  <SCORE.INTER.POLAR>
-1

>  <SCORE.INTER.ROT>
9

>  <SCORE.INTER.SOLV>
13.5855

>  <SCORE.INTER.VDW>
-15.6147

>  <SCORE.INTER.norm>
-0.172126

>  <SCORE.INTRA>
-6.97474

>  <SCORE.INTRA.DIHEDRAL>
-14.9393

>  <SCORE.INTRA.DIHEDRAL.0>
27.8999

>  <SCORE.INTRA.POLAR>
0

>  <SCORE.INTRA.POLAR.0>
0

>  <SCORE.INTRA.REPUL>
0

>  <SCORE.INTRA.REPUL.0>
0

>  <SCORE.INTRA.SOLV>
-3.06328

>  <SCORE.INTRA.SOLV.lig_0>
-104.479

>  <SCORE.INTRA.VDW>
2.02658

>  <SCORE.INTRA.VDW.0>
-6.17816

>  <SCORE.INTRA.norm>
-0.166065

>  <SCORE.RESTR>
0.00619177

>  <SCORE.RESTR.CAVITY>
0.00619177

>  <SCORE.RESTR.norm>
0.000147423

>  <SCORE.SYSTEM>
0

>  <SCORE.SYSTEM.CONST>
0

>  <SCORE.SYSTEM.DIHEDRAL>
0

>  <SCORE.SYSTEM.SOLV>
0

>  <SCORE.SYSTEM.norm>
0

>  <SCORE.heavy>
42

>  <SCORE.norm>
-0.338044

>  <RMSD>
1.928

$$$$
2o3w_lig
 OpenBabel11021811463D
libRbt.so/2013.1/901 2013/11/27
 42 45  0  0  0  0  0  0  0  0999 V2000
    6.1917   -0.8167    2.9924 C   0  0  2  0  0  0  0  0  0  0  0  0
    6.5483   -1.0177    4.3707 O   0  0  0  0  0  0  0  0  0  0  0  0
    9.5372    0.8271    6.9122 C   0  0  2  0  0  0  0  0  0  0  0  0
   10.8322    1.3373    7.4535 N   0  0  0  0  0  0  0  0  0  0  0  0
    7.7834    2.7596    3.1022 C   0  0  1  0  0  0  0  0  0  0  0  0
    6.8807    6.6070    1.1247 C   0  0  1  0  0  0  0  0  0  0  0  0
    4.7732   -1.4308    2.7952 C   0  0  2  0  0  0  0  0  0  0  0  0
    3.8137   -0.9724    3.8149 N   0  0  0  0  0  0  0  0  0  0  0  0
    9.5473   -0.7500    6.7909 C   0  0  0  0  0  0  0  0  0  0  0  0
    7.7582    2.9467    1.5546 C   0  0  2  0  0  0  0  0  0  0  0  0
    9.0708    3.0749    0.9550 O   0  0  0  0  0  0  0  0  0  0  0  0
    7.7297    7.9278    1.1845 C   0  0  2  0  0  0  0  0  0  0  0  0
    8.3790    8.0845    2.5204 N   0  0  0  0  0  0  0  0  0  0  0  0
    4.7884   -2.9692    2.8584 C   0  0  1  0  0  0  0  0  0  0  0  0
    3.4770   -3.4893    2.6336 O   0  0  0  0  0  0  0  0  0  0  0  0
    8.1516   -1.2282    6.2377 C   0  0  2  0  0  0  0  0  0  0  0  0
    8.1207   -2.7113    6.1243 N   0  0  0  0  0  0  0  0  0  0  0  0
    6.8455    4.1664    1.4177 C   0  0  2  0  0  0  0  0  0  0  0  0
    7.6081    5.4148    1.4455 O   0  0  0  0  0  0  0  0  0  0  0  0
    6.7851    9.1789    0.8535 C   0  0  1  0  0  0  0  0  0  0  0  0
    6.4887    9.1791   -0.5611 O   0  0  0  0  0  0  0  0  0  0  0  0
    5.7981   -3.5177    1.8246 C   0  0  2  0  0  0  0  0  0  0  0  0
    5.8118   -4.9260    1.8583 O   0  0  0  0  0  0  0  0  0  0  0  0
    7.8613   -0.5823    4.8255 C   0  0  2  0  0  0  0  0  0  0  0  0
    5.8570    4.0910    2.5934 C   0  0  2  0  0  0  0  0  0  0  0  0
    6.6188    3.4482    3.6127 O   0  0  0  0  0  0  0  0  0  0  0  0
    5.4172    9.1634    1.6877 C   0  0  2  0  0  0  0  0  0  0  0  0
    5.7426    9.4174    3.0537 O   0  0  0  0  0  0  0  0  0  0  0  0
    7.2185   -2.9431    2.1436 C   0  0  2  0  0  0  0  0  0  0  0  0
    7.1762   -1.4812    2.1121 O   0  0  0  0  0  0  0  0  0  0  0  0
    7.8914    0.9615    4.8554 C   0  0  2  0  0  0  0  0  0  0  0  0
    7.7927    1.3725    3.4640 O   0  0  0  0  0  0  0  0  0  0  0  0
    4.5410    3.3068    2.2976 C   0  0  0  0  0  0  0  0  0  0  0  0
    4.8624    1.9653    1.9428 O   0  0  0  0  0  0  0  0  0  0  0  0
    4.6972    7.7690    1.5489 C   0  0  1  0  0  0  0  0  0  0  0  0
    5.6650    6.7606    2.0144 O   0  0  0  0  0  0  0  0  0  0  0  0
    8.2721   -3.4249    1.1732 C   0  0  0  0  0  0  0  0  0  0  0  0
    8.4270   -4.8192    1.2787 O   0  0  0  0  0  0  0  0  0  0  0  0
    9.2491    1.4717    5.4973 C   0  0  1  0  0  0  0  0  0  0  0  0
    9.2133    2.8918    5.6637 O   0  0  0  0  0  0  0  0  0  0  0  0
    3.3434    7.6540    2.3752 C   0  0  0  0  0  0  0  0  0  0  0  0
    2.6729    6.3256    2.3277 N   0  0  0  0  0  0  0  0  0  0  0  0
  1  2  1  1  0  0  0
  1  7  1  0  0  0  0
  1 30  1  0  0  0  0
  3  4  1  6  0  0  0
  3  9  1  0  0  0  0
  3 39  1  0  0  0  0
  5 10  1  0  0  0  0
  5 26  1  0  0  0  0
  5 32  1  6  0  0  0
  6 12  1  0  0  0  0
  6 36  1  0  0  0  0
  6 19  1  1  0  0  0
  7  8  1  1  0  0  0
  7 14  1  0  0  0  0
  9 16  1  0  0  0  0
 10 11  1  1  0  0  0
 10 18  1  0  0  0  0
 12 13  1  1  0  0  0
 12 20  1  0  0  0  0
 14 15  1  6  0  0  0
 14 22  1  0  0  0  0
 16 17  1  6  0  0  0
 16 24  1  0  0  0  0
 18 19  1  1  0  0  0
 18 25  1  0  0  0  0
 20 21  1  6  0  0  0
 20 27  1  0  0  0  0
 22 23  1  1  0  0  0
 22 29  1  0  0  0  0
 24  2  1  1  0  0  0
 24 31  1  0  0  0  0
 25 26  1  0  0  0  0
 25 33  1  6  0  0  0
 27 28  1  1  0  0  0
 27 35  1  0  0  0  0
 29 30  1  0  0  0  0
 29 37  1  6  0  0  0
 31 32  1  6  0  0  0
 31 39  1  0  0  0  0
 33 34  1  0  0  0  0
 35 36  1  0  0  0  0
 35 41  1  1  0  0  0
 37 38  1  0  0  0  0
 39 40  1  1  0  0  0
 41 42  1  0  0  0  0
M  END
>  <CHROM.1>
177.62752756,176.53021415,179.21263181,170.95808041,-165.80940142,59.94573022
-63.89360769,179.68719944,-176.81069166,6.78584365,2.15334280,2.94470726
1.45434334,0.72595125,3.04630848

>  <Name>
2o3w_lig

>  <RI>
0

>  <Rbt.Current_Directory>
/home/itssahil/PROJECTS/Mol_Feturizer/New_Systems/rnas/2o3w

>  <Rbt.Executable>
rbdock ($Id: //depot/dev/client3/rdock/2013.1/src/exe/rbdock.cxx#4 $)

>  <Rbt.Library>
libRbt.so (2013.1, Build901 2013/11/27)

>  <Rbt.Parameter_File>
/export/apps/rDock/src/rDock_2013.1_src/data/scripts/dock_solv.prm

>  <Rbt.Receptor>
prm/pocket_docking_3.prm

>  <SCORE>
-12.4657

>  <SCORE.INTER>
0.205047

>  <SCORE.INTER.CONST>
1

>  <SCORE.INTER.POLAR>
0

>  <SCORE.INTER.ROT>
9

>  <SCORE.INTER.SOLV>
11.4225

>  <SCORE.INTER.VDW>
-13.2708

>  <SCORE.INTER.norm>
0.00488206

>  <SCORE.INTRA>
-12.6707

>  <SCORE.INTRA.DIHEDRAL>
-26.235

>  <SCORE.INTRA.DIHEDRAL.0>
27.8999

>  <SCORE.INTRA.POLAR>
0

>  <SCORE.INTRA.POLAR.0>
0

>  <SCORE.INTRA.REPUL>
0

>  <SCORE.INTRA.REPUL.0>
0

>  <SCORE.INTRA.SOLV>
-3.16792

>  <SCORE.INTRA.SOLV.lig_0>
-104.479

>  <SCORE.INTRA.VDW>
2.03072

>  <SCORE.INTRA.VDW.0>
-6.17816

>  <SCORE.INTRA.norm>
-0.301684

>  <SCORE.RESTR>
0

>  <SCORE.RESTR.CAVITY>
0

>  <SCORE.RESTR.norm>
0

>  <SCORE.SYSTEM>
0

>  <SCORE.SYSTEM.CONST>
0

>  <SCORE.SYSTEM.DIHEDRAL>
0

>  <SCORE.SYSTEM.SOLV>
0

>  <SCORE.SYSTEM.norm>
0

>  <SCORE.heavy>
42

>  <SCORE.norm>
-0.296802

>  <RMSD>
1.933

$$$$
2o3w_lig
 OpenBabel11021811463D
libRbt.so/2013.1/901 2013/11/27
 42 45  0  0  0  0  0  0  0  0999 V2000
   10.1156   -0.4616    3.8876 C   0  0  2  0  0  0  0  0  0  0  0  0
    9.9662    0.8487    4.4604 O   0  0  0  0  0  0  0  0  0  0  0  0
   12.7100    3.6446    6.3179 C   0  0  2  0  0  0  0  0  0  0  0  0
   13.8725    4.5464    6.5745 N   0  0  0  0  0  0  0  0  0  0  0  0
    9.4746    4.6327    3.0420 C   0  0  1  0  0  0  0  0  0  0  0  0
    7.2959    7.8666    0.8729 C   0  0  1  0  0  0  0  0  0  0  0  0
    8.7610   -0.8167    3.2042 C   0  0  2  0  0  0  0  0  0  0  0  0
    8.2781    0.2568    2.3182 N   0  0  0  0  0  0  0  0  0  0  0  0
   13.1704    2.1366    6.1916 C   0  0  0  0  0  0  0  0  0  0  0  0
    9.9284    5.2931    1.7046 C   0  0  2  0  0  0  0  0  0  0  0  0
   10.9608    6.2971    1.8637 O   0  0  0  0  0  0  0  0  0  0  0  0
    6.8001    9.1915    1.5567 C   0  0  2  0  0  0  0  0  0  0  0  0
    6.3195    8.9273    2.9460 N   0  0  0  0  0  0  0  0  0  0  0  0
    7.6427   -1.0851    4.2280 C   0  0  1  0  0  0  0  0  0  0  0  0
    6.4323   -1.4447    3.5597 O   0  0  0  0  0  0  0  0  0  0  0  0
   11.9022    1.2348    5.9449 C   0  0  2  0  0  0  0  0  0  0  0  0
   12.2975   -0.1953    5.8354 N   0  0  0  0  0  0  0  0  0  0  0  0
    8.5933    5.7975    1.1545 C   0  0  2  0  0  0  0  0  0  0  0  0
    8.3073    7.1606    1.6025 O   0  0  0  0  0  0  0  0  0  0  0  0
    5.6435    9.8471    0.6626 C   0  0  1  0  0  0  0  0  0  0  0  0
    6.2390   10.4266   -0.5200 O   0  0  0  0  0  0  0  0  0  0  0  0
    8.0958   -2.1906    5.2087 C   0  0  2  0  0  0  0  0  0  0  0  0
    7.0762   -2.4600    6.1425 O   0  0  0  0  0  0  0  0  0  0  0  0
   11.1503    1.6793    4.6284 C   0  0  2  0  0  0  0  0  0  0  0  0
    7.5268    4.8102    1.6575 C   0  0  2  0  0  0  0  0  0  0  0  0
    8.0592    4.3703    2.9047 O   0  0  0  0  0  0  0  0  0  0  0  0
    4.5161    8.7926    0.2331 C   0  0  2  0  0  0  0  0  0  0  0  0
    3.7884    8.4373    1.4081 O   0  0  0  0  0  0  0  0  0  0  0  0
    9.4018   -1.7250    5.9347 C   0  0  2  0  0  0  0  0  0  0  0  0
   10.4411   -1.4426    4.9447 O   0  0  0  0  0  0  0  0  0  0  0  0
   10.7189    3.1620    4.6567 C   0  0  2  0  0  0  0  0  0  0  0  0
   10.2207    3.4404    3.3193 O   0  0  0  0  0  0  0  0  0  0  0  0
    7.2480    3.6030    0.7092 C   0  0  0  0  0  0  0  0  0  0  0  0
    6.2078    2.8016    1.2612 O   0  0  0  0  0  0  0  0  0  0  0  0
    5.1694    7.5121   -0.4116 C   0  0  1  0  0  0  0  0  0  0  0  0
    6.1020    6.9773    0.5956 O   0  0  0  0  0  0  0  0  0  0  0  0
    9.9216   -2.7533    6.9126 C   0  0  0  0  0  0  0  0  0  0  0  0
   10.2781   -3.9322    6.2328 O   0  0  0  0  0  0  0  0  0  0  0  0
   11.9602    4.0884    4.9984 C   0  0  1  0  0  0  0  0  0  0  0  0
   11.5323    5.4419    5.1735 O   0  0  0  0  0  0  0  0  0  0  0  0
    4.1210    6.3950   -0.8379 C   0  0  0  0  0  0  0  0  0  0  0  0
    3.1732    6.7827   -1.9186 N   0  0  0  0  0  0  0  0  0  0  0  0
  1  2  1  1  0  0  0
  1  7  1  0  0  0  0
  1 30  1  0  0  0  0
  3  4  1  6  0  0  0
  3  9  1  0  0  0  0
  3 39  1  0  0  0  0
  5 10  1  0  0  0  0
  5 26  1  0  0  0  0
  5 32  1  6  0  0  0
  6 12  1  0  0  0  0
  6 36  1  0  0  0  0
  6 19  1  1  0  0  0
  7  8  1  6  0  0  0
  7 14  1  0  0  0  0
  9 16  1  0  0  0  0
 10 11  1  1  0  0  0
 10 18  1  0  0  0  0
 12 13  1  1  0  0  0
 12 20  1  0  0  0  0
 14 15  1  6  0  0  0
 14 22  1  0  0  0  0
 16 17  1  6  0  0  0
 16 24  1  0  0  0  0
 18 19  1  1  0  0  0
 18 25  1  0  0  0  0
 20 21  1  6  0  0  0
 20 27  1  0  0  0  0
 22 23  1  1  0  0  0
 22 29  1  0  0  0  0
 24  2  1  1  0  0  0
 24 31  1  0  0  0  0
 25 26  1  0  0  0  0
 25 33  1  6  0  0  0
 27 28  1  1  0  0  0
 27 35  1  0  0  0  0
 29 30  1  0  0  0  0
 29 37  1  1  0  0  0
 31 32  1  6  0  0  0
 31 39  1  0  0  0  0
 33 34  1  0  0  0  0
 35 36  1  0  0  0  0
 35 41  1  1  0  0  0
 37 38  1  0  0  0  0
 39 40  1  1  0  0  0
 41 42  1  0  0  0  0
M  END
>  <CHROM.1>
-152.99913119,136.81671140,167.59387858,163.30513299,-81.04393368,-177.57606389
62.90761594,166.77236458,64.53585948,8.58255988,3.50600322,3.12008596,1.10071071
0.51216835,2.86896496

>  <Name>
2o3w_lig

>  <RI>
0

>  <Rbt.Current_Directory>
/home/itssahil/PROJECTS/Mol_Feturizer/New_Systems/rnas/2o3w

>  <Rbt.Executable>
rbdock ($Id: //depot/dev/client3/rdock/2013.1/src/exe/rbdock.cxx#4 $)

>  <Rbt.Library>
libRbt.so (2013.1, Build901 2013/11/27)

>  <Rbt.Parameter_File>
/export/apps/rDock/src/rDock_2013.1_src/data/scripts/dock_solv.prm

>  <Rbt.Receptor>
prm/pocket_docking_3.prm

>  <SCORE>
-10.0958

>  <SCORE.INTER>
-5.27259

>  <SCORE.INTER.CONST>
1

>  <SCORE.INTER.POLAR>
-1

>  <SCORE.INTER.ROT>
9

>  <SCORE.INTER.SOLV>
10.6505

>  <SCORE.INTER.VDW>
-13.3319

>  <SCORE.INTER.norm>
-0.125538

>  <SCORE.INTRA>
-4.82318

>  <SCORE.INTRA.DIHEDRAL>
-13.9094

>  <SCORE.INTRA.DIHEDRAL.0>
27.8999

>  <SCORE.INTRA.POLAR>
0

>  <SCORE.INTRA.POLAR.0>
0

>  <SCORE.INTRA.REPUL>
0

>  <SCORE.INTRA.REPUL.0>
0

>  <SCORE.INTRA.SOLV>
-0.976188

>  <SCORE.INTRA.SOLV.lig_0>
-104.479

>  <SCORE.INTRA.VDW>
2.61964

>  <SCORE.INTRA.VDW.0>
-6.17816

>  <SCORE.INTRA.norm>
-0.114838

>  <SCORE.RESTR>
0

>  <SCORE.RESTR.CAVITY>
0

>  <SCORE.RESTR.norm>
0

>  <SCORE.SYSTEM>
0

>  <SCORE.SYSTEM.CONST>
0

>  <SCORE.SYSTEM.DIHEDRAL>
0

>  <SCORE.SYSTEM.SOLV>
0

>  <SCORE.SYSTEM.norm>
0

>  <SCORE.heavy>
42

>  <SCORE.norm>
-0.240375

>  <RMSD>
1.956

$$$$
2o3w_lig
 OpenBabel11021811463D
libRbt.so/2013.1/901 2013/11/27
 42 45  0  0  0  0  0  0  0  0999 V2000
    7.4028    1.2085    3.3785 C   0  0  2  0  0  0  0  0  0  0  0  0
    7.9786    1.3827    4.6844 O   0  0  0  0  0  0  0  0  0  0  0  0
   11.8874    2.5293    6.1688 C   0  0  2  0  0  0  0  0  0  0  0  0
   13.3640    2.6423    6.3616 N   0  0  0  0  0  0  0  0  0  0  0  0
    8.5645    3.6796    2.4972 C   0  0  1  0  0  0  0  0  0  0  0  0
    6.1353    7.2381    1.1771 C   0  0  1  0  0  0  0  0  0  0  0  0
    5.8592    1.1159    3.5705 C   0  0  2  0  0  0  0  0  0  0  0  0
    5.3280    2.2095    4.4026 N   0  0  0  0  0  0  0  0  0  0  0  0
   11.3757    1.0690    6.4967 C   0  0  0  0  0  0  0  0  0  0  0  0
    8.6246    5.1475    3.0192 C   0  0  2  0  0  0  0  0  0  0  0  0
    7.8938    5.3652    4.2511 O   0  0  0  0  0  0  0  0  0  0  0  0
    6.2991    8.5796    1.9785 C   0  0  2  0  0  0  0  0  0  0  0  0
    5.6929    8.4659    3.3388 N   0  0  0  0  0  0  0  0  0  0  0  0
    5.4320   -0.2020    4.2425 C   0  0  1  0  0  0  0  0  0  0  0  0
    4.0097   -0.2611    4.3621 O   0  0  0  0  0  0  0  0  0  0  0  0
    9.8136    1.0189    6.2973 C   0  0  2  0  0  0  0  0  0  0  0  0
    9.2952   -0.3398    6.6120 N   0  0  0  0  0  0  0  0  0  0  0  0
    8.1127    5.9172    1.8007 C   0  0  2  0  0  0  0  0  0  0  0  0
    6.6592    6.0798    1.8387 O   0  0  0  0  0  0  0  0  0  0  0  0
    5.6306    9.7761    1.1487 C   0  0  1  0  0  0  0  0  0  0  0  0
    6.4787   10.0947    0.0226 O   0  0  0  0  0  0  0  0  0  0  0  0
    5.9801   -1.3968    3.4293 C   0  0  2  0  0  0  0  0  0  0  0  0
    5.5834   -2.6114    4.0223 O   0  0  0  0  0  0  0  0  0  0  0  0
    9.4289    1.4026    4.8139 C   0  0  2  0  0  0  0  0  0  0  0  0
    8.5506    5.1046    0.5706 C   0  0  2  0  0  0  0  0  0  0  0  0
    8.5460    3.7633    1.0537 O   0  0  0  0  0  0  0  0  0  0  0  0
    4.1570    9.4239    0.6271 C   0  0  2  0  0  0  0  0  0  0  0  0
    3.2993    9.3652    1.7661 O   0  0  0  0  0  0  0  0  0  0  0  0
    7.5406   -1.2969    3.3639 C   0  0  2  0  0  0  0  0  0  0  0  0
    7.9271   -0.0247    2.7540 O   0  0  0  0  0  0  0  0  0  0  0  0
    9.9467    2.7984    4.4029 C   0  0  2  0  0  0  0  0  0  0  0  0
    9.6699    2.9045    2.9793 O   0  0  0  0  0  0  0  0  0  0  0  0
    9.9479    5.4879   -0.0082 C   0  0  0  0  0  0  0  0  0  0  0  0
    9.9322    6.8546   -0.4091 O   0  0  0  0  0  0  0  0  0  0  0  0
    4.1512    8.0432   -0.1316 C   0  0  1  0  0  0  0  0  0  0  0  0
    4.6753    7.0501    0.8220 O   0  0  0  0  0  0  0  0  0  0  0  0
    8.1633   -2.4275    2.5779 C   0  0  0  0  0  0  0  0  0  0  0  0
    9.5625   -2.2840    2.5476 O   0  0  0  0  0  0  0  0  0  0  0  0
   11.5038    2.9106    4.6828 C   0  0  1  0  0  0  0  0  0  0  0  0
   11.9528    4.2476    4.4453 O   0  0  0  0  0  0  0  0  0  0  0  0
    2.7173    7.5983   -0.6558 C   0  0  0  0  0  0  0  0  0  0  0  0
    2.1033    8.4880   -1.6795 N   0  0  0  0  0  0  0  0  0  0  0  0
  1  2  1  1  0  0  0
  1  7  1  0  0  0  0
  1 30  1  0  0  0  0
  3  4  1  6  0  0  0
  3  9  1  0  0  0  0
  3 39  1  0  0  0  0
  5 10  1  0  0  0  0
  5 26  1  0  0  0  0
  5 32  1  6  0  0  0
  6 12  1  0  0  0  0
  6 36  1  0  0  0  0
  6 19  1  1  0  0  0
  7  8  1  1  0  0  0
  7 14  1  0  0  0  0
  9 16  1  0  0  0  0
 10 11  1  1  0  0  0
 10 18  1  0  0  0  0
 12 13  1  1  0  0  0
 12 20  1  0  0  0  0
 14 15  1  6  0  0  0
 14 22  1  0  0  0  0
 16 17  1  6  0  0  0
 16 24  1  0  0  0  0
 18 19  1  1  0  0  0
 18 25  1  0  0  0  0
 20 21  1  6  0  0  0
 20 27  1  0  0  0  0
 22 23  1  1  0  0  0
 22 29  1  0  0  0  0
 24  2  1  1  0  0  0
 24 31  1  0  0  0  0
 25 26  1  0  0  0  0
 25 33  1  1  0  0  0
 27 28  1  1  0  0  0
 27 35  1  0  0  0  0
 29 30  1  0  0  0  0
 29 37  1  6  0  0  0
 31 32  1  6  0  0  0
 31 39  1  0  0  0  0
 33 34  1  0  0  0  0
 35 36  1  0  0  0  0
 35 41  1  1  0  0  0
 37 38  1  0  0  0  0
 39 40  1  1  0  0  0
 41 42  1  0  0  0  0
M  END
>  <CHROM.1>
175.60632794,55.15808808,-77.31628859,151.68056595,-157.34003655,-60.27368564
179.75471113,102.87527987,63.57053313,7.54416064,3.75958189,2.82747124,1.15725418
0.33663874,2.84143671

>  <Name>
2o3w_lig

>  <RI>
0

>  <Rbt.Current_Directory>
/home/itssahil/PROJECTS/Mol_Feturizer/New_Systems/rnas/2o3w

>  <Rbt.Executable>
rbdock ($Id: //depot/dev/client3/rdock/2013.1/src/exe/rbdock.cxx#4 $)

>  <Rbt.Library>
libRbt.so (2013.1, Build901 2013/11/27)

>  <Rbt.Parameter_File>
/export/apps/rDock/src/rDock_2013.1_src/data/scripts/dock_solv.prm

>  <Rbt.Receptor>
prm/pocket_docking_3.prm

>  <SCORE>
-17.4378

>  <SCORE.INTER>
-10.4072

>  <SCORE.INTER.CONST>
1

>  <SCORE.INTER.POLAR>
-1.45862

>  <SCORE.INTER.ROT>
9

>  <SCORE.INTER.SOLV>
11.2912

>  <SCORE.INTER.VDW>
-15.4398

>  <SCORE.INTER.norm>
-0.247791

>  <SCORE.INTRA>
-7.52428

>  <SCORE.INTRA.DIHEDRAL>
-14.7879

>  <SCORE.INTRA.DIHEDRAL.0>
27.8999

>  <SCORE.INTRA.POLAR>
0

>  <SCORE.INTRA.POLAR.0>
0

>  <SCORE.INTRA.REPUL>
0

>  <SCORE.INTRA.REPUL.0>
0

>  <SCORE.INTRA.SOLV>
-4.48034

>  <SCORE.INTRA.SOLV.lig_0>
-104.479

>  <SCORE.INTRA.VDW>
2.10986

>  <SCORE.INTRA.VDW.0>
-6.17816

>  <SCORE.INTRA.norm>
-0.179149

>  <SCORE.RESTR>
0.49372

>  <SCORE.RESTR.CAVITY>
0.49372

>  <SCORE.RESTR.norm>
0.0117552

>  <SCORE.SYSTEM>
0

>  <SCORE.SYSTEM.CONST>
0

>  <SCORE.SYSTEM.DIHEDRAL>
0

>  <SCORE.SYSTEM.SOLV>
0

>  <SCORE.SYSTEM.norm>
0

>  <SCORE.heavy>
42

>  <SCORE.norm>
-0.415185

>  <RMSD>
1.975

$$$$
2o3w_lig
 OpenBabel11021811463D
libRbt.so/2013.1/901 2013/11/27
 42 45  0  0  0  0  0  0  0  0999 V2000
    6.7638    1.0115    3.4213 C   0  0  2  0  0  0  0  0  0  0  0  0
    7.3678    1.1120    4.7222 O   0  0  0  0  0  0  0  0  0  0  0  0
   11.3928    1.7412    6.2052 C   0  0  2  0  0  0  0  0  0  0  0  0
   12.8735    1.6729    6.3878 N   0  0  0  0  0  0  0  0  0  0  0  0
    8.1919    3.3743    2.6034 C   0  0  1  0  0  0  0  0  0  0  0  0
    6.0429    7.1271    1.4442 C   0  0  1  0  0  0  0  0  0  0  0  0
    5.2266    1.1726    3.6197 C   0  0  2  0  0  0  0  0  0  0  0  0
    4.8838    2.3513    4.4344 N   0  0  0  0  0  0  0  0  0  0  0  0
   10.7140    0.3416    6.4921 C   0  0  0  0  0  0  0  0  0  0  0  0
    8.2908    4.7570    3.3169 C   0  0  2  0  0  0  0  0  0  0  0  0
    7.4854    4.8599    4.5168 O   0  0  0  0  0  0  0  0  0  0  0  0
    6.2201    8.4664    2.2466 C   0  0  2  0  0  0  0  0  0  0  0  0
    5.5241    8.3938    3.5661 N   0  0  0  0  0  0  0  0  0  0  0  0
    4.5962   -0.0477    4.3157 C   0  0  1  0  0  0  0  0  0  0  0  0
    3.1837    0.1257    4.4407 O   0  0  0  0  0  0  0  0  0  0  0  0
    9.1558    0.4825    6.3058 C   0  0  2  0  0  0  0  0  0  0  0  0
    8.4822   -0.8149    6.5826 N   0  0  0  0  0  0  0  0  0  0  0  0
    7.9092    5.7060    2.1797 C   0  0  2  0  0  0  0  0  0  0  0  0
    6.4671    5.9511    2.1446 O   0  0  0  0  0  0  0  0  0  0  0  0
    5.6642    9.6861    1.3690 C   0  0  1  0  0  0  0  0  0  0  0  0
    6.5964    9.9537    0.2975 O   0  0  0  0  0  0  0  0  0  0  0  0
    4.9394   -1.3285    3.5215 C   0  0  2  0  0  0  0  0  0  0  0  0
    4.3554   -2.4532    4.1366 O   0  0  0  0  0  0  0  0  0  0  0  0
    8.8109    0.9565    4.8387 C   0  0  2  0  0  0  0  0  0  0  0  0
    8.3916    5.0318    0.8843 C   0  0  2  0  0  0  0  0  0  0  0  0
    8.2820    3.6426    1.1853 O   0  0  0  0  0  0  0  0  0  0  0  0
    4.2114    9.4002    0.7565 C   0  0  2  0  0  0  0  0  0  0  0  0
    3.2813    9.3927    1.8387 O   0  0  0  0  0  0  0  0  0  0  0  0
    6.4952   -1.4831    3.4496 C   0  0  2  0  0  0  0  0  0  0  0  0
    7.0784   -0.3003    2.8165 O   0  0  0  0  0  0  0  0  0  0  0  0
    9.4878    2.2940    4.4668 C   0  0  2  0  0  0  0  0  0  0  0  0
    9.2176    2.4778    3.0499 O   0  0  0  0  0  0  0  0  0  0  0  0
    9.8451    5.3997    0.4528 C   0  0  0  0  0  0  0  0  0  0  0  0
   10.1662    4.7122   -0.7527 O   0  0  0  0  0  0  0  0  0  0  0  0
    4.1870    8.0146    0.0070 C   0  0  1  0  0  0  0  0  0  0  0  0
    4.6010    7.0061    0.9978 O   0  0  0  0  0  0  0  0  0  0  0  0
    6.9226   -2.7123    2.6813 C   0  0  0  0  0  0  0  0  0  0  0  0
    6.5763   -2.5805    1.3241 O   0  0  0  0  0  0  0  0  0  0  0  0
   11.0488    2.2126    4.7356 C   0  0  1  0  0  0  0  0  0  0  0  0
   11.6513    3.4943    4.5359 O   0  0  0  0  0  0  0  0  0  0  0  0
    2.7694    7.6343   -0.6051 C   0  0  0  0  0  0  0  0  0  0  0  0
    1.6625    7.4894    0.3800 N   0  0  0  0  0  0  0  0  0  0  0  0
  1  2  1  1  0  0  0
  1  7  1  0  0  0  0
  1 30  1  0  0  0  0
  3  4  1  6  0  0  0
  3  9  1  0  0  0  0
  3 39  1  0  0  0  0
  5 10  1  0  0  0  0
  5 26  1  0  0  0  0
  5 32  1  1  0  0  0
  6 12  1  0  0  0  0
  6 36  1  0  0  0  0
  6 19  1  1  0  0  0
  7  8  1  1  0  0  0
  7 14  1  0  0  0  0
  9 16  1  0  0  0  0
 10 11  1  1  0  0  0
 10 18  1  0  0  0  0
 12 13  1  1  0  0  0
 12 20  1  0  0  0  0
 14 15  1  6  0  0  0
 14 22  1  0  0  0  0
 16 17  1  6  0  0  0
 16 24  1  0  0  0  0
 18 19  1  6  0  0  0
 18 25  1  0  0  0  0
 20 21  1  6  0  0  0
 20 27  1  0  0  0  0
 22 23  1  1  0  0  0
 22 29  1  0  0  0  0
 24  2  1  1  0  0  0
 24 31  1  0  0  0  0
 25 26  1  0  0  0  0
 25 33  1  1  0  0  0
 27 28  1  1  0  0  0
 27 35  1  0  0  0  0
 29 30  1  0  0  0  0
 29 37  1  6  0  0  0
 31 32  1  6  0  0  0
 31 39  1  0  0  0  0
 33 34  1  0  0  0  0
 35 36  1  0  0  0  0
 35 41  1  1  0  0  0
 37 38  1  0  0  0  0
 39 40  1  1  0  0  0
 41 42  1  0  0  0  0
M  END
>  <CHROM.1>
178.21323689,47.88274558,-78.37587353,159.99123335,-155.60942491,179.95341350
66.73572383,101.69677801,-61.48226382,7.05842211,3.46121105,2.95686378,1.24200362
0.28365398,2.84027467

>  <Name>
2o3w_lig

>  <RI>
0

>  <Rbt.Current_Directory>
/home/itssahil/PROJECTS/Mol_Feturizer/New_Systems/rnas/2o3w

>  <Rbt.Executable>
rbdock ($Id: //depot/dev/client3/rdock/2013.1/src/exe/rbdock.cxx#4 $)

>  <Rbt.Library>
libRbt.so (2013.1, Build901 2013/11/27)

>  <Rbt.Parameter_File>
/export/apps/rDock/src/rDock_2013.1_src/data/scripts/dock_solv.prm

>  <Rbt.Receptor>
prm/pocket_docking_4.prm

>  <SCORE>
-13.837

>  <SCORE.INTER>
-6.9044

>  <SCORE.INTER.CONST>
1

>  <SCORE.INTER.POLAR>
-0.627049

>  <SCORE.INTER.ROT>
9

>  <SCORE.INTER.SOLV>
13.4107

>  <SCORE.INTER.VDW>
-16.583

>  <SCORE.INTER.norm>
-0.16439

>  <SCORE.INTRA>
-6.93257

>  <SCORE.INTRA.DIHEDRAL>
-15.3485

>  <SCORE.INTRA.DIHEDRAL.0>
27.8999

>  <SCORE.INTRA.POLAR>
0

>  <SCORE.INTRA.POLAR.0>
0

>  <SCORE.INTRA.REPUL>
0

>  <SCORE.INTRA.REPUL.0>
0

>  <SCORE.INTRA.SOLV>
-2.45602

>  <SCORE.INTRA.SOLV.lig_0>
-104.479

>  <SCORE.INTRA.VDW>
1.96971

>  <SCORE.INTRA.VDW.0>
-6.17816

>  <SCORE.INTRA.norm>
-0.165061

>  <SCORE.RESTR>
0

>  <SCORE.RESTR.CAVITY>
0

>  <SCORE.RESTR.norm>
0

>  <SCORE.SYSTEM>
0

>  <SCORE.SYSTEM.CONST>
0

>  <SCORE.SYSTEM.DIHEDRAL>
0

>  <SCORE.SYSTEM.SOLV>
0

>  <SCORE.SYSTEM.norm>
0

>  <SCORE.heavy>
42

>  <SCORE.norm>
-0.329452

>  <RMSD>
2.034

$$$$
2o3w_lig
 OpenBabel11021811463D
libRbt.so/2013.1/901 2013/11/27
 42 45  0  0  0  0  0  0  0  0999 V2000
    6.1842   -0.8325    2.9908 C   0  0  2  0  0  0  0  0  0  0  0  0
    6.5460   -1.1147    4.3535 O   0  0  0  0  0  0  0  0  0  0  0  0
    9.6850    0.4580    6.8970 C   0  0  2  0  0  0  0  0  0  0  0  0
   11.0190    0.8601    7.4347 N   0  0  0  0  0  0  0  0  0  0  0  0
    7.9784    2.5830    3.1385 C   0  0  1  0  0  0  0  0  0  0  0  0
    7.1821    6.4783    1.2131 C   0  0  1  0  0  0  0  0  0  0  0  0
    4.7417   -1.3830    2.7798 C   0  0  2  0  0  0  0  0  0  0  0  0
    3.8099   -0.9404    3.8316 N   0  0  0  0  0  0  0  0  0  0  0  0
    9.5749   -1.1132    6.7511 C   0  0  0  0  0  0  0  0  0  0  0  0
    8.0069    2.8001    1.5949 C   0  0  2  0  0  0  0  0  0  0  0  0
    9.3402    2.9251    1.0419 O   0  0  0  0  0  0  0  0  0  0  0  0
    8.0460    7.7868    1.3153 C   0  0  2  0  0  0  0  0  0  0  0  0
    8.6663    7.9121    2.6682 N   0  0  0  0  0  0  0  0  0  0  0  0
    4.6996   -2.9221    2.7672 C   0  0  1  0  0  0  0  0  0  0  0  0
    3.3675   -3.3814    2.5319 O   0  0  0  0  0  0  0  0  0  0  0  0
    8.1429   -1.4756    6.2029 C   0  0  2  0  0  0  0  0  0  0  0  0
    7.9989   -2.9502    6.0668 N   0  0  0  0  0  0  0  0  0  0  0  0
    7.1124    4.0325    1.4518 C   0  0  2  0  0  0  0  0  0  0  0  0
    7.8870    5.2714    1.5295 O   0  0  0  0  0  0  0  0  0  0  0  0
    7.1252    9.0555    0.9847 C   0  0  1  0  0  0  0  0  0  0  0  0
    6.8614    9.0838   -0.4361 O   0  0  0  0  0  0  0  0  0  0  0  0
    5.6781   -3.4560    1.6964 C   0  0  2  0  0  0  0  0  0  0  0  0
    5.6391   -4.8637    1.6607 O   0  0  0  0  0  0  0  0  0  0  0  0
    7.8915   -0.7870    4.8035 C   0  0  2  0  0  0  0  0  0  0  0  0
    6.0843    3.9456    2.5923 C   0  0  2  0  0  0  0  0  0  0  0  0
    6.8048    3.2747    3.6235 O   0  0  0  0  0  0  0  0  0  0  0  0
    5.7382    9.0434    1.7871 C   0  0  2  0  0  0  0  0  0  0  0  0
    6.0353    9.2697    3.1644 O   0  0  0  0  0  0  0  0  0  0  0  0
    7.1221   -2.9510    2.0271 C   0  0  2  0  0  0  0  0  0  0  0  0
    7.1346   -1.4888    2.0679 O   0  0  0  0  0  0  0  0  0  0  0  0
    8.0386    0.7495    4.8570 C   0  0  2  0  0  0  0  0  0  0  0  0
    7.9607    1.1891    3.4731 O   0  0  0  0  0  0  0  0  0  0  0  0
    4.7707    3.1823    2.2375 C   0  0  0  0  0  0  0  0  0  0  0  0
    3.9259    3.1418    3.3836 O   0  0  0  0  0  0  0  0  0  0  0  0
    5.0042    7.6610    1.6075 C   0  0  1  0  0  0  0  0  0  0  0  0
    5.9483    6.6323    2.0774 O   0  0  0  0  0  0  0  0  0  0  0  0
    8.1476   -3.4229    1.0224 C   0  0  0  0  0  0  0  0  0  0  0  0
    8.3683   -4.8048    1.1675 O   0  0  0  0  0  0  0  0  0  0  0  0
    9.4359    1.1452    5.4948 C   0  0  1  0  0  0  0  0  0  0  0  0
    9.5088    2.5611    5.6835 O   0  0  0  0  0  0  0  0  0  0  0  0
    3.6304    7.5494    2.4005 C   0  0  0  0  0  0  0  0  0  0  0  0
    2.9078    6.2560    2.2545 N   0  0  0  0  0  0  0  0  0  0  0  0
  1  2  1  1  0  0  0
  1  7  1  0  0  0  0
  1 30  1  0  0  0  0
  3  4  1  6  0  0  0
  3  9  1  0  0  0  0
  3 39  1  0  0  0  0
  5 10  1  0  0  0  0
  5 26  1  0  0  0  0
  5 32  1  6  0  0  0
  6 12  1  0  0  0  0
  6 36  1  0  0  0  0
  6 19  1  1  0  0  0
  7  8  1  1  0  0  0
  7 14  1  0  0  0  0
  9 16  1  0  0  0  0
 10 11  1  1  0  0  0
 10 18  1  0  0  0  0
 12 13  1  1  0  0  0
 12 20  1  0  0  0  0
 14 15  1  6  0  0  0
 14 22  1  0  0  0  0
 16 17  1  6  0  0  0
 16 24  1  0  0  0  0
 18 19  1  1  0  0  0
 18 25  1  0  0  0  0
 20 21  1  6  0  0  0
 20 27  1  0  0  0  0
 22 23  1  1  0  0  0
 22 29  1  0  0  0  0
 24  2  1  1  0  0  0
 24 31  1  0  0  0  0
 25 26  1  0  0  0  0
 25 33  1  6  0  0  0
 27 28  1  1  0  0  0
 27 35  1  0  0  0  0
 29 30  1  0  0  0  0
 29 37  1  6  0  0  0
 31 32  1  6  0  0  0
 31 39  1  0  0  0  0
 33 34  1  0  0  0  0
 35 36  1  0  0  0  0
 35 41  1  1  0  0  0
 37 38  1  0  0  0  0
 39 40  1  1  0  0  0
 41 42  1  0  0  0  0
M  END
>  <CHROM.1>
175.85682134,175.14057970,179.69841263,171.18168083,-167.42560265,178.38341119
-70.93420210,176.15913883,179.99883450,6.88992556,2.06183165,2.98354324,1.49126479
0.66892684,3.02718371

>  <Name>
2o3w_lig

>  <RI>
0

>  <Rbt.Current_Directory>
/home/itssahil/PROJECTS/Mol_Feturizer/New_Systems/rnas/2o3w

>  <Rbt.Executable>
rbdock ($Id: //depot/dev/client3/rdock/2013.1/src/exe/rbdock.cxx#4 $)

>  <Rbt.Library>
libRbt.so (2013.1, Build901 2013/11/27)

>  <Rbt.Parameter_File>
/export/apps/rDock/src/rDock_2013.1_src/data/scripts/dock_solv.prm

>  <Rbt.Receptor>
prm/pocket_docking_3.prm

>  <SCORE>
-12.5757

>  <SCORE.INTER>
0.175581

>  <SCORE.INTER.CONST>
1

>  <SCORE.INTER.POLAR>
0

>  <SCORE.INTER.ROT>
9

>  <SCORE.INTER.SOLV>
11.4491

>  <SCORE.INTER.VDW>
-13.2993

>  <SCORE.INTER.norm>
0.00418049

>  <SCORE.INTRA>
-12.7524

>  <SCORE.INTRA.DIHEDRAL>
-25.931

>  <SCORE.INTRA.DIHEDRAL.0>
27.8999

>  <SCORE.INTRA.POLAR>
0

>  <SCORE.INTRA.POLAR.0>
0

>  <SCORE.INTRA.REPUL>
0

>  <SCORE.INTRA.REPUL.0>
0

>  <SCORE.INTRA.SOLV>
-3.92849

>  <SCORE.INTRA.SOLV.lig_0>
-104.479

>  <SCORE.INTRA.VDW>
2.17739

>  <SCORE.INTRA.VDW.0>
-6.17816

>  <SCORE.INTRA.norm>
-0.303628

>  <SCORE.RESTR>
0.00106166

>  <SCORE.RESTR.CAVITY>
0.00106166

>  <SCORE.RESTR.norm>
2.52777e-05

>  <SCORE.SYSTEM>
0

>  <SCORE.SYSTEM.CONST>
0

>  <SCORE.SYSTEM.DIHEDRAL>
0

>  <SCORE.SYSTEM.SOLV>
0

>  <SCORE.SYSTEM.norm>
0

>  <SCORE.heavy>
42

>  <SCORE.norm>
-0.299422

>  <RMSD>
2.056

$$$$
2o3w_lig
 OpenBabel11021811463D
libRbt.so/2013.1/901 2013/11/27
 42 45  0  0  0  0  0  0  0  0999 V2000
    8.9190    0.9020    3.7232 C   0  0  2  0  0  0  0  0  0  0  0  0
    9.5917    0.8914    4.9939 O   0  0  0  0  0  0  0  0  0  0  0  0
   12.9775    3.1084    6.5486 C   0  0  2  0  0  0  0  0  0  0  0  0
   14.3301    3.7209    6.7096 N   0  0  0  0  0  0  0  0  0  0  0  0
    9.5377    4.2876    3.2939 C   0  0  1  0  0  0  0  0  0  0  0  0
    7.5060    7.6781    1.4387 C   0  0  1  0  0  0  0  0  0  0  0  0
    7.4314    0.5245    3.9927 C   0  0  2  0  0  0  0  0  0  0  0  0
    6.8355    1.3213    5.0792 N   0  0  0  0  0  0  0  0  0  0  0  0
   13.0549    1.5290    6.5823 C   0  0  0  0  0  0  0  0  0  0  0  0
   10.3061    5.5930    2.9249 C   0  0  2  0  0  0  0  0  0  0  0  0
   10.5587    6.4668    4.0526 O   0  0  0  0  0  0  0  0  0  0  0  0
    6.7008    8.9048    2.0006 C   0  0  2  0  0  0  0  0  0  0  0  0
    5.9293    8.5226    3.2211 N   0  0  0  0  0  0  0  0  0  0  0  0
    7.2659   -0.9555    4.3843 C   0  0  1  0  0  0  0  0  0  0  0  0
    5.8856   -1.2661    4.5827 O   0  0  0  0  0  0  0  0  0  0  0  0
   11.6000    0.9435    6.4310 C   0  0  2  0  0  0  0  0  0  0  0  0
   11.6336   -0.5434    6.4731 N   0  0  0  0  0  0  0  0  0  0  0  0
    9.4061    6.1681    1.8301 C   0  0  2  0  0  0  0  0  0  0  0  0
    8.3849    7.0570    2.3849 O   0  0  0  0  0  0  0  0  0  0  0  0
    5.7287    9.4673    0.8580 C   0  0  1  0  0  0  0  0  0  0  0  0
    6.5217   10.1656   -0.1280 O   0  0  0  0  0  0  0  0  0  0  0  0
    7.8947   -1.8511    3.2927 C   0  0  2  0  0  0  0  0  0  0  0  0
    7.7366   -3.2101    3.6282 O   0  0  0  0  0  0  0  0  0  0  0  0
   10.9459    1.4207    5.0744 C   0  0  2  0  0  0  0  0  0  0  0  0
    8.7688    4.9585    1.1257 C   0  0  2  0  0  0  0  0  0  0  0  0
    8.6807    3.9898    2.1678 O   0  0  0  0  0  0  0  0  0  0  0  0
    4.8775    8.3138    0.1421 C   0  0  2  0  0  0  0  0  0  0  0  0
    3.9320    7.8235    1.0918 O   0  0  0  0  0  0  0  0  0  0  0  0
    9.4106   -1.4901    3.1469 C   0  0  2  0  0  0  0  0  0  0  0  0
    9.5487   -0.0738    2.8083 O   0  0  0  0  0  0  0  0  0  0  0  0
   10.8880    2.9587    4.9459 C   0  0  2  0  0  0  0  0  0  0  0  0
   10.4390    3.2118    3.5862 O   0  0  0  0  0  0  0  0  0  0  0  0
    9.5756    4.4042   -0.0892 C   0  0  0  0  0  0  0  0  0  0  0  0
    9.9808    5.4886   -0.9191 O   0  0  0  0  0  0  0  0  0  0  0  0
    5.8193    7.1472   -0.3420 C   0  0  1  0  0  0  0  0  0  0  0  0
    6.5335    6.6740    0.8564 O   0  0  0  0  0  0  0  0  0  0  0  0
   10.1065   -2.3176    2.0910 C   0  0  0  0  0  0  0  0  0  0  0  0
   10.1178   -3.6733    2.4669 O   0  0  0  0  0  0  0  0  0  0  0  0
   12.3251    3.5843    5.1890 C   0  0  1  0  0  0  0  0  0  0  0  0
   12.2430    5.0118    5.2203 O   0  0  0  0  0  0  0  0  0  0  0  0
    5.0509    5.9405   -1.0362 C   0  0  0  0  0  0  0  0  0  0  0  0
    4.1042    5.1942   -0.1624 N   0  0  0  0  0  0  0  0  0  0  0  0
  1  2  1  1  0  0  0
  1  7  1  0  0  0  0
  1 30  1  0  0  0  0
  3  4  1  6  0  0  0
  3  9  1  0  0  0  0
  3 39  1  0  0  0  0
  5 10  1  0  0  0  0
  5 26  1  0  0  0  0
  5 32  1  6  0  0  0
  6 12  1  0  0  0  0
  6 36  1  0  0  0  0
  6 19  1  1  0  0  0
  7  8  1  1  0  0  0
  7 14  1  0  0  0  0
  9 16  1  0  0  0  0
 10 11  1  1  0  0  0
 10 18  1  0  0  0  0
 12 13  1  1  0  0  0
 12 20  1  0  0  0  0
 14 15  1  6  0  0  0
 14 22  1  0  0  0  0
 16 17  1  6  0  0  0
 16 24  1  0  0  0  0
 18 19  1  1  0  0  0
 18 25  1  0  0  0  0
 20 21  1  6  0  0  0
 20 27  1  0  0  0  0
 22 23  1  1  0  0  0
 22 29  1  0  0  0  0
 24  2  1  1  0  0  0
 24 31  1  0  0  0  0
 25 26  1  0  0  0  0
 25 33  1  6  0  0  0
 27 28  1  1  0  0  0
 27 35  1  0  0  0  0
 29 30  1  0  0  0  0
 29 37  1  6  0  0  0
 31 32  1  6  0  0  0
 31 39  1  0  0  0  0
 33 34  1  0  0  0  0
 35 36  1  0  0  0  0
 35 41  1  1  0  0  0
 37 38  1  0  0  0  0
 39 40  1  1  0  0  0
 41 42  1  0  0  0  0
M  END
>  <CHROM.1>
-170.05140562,91.85357241,-163.88810076,178.49984029,-164.50183485,-46.50398148
-64.58201257,142.09576127,-63.70858889,8.77601260,3.51310470,2.96960526,1.08972451
0.58424390,2.98346443

>  <Name>
2o3w_lig

>  <RI>
0

>  <Rbt.Current_Directory>
/home/itssahil/PROJECTS/Mol_Feturizer/New_Systems/rnas/2o3w

>  <Rbt.Executable>
rbdock ($Id: //depot/dev/client3/rdock/2013.1/src/exe/rbdock.cxx#4 $)

>  <Rbt.Library>
libRbt.so (2013.1, Build901 2013/11/27)

>  <Rbt.Parameter_File>
/export/apps/rDock/src/rDock_2013.1_src/data/scripts/dock_solv.prm

>  <Rbt.Receptor>
prm/pocket_docking_3.prm

>  <SCORE>
-14.3699

>  <SCORE.INTER>
-7.63028

>  <SCORE.INTER.CONST>
1

>  <SCORE.INTER.POLAR>
-0.990874

>  <SCORE.INTER.ROT>
9

>  <SCORE.INTER.SOLV>
10.2938

>  <SCORE.INTER.VDW>
-14.8152

>  <SCORE.INTER.norm>
-0.181673

>  <SCORE.INTRA>
-7.07646

>  <SCORE.INTRA.DIHEDRAL>
-15.241

>  <SCORE.INTRA.DIHEDRAL.0>
27.8999

>  <SCORE.INTRA.POLAR>
0

>  <SCORE.INTRA.POLAR.0>
0

>  <SCORE.INTRA.REPUL>
0

>  <SCORE.INTRA.REPUL.0>
0

>  <SCORE.INTRA.SOLV>
-3.38109

>  <SCORE.INTRA.SOLV.lig_0>
-104.479

>  <SCORE.INTRA.VDW>
2.23459

>  <SCORE.INTRA.VDW.0>
-6.17816

>  <SCORE.INTRA.norm>
-0.168487

>  <SCORE.RESTR>
0.336799

>  <SCORE.RESTR.CAVITY>
0.336799

>  <SCORE.RESTR.norm>
0.00801901

>  <SCORE.SYSTEM>
0

>  <SCORE.SYSTEM.CONST>
0

>  <SCORE.SYSTEM.DIHEDRAL>
0

>  <SCORE.SYSTEM.SOLV>
0

>  <SCORE.SYSTEM.norm>
0

>  <SCORE.heavy>
42

>  <SCORE.norm>
-0.342141

>  <RMSD>
2.070

$$$$
2o3w_lig
 OpenBabel11021811463D
libRbt.so/2013.1/901 2013/11/27
 42 45  0  0  0  0  0  0  0  0999 V2000
    5.9992   -0.6366    2.8752 C   0  0  2  0  0  0  0  0  0  0  0  0
    6.3260   -0.9814    4.2322 O   0  0  0  0  0  0  0  0  0  0  0  0
    9.3727    0.5631    6.9022 C   0  0  2  0  0  0  0  0  0  0  0  0
   10.6870    0.9554    7.4930 N   0  0  0  0  0  0  0  0  0  0  0  0
    7.7734    2.7129    3.0897 C   0  0  1  0  0  0  0  0  0  0  0  0
    6.9088    6.5943    1.1403 C   0  0  1  0  0  0  0  0  0  0  0  0
    4.5128   -1.0449    2.6473 C   0  0  2  0  0  0  0  0  0  0  0  0
    3.6209   -0.5405    3.7059 N   0  0  0  0  0  0  0  0  0  0  0  0
    9.2593   -1.0068    6.7459 C   0  0  0  0  0  0  0  0  0  0  0  0
    7.8092    2.9392    1.5475 C   0  0  2  0  0  0  0  0  0  0  0  0
    9.1436    3.0998    1.0064 O   0  0  0  0  0  0  0  0  0  0  0  0
    7.7559    7.9163    1.2001 C   0  0  2  0  0  0  0  0  0  0  0  0
    8.3753    8.0924    2.5478 N   0  0  0  0  0  0  0  0  0  0  0  0
    4.3272   -2.5727    2.5999 C   0  0  1  0  0  0  0  0  0  0  0  0
    2.9592   -2.9000    2.3501 O   0  0  0  0  0  0  0  0  0  0  0  0
    7.8476   -1.3587    6.1409 C   0  0  2  0  0  0  0  0  0  0  0  0
    7.7006   -2.8319    5.9934 N   0  0  0  0  0  0  0  0  0  0  0  0
    6.8860    4.1501    1.4035 C   0  0  2  0  0  0  0  0  0  0  0  0
    7.6292    5.4071    1.4942 O   0  0  0  0  0  0  0  0  0  0  0  0
    6.8186    9.1619    0.8302 C   0  0  1  0  0  0  0  0  0  0  0  0
    6.5538    9.1417   -0.5904 O   0  0  0  0  0  0  0  0  0  0  0  0
    5.2571   -3.1718    1.5203 C   0  0  2  0  0  0  0  0  0  0  0  0
    5.0869   -4.5686    1.4528 O   0  0  0  0  0  0  0  0  0  0  0  0
    7.6549   -0.6634    4.7355 C   0  0  2  0  0  0  0  0  0  0  0  0
    5.8510    4.0318    2.5349 C   0  0  2  0  0  0  0  0  0  0  0  0
    6.5792    3.3731    3.5685 O   0  0  0  0  0  0  0  0  0  0  0  0
    5.4324    9.1576    1.6340 C   0  0  2  0  0  0  0  0  0  0  0  0
    5.7273    9.4313    3.0031 O   0  0  0  0  0  0  0  0  0  0  0  0
    6.7402   -2.8115    1.8669 C   0  0  2  0  0  0  0  0  0  0  0  0
    6.8890   -1.3582    1.9406 O   0  0  0  0  0  0  0  0  0  0  0  0
    7.8087    0.8720    4.8009 C   0  0  2  0  0  0  0  0  0  0  0  0
    7.7872    1.3173    3.4168 O   0  0  0  0  0  0  0  0  0  0  0  0
    4.5595    3.2384    2.1651 C   0  0  0  0  0  0  0  0  0  0  0  0
    3.9153    3.8746    1.0654 O   0  0  0  0  0  0  0  0  0  0  0  0
    4.7161    7.7609    1.4991 C   0  0  1  0  0  0  0  0  0  0  0  0
    5.6736    6.7599    2.0005 O   0  0  0  0  0  0  0  0  0  0  0  0
    7.7223   -3.3550    0.8550 C   0  0  0  0  0  0  0  0  0  0  0  0
    9.0405   -3.0804    1.2627 O   0  0  0  0  0  0  0  0  0  0  0  0
    9.1823    1.2571    5.4941 C   0  0  1  0  0  0  0  0  0  0  0  0
    9.2559    2.6718    5.6911 O   0  0  0  0  0  0  0  0  0  0  0  0
    3.3443    7.6570    2.2966 C   0  0  0  0  0  0  0  0  0  0  0  0
    2.6413    6.3483    2.1975 N   0  0  0  0  0  0  0  0  0  0  0  0
  1  2  1  1  0  0  0
  1  7  1  0  0  0  0
  1 30  1  0  0  0  0
  3  4  1  6  0  0  0
  3  9  1  0  0  0  0
  3 39  1  0  0  0  0
  5 10  1  0  0  0  0
  5 26  1  0  0  0  0
  5 32  1  6  0  0  0
  6 12  1  0  0  0  0
  6 36  1  0  0  0  0
  6 19  1  1  0  0  0
  7  8  1  1  0  0  0
  7 14  1  0  0  0  0
  9 16  1  0  0  0  0
 10 11  1  1  0  0  0
 10 18  1  0  0  0  0
 12 13  1  1  0  0  0
 12 20  1  0  0  0  0
 14 15  1  6  0  0  0
 14 22  1  0  0  0  0
 16 17  1  6  0  0  0
 16 24  1  0  0  0  0
 18 19  1  1  0  0  0
 18 25  1  0  0  0  0
 20 21  1  6  0  0  0
 20 27  1  0  0  0  0
 22 23  1  1  0  0  0
 22 29  1  0  0  0  0
 24  2  1  1  0  0  0
 24 31  1  0  0  0  0
 25 26  1  0  0  0  0
 25 33  1  6  0  0  0
 27 28  1  1  0  0  0
 27 35  1  0  0  0  0
 29 30  1  0  0  0  0
 29 37  1  6  0  0  0
 31 32  1  6  0  0  0
 31 39  1  0  0  0  0
 33 34  1  0  0  0  0
 35 36  1  0  0  0  0
 35 41  1  1  0  0  0
 37 38  1  0  0  0  0
 39 40  1  1  0  0  0
 41 42  1  0  0  0  0
M  END
>  <CHROM.1>
-177.85942758,177.71021100,-177.87102632,169.40900025,-170.22076879,-59.27232242
-176.02912687,173.70953429,-179.73174613,6.64039478,2.27458236,2.83819122
1.47069982,0.68754138,3.01662782

>  <Name>
2o3w_lig

>  <RI>
0

>  <Rbt.Current_Directory>
/home/itssahil/PROJECTS/Mol_Feturizer/New_Systems/rnas/2o3w

>  <Rbt.Executable>
rbdock ($Id: //depot/dev/client3/rdock/2013.1/src/exe/rbdock.cxx#4 $)

>  <Rbt.Library>
libRbt.so (2013.1, Build901 2013/11/27)

>  <Rbt.Parameter_File>
/export/apps/rDock/src/rDock_2013.1_src/data/scripts/dock_solv.prm

>  <Rbt.Receptor>
prm/pocket_docking_4.prm

>  <SCORE>
-13.0904

>  <SCORE.INTER>
0.0446655

>  <SCORE.INTER.CONST>
1

>  <SCORE.INTER.POLAR>
0

>  <SCORE.INTER.ROT>
9

>  <SCORE.INTER.SOLV>
12.386

>  <SCORE.INTER.VDW>
-13.6989

>  <SCORE.INTER.norm>
0.00106346

>  <SCORE.INTRA>
-13.1351

>  <SCORE.INTRA.DIHEDRAL>
-26.43

>  <SCORE.INTRA.DIHEDRAL.0>
27.8999

>  <SCORE.INTRA.POLAR>
0

>  <SCORE.INTRA.POLAR.0>
0

>  <SCORE.INTRA.REPUL>
0

>  <SCORE.INTRA.REPUL.0>
0

>  <SCORE.INTRA.SOLV>
-3.57414

>  <SCORE.INTRA.SOLV.lig_0>
-104.479

>  <SCORE.INTRA.VDW>
1.86698

>  <SCORE.INTRA.VDW.0>
-6.17816

>  <SCORE.INTRA.norm>
-0.31274

>  <SCORE.RESTR>
0

>  <SCORE.RESTR.CAVITY>
0

>  <SCORE.RESTR.norm>
0

>  <SCORE.SYSTEM>
0

>  <SCORE.SYSTEM.CONST>
0

>  <SCORE.SYSTEM.DIHEDRAL>
0

>  <SCORE.SYSTEM.SOLV>
0

>  <SCORE.SYSTEM.norm>
0

>  <SCORE.heavy>
42

>  <SCORE.norm>
-0.311677

>  <RMSD>
2.088

$$$$
2o3w_lig
 OpenBabel11021811463D
libRbt.so/2013.1/901 2013/11/27
 42 45  0  0  0  0  0  0  0  0999 V2000
    9.5325   -0.4147    3.3741 C   0  0  2  0  0  0  0  0  0  0  0  0
    9.2905    0.8785    3.9540 O   0  0  0  0  0  0  0  0  0  0  0  0
   11.6775    4.0802    5.6416 C   0  0  2  0  0  0  0  0  0  0  0  0
   12.7635    5.0770    5.8808 N   0  0  0  0  0  0  0  0  0  0  0  0
    8.8454    4.3820    1.9041 C   0  0  1  0  0  0  0  0  0  0  0  0
    6.1520    6.8930   -0.3328 C   0  0  1  0  0  0  0  0  0  0  0  0
    8.1902   -0.8869    2.7388 C   0  0  2  0  0  0  0  0  0  0  0  0
    7.5848    0.1394    1.8723 N   0  0  0  0  0  0  0  0  0  0  0  0
   12.2102    2.6001    5.8072 C   0  0  0  0  0  0  0  0  0  0  0  0
    8.9362    4.4098    0.3479 C   0  0  2  0  0  0  0  0  0  0  0  0
   10.0235    5.2187   -0.1646 O   0  0  0  0  0  0  0  0  0  0  0  0
    6.1519    8.3486   -0.9245 C   0  0  2  0  0  0  0  0  0  0  0  0
    6.9478    9.2742   -0.0640 N   0  0  0  0  0  0  0  0  0  0  0  0
    7.1365   -1.2496    3.8014 C   0  0  1  0  0  0  0  0  0  0  0  0
    5.9389   -1.7138    3.1761 O   0  0  0  0  0  0  0  0  0  0  0  0
   11.0180    1.5986    5.5658 C   0  0  2  0  0  0  0  0  0  0  0  0
   11.4812    0.1941    5.7283 N   0  0  0  0  0  0  0  0  0  0  0  0
    7.5290    4.8800   -0.0234 C   0  0  2  0  0  0  0  0  0  0  0  0
    7.4548    6.3386   -0.1117 O   0  0  0  0  0  0  0  0  0  0  0  0
    4.6404    8.8585   -1.0739 C   0  0  1  0  0  0  0  0  0  0  0  0
    4.0246    8.1746   -2.1883 O   0  0  0  0  0  0  0  0  0  0  0  0
    7.7185   -2.3103    4.7635 C   0  0  2  0  0  0  0  0  0  0  0  0
    6.7599   -2.6656    5.7327 O   0  0  0  0  0  0  0  0  0  0  0  0
   10.4116    1.7929    4.1200 C   0  0  2  0  0  0  0  0  0  0  0  0
    6.5974    4.3401    1.0748 C   0  0  2  0  0  0  0  0  0  0  0  0
    7.4371    4.3202    2.2268 O   0  0  0  0  0  0  0  0  0  0  0  0
    3.7695    8.6188    0.2496 C   0  0  2  0  0  0  0  0  0  0  0  0
    4.2610    9.5040    1.2551 O   0  0  0  0  0  0  0  0  0  0  0  0
    9.0043   -1.7322    5.4433 C   0  0  2  0  0  0  0  0  0  0  0  0
    9.9791   -1.3623    4.4173 O   0  0  0  0  0  0  0  0  0  0  0  0
    9.9203    3.2348    3.8654 C   0  0  2  0  0  0  0  0  0  0  0  0
    9.5746    3.2769    2.4536 O   0  0  0  0  0  0  0  0  0  0  0  0
    5.9973    2.9278    0.7932 C   0  0  0  0  0  0  0  0  0  0  0  0
    5.2834    2.9572   -0.4390 O   0  0  0  0  0  0  0  0  0  0  0  0
    3.8914    7.1239    0.7320 C   0  0  1  0  0  0  0  0  0  0  0  0
    5.3289    6.8764    0.9381 O   0  0  0  0  0  0  0  0  0  0  0  0
    9.6457   -2.7101    6.4004 C   0  0  0  0  0  0  0  0  0  0  0  0
   10.7798   -2.1306    6.9981 O   0  0  0  0  0  0  0  0  0  0  0  0
   11.0734    4.2735    4.1931 C   0  0  1  0  0  0  0  0  0  0  0  0
   10.5732    5.6104    4.1035 O   0  0  0  0  0  0  0  0  0  0  0  0
    3.0824    6.8051    2.0634 C   0  0  0  0  0  0  0  0  0  0  0  0
    3.6106    7.4382    3.3030 N   0  0  0  0  0  0  0  0  0  0  0  0
  1  2  1  1  0  0  0
  1  7  1  0  0  0  0
  1 30  1  0  0  0  0
  3  4  1  6  0  0  0
  3  9  1  0  0  0  0
  3 39  1  0  0  0  0
  5 10  1  0  0  0  0
  5 26  1  0  0  0  0
  5 32  1  6  0  0  0
  6 12  1  0  0  0  0
  6 36  1  0  0  0  0
  6 19  1  1  0  0  0
  7  8  1  6  0  0  0
  7 14  1  0  0  0  0
  9 16  1  0  0  0  0
 10 11  1  1  0  0  0
 10 18  1  0  0  0  0
 12 13  1  1  0  0  0
 12 20  1  0  0  0  0
 14 15  1  6  0  0  0
 14 22  1  0  0  0  0
 16 17  1  6  0  0  0
 16 24  1  0  0  0  0
 18 19  1  1  0  0  0
 18 25  1  0  0  0  0
 20 21  1  6  0  0  0
 20 27  1  0  0  0  0
 22 23  1  1  0  0  0
 22 29  1  0  0  0  0
 24  2  1  1  0  0  0
 24 31  1  0  0  0  0
 25 26  1  0  0  0  0
 25 33  1  6  0  0  0
 27 28  1  1  0  0  0
 27 35  1  0  0  0  0
 29 30  1  0  0  0  0
 29 37  1  1  0  0  0
 31 32  1  6  0  0  0
 31 39  1  0  0  0  0
 33 34  1  0  0  0  0
 35 36  1  0  0  0  0
 35 41  1  1  0  0  0
 37 38  1  0  0  0  0
 39 40  1  1  0  0  0
 41 42  1  0  0  0  0
M  END
>  <CHROM.1>
-154.92517990,164.09938973,-159.15499721,-174.45026038,-92.66698142,-57.42755405
-178.95842769,168.18801006,-68.89400209,7.89359299,3.40043992,2.60248018
1.08493111,0.47298016,2.83243752

>  <Name>
2o3w_lig

>  <RI>
0

>  <Rbt.Current_Directory>
/home/itssahil/PROJECTS/Mol_Feturizer/New_Systems/rnas/2o3w

>  <Rbt.Executable>
rbdock ($Id: //depot/dev/client3/rdock/2013.1/src/exe/rbdock.cxx#4 $)

>  <Rbt.Library>
libRbt.so (2013.1, Build901 2013/11/27)

>  <Rbt.Parameter_File>
/export/apps/rDock/src/rDock_2013.1_src/data/scripts/dock_solv.prm

>  <Rbt.Receptor>
prm/pocket_docking_3.prm

>  <SCORE>
-8.81654

>  <SCORE.INTER>
-2.38143

>  <SCORE.INTER.CONST>
1

>  <SCORE.INTER.POLAR>
-0.780388

>  <SCORE.INTER.ROT>
9

>  <SCORE.INTER.SOLV>
10.6222

>  <SCORE.INTER.VDW>
-12.127

>  <SCORE.INTER.norm>
-0.0567007

>  <SCORE.INTRA>
-6.43511

>  <SCORE.INTRA.DIHEDRAL>
-16.8011

>  <SCORE.INTRA.DIHEDRAL.0>
27.8999

>  <SCORE.INTRA.POLAR>
0

>  <SCORE.INTRA.POLAR.0>
0

>  <SCORE.INTRA.REPUL>
0

>  <SCORE.INTRA.REPUL.0>
0

>  <SCORE.INTRA.SOLV>
0.679382

>  <SCORE.INTRA.SOLV.lig_0>
-104.479

>  <SCORE.INTRA.VDW>
1.62576

>  <SCORE.INTRA.VDW.0>
-6.17816

>  <SCORE.INTRA.norm>
-0.153217

>  <SCORE.RESTR>
0

>  <SCORE.RESTR.CAVITY>
0

>  <SCORE.RESTR.norm>
0

>  <SCORE.SYSTEM>
0

>  <SCORE.SYSTEM.CONST>
0

>  <SCORE.SYSTEM.DIHEDRAL>
0

>  <SCORE.SYSTEM.SOLV>
0

>  <SCORE.SYSTEM.norm>
0

>  <SCORE.heavy>
42

>  <SCORE.norm>
-0.209918

>  <RMSD>
2.097

$$$$
2o3w_lig
 OpenBabel11021811463D
libRbt.so/2013.1/901 2013/11/27
 42 45  0  0  0  0  0  0  0  0999 V2000
    6.6926   -2.1641    3.4790 C   0  0  2  0  0  0  0  0  0  0  0  0
    6.7025   -0.9293    4.2154 O   0  0  0  0  0  0  0  0  0  0  0  0
    9.4621    1.0013    6.9455 C   0  0  2  0  0  0  0  0  0  0  0  0
   10.7006    1.5623    7.5633 N   0  0  0  0  0  0  0  0  0  0  0  0
    7.8267    2.9338    3.0907 C   0  0  1  0  0  0  0  0  0  0  0  0
    6.9213    6.7837    1.1132 C   0  0  1  0  0  0  0  0  0  0  0  0
    5.4624   -2.1144    2.5238 C   0  0  2  0  0  0  0  0  0  0  0  0
    5.4021   -0.8640    1.7469 N   0  0  0  0  0  0  0  0  0  0  0  0
    9.5581   -0.5700    6.7921 C   0  0  0  0  0  0  0  0  0  0  0  0
    7.9210    3.1563    1.5504 C   0  0  2  0  0  0  0  0  0  0  0  0
    9.2716    3.3553    1.0653 O   0  0  0  0  0  0  0  0  0  0  0  0
    7.6974    8.1392    1.2834 C   0  0  2  0  0  0  0  0  0  0  0  0
    8.2062    8.2910    2.6794 N   0  0  0  0  0  0  0  0  0  0  0  0
    4.1279   -2.2310    3.2831 C   0  0  1  0  0  0  0  0  0  0  0  0
    3.0319   -2.2209    2.3669 O   0  0  0  0  0  0  0  0  0  0  0  0
    8.2182   -1.1036    6.1579 C   0  0  2  0  0  0  0  0  0  0  0  0
    8.2681   -2.5835    6.0122 N   0  0  0  0  0  0  0  0  0  0  0  0
    6.9688    4.3384    1.3623 C   0  0  2  0  0  0  0  0  0  0  0  0
    7.6696    5.6175    1.4788 O   0  0  0  0  0  0  0  0  0  0  0  0
    6.7315    9.3547    0.8876 C   0  0  1  0  0  0  0  0  0  0  0  0
    6.5738    9.3774   -0.5489 O   0  0  0  0  0  0  0  0  0  0  0  0
    4.1339   -3.5162    4.1418 C   0  0  2  0  0  0  0  0  0  0  0  0
    2.9120   -3.6464    4.8306 O   0  0  0  0  0  0  0  0  0  0  0  0
    7.9671   -0.4401    4.7463 C   0  0  2  0  0  0  0  0  0  0  0  0
    5.8909    4.1925    2.4496 C   0  0  2  0  0  0  0  0  0  0  0  0
    6.5941    3.5592    3.5158 O   0  0  0  0  0  0  0  0  0  0  0  0
    5.2914    9.2569    1.5834 C   0  0  2  0  0  0  0  0  0  0  0  0
    5.4708    9.4905    2.9797 O   0  0  0  0  0  0  0  0  0  0  0  0
    5.3316   -3.4528    5.1473 C   0  0  2  0  0  0  0  0  0  0  0  0
    6.5863   -3.3082    4.4093 O   0  0  0  0  0  0  0  0  0  0  0  0
    7.9175    1.1022    4.8098 C   0  0  2  0  0  0  0  0  0  0  0  0
    7.8685    1.5402    3.4241 O   0  0  0  0  0  0  0  0  0  0  0  0
    4.6405    3.3595    2.0291 C   0  0  0  0  0  0  0  0  0  0  0  0
    3.6260    3.5017    3.0187 O   0  0  0  0  0  0  0  0  0  0  0  0
    4.6547    7.8355    1.3458 C   0  0  1  0  0  0  0  0  0  0  0  0
    5.6193    6.8600    1.8827 O   0  0  0  0  0  0  0  0  0  0  0  0
    5.4178   -4.6785    6.0270 C   0  0  0  0  0  0  0  0  0  0  0  0
    5.5852   -5.8311    5.2378 O   0  0  0  0  0  0  0  0  0  0  0  0
    9.2135    1.6638    5.5314 C   0  0  1  0  0  0  0  0  0  0  0  0
    9.0975    3.0761    5.7252 O   0  0  0  0  0  0  0  0  0  0  0  0
    3.2342    7.6391    2.0330 C   0  0  0  0  0  0  0  0  0  0  0  0
    2.1609    8.5576    1.5629 N   0  0  0  0  0  0  0  0  0  0  0  0
  1  2  1  1  0  0  0
  1  7  1  0  0  0  0
  1 30  1  0  0  0  0
  3  4  1  6  0  0  0
  3  9  1  0  0  0  0
  3 39  1  0  0  0  0
  5 10  1  0  0  0  0
  5 26  1  0  0  0  0
  5 32  1  6  0  0  0
  6 12  1  0  0  0  0
  6 36  1  0  0  0  0
  6 19  1  1  0  0  0
  7  8  1  1  0  0  0
  7 14  1  0  0  0  0
  9 16  1  0  0  0  0
 10 11  1  1  0  0  0
 10 18  1  0  0  0  0
 12 13  1  1  0  0  0
 12 20  1  0  0  0  0
 14 15  1  6  0  0  0
 14 22  1  0  0  0  0
 16 17  1  6  0  0  0
 16 24  1  0  0  0  0
 18 19  1  1  0  0  0
 18 25  1  0  0  0  0
 20 21  1  6  0  0  0
 20 27  1  0  0  0  0
 22 23  1  1  0  0  0
 22 29  1  0  0  0  0
 24  2  1  1  0  0  0
 24 31  1  0  0  0  0
 25 26  1  0  0  0  0
 25 33  1  6  0  0  0
 27 28  1  1  0  0  0
 27 35  1  0  0  0  0
 29 30  1  0  0  0  0
 29 37  1  6  0  0  0
 31 32  1  6  0  0  0
 31 39  1  0  0  0  0
 33 34  1  0  0  0  0
 35 36  1  0  0  0  0
 35 41  1  1  0  0  0
 37 38  1  0  0  0  0
 39 40  1  1  0  0  0
 41 42  1  0  0  0  0
M  END
>  <CHROM.1>
-154.67986838,174.35884171,178.66523248,170.52748712,-86.04472777,-169.54224482
59.85028392,-179.40352885,61.49000432,6.46837845,2.27569592,3.36105113,1.55369000
0.46741393,2.84562837

>  <Name>
2o3w_lig

>  <RI>
0

>  <Rbt.Current_Directory>
/home/itssahil/PROJECTS/Mol_Feturizer/New_Systems/rnas/2o3w

>  <Rbt.Executable>
rbdock ($Id: //depot/dev/client3/rdock/2013.1/src/exe/rbdock.cxx#4 $)

>  <Rbt.Library>
libRbt.so (2013.1, Build901 2013/11/27)

>  <Rbt.Parameter_File>
/export/apps/rDock/src/rDock_2013.1_src/data/scripts/dock_solv.prm

>  <Rbt.Receptor>
prm/pocket_docking_3.prm

>  <SCORE>
-8.55946

>  <SCORE.INTER>
0.114599

>  <SCORE.INTER.CONST>
1

>  <SCORE.INTER.POLAR>
0

>  <SCORE.INTER.ROT>
9

>  <SCORE.INTER.SOLV>
13.5793

>  <SCORE.INTER.VDW>
-14.05

>  <SCORE.INTER.norm>
0.00272855

>  <SCORE.INTRA>
-8.67406

>  <SCORE.INTRA.DIHEDRAL>
-21.2145

>  <SCORE.INTRA.DIHEDRAL.0>
27.8999

>  <SCORE.INTRA.POLAR>
0

>  <SCORE.INTRA.POLAR.0>
0

>  <SCORE.INTRA.REPUL>
0

>  <SCORE.INTRA.REPUL.0>
0

>  <SCORE.INTRA.SOLV>
-2.00572

>  <SCORE.INTRA.SOLV.lig_0>
-104.479

>  <SCORE.INTRA.VDW>
2.93605

>  <SCORE.INTRA.VDW.0>
-6.17816

>  <SCORE.INTRA.norm>
-0.206525

>  <SCORE.RESTR>
0

>  <SCORE.RESTR.CAVITY>
0

>  <SCORE.RESTR.norm>
0

>  <SCORE.SYSTEM>
0

>  <SCORE.SYSTEM.CONST>
0

>  <SCORE.SYSTEM.DIHEDRAL>
0

>  <SCORE.SYSTEM.SOLV>
0

>  <SCORE.SYSTEM.norm>
0

>  <SCORE.heavy>
42

>  <SCORE.norm>
-0.203797

>  <RMSD>
2.120

$$$$
2o3w_lig
 OpenBabel11021811463D
libRbt.so/2013.1/901 2013/11/27
 42 45  0  0  0  0  0  0  0  0999 V2000
    8.9227   -0.8258    3.1696 C   0  0  2  0  0  0  0  0  0  0  0  0
    8.7793    0.4213    3.8706 O   0  0  0  0  0  0  0  0  0  0  0  0
   11.3162    3.2442    5.9661 C   0  0  2  0  0  0  0  0  0  0  0  0
   12.4810    4.0827    6.3792 N   0  0  0  0  0  0  0  0  0  0  0  0
    9.1642    4.0222    1.9003 C   0  0  1  0  0  0  0  0  0  0  0  0
    7.2383    7.0625   -0.4696 C   0  0  1  0  0  0  0  0  0  0  0  0
    7.5903   -1.0709    2.3997 C   0  0  2  0  0  0  0  0  0  0  0  0
    7.1698    0.1017    1.6131 N   0  0  0  0  0  0  0  0  0  0  0  0
   11.6257    1.7035    6.1459 C   0  0  0  0  0  0  0  0  0  0  0  0
    9.2433    3.9484    0.3450 C   0  0  2  0  0  0  0  0  0  0  0  0
   10.5051    4.4027   -0.2031 O   0  0  0  0  0  0  0  0  0  0  0  0
    7.4352    8.0215   -1.6986 C   0  0  2  0  0  0  0  0  0  0  0  0
    8.6872    8.8231   -1.5544 N   0  0  0  0  0  0  0  0  0  0  0  0
    6.4240   -1.4140    3.3447 C   0  0  1  0  0  0  0  0  0  0  0  0
    5.2350   -1.6691    2.5951 O   0  0  0  0  0  0  0  0  0  0  0  0
   10.3563    0.8746    5.7167 C   0  0  2  0  0  0  0  0  0  0  0  0
   10.6076   -0.5819    5.8871 N   0  0  0  0  0  0  0  0  0  0  0  0
    8.0147    4.7672   -0.0542 C   0  0  2  0  0  0  0  0  0  0  0  0
    8.3417    6.1843   -0.2149 O   0  0  0  0  0  0  0  0  0  0  0  0
    6.1545    8.9742   -1.8363 C   0  0  1  0  0  0  0  0  0  0  0  0
    5.0472    8.1978   -2.3462 O   0  0  0  0  0  0  0  0  0  0  0  0
    6.8102   -2.6275    4.2208 C   0  0  2  0  0  0  0  0  0  0  0  0
    5.7462   -2.9648    5.0803 O   0  0  0  0  0  0  0  0  0  0  0  0
    9.9774    1.1748    4.2127 C   0  0  2  0  0  0  0  0  0  0  0  0
    6.9823    4.5572    1.0662 C   0  0  2  0  0  0  0  0  0  0  0  0
    7.7961    4.3642    2.2207 O   0  0  0  0  0  0  0  0  0  0  0  0
    5.7358    9.6579   -0.4489 C   0  0  2  0  0  0  0  0  0  0  0  0
    6.7489   10.6048   -0.1121 O   0  0  0  0  0  0  0  0  0  0  0  0
    8.0948   -2.2756    5.0427 C   0  0  2  0  0  0  0  0  0  0  0  0
    9.1809   -1.9200    4.1297 O   0  0  0  0  0  0  0  0  0  0  0  0
    9.7156    2.6738    3.9488 C   0  0  2  0  0  0  0  0  0  0  0  0
    9.5687    2.7878    2.5066 O   0  0  0  0  0  0  0  0  0  0  0  0
    6.0157    3.3512    0.8529 C   0  0  0  0  0  0  0  0  0  0  0  0
    5.2594    3.5591   -0.3361 O   0  0  0  0  0  0  0  0  0  0  0  0
    5.6028    8.5743    0.6869 C   0  0  1  0  0  0  0  0  0  0  0  0
    6.9057    7.8900    0.7542 O   0  0  0  0  0  0  0  0  0  0  0  0
    8.5493   -3.4138    5.9269 C   0  0  0  0  0  0  0  0  0  0  0  0
    9.6283   -3.0025    6.7304 O   0  0  0  0  0  0  0  0  0  0  0  0
   10.9399    3.5432    4.4596 C   0  0  1  0  0  0  0  0  0  0  0  0
   10.6338    4.9363    4.3543 O   0  0  0  0  0  0  0  0  0  0  0  0
    5.2216    9.1716    2.1105 C   0  0  0  0  0  0  0  0  0  0  0  0
    5.0164    8.1704    3.1931 N   0  0  0  0  0  0  0  0  0  0  0  0
  1  2  1  1  0  0  0
  1  7  1  0  0  0  0
  1 30  1  0  0  0  0
  3  4  1  6  0  0  0
  3  9  1  0  0  0  0
  3 39  1  0  0  0  0
  5 10  1  0  0  0  0
  5 26  1  0  0  0  0
  5 32  1  1  0  0  0
  6 12  1  0  0  0  0
  6 36  1  0  0  0  0
  6 19  1  1  0  0  0
  7  8  1  1  0  0  0
  7 14  1  0  0  0  0
  9 16  1  0  0  0  0
 10 11  1  6  0  0  0
 10 18  1  0  0  0  0
 12 13  1  1  0  0  0
 12 20  1  0  0  0  0
 14 15  1  6  0  0  0
 14 22  1  0  0  0  0
 16 17  1  6  0  0  0
 16 24  1  0  0  0  0
 18 19  1  1  0  0  0
 18 25  1  0  0  0  0
 20 21  1  1  0  0  0
 20 27  1  0  0  0  0
 22 23  1  1  0  0  0
 22 29  1  0  0  0  0
 24  2  1  1  0  0  0
 24 31  1  0  0  0  0
 25 26  1  0  0  0  0
 25 33  1  6  0  0  0
 27 28  1  1  0  0  0
 27 35  1  0  0  0  0
 29 30  1  0  0  0  0
 29 37  1  6  0  0  0
 31 32  1  6  0  0  0
 31 39  1  0  0  0  0
 33 34  1  0  0  0  0
 35 36  1  0  0  0  0
 35 41  1  1  0  0  0
 37 38  1  0  0  0  0
 39 40  1  1  0  0  0
 41 42  1  0  0  0  0
M  END
>  <CHROM.1>
-155.11350919,173.14529493,-129.71304816,-174.52577968,-98.32604675,-61.30616925
-174.58995921,172.90720697,176.89214687,8.08984309,3.27945654,2.40865277
1.33264108,0.63691624,2.78378708

>  <Name>
2o3w_lig

>  <RI>
0

>  <Rbt.Current_Directory>
/home/itssahil/PROJECTS/Mol_Feturizer/New_Systems/rnas/2o3w

>  <Rbt.Executable>
rbdock ($Id: //depot/dev/client3/rdock/2013.1/src/exe/rbdock.cxx#4 $)

>  <Rbt.Library>
libRbt.so (2013.1, Build901 2013/11/27)

>  <Rbt.Parameter_File>
/export/apps/rDock/src/rDock_2013.1_src/data/scripts/dock_solv.prm

>  <Rbt.Receptor>
prm/pocket_docking_3.prm

>  <SCORE>
-14.7522

>  <SCORE.INTER>
-10.0065

>  <SCORE.INTER.CONST>
1

>  <SCORE.INTER.POLAR>
-2.00035

>  <SCORE.INTER.ROT>
9

>  <SCORE.INTER.SOLV>
15.8735

>  <SCORE.INTER.VDW>
-14.8943

>  <SCORE.INTER.norm>
-0.238249

>  <SCORE.INTRA>
-5.39449

>  <SCORE.INTRA.DIHEDRAL>
-12.624

>  <SCORE.INTRA.DIHEDRAL.0>
27.8999

>  <SCORE.INTRA.POLAR>
0

>  <SCORE.INTRA.POLAR.0>
0

>  <SCORE.INTRA.REPUL>
0

>  <SCORE.INTRA.REPUL.0>
0

>  <SCORE.INTRA.SOLV>
-1.38831

>  <SCORE.INTRA.SOLV.lig_0>
-104.479

>  <SCORE.INTRA.VDW>
1.61167

>  <SCORE.INTRA.VDW.0>
-6.17816

>  <SCORE.INTRA.norm>
-0.12844

>  <SCORE.RESTR>
0.648749

>  <SCORE.RESTR.CAVITY>
0.648749

>  <SCORE.RESTR.norm>
0.0154464

>  <SCORE.SYSTEM>
0

>  <SCORE.SYSTEM.CONST>
0

>  <SCORE.SYSTEM.DIHEDRAL>
0

>  <SCORE.SYSTEM.SOLV>
0

>  <SCORE.SYSTEM.norm>
0

>  <SCORE.heavy>
42

>  <SCORE.norm>
-0.351243

>  <RMSD>
2.129

$$$$
2o3w_lig
 OpenBabel11021811463D
libRbt.so/2013.1/901 2013/11/27
 42 45  0  0  0  0  0  0  0  0999 V2000
    7.8124   -1.2655    3.1491 C   0  0  2  0  0  0  0  0  0  0  0  0
    7.8121   -0.3135    4.2265 O   0  0  0  0  0  0  0  0  0  0  0  0
   10.7530    1.9396    6.4784 C   0  0  2  0  0  0  0  0  0  0  0  0
   11.9561    2.7414    6.8527 N   0  0  0  0  0  0  0  0  0  0  0  0
    7.3151    3.6851    3.7556 C   0  0  1  0  0  0  0  0  0  0  0  0
    5.2441    7.3755    2.1735 C   0  0  1  0  0  0  0  0  0  0  0  0
    6.3272   -1.4757    2.7272 C   0  0  2  0  0  0  0  0  0  0  0  0
    5.6190   -0.2032    2.5040 N   0  0  0  0  0  0  0  0  0  0  0  0
   11.1589    0.4950    5.9781 C   0  0  0  0  0  0  0  0  0  0  0  0
    7.3806    4.4667    2.4081 C   0  0  2  0  0  0  0  0  0  0  0  0
    8.4473    5.4451    2.3457 O   0  0  0  0  0  0  0  0  0  0  0  0
    3.6802    7.2659    2.0677 C   0  0  2  0  0  0  0  0  0  0  0  0
    3.2737    5.9293    1.5393 N   0  0  0  0  0  0  0  0  0  0  0  0
    5.5232   -2.2523    3.7862 C   0  0  1  0  0  0  0  0  0  0  0  0
    4.1811   -2.4560    3.3411 O   0  0  0  0  0  0  0  0  0  0  0  0
    9.8510   -0.3075    5.6208 C   0  0  2  0  0  0  0  0  0  0  0  0
   10.1955   -1.6793    5.1592 N   0  0  0  0  0  0  0  0  0  0  0  0
    5.9607    5.0285    2.3213 C   0  0  2  0  0  0  0  0  0  0  0  0
    5.8633    6.3446    2.9530 O   0  0  0  0  0  0  0  0  0  0  0  0
    3.1296    8.4457    1.1340 C   0  0  1  0  0  0  0  0  0  0  0  0
    3.2079    9.6922    1.8612 O   0  0  0  0  0  0  0  0  0  0  0  0
    6.2281   -3.5947    4.0866 C   0  0  2  0  0  0  0  0  0  0  0  0
    5.4954   -4.3254    5.0423 O   0  0  0  0  0  0  0  0  0  0  0  0
    9.0290    0.4391    4.4971 C   0  0  2  0  0  0  0  0  0  0  0  0
    5.0551    4.0040    3.0255 C   0  0  2  0  0  0  0  0  0  0  0  0
    5.9133    3.4450    4.0171 O   0  0  0  0  0  0  0  0  0  0  0  0
    3.9374    8.5771   -0.2436 C   0  0  2  0  0  0  0  0  0  0  0  0
    3.6278    7.4312   -1.0357 O   0  0  0  0  0  0  0  0  0  0  0  0
    7.6771   -3.3061    4.6030 C   0  0  2  0  0  0  0  0  0  0  0  0
    8.4137   -2.5392    3.5984 O   0  0  0  0  0  0  0  0  0  0  0  0
    8.6449    1.8813    4.8943 C   0  0  2  0  0  0  0  0  0  0  0  0
    8.0695    2.4676    3.6944 O   0  0  0  0  0  0  0  0  0  0  0  0
    4.4717    2.8938    2.0975 C   0  0  0  0  0  0  0  0  0  0  0  0
    5.5377    2.2528    1.4034 O   0  0  0  0  0  0  0  0  0  0  0  0
    5.4878    8.6509    0.0261 C   0  0  1  0  0  0  0  0  0  0  0  0
    5.8307    7.4318    0.7787 O   0  0  0  0  0  0  0  0  0  0  0  0
    8.4450   -4.5693    4.9167 C   0  0  0  0  0  0  0  0  0  0  0  0
    9.7382   -4.2508    5.3699 O   0  0  0  0  0  0  0  0  0  0  0  0
    9.9328    2.6863    5.3513 C   0  0  1  0  0  0  0  0  0  0  0  0
    9.5579    3.9688    5.8614 O   0  0  0  0  0  0  0  0  0  0  0  0
    6.3707    8.7492   -1.2928 C   0  0  0  0  0  0  0  0  0  0  0  0
    6.9086   10.1016   -1.6063 N   0  0  0  0  0  0  0  0  0  0  0  0
  1  2  1  1  0  0  0
  1  7  1  0  0  0  0
  1 30  1  0  0  0  0
  3  4  1  6  0  0  0
  3  9  1  0  0  0  0
  3 39  1  0  0  0  0
  5 10  1  0  0  0  0
  5 26  1  0  0  0  0
  5 32  1  6  0  0  0
  6 12  1  0  0  0  0
  6 36  1  0  0  0  0
  6 19  1  6  0  0  0
  7  8  1  1  0  0  0
  7 14  1  0  0  0  0
  9 16  1  0  0  0  0
 10 11  1  1  0  0  0
 10 18  1  0  0  0  0
 12 13  1  6  0  0  0
 12 20  1  0  0  0  0
 14 15  1  6  0  0  0
 14 22  1  0  0  0  0
 16 17  1  6  0  0  0
 16 24  1  0  0  0  0
 18 19  1  1  0  0  0
 18 25  1  0  0  0  0
 20 21  1  1  0  0  0
 20 27  1  0  0  0  0
 22 23  1  1  0  0  0
 22 29  1  0  0  0  0
 24  2  1  1  0  0  0
 24 31  1  0  0  0  0
 25 26  1  0  0  0  0
 25 33  1  6  0  0  0
 27 28  1  6  0  0  0
 27 35  1  0  0  0  0
 29 30  1  0  0  0  0
 29 37  1  6  0  0  0
 31 32  1  6  0  0  0
 31 39  1  0  0  0  0
 33 34  1  0  0  0  0
 35 36  1  0  0  0  0
 35 41  1  6  0  0  0
 37 38  1  0  0  0  0
 39 40  1  1  0  0  0
 41 42  1  0  0  0  0
M  END
>  <CHROM.1>
-157.76164463,152.88473162,75.13958446,129.78315402,-94.47250031,53.97533103
179.75957154,165.22523333,103.07240149,6.87001181,2.63832949,3.12499009,1.22378052
0.51963477,2.93438878

>  <Name>
2o3w_lig

>  <RI>
0

>  <Rbt.Current_Directory>
/home/itssahil/PROJECTS/Mol_Feturizer/New_Systems/rnas/2o3w

>  <Rbt.Executable>
rbdock ($Id: //depot/dev/client3/rdock/2013.1/src/exe/rbdock.cxx#4 $)

>  <Rbt.Library>
libRbt.so (2013.1, Build901 2013/11/27)

>  <Rbt.Parameter_File>
/export/apps/rDock/src/rDock_2013.1_src/data/scripts/dock_solv.prm

>  <Rbt.Receptor>
prm/pocket_docking_2.prm

>  <SCORE>
2.07899

>  <SCORE.INTER>
1.4771

>  <SCORE.INTER.CONST>
1

>  <SCORE.INTER.POLAR>
-1

>  <SCORE.INTER.ROT>
9

>  <SCORE.INTER.SOLV>
6.88675

>  <SCORE.INTER.VDW>
-7.57752

>  <SCORE.INTER.norm>
0.035169

>  <SCORE.INTRA>
0.59347

>  <SCORE.INTRA.DIHEDRAL>
-4.88183

>  <SCORE.INTRA.DIHEDRAL.0>
27.8999

>  <SCORE.INTRA.POLAR>
0

>  <SCORE.INTRA.POLAR.0>
0

>  <SCORE.INTRA.REPUL>
0

>  <SCORE.INTRA.REPUL.0>
0

>  <SCORE.INTRA.SOLV>
3.34809

>  <SCORE.INTRA.SOLV.lig_0>
-104.479

>  <SCORE.INTRA.VDW>
1.36034

>  <SCORE.INTRA.VDW.0>
-6.17816

>  <SCORE.INTRA.norm>
0.0141302

>  <SCORE.RESTR>
0.00842127

>  <SCORE.RESTR.CAVITY>
0.00842127

>  <SCORE.RESTR.norm>
0.000200506

>  <SCORE.SYSTEM>
0

>  <SCORE.SYSTEM.CONST>
0

>  <SCORE.SYSTEM.DIHEDRAL>
0

>  <SCORE.SYSTEM.SOLV>
0

>  <SCORE.SYSTEM.norm>
0

>  <SCORE.heavy>
42

>  <SCORE.norm>
0.0494997

>  <RMSD>
2.152

$$$$
2o3w_lig
 OpenBabel11021811463D
libRbt.so/2013.1/901 2013/11/27
 42 45  0  0  0  0  0  0  0  0999 V2000
   10.2264   -0.1257    3.8989 C   0  0  2  0  0  0  0  0  0  0  0  0
   10.0276    1.1699    4.4899 O   0  0  0  0  0  0  0  0  0  0  0  0
   12.4453    3.6809    7.0678 C   0  0  2  0  0  0  0  0  0  0  0  0
   13.5702    4.4900    7.6250 N   0  0  0  0  0  0  0  0  0  0  0  0
    9.8593    4.9245    3.2365 C   0  0  1  0  0  0  0  0  0  0  0  0
    7.6095    7.9402    0.8518 C   0  0  1  0  0  0  0  0  0  0  0  0
    9.0839   -0.3318    2.8595 C   0  0  2  0  0  0  0  0  0  0  0  0
    8.9412    0.8136    1.9440 N   0  0  0  0  0  0  0  0  0  0  0  0
   12.8409    2.1542    6.9474 C   0  0  0  0  0  0  0  0  0  0  0  0
   10.3666    5.5895    1.9208 C   0  0  2  0  0  0  0  0  0  0  0  0
   11.3119    6.6671    2.1316 O   0  0  0  0  0  0  0  0  0  0  0  0
    6.9523    9.2185    1.4866 C   0  0  2  0  0  0  0  0  0  0  0  0
    6.4102    8.9203    2.8461 N   0  0  0  0  0  0  0  0  0  0  0  0
    7.7135   -0.5381    3.5307 C   0  0  1  0  0  0  0  0  0  0  0  0
    6.7051   -0.7622    2.5440 O   0  0  0  0  0  0  0  0  0  0  0  0
   11.6108    1.3517    6.3771 C   0  0  2  0  0  0  0  0  0  0  0  0
   11.9436   -0.0940    6.2640 N   0  0  0  0  0  0  0  0  0  0  0  0
    9.0456    5.9872    1.2604 C   0  0  2  0  0  0  0  0  0  0  0  0
    8.6325    7.3350    1.6523 O   0  0  0  0  0  0  0  0  0  0  0  0
    5.8001    9.7592    0.5135 C   0  0  1  0  0  0  0  0  0  0  0  0
    6.4144   10.3832   -0.6363 O   0  0  0  0  0  0  0  0  0  0  0  0
    7.7997   -1.7163    4.5274 C   0  0  2  0  0  0  0  0  0  0  0  0
    6.5482   -1.9289    5.1383 O   0  0  0  0  0  0  0  0  0  0  0  0
   11.1891    1.9110    4.9610 C   0  0  2  0  0  0  0  0  0  0  0  0
    8.0148    4.9366    1.7066 C   0  0  2  0  0  0  0  0  0  0  0  0
    8.4800    4.5597    3.0005 O   0  0  0  0  0  0  0  0  0  0  0  0
    4.8033    8.6027    0.0270 C   0  0  2  0  0  0  0  0  0  0  0  0
    4.0376    8.1898    1.1582 O   0  0  0  0  0  0  0  0  0  0  0  0
    8.8924   -1.3975    5.6016 C   0  0  2  0  0  0  0  0  0  0  0  0
   10.1787   -1.1715    4.9428 O   0  0  0  0  0  0  0  0  0  0  0  0
   10.8418    3.4156    4.9905 C   0  0  2  0  0  0  0  0  0  0  0  0
   10.6629    3.7937    3.5978 O   0  0  0  0  0  0  0  0  0  0  0  0
    7.8933    3.6946    0.7702 C   0  0  0  0  0  0  0  0  0  0  0  0
    7.6371    4.1323   -0.5608 O   0  0  0  0  0  0  0  0  0  0  0  0
    5.6105    7.3835   -0.5595 C   0  0  1  0  0  0  0  0  0  0  0  0
    6.5219    6.9432    0.5109 O   0  0  0  0  0  0  0  0  0  0  0  0
    9.0491   -2.5047    6.6181 C   0  0  0  0  0  0  0  0  0  0  0  0
    7.8857   -2.6114    7.4020 O   0  0  0  0  0  0  0  0  0  0  0  0
   12.0262    4.2396    5.6491 C   0  0  1  0  0  0  0  0  0  0  0  0
   11.6433    5.6077    5.8143 O   0  0  0  0  0  0  0  0  0  0  0  0
    4.6978    6.1721   -1.0371 C   0  0  0  0  0  0  0  0  0  0  0  0
    3.7853    5.6093   -0.0040 N   0  0  0  0  0  0  0  0  0  0  0  0
  1  2  1  1  0  0  0
  1  7  1  0  0  0  0
  1 30  1  0  0  0  0
  3  4  1  6  0  0  0
  3  9  1  0  0  0  0
  3 39  1  0  0  0  0
  5 10  1  0  0  0  0
  5 26  1  0  0  0  0
  5 32  1  6  0  0  0
  6 12  1  0  0  0  0
  6 36  1  0  0  0  0
  6 19  1  1  0  0  0
  7  8  1  6  0  0  0
  7 14  1  0  0  0  0
  9 16  1  0  0  0  0
 10 11  1  1  0  0  0
 10 18  1  0  0  0  0
 12 13  1  1  0  0  0
 12 20  1  0  0  0  0
 14 15  1  6  0  0  0
 14 22  1  0  0  0  0
 16 17  1  6  0  0  0
 16 24  1  0  0  0  0
 18 19  1  1  0  0  0
 18 25  1  0  0  0  0
 20 21  1  6  0  0  0
 20 27  1  0  0  0  0
 22 23  1  1  0  0  0
 22 29  1  0  0  0  0
 24  2  1  1  0  0  0
 24 31  1  0  0  0  0
 25 26  1  0  0  0  0
 25 33  1  6  0  0  0
 27 28  1  1  0  0  0
 27 35  1  0  0  0  0
 29 30  1  0  0  0  0
 29 37  1  1  0  0  0
 31 32  1  6  0  0  0
 31 39  1  0  0  0  0
 33 34  1  0  0  0  0
 35 36  1  0  0  0  0
 35 41  1  1  0  0  0
 37 38  1  0  0  0  0
 39 40  1  1  0  0  0
 41 42  1  0  0  0  0
M  END
>  <CHROM.1>
-150.18988075,149.95347110,166.08625279,164.78786320,-80.09505830,-54.26622639
-66.68171535,155.82497396,-56.43785668,8.68259994,3.71732551,3.15817241,1.12132543
0.60760634,2.84628732

>  <Name>
2o3w_lig

>  <RI>
0

>  <Rbt.Current_Directory>
/home/itssahil/PROJECTS/Mol_Feturizer/New_Systems/rnas/2o3w

>  <Rbt.Executable>
rbdock ($Id: //depot/dev/client3/rdock/2013.1/src/exe/rbdock.cxx#4 $)

>  <Rbt.Library>
libRbt.so (2013.1, Build901 2013/11/27)

>  <Rbt.Parameter_File>
/export/apps/rDock/src/rDock_2013.1_src/data/scripts/dock_solv.prm

>  <Rbt.Receptor>
prm/pocket_docking_3.prm

>  <SCORE>
-10.5162

>  <SCORE.INTER>
-6.26983

>  <SCORE.INTER.CONST>
1

>  <SCORE.INTER.POLAR>
-1

>  <SCORE.INTER.ROT>
9

>  <SCORE.INTER.SOLV>
11.4141

>  <SCORE.INTER.VDW>
-14.2513

>  <SCORE.INTER.norm>
-0.149282

>  <SCORE.INTRA>
-4.34436

>  <SCORE.INTRA.DIHEDRAL>
-13.9738

>  <SCORE.INTRA.DIHEDRAL.0>
27.8999

>  <SCORE.INTRA.POLAR>
0

>  <SCORE.INTRA.POLAR.0>
0

>  <SCORE.INTRA.REPUL>
0

>  <SCORE.INTRA.REPUL.0>
0

>  <SCORE.INTRA.SOLV>
1.11168

>  <SCORE.INTRA.SOLV.lig_0>
-104.479

>  <SCORE.INTRA.VDW>
2.08672

>  <SCORE.INTRA.VDW.0>
-6.17816

>  <SCORE.INTRA.norm>
-0.103437

>  <SCORE.RESTR>
0.0979663

>  <SCORE.RESTR.CAVITY>
0.0979663

>  <SCORE.RESTR.norm>
0.00233253

>  <SCORE.SYSTEM>
0

>  <SCORE.SYSTEM.CONST>
0

>  <SCORE.SYSTEM.DIHEDRAL>
0

>  <SCORE.SYSTEM.SOLV>
0

>  <SCORE.SYSTEM.norm>
0

>  <SCORE.heavy>
42

>  <SCORE.norm>
-0.250386

>  <RMSD>
2.160

$$$$
2o3w_lig
 OpenBabel11021811463D
libRbt.so/2013.1/901 2013/11/27
 42 45  0  0  0  0  0  0  0  0999 V2000
    7.4676    1.5512    3.4764 C   0  0  2  0  0  0  0  0  0  0  0  0
    8.0692    1.7763    4.7627 O   0  0  0  0  0  0  0  0  0  0  0  0
   11.6149    3.9852    5.9225 C   0  0  2  0  0  0  0  0  0  0  0  0
   13.0249    4.4649    6.0334 N   0  0  0  0  0  0  0  0  0  0  0  0
    8.8678    4.5471    2.0440 C   0  0  1  0  0  0  0  0  0  0  0  0
    6.8096    7.2156   -0.4636 C   0  0  1  0  0  0  0  0  0  0  0  0
    5.9428    1.3399    3.7179 C   0  0  2  0  0  0  0  0  0  0  0  0
    5.3546    2.3931    4.5637 N   0  0  0  0  0  0  0  0  0  0  0  0
   11.4718    2.4985    6.4431 C   0  0  0  0  0  0  0  0  0  0  0  0
    8.9316    4.2519    0.5144 C   0  0  2  0  0  0  0  0  0  0  0  0
   10.1710    4.6623   -0.1137 O   0  0  0  0  0  0  0  0  0  0  0  0
    6.8655    8.2134   -1.6761 C   0  0  2  0  0  0  0  0  0  0  0  0
    8.1111    9.0365   -1.6325 N   0  0  0  0  0  0  0  0  0  0  0  0
    5.6410   -0.0038    4.4067 C   0  0  1  0  0  0  0  0  0  0  0  0
    4.2320   -0.1726    4.5719 O   0  0  0  0  0  0  0  0  0  0  0  0
    9.9638    2.0584    6.3222 C   0  0  2  0  0  0  0  0  0  0  0  0
    9.7896    0.6665    6.8180 N   0  0  0  0  0  0  0  0  0  0  0  0
    7.6715    4.9650    0.0215 C   0  0  2  0  0  0  0  0  0  0  0  0
    7.9484    6.3536   -0.3469 O   0  0  0  0  0  0  0  0  0  0  0  0
    5.5606    9.1428   -1.6566 C   0  0  1  0  0  0  0  0  0  0  0  0
    4.4220    8.3584   -2.0775 O   0  0  0  0  0  0  0  0  0  0  0  0
    6.2543   -1.1564    3.5794 C   0  0  2  0  0  0  0  0  0  0  0  0
    5.9724   -2.3952    4.1879 O   0  0  0  0  0  0  0  0  0  0  0  0
    9.4747    2.1522    4.8229 C   0  0  2  0  0  0  0  0  0  0  0  0
    6.6597    4.8861    1.1770 C   0  0  2  0  0  0  0  0  0  0  0  0
    7.4927    4.8879    2.3340 O   0  0  0  0  0  0  0  0  0  0  0  0
    5.2705    9.7775   -0.2142 C   0  0  2  0  0  0  0  0  0  0  0  0
    6.2951   10.7351    0.0493 O   0  0  0  0  0  0  0  0  0  0  0  0
    7.7995   -0.9359    3.4639 C   0  0  2  0  0  0  0  0  0  0  0  0
    8.0662    0.3593    2.8386 O   0  0  0  0  0  0  0  0  0  0  0  0
    9.6379    3.5677    4.2272 C   0  0  2  0  0  0  0  0  0  0  0  0
    9.3209    3.4267    2.8151 O   0  0  0  0  0  0  0  0  0  0  0  0
    5.7322    3.6317    1.1552 C   0  0  0  0  0  0  0  0  0  0  0  0
    4.6959    3.7960    2.1186 O   0  0  0  0  0  0  0  0  0  0  0  0
    5.2711    8.6591    0.8955 C   0  0  1  0  0  0  0  0  0  0  0  0
    6.5862    8.0005    0.8120 O   0  0  0  0  0  0  0  0  0  0  0  0
    8.4831   -2.0187    2.6613 C   0  0  0  0  0  0  0  0  0  0  0  0
    9.8700   -1.7871    2.6171 O   0  0  0  0  0  0  0  0  0  0  0  0
   11.1276    4.0765    4.4209 C   0  0  1  0  0  0  0  0  0  0  0  0
   11.2407    5.4410    4.0074 O   0  0  0  0  0  0  0  0  0  0  0  0
    5.0234    9.2072    2.3675 C   0  0  0  0  0  0  0  0  0  0  0  0
    5.0612    8.1842    3.4486 N   0  0  0  0  0  0  0  0  0  0  0  0
  1  2  1  1  0  0  0
  1  7  1  0  0  0  0
  1 30  1  0  0  0  0
  3  4  1  6  0  0  0
  3  9  1  0  0  0  0
  3 39  1  0  0  0  0
  5 10  1  0  0  0  0
  5 26  1  0  0  0  0
  5 32  1  1  0  0  0
  6 12  1  0  0  0  0
  6 36  1  0  0  0  0
  6 19  1  1  0  0  0
  7  8  1  1  0  0  0
  7 14  1  0  0  0  0
  9 16  1  0  0  0  0
 10 11  1  6  0  0  0
 10 18  1  0  0  0  0
 12 13  1  1  0  0  0
 12 20  1  0  0  0  0
 14 15  1  6  0  0  0
 14 22  1  0  0  0  0
 16 17  1  6  0  0  0
 16 24  1  0  0  0  0
 18 19  1  1  0  0  0
 18 25  1  0  0  0  0
 20 21  1  1  0  0  0
 20 27  1  0  0  0  0
 22 23  1  1  0  0  0
 22 29  1  0  0  0  0
 24  2  1  1  0  0  0
 24 31  1  0  0  0  0
 25 26  1  0  0  0  0
 25 33  1  6  0  0  0
 27 28  1  1  0  0  0
 27 35  1  0  0  0  0
 29 30  1  0  0  0  0
 29 37  1  6  0  0  0
 31 32  1  6  0  0  0
 31 39  1  0  0  0  0
 33 34  1  0  0  0  0
 35 36  1  0  0  0  0
 35 41  1  1  0  0  0
 37 38  1  0  0  0  0
 39 40  1  1  0  0  0
 41 42  1  0  0  0  0
M  END
>  <CHROM.1>
-173.27419180,165.87743008,-139.45488216,-163.25974163,-168.83792334,-169.53579587
-178.62130048,155.94443343,-178.09254312,7.68459471,4.02977126,2.49303313
1.30963931,0.47312973,2.73881714

>  <Name>
2o3w_lig

>  <RI>
0

>  <Rbt.Current_Directory>
/home/itssahil/PROJECTS/Mol_Feturizer/New_Systems/rnas/2o3w

>  <Rbt.Executable>
rbdock ($Id: //depot/dev/client3/rdock/2013.1/src/exe/rbdock.cxx#4 $)

>  <Rbt.Library>
libRbt.so (2013.1, Build901 2013/11/27)

>  <Rbt.Parameter_File>
/export/apps/rDock/src/rDock_2013.1_src/data/scripts/dock_solv.prm

>  <Rbt.Receptor>
prm/pocket_docking_3.prm

>  <SCORE>
-16.6594

>  <SCORE.INTER>
-7.92515

>  <SCORE.INTER.CONST>
1

>  <SCORE.INTER.POLAR>
-1.44703

>  <SCORE.INTER.ROT>
9

>  <SCORE.INTER.SOLV>
15.8609

>  <SCORE.INTER.VDW>
-15.347

>  <SCORE.INTER.norm>
-0.188694

>  <SCORE.INTRA>
-8.75902

>  <SCORE.INTRA.DIHEDRAL>
-16.4156

>  <SCORE.INTRA.DIHEDRAL.0>
27.8999

>  <SCORE.INTRA.POLAR>
0

>  <SCORE.INTRA.POLAR.0>
0

>  <SCORE.INTRA.REPUL>
0

>  <SCORE.INTRA.REPUL.0>
0

>  <SCORE.INTRA.SOLV>
-4.08836

>  <SCORE.INTRA.SOLV.lig_0>
-104.479

>  <SCORE.INTRA.VDW>
1.49298

>  <SCORE.INTRA.VDW.0>
-6.17816

>  <SCORE.INTRA.norm>
-0.208548

>  <SCORE.RESTR>
0.0248164

>  <SCORE.RESTR.CAVITY>
0.0248164

>  <SCORE.RESTR.norm>
0.000590868

>  <SCORE.SYSTEM>
0

>  <SCORE.SYSTEM.CONST>
0

>  <SCORE.SYSTEM.DIHEDRAL>
0

>  <SCORE.SYSTEM.SOLV>
0

>  <SCORE.SYSTEM.norm>
0

>  <SCORE.heavy>
42

>  <SCORE.norm>
-0.396651

>  <RMSD>
2.205

$$$$
2o3w_lig
 OpenBabel11021811463D
libRbt.so/2013.1/901 2013/11/27
 42 45  0  0  0  0  0  0  0  0999 V2000
    8.2337   -0.0456    5.5260 C   0  0  2  0  0  0  0  0  0  0  0  0
    9.2816    0.2805    4.5971 O   0  0  0  0  0  0  0  0  0  0  0  0
   11.3057    3.2457    7.0275 C   0  0  2  0  0  0  0  0  0  0  0  0
   12.2814    4.2645    7.5178 N   0  0  0  0  0  0  0  0  0  0  0  0
    8.8456    4.2599    3.3028 C   0  0  1  0  0  0  0  0  0  0  0  0
    7.0819    7.6290    0.9868 C   0  0  1  0  0  0  0  0  0  0  0  0
    8.1743   -1.6000    5.6177 C   0  0  2  0  0  0  0  0  0  0  0  0
    9.4982   -2.2018    5.8542 N   0  0  0  0  0  0  0  0  0  0  0  0
   11.9829    1.8231    6.8877 C   0  0  0  0  0  0  0  0  0  0  0  0
    9.2069    4.6205    1.8297 C   0  0  2  0  0  0  0  0  0  0  0  0
   10.4475    5.3557    1.6902 O   0  0  0  0  0  0  0  0  0  0  0  0
    6.9233    9.0651    1.6044 C   0  0  2  0  0  0  0  0  0  0  0  0
    6.5989    8.9868    3.0603 N   0  0  0  0  0  0  0  0  0  0  0  0
    7.6180   -2.2403    4.3326 C   0  0  1  0  0  0  0  0  0  0  0  0
    7.5443   -3.6598    4.4757 O   0  0  0  0  0  0  0  0  0  0  0  0
   10.9021    0.7902    6.3902 C   0  0  2  0  0  0  0  0  0  0  0  0
   11.5024   -0.5650    6.2611 N   0  0  0  0  0  0  0  0  0  0  0  0
    7.9444    5.3619    1.3872 C   0  0  2  0  0  0  0  0  0  0  0  0
    8.0449    6.7983    1.6472 O   0  0  0  0  0  0  0  0  0  0  0  0
    5.7874    9.8624    0.8038 C   0  0  1  0  0  0  0  0  0  0  0  0
    6.3072   10.2423   -0.4902 O   0  0  0  0  0  0  0  0  0  0  0  0
    6.2334   -1.6328    4.0116 C   0  0  2  0  0  0  0  0  0  0  0  0
    5.7027   -2.2207    2.8466 O   0  0  0  0  0  0  0  0  0  0  0  0
   10.3016    1.2386    4.9995 C   0  0  2  0  0  0  0  0  0  0  0  0
    6.7840    4.7326    2.1764 C   0  0  2  0  0  0  0  0  0  0  0  0
    7.4045    4.3339    3.3965 O   0  0  0  0  0  0  0  0  0  0  0  0
    4.4453    9.0082    0.6125 C   0  0  2  0  0  0  0  0  0  0  0  0
    3.8347    8.8720    1.8951 O   0  0  0  0  0  0  0  0  0  0  0  0
    6.3843   -0.0855    3.8307 C   0  0  2  0  0  0  0  0  0  0  0  0
    6.9452    0.4997    5.0483 O   0  0  0  0  0  0  0  0  0  0  0  0
    9.6710    2.6477    5.0458 C   0  0  2  0  0  0  0  0  0  0  0  0
    9.3448    2.9658    3.6649 O   0  0  0  0  0  0  0  0  0  0  0  0
    6.0924    3.5218    1.4766 C   0  0  0  0  0  0  0  0  0  0  0  0
    7.0365    2.4667    1.3202 O   0  0  0  0  0  0  0  0  0  0  0  0
    4.7706    7.5892    0.0101 C   0  0  1  0  0  0  0  0  0  0  0  0
    5.7247    6.9592    0.9392 O   0  0  0  0  0  0  0  0  0  0  0  0
    5.0711    0.5943    3.5190 C   0  0  0  0  0  0  0  0  0  0  0  0
    5.1984    1.9873    3.6698 O   0  0  0  0  0  0  0  0  0  0  0  0
   10.7077    3.6941    5.6340 C   0  0  1  0  0  0  0  0  0  0  0  0
   10.0763    4.9641    5.8181 O   0  0  0  0  0  0  0  0  0  0  0  0
    3.4951    6.6593   -0.1821 C   0  0  0  0  0  0  0  0  0  0  0  0
    2.3899    7.2441   -0.9903 N   0  0  0  0  0  0  0  0  0  0  0  0
  1  2  1  6  0  0  0
  1  7  1  0  0  0  0
  1 30  1  0  0  0  0
  3  4  1  6  0  0  0
  3  9  1  0  0  0  0
  3 39  1  0  0  0  0
  5 10  1  0  0  0  0
  5 26  1  0  0  0  0
  5 32  1  6  0  0  0
  6 12  1  0  0  0  0
  6 36  1  0  0  0  0
  6 19  1  1  0  0  0
  7  8  1  6  0  0  0
  7 14  1  0  0  0  0
  9 16  1  0  0  0  0
 10 11  1  1  0  0  0
 10 18  1  0  0  0  0
 12 13  1  1  0  0  0
 12 20  1  0  0  0  0
 14 15  1  1  0  0  0
 14 22  1  0  0  0  0
 16 17  1  6  0  0  0
 16 24  1  0  0  0  0
 18 19  1  1  0  0  0
 18 25  1  0  0  0  0
 20 21  1  6  0  0  0
 20 27  1  0  0  0  0
 22 23  1  6  0  0  0
 22 29  1  0  0  0  0
 24  2  1  1  0  0  0
 24 31  1  0  0  0  0
 25 26  1  0  0  0  0
 25 33  1  6  0  0  0
 27 28  1  1  0  0  0
 27 35  1  0  0  0  0
 29 30  1  0  0  0  0
 29 37  1  1  0  0  0
 31 32  1  6  0  0  0
 31 39  1  0  0  0  0
 33 34  1  0  0  0  0
 35 36  1  0  0  0  0
 35 41  1  1  0  0  0
 37 38  1  0  0  0  0
 39 40  1  1  0  0  0
 41 42  1  0  0  0  0
M  END
>  <CHROM.1>
-128.88531893,152.46173180,162.09762741,165.17272367,51.94597411,62.68651166
166.51558636,-174.35818765,54.78447306,7.66878729,3.53084242,3.28759057,1.15633510
0.57207928,2.88569447

>  <Name>
2o3w_lig

>  <RI>
0

>  <Rbt.Current_Directory>
/home/itssahil/PROJECTS/Mol_Feturizer/New_Systems/rnas/2o3w

>  <Rbt.Executable>
rbdock ($Id: //depot/dev/client3/rdock/2013.1/src/exe/rbdock.cxx#4 $)

>  <Rbt.Library>
libRbt.so (2013.1, Build901 2013/11/27)

>  <Rbt.Parameter_File>
/export/apps/rDock/src/rDock_2013.1_src/data/scripts/dock_solv.prm

>  <Rbt.Receptor>
prm/pocket_docking_2.prm

>  <SCORE>
-5.032

>  <SCORE.INTER>
-1.43555

>  <SCORE.INTER.CONST>
1

>  <SCORE.INTER.POLAR>
-0.618506

>  <SCORE.INTER.ROT>
9

>  <SCORE.INTER.SOLV>
7.49537

>  <SCORE.INTER.VDW>
-10.9938

>  <SCORE.INTER.norm>
-0.0341798

>  <SCORE.INTRA>
-4.05663

>  <SCORE.INTRA.DIHEDRAL>
-14.1152

>  <SCORE.INTRA.DIHEDRAL.0>
27.8999

>  <SCORE.INTRA.POLAR>
0

>  <SCORE.INTRA.POLAR.0>
0

>  <SCORE.INTRA.REPUL>
0.112973

>  <SCORE.INTRA.REPUL.0>
0

>  <SCORE.INTRA.SOLV>
0.0425573

>  <SCORE.INTRA.SOLV.lig_0>
-104.479

>  <SCORE.INTRA.VDW>
2.41482

>  <SCORE.INTRA.VDW.0>
-6.17816

>  <SCORE.INTRA.norm>
-0.0965865

>  <SCORE.RESTR>
0.460186

>  <SCORE.RESTR.CAVITY>
0.460186

>  <SCORE.RESTR.norm>
0.0109568

>  <SCORE.SYSTEM>
0

>  <SCORE.SYSTEM.CONST>
0

>  <SCORE.SYSTEM.DIHEDRAL>
0

>  <SCORE.SYSTEM.SOLV>
0

>  <SCORE.SYSTEM.norm>
0

>  <SCORE.heavy>
42

>  <SCORE.norm>
-0.11981

>  <RMSD>
2.265

$$$$
2o3w_lig
 OpenBabel11021811463D
libRbt.so/2013.1/901 2013/11/27
 42 45  0  0  0  0  0  0  0  0999 V2000
    7.1818   -1.5056    4.4245 C   0  0  2  0  0  0  0  0  0  0  0  0
    7.1311   -0.1823    4.9845 O   0  0  0  0  0  0  0  0  0  0  0  0
   10.0144    2.2712    7.0969 C   0  0  2  0  0  0  0  0  0  0  0  0
   11.2448    3.0376    7.4565 N   0  0  0  0  0  0  0  0  0  0  0  0
    7.3821    3.7261    3.5782 C   0  0  1  0  0  0  0  0  0  0  0  0
    6.6883    7.4714    1.2691 C   0  0  1  0  0  0  0  0  0  0  0  0
    7.4671   -1.3445    2.9011 C   0  0  2  0  0  0  0  0  0  0  0  0
    8.6091   -0.4532    2.6326 N   0  0  0  0  0  0  0  0  0  0  0  0
   10.3185    0.7243    6.9698 C   0  0  0  0  0  0  0  0  0  0  0  0
    8.3712    4.3368    2.5393 C   0  0  2  0  0  0  0  0  0  0  0  0
    9.4698    5.0716    3.1327 O   0  0  0  0  0  0  0  0  0  0  0  0
    6.3567    8.8674    1.9094 C   0  0  2  0  0  0  0  0  0  0  0  0
    5.4778    8.7099    3.1068 N   0  0  0  0  0  0  0  0  0  0  0  0
    6.2615   -0.7644    2.1390 C   0  0  1  0  0  0  0  0  0  0  0  0
    6.5531   -0.6715    0.7435 O   0  0  0  0  0  0  0  0  0  0  0  0
    8.9825   -0.0307    6.6123 C   0  0  2  0  0  0  0  0  0  0  0  0
    9.2293   -1.4935    6.4991 N   0  0  0  0  0  0  0  0  0  0  0  0
    7.4183    5.1583    1.6694 C   0  0  2  0  0  0  0  0  0  0  0  0
    7.2747    6.5251    2.1714 O   0  0  0  0  0  0  0  0  0  0  0  0
    5.6660    9.8036    0.8078 C   0  0  1  0  0  0  0  0  0  0  0  0
    6.6722   10.2348   -0.1360 O   0  0  0  0  0  0  0  0  0  0  0  0
    5.0165   -1.6431    2.3980 C   0  0  2  0  0  0  0  0  0  0  0  0
    3.9075   -1.1348    1.6935 O   0  0  0  0  0  0  0  0  0  0  0  0
    8.3818    0.5122    5.2558 C   0  0  2  0  0  0  0  0  0  0  0  0
    6.0735    4.4123    1.6916 C   0  0  2  0  0  0  0  0  0  0  0  0
    6.0684    3.7980    2.9781 O   0  0  0  0  0  0  0  0  0  0  0  0
    4.4764    9.0693    0.0249 C   0  0  2  0  0  0  0  0  0  0  0  0
    3.4016    8.8883    0.9459 O   0  0  0  0  0  0  0  0  0  0  0  0
    4.7266   -1.6771    3.9357 C   0  0  2  0  0  0  0  0  0  0  0  0
    5.8947   -2.1988    4.6450 O   0  0  0  0  0  0  0  0  0  0  0  0
    8.1110    2.0324    5.2867 C   0  0  2  0  0  0  0  0  0  0  0  0
    7.7455    2.3830    3.9236 O   0  0  0  0  0  0  0  0  0  0  0  0
    5.8907    3.3514    0.5624 C   0  0  0  0  0  0  0  0  0  0  0  0
    6.7955    2.2729    0.7791 O   0  0  0  0  0  0  0  0  0  0  0  0
    4.9556    7.6766   -0.5345 C   0  0  1  0  0  0  0  0  0  0  0  0
    5.4354    6.9113    0.6293 O   0  0  0  0  0  0  0  0  0  0  0  0
    3.5233   -2.5233    4.2820 C   0  0  0  0  0  0  0  0  0  0  0  0
    2.3581   -1.9568    3.7337 O   0  0  0  0  0  0  0  0  0  0  0  0
    9.4159    2.8134    5.7374 C   0  0  1  0  0  0  0  0  0  0  0  0
    9.1238    4.2026    5.9121 O   0  0  0  0  0  0  0  0  0  0  0  0
    3.8242    6.8620   -1.2995 C   0  0  0  0  0  0  0  0  0  0  0  0
    2.6163    6.5302   -0.4948 N   0  0  0  0  0  0  0  0  0  0  0  0
  1  2  1  1  0  0  0
  1  7  1  0  0  0  0
  1 30  1  0  0  0  0
  3  4  1  6  0  0  0
  3  9  1  0  0  0  0
  3 39  1  0  0  0  0
  5 10  1  0  0  0  0
  5 26  1  0  0  0  0
  5 32  1  6  0  0  0
  6 12  1  0  0  0  0
  6 36  1  0  0  0  0
  6 19  1  1  0  0  0
  7  8  1  1  0  0  0
  7 14  1  0  0  0  0
  9 16  1  0  0  0  0
 10 11  1  1  0  0  0
 10 18  1  0  0  0  0
 12 13  1  1  0  0  0
 12 20  1  0  0  0  0
 14 15  1  6  0  0  0
 14 22  1  0  0  0  0
 16 17  1  6  0  0  0
 16 24  1  0  0  0  0
 18 19  1  1  0  0  0
 18 25  1  0  0  0  0
 20 21  1  6  0  0  0
 20 27  1  0  0  0  0
 22 23  1  6  0  0  0
 22 29  1  0  0  0  0
 24  2  1  1  0  0  0
 24 31  1  0  0  0  0
 25 26  1  0  0  0  0
 25 33  1  6  0  0  0
 27 28  1  1  0  0  0
 27 35  1  0  0  0  0
 29 30  1  0  0  0  0
 29 37  1  6  0  0  0
 31 32  1  6  0  0  0
 31 39  1  0  0  0  0
 33 34  1  0  0  0  0
 35 36  1  0  0  0  0
 35 41  1  1  0  0  0
 37 38  1  0  0  0  0
 39 40  1  1  0  0  0
 41 42  1  0  0  0  0
M  END
>  <CHROM.1>
-78.64850397,117.70212185,171.42232947,164.82698668,-79.54415972,67.66018631
-64.65475439,178.13075212,-59.56748874,6.67327802,3.09562189,2.94455354,1.34297733
0.69582299,2.87017254

>  <Name>
2o3w_lig

>  <RI>
0

>  <Rbt.Current_Directory>
/home/itssahil/PROJECTS/Mol_Feturizer/New_Systems/rnas/2o3w

>  <Rbt.Executable>
rbdock ($Id: //depot/dev/client3/rdock/2013.1/src/exe/rbdock.cxx#4 $)

>  <Rbt.Library>
libRbt.so (2013.1, Build901 2013/11/27)

>  <Rbt.Parameter_File>
/export/apps/rDock/src/rDock_2013.1_src/data/scripts/dock_solv.prm

>  <Rbt.Receptor>
prm/pocket_docking_4.prm

>  <SCORE>
-8.57548

>  <SCORE.INTER>
-2.96237

>  <SCORE.INTER.CONST>
1

>  <SCORE.INTER.POLAR>
-0.974577

>  <SCORE.INTER.ROT>
9

>  <SCORE.INTER.SOLV>
9.94532

>  <SCORE.INTER.VDW>
-11.6414

>  <SCORE.INTER.norm>
-0.0705327

>  <SCORE.INTRA>
-5.6131

>  <SCORE.INTRA.DIHEDRAL>
-15.5713

>  <SCORE.INTRA.DIHEDRAL.0>
27.8999

>  <SCORE.INTRA.POLAR>
0

>  <SCORE.INTRA.POLAR.0>
0

>  <SCORE.INTRA.REPUL>
0

>  <SCORE.INTRA.REPUL.0>
0

>  <SCORE.INTRA.SOLV>
1.27484

>  <SCORE.INTRA.SOLV.lig_0>
-104.479

>  <SCORE.INTRA.VDW>
1.53513

>  <SCORE.INTRA.VDW.0>
-6.17816

>  <SCORE.INTRA.norm>
-0.133645

>  <SCORE.RESTR>
0

>  <SCORE.RESTR.CAVITY>
0

>  <SCORE.RESTR.norm>
0

>  <SCORE.SYSTEM>
0

>  <SCORE.SYSTEM.CONST>
0

>  <SCORE.SYSTEM.DIHEDRAL>
0

>  <SCORE.SYSTEM.SOLV>
0

>  <SCORE.SYSTEM.norm>
0

>  <SCORE.heavy>
42

>  <SCORE.norm>
-0.204178

>  <RMSD>
2.269

$$$$
2o3w_lig
 OpenBabel11021811463D
libRbt.so/2013.1/901 2013/11/27
 42 45  0  0  0  0  0  0  0  0999 V2000
    7.4445   -1.1055    5.0956 C   0  0  2  0  0  0  0  0  0  0  0  0
    8.4207   -0.7360    4.1067 O   0  0  0  0  0  0  0  0  0  0  0  0
   10.9421    1.7176    6.6401 C   0  0  2  0  0  0  0  0  0  0  0  0
   12.0686    2.5548    7.1505 N   0  0  0  0  0  0  0  0  0  0  0  0
    8.3025    3.3212    3.1918 C   0  0  1  0  0  0  0  0  0  0  0  0
    6.8675    7.0515    1.1338 C   0  0  1  0  0  0  0  0  0  0  0  0
    6.9258   -2.5247    4.7149 C   0  0  2  0  0  0  0  0  0  0  0  0
    8.0217   -3.4757    4.4592 N   0  0  0  0  0  0  0  0  0  0  0  0
   11.4151    0.2374    6.3448 C   0  0  0  0  0  0  0  0  0  0  0  0
    8.8051    3.9203    1.8429 C   0  0  2  0  0  0  0  0  0  0  0  0
   10.0333    4.6802    1.9569 O   0  0  0  0  0  0  0  0  0  0  0  0
    6.5633    8.3900    1.8986 C   0  0  2  0  0  0  0  0  0  0  0  0
    5.8604    8.1195    3.1884 N   0  0  0  0  0  0  0  0  0  0  0  0
    6.0487   -2.5063    3.4495 C   0  0  1  0  0  0  0  0  0  0  0  0
    5.5639   -3.8188    3.1612 O   0  0  0  0  0  0  0  0  0  0  0  0
   10.1823   -0.5996    5.8327 C   0  0  2  0  0  0  0  0  0  0  0  0
   10.5888   -2.0043    5.5582 N   0  0  0  0  0  0  0  0  0  0  0  0
    7.5760    4.7118    1.3932 C   0  0  2  0  0  0  0  0  0  0  0  0
    7.6105    6.0875    1.8902 O   0  0  0  0  0  0  0  0  0  0  0  0
    5.6908    9.3498    0.9581 C   0  0  1  0  0  0  0  0  0  0  0  0
    6.5416    9.8854   -0.0803 O   0  0  0  0  0  0  0  0  0  0  0  0
    4.8869   -1.5051    3.6420 C   0  0  2  0  0  0  0  0  0  0  0  0
    4.0646   -1.4888    2.4983 O   0  0  0  0  0  0  0  0  0  0  0  0
    9.5785    0.0433    4.5219 C   0  0  2  0  0  0  0  0  0  0  0  0
    6.3571    3.9514    1.9424 C   0  0  2  0  0  0  0  0  0  0  0  0
    6.8580    3.3653    3.1416 O   0  0  0  0  0  0  0  0  0  0  0  0
    4.4406    8.6000    0.2930 C   0  0  2  0  0  0  0  0  0  0  0  0
    3.5078    8.3114    1.3337 O   0  0  0  0  0  0  0  0  0  0  0  0
    5.4790   -0.0829    3.9178 C   0  0  2  0  0  0  0  0  0  0  0  0
    6.3355   -0.1279    5.1028 O   0  0  0  0  0  0  0  0  0  0  0  0
    9.1452    1.5124    4.7203 C   0  0  2  0  0  0  0  0  0  0  0  0
    8.7959    1.9902    3.3921 O   0  0  0  0  0  0  0  0  0  0  0  0
    5.7746    2.8641    0.9870 C   0  0  0  0  0  0  0  0  0  0  0  0
    5.0270    3.4977   -0.0466 O   0  0  0  0  0  0  0  0  0  0  0  0
    4.9015    7.2679   -0.4108 C   0  0  1  0  0  0  0  0  0  0  0  0
    5.5660    6.4641    0.6296 O   0  0  0  0  0  0  0  0  0  0  0  0
    4.4078    0.9627    4.1256 C   0  0  0  0  0  0  0  0  0  0  0  0
    4.9838    2.1639    4.5779 O   0  0  0  0  0  0  0  0  0  0  0  0
   10.3407    2.3603    5.3265 C   0  0  1  0  0  0  0  0  0  0  0  0
    9.8948    3.6800    5.6508 O   0  0  0  0  0  0  0  0  0  0  0  0
    3.7150    6.4401   -1.0707 C   0  0  0  0  0  0  0  0  0  0  0  0
    2.3514    7.0048   -0.8750 N   0  0  0  0  0  0  0  0  0  0  0  0
  1  2  1  6  0  0  0
  1  7  1  0  0  0  0
  1 30  1  0  0  0  0
  3  4  1  6  0  0  0
  3  9  1  0  0  0  0
  3 39  1  0  0  0  0
  5 10  1  0  0  0  0
  5 26  1  0  0  0  0
  5 32  1  6  0  0  0
  6 12  1  0  0  0  0
  6 36  1  0  0  0  0
  6 19  1  1  0  0  0
  7  8  1  6  0  0  0
  7 14  1  0  0  0  0
  9 16  1  0  0  0  0
 10 11  1  1  0  0  0
 10 18  1  0  0  0  0
 12 13  1  1  0  0  0
 12 20  1  0  0  0  0
 14 15  1  1  0  0  0
 14 22  1  0  0  0  0
 16 17  1  6  0  0  0
 16 24  1  0  0  0  0
 18 19  1  1  0  0  0
 18 25  1  0  0  0  0
 20 21  1  6  0  0  0
 20 27  1  0  0  0  0
 22 23  1  6  0  0  0
 22 29  1  0  0  0  0
 24  2  1  1  0  0  0
 24 31  1  0  0  0  0
 25 26  1  0  0  0  0
 25 33  1  6  0  0  0
 27 28  1  1  0  0  0
 27 35  1  0  0  0  0
 29 30  1  0  0  0  0
 29 37  1  1  0  0  0
 31 32  1  6  0  0  0
 31 39  1  0  0  0  0
 33 34  1  0  0  0  0
 35 36  1  0  0  0  0
 35 41  1  1  0  0  0
 37 38  1  0  0  0  0
 39 40  1  1  0  0  0
 41 42  1  0  0  0  0
M  END
>  <CHROM.1>
-144.34900266,144.62471377,162.45800545,155.22659811,46.51184050,-76.31737596
170.61073126,178.06957235,-2.69961462,7.06262228,2.88342973,3.00936207,1.22177978
0.51926333,2.85964000

>  <Name>
2o3w_lig

>  <RI>
0

>  <Rbt.Current_Directory>
/home/itssahil/PROJECTS/Mol_Feturizer/New_Systems/rnas/2o3w

>  <Rbt.Executable>
rbdock ($Id: //depot/dev/client3/rdock/2013.1/src/exe/rbdock.cxx#4 $)

>  <Rbt.Library>
libRbt.so (2013.1, Build901 2013/11/27)

>  <Rbt.Parameter_File>
/export/apps/rDock/src/rDock_2013.1_src/data/scripts/dock_solv.prm

>  <Rbt.Receptor>
prm/pocket_docking_2.prm

>  <SCORE>
-3.68914

>  <SCORE.INTER>
-1.65675

>  <SCORE.INTER.CONST>
1

>  <SCORE.INTER.POLAR>
-0.810881

>  <SCORE.INTER.ROT>
9

>  <SCORE.INTER.SOLV>
5.09999

>  <SCORE.INTER.VDW>
-9.70156

>  <SCORE.INTER.norm>
-0.0394464

>  <SCORE.INTRA>
-2.27425

>  <SCORE.INTRA.DIHEDRAL>
-7.15173

>  <SCORE.INTRA.DIHEDRAL.0>
27.8999

>  <SCORE.INTRA.POLAR>
0

>  <SCORE.INTRA.POLAR.0>
0

>  <SCORE.INTRA.REPUL>
0.00566443

>  <SCORE.INTRA.REPUL.0>
0

>  <SCORE.INTRA.SOLV>
-0.306394

>  <SCORE.INTRA.SOLV.lig_0>
-104.479

>  <SCORE.INTRA.VDW>
1.42649

>  <SCORE.INTRA.VDW.0>
-6.17816

>  <SCORE.INTRA.norm>
-0.0541488

>  <SCORE.RESTR>
0.241863

>  <SCORE.RESTR.CAVITY>
0.241863

>  <SCORE.RESTR.norm>
0.00575864

>  <SCORE.SYSTEM>
0

>  <SCORE.SYSTEM.CONST>
0

>  <SCORE.SYSTEM.DIHEDRAL>
0

>  <SCORE.SYSTEM.SOLV>
0

>  <SCORE.SYSTEM.norm>
0

>  <SCORE.heavy>
42

>  <SCORE.norm>
-0.0878366

>  <RMSD>
2.309

$$$$
2o3w_lig
 OpenBabel11021811463D
libRbt.so/2013.1/901 2013/11/27
 42 45  0  0  0  0  0  0  0  0999 V2000
    7.5825   -0.9441    4.9016 C   0  0  2  0  0  0  0  0  0  0  0  0
    8.4490   -0.5302    3.8315 O   0  0  0  0  0  0  0  0  0  0  0  0
   10.9601    2.1598    6.1237 C   0  0  2  0  0  0  0  0  0  0  0  0
   12.0398    3.1107    6.5244 N   0  0  0  0  0  0  0  0  0  0  0  0
    7.9406    3.5613    2.9847 C   0  0  1  0  0  0  0  0  0  0  0  0
    6.6440    7.4153    1.0953 C   0  0  1  0  0  0  0  0  0  0  0  0
    7.0710   -2.3725    4.5462 C   0  0  2  0  0  0  0  0  0  0  0  0
    8.1645   -3.2857    4.1707 N   0  0  0  0  0  0  0  0  0  0  0  0
   11.5541    0.7439    5.7441 C   0  0  0  0  0  0  0  0  0  0  0  0
    8.6205    4.2917    1.7868 C   0  0  2  0  0  0  0  0  0  0  0  0
    9.7904    5.0633    2.1542 O   0  0  0  0  0  0  0  0  0  0  0  0
    6.7312    8.8662    1.6920 C   0  0  2  0  0  0  0  0  0  0  0  0
    6.2774    8.8860    3.1149 N   0  0  0  0  0  0  0  0  0  0  0  0
    6.0772   -2.3615    3.3701 C   0  0  1  0  0  0  0  0  0  0  0  0
    5.6051   -3.6836    3.1054 O   0  0  0  0  0  0  0  0  0  0  0  0
   10.3693   -0.2184    5.3534 C   0  0  2  0  0  0  0  0  0  0  0  0
   10.8917   -1.5669    5.0036 N   0  0  0  0  0  0  0  0  0  0  0  0
    7.4470    5.0953    1.2243 C   0  0  2  0  0  0  0  0  0  0  0  0
    7.3585    6.4202    1.8389 O   0  0  0  0  0  0  0  0  0  0  0  0
    5.8530    9.8609    0.7940 C   0  0  1  0  0  0  0  0  0  0  0  0
    6.5455   10.1001   -0.4518 O   0  0  0  0  0  0  0  0  0  0  0  0
    4.9106   -1.3991    3.6898 C   0  0  2  0  0  0  0  0  0  0  0  0
    3.9831   -1.3904    2.6296 O   0  0  0  0  0  0  0  0  0  0  0  0
    9.5551    0.3676    4.1329 C   0  0  2  0  0  0  0  0  0  0  0  0
    6.1861    4.2627    1.5109 C   0  0  2  0  0  0  0  0  0  0  0  0
    6.5197    3.5797    2.7170 O   0  0  0  0  0  0  0  0  0  0  0  0
    4.3854    9.2935    0.4911 C   0  0  2  0  0  0  0  0  0  0  0  0
    3.6550    9.3112    1.7169 O   0  0  0  0  0  0  0  0  0  0  0  0
    5.4851    0.0361    3.9340 C   0  0  2  0  0  0  0  0  0  0  0  0
    6.4515   -0.0009    5.0315 O   0  0  0  0  0  0  0  0  0  0  0  0
    8.9905    1.7778    4.4115 C   0  0  2  0  0  0  0  0  0  0  0  0
    8.4436    2.2281    3.1416 O   0  0  0  0  0  0  0  0  0  0  0  0
    5.7927    3.2556    0.3860 C   0  0  0  0  0  0  0  0  0  0  0  0
    4.6534    2.5082    0.8011 O   0  0  0  0  0  0  0  0  0  0  0  0
    4.4630    7.8258   -0.0763 C   0  0  1  0  0  0  0  0  0  0  0  0
    5.1874    7.0346    0.9335 O   0  0  0  0  0  0  0  0  0  0  0  0
    4.4089    1.0453    4.2611 C   0  0  0  0  0  0  0  0  0  0  0  0
    4.9881    2.2919    4.5610 O   0  0  0  0  0  0  0  0  0  0  0  0
   10.1480    2.7460    4.9000 C   0  0  1  0  0  0  0  0  0  0  0  0
    9.6014    4.0051    5.3017 O   0  0  0  0  0  0  0  0  0  0  0  0
    3.0450    7.1707   -0.3742 C   0  0  0  0  0  0  0  0  0  0  0  0
    3.0800    5.8260   -1.0122 N   0  0  0  0  0  0  0  0  0  0  0  0
  1  2  1  6  0  0  0
  1  7  1  0  0  0  0
  1 30  1  0  0  0  0
  3  4  1  6  0  0  0
  3  9  1  0  0  0  0
  3 39  1  0  0  0  0
  5 10  1  0  0  0  0
  5 26  1  0  0  0  0
  5 32  1  6  0  0  0
  6 12  1  0  0  0  0
  6 36  1  0  0  0  0
  6 19  1  1  0  0  0
  7  8  1  6  0  0  0
  7 14  1  0  0  0  0
  9 16  1  0  0  0  0
 10 11  1  1  0  0  0
 10 18  1  0  0  0  0
 12 13  1  1  0  0  0
 12 20  1  0  0  0  0
 14 15  1  1  0  0  0
 14 22  1  0  0  0  0
 16 17  1  6  0  0  0
 16 24  1  0  0  0  0
 18 19  1  1  0  0  0
 18 25  1  0  0  0  0
 20 21  1  6  0  0  0
 20 27  1  0  0  0  0
 22 23  1  6  0  0  0
 22 29  1  0  0  0  0
 24  2  1  1  0  0  0
 24 31  1  0  0  0  0
 25 26  1  0  0  0  0
 25 33  1  6  0  0  0
 27 28  1  1  0  0  0
 27 35  1  0  0  0  0
 29 30  1  0  0  0  0
 29 37  1  1  0  0  0
 31 32  1  6  0  0  0
 31 39  1  0  0  0  0
 33 34  1  0  0  0  0
 35 36  1  0  0  0  0
 35 41  1  1  0  0  0
 37 38  1  0  0  0  0
 39 40  1  1  0  0  0
 41 42  1  0  0  0  0
M  END
>  <CHROM.1>
-149.33823819,125.50736186,-172.31266499,158.40591471,50.61255935,177.26817473
175.93111040,-174.04028409,175.34113781,7.01137759,3.16080510,2.89066268
1.26203707,0.47278632,2.89091396

>  <Name>
2o3w_lig

>  <RI>
0

>  <Rbt.Current_Directory>
/home/itssahil/PROJECTS/Mol_Feturizer/New_Systems/rnas/2o3w

>  <Rbt.Executable>
rbdock ($Id: //depot/dev/client3/rdock/2013.1/src/exe/rbdock.cxx#4 $)

>  <Rbt.Library>
libRbt.so (2013.1, Build901 2013/11/27)

>  <Rbt.Parameter_File>
/export/apps/rDock/src/rDock_2013.1_src/data/scripts/dock_solv.prm

>  <Rbt.Receptor>
prm/pocket_docking_2.prm

>  <SCORE>
-7.09418

>  <SCORE.INTER>
-1.02102

>  <SCORE.INTER.CONST>
1

>  <SCORE.INTER.POLAR>
-0.323921

>  <SCORE.INTER.ROT>
9

>  <SCORE.INTER.SOLV>
6.61014

>  <SCORE.INTER.VDW>
-11.4043

>  <SCORE.INTER.norm>
-0.02431

>  <SCORE.INTRA>
-6.73881

>  <SCORE.INTRA.DIHEDRAL>
-13.8769

>  <SCORE.INTRA.DIHEDRAL.0>
27.8999

>  <SCORE.INTRA.POLAR>
0

>  <SCORE.INTRA.POLAR.0>
0

>  <SCORE.INTRA.REPUL>
0.0146224

>  <SCORE.INTRA.REPUL.0>
0

>  <SCORE.INTRA.SOLV>
-1.78352

>  <SCORE.INTRA.SOLV.lig_0>
-104.479

>  <SCORE.INTRA.VDW>
1.01829

>  <SCORE.INTRA.VDW.0>
-6.17816

>  <SCORE.INTRA.norm>
-0.160448

>  <SCORE.RESTR>
0.66565

>  <SCORE.RESTR.CAVITY>
0.66565

>  <SCORE.RESTR.norm>
0.0158488

>  <SCORE.SYSTEM>
0

>  <SCORE.SYSTEM.CONST>
0

>  <SCORE.SYSTEM.DIHEDRAL>
0

>  <SCORE.SYSTEM.SOLV>
0

>  <SCORE.SYSTEM.norm>
0

>  <SCORE.heavy>
42

>  <SCORE.norm>
-0.168909

>  <RMSD>
2.311

$$$$
2o3w_lig
 OpenBabel11021811463D
libRbt.so/2013.1/901 2013/11/27
 42 45  0  0  0  0  0  0  0  0999 V2000
    8.1576   -1.2083    5.3005 C   0  0  2  0  0  0  0  0  0  0  0  0
    8.9754   -0.6372    4.2650 O   0  0  0  0  0  0  0  0  0  0  0  0
   10.6518    2.6140    6.5922 C   0  0  2  0  0  0  0  0  0  0  0  0
   11.4315    3.8184    7.0067 N   0  0  0  0  0  0  0  0  0  0  0  0
    7.3054    3.1126    3.4653 C   0  0  1  0  0  0  0  0  0  0  0  0
    5.6654    6.5112    1.3226 C   0  0  1  0  0  0  0  0  0  0  0  0
    8.2680   -2.7568    5.1655 C   0  0  2  0  0  0  0  0  0  0  0  0
    9.6648   -3.2168    5.0769 N   0  0  0  0  0  0  0  0  0  0  0  0
   11.6091    1.4148    6.2083 C   0  0  0  0  0  0  0  0  0  0  0  0
    7.3991    3.7801    2.0594 C   0  0  2  0  0  0  0  0  0  0  0  0
    8.3169    4.8995    1.9986 O   0  0  0  0  0  0  0  0  0  0  0  0
    6.3993    7.8003    1.8407 C   0  0  2  0  0  0  0  0  0  0  0  0
    5.7673    8.3058    3.0960 N   0  0  0  0  0  0  0  0  0  0  0  0
    7.5449   -3.2871    3.9138 C   0  0  1  0  0  0  0  0  0  0  0  0
    7.6379   -4.7114    3.8517 O   0  0  0  0  0  0  0  0  0  0  0  0
   10.7312    0.1707    5.8030 C   0  0  2  0  0  0  0  0  0  0  0  0
   11.6012   -0.9831    5.4488 N   0  0  0  0  0  0  0  0  0  0  0  0
    5.9307    4.1122    1.7898 C   0  0  2  0  0  0  0  0  0  0  0  0
    5.5825    5.4467    2.2784 O   0  0  0  0  0  0  0  0  0  0  0  0
    6.3761    8.9188    0.6938 C   0  0  1  0  0  0  0  0  0  0  0  0
    7.3097    8.5435   -0.3437 O   0  0  0  0  0  0  0  0  0  0  0  0
    6.0723   -2.8179    3.9314 C   0  0  2  0  0  0  0  0  0  0  0  0
    5.3918   -3.3093    2.8001 O   0  0  0  0  0  0  0  0  0  0  0  0
    9.7955    0.5241    4.5801 C   0  0  2  0  0  0  0  0  0  0  0  0
    5.1113    3.0253    2.5058 C   0  0  2  0  0  0  0  0  0  0  0  0
    5.9323    2.6866    3.6210 O   0  0  0  0  0  0  0  0  0  0  0  0
    4.9208    9.1257    0.0561 C   0  0  2  0  0  0  0  0  0  0  0  0
    4.0970    9.7331    1.0504 O   0  0  0  0  0  0  0  0  0  0  0  0
    6.0352   -1.2535    3.9628 C   0  0  2  0  0  0  0  0  0  0  0  0
    6.7555   -0.7680    5.1397 O   0  0  0  0  0  0  0  0  0  0  0  0
    8.8685    1.7266    4.8632 C   0  0  2  0  0  0  0  0  0  0  0  0
    8.2271    2.0220    3.5921 O   0  0  0  0  0  0  0  0  0  0  0  0
    4.7910    1.7663    1.6417 C   0  0  0  0  0  0  0  0  0  0  0  0
    5.9908    1.0320    1.4175 O   0  0  0  0  0  0  0  0  0  0  0  0
    4.3081    7.7446   -0.3904 C   0  0  1  0  0  0  0  0  0  0  0  0
    4.2921    6.8957    0.8135 O   0  0  0  0  0  0  0  0  0  0  0  0
    4.6271   -0.7056    3.9881 C   0  0  0  0  0  0  0  0  0  0  0  0
    3.7888   -1.5569    4.7310 O   0  0  0  0  0  0  0  0  0  0  0  0
    9.7180    2.9680    5.3662 C   0  0  1  0  0  0  0  0  0  0  0  0
    8.8487    4.0290    5.7716 O   0  0  0  0  0  0  0  0  0  0  0  0
    2.8459    7.8534   -1.0057 C   0  0  0  0  0  0  0  0  0  0  0  0
    1.7484    8.0588   -0.0210 N   0  0  0  0  0  0  0  0  0  0  0  0
  1  2  1  6  0  0  0
  1  7  1  0  0  0  0
  1 30  1  0  0  0  0
  3  4  1  6  0  0  0
  3  9  1  0  0  0  0
  3 39  1  0  0  0  0
  5 10  1  0  0  0  0
  5 26  1  0  0  0  0
  5 32  1  6  0  0  0
  6 12  1  0  0  0  0
  6 36  1  0  0  0  0
  6 19  1  1  0  0  0
  7  8  1  6  0  0  0
  7 14  1  0  0  0  0
  9 16  1  0  0  0  0
 10 11  1  1  0  0  0
 10 18  1  0  0  0  0
 12 13  1  1  0  0  0
 12 20  1  0  0  0  0
 14 15  1  1  0  0  0
 14 22  1  0  0  0  0
 16 17  1  6  0  0  0
 16 24  1  0  0  0  0
 18 19  1  1  0  0  0
 18 25  1  0  0  0  0
 20 21  1  6  0  0  0
 20 27  1  0  0  0  0
 22 23  1  6  0  0  0
 22 29  1  0  0  0  0
 24  2  1  1  0  0  0
 24 31  1  0  0  0  0
 25 26  1  0  0  0  0
 25 33  1  6  0  0  0
 27 28  1  1  0  0  0
 27 35  1  0  0  0  0
 29 30  1  0  0  0  0
 29 37  1  1  0  0  0
 31 32  1  6  0  0  0
 31 39  1  0  0  0  0
 33 34  1  0  0  0  0
 35 36  1  0  0  0  0
 35 41  1  1  0  0  0
 37 38  1  0  0  0  0
 39 40  1  1  0  0  0
 41 42  1  0  0  0  0
M  END
>  <CHROM.1>
-138.80190644,145.83728771,-133.67860298,94.20336529,55.93481035,69.69145070
34.65261511,-178.70266157,-76.13944997,6.97818526,2.64290043,3.20376184,-1.19721641
-0.53670602,-0.21027254

>  <Name>
2o3w_lig

>  <RI>
0

>  <Rbt.Current_Directory>
/home/itssahil/PROJECTS/Mol_Feturizer/New_Systems/rnas/2o3w

>  <Rbt.Executable>
rbdock ($Id: //depot/dev/client3/rdock/2013.1/src/exe/rbdock.cxx#4 $)

>  <Rbt.Library>
libRbt.so (2013.1, Build901 2013/11/27)

>  <Rbt.Parameter_File>
/export/apps/rDock/src/rDock_2013.1_src/data/scripts/dock_solv.prm

>  <Rbt.Receptor>
prm/pocket_docking_2.prm

>  <SCORE>
5.60036

>  <SCORE.INTER>
5.57334

>  <SCORE.INTER.CONST>
1

>  <SCORE.INTER.POLAR>
0

>  <SCORE.INTER.ROT>
9

>  <SCORE.INTER.SOLV>
5.76202

>  <SCORE.INTER.VDW>
-7.80511

>  <SCORE.INTER.norm>
0.132699

>  <SCORE.INTRA>
-0.896366

>  <SCORE.INTRA.DIHEDRAL>
-3.91945

>  <SCORE.INTRA.DIHEDRAL.0>
27.8999

>  <SCORE.INTRA.POLAR>
0

>  <SCORE.INTRA.POLAR.0>
0

>  <SCORE.INTRA.REPUL>
0

>  <SCORE.INTRA.REPUL.0>
0

>  <SCORE.INTRA.SOLV>
-0.187256

>  <SCORE.INTRA.SOLV.lig_0>
-104.479

>  <SCORE.INTRA.VDW>
1.15699

>  <SCORE.INTRA.VDW.0>
-6.17816

>  <SCORE.INTRA.norm>
-0.021342

>  <SCORE.RESTR>
0.923386

>  <SCORE.RESTR.CAVITY>
0.923386

>  <SCORE.RESTR.norm>
0.0219854

>  <SCORE.SYSTEM>
0

>  <SCORE.SYSTEM.CONST>
0

>  <SCORE.SYSTEM.DIHEDRAL>
0

>  <SCORE.SYSTEM.SOLV>
0

>  <SCORE.SYSTEM.norm>
0

>  <SCORE.heavy>
42

>  <SCORE.norm>
0.133342

>  <RMSD>
2.319

$$$$
2o3w_lig
 OpenBabel11021811463D
libRbt.so/2013.1/901 2013/11/27
 42 45  0  0  0  0  0  0  0  0999 V2000
    8.6974    0.0067    2.9536 C   0  0  2  0  0  0  0  0  0  0  0  0
    8.6820    0.1264    4.3864 O   0  0  0  0  0  0  0  0  0  0  0  0
   10.3241    2.9539    7.2332 C   0  0  2  0  0  0  0  0  0  0  0  0
   11.2444    3.8879    7.9482 N   0  0  0  0  0  0  0  0  0  0  0  0
    8.5697    3.9045    2.9458 C   0  0  1  0  0  0  0  0  0  0  0  0
    6.9476    6.8090   -0.1088 C   0  0  1  0  0  0  0  0  0  0  0  0
    7.4988   -0.9082    2.5605 C   0  0  2  0  0  0  0  0  0  0  0  0
    6.2358   -0.4840    3.1894 N   0  0  0  0  0  0  0  0  0  0  0  0
   10.8669    1.4689    7.2755 C   0  0  0  0  0  0  0  0  0  0  0  0
    9.1215    4.2836    1.5377 C   0  0  2  0  0  0  0  0  0  0  0  0
   10.1862    5.2657    1.5669 O   0  0  0  0  0  0  0  0  0  0  0  0
    7.8945    7.1391   -1.3184 C   0  0  2  0  0  0  0  0  0  0  0  0
    9.0703    7.9443   -0.8712 N   0  0  0  0  0  0  0  0  0  0  0  0
    7.7265   -2.3760    2.9661 C   0  0  1  0  0  0  0  0  0  0  0  0
    6.6231   -3.1834    2.5519 O   0  0  0  0  0  0  0  0  0  0  0  0
    9.8458    0.5309    6.5271 C   0  0  2  0  0  0  0  0  0  0  0  0
   10.3188   -0.8794    6.5601 N   0  0  0  0  0  0  0  0  0  0  0  0
    7.8404    4.7166    0.8233 C   0  0  2  0  0  0  0  0  0  0  0  0
    7.5898    6.1486    0.9890 O   0  0  0  0  0  0  0  0  0  0  0  0
    7.0612    7.9145   -2.4459 C   0  0  1  0  0  0  0  0  0  0  0  0
    6.1863    6.9748   -3.1094 O   0  0  0  0  0  0  0  0  0  0  0  0
    9.0546   -2.8794    2.3562 C   0  0  2  0  0  0  0  0  0  0  0  0
    9.2695   -4.2274    2.7045 O   0  0  0  0  0  0  0  0  0  0  0  0
    9.6608    0.9930    5.0277 C   0  0  2  0  0  0  0  0  0  0  0  0
    6.7073    3.8778    1.4380 C   0  0  2  0  0  0  0  0  0  0  0  0
    7.1536    3.6664    2.7754 O   0  0  0  0  0  0  0  0  0  0  0  0
    6.1963    9.1277   -1.8562 C   0  0  2  0  0  0  0  0  0  0  0  0
    7.1075   10.1436   -1.4390 O   0  0  0  0  0  0  0  0  0  0  0  0
   10.2270   -1.9809    2.8735 C   0  0  2  0  0  0  0  0  0  0  0  0
    9.9763   -0.5867    2.5084 O   0  0  0  0  0  0  0  0  0  0  0  0
    9.1848    2.4572    4.9068 C   0  0  2  0  0  0  0  0  0  0  0  0
    9.2482    2.7634    3.4866 O   0  0  0  0  0  0  0  0  0  0  0  0
    6.4275    2.5219    0.7187 C   0  0  0  0  0  0  0  0  0  0  0  0
    5.2790    1.9102    1.2981 O   0  0  0  0  0  0  0  0  0  0  0  0
    5.3216    8.6459   -0.6376 C   0  0  1  0  0  0  0  0  0  0  0  0
    6.2636    8.0817    0.3445 O   0  0  0  0  0  0  0  0  0  0  0  0
   11.5690   -2.3999    2.3193 C   0  0  0  0  0  0  0  0  0  0  0  0
   11.5059   -2.4963    0.9172 O   0  0  0  0  0  0  0  0  0  0  0  0
   10.1422    3.4156    5.7318 C   0  0  1  0  0  0  0  0  0  0  0  0
    9.6169    4.7458    5.7446 O   0  0  0  0  0  0  0  0  0  0  0  0
    4.4538    9.7978    0.0321 C   0  0  0  0  0  0  0  0  0  0  0  0
    3.4717   10.4662   -0.8653 N   0  0  0  0  0  0  0  0  0  0  0  0
  1  2  1  1  0  0  0
  1  7  1  0  0  0  0
  1 30  1  0  0  0  0
  3  4  1  6  0  0  0
  3  9  1  0  0  0  0
  3 39  1  0  0  0  0
  5 10  1  0  0  0  0
  5 26  1  0  0  0  0
  5 32  1  6  0  0  0
  6 12  1  0  0  0  0
  6 36  1  0  0  0  0
  6 19  1  1  0  0  0
  7  8  1  1  0  0  0
  7 14  1  0  0  0  0
  9 16  1  0  0  0  0
 10 11  1  1  0  0  0
 10 18  1  0  0  0  0
 12 13  1  1  0  0  0
 12 20  1  0  0  0  0
 14 15  1  6  0  0  0
 14 22  1  0  0  0  0
 16 17  1  6  0  0  0
 16 24  1  0  0  0  0
 18 19  1  1  0  0  0
 18 25  1  0  0  0  0
 20 21  1  1  0  0  0
 20 27  1  0  0  0  0
 22 23  1  1  0  0  0
 22 29  1  0  0  0  0
 24  2  1  1  0  0  0
 24 31  1  0  0  0  0
 25 26  1  0  0  0  0
 25 33  1  6  0  0  0
 27 28  1  1  0  0  0
 27 35  1  0  0  0  0
 29 30  1  0  0  0  0
 29 37  1  6  0  0  0
 31 32  1  6  0  0  0
 31 39  1  0  0  0  0
 33 34  1  0  0  0  0
 35 36  1  0  0  0  0
 35 41  1  1  0  0  0
 37 38  1  0  0  0  0
 39 40  1  1  0  0  0
 41 42  1  0  0  0  0
M  END
>  <CHROM.1>
-176.74007574,162.32107305,-78.08082064,147.19026336,-157.19284343,-174.26466165
51.87008428,163.97953765,59.92355457,8.24211825,3.08889911,2.22726741,0.89791541
1.08655019,-3.00295317

>  <Name>
2o3w_lig

>  <RI>
0

>  <Rbt.Current_Directory>
/home/itssahil/PROJECTS/Mol_Feturizer/New_Systems/rnas/2o3w

>  <Rbt.Executable>
rbdock ($Id: //depot/dev/client3/rdock/2013.1/src/exe/rbdock.cxx#4 $)

>  <Rbt.Library>
libRbt.so (2013.1, Build901 2013/11/27)

>  <Rbt.Parameter_File>
/export/apps/rDock/src/rDock_2013.1_src/data/scripts/dock_solv.prm

>  <Rbt.Receptor>
prm/pocket_docking_4.prm

>  <SCORE>
-16.7071

>  <SCORE.INTER>
-7.73254

>  <SCORE.INTER.CONST>
1

>  <SCORE.INTER.POLAR>
-1.9798

>  <SCORE.INTER.ROT>
9

>  <SCORE.INTER.SOLV>
11.181

>  <SCORE.INTER.VDW>
-11.8827

>  <SCORE.INTER.norm>
-0.184108

>  <SCORE.INTRA>
-8.97453

>  <SCORE.INTRA.DIHEDRAL>
-16.8883

>  <SCORE.INTRA.DIHEDRAL.0>
27.8999

>  <SCORE.INTRA.POLAR>
0

>  <SCORE.INTRA.POLAR.0>
0

>  <SCORE.INTRA.REPUL>
0

>  <SCORE.INTRA.REPUL.0>
0

>  <SCORE.INTRA.SOLV>
-3.45961

>  <SCORE.INTRA.SOLV.lig_0>
-104.479

>  <SCORE.INTRA.VDW>
1.19943

>  <SCORE.INTRA.VDW.0>
-6.17816

>  <SCORE.INTRA.norm>
-0.213679

>  <SCORE.RESTR>
0

>  <SCORE.RESTR.CAVITY>
0

>  <SCORE.RESTR.norm>
0

>  <SCORE.SYSTEM>
0

>  <SCORE.SYSTEM.CONST>
0

>  <SCORE.SYSTEM.DIHEDRAL>
0

>  <SCORE.SYSTEM.SOLV>
0

>  <SCORE.SYSTEM.norm>
0

>  <SCORE.heavy>
42

>  <SCORE.norm>
-0.397788

>  <RMSD>
2.321

$$$$
2o3w_lig
 OpenBabel11021811463D
libRbt.so/2013.1/901 2013/11/27
 42 45  0  0  0  0  0  0  0  0999 V2000
    7.7447   -0.4793    4.2286 C   0  0  2  0  0  0  0  0  0  0  0  0
    7.8742    0.6326    5.1309 O   0  0  0  0  0  0  0  0  0  0  0  0
   11.0153    2.8122    7.1751 C   0  0  2  0  0  0  0  0  0  0  0  0
   12.3308    3.4259    7.5263 N   0  0  0  0  0  0  0  0  0  0  0  0
    8.4937    4.3249    3.5072 C   0  0  1  0  0  0  0  0  0  0  0  0
    6.8907    7.7074    1.0444 C   0  0  1  0  0  0  0  0  0  0  0  0
    7.8604    0.0918    2.7833 C   0  0  2  0  0  0  0  0  0  0  0  0
    9.0346    0.9655    2.6146 N   0  0  0  0  0  0  0  0  0  0  0  0
   11.1030    1.2330    7.1649 C   0  0  0  0  0  0  0  0  0  0  0  0
    8.6358    4.5032    1.9649 C   0  0  2  0  0  0  0  0  0  0  0  0
    9.9201    5.0286    1.5482 O   0  0  0  0  0  0  0  0  0  0  0  0
    6.8727    9.1724    1.6120 C   0  0  2  0  0  0  0  0  0  0  0  0
    6.5359    9.1766    3.0672 N   0  0  0  0  0  0  0  0  0  0  0  0
    6.6270    0.9220    2.3827 C   0  0  1  0  0  0  0  0  0  0  0  0
    6.7582    1.3913    1.0398 O   0  0  0  0  0  0  0  0  0  0  0  0
    9.6845    0.6454    6.8112 C   0  0  2  0  0  0  0  0  0  0  0  0
    9.7269   -0.8418    6.8070 N   0  0  0  0  0  0  0  0  0  0  0  0
    7.4267    5.3873    1.6554 C   0  0  2  0  0  0  0  0  0  0  0  0
    7.7637    6.8086    1.7397 O   0  0  0  0  0  0  0  0  0  0  0  0
    5.8249   10.0504    0.7763 C   0  0  1  0  0  0  0  0  0  0  0  0
    6.3853   10.3324   -0.5257 O   0  0  0  0  0  0  0  0  0  0  0  0
    5.3509    0.0682    2.5601 C   0  0  2  0  0  0  0  0  0  0  0  0
    4.2139    0.8087    2.1814 O   0  0  0  0  0  0  0  0  0  0  0  0
    9.2022    1.1660    5.3998 C   0  0  2  0  0  0  0  0  0  0  0  0
    6.3489    5.0081    2.6850 C   0  0  2  0  0  0  0  0  0  0  0  0
    7.1146    4.6231    3.8243 O   0  0  0  0  0  0  0  0  0  0  0  0
    4.4055    9.3272    0.6037 C   0  0  2  0  0  0  0  0  0  0  0  0
    3.7789    9.2962    1.8854 O   0  0  0  0  0  0  0  0  0  0  0  0
    5.2433   -0.3849    4.0543 C   0  0  2  0  0  0  0  0  0  0  0  0
    6.4382   -1.1425    4.4258 O   0  0  0  0  0  0  0  0  0  0  0  0
    9.1462    2.7072    5.3170 C   0  0  2  0  0  0  0  0  0  0  0  0
    8.8699    3.0049    3.9208 O   0  0  0  0  0  0  0  0  0  0  0  0
    5.3886    3.8615    2.2406 C   0  0  0  0  0  0  0  0  0  0  0  0
    4.7837    4.2093    0.9988 O   0  0  0  0  0  0  0  0  0  0  0  0
    4.5910    7.8632    0.0519 C   0  0  1  0  0  0  0  0  0  0  0  0
    5.4739    7.1740    1.0089 O   0  0  0  0  0  0  0  0  0  0  0  0
    4.0216   -1.2344    4.3179 C   0  0  0  0  0  0  0  0  0  0  0  0
    2.8527   -0.4747    4.1285 O   0  0  0  0  0  0  0  0  0  0  0  0
   10.5351    3.3315    5.7608 C   0  0  1  0  0  0  0  0  0  0  0  0
   10.4359    4.7567    5.8296 O   0  0  0  0  0  0  0  0  0  0  0  0
    3.2304    7.0581   -0.1186 C   0  0  0  0  0  0  0  0  0  0  0  0
    3.3058    5.8441   -0.9772 N   0  0  0  0  0  0  0  0  0  0  0  0
  1  2  1  1  0  0  0
  1  7  1  0  0  0  0
  1 30  1  0  0  0  0
  3  4  1  6  0  0  0
  3  9  1  0  0  0  0
  3 39  1  0  0  0  0
  5 10  1  0  0  0  0
  5 26  1  0  0  0  0
  5 32  1  6  0  0  0
  6 12  1  0  0  0  0
  6 36  1  0  0  0  0
  6 19  1  1  0  0  0
  7  8  1  1  0  0  0
  7 14  1  0  0  0  0
  9 16  1  0  0  0  0
 10 11  1  1  0  0  0
 10 18  1  0  0  0  0
 12 13  1  1  0  0  0
 12 20  1  0  0  0  0
 14 15  1  6  0  0  0
 14 22  1  0  0  0  0
 16 17  1  6  0  0  0
 16 24  1  0  0  0  0
 18 19  1  1  0  0  0
 18 25  1  0  0  0  0
 20 21  1  6  0  0  0
 20 27  1  0  0  0  0
 22 23  1  1  0  0  0
 22 29  1  0  0  0  0
 24  2  1  1  0  0  0
 24 31  1  0  0  0  0
 25 26  1  0  0  0  0
 25 33  1  6  0  0  0
 27 28  1  1  0  0  0
 27 35  1  0  0  0  0
 29 30  1  0  0  0  0
 29 37  1  6  0  0  0
 31 32  1  6  0  0  0
 31 39  1  0  0  0  0
 33 34  1  0  0  0  0
 35 36  1  0  0  0  0
 35 41  1  1  0  0  0
 37 38  1  0  0  0  0
 39 40  1  1  0  0  0
 41 42  1  0  0  0  0
M  END
>  <CHROM.1>
-78.21530636,164.15227508,155.11806224,159.18876560,-102.39689006,-55.43225633
-65.42010270,167.89857177,163.47936843,7.09018762,3.82051383,3.07560904,1.17398049
0.56552780,2.83190833

>  <Name>
2o3w_lig

>  <RI>
0

>  <Rbt.Current_Directory>
/home/itssahil/PROJECTS/Mol_Feturizer/New_Systems/rnas/2o3w

>  <Rbt.Executable>
rbdock ($Id: //depot/dev/client3/rdock/2013.1/src/exe/rbdock.cxx#4 $)

>  <Rbt.Library>
libRbt.so (2013.1, Build901 2013/11/27)

>  <Rbt.Parameter_File>
/export/apps/rDock/src/rDock_2013.1_src/data/scripts/dock_solv.prm

>  <Rbt.Receptor>
prm/pocket_docking_2.prm

>  <SCORE>
-3.56846

>  <SCORE.INTER>
-0.343849

>  <SCORE.INTER.CONST>
1

>  <SCORE.INTER.POLAR>
-0.516702

>  <SCORE.INTER.ROT>
9

>  <SCORE.INTER.SOLV>
11.4072

>  <SCORE.INTER.VDW>
-11.9093

>  <SCORE.INTER.norm>
-0.00818689

>  <SCORE.INTRA>
-4.40395

>  <SCORE.INTRA.DIHEDRAL>
-13.019

>  <SCORE.INTRA.DIHEDRAL.0>
27.8999

>  <SCORE.INTRA.POLAR>
0

>  <SCORE.INTRA.POLAR.0>
0

>  <SCORE.INTRA.REPUL>
0

>  <SCORE.INTRA.REPUL.0>
0

>  <SCORE.INTRA.SOLV>
1.58074

>  <SCORE.INTRA.SOLV.lig_0>
-104.479

>  <SCORE.INTRA.VDW>
1.31519

>  <SCORE.INTRA.VDW.0>
-6.17816

>  <SCORE.INTRA.norm>
-0.104856

>  <SCORE.RESTR>
1.17934

>  <SCORE.RESTR.CAVITY>
1.17934

>  <SCORE.RESTR.norm>
0.0280794

>  <SCORE.SYSTEM>
0

>  <SCORE.SYSTEM.CONST>
0

>  <SCORE.SYSTEM.DIHEDRAL>
0

>  <SCORE.SYSTEM.SOLV>
0

>  <SCORE.SYSTEM.norm>
0

>  <SCORE.heavy>
42

>  <SCORE.norm>
-0.0849633

>  <RMSD>
2.326

$$$$
2o3w_lig
 OpenBabel11021811463D
libRbt.so/2013.1/901 2013/11/27
 42 45  0  0  0  0  0  0  0  0999 V2000
    8.3218    0.4126    5.5626 C   0  0  2  0  0  0  0  0  0  0  0  0
    9.3883    0.4858    4.6011 O   0  0  0  0  0  0  0  0  0  0  0  0
   11.9635    3.1805    6.8154 C   0  0  2  0  0  0  0  0  0  0  0  0
   13.0925    4.0767    7.2062 N   0  0  0  0  0  0  0  0  0  0  0  0
    8.9060    4.3415    3.4176 C   0  0  1  0  0  0  0  0  0  0  0  0
    6.9037    7.7242    1.2152 C   0  0  1  0  0  0  0  0  0  0  0  0
    7.9243   -1.0889    5.6878 C   0  0  2  0  0  0  0  0  0  0  0  0
    9.0894   -1.9645    5.9034 N   0  0  0  0  0  0  0  0  0  0  0  0
   12.4559    1.6905    6.6164 C   0  0  0  0  0  0  0  0  0  0  0  0
    9.3741    5.0708    2.1215 C   0  0  2  0  0  0  0  0  0  0  0  0
   10.3817    6.0868    2.3483 O   0  0  0  0  0  0  0  0  0  0  0  0
    6.4871    9.1065    1.8354 C   0  0  2  0  0  0  0  0  0  0  0  0
    5.7994    8.9168    3.1476 N   0  0  0  0  0  0  0  0  0  0  0  0
    7.2035   -1.6093    4.4306 C   0  0  1  0  0  0  0  0  0  0  0  0
    6.8233   -2.9753    4.6048 O   0  0  0  0  0  0  0  0  0  0  0  0
   11.2207    0.7924    6.2287 C   0  0  2  0  0  0  0  0  0  0  0  0
   11.6459   -0.6218    6.0476 N   0  0  0  0  0  0  0  0  0  0  0  0
    8.0408    5.5729    1.5652 C   0  0  2  0  0  0  0  0  0  0  0  0
    7.7169    6.9083    2.0677 O   0  0  0  0  0  0  0  0  0  0  0  0
    5.5466    9.8884    0.8005 C   0  0  1  0  0  0  0  0  0  0  0  0
    6.3585   10.3792   -0.2899 O   0  0  0  0  0  0  0  0  0  0  0  0
    5.9779   -0.7160    4.1319 C   0  0  2  0  0  0  0  0  0  0  0  0
    5.2972   -1.1893    2.9931 O   0  0  0  0  0  0  0  0  0  0  0  0
   10.5456    1.3173    4.9003 C   0  0  2  0  0  0  0  0  0  0  0  0
    6.9846    4.5427    1.9997 C   0  0  2  0  0  0  0  0  0  0  0  0
    7.4996    4.0575    3.2374 O   0  0  0  0  0  0  0  0  0  0  0  0
    4.3657    8.9741    0.2200 C   0  0  2  0  0  0  0  0  0  0  0  0
    3.4520    8.7218    1.2867 O   0  0  0  0  0  0  0  0  0  0  0  0
    6.4605    0.7570    3.9154 C   0  0  2  0  0  0  0  0  0  0  0  0
    7.1717    1.2217    5.1063 O   0  0  0  0  0  0  0  0  0  0  0  0
   10.0888    2.7891    5.0018 C   0  0  2  0  0  0  0  0  0  0  0  0
    9.6708    3.1529    3.6574 O   0  0  0  0  0  0  0  0  0  0  0  0
    6.7512    3.3745    0.9922 C   0  0  0  0  0  0  0  0  0  0  0  0
    7.9886    2.7150    0.7418 O   0  0  0  0  0  0  0  0  0  0  0  0
    4.9375    7.6172   -0.3406 C   0  0  1  0  0  0  0  0  0  0  0  0
    5.6575    6.9836    0.7777 O   0  0  0  0  0  0  0  0  0  0  0  0
    5.3207    1.7052    3.6229 C   0  0  0  0  0  0  0  0  0  0  0  0
    4.6455    1.3061    2.4550 O   0  0  0  0  0  0  0  0  0  0  0  0
   11.2906    3.7050    5.4840 C   0  0  1  0  0  0  0  0  0  0  0  0
   10.8302    5.0378    5.7232 O   0  0  0  0  0  0  0  0  0  0  0  0
    3.8264    6.6313   -0.9079 C   0  0  0  0  0  0  0  0  0  0  0  0
    2.7743    6.2226    0.0630 N   0  0  0  0  0  0  0  0  0  0  0  0
  1  2  1  6  0  0  0
  1  7  1  0  0  0  0
  1 30  1  0  0  0  0
  3  4  1  6  0  0  0
  3  9  1  0  0  0  0
  3 39  1  0  0  0  0
  5 10  1  0  0  0  0
  5 26  1  0  0  0  0
  5 32  1  6  0  0  0
  6 12  1  0  0  0  0
  6 36  1  0  0  0  0
  6 19  1  1  0  0  0
  7  8  1  6  0  0  0
  7 14  1  0  0  0  0
  9 16  1  0  0  0  0
 10 11  1  1  0  0  0
 10 18  1  0  0  0  0
 12 13  1  1  0  0  0
 12 20  1  0  0  0  0
 14 15  1  1  0  0  0
 14 22  1  0  0  0  0
 16 17  1  6  0  0  0
 16 24  1  0  0  0  0
 18 19  1  1  0  0  0
 18 25  1  0  0  0  0
 20 21  1  6  0  0  0
 20 27  1  0  0  0  0
 22 23  1  6  0  0  0
 22 29  1  0  0  0  0
 24  2  1  1  0  0  0
 24 31  1  0  0  0  0
 25 26  1  0  0  0  0
 25 33  1  6  0  0  0
 27 28  1  1  0  0  0
 27 35  1  0  0  0  0
 29 30  1  0  0  0  0
 29 37  1  1  0  0  0
 31 32  1  6  0  0  0
 31 39  1  0  0  0  0
 33 34  1  0  0  0  0
 35 36  1  0  0  0  0
 35 41  1  1  0  0  0
 37 38  1  0  0  0  0
 39 40  1  1  0  0  0
 41 42  1  0  0  0  0
M  END
>  <CHROM.1>
-135.30220540,139.94965305,175.55781660,151.82890040,59.78669585,56.25466264
-60.03267855,165.79102257,-58.72606184,7.73838034,3.69783867,3.23550244,1.09778824
0.51073414,2.85075782

>  <Name>
2o3w_lig

>  <RI>
0

>  <Rbt.Current_Directory>
/home/itssahil/PROJECTS/Mol_Feturizer/New_Systems/rnas/2o3w

>  <Rbt.Executable>
rbdock ($Id: //depot/dev/client3/rdock/2013.1/src/exe/rbdock.cxx#4 $)

>  <Rbt.Library>
libRbt.so (2013.1, Build901 2013/11/27)

>  <Rbt.Parameter_File>
/export/apps/rDock/src/rDock_2013.1_src/data/scripts/dock_solv.prm

>  <Rbt.Receptor>
prm/pocket_docking_2.prm

>  <SCORE>
-7.87118

>  <SCORE.INTER>
-3.49085

>  <SCORE.INTER.CONST>
1

>  <SCORE.INTER.POLAR>
-1

>  <SCORE.INTER.ROT>
9

>  <SCORE.INTER.SOLV>
8.17617

>  <SCORE.INTER.VDW>
-11.3193

>  <SCORE.INTER.norm>
-0.0831155

>  <SCORE.INTRA>
-5.16518

>  <SCORE.INTRA.DIHEDRAL>
-11.8886

>  <SCORE.INTRA.DIHEDRAL.0>
27.8999

>  <SCORE.INTRA.POLAR>
0

>  <SCORE.INTRA.POLAR.0>
0

>  <SCORE.INTRA.REPUL>
0

>  <SCORE.INTRA.REPUL.0>
0

>  <SCORE.INTRA.SOLV>
0.362314

>  <SCORE.INTRA.SOLV.lig_0>
-104.479

>  <SCORE.INTRA.VDW>
0.59797

>  <SCORE.INTRA.VDW.0>
-6.17816

>  <SCORE.INTRA.norm>
-0.122981

>  <SCORE.RESTR>
0.784851

>  <SCORE.RESTR.CAVITY>
0.784851

>  <SCORE.RESTR.norm>
0.0186869

>  <SCORE.SYSTEM>
0

>  <SCORE.SYSTEM.CONST>
0

>  <SCORE.SYSTEM.DIHEDRAL>
0

>  <SCORE.SYSTEM.SOLV>
0

>  <SCORE.SYSTEM.norm>
0

>  <SCORE.heavy>
42

>  <SCORE.norm>
-0.187409

>  <RMSD>
2.368

$$$$
2o3w_lig
 OpenBabel11021811463D
libRbt.so/2013.1/901 2013/11/27
 42 45  0  0  0  0  0  0  0  0999 V2000
    8.6215   -0.4805    5.0490 C   0  0  2  0  0  0  0  0  0  0  0  0
    9.5966    0.1066    4.1705 O   0  0  0  0  0  0  0  0  0  0  0  0
   11.1619    3.0851    6.9045 C   0  0  2  0  0  0  0  0  0  0  0  0
   12.0004    4.1566    7.5202 N   0  0  0  0  0  0  0  0  0  0  0  0
    8.8079    4.0774    3.0837 C   0  0  1  0  0  0  0  0  0  0  0  0
    6.5723    7.2602    0.9444 C   0  0  1  0  0  0  0  0  0  0  0  0
    8.0662   -1.7471    4.3309 C   0  0  2  0  0  0  0  0  0  0  0  0
    9.1370   -2.6247    3.8274 N   0  0  0  0  0  0  0  0  0  0  0  0
   11.9816    1.7435    6.7308 C   0  0  0  0  0  0  0  0  0  0  0  0
    9.0747    4.5012    1.6072 C   0  0  2  0  0  0  0  0  0  0  0  0
   10.2212    5.3714    1.4419 O   0  0  0  0  0  0  0  0  0  0  0  0
    6.5294    8.7867    1.3142 C   0  0  2  0  0  0  0  0  0  0  0  0
    6.5421    8.9772    2.7956 N   0  0  0  0  0  0  0  0  0  0  0  0
    7.1778   -1.3923    3.1243 C   0  0  1  0  0  0  0  0  0  0  0  0
    6.6597   -2.5796    2.5219 O   0  0  0  0  0  0  0  0  0  0  0  0
   11.0406    0.6486    6.0997 C   0  0  2  0  0  0  0  0  0  0  0  0
   11.7768   -0.6338    5.9352 N   0  0  0  0  0  0  0  0  0  0  0  0
    7.7234    5.1059    1.2230 C   0  0  2  0  0  0  0  0  0  0  0  0
    7.6746    6.5398    1.5097 O   0  0  0  0  0  0  0  0  0  0  0  0
    5.2279    9.4530    0.6594 C   0  0  1  0  0  0  0  0  0  0  0  0
    5.4363    9.5838   -0.7648 O   0  0  0  0  0  0  0  0  0  0  0  0
    6.0416   -0.4488    3.5803 C   0  0  2  0  0  0  0  0  0  0  0  0
    5.2091   -0.1279    2.4901 O   0  0  0  0  0  0  0  0  0  0  0  0
   10.4906    1.1276    4.6983 C   0  0  2  0  0  0  0  0  0  0  0  0
    6.6681    4.3386    2.0371 C   0  0  2  0  0  0  0  0  0  0  0  0
    7.3716    3.9899    3.2270 O   0  0  0  0  0  0  0  0  0  0  0  0
    3.8935    8.6083    0.9305 C   0  0  2  0  0  0  0  0  0  0  0  0
    3.5894    8.7173    2.3204 O   0  0  0  0  0  0  0  0  0  0  0  0
    6.6693    0.8457    4.1966 C   0  0  2  0  0  0  0  0  0  0  0  0
    7.5357    0.4859    5.3190 O   0  0  0  0  0  0  0  0  0  0  0  0
    9.7245    2.4661    4.7813 C   0  0  2  0  0  0  0  0  0  0  0  0
    9.4589    2.8404    3.4015 O   0  0  0  0  0  0  0  0  0  0  0  0
    6.0893    3.0709    1.3354 C   0  0  0  0  0  0  0  0  0  0  0  0
    7.1325    2.1193    1.1481 O   0  0  0  0  0  0  0  0  0  0  0  0
    4.1018    7.0977    0.5347 C   0  0  1  0  0  0  0  0  0  0  0  0
    5.2520    6.6230    1.3234 O   0  0  0  0  0  0  0  0  0  0  0  0
    5.6249    1.8264    4.6772 C   0  0  0  0  0  0  0  0  0  0  0  0
    4.6952    2.0852    3.6535 O   0  0  0  0  0  0  0  0  0  0  0  0
   10.6146    3.5644    5.5004 C   0  0  1  0  0  0  0  0  0  0  0  0
    9.8523    4.7558    5.7126 O   0  0  0  0  0  0  0  0  0  0  0  0
    2.8335    6.1769    0.8035 C   0  0  0  0  0  0  0  0  0  0  0  0
    1.6088    6.5302    0.0342 N   0  0  0  0  0  0  0  0  0  0  0  0
  1  2  1  6  0  0  0
  1  7  1  0  0  0  0
  1 30  1  0  0  0  0
  3  4  1  6  0  0  0
  3  9  1  0  0  0  0
  3 39  1  0  0  0  0
  5 10  1  0  0  0  0
  5 26  1  0  0  0  0
  5 32  1  6  0  0  0
  6 12  1  0  0  0  0
  6 36  1  0  0  0  0
  6 19  1  1  0  0  0
  7  8  1  6  0  0  0
  7 14  1  0  0  0  0
  9 16  1  0  0  0  0
 10 11  1  1  0  0  0
 10 18  1  0  0  0  0
 12 13  1  1  0  0  0
 12 20  1  0  0  0  0
 14 15  1  1  0  0  0
 14 22  1  0  0  0  0
 16 17  1  6  0  0  0
 16 24  1  0  0  0  0
 18 19  1  1  0  0  0
 18 25  1  0  0  0  0
 20 21  1  6  0  0  0
 20 27  1  0  0  0  0
 22 23  1  6  0  0  0
 22 29  1  0  0  0  0
 24  2  1  1  0  0  0
 24 31  1  0  0  0  0
 25 26  1  0  0  0  0
 25 33  1  6  0  0  0
 27 28  1  1  0  0  0
 27 35  1  0  0  0  0
 29 30  1  0  0  0  0
 29 37  1  1  0  0  0
 31 32  1  6  0  0  0
 31 39  1  0  0  0  0
 33 34  1  0  0  0  0
 35 36  1  0  0  0  0
 35 41  1  1  0  0  0
 37 38  1  0  0  0  0
 39 40  1  1  0  0  0
 41 42  1  0  0  0  0
M  END
>  <CHROM.1>
-166.50219900,159.82032760,178.06899739,167.64021943,45.16669826,63.77094167
-52.11132090,-177.10813783,62.35970038,7.48413740,3.49571080,3.11341955,1.00525886
0.53448299,2.97088784

>  <Name>
2o3w_lig

>  <RI>
0

>  <Rbt.Current_Directory>
/home/itssahil/PROJECTS/Mol_Feturizer/New_Systems/rnas/2o3w

>  <Rbt.Executable>
rbdock ($Id: //depot/dev/client3/rdock/2013.1/src/exe/rbdock.cxx#4 $)

>  <Rbt.Library>
libRbt.so (2013.1, Build901 2013/11/27)

>  <Rbt.Parameter_File>
/export/apps/rDock/src/rDock_2013.1_src/data/scripts/dock_solv.prm

>  <Rbt.Receptor>
prm/pocket_docking_2.prm

>  <SCORE>
-9.17767

>  <SCORE.INTER>
1.72478

>  <SCORE.INTER.CONST>
1

>  <SCORE.INTER.POLAR>
0

>  <SCORE.INTER.ROT>
9

>  <SCORE.INTER.SOLV>
6.71281

>  <SCORE.INTER.VDW>
-10.6878

>  <SCORE.INTER.norm>
0.0410661

>  <SCORE.INTRA>
-11.1647

>  <SCORE.INTRA.DIHEDRAL>
-22.9591

>  <SCORE.INTRA.DIHEDRAL.0>
27.8999

>  <SCORE.INTRA.POLAR>
0

>  <SCORE.INTRA.POLAR.0>
0

>  <SCORE.INTRA.REPUL>
0

>  <SCORE.INTRA.REPUL.0>
0

>  <SCORE.INTRA.SOLV>
-1.9538

>  <SCORE.INTRA.SOLV.lig_0>
-104.479

>  <SCORE.INTRA.VDW>
1.29171

>  <SCORE.INTRA.VDW.0>
-6.17816

>  <SCORE.INTRA.norm>
-0.265827

>  <SCORE.RESTR>
0.262275

>  <SCORE.RESTR.CAVITY>
0.262275

>  <SCORE.RESTR.norm>
0.00624464

>  <SCORE.SYSTEM>
0

>  <SCORE.SYSTEM.CONST>
0

>  <SCORE.SYSTEM.DIHEDRAL>
0

>  <SCORE.SYSTEM.SOLV>
0

>  <SCORE.SYSTEM.norm>
0

>  <SCORE.heavy>
42

>  <SCORE.norm>
-0.218516

>  <RMSD>
2.381

$$$$
2o3w_lig
 OpenBabel11021811463D
libRbt.so/2013.1/901 2013/11/27
 42 45  0  0  0  0  0  0  0  0999 V2000
    7.4561   -0.9951    5.0051 C   0  0  2  0  0  0  0  0  0  0  0  0
    8.1301   -0.5100    3.8314 O   0  0  0  0  0  0  0  0  0  0  0  0
   10.3553    2.6874    5.7343 C   0  0  2  0  0  0  0  0  0  0  0  0
   11.2632    3.8491    5.9723 N   0  0  0  0  0  0  0  0  0  0  0  0
    7.2352    3.5255    2.7604 C   0  0  1  0  0  0  0  0  0  0  0  0
    6.2847    7.0936    0.4958 C   0  0  1  0  0  0  0  0  0  0  0  0
    7.5430   -2.5506    4.9695 C   0  0  2  0  0  0  0  0  0  0  0  0
    8.9142   -3.0332    4.7300 N   0  0  0  0  0  0  0  0  0  0  0  0
   11.1634    1.4177    5.2478 C   0  0  0  0  0  0  0  0  0  0  0  0
    7.9702    3.8221    1.4177 C   0  0  2  0  0  0  0  0  0  0  0  0
    9.3040    4.3631    1.5831 O   0  0  0  0  0  0  0  0  0  0  0  0
    6.7022    8.5979    0.6732 C   0  0  2  0  0  0  0  0  0  0  0  0
    6.9478    8.9173    2.1115 N   0  0  0  0  0  0  0  0  0  0  0  0
    6.6580   -3.1602    3.8668 C   0  0  1  0  0  0  0  0  0  0  0  0
    6.7377   -4.5863    3.8967 O   0  0  0  0  0  0  0  0  0  0  0  0
   10.1579    0.2232    5.0360 C   0  0  2  0  0  0  0  0  0  0  0  0
   10.8876   -0.9946    4.5911 N   0  0  0  0  0  0  0  0  0  0  0  0
    6.9636    4.7420    0.7250 C   0  0  2  0  0  0  0  0  0  0  0  0
    7.2117    6.1482    1.0439 O   0  0  0  0  0  0  0  0  0  0  0  0
    5.5593    9.5395    0.0617 C   0  0  1  0  0  0  0  0  0  0  0  0
    5.6188    9.4698   -1.3807 O   0  0  0  0  0  0  0  0  0  0  0  0
    5.2022   -2.6725    4.0457 C   0  0  2  0  0  0  0  0  0  0  0  0
    4.3755   -3.2352    3.0535 O   0  0  0  0  0  0  0  0  0  0  0  0
    9.0590    0.6032    3.9665 C   0  0  2  0  0  0  0  0  0  0  0  0
    5.5751    4.2963    1.2136 C   0  0  2  0  0  0  0  0  0  0  0  0
    5.8373    3.8144    2.5295 O   0  0  0  0  0  0  0  0  0  0  0  0
    4.0899    9.1364    0.5576 C   0  0  2  0  0  0  0  0  0  0  0  0
    3.9998    9.4588    1.9449 O   0  0  0  0  0  0  0  0  0  0  0  0
    5.1742   -1.1096    3.9678 C   0  0  2  0  0  0  0  0  0  0  0  0
    6.0463   -0.5499    5.0003 O   0  0  0  0  0  0  0  0  0  0  0  0
    8.2646    1.8714    4.3486 C   0  0  2  0  0  0  0  0  0  0  0  0
    7.4442    2.1728    3.1865 O   0  0  0  0  0  0  0  0  0  0  0  0
    4.8907    3.1995    0.3402 C   0  0  0  0  0  0  0  0  0  0  0  0
    5.6987    2.0265    0.3398 O   0  0  0  0  0  0  0  0  0  0  0  0
    3.8315    7.5980    0.3374 C   0  0  1  0  0  0  0  0  0  0  0  0
    4.8981    6.8948    1.0710 O   0  0  0  0  0  0  0  0  0  0  0  0
    3.7835   -0.5436    4.1400 C   0  0  0  0  0  0  0  0  0  0  0  0
    2.9609   -0.9453    3.0717 O   0  0  0  0  0  0  0  0  0  0  0  0
    9.2578    3.0678    4.6613 C   0  0  1  0  0  0  0  0  0  0  0  0
    8.5315    4.1944    5.1602 O   0  0  0  0  0  0  0  0  0  0  0  0
    2.4044    7.1033    0.8346 C   0  0  0  0  0  0  0  0  0  0  0  0
    1.2360    7.7173    0.1458 N   0  0  0  0  0  0  0  0  0  0  0  0
  1  2  1  6  0  0  0
  1  7  1  0  0  0  0
  1 30  1  0  0  0  0
  3  4  1  6  0  0  0
  3  9  1  0  0  0  0
  3 39  1  0  0  0  0
  5 10  1  0  0  0  0
  5 26  1  0  0  0  0
  5 32  1  6  0  0  0
  6 12  1  0  0  0  0
  6 36  1  0  0  0  0
  6 19  1  1  0  0  0
  7  8  1  6  0  0  0
  7 14  1  0  0  0  0
  9 16  1  0  0  0  0
 10 11  1  1  0  0  0
 10 18  1  0  0  0  0
 12 13  1  1  0  0  0
 12 20  1  0  0  0  0
 14 15  1  1  0  0  0
 14 22  1  0  0  0  0
 16 17  1  6  0  0  0
 16 24  1  0  0  0  0
 18 19  1  1  0  0  0
 18 25  1  0  0  0  0
 20 21  1  6  0  0  0
 20 27  1  0  0  0  0
 22 23  1  6  0  0  0
 22 29  1  0  0  0  0
 24  2  1  1  0  0  0
 24 31  1  0  0  0  0
 25 26  1  0  0  0  0
 25 33  1  6  0  0  0
 27 28  1  1  0  0  0
 27 35  1  0  0  0  0
 29 30  1  0  0  0  0
 29 37  1  1  0  0  0
 31 32  1  6  0  0  0
 31 39  1  0  0  0  0
 33 34  1  0  0  0  0
 35 36  1  0  0  0  0
 35 41  1  1  0  0  0
 37 38  1  0  0  0  0
 39 40  1  1  0  0  0
 41 42  1  0  0  0  0
M  END
>  <CHROM.1>
-134.64126773,109.99988537,-171.12097397,-177.15324718,56.08068714,61.15130402
-64.75779732,-140.80943676,62.14396844,6.67178204,2.91197069,2.75194028,-1.31456413
-0.39605401,-0.27634279

>  <Name>
2o3w_lig

>  <RI>
0

>  <Rbt.Current_Directory>
/home/itssahil/PROJECTS/Mol_Feturizer/New_Systems/rnas/2o3w

>  <Rbt.Executable>
rbdock ($Id: //depot/dev/client3/rdock/2013.1/src/exe/rbdock.cxx#4 $)

>  <Rbt.Library>
libRbt.so (2013.1, Build901 2013/11/27)

>  <Rbt.Parameter_File>
/export/apps/rDock/src/rDock_2013.1_src/data/scripts/dock_solv.prm

>  <Rbt.Receptor>
prm/pocket_docking_2.prm

>  <SCORE>
1.51869

>  <SCORE.INTER>
2.78728

>  <SCORE.INTER.CONST>
1

>  <SCORE.INTER.POLAR>
0

>  <SCORE.INTER.ROT>
9

>  <SCORE.INTER.SOLV>
7.59705

>  <SCORE.INTER.VDW>
-10.2742

>  <SCORE.INTER.norm>
0.0663638

>  <SCORE.INTRA>
-1.58307

>  <SCORE.INTRA.DIHEDRAL>
-8.99269

>  <SCORE.INTRA.DIHEDRAL.0>
27.8999

>  <SCORE.INTRA.POLAR>
0

>  <SCORE.INTRA.POLAR.0>
0

>  <SCORE.INTRA.REPUL>
0

>  <SCORE.INTRA.REPUL.0>
0

>  <SCORE.INTRA.SOLV>
-1.36268

>  <SCORE.INTRA.SOLV.lig_0>
-104.479

>  <SCORE.INTRA.VDW>
3.59462

>  <SCORE.INTRA.VDW.0>
-6.17816

>  <SCORE.INTRA.norm>
-0.037692

>  <SCORE.RESTR>
0.314481

>  <SCORE.RESTR.CAVITY>
0.314481

>  <SCORE.RESTR.norm>
0.00748764

>  <SCORE.SYSTEM>
0

>  <SCORE.SYSTEM.CONST>
0

>  <SCORE.SYSTEM.DIHEDRAL>
0

>  <SCORE.SYSTEM.SOLV>
0

>  <SCORE.SYSTEM.norm>
0

>  <SCORE.heavy>
42

>  <SCORE.norm>
0.0361594

>  <RMSD>
2.386

$$$$
2o3w_lig
 OpenBabel11021811463D
libRbt.so/2013.1/901 2013/11/27
 42 45  0  0  0  0  0  0  0  0999 V2000
    7.4032    1.6536    3.4468 C   0  0  2  0  0  0  0  0  0  0  0  0
    7.9991    1.9028    4.7313 O   0  0  0  0  0  0  0  0  0  0  0  0
   11.6628    3.9843    5.7519 C   0  0  2  0  0  0  0  0  0  0  0  0
   13.1004    4.3747    5.8577 N   0  0  0  0  0  0  0  0  0  0  0  0
    9.0809    4.2608    1.7330 C   0  0  1  0  0  0  0  0  0  0  0  0
    7.1442    6.7150   -1.2880 C   0  0  1  0  0  0  0  0  0  0  0  0
    5.8740    1.4687    3.6828 C   0  0  2  0  0  0  0  0  0  0  0  0
    5.2945    2.5506    4.4979 N   0  0  0  0  0  0  0  0  0  0  0  0
   11.3957    2.5855    6.4402 C   0  0  0  0  0  0  0  0  0  0  0  0
    8.8221    3.7046    0.2996 C   0  0  2  0  0  0  0  0  0  0  0  0
    9.9929    3.7075   -0.5539 O   0  0  0  0  0  0  0  0  0  0  0  0
    7.5618    7.5812   -2.5306 C   0  0  2  0  0  0  0  0  0  0  0  0
    8.8289    8.3247   -2.2610 N   0  0  0  0  0  0  0  0  0  0  0  0
    5.5495    0.1468    4.4027 C   0  0  1  0  0  0  0  0  0  0  0  0
    4.1374    0.0010    4.5622 O   0  0  0  0  0  0  0  0  0  0  0  0
    9.8635    2.2399    6.3161 C   0  0  2  0  0  0  0  0  0  0  0  0
    9.5732    0.9341    6.9673 N   0  0  0  0  0  0  0  0  0  0  0  0
    7.6656    4.5939   -0.1597 C   0  0  2  0  0  0  0  0  0  0  0  0
    8.1486    5.7992   -0.8340 O   0  0  0  0  0  0  0  0  0  0  0  0
    6.3707    8.5879   -2.8976 C   0  0  1  0  0  0  0  0  0  0  0  0
    5.2976    7.8384   -3.5104 O   0  0  0  0  0  0  0  0  0  0  0  0
    6.1529   -1.0342    3.6089 C   0  0  2  0  0  0  0  0  0  0  0  0
    5.8502   -2.2535    4.2462 O   0  0  0  0  0  0  0  0  0  0  0  0
    9.4262    2.1845    4.7990 C   0  0  2  0  0  0  0  0  0  0  0  0
    6.8709    4.9458    1.1091 C   0  0  2  0  0  0  0  0  0  0  0  0
    7.8723    4.9519    2.1238 O   0  0  0  0  0  0  0  0  0  0  0  0
    5.8109    9.3804   -1.6224 C   0  0  2  0  0  0  0  0  0  0  0  0
    6.8245   10.2934   -1.2034 O   0  0  0  0  0  0  0  0  0  0  0  0
    7.7016   -0.8373    3.4988 C   0  0  2  0  0  0  0  0  0  0  0  0
    7.9899    0.4382    2.8432 O   0  0  0  0  0  0  0  0  0  0  0  0
    9.7101    3.5024    4.0454 C   0  0  2  0  0  0  0  0  0  0  0  0
    9.4245    3.2132    2.6492 O   0  0  0  0  0  0  0  0  0  0  0  0
    5.7205    3.9525    1.4619 C   0  0  0  0  0  0  0  0  0  0  0  0
    4.7693    3.9388    0.4018 O   0  0  0  0  0  0  0  0  0  0  0  0
    5.4616    8.3807   -0.4560 C   0  0  1  0  0  0  0  0  0  0  0  0
    6.7002    7.6358   -0.1708 O   0  0  0  0  0  0  0  0  0  0  0  0
    8.3759   -1.9488    2.7283 C   0  0  0  0  0  0  0  0  0  0  0  0
    9.7649   -1.7309    2.6784 O   0  0  0  0  0  0  0  0  0  0  0  0
   11.2270    3.9261    4.2329 C   0  0  1  0  0  0  0  0  0  0  0  0
   11.4521    5.2190    3.6643 O   0  0  0  0  0  0  0  0  0  0  0  0
    4.9289    9.0875    0.8650 C   0  0  0  0  0  0  0  0  0  0  0  0
    4.6301    8.1773    2.0047 N   0  0  0  0  0  0  0  0  0  0  0  0
  1  2  1  1  0  0  0
  1  7  1  0  0  0  0
  1 30  1  0  0  0  0
  3  4  1  6  0  0  0
  3  9  1  0  0  0  0
  3 39  1  0  0  0  0
  5 10  1  0  0  0  0
  5 26  1  0  0  0  0
  5 32  1  1  0  0  0
  6 12  1  0  0  0  0
  6 36  1  0  0  0  0
  6 19  1  1  0  0  0
  7  8  1  1  0  0  0
  7 14  1  0  0  0  0
  9 16  1  0  0  0  0
 10 11  1  6  0  0  0
 10 18  1  0  0  0  0
 12 13  1  1  0  0  0
 12 20  1  0  0  0  0
 14 15  1  6  0  0  0
 14 22  1  0  0  0  0
 16 17  1  6  0  0  0
 16 24  1  0  0  0  0
 18 19  1  1  0  0  0
 18 25  1  0  0  0  0
 20 21  1  1  0  0  0
 20 27  1  0  0  0  0
 22 23  1  1  0  0  0
 22 29  1  0  0  0  0
 24  2  1  1  0  0  0
 24 31  1  0  0  0  0
 25 26  1  0  0  0  0
 25 33  1  1  0  0  0
 27 28  1  1  0  0  0
 27 35  1  0  0  0  0
 29 30  1  0  0  0  0
 29 37  1  6  0  0  0
 31 32  1  6  0  0  0
 31 39  1  0  0  0  0
 33 34  1  0  0  0  0
 35 36  1  0  0  0  0
 35 41  1  1  0  0  0
 37 38  1  0  0  0  0
 39 40  1  1  0  0  0
 41 42  1  0  0  0  0
M  END
>  <CHROM.1>
-176.81931811,179.93420802,-152.33443173,-179.07417319,-172.95789845,-61.33925440
-179.11830637,156.10302312,-178.09924657,7.78416980,3.89919883,2.07649387
1.34534085,0.48957647,2.58523341

>  <Name>
2o3w_lig

>  <RI>
0

>  <Rbt.Current_Directory>
/home/itssahil/PROJECTS/Mol_Feturizer/New_Systems/rnas/2o3w

>  <Rbt.Executable>
rbdock ($Id: //depot/dev/client3/rdock/2013.1/src/exe/rbdock.cxx#4 $)

>  <Rbt.Library>
libRbt.so (2013.1, Build901 2013/11/27)

>  <Rbt.Parameter_File>
/export/apps/rDock/src/rDock_2013.1_src/data/scripts/dock_solv.prm

>  <Rbt.Receptor>
prm/pocket_docking_4.prm

>  <SCORE>
-25.0911

>  <SCORE.INTER>
-13.4191

>  <SCORE.INTER.CONST>
1

>  <SCORE.INTER.POLAR>
-2.62001

>  <SCORE.INTER.ROT>
9

>  <SCORE.INTER.SOLV>
16.0128

>  <SCORE.INTER.VDW>
-15.1503

>  <SCORE.INTER.norm>
-0.319503

>  <SCORE.INTRA>
-11.8457

>  <SCORE.INTRA.DIHEDRAL>
-21.8523

>  <SCORE.INTRA.DIHEDRAL.0>
27.8999

>  <SCORE.INTRA.POLAR>
0

>  <SCORE.INTRA.POLAR.0>
0

>  <SCORE.INTRA.REPUL>
0

>  <SCORE.INTRA.REPUL.0>
0

>  <SCORE.INTRA.SOLV>
-4.82654

>  <SCORE.INTRA.SOLV.lig_0>
-104.479

>  <SCORE.INTRA.VDW>
1.4937

>  <SCORE.INTRA.VDW.0>
-6.17816

>  <SCORE.INTRA.norm>
-0.282042

>  <SCORE.RESTR>
0.173743

>  <SCORE.RESTR.CAVITY>
0.173743

>  <SCORE.RESTR.norm>
0.00413674

>  <SCORE.SYSTEM>
0

>  <SCORE.SYSTEM.CONST>
0

>  <SCORE.SYSTEM.DIHEDRAL>
0

>  <SCORE.SYSTEM.SOLV>
0

>  <SCORE.SYSTEM.norm>
0

>  <SCORE.heavy>
42

>  <SCORE.norm>
-0.597408

>  <RMSD>
2.510

$$$$
2o3w_lig
 OpenBabel11021811463D
libRbt.so/2013.1/901 2013/11/27
 42 45  0  0  0  0  0  0  0  0999 V2000
    8.5117   -1.3987    3.1150 C   0  0  2  0  0  0  0  0  0  0  0  0
    9.4838   -0.7182    2.3031 O   0  0  0  0  0  0  0  0  0  0  0  0
   11.3060    1.6947    5.4101 C   0  0  2  0  0  0  0  0  0  0  0  0
   12.2296    2.6002    6.1567 N   0  0  0  0  0  0  0  0  0  0  0  0
    9.1013    3.4678    1.8471 C   0  0  1  0  0  0  0  0  0  0  0  0
    7.1361    7.1766    0.5379 C   0  0  1  0  0  0  0  0  0  0  0  0
    7.6592   -2.2846    2.1575 C   0  0  2  0  0  0  0  0  0  0  0  0
    8.4902   -3.1103    1.2641 N   0  0  0  0  0  0  0  0  0  0  0  0
   12.0246    0.3429    5.0126 C   0  0  0  0  0  0  0  0  0  0  0  0
    9.1281    3.9543    0.3661 C   0  0  2  0  0  0  0  0  0  0  0  0
   10.3700    4.5912   -0.0226 O   0  0  0  0  0  0  0  0  0  0  0  0
    7.5285    8.6587    0.8818 C   0  0  2  0  0  0  0  0  0  0  0  0
    8.1111    8.7516    2.2539 N   0  0  0  0  0  0  0  0  0  0  0  0
    6.7335   -1.4472    1.2560 C   0  0  1  0  0  0  0  0  0  0  0  0
    5.9441   -2.3000    0.4250 O   0  0  0  0  0  0  0  0  0  0  0  0
   10.9968   -0.5764    4.2503 C   0  0  2  0  0  0  0  0  0  0  0  0
   11.6365   -1.8656    3.8731 N   0  0  0  0  0  0  0  0  0  0  0  0
    7.8855    4.8450    0.3234 C   0  0  2  0  0  0  0  0  0  0  0  0
    8.2045    6.2306    0.6688 O   0  0  0  0  0  0  0  0  0  0  0  0
    6.2354    9.5942    0.7411 C   0  0  1  0  0  0  0  0  0  0  0  0
    5.9377    9.7718   -0.6621 O   0  0  0  0  0  0  0  0  0  0  0  0
    5.8461   -0.5353    2.1336 C   0  0  2  0  0  0  0  0  0  0  0  0
    4.9806    0.2260    1.3237 O   0  0  0  0  0  0  0  0  0  0  0  0
   10.4576    0.1472    2.9535 C   0  0  2  0  0  0  0  0  0  0  0  0
    6.8917    4.2354    1.3265 C   0  0  2  0  0  0  0  0  0  0  0  0
    7.7442    3.6545    2.3104 O   0  0  0  0  0  0  0  0  0  0  0  0
    4.9510    8.9967    1.4900 C   0  0  2  0  0  0  0  0  0  0  0  0
    5.1959    9.0741    2.8937 O   0  0  0  0  0  0  0  0  0  0  0  0
    6.7641    0.3977    2.9917 C   0  0  2  0  0  0  0  0  0  0  0  0
    7.6587   -0.4152    3.8156 O   0  0  0  0  0  0  0  0  0  0  0  0
    9.7906    1.5062    3.2595 C   0  0  2  0  0  0  0  0  0  0  0  0
    9.5280    2.1040    1.9603 O   0  0  0  0  0  0  0  0  0  0  0  0
    5.9204    3.1717    0.7269 C   0  0  0  0  0  0  0  0  0  0  0  0
    4.8294    2.9738    1.6210 O   0  0  0  0  0  0  0  0  0  0  0  0
    4.7033    7.5011    1.0613 C   0  0  1  0  0  0  0  0  0  0  0  0
    5.9439    6.7733    1.3800 O   0  0  0  0  0  0  0  0  0  0  0  0
    5.9758    1.3234    3.8890 C   0  0  0  0  0  0  0  0  0  0  0  0
    5.1787    0.5767    4.7757 O   0  0  0  0  0  0  0  0  0  0  0  0
   10.7695    2.4188    4.1108 C   0  0  1  0  0  0  0  0  0  0  0  0
   10.0981    3.6128    4.5221 O   0  0  0  0  0  0  0  0  0  0  0  0
    3.4635    6.8169    1.7848 C   0  0  0  0  0  0  0  0  0  0  0  0
    3.5644    6.7076    3.2661 N   0  0  0  0  0  0  0  0  0  0  0  0
  1  2  1  6  0  0  0
  1  7  1  0  0  0  0
  1 30  1  0  0  0  0
  3  4  1  6  0  0  0
  3  9  1  0  0  0  0
  3 39  1  0  0  0  0
  5 10  1  0  0  0  0
  5 26  1  0  0  0  0
  5 32  1  6  0  0  0
  6 12  1  0  0  0  0
  6 36  1  0  0  0  0
  6 19  1  1  0  0  0
  7  8  1  6  0  0  0
  7 14  1  0  0  0  0
  9 16  1  0  0  0  0
 10 11  1  1  0  0  0
 10 18  1  0  0  0  0
 12 13  1  1  0  0  0
 12 20  1  0  0  0  0
 14 15  1  1  0  0  0
 14 22  1  0  0  0  0
 16 17  1  6  0  0  0
 16 24  1  0  0  0  0
 18 19  1  1  0  0  0
 18 25  1  0  0  0  0
 20 21  1  6  0  0  0
 20 27  1  0  0  0  0
 22 23  1  6  0  0  0
 22 29  1  0  0  0  0
 24  2  1  1  0  0  0
 24 31  1  0  0  0  0
 25 26  1  0  0  0  0
 25 33  1  6  0  0  0
 27 28  1  1  0  0  0
 27 35  1  0  0  0  0
 29 30  1  0  0  0  0
 29 37  1  1  0  0  0
 31 32  1  6  0  0  0
 31 39  1  0  0  0  0
 33 34  1  0  0  0  0
 35 36  1  0  0  0  0
 35 41  1  1  0  0  0
 37 38  1  0  0  0  0
 39 40  1  1  0  0  0
 41 42  1  0  0  0  0
M  END
>  <CHROM.1>
-177.62398459,169.91454435,-178.47651074,174.34225025,43.19900158,-163.38778697
59.80098680,-170.14981512,-61.95811975,7.70284166,3.08770958,2.26973932,1.21399800
0.35778373,3.05438345

>  <Name>
2o3w_lig

>  <RI>
0

>  <Rbt.Current_Directory>
/home/itssahil/PROJECTS/Mol_Feturizer/New_Systems/rnas/2o3w

>  <Rbt.Executable>
rbdock ($Id: //depot/dev/client3/rdock/2013.1/src/exe/rbdock.cxx#4 $)

>  <Rbt.Library>
libRbt.so (2013.1, Build901 2013/11/27)

>  <Rbt.Parameter_File>
/export/apps/rDock/src/rDock_2013.1_src/data/scripts/dock_solv.prm

>  <Rbt.Receptor>
prm/pocket_docking_4.prm

>  <SCORE>
-16.3337

>  <SCORE.INTER>
-4.43737

>  <SCORE.INTER.CONST>
1

>  <SCORE.INTER.POLAR>
0

>  <SCORE.INTER.ROT>
9

>  <SCORE.INTER.SOLV>
12.2989

>  <SCORE.INTER.VDW>
-16.6579

>  <SCORE.INTER.norm>
-0.105652

>  <SCORE.INTRA>
-11.8964

>  <SCORE.INTRA.DIHEDRAL>
-24.3806

>  <SCORE.INTRA.DIHEDRAL.0>
27.8999

>  <SCORE.INTRA.POLAR>
0

>  <SCORE.INTRA.POLAR.0>
0

>  <SCORE.INTRA.REPUL>
0

>  <SCORE.INTRA.REPUL.0>
0

>  <SCORE.INTRA.SOLV>
-2.07225

>  <SCORE.INTRA.SOLV.lig_0>
-104.479

>  <SCORE.INTRA.VDW>
1.33008

>  <SCORE.INTRA.VDW.0>
-6.17816

>  <SCORE.INTRA.norm>
-0.283247

>  <SCORE.RESTR>
0

>  <SCORE.RESTR.CAVITY>
0

>  <SCORE.RESTR.norm>
0

>  <SCORE.SYSTEM>
0

>  <SCORE.SYSTEM.CONST>
0

>  <SCORE.SYSTEM.DIHEDRAL>
0

>  <SCORE.SYSTEM.SOLV>
0

>  <SCORE.SYSTEM.norm>
0

>  <SCORE.heavy>
42

>  <SCORE.norm>
-0.388898

>  <RMSD>
2.578

$$$$
2o3w_lig
 OpenBabel11021811463D
libRbt.so/2013.1/901 2013/11/27
 42 45  0  0  0  0  0  0  0  0999 V2000
    8.3427   -0.6912    3.5800 C   0  0  2  0  0  0  0  0  0  0  0  0
    9.2995   -0.1146    2.6749 O   0  0  0  0  0  0  0  0  0  0  0  0
   11.6768    2.0653    5.5718 C   0  0  2  0  0  0  0  0  0  0  0  0
   12.7699    2.8490    6.2209 N   0  0  0  0  0  0  0  0  0  0  0  0
    9.1414    4.0025    2.1997 C   0  0  1  0  0  0  0  0  0  0  0  0
    7.2552    7.7339    0.6120 C   0  0  1  0  0  0  0  0  0  0  0  0
    7.2476   -1.3766    2.7087 C   0  0  2  0  0  0  0  0  0  0  0  0
    7.8189   -2.2597    1.6770 N   0  0  0  0  0  0  0  0  0  0  0  0
   12.1787    0.6285    5.1408 C   0  0  0  0  0  0  0  0  0  0  0  0
    9.4091    4.6476    0.8058 C   0  0  2  0  0  0  0  0  0  0  0  0
   10.6300    5.4249    0.7408 O   0  0  0  0  0  0  0  0  0  0  0  0
    7.0440    8.9983    1.5205 C   0  0  2  0  0  0  0  0  0  0  0  0
    6.6700    8.5999    2.9106 N   0  0  0  0  0  0  0  0  0  0  0  0
    6.3589   -0.3542    1.9765 C   0  0  1  0  0  0  0  0  0  0  0  0
    5.3468   -1.0244    1.2233 O   0  0  0  0  0  0  0  0  0  0  0  0
   10.9795   -0.1554    4.4850 C   0  0  2  0  0  0  0  0  0  0  0  0
   11.4132   -1.5197    4.0798 N   0  0  0  0  0  0  0  0  0  0  0  0
    8.1134    5.4302    0.5869 C   0  0  2  0  0  0  0  0  0  0  0  0
    8.2119    6.7919    1.1131 O   0  0  0  0  0  0  0  0  0  0  0  0
    5.9203    9.9360    0.8685 C   0  0  1  0  0  0  0  0  0  0  0  0
    6.4772   10.5959   -0.2904 O   0  0  0  0  0  0  0  0  0  0  0  0
    5.7439    0.6234    3.0037 C   0  0  2  0  0  0  0  0  0  0  0  0
    4.9139    1.5558    2.3509 O   0  0  0  0  0  0  0  0  0  0  0  0
   10.4288    0.6220    3.2247 C   0  0  2  0  0  0  0  0  0  0  0  0
    7.0102    4.6341    1.3043 C   0  0  2  0  0  0  0  0  0  0  0  0
    7.7077    4.0233    2.3873 O   0  0  0  0  0  0  0  0  0  0  0  0
    4.6044    9.1263    0.4435 C   0  0  2  0  0  0  0  0  0  0  0  0
    3.9519    8.7055    1.6408 O   0  0  0  0  0  0  0  0  0  0  0  0
    6.8981    1.3516    3.7699 C   0  0  2  0  0  0  0  0  0  0  0  0
    7.7503    0.3631    4.4305 O   0  0  0  0  0  0  0  0  0  0  0  0
    9.9710    2.0584    3.5600 C   0  0  2  0  0  0  0  0  0  0  0  0
    9.6771    2.6751    2.2764 O   0  0  0  0  0  0  0  0  0  0  0  0
    6.2926    3.5641    0.4242 C   0  0  0  0  0  0  0  0  0  0  0  0
    5.5452    4.2189   -0.5964 O   0  0  0  0  0  0  0  0  0  0  0  0
    4.9814    7.8775   -0.4399 C   0  0  1  0  0  0  0  0  0  0  0  0
    5.9153    7.0727    0.3665 O   0  0  0  0  0  0  0  0  0  0  0  0
    6.3848    2.3268    4.8040 C   0  0  0  0  0  0  0  0  0  0  0  0
    7.4622    2.9392    5.4699 O   0  0  0  0  0  0  0  0  0  0  0  0
   11.1286    2.8428    4.3087 C   0  0  1  0  0  0  0  0  0  0  0  0
   10.6542    4.1171    4.7524 O   0  0  0  0  0  0  0  0  0  0  0  0
    3.7338    6.9951   -0.8798 C   0  0  0  0  0  0  0  0  0  0  0  0
    2.9256    6.4255    0.2334 N   0  0  0  0  0  0  0  0  0  0  0  0
  1  2  1  6  0  0  0
  1  7  1  0  0  0  0
  1 30  1  0  0  0  0
  3  4  1  6  0  0  0
  3  9  1  0  0  0  0
  3 39  1  0  0  0  0
  5 10  1  0  0  0  0
  5 26  1  0  0  0  0
  5 32  1  6  0  0  0
  6 12  1  0  0  0  0
  6 36  1  0  0  0  0
  6 19  1  1  0  0  0
  7  8  1  6  0  0  0
  7 14  1  0  0  0  0
  9 16  1  0  0  0  0
 10 11  1  1  0  0  0
 10 18  1  0  0  0  0
 12 13  1  1  0  0  0
 12 20  1  0  0  0  0
 14 15  1  1  0  0  0
 14 22  1  0  0  0  0
 16 17  1  6  0  0  0
 16 24  1  0  0  0  0
 18 19  1  1  0  0  0
 18 25  1  0  0  0  0
 20 21  1  6  0  0  0
 20 27  1  0  0  0  0
 22 23  1  6  0  0  0
 22 29  1  0  0  0  0
 24  2  1  1  0  0  0
 24 31  1  0  0  0  0
 25 26  1  0  0  0  0
 25 33  1  6  0  0  0
 27 28  1  1  0  0  0
 27 35  1  0  0  0  0
 29 30  1  0  0  0  0
 29 37  1  1  0  0  0
 31 32  1  6  0  0  0
 31 39  1  0  0  0  0
 33 34  1  0  0  0  0
 35 36  1  0  0  0  0
 35 41  1  1  0  0  0
 37 38  1  0  0  0  0
 39 40  1  1  0  0  0
 41 42  1  0  0  0  0
M  END
>  <CHROM.1>
178.68109562,158.35042777,159.47380264,161.12904386,41.34804761,-66.94917762
179.34700255,176.18819031,-59.23132822,7.73650460,3.69481289,2.30219212,1.08547084
0.47269731,2.97321353

>  <Name>
2o3w_lig

>  <RI>
0

>  <Rbt.Current_Directory>
/home/itssahil/PROJECTS/Mol_Feturizer/New_Systems/rnas/2o3w

>  <Rbt.Executable>
rbdock ($Id: //depot/dev/client3/rdock/2013.1/src/exe/rbdock.cxx#4 $)

>  <Rbt.Library>
libRbt.so (2013.1, Build901 2013/11/27)

>  <Rbt.Parameter_File>
/export/apps/rDock/src/rDock_2013.1_src/data/scripts/dock_solv.prm

>  <Rbt.Receptor>
prm/pocket_docking_3.prm

>  <SCORE>
-16.4773

>  <SCORE.INTER>
-6.06713

>  <SCORE.INTER.CONST>
1

>  <SCORE.INTER.POLAR>
-0.996399

>  <SCORE.INTER.ROT>
9

>  <SCORE.INTER.SOLV>
8.48842

>  <SCORE.INTER.VDW>
-13.1529

>  <SCORE.INTER.norm>
-0.144456

>  <SCORE.INTRA>
-10.4101

>  <SCORE.INTRA.DIHEDRAL>
-20.3735

>  <SCORE.INTRA.DIHEDRAL.0>
27.8999

>  <SCORE.INTRA.POLAR>
0

>  <SCORE.INTRA.POLAR.0>
0

>  <SCORE.INTRA.REPUL>
0

>  <SCORE.INTRA.REPUL.0>
0

>  <SCORE.INTRA.SOLV>
-0.80196

>  <SCORE.INTRA.SOLV.lig_0>
-104.479

>  <SCORE.INTRA.VDW>
0.17761

>  <SCORE.INTRA.VDW.0>
-6.17816

>  <SCORE.INTRA.norm>
-0.24786

>  <SCORE.RESTR>
0

>  <SCORE.RESTR.CAVITY>
0

>  <SCORE.RESTR.norm>
0

>  <SCORE.SYSTEM>
0

>  <SCORE.SYSTEM.CONST>
0

>  <SCORE.SYSTEM.DIHEDRAL>
0

>  <SCORE.SYSTEM.SOLV>
0

>  <SCORE.SYSTEM.norm>
0

>  <SCORE.heavy>
42

>  <SCORE.norm>
-0.392316

>  <RMSD>
2.607

$$$$
2o3w_lig
 OpenBabel11021811463D
libRbt.so/2013.1/901 2013/11/27
 42 45  0  0  0  0  0  0  0  0999 V2000
    7.3807   -1.7608    4.5529 C   0  0  2  0  0  0  0  0  0  0  0  0
    8.3439   -0.9510    3.8574 O   0  0  0  0  0  0  0  0  0  0  0  0
    8.9562    2.0765    6.8998 C   0  0  2  0  0  0  0  0  0  0  0  0
    9.5159    3.2144    7.6886 N   0  0  0  0  0  0  0  0  0  0  0  0
    7.9180    3.1570    2.7513 C   0  0  1  0  0  0  0  0  0  0  0  0
    6.8509    6.9173    0.8573 C   0  0  1  0  0  0  0  0  0  0  0  0
    6.9190   -2.8710    3.5617 C   0  0  2  0  0  0  0  0  0  0  0  0
    8.0520   -3.5655    2.9256 N   0  0  0  0  0  0  0  0  0  0  0  0
    9.9573    0.8522    6.8688 C   0  0  0  0  0  0  0  0  0  0  0  0
    8.0824    3.3459    1.2124 C   0  0  2  0  0  0  0  0  0  0  0  0
    9.4448    3.6035    0.7925 O   0  0  0  0  0  0  0  0  0  0  0  0
    7.5778    8.3094    0.9077 C   0  0  2  0  0  0  0  0  0  0  0  0
    8.3245    8.4751    2.1906 N   0  0  0  0  0  0  0  0  0  0  0  0
    6.0448   -2.3118    2.4241 C   0  0  1  0  0  0  0  0  0  0  0  0
    5.6126   -3.3675    1.5641 O   0  0  0  0  0  0  0  0  0  0  0  0
    9.3038   -0.3206    6.0442 C   0  0  2  0  0  0  0  0  0  0  0  0
   10.2143   -1.4967    6.0067 N   0  0  0  0  0  0  0  0  0  0  0  0
    7.0823    4.4712    0.9428 C   0  0  2  0  0  0  0  0  0  0  0  0
    7.7095    5.7879    1.0602 O   0  0  0  0  0  0  0  0  0  0  0  0
    6.4977    9.4770    0.7155 C   0  0  1  0  0  0  0  0  0  0  0  0
    6.0798    9.5038   -0.6678 O   0  0  0  0  0  0  0  0  0  0  0  0
    4.8441   -1.5462    3.0252 C   0  0  2  0  0  0  0  0  0  0  0  0
    4.0245   -1.0421    1.9963 O   0  0  0  0  0  0  0  0  0  0  0  0
    8.9812    0.1473    4.5702 C   0  0  2  0  0  0  0  0  0  0  0  0
    5.9571    4.2959    1.9765 C   0  0  2  0  0  0  0  0  0  0  0  0
    6.6342    3.7271    3.0948 O   0  0  0  0  0  0  0  0  0  0  0  0
    5.2151    9.2994    1.6595 C   0  0  2  0  0  0  0  0  0  0  0  0
    5.6343    9.5300    3.0039 O   0  0  0  0  0  0  0  0  0  0  0  0
    5.3792   -0.3834    3.9259 C   0  0  2  0  0  0  0  0  0  0  0  0
    6.2340   -0.9306    4.9793 O   0  0  0  0  0  0  0  0  0  0  0  0
    8.0502    1.3787    4.5229 C   0  0  2  0  0  0  0  0  0  0  0  0
    8.0133    1.7762    3.1247 O   0  0  0  0  0  0  0  0  0  0  0  0
    4.7750    3.3882    1.5151 C   0  0  0  0  0  0  0  0  0  0  0  0
    3.7496    3.4124    2.5034 O   0  0  0  0  0  0  0  0  0  0  0  0
    4.6160    7.8493    1.5162 C   0  0  1  0  0  0  0  0  0  0  0  0
    5.7089    6.9201    1.8517 O   0  0  0  0  0  0  0  0  0  0  0  0
    4.2673    0.4179    4.5625 C   0  0  0  0  0  0  0  0  0  0  0  0
    3.4574    0.9979    3.5690 O   0  0  0  0  0  0  0  0  0  0  0  0
    8.6366    2.5451    5.4237 C   0  0  1  0  0  0  0  0  0  0  0  0
    7.7029    3.6257    5.5012 O   0  0  0  0  0  0  0  0  0  0  0  0
    3.3559    7.5744    2.4464 C   0  0  0  0  0  0  0  0  0  0  0  0
    2.7626    6.2132    2.3382 N   0  0  0  0  0  0  0  0  0  0  0  0
  1  2  1  6  0  0  0
  1  7  1  0  0  0  0
  1 30  1  0  0  0  0
  3  4  1  1  0  0  0
  3  9  1  0  0  0  0
  3 39  1  0  0  0  0
  5 10  1  0  0  0  0
  5 26  1  0  0  0  0
  5 32  1  6  0  0  0
  6 12  1  0  0  0  0
  6 36  1  0  0  0  0
  6 19  1  1  0  0  0
  7  8  1  6  0  0  0
  7 14  1  0  0  0  0
  9 16  1  0  0  0  0
 10 11  1  1  0  0  0
 10 18  1  0  0  0  0
 12 13  1  1  0  0  0
 12 20  1  0  0  0  0
 14 15  1  6  0  0  0
 14 22  1  0  0  0  0
 16 17  1  6  0  0  0
 16 24  1  0  0  0  0
 18 19  1  1  0  0  0
 18 25  1  0  0  0  0
 20 21  1  6  0  0  0
 20 27  1  0  0  0  0
 22 23  1  6  0  0  0
 22 29  1  0  0  0  0
 24  2  1  6  0  0  0
 24 31  1  0  0  0  0
 25 26  1  0  0  0  0
 25 33  1  6  0  0  0
 27 28  1  1  0  0  0
 27 35  1  0  0  0  0
 29 30  1  0  0  0  0
 29 37  1  1  0  0  0
 31 32  1  6  0  0  0
 31 39  1  0  0  0  0
 33 34  1  0  0  0  0
 35 36  1  0  0  0  0
 35 41  1  1  0  0  0
 37 38  1  0  0  0  0
 39 40  1  1  0  0  0
 41 42  1  0  0  0  0
M  END
>  <CHROM.1>
-177.94520716,172.55804418,-176.56777369,-178.58124291,39.88461435,-174.45230553
-60.28199652,-145.40315091,-179.98851019,6.72795822,2.90702098,3.07998818
-1.40121529,-0.59478241,-0.19771787

>  <Name>
2o3w_lig

>  <RI>
0

>  <Rbt.Current_Directory>
/home/itssahil/PROJECTS/Mol_Feturizer/New_Systems/rnas/2o3w

>  <Rbt.Executable>
rbdock ($Id: //depot/dev/client3/rdock/2013.1/src/exe/rbdock.cxx#4 $)

>  <Rbt.Library>
libRbt.so (2013.1, Build901 2013/11/27)

>  <Rbt.Parameter_File>
/export/apps/rDock/src/rDock_2013.1_src/data/scripts/dock_solv.prm

>  <Rbt.Receptor>
prm/pocket_docking_3.prm

>  <SCORE>
-8.89315

>  <SCORE.INTER>
-1.23139

>  <SCORE.INTER.CONST>
1

>  <SCORE.INTER.POLAR>
0

>  <SCORE.INTER.ROT>
9

>  <SCORE.INTER.SOLV>
10.2734

>  <SCORE.INTER.VDW>
-13.8454

>  <SCORE.INTER.norm>
-0.0293188

>  <SCORE.INTRA>
-7.66176

>  <SCORE.INTRA.DIHEDRAL>
-21.0329

>  <SCORE.INTRA.DIHEDRAL.0>
27.8999

>  <SCORE.INTRA.POLAR>
0

>  <SCORE.INTRA.POLAR.0>
0

>  <SCORE.INTRA.REPUL>
0

>  <SCORE.INTRA.REPUL.0>
0

>  <SCORE.INTRA.SOLV>
-1.5479

>  <SCORE.INTRA.SOLV.lig_0>
-104.479

>  <SCORE.INTRA.VDW>
3.62865

>  <SCORE.INTRA.VDW.0>
-6.17816

>  <SCORE.INTRA.norm>
-0.182423

>  <SCORE.RESTR>
0

>  <SCORE.RESTR.CAVITY>
0

>  <SCORE.RESTR.norm>
0

>  <SCORE.SYSTEM>
0

>  <SCORE.SYSTEM.CONST>
0

>  <SCORE.SYSTEM.DIHEDRAL>
0

>  <SCORE.SYSTEM.SOLV>
0

>  <SCORE.SYSTEM.norm>
0

>  <SCORE.heavy>
42

>  <SCORE.norm>
-0.211742

>  <RMSD>
2.623

$$$$
2o3w_lig
 OpenBabel11021811463D
libRbt.so/2013.1/901 2013/11/27
 42 45  0  0  0  0  0  0  0  0999 V2000
    8.9516   -1.0655    4.5805 C   0  0  2  0  0  0  0  0  0  0  0  0
   10.0712   -0.8611    5.4592 O   0  0  0  0  0  0  0  0  0  0  0  0
   12.6229    2.6123    5.9290 C   0  0  2  0  0  0  0  0  0  0  0  0
   13.5985    3.7124    5.6675 N   0  0  0  0  0  0  0  0  0  0  0  0
    8.4393    2.5071    3.8063 C   0  0  1  0  0  0  0  0  0  0  0  0
    7.3590    6.1029    2.2057 C   0  0  1  0  0  0  0  0  0  0  0  0
    7.9765   -2.0411    5.3054 C   0  0  2  0  0  0  0  0  0  0  0  0
    7.6832   -1.6219    6.6870 N   0  0  0  0  0  0  0  0  0  0  0  0
   13.3193    1.1948    5.8420 C   0  0  0  0  0  0  0  0  0  0  0  0
    8.7585    3.3975    2.5669 C   0  0  2  0  0  0  0  0  0  0  0  0
    9.5352    4.5809    2.8757 O   0  0  0  0  0  0  0  0  0  0  0  0
    6.8873    7.3435    3.0468 C   0  0  2  0  0  0  0  0  0  0  0  0
    5.3998    7.4748    3.0156 N   0  0  0  0  0  0  0  0  0  0  0  0
    8.5349   -3.4738    5.3844 C   0  0  1  0  0  0  0  0  0  0  0  0
    7.5934   -4.3403    6.0197 O   0  0  0  0  0  0  0  0  0  0  0  0
   12.2483    0.0804    6.1482 C   0  0  2  0  0  0  0  0  0  0  0  0
   12.8736   -1.2683    6.0892 N   0  0  0  0  0  0  0  0  0  0  0  0
    7.3550    3.6520    2.0147 C   0  0  2  0  0  0  0  0  0  0  0  0
    6.7610    4.8588    2.5905 O   0  0  0  0  0  0  0  0  0  0  0  0
    7.5937    8.6654    2.4808 C   0  0  1  0  0  0  0  0  0  0  0  0
    8.9845    8.6568    2.8739 O   0  0  0  0  0  0  0  0  0  0  0  0
    8.8880   -3.9688    3.9633 C   0  0  2  0  0  0  0  0  0  0  0  0
    9.3851   -5.2857    4.0166 O   0  0  0  0  0  0  0  0  0  0  0  0
   11.0543    0.1569    5.1165 C   0  0  2  0  0  0  0  0  0  0  0  0
    6.5285    2.4029    2.3639 C   0  0  2  0  0  0  0  0  0  0  0  0
    7.1222    1.9548    3.5801 O   0  0  0  0  0  0  0  0  0  0  0  0
    7.4880    8.7934    0.8870 C   0  0  2  0  0  0  0  0  0  0  0  0
    6.1220    9.0513    0.5651 O   0  0  0  0  0  0  0  0  0  0  0  0
    9.9469   -3.0028    3.3347 C   0  0  2  0  0  0  0  0  0  0  0  0
    9.4116   -1.6420    3.2992 O   0  0  0  0  0  0  0  0  0  0  0  0
   10.3599    1.5364    5.1053 C   0  0  2  0  0  0  0  0  0  0  0  0
    9.4291    1.4864    3.9892 O   0  0  0  0  0  0  0  0  0  0  0  0
    6.5469    1.2781    1.2827 C   0  0  0  0  0  0  0  0  0  0  0  0
    5.8059    0.1578    1.7568 O   0  0  0  0  0  0  0  0  0  0  0  0
    7.9714    7.4659    0.1896 C   0  0  1  0  0  0  0  0  0  0  0  0
    7.1303    6.3869    0.7360 O   0  0  0  0  0  0  0  0  0  0  0  0
   10.3469   -3.4098    1.9354 C   0  0  0  0  0  0  0  0  0  0  0  0
    9.2341   -3.3513    1.0766 O   0  0  0  0  0  0  0  0  0  0  0  0
   11.4300    2.6879    4.8938 C   0  0  1  0  0  0  0  0  0  0  0  0
   10.8103    3.9692    5.0345 O   0  0  0  0  0  0  0  0  0  0  0  0
    7.8682    7.4933   -1.3970 C   0  0  0  0  0  0  0  0  0  0  0  0
    8.7749    8.4544   -2.0831 N   0  0  0  0  0  0  0  0  0  0  0  0
  1  2  1  1  0  0  0
  1  7  1  0  0  0  0
  1 30  1  0  0  0  0
  3  4  1  6  0  0  0
  3  9  1  0  0  0  0
  3 39  1  0  0  0  0
  5 10  1  0  0  0  0
  5 26  1  0  0  0  0
  5 32  1  6  0  0  0
  6 12  1  0  0  0  0
  6 36  1  0  0  0  0
  6 19  1  1  0  0  0
  7  8  1  1  0  0  0
  7 14  1  0  0  0  0
  9 16  1  0  0  0  0
 10 11  1  1  0  0  0
 10 18  1  0  0  0  0
 12 13  1  6  0  0  0
 12 20  1  0  0  0  0
 14 15  1  6  0  0  0
 14 22  1  0  0  0  0
 16 17  1  6  0  0  0
 16 24  1  0  0  0  0
 18 19  1  1  0  0  0
 18 25  1  0  0  0  0
 20 21  1  6  0  0  0
 20 27  1  0  0  0  0
 22 23  1  1  0  0  0
 22 29  1  0  0  0  0
 24  2  1  1  0  0  0
 24 31  1  0  0  0  0
 25 26  1  0  0  0  0
 25 33  1  6  0  0  0
 27 28  1  1  0  0  0
 27 35  1  0  0  0  0
 29 30  1  0  0  0  0
 29 37  1  6  0  0  0
 31 32  1  6  0  0  0
 31 39  1  0  0  0  0
 33 34  1  0  0  0  0
 35 36  1  0  0  0  0
 35 41  1  6  0  0  0
 37 38  1  0  0  0  0
 39 40  1  1  0  0  0
 41 42  1  0  0  0  0
M  END
>  <CHROM.1>
-171.50575584,109.82863528,-168.67017343,68.66382322,-174.18066119,176.98403004
62.73366348,169.11635336,66.48358240,8.88331833,2.18822793,3.31943014,1.31623864
0.64610621,2.96853403

>  <Name>
2o3w_lig

>  <RI>
0

>  <Rbt.Current_Directory>
/home/itssahil/PROJECTS/Mol_Feturizer/New_Systems/rnas/2o3w

>  <Rbt.Executable>
rbdock ($Id: //depot/dev/client3/rdock/2013.1/src/exe/rbdock.cxx#4 $)

>  <Rbt.Library>
libRbt.so (2013.1, Build901 2013/11/27)

>  <Rbt.Parameter_File>
/export/apps/rDock/src/rDock_2013.1_src/data/scripts/dock_solv.prm

>  <Rbt.Receptor>
prm/pocket_docking_3.prm

>  <SCORE>
-11.8605

>  <SCORE.INTER>
-3.35341

>  <SCORE.INTER.CONST>
1

>  <SCORE.INTER.POLAR>
-1.53814

>  <SCORE.INTER.ROT>
9

>  <SCORE.INTER.SOLV>
15.9804

>  <SCORE.INTER.VDW>
-12.0353

>  <SCORE.INTER.norm>
-0.0798432

>  <SCORE.INTRA>
-9.0543

>  <SCORE.INTRA.DIHEDRAL>
-18.7854

>  <SCORE.INTRA.DIHEDRAL.0>
27.8999

>  <SCORE.INTRA.POLAR>
0

>  <SCORE.INTRA.POLAR.0>
0

>  <SCORE.INTRA.REPUL>
0

>  <SCORE.INTRA.REPUL.0>
0

>  <SCORE.INTRA.SOLV>
-5.24863

>  <SCORE.INTRA.SOLV.lig_0>
-104.479

>  <SCORE.INTRA.VDW>
2.96269

>  <SCORE.INTRA.VDW.0>
-6.17816

>  <SCORE.INTRA.norm>
-0.215579

>  <SCORE.RESTR>
0.547248

>  <SCORE.RESTR.CAVITY>
0.547248

>  <SCORE.RESTR.norm>
0.0130297

>  <SCORE.SYSTEM>
0

>  <SCORE.SYSTEM.CONST>
0

>  <SCORE.SYSTEM.DIHEDRAL>
0

>  <SCORE.SYSTEM.SOLV>
0

>  <SCORE.SYSTEM.norm>
0

>  <SCORE.heavy>
42

>  <SCORE.norm>
-0.282392

>  <RMSD>
2.779

$$$$
2o3w_lig
 OpenBabel11021811463D
libRbt.so/2013.1/901 2013/11/27
 42 45  0  0  0  0  0  0  0  0999 V2000
    9.4571   -0.0767    3.9121 C   0  0  2  0  0  0  0  0  0  0  0  0
    9.3166    1.2031    4.5522 O   0  0  0  0  0  0  0  0  0  0  0  0
   11.7185    4.6588    5.5939 C   0  0  2  0  0  0  0  0  0  0  0  0
   12.8240    5.6606    5.6614 N   0  0  0  0  0  0  0  0  0  0  0  0
    9.3514    4.2167    1.6600 C   0  0  1  0  0  0  0  0  0  0  0  0
    7.2463    6.5959   -1.3048 C   0  0  1  0  0  0  0  0  0  0  0  0
    8.0184   -0.6155    3.6513 C   0  0  2  0  0  0  0  0  0  0  0  0
    7.1552    0.3790    2.9907 N   0  0  0  0  0  0  0  0  0  0  0  0
   12.1892    3.2474    6.1307 C   0  0  0  0  0  0  0  0  0  0  0  0
    9.1211    3.6697    0.2183 C   0  0  2  0  0  0  0  0  0  0  0  0
   10.2848    3.7618   -0.6398 O   0  0  0  0  0  0  0  0  0  0  0  0
    7.6035    7.5201   -2.5242 C   0  0  2  0  0  0  0  0  0  0  0  0
    8.8200    8.3374   -2.2358 N   0  0  0  0  0  0  0  0  0  0  0  0
    7.3050   -1.0299    4.9514 C   0  0  1  0  0  0  0  0  0  0  0  0
    6.0078   -1.5534    4.6618 O   0  0  0  0  0  0  0  0  0  0  0  0
   10.9777    2.2429    6.0556 C   0  0  2  0  0  0  0  0  0  0  0  0
   11.3818    0.9057    6.5676 N   0  0  0  0  0  0  0  0  0  0  0  0
    7.9078    4.4909   -0.2207 C   0  0  2  0  0  0  0  0  0  0  0  0
    8.3094    5.7359   -0.8760 O   0  0  0  0  0  0  0  0  0  0  0  0
    6.3485    8.4564   -2.8636 C   0  0  1  0  0  0  0  0  0  0  0  0
    5.3250    7.6549   -3.4954 O   0  0  0  0  0  0  0  0  0  0  0  0
    8.1728   -2.0598    5.7099 C   0  0  2  0  0  0  0  0  0  0  0  0
    7.5258   -2.4621    6.8948 O   0  0  0  0  0  0  0  0  0  0  0  0
   10.4582    2.1068    4.5699 C   0  0  2  0  0  0  0  0  0  0  0  0
    7.0989    4.7697    1.0573 C   0  0  2  0  0  0  0  0  0  0  0  0
    8.1032    4.8225    2.0678 O   0  0  0  0  0  0  0  0  0  0  0  0
    5.7412    9.1766   -1.5674 C   0  0  2  0  0  0  0  0  0  0  0  0
    6.6940   10.1423   -1.1249 O   0  0  0  0  0  0  0  0  0  0  0  0
    9.5640   -1.4181    6.0300 C   0  0  2  0  0  0  0  0  0  0  0  0
   10.2109   -1.0005    4.7863 O   0  0  0  0  0  0  0  0  0  0  0  0
   10.0324    3.4595    3.9581 C   0  0  2  0  0  0  0  0  0  0  0  0
    9.7660    3.1778    2.5566 O   0  0  0  0  0  0  0  0  0  0  0  0
    6.0162    3.6991    1.3976 C   0  0  0  0  0  0  0  0  0  0  0  0
    4.9990    3.7254    0.4007 O   0  0  0  0  0  0  0  0  0  0  0  0
    5.4606    8.1255   -0.4277 C   0  0  1  0  0  0  0  0  0  0  0  0
    6.7459    7.4558   -0.1633 O   0  0  0  0  0  0  0  0  0  0  0  0
   10.4838   -2.3624    6.7690 C   0  0  0  0  0  0  0  0  0  0  0  0
   11.7548   -1.7795    6.9235 O   0  0  0  0  0  0  0  0  0  0  0  0
   11.2015    4.5211    4.1058 C   0  0  1  0  0  0  0  0  0  0  0  0
   10.7541    5.8105    3.6780 O   0  0  0  0  0  0  0  0  0  0  0  0
    4.8860    8.7608    0.9120 C   0  0  0  0  0  0  0  0  0  0  0  0
    4.6191    7.7985    2.0161 N   0  0  0  0  0  0  0  0  0  0  0  0
  1  2  1  1  0  0  0
  1  7  1  0  0  0  0
  1 30  1  0  0  0  0
  3  4  1  6  0  0  0
  3  9  1  0  0  0  0
  3 39  1  0  0  0  0
  5 10  1  0  0  0  0
  5 26  1  0  0  0  0
  5 32  1  1  0  0  0
  6 12  1  0  0  0  0
  6 36  1  0  0  0  0
  6 19  1  1  0  0  0
  7  8  1  1  0  0  0
  7 14  1  0  0  0  0
  9 16  1  0  0  0  0
 10 11  1  6  0  0  0
 10 18  1  0  0  0  0
 12 13  1  1  0  0  0
 12 20  1  0  0  0  0
 14 15  1  6  0  0  0
 14 22  1  0  0  0  0
 16 17  1  6  0  0  0
 16 24  1  0  0  0  0
 18 19  1  1  0  0  0
 18 25  1  0  0  0  0
 20 21  1  1  0  0  0
 20 27  1  0  0  0  0
 22 23  1  1  0  0  0
 22 29  1  0  0  0  0
 24  2  1  1  0  0  0
 24 31  1  0  0  0  0
 25 26  1  0  0  0  0
 25 33  1  1  0  0  0
 27 28  1  1  0  0  0
 27 35  1  0  0  0  0
 29 30  1  0  0  0  0
 29 37  1  6  0  0  0
 31 32  1  6  0  0  0
 31 39  1  0  0  0  0
 33 34  1  0  0  0  0
 35 36  1  0  0  0  0
 35 41  1  1  0  0  0
 37 38  1  0  0  0  0
 39 40  1  1  0  0  0
 41 42  1  0  0  0  0
M  END
>  <CHROM.1>
-162.58114102,-179.70837646,-152.97440721,-178.81756536,-111.78173525,-66.45008514
174.72728613,-179.48428034,-179.51643454,8.48618686,3.60406555,2.44543998
1.23295564,0.55533472,2.62499224

>  <Name>
2o3w_lig

>  <RI>
0

>  <Rbt.Current_Directory>
/home/itssahil/PROJECTS/Mol_Feturizer/New_Systems/rnas/2o3w

>  <Rbt.Executable>
rbdock ($Id: //depot/dev/client3/rdock/2013.1/src/exe/rbdock.cxx#4 $)

>  <Rbt.Library>
libRbt.so (2013.1, Build901 2013/11/27)

>  <Rbt.Parameter_File>
/export/apps/rDock/src/rDock_2013.1_src/data/scripts/dock_solv.prm

>  <Rbt.Receptor>
prm/pocket_docking_4.prm

>  <SCORE>
-20.7964

>  <SCORE.INTER>
-13.6375

>  <SCORE.INTER.CONST>
1

>  <SCORE.INTER.POLAR>
-2.66257

>  <SCORE.INTER.ROT>
9

>  <SCORE.INTER.SOLV>
14.3294

>  <SCORE.INTER.VDW>
-14.5929

>  <SCORE.INTER.norm>
-0.324703

>  <SCORE.INTRA>
-7.32393

>  <SCORE.INTRA.DIHEDRAL>
-16.2952

>  <SCORE.INTRA.DIHEDRAL.0>
27.8999

>  <SCORE.INTRA.POLAR>
0

>  <SCORE.INTRA.POLAR.0>
0

>  <SCORE.INTRA.REPUL>
0

>  <SCORE.INTRA.REPUL.0>
0

>  <SCORE.INTRA.SOLV>
-1.05273

>  <SCORE.INTRA.SOLV.lig_0>
-104.479

>  <SCORE.INTRA.VDW>
1.35004

>  <SCORE.INTRA.VDW.0>
-6.17816

>  <SCORE.INTRA.norm>
-0.174379

>  <SCORE.RESTR>
0.165021

>  <SCORE.RESTR.CAVITY>
0.165021

>  <SCORE.RESTR.norm>
0.00392906

>  <SCORE.SYSTEM>
0

>  <SCORE.SYSTEM.CONST>
0

>  <SCORE.SYSTEM.DIHEDRAL>
0

>  <SCORE.SYSTEM.SOLV>
0

>  <SCORE.SYSTEM.norm>
0

>  <SCORE.heavy>
42

>  <SCORE.norm>
-0.495154

>  <RMSD>
2.783

$$$$
2o3w_lig
 OpenBabel11021811463D
libRbt.so/2013.1/901 2013/11/27
 42 45  0  0  0  0  0  0  0  0999 V2000
    8.5519    0.8424    3.0838 C   0  0  2  0  0  0  0  0  0  0  0  0
    8.9528    1.2266    4.4100 O   0  0  0  0  0  0  0  0  0  0  0  0
   11.2178    4.6816    5.7248 C   0  0  2  0  0  0  0  0  0  0  0  0
   12.3101    5.6802    5.9251 N   0  0  0  0  0  0  0  0  0  0  0  0
    9.2597    4.1945    1.5376 C   0  0  1  0  0  0  0  0  0  0  0  0
    7.2767    6.5034   -1.4675 C   0  0  1  0  0  0  0  0  0  0  0  0
    7.4246   -0.2221    3.2397 C   0  0  2  0  0  0  0  0  0  0  0  0
    6.3647    0.2107    4.1669 N   0  0  0  0  0  0  0  0  0  0  0  0
   11.6110    3.2725    6.3261 C   0  0  0  0  0  0  0  0  0  0  0  0
    9.2052    3.6348    0.0834 C   0  0  2  0  0  0  0  0  0  0  0  0
   10.4354    3.8096   -0.6617 O   0  0  0  0  0  0  0  0  0  0  0  0
    7.6262    7.5389   -2.5964 C   0  0  2  0  0  0  0  0  0  0  0  0
    8.8122    8.3631   -2.2156 N   0  0  0  0  0  0  0  0  0  0  0  0
    7.9586   -1.5653    3.7705 C   0  0  1  0  0  0  0  0  0  0  0  0
    6.9005   -2.5209    3.8597 O   0  0  0  0  0  0  0  0  0  0  0  0
   10.4145    2.2715    6.1049 C   0  0  2  0  0  0  0  0  0  0  0  0
   10.7449    0.9366    6.6727 N   0  0  0  0  0  0  0  0  0  0  0  0
    7.9844    4.3698   -0.4722 C   0  0  2  0  0  0  0  0  0  0  0  0
    8.3581    5.6408   -1.0931 O   0  0  0  0  0  0  0  0  0  0  0  0
    6.3491    8.4641   -2.8790 C   0  0  1  0  0  0  0  0  0  0  0  0
    5.3614    7.6906   -3.5967 O   0  0  0  0  0  0  0  0  0  0  0  0
    9.0963   -2.0670    2.8522 C   0  0  2  0  0  0  0  0  0  0  0  0
    9.5849   -3.3044    3.3152 O   0  0  0  0  0  0  0  0  0  0  0  0
   10.0867    2.1267    4.5662 C   0  0  2  0  0  0  0  0  0  0  0  0
    7.0410    4.5892    0.7225 C   0  0  2  0  0  0  0  0  0  0  0  0
    7.9393    4.7108    1.8228 O   0  0  0  0  0  0  0  0  0  0  0  0
    5.6983    9.0524   -1.5382 C   0  0  2  0  0  0  0  0  0  0  0  0
    6.6137   10.0038   -0.9964 O   0  0  0  0  0  0  0  0  0  0  0  0
   10.2384   -0.9972    2.8234 C   0  0  2  0  0  0  0  0  0  0  0  0
    9.7047    0.2795    2.3490 O   0  0  0  0  0  0  0  0  0  0  0  0
    9.7474    3.4764    3.8966 C   0  0  2  0  0  0  0  0  0  0  0  0
    9.6593    3.1858    2.4745 O   0  0  0  0  0  0  0  0  0  0  0  0
    6.0085    3.4449    0.9646 C   0  0  0  0  0  0  0  0  0  0  0  0
    6.7048    2.2236    1.1935 O   0  0  0  0  0  0  0  0  0  0  0  0
    5.4307    7.8998   -0.4980 C   0  0  1  0  0  0  0  0  0  0  0  0
    6.7311    7.2472   -0.2668 O   0  0  0  0  0  0  0  0  0  0  0  0
   11.3947   -1.4048    1.9398 C   0  0  0  0  0  0  0  0  0  0  0  0
   12.0497   -2.5245    2.4843 O   0  0  0  0  0  0  0  0  0  0  0  0
   10.8928    4.5352    4.1842 C   0  0  1  0  0  0  0  0  0  0  0  0
   10.5086    5.8229    3.6947 O   0  0  0  0  0  0  0  0  0  0  0  0
    4.8144    8.4008    0.8796 C   0  0  0  0  0  0  0  0  0  0  0  0
    5.6882    9.2967    1.6859 N   0  0  0  0  0  0  0  0  0  0  0  0
  1  2  1  1  0  0  0
  1  7  1  0  0  0  0
  1 30  1  0  0  0  0
  3  4  1  6  0  0  0
  3  9  1  0  0  0  0
  3 39  1  0  0  0  0
  5 10  1  0  0  0  0
  5 26  1  0  0  0  0
  5 32  1  1  0  0  0
  6 12  1  0  0  0  0
  6 36  1  0  0  0  0
  6 19  1  1  0  0  0
  7  8  1  1  0  0  0
  7 14  1  0  0  0  0
  9 16  1  0  0  0  0
 10 11  1  6  0  0  0
 10 18  1  0  0  0  0
 12 13  1  1  0  0  0
 12 20  1  0  0  0  0
 14 15  1  6  0  0  0
 14 22  1  0  0  0  0
 16 17  1  6  0  0  0
 16 24  1  0  0  0  0
 18 19  1  1  0  0  0
 18 25  1  0  0  0  0
 20 21  1  1  0  0  0
 20 27  1  0  0  0  0
 22 23  1  1  0  0  0
 22 29  1  0  0  0  0
 24  2  1  1  0  0  0
 24 31  1  0  0  0  0
 25 26  1  0  0  0  0
 25 33  1  1  0  0  0
 27 28  1  1  0  0  0
 27 35  1  0  0  0  0
 29 30  1  0  0  0  0
 29 37  1  6  0  0  0
 31 32  1  6  0  0  0
 31 39  1  0  0  0  0
 33 34  1  0  0  0  0
 35 36  1  0  0  0  0
 35 41  1  1  0  0  0
 37 38  1  0  0  0  0
 39 40  1  1  0  0  0
 41 42  1  0  0  0  0
M  END
>  <CHROM.1>
174.37745536,-178.52424007,-156.90168433,-170.98856608,-174.18279982,59.31337833
-66.60978555,175.38944266,-64.23771174,8.54278158,3.57120103,1.84847320,1.00829575
0.95784988,3.06618376

>  <Name>
2o3w_lig

>  <RI>
0

>  <Rbt.Current_Directory>
/home/itssahil/PROJECTS/Mol_Feturizer/New_Systems/rnas/2o3w

>  <Rbt.Executable>
rbdock ($Id: //depot/dev/client3/rdock/2013.1/src/exe/rbdock.cxx#4 $)

>  <Rbt.Library>
libRbt.so (2013.1, Build901 2013/11/27)

>  <Rbt.Parameter_File>
/export/apps/rDock/src/rDock_2013.1_src/data/scripts/dock_solv.prm

>  <Rbt.Receptor>
prm/pocket_docking_4.prm

>  <SCORE>
-24.3617

>  <SCORE.INTER>
-13.1431

>  <SCORE.INTER.CONST>
1

>  <SCORE.INTER.POLAR>
-2.60212

>  <SCORE.INTER.ROT>
9

>  <SCORE.INTER.SOLV>
16.6415

>  <SCORE.INTER.VDW>
-15.2355

>  <SCORE.INTER.norm>
-0.312931

>  <SCORE.INTRA>
-11.3822

>  <SCORE.INTRA.DIHEDRAL>
-24.4147

>  <SCORE.INTRA.DIHEDRAL.0>
27.8999

>  <SCORE.INTRA.POLAR>
0

>  <SCORE.INTRA.POLAR.0>
0

>  <SCORE.INTRA.REPUL>
0

>  <SCORE.INTRA.REPUL.0>
0

>  <SCORE.INTRA.SOLV>
-2.89007

>  <SCORE.INTRA.SOLV.lig_0>
-104.479

>  <SCORE.INTRA.VDW>
2.27016

>  <SCORE.INTRA.VDW.0>
-6.17816

>  <SCORE.INTRA.norm>
-0.271005

>  <SCORE.RESTR>
0.163574

>  <SCORE.RESTR.CAVITY>
0.163574

>  <SCORE.RESTR.norm>
0.00389463

>  <SCORE.SYSTEM>
0

>  <SCORE.SYSTEM.CONST>
0

>  <SCORE.SYSTEM.DIHEDRAL>
0

>  <SCORE.SYSTEM.SOLV>
0

>  <SCORE.SYSTEM.norm>
0

>  <SCORE.heavy>
42

>  <SCORE.norm>
-0.580041

>  <RMSD>
2.790

$$$$
2o3w_lig
 OpenBabel11021811463D
libRbt.so/2013.1/901 2013/11/27
 42 45  0  0  0  0  0  0  0  0999 V2000
    8.2943   -0.8099    3.8443 C   0  0  2  0  0  0  0  0  0  0  0  0
    9.4304   -0.3082    3.1198 O   0  0  0  0  0  0  0  0  0  0  0  0
   11.2677    1.9263    6.3490 C   0  0  2  0  0  0  0  0  0  0  0  0
   12.2284    2.7297    7.1626 N   0  0  0  0  0  0  0  0  0  0  0  0
    8.7561    3.3610    2.4171 C   0  0  1  0  0  0  0  0  0  0  0  0
    6.3450    6.9944    1.6135 C   0  0  1  0  0  0  0  0  0  0  0  0
    7.5081   -1.7390    2.8711 C   0  0  2  0  0  0  0  0  0  0  0  0
    8.3776   -2.7273    2.2096 N   0  0  0  0  0  0  0  0  0  0  0  0
   11.8511    0.4930    6.0217 C   0  0  0  0  0  0  0  0  0  0  0  0
    8.7119    4.6074    3.3527 C   0  0  2  0  0  0  0  0  0  0  0  0
    7.8563    4.4451    4.5105 O   0  0  0  0  0  0  0  0  0  0  0  0
    6.4908    8.3419    2.4085 C   0  0  2  0  0  0  0  0  0  0  0  0
    5.8397    8.2433    3.7491 N   0  0  0  0  0  0  0  0  0  0  0  0
    6.8010   -0.9501    1.7537 C   0  0  1  0  0  0  0  0  0  0  0  0
    6.0621   -1.8358    0.9107 O   0  0  0  0  0  0  0  0  0  0  0  0
   10.7869   -0.3121    5.1840 C   0  0  2  0  0  0  0  0  0  0  0  0
   11.2980   -1.6736    4.8701 N   0  0  0  0  0  0  0  0  0  0  0  0
    8.2951    5.7022    2.3694 C   0  0  2  0  0  0  0  0  0  0  0  0
    6.8399    5.8389    2.3016 O   0  0  0  0  0  0  0  0  0  0  0  0
    5.8571    9.5350    1.5473 C   0  0  1  0  0  0  0  0  0  0  0  0
    6.7435    9.8390    0.4470 O   0  0  0  0  0  0  0  0  0  0  0  0
    5.8861    0.1258    2.3817 C   0  0  2  0  0  0  0  0  0  0  0  0
    5.2184    0.8460    1.3717 O   0  0  0  0  0  0  0  0  0  0  0  0
   10.4439    0.4478    3.8420 C   0  0  2  0  0  0  0  0  0  0  0  0
    8.8805    5.2944    1.0069 C   0  0  2  0  0  0  0  0  0  0  0  0
    8.8765    3.8701    1.0690 O   0  0  0  0  0  0  0  0  0  0  0  0
    4.3992    9.1870    0.9806 C   0  0  2  0  0  0  0  0  0  0  0  0
    3.5043    9.1431    2.0913 O   0  0  0  0  0  0  0  0  0  0  0  0
    6.7553    1.0845    3.2620 C   0  0  2  0  0  0  0  0  0  0  0  0
    7.4450    0.3129    4.2958 O   0  0  0  0  0  0  0  0  0  0  0  0
    9.9198    1.8806    4.0823 C   0  0  2  0  0  0  0  0  0  0  0  0
    9.8358    2.4830    2.7615 O   0  0  0  0  0  0  0  0  0  0  0  0
   10.3133    5.8395    0.7165 C   0  0  0  0  0  0  0  0  0  0  0  0
   10.9304    5.0322   -0.2817 O   0  0  0  0  0  0  0  0  0  0  0  0
    4.4098    7.7998    0.2338 C   0  0  1  0  0  0  0  0  0  0  0  0
    4.8963    6.8119    1.2123 O   0  0  0  0  0  0  0  0  0  0  0  0
    5.9366    2.1692    3.9230 C   0  0  0  0  0  0  0  0  0  0  0  0
    5.0484    1.6052    4.8570 O   0  0  0  0  0  0  0  0  0  0  0  0
   10.9275    2.6863    5.0047 C   0  0  1  0  0  0  0  0  0  0  0  0
   10.3710    3.9576    5.3507 O   0  0  0  0  0  0  0  0  0  0  0  0
    2.9911    7.3589   -0.3334 C   0  0  0  0  0  0  0  0  0  0  0  0
    1.9266    7.1547    0.6873 N   0  0  0  0  0  0  0  0  0  0  0  0
  1  2  1  6  0  0  0
  1  7  1  0  0  0  0
  1 30  1  0  0  0  0
  3  4  1  6  0  0  0
  3  9  1  0  0  0  0
  3 39  1  0  0  0  0
  5 10  1  0  0  0  0
  5 26  1  0  0  0  0
  5 32  1  1  0  0  0
  6 12  1  0  0  0  0
  6 36  1  0  0  0  0
  6 19  1  1  0  0  0
  7  8  1  6  0  0  0
  7 14  1  0  0  0  0
  9 16  1  0  0  0  0
 10 11  1  1  0  0  0
 10 18  1  0  0  0  0
 12 13  1  1  0  0  0
 12 20  1  0  0  0  0
 14 15  1  1  0  0  0
 14 22  1  0  0  0  0
 16 17  1  6  0  0  0
 16 24  1  0  0  0  0
 18 19  1  6  0  0  0
 18 25  1  0  0  0  0
 20 21  1  6  0  0  0
 20 27  1  0  0  0  0
 22 23  1  6  0  0  0
 22 29  1  0  0  0  0
 24  2  1  1  0  0  0
 24 31  1  0  0  0  0
 25 26  1  0  0  0  0
 25 33  1  1  0  0  0
 27 28  1  1  0  0  0
 27 35  1  0  0  0  0
 29 30  1  0  0  0  0
 29 37  1  1  0  0  0
 31 32  1  6  0  0  0
 31 39  1  0  0  0  0
 33 34  1  0  0  0  0
 35 36  1  0  0  0  0
 35 41  1  1  0  0  0
 37 38  1  0  0  0  0
 39 40  1  1  0  0  0
 41 42  1  0  0  0  0
M  END
>  <CHROM.1>
-171.84473844,59.78338096,-74.41228691,168.49179875,45.69197805,158.57846027
65.78728527,141.93421763,-62.16744056,7.70397635,3.50753031,2.77883802,1.05033495
0.45889513,3.05343949

>  <Name>
2o3w_lig

>  <RI>
0

>  <Rbt.Current_Directory>
/home/itssahil/PROJECTS/Mol_Feturizer/New_Systems/rnas/2o3w

>  <Rbt.Executable>
rbdock ($Id: //depot/dev/client3/rdock/2013.1/src/exe/rbdock.cxx#4 $)

>  <Rbt.Library>
libRbt.so (2013.1, Build901 2013/11/27)

>  <Rbt.Parameter_File>
/export/apps/rDock/src/rDock_2013.1_src/data/scripts/dock_solv.prm

>  <Rbt.Receptor>
prm/pocket_docking_3.prm

>  <SCORE>
-13.0844

>  <SCORE.INTER>
-5.02244

>  <SCORE.INTER.CONST>
1

>  <SCORE.INTER.POLAR>
-0.572151

>  <SCORE.INTER.ROT>
9

>  <SCORE.INTER.SOLV>
9.71301

>  <SCORE.INTER.VDW>
-14.2788

>  <SCORE.INTER.norm>
-0.119582

>  <SCORE.INTRA>
-8.24366

>  <SCORE.INTRA.DIHEDRAL>
-18.1695

>  <SCORE.INTRA.DIHEDRAL.0>
27.8999

>  <SCORE.INTRA.POLAR>
0

>  <SCORE.INTRA.POLAR.0>
0

>  <SCORE.INTRA.REPUL>
0

>  <SCORE.INTRA.REPUL.0>
0

>  <SCORE.INTRA.SOLV>
-1.95043

>  <SCORE.INTRA.SOLV.lig_0>
-104.479

>  <SCORE.INTRA.VDW>
1.81631

>  <SCORE.INTRA.VDW.0>
-6.17816

>  <SCORE.INTRA.norm>
-0.196278

>  <SCORE.RESTR>
0.181699

>  <SCORE.RESTR.CAVITY>
0.181699

>  <SCORE.RESTR.norm>
0.00432616

>  <SCORE.SYSTEM>
0

>  <SCORE.SYSTEM.CONST>
0

>  <SCORE.SYSTEM.DIHEDRAL>
0

>  <SCORE.SYSTEM.SOLV>
0

>  <SCORE.SYSTEM.norm>
0

>  <SCORE.heavy>
42

>  <SCORE.norm>
-0.311533

>  <RMSD>
2.862

$$$$
2o3w_lig
 OpenBabel11021811463D
libRbt.so/2013.1/901 2013/11/27
 42 45  0  0  0  0  0  0  0  0999 V2000
    6.1229    0.2557    3.3751 C   0  0  2  0  0  0  0  0  0  0  0  0
    6.7845    0.3839    4.6452 O   0  0  0  0  0  0  0  0  0  0  0  0
   10.9228    1.0112    5.7750 C   0  0  2  0  0  0  0  0  0  0  0  0
   12.4063    0.8825    5.8891 N   0  0  0  0  0  0  0  0  0  0  0  0
    8.5621    2.4938    1.8547 C   0  0  1  0  0  0  0  0  0  0  0  0
    6.6603    6.1816    0.3407 C   0  0  1  0  0  0  0  0  0  0  0  0
    4.6587    0.7511    3.5726 C   0  0  2  0  0  0  0  0  0  0  0  0
    4.5927    2.0633    4.2392 N   0  0  0  0  0  0  0  0  0  0  0  0
   10.1899   -0.2677    6.3485 C   0  0  0  0  0  0  0  0  0  0  0  0
    7.2409    3.2929    2.0706 C   0  0  2  0  0  0  0  0  0  0  0  0
    6.1878    2.9543    1.1349 O   0  0  0  0  0  0  0  0  0  0  0  0
    6.6945    6.7697   -1.1159 C   0  0  2  0  0  0  0  0  0  0  0  0
    8.0154    7.4046   -1.4039 N   0  0  0  0  0  0  0  0  0  0  0  0
    3.8222   -0.2224    4.4231 C   0  0  1  0  0  0  0  0  0  0  0  0
    2.4797    0.2508    4.5447 O   0  0  0  0  0  0  0  0  0  0  0  0
    8.6328   -0.0634    6.2214 C   0  0  2  0  0  0  0  0  0  0  0  0
    7.9099   -1.2443    6.7661 N   0  0  0  0  0  0  0  0  0  0  0  0
    7.7503    4.7334    2.0016 C   0  0  2  0  0  0  0  0  0  0  0  0
    7.7114    5.2528    0.6343 O   0  0  0  0  0  0  0  0  0  0  0  0
    5.4997    7.8231   -1.2889 C   0  0  1  0  0  0  0  0  0  0  0  0
    4.2504    7.1019   -1.3787 O   0  0  0  0  0  0  0  0  0  0  0  0
    3.8688   -1.6315    3.7896 C   0  0  2  0  0  0  0  0  0  0  0  0
    3.0938   -2.5312    4.5474 O   0  0  0  0  0  0  0  0  0  0  0  0
    8.2217    0.1601    4.7125 C   0  0  2  0  0  0  0  0  0  0  0  0
    9.1888    4.7015    2.5448 C   0  0  2  0  0  0  0  0  0  0  0  0
    9.6414    3.4001    2.1787 O   0  0  0  0  0  0  0  0  0  0  0  0
    5.4233    8.8799   -0.0870 C   0  0  2  0  0  0  0  0  0  0  0  0
    6.5615    9.7343   -0.1914 O   0  0  0  0  0  0  0  0  0  0  0  0
    5.3574   -2.1094    3.7165 C   0  0  2  0  0  0  0  0  0  0  0  0
    6.1425   -1.1552    2.9337 O   0  0  0  0  0  0  0  0  0  0  0  0
    8.9440    1.3629    4.0669 C   0  0  2  0  0  0  0  0  0  0  0  0
    8.5951    1.3059    2.6564 O   0  0  0  0  0  0  0  0  0  0  0  0
    9.3165    4.9280    4.0832 C   0  0  0  0  0  0  0  0  0  0  0  0
   10.6886    5.1089    4.4198 O   0  0  0  0  0  0  0  0  0  0  0  0
    5.4224    8.1404    1.3042 C   0  0  1  0  0  0  0  0  0  0  0  0
    6.6483    7.3241    1.3345 O   0  0  0  0  0  0  0  0  0  0  0  0
    5.4977   -3.4825    3.1011 C   0  0  0  0  0  0  0  0  0  0  0  0
    5.0485   -3.4646    1.7680 O   0  0  0  0  0  0  0  0  0  0  0  0
   10.5123    1.2318    4.2639 C   0  0  1  0  0  0  0  0  0  0  0  0
   11.1684    2.4156    3.8015 O   0  0  0  0  0  0  0  0  0  0  0  0
    5.3821    9.1184    2.5574 C   0  0  0  0  0  0  0  0  0  0  0  0
    5.5051    8.4623    3.8882 N   0  0  0  0  0  0  0  0  0  0  0  0
  1  2  1  1  0  0  0
  1  7  1  0  0  0  0
  1 30  1  0  0  0  0
  3  4  1  6  0  0  0
  3  9  1  0  0  0  0
  3 39  1  0  0  0  0
  5 10  1  0  0  0  0
  5 26  1  0  0  0  0
  5 32  1  1  0  0  0
  6 12  1  0  0  0  0
  6 36  1  0  0  0  0
  6 19  1  1  0  0  0
  7  8  1  1  0  0  0
  7 14  1  0  0  0  0
  9 16  1  0  0  0  0
 10 11  1  6  0  0  0
 10 18  1  0  0  0  0
 12 13  1  1  0  0  0
 12 20  1  0  0  0  0
 14 15  1  6  0  0  0
 14 22  1  0  0  0  0
 16 17  1  6  0  0  0
 16 24  1  0  0  0  0
 18 19  1  6  0  0  0
 18 25  1  0  0  0  0
 20 21  1  1  0  0  0
 20 27  1  0  0  0  0
 22 23  1  1  0  0  0
 22 29  1  0  0  0  0
 24  2  1  1  0  0  0
 24 31  1  0  0  0  0
 25 26  1  0  0  0  0
 25 33  1  1  0  0  0
 27 28  1  1  0  0  0
 27 35  1  0  0  0  0
 29 30  1  0  0  0  0
 29 37  1  6  0  0  0
 31 32  1  6  0  0  0
 31 39  1  0  0  0  0
 33 34  1  0  0  0  0
 35 36  1  0  0  0  0
 35 41  1  1  0  0  0
 37 38  1  0  0  0  0
 39 40  1  1  0  0  0
 41 42  1  0  0  0  0
M  END
>  <CHROM.1>
-171.84729855,-79.87217144,177.14139875,104.80285622,-163.50184935,-169.89971817
62.80726398,152.43919832,-174.65823158,7.06715542,2.84474577,2.83950474,1.54857998
0.36197842,2.72430806

>  <Name>
2o3w_lig

>  <RI>
0

>  <Rbt.Current_Directory>
/home/itssahil/PROJECTS/Mol_Feturizer/New_Systems/rnas/2o3w

>  <Rbt.Executable>
rbdock ($Id: //depot/dev/client3/rdock/2013.1/src/exe/rbdock.cxx#4 $)

>  <Rbt.Library>
libRbt.so (2013.1, Build901 2013/11/27)

>  <Rbt.Parameter_File>
/export/apps/rDock/src/rDock_2013.1_src/data/scripts/dock_solv.prm

>  <Rbt.Receptor>
prm/pocket_docking_3.prm

>  <SCORE>
-11.6669

>  <SCORE.INTER>
-4.03376

>  <SCORE.INTER.CONST>
1

>  <SCORE.INTER.POLAR>
-1

>  <SCORE.INTER.ROT>
9

>  <SCORE.INTER.SOLV>
14.2397

>  <SCORE.INTER.VDW>
-13.7024

>  <SCORE.INTER.norm>
-0.0960419

>  <SCORE.INTRA>
-7.63312

>  <SCORE.INTRA.DIHEDRAL>
-14.6406

>  <SCORE.INTRA.DIHEDRAL.0>
27.8999

>  <SCORE.INTRA.POLAR>
0

>  <SCORE.INTRA.POLAR.0>
0

>  <SCORE.INTRA.REPUL>
0

>  <SCORE.INTRA.REPUL.0>
0

>  <SCORE.INTRA.SOLV>
-3.44377

>  <SCORE.INTRA.SOLV.lig_0>
-104.479

>  <SCORE.INTRA.VDW>
1.40908

>  <SCORE.INTRA.VDW.0>
-6.17816

>  <SCORE.INTRA.norm>
-0.181741

>  <SCORE.RESTR>
0

>  <SCORE.RESTR.CAVITY>
0

>  <SCORE.RESTR.norm>
0

>  <SCORE.SYSTEM>
0

>  <SCORE.SYSTEM.CONST>
0

>  <SCORE.SYSTEM.DIHEDRAL>
0

>  <SCORE.SYSTEM.SOLV>
0

>  <SCORE.SYSTEM.norm>
0

>  <SCORE.heavy>
42

>  <SCORE.norm>
-0.277783

>  <RMSD>
2.935

$$$$
2o3w_lig
 OpenBabel11021811463D
libRbt.so/2013.1/901 2013/11/27
 42 45  0  0  0  0  0  0  0  0999 V2000
    7.9263   -1.5040    5.4018 C   0  0  2  0  0  0  0  0  0  0  0  0
    7.8512   -0.1088    5.0626 O   0  0  0  0  0  0  0  0  0  0  0  0
   10.4300    2.9452    6.7416 C   0  0  2  0  0  0  0  0  0  0  0  0
   11.5831    3.8614    6.9892 N   0  0  0  0  0  0  0  0  0  0  0  0
    7.8047    3.3841    2.8964 C   0  0  1  0  0  0  0  0  0  0  0  0
    5.3819    6.2507    1.0902 C   0  0  1  0  0  0  0  0  0  0  0  0
    8.7821   -2.1952    4.2981 C   0  0  2  0  0  0  0  0  0  0  0  0
   10.0519   -1.4919    4.0462 N   0  0  0  0  0  0  0  0  0  0  0  0
   10.8401    1.4336    6.9626 C   0  0  0  0  0  0  0  0  0  0  0  0
    7.4799    3.1388    1.3914 C   0  0  2  0  0  0  0  0  0  0  0  0
    8.5518    3.5083    0.4894 O   0  0  0  0  0  0  0  0  0  0  0  0
    3.9342    5.6654    0.9154 C   0  0  2  0  0  0  0  0  0  0  0  0
    3.7604    5.0690   -0.4429 N   0  0  0  0  0  0  0  0  0  0  0  0
    8.0428   -2.2748    2.9497 C   0  0  1  0  0  0  0  0  0  0  0  0
    8.8469   -2.9495    1.9807 O   0  0  0  0  0  0  0  0  0  0  0  0
    9.5809    0.5210    6.7094 C   0  0  2  0  0  0  0  0  0  0  0  0
    9.9277   -0.9100    6.9232 N   0  0  0  0  0  0  0  0  0  0  0  0
    6.1804    3.9302    1.2352 C   0  0  2  0  0  0  0  0  0  0  0  0
    6.4382    5.3152    0.8401 O   0  0  0  0  0  0  0  0  0  0  0  0
    2.8600    6.8251    1.1765 C   0  0  1  0  0  0  0  0  0  0  0  0
    2.8084    7.1037    2.5937 O   0  0  0  0  0  0  0  0  0  0  0  0
    6.6838   -2.9840    3.1479 C   0  0  2  0  0  0  0  0  0  0  0  0
    6.0016   -3.0798    1.9192 O   0  0  0  0  0  0  0  0  0  0  0  0
    9.0349    0.7204    5.2404 C   0  0  2  0  0  0  0  0  0  0  0  0
    5.4753    3.8621    2.6003 C   0  0  2  0  0  0  0  0  0  0  0  0
    6.5621    3.7827    3.5195 O   0  0  0  0  0  0  0  0  0  0  0  0
    3.1934    8.1732    0.3771 C   0  0  2  0  0  0  0  0  0  0  0  0
    2.9869    7.9134   -1.0109 O   0  0  0  0  0  0  0  0  0  0  0  0
    5.8360   -2.1809    4.1900 C   0  0  2  0  0  0  0  0  0  0  0  0
    6.5687   -2.0871    5.4526 O   0  0  0  0  0  0  0  0  0  0  0  0
    8.6657    2.1882    4.9328 C   0  0  2  0  0  0  0  0  0  0  0  0
    8.3666    2.2167    3.5101 O   0  0  0  0  0  0  0  0  0  0  0  0
    4.5005    2.6569    2.7782 C   0  0  0  0  0  0  0  0  0  0  0  0
    3.4230    2.7832    1.8552 O   0  0  0  0  0  0  0  0  0  0  0  0
    4.6832    8.6173    0.6330 C   0  0  1  0  0  0  0  0  0  0  0  0
    5.5254    7.4814    0.2197 O   0  0  0  0  0  0  0  0  0  0  0  0
    4.4869   -2.8101    4.4507 C   0  0  0  0  0  0  0  0  0  0  0  0
    3.6343   -2.6021    3.3512 O   0  0  0  0  0  0  0  0  0  0  0  0
    9.8862    3.1434    5.2700 C   0  0  1  0  0  0  0  0  0  0  0  0
    9.4952    4.5119    5.1296 O   0  0  0  0  0  0  0  0  0  0  0  0
    5.1108    9.9327   -0.1515 C   0  0  0  0  0  0  0  0  0  0  0  0
    6.5692   10.2320   -0.1565 N   0  0  0  0  0  0  0  0  0  0  0  0
  1  2  1  6  0  0  0
  1  7  1  0  0  0  0
  1 30  1  0  0  0  0
  3  4  1  6  0  0  0
  3  9  1  0  0  0  0
  3 39  1  0  0  0  0
  5 10  1  0  0  0  0
  5 26  1  0  0  0  0
  5 32  1  1  0  0  0
  6 12  1  0  0  0  0
  6 36  1  0  0  0  0
  6 19  1  6  0  0  0
  7  8  1  6  0  0  0
  7 14  1  0  0  0  0
  9 16  1  0  0  0  0
 10 11  1  6  0  0  0
 10 18  1  0  0  0  0
 12 13  1  6  0  0  0
 12 20  1  0  0  0  0
 14 15  1  6  0  0  0
 14 22  1  0  0  0  0
 16 17  1  6  0  0  0
 16 24  1  0  0  0  0
 18 19  1  1  0  0  0
 18 25  1  0  0  0  0
 20 21  1  1  0  0  0
 20 27  1  0  0  0  0
 22 23  1  6  0  0  0
 22 29  1  0  0  0  0
 24  2  1  1  0  0  0
 24 31  1  0  0  0  0
 25 26  1  0  0  0  0
 25 33  1  6  0  0  0
 27 28  1  6  0  0  0
 27 35  1  0  0  0  0
 29 30  1  0  0  0  0
 29 37  1  1  0  0  0
 31 32  1  6  0  0  0
 31 39  1  0  0  0  0
 33 34  1  0  0  0  0
 35 36  1  0  0  0  0
 35 41  1  6  0  0  0
 37 38  1  0  0  0  0
 39 40  1  1  0  0  0
 41 42  1  0  0  0  0
M  END
>  <CHROM.1>
-72.80338130,-175.94285008,-34.97847622,-159.95356437,-51.61330262,-64.27425953
-73.31145939,171.36229579,-168.26082619,6.77194302,2.61175625,3.00485853
1.12838596,0.60749089,2.95327166

>  <Name>
2o3w_lig

>  <RI>
0

>  <Rbt.Current_Directory>
/home/itssahil/PROJECTS/Mol_Feturizer/New_Systems/rnas/2o3w

>  <Rbt.Executable>
rbdock ($Id: //depot/dev/client3/rdock/2013.1/src/exe/rbdock.cxx#4 $)

>  <Rbt.Library>
libRbt.so (2013.1, Build901 2013/11/27)

>  <Rbt.Parameter_File>
/export/apps/rDock/src/rDock_2013.1_src/data/scripts/dock_solv.prm

>  <Rbt.Receptor>
prm/pocket_docking_2.prm

>  <SCORE>
-2.10822

>  <SCORE.INTER>
-0.525985

>  <SCORE.INTER.CONST>
1

>  <SCORE.INTER.POLAR>
-0.998287

>  <SCORE.INTER.ROT>
9

>  <SCORE.INTER.SOLV>
9.77476

>  <SCORE.INTER.VDW>
-9.88129

>  <SCORE.INTER.norm>
-0.0125235

>  <SCORE.INTRA>
-3.00778

>  <SCORE.INTRA.DIHEDRAL>
-20.5959

>  <SCORE.INTRA.DIHEDRAL.0>
27.8999

>  <SCORE.INTRA.POLAR>
0

>  <SCORE.INTRA.POLAR.0>
0

>  <SCORE.INTRA.REPUL>
0

>  <SCORE.INTRA.REPUL.0>
0

>  <SCORE.INTRA.SOLV>
1.86803

>  <SCORE.INTRA.SOLV.lig_0>
-104.479

>  <SCORE.INTRA.VDW>
6.35614

>  <SCORE.INTRA.VDW.0>
-6.17816

>  <SCORE.INTRA.norm>
-0.0716138

>  <SCORE.RESTR>
1.42555

>  <SCORE.RESTR.CAVITY>
1.42555

>  <SCORE.RESTR.norm>
0.0339417

>  <SCORE.SYSTEM>
0

>  <SCORE.SYSTEM.CONST>
0

>  <SCORE.SYSTEM.DIHEDRAL>
0

>  <SCORE.SYSTEM.SOLV>
0

>  <SCORE.SYSTEM.norm>
0

>  <SCORE.heavy>
42

>  <SCORE.norm>
-0.0501956

>  <RMSD>
2.955

$$$$
2o3w_lig
 OpenBabel11021811463D
libRbt.so/2013.1/901 2013/11/27
 42 45  0  0  0  0  0  0  0  0999 V2000
    8.3282   -0.7103    4.8542 C   0  0  2  0  0  0  0  0  0  0  0  0
    9.0247   -0.1487    3.7287 O   0  0  0  0  0  0  0  0  0  0  0  0
   10.5485    3.3940    5.7095 C   0  0  2  0  0  0  0  0  0  0  0  0
   11.2507    4.6821    5.9894 N   0  0  0  0  0  0  0  0  0  0  0  0
    6.8880    3.2285    2.7951 C   0  0  1  0  0  0  0  0  0  0  0  0
    5.1880    6.8283    1.7083 C   0  0  1  0  0  0  0  0  0  0  0  0
    7.9898   -2.1869    4.4893 C   0  0  2  0  0  0  0  0  0  0  0  0
    9.1599   -2.9247    3.9823 N   0  0  0  0  0  0  0  0  0  0  0  0
   11.5772    2.2414    5.3704 C   0  0  0  0  0  0  0  0  0  0  0  0
    7.1136    4.3930    1.7832 C   0  0  2  0  0  0  0  0  0  0  0  0
    7.6190    5.6090    2.3873 O   0  0  0  0  0  0  0  0  0  0  0  0
    4.1567    7.8107    2.3717 C   0  0  2  0  0  0  0  0  0  0  0  0
    2.7751    7.5558    1.8646 N   0  0  0  0  0  0  0  0  0  0  0  0
    6.8986   -2.2861    3.4075 C   0  0  1  0  0  0  0  0  0  0  0  0
    6.5927   -3.6544    3.1335 O   0  0  0  0  0  0  0  0  0  0  0  0
   10.7807    0.9076    5.1077 C   0  0  2  0  0  0  0  0  0  0  0  0
   11.7204   -0.2040    4.7992 N   0  0  0  0  0  0  0  0  0  0  0  0
    5.7304    4.4989    1.1391 C   0  0  2  0  0  0  0  0  0  0  0  0
    4.8717    5.4389    1.8602 O   0  0  0  0  0  0  0  0  0  0  0  0
    4.6057    9.3216    2.0844 C   0  0  1  0  0  0  0  0  0  0  0  0
    5.7545    9.6316    2.9047 O   0  0  0  0  0  0  0  0  0  0  0  0
    5.6444   -1.5085    3.8675 C   0  0  2  0  0  0  0  0  0  0  0  0
    4.6296   -1.6036    2.8950 O   0  0  0  0  0  0  0  0  0  0  0  0
    9.7660    1.0914    3.9109 C   0  0  2  0  0  0  0  0  0  0  0  0
    5.1423    3.0780    1.1603 C   0  0  2  0  0  0  0  0  0  0  0  0
    5.7243    2.5071    2.3298 O   0  0  0  0  0  0  0  0  0  0  0  0
    4.9610    9.5826    0.5438 C   0  0  2  0  0  0  0  0  0  0  0  0
    3.7436    9.5110   -0.1973 O   0  0  0  0  0  0  0  0  0  0  0  0
    6.0335   -0.0131    4.1164 C   0  0  2  0  0  0  0  0  0  0  0  0
    7.0940    0.0585    5.1214 O   0  0  0  0  0  0  0  0  0  0  0  0
    8.7626    2.2413    4.1478 C   0  0  2  0  0  0  0  0  0  0  0  0
    8.0432    2.3853    2.8923 O   0  0  0  0  0  0  0  0  0  0  0  0
    5.4578    2.2163   -0.1015 C   0  0  0  0  0  0  0  0  0  0  0  0
    4.4857    1.1819   -0.2199 O   0  0  0  0  0  0  0  0  0  0  0  0
    5.9832    8.5049    0.0188 C   0  0  1  0  0  0  0  0  0  0  0  0
    5.3501    7.1946    0.2480 O   0  0  0  0  0  0  0  0  0  0  0  0
    4.8626    0.8234    4.5776 C   0  0  0  0  0  0  0  0  0  0  0  0
    3.9468    0.9985    3.5240 O   0  0  0  0  0  0  0  0  0  0  0  0
    9.5354    3.5784    4.5094 C   0  0  1  0  0  0  0  0  0  0  0  0
    8.6059    4.6018    4.8759 O   0  0  0  0  0  0  0  0  0  0  0  0
    6.3665    8.6692   -1.5157 C   0  0  0  0  0  0  0  0  0  0  0  0
    7.0452    9.9447   -1.8750 N   0  0  0  0  0  0  0  0  0  0  0  0
  1  2  1  6  0  0  0
  1  7  1  0  0  0  0
  1 30  1  0  0  0  0
  3  4  1  6  0  0  0
  3  9  1  0  0  0  0
  3 39  1  0  0  0  0
  5 10  1  0  0  0  0
  5 26  1  0  0  0  0
  5 32  1  6  0  0  0
  6 12  1  0  0  0  0
  6 36  1  0  0  0  0
  6 19  1  6  0  0  0
  7  8  1  6  0  0  0
  7 14  1  0  0  0  0
  9 16  1  0  0  0  0
 10 11  1  1  0  0  0
 10 18  1  0  0  0  0
 12 13  1  6  0  0  0
 12 20  1  0  0  0  0
 14 15  1  1  0  0  0
 14 22  1  0  0  0  0
 16 17  1  6  0  0  0
 16 24  1  0  0  0  0
 18 19  1  1  0  0  0
 18 25  1  0  0  0  0
 20 21  1  1  0  0  0
 20 27  1  0  0  0  0
 22 23  1  6  0  0  0
 22 29  1  0  0  0  0
 24  2  1  1  0  0  0
 24 31  1  0  0  0  0
 25 26  1  0  0  0  0
 25 33  1  6  0  0  0
 27 28  1  6  0  0  0
 27 35  1  0  0  0  0
 29 30  1  0  0  0  0
 29 37  1  1  0  0  0
 31 32  1  6  0  0  0
 31 39  1  0  0  0  0
 33 34  1  0  0  0  0
 35 36  1  0  0  0  0
 35 41  1  6  0  0  0
 37 38  1  0  0  0  0
 39 40  1  1  0  0  0
 41 42  1  0  0  0  0
M  END
>  <CHROM.1>
-164.10607795,117.94898010,173.85437984,72.56793386,54.43309756,-157.63259347
-70.11519046,170.59486061,62.10752723,6.85707054,3.29023461,2.74954200,-1.23196349
-0.51829978,-0.19735833

>  <Name>
2o3w_lig

>  <RI>
0

>  <Rbt.Current_Directory>
/home/itssahil/PROJECTS/Mol_Feturizer/New_Systems/rnas/2o3w

>  <Rbt.Executable>
rbdock ($Id: //depot/dev/client3/rdock/2013.1/src/exe/rbdock.cxx#4 $)

>  <Rbt.Library>
libRbt.so (2013.1, Build901 2013/11/27)

>  <Rbt.Parameter_File>
/export/apps/rDock/src/rDock_2013.1_src/data/scripts/dock_solv.prm

>  <Rbt.Receptor>
prm/pocket_docking_2.prm

>  <SCORE>
-9.23157

>  <SCORE.INTER>
-2.40388

>  <SCORE.INTER.CONST>
1

>  <SCORE.INTER.POLAR>
-1

>  <SCORE.INTER.ROT>
9

>  <SCORE.INTER.SOLV>
10.8289

>  <SCORE.INTER.VDW>
-11.4789

>  <SCORE.INTER.norm>
-0.0572353

>  <SCORE.INTRA>
-8.09968

>  <SCORE.INTRA.DIHEDRAL>
-15.946

>  <SCORE.INTRA.DIHEDRAL.0>
27.8999

>  <SCORE.INTRA.POLAR>
0

>  <SCORE.INTRA.POLAR.0>
0

>  <SCORE.INTRA.REPUL>
0

>  <SCORE.INTRA.REPUL.0>
0

>  <SCORE.INTRA.SOLV>
-2.69765

>  <SCORE.INTRA.SOLV.lig_0>
-104.479

>  <SCORE.INTRA.VDW>
1.22213

>  <SCORE.INTRA.VDW.0>
-6.17816

>  <SCORE.INTRA.norm>
-0.19285

>  <SCORE.RESTR>
1.27199

>  <SCORE.RESTR.CAVITY>
1.27199

>  <SCORE.RESTR.norm>
0.0302855

>  <SCORE.SYSTEM>
0

>  <SCORE.SYSTEM.CONST>
0

>  <SCORE.SYSTEM.DIHEDRAL>
0

>  <SCORE.SYSTEM.SOLV>
0

>  <SCORE.SYSTEM.norm>
0

>  <SCORE.heavy>
42

>  <SCORE.norm>
-0.219799

>  <RMSD>
3.026

$$$$
2o3w_lig
 OpenBabel11021811463D
libRbt.so/2013.1/901 2013/11/27
 42 45  0  0  0  0  0  0  0  0999 V2000
    9.1975    0.8517    3.3385 C   0  0  2  0  0  0  0  0  0  0  0  0
    9.6456    1.4194    4.5812 O   0  0  0  0  0  0  0  0  0  0  0  0
   11.5909    5.1870    5.4852 C   0  0  2  0  0  0  0  0  0  0  0  0
   12.5546    6.3277    5.5017 N   0  0  0  0  0  0  0  0  0  0  0  0
    9.3725    4.3833    1.5861 C   0  0  1  0  0  0  0  0  0  0  0  0
    7.2426    6.6538   -1.4530 C   0  0  1  0  0  0  0  0  0  0  0  0
    8.1561   -0.2523    3.6919 C   0  0  2  0  0  0  0  0  0  0  0  0
    7.1233    0.2256    4.6276 N   0  0  0  0  0  0  0  0  0  0  0  0
   12.2583    3.8637    6.0379 C   0  0  0  0  0  0  0  0  0  0  0  0
    9.0461    3.7522    0.1982 C   0  0  2  0  0  0  0  0  0  0  0  0
   10.1698    3.7255   -0.7159 O   0  0  0  0  0  0  0  0  0  0  0  0
    7.6435    7.5801   -2.6573 C   0  0  2  0  0  0  0  0  0  0  0  0
    8.8616    8.3809   -2.3318 N   0  0  0  0  0  0  0  0  0  0  0  0
    8.8097   -1.4852    4.3428 C   0  0  1  0  0  0  0  0  0  0  0  0
    7.8260   -2.4854    4.6127 O   0  0  0  0  0  0  0  0  0  0  0  0
   11.1897    2.7060    6.0169 C   0  0  2  0  0  0  0  0  0  0  0  0
   11.7806    1.4469    6.5451 N   0  0  0  0  0  0  0  0  0  0  0  0
    7.8542    4.6035   -0.2422 C   0  0  2  0  0  0  0  0  0  0  0  0
    8.2835    5.7787   -1.0008 O   0  0  0  0  0  0  0  0  0  0  0  0
    6.4094    8.5333   -3.0248 C   0  0  1  0  0  0  0  0  0  0  0  0
    5.3937    7.7477   -3.6881 O   0  0  0  0  0  0  0  0  0  0  0  0
    9.9252   -2.0254    3.4191 C   0  0  2  0  0  0  0  0  0  0  0  0
   10.5225   -3.1648    3.9932 O   0  0  0  0  0  0  0  0  0  0  0  0
   10.6569    2.4666    4.5490 C   0  0  2  0  0  0  0  0  0  0  0  0
    7.1229    5.0100    1.0483 C   0  0  2  0  0  0  0  0  0  0  0  0
    8.1766    5.0792    2.0062 O   0  0  0  0  0  0  0  0  0  0  0  0
    5.7763    9.2540   -1.7412 C   0  0  2  0  0  0  0  0  0  0  0  0
    6.7285   10.2057   -1.2680 O   0  0  0  0  0  0  0  0  0  0  0  0
   10.9881   -0.8997    3.1901 C   0  0  2  0  0  0  0  0  0  0  0  0
   10.3426    0.2743    2.6030 O   0  0  0  0  0  0  0  0  0  0  0  0
   10.0400    3.7357    3.9214 C   0  0  2  0  0  0  0  0  0  0  0  0
    9.7793    3.3876    2.5338 O   0  0  0  0  0  0  0  0  0  0  0  0
    6.0073    4.0225    1.5115 C   0  0  0  0  0  0  0  0  0  0  0  0
    5.0398    3.8862    0.4751 O   0  0  0  0  0  0  0  0  0  0  0  0
    5.4527    8.2004   -0.6154 C   0  0  1  0  0  0  0  0  0  0  0  0
    6.7222    7.5137   -0.3205 O   0  0  0  0  0  0  0  0  0  0  0  0
   12.1177   -1.3414    2.2885 C   0  0  0  0  0  0  0  0  0  0  0  0
   11.6124   -1.7370    1.0365 O   0  0  0  0  0  0  0  0  0  0  0  0
   11.0606    4.9462    4.0151 C   0  0  1  0  0  0  0  0  0  0  0  0
   10.4353    6.1542    3.5731 O   0  0  0  0  0  0  0  0  0  0  0  0
    4.8501    8.8356    0.7120 C   0  0  0  0  0  0  0  0  0  0  0  0
    3.4862    9.4185    0.5833 N   0  0  0  0  0  0  0  0  0  0  0  0
  1  2  1  1  0  0  0
  1  7  1  0  0  0  0
  1 30  1  0  0  0  0
  3  4  1  6  0  0  0
  3  9  1  0  0  0  0
  3 39  1  0  0  0  0
  5 10  1  0  0  0  0
  5 26  1  0  0  0  0
  5 32  1  1  0  0  0
  6 12  1  0  0  0  0
  6 36  1  0  0  0  0
  6 19  1  1  0  0  0
  7  8  1  1  0  0  0
  7 14  1  0  0  0  0
  9 16  1  0  0  0  0
 10 11  1  6  0  0  0
 10 18  1  0  0  0  0
 12 13  1  1  0  0  0
 12 20  1  0  0  0  0
 14 15  1  6  0  0  0
 14 22  1  0  0  0  0
 16 17  1  6  0  0  0
 16 24  1  0  0  0  0
 18 19  1  1  0  0  0
 18 25  1  0  0  0  0
 20 21  1  1  0  0  0
 20 27  1  0  0  0  0
 22 23  1  1  0  0  0
 22 29  1  0  0  0  0
 24  2  1  1  0  0  0
 24 31  1  0  0  0  0
 25 26  1  0  0  0  0
 25 33  1  1  0  0  0
 27 28  1  1  0  0  0
 27 35  1  0  0  0  0
 29 30  1  0  0  0  0
 29 37  1  6  0  0  0
 31 32  1  6  0  0  0
 31 39  1  0  0  0  0
 33 34  1  0  0  0  0
 35 36  1  0  0  0  0
 35 41  1  1  0  0  0
 37 38  1  0  0  0  0
 39 40  1  1  0  0  0
 41 42  1  0  0  0  0
M  END
>  <CHROM.1>
178.61524841,-175.52586405,-159.05537883,-179.47286868,-168.38580447,-58.10461762
58.81933190,-171.33040208,67.81979375,8.73600218,3.84044824,1.85497065,0.93068527
0.88093900,3.08310229

>  <Name>
2o3w_lig

>  <RI>
0

>  <Rbt.Current_Directory>
/home/itssahil/PROJECTS/Mol_Feturizer/New_Systems/rnas/2o3w

>  <Rbt.Executable>
rbdock ($Id: //depot/dev/client3/rdock/2013.1/src/exe/rbdock.cxx#4 $)

>  <Rbt.Library>
libRbt.so (2013.1, Build901 2013/11/27)

>  <Rbt.Parameter_File>
/export/apps/rDock/src/rDock_2013.1_src/data/scripts/dock_solv.prm

>  <Rbt.Receptor>
prm/pocket_docking_6.prm

>  <SCORE>
-26.0883

>  <SCORE.INTER>
-13.6798

>  <SCORE.INTER.CONST>
1

>  <SCORE.INTER.POLAR>
-2.59067

>  <SCORE.INTER.ROT>
9

>  <SCORE.INTER.SOLV>
16.0344

>  <SCORE.INTER.VDW>
-15.4291

>  <SCORE.INTER.norm>
-0.325709

>  <SCORE.INTRA>
-12.4085

>  <SCORE.INTRA.DIHEDRAL>
-24.4765

>  <SCORE.INTRA.DIHEDRAL.0>
27.8999

>  <SCORE.INTRA.POLAR>
0

>  <SCORE.INTRA.POLAR.0>
0

>  <SCORE.INTRA.REPUL>
0

>  <SCORE.INTRA.REPUL.0>
0

>  <SCORE.INTRA.SOLV>
-5.77318

>  <SCORE.INTRA.SOLV.lig_0>
-104.479

>  <SCORE.INTRA.VDW>
2.71631

>  <SCORE.INTRA.VDW.0>
-6.17816

>  <SCORE.INTRA.norm>
-0.295441

>  <SCORE.RESTR>
0

>  <SCORE.RESTR.CAVITY>
0

>  <SCORE.RESTR.norm>
0

>  <SCORE.SYSTEM>
0

>  <SCORE.SYSTEM.CONST>
0

>  <SCORE.SYSTEM.DIHEDRAL>
0

>  <SCORE.SYSTEM.SOLV>
0

>  <SCORE.SYSTEM.norm>
0

>  <SCORE.heavy>
42

>  <SCORE.norm>
-0.62115

>  <RMSD>
3.084

$$$$
2o3w_lig
 OpenBabel11021811463D
libRbt.so/2013.1/901 2013/11/27
 42 45  0  0  0  0  0  0  0  0999 V2000
   10.7481   -1.1224    5.7984 C   0  0  2  0  0  0  0  0  0  0  0  0
   10.6974    0.2966    6.0248 O   0  0  0  0  0  0  0  0  0  0  0  0
   13.8355    3.2541    6.4734 C   0  0  2  0  0  0  0  0  0  0  0  0
   15.0051    4.1451    6.2112 N   0  0  0  0  0  0  0  0  0  0  0  0
    9.7352    3.8307    4.2378 C   0  0  1  0  0  0  0  0  0  0  0  0
    7.8911    6.3036    1.6500 C   0  0  1  0  0  0  0  0  0  0  0  0
   10.2543   -1.3686    4.3411 C   0  0  2  0  0  0  0  0  0  0  0  0
   10.9346   -0.5036    3.3616 N   0  0  0  0  0  0  0  0  0  0  0  0
   14.2589    1.7303    6.4531 C   0  0  0  0  0  0  0  0  0  0  0  0
    9.0182    3.7699    2.8547 C   0  0  2  0  0  0  0  0  0  0  0  0
    9.7559    4.4026    1.7802 O   0  0  0  0  0  0  0  0  0  0  0  0
    7.8938    7.8653    1.4774 C   0  0  2  0  0  0  0  0  0  0  0  0
    6.6373    8.4641    2.0191 N   0  0  0  0  0  0  0  0  0  0  0  0
    8.7436   -1.1145    4.1853 C   0  0  1  0  0  0  0  0  0  0  0  0
    8.3284   -1.3901    2.8464 O   0  0  0  0  0  0  0  0  0  0  0  0
   12.9918    0.8445    6.7572 C   0  0  2  0  0  0  0  0  0  0  0  0
   13.3573   -0.5977    6.7603 N   0  0  0  0  0  0  0  0  0  0  0  0
    7.6672    4.4024    3.1925 C   0  0  2  0  0  0  0  0  0  0  0  0
    7.6873    5.8520    2.9947 O   0  0  0  0  0  0  0  0  0  0  0  0
    8.0814    8.2256   -0.0724 C   0  0  1  0  0  0  0  0  0  0  0  0
    9.4523    7.9663   -0.4498 O   0  0  0  0  0  0  0  0  0  0  0  0
    7.9676   -1.9777    5.2059 C   0  0  2  0  0  0  0  0  0  0  0  0
    6.5815   -1.7691    5.0648 O   0  0  0  0  0  0  0  0  0  0  0  0
   11.8613    1.1026    5.6842 C   0  0  2  0  0  0  0  0  0  0  0  0
    7.3864    4.0444    4.6617 C   0  0  2  0  0  0  0  0  0  0  0  0
    8.6920    3.9706    5.2294 O   0  0  0  0  0  0  0  0  0  0  0  0
    7.0968    7.3970   -1.0272 C   0  0  2  0  0  0  0  0  0  0  0  0
    5.7708    7.8693   -0.7928 O   0  0  0  0  0  0  0  0  0  0  0  0
    8.4384   -1.6061    6.6515 C   0  0  2  0  0  0  0  0  0  0  0  0
    9.8804   -1.8218    6.7698 O   0  0  0  0  0  0  0  0  0  0  0  0
   11.4355    2.5852    5.6076 C   0  0  2  0  0  0  0  0  0  0  0  0
   10.5423    2.6675    4.4631 O   0  0  0  0  0  0  0  0  0  0  0  0
    6.6049    2.7112    4.8763 C   0  0  0  0  0  0  0  0  0  0  0  0
    7.3290    1.6400    4.2788 O   0  0  0  0  0  0  0  0  0  0  0  0
    7.1892    5.8551   -0.7173 C   0  0  1  0  0  0  0  0  0  0  0  0
    6.8643    5.7048    0.7118 O   0  0  0  0  0  0  0  0  0  0  0  0
    7.7323   -2.4110    7.7180 C   0  0  0  0  0  0  0  0  0  0  0  0
    8.0487   -3.7753    7.5849 O   0  0  0  0  0  0  0  0  0  0  0  0
   12.7060    3.5111    5.3970 C   0  0  1  0  0  0  0  0  0  0  0  0
   12.3312    4.8890    5.4777 O   0  0  0  0  0  0  0  0  0  0  0  0
    6.2168    4.9578   -1.5993 C   0  0  0  0  0  0  0  0  0  0  0  0
    6.2991    3.4913   -1.3560 N   0  0  0  0  0  0  0  0  0  0  0  0
  1  2  1  1  0  0  0
  1  7  1  0  0  0  0
  1 30  1  0  0  0  0
  3  4  1  6  0  0  0
  3  9  1  0  0  0  0
  3 39  1  0  0  0  0
  5 10  1  0  0  0  0
  5 26  1  0  0  0  0
  5 32  1  1  0  0  0
  6 12  1  0  0  0  0
  6 36  1  0  0  0  0
  6 19  1  1  0  0  0
  7  8  1  6  0  0  0
  7 14  1  0  0  0  0
  9 16  1  0  0  0  0
 10 11  1  6  0  0  0
 10 18  1  0  0  0  0
 12 13  1  6  0  0  0
 12 20  1  0  0  0  0
 14 15  1  6  0  0  0
 14 22  1  0  0  0  0
 16 17  1  6  0  0  0
 16 24  1  0  0  0  0
 18 19  1  1  0  0  0
 18 25  1  0  0  0  0
 20 21  1  6  0  0  0
 20 27  1  0  0  0  0
 22 23  1  1  0  0  0
 22 29  1  0  0  0  0
 24  2  1  1  0  0  0
 24 31  1  0  0  0  0
 25 26  1  0  0  0  0
 25 33  1  6  0  0  0
 27 28  1  1  0  0  0
 27 35  1  0  0  0  0
 29 30  1  0  0  0  0
 29 37  1  1  0  0  0
 31 32  1  6  0  0  0
 31 39  1  0  0  0  0
 33 34  1  0  0  0  0
 35 36  1  0  0  0  0
 35 41  1  6  0  0  0
 37 38  1  0  0  0  0
 39 40  1  1  0  0  0
 41 42  1  0  0  0  0
M  END
>  <CHROM.1>
-88.73515000,172.01408352,179.49974896,64.08833629,-73.55989575,57.66414941
63.79577143,167.27230675,178.65277639,9.25016452,2.70901320,3.77669248,1.21735166
0.50639228,2.65740217

>  <Name>
2o3w_lig

>  <RI>
0

>  <Rbt.Current_Directory>
/home/itssahil/PROJECTS/Mol_Feturizer/New_Systems/rnas/2o3w

>  <Rbt.Executable>
rbdock ($Id: //depot/dev/client3/rdock/2013.1/src/exe/rbdock.cxx#4 $)

>  <Rbt.Library>
libRbt.so (2013.1, Build901 2013/11/27)

>  <Rbt.Parameter_File>
/export/apps/rDock/src/rDock_2013.1_src/data/scripts/dock_solv.prm

>  <Rbt.Receptor>
prm/pocket_docking_4.prm

>  <SCORE>
-15.0752

>  <SCORE.INTER>
-5.31406

>  <SCORE.INTER.CONST>
1

>  <SCORE.INTER.POLAR>
-0.979796

>  <SCORE.INTER.ROT>
9

>  <SCORE.INTER.SOLV>
9.55048

>  <SCORE.INTER.VDW>
-13.0602

>  <SCORE.INTER.norm>
-0.126525

>  <SCORE.INTRA>
-9.7611

>  <SCORE.INTRA.DIHEDRAL>
-22.2813

>  <SCORE.INTRA.DIHEDRAL.0>
27.8999

>  <SCORE.INTRA.POLAR>
0

>  <SCORE.INTRA.POLAR.0>
0

>  <SCORE.INTRA.REPUL>
0

>  <SCORE.INTRA.REPUL.0>
0

>  <SCORE.INTRA.SOLV>
-1.2729

>  <SCORE.INTRA.SOLV.lig_0>
-104.479

>  <SCORE.INTRA.VDW>
2.01601

>  <SCORE.INTRA.VDW.0>
-6.17816

>  <SCORE.INTRA.norm>
-0.232407

>  <SCORE.RESTR>
0

>  <SCORE.RESTR.CAVITY>
0

>  <SCORE.RESTR.norm>
0

>  <SCORE.SYSTEM>
0

>  <SCORE.SYSTEM.CONST>
0

>  <SCORE.SYSTEM.DIHEDRAL>
0

>  <SCORE.SYSTEM.SOLV>
0

>  <SCORE.SYSTEM.norm>
0

>  <SCORE.heavy>
42

>  <SCORE.norm>
-0.358932

>  <RMSD>
3.100

$$$$
2o3w_lig
 OpenBabel11021811463D
libRbt.so/2013.1/901 2013/11/27
 42 45  0  0  0  0  0  0  0  0999 V2000
    7.4887   -1.4019    4.8221 C   0  0  2  0  0  0  0  0  0  0  0  0
    8.3211   -0.9482    3.7411 O   0  0  0  0  0  0  0  0  0  0  0  0
   10.3985    2.2129    5.8596 C   0  0  2  0  0  0  0  0  0  0  0  0
   11.3565    3.3017    6.2164 N   0  0  0  0  0  0  0  0  0  0  0  0
    7.4987    2.9386    2.3803 C   0  0  1  0  0  0  0  0  0  0  0  0
    5.0670    5.9875    0.8188 C   0  0  1  0  0  0  0  0  0  0  0  0
    6.8892   -2.7738    4.3899 C   0  0  2  0  0  0  0  0  0  0  0  0
    7.9156   -3.7054    3.8908 N   0  0  0  0  0  0  0  0  0  0  0  0
   11.1409    0.8257    5.6969 C   0  0  0  0  0  0  0  0  0  0  0  0
    7.7063    3.2904    0.8756 C   0  0  2  0  0  0  0  0  0  0  0  0
    8.8646    4.1222    0.6193 O   0  0  0  0  0  0  0  0  0  0  0  0
    4.2252    5.9002   -0.5050 C   0  0  2  0  0  0  0  0  0  0  0  0
    4.9907    6.4550   -1.6614 N   0  0  0  0  0  0  0  0  0  0  0  0
    5.8404   -2.6270    3.2721 C   0  0  1  0  0  0  0  0  0  0  0  0
    5.2901   -3.9018    2.9360 O   0  0  0  0  0  0  0  0  0  0  0  0
   10.0786   -0.2832    5.3442 C   0  0  2  0  0  0  0  0  0  0  0  0
   10.7418   -1.6070    5.1978 N   0  0  0  0  0  0  0  0  0  0  0  0
    6.3536    3.9131    0.5268 C   0  0  2  0  0  0  0  0  0  0  0  0
    6.3530    5.3590    0.7510 O   0  0  0  0  0  0  0  0  0  0  0  0
    2.8407    6.6808   -0.3037 C   0  0  1  0  0  0  0  0  0  0  0  0
    1.9800    5.8930    0.5493 O   0  0  0  0  0  0  0  0  0  0  0  0
    4.7409   -1.6388    3.7232 C   0  0  2  0  0  0  0  0  0  0  0  0
    3.7638   -1.5062    2.7172 O   0  0  0  0  0  0  0  0  0  0  0  0
    9.3179    0.0792    4.0078 C   0  0  2  0  0  0  0  0  0  0  0  0
    5.3192    3.2100    1.4218 C   0  0  2  0  0  0  0  0  0  0  0  0
    6.0690    2.8952    2.5928 O   0  0  0  0  0  0  0  0  0  0  0  0
    3.0354    8.1390    0.3313 C   0  0  2  0  0  0  0  0  0  0  0  0
    3.6719    8.9553   -0.6510 O   0  0  0  0  0  0  0  0  0  0  0  0
    5.3981   -0.2545    4.0418 C   0  0  2  0  0  0  0  0  0  0  0  0
    6.4143   -0.4199    5.0809 O   0  0  0  0  0  0  0  0  0  0  0  0
    8.6133    1.4520    4.0732 C   0  0  2  0  0  0  0  0  0  0  0  0
    8.1337    1.6999    2.7231 O   0  0  0  0  0  0  0  0  0  0  0  0
    4.6777    1.9286    0.8047 C   0  0  0  0  0  0  0  0  0  0  0  0
    3.5804    1.5156    1.6135 O   0  0  0  0  0  0  0  0  0  0  0  0
    3.9186    8.0646    1.6339 C   0  0  1  0  0  0  0  0  0  0  0  0
    5.1902    7.4394    1.2309 O   0  0  0  0  0  0  0  0  0  0  0  0
    4.3913    0.7757    4.4990 C   0  0  0  0  0  0  0  0  0  0  0  0
    5.0129    2.0292    4.6461 O   0  0  0  0  0  0  0  0  0  0  0  0
    9.6400    2.5753    4.5203 C   0  0  1  0  0  0  0  0  0  0  0  0
    8.9564    3.8144    4.7272 O   0  0  0  0  0  0  0  0  0  0  0  0
    4.1912    9.4764    2.3129 C   0  0  0  0  0  0  0  0  0  0  0  0
    5.5149    9.6242    2.9782 N   0  0  0  0  0  0  0  0  0  0  0  0
  1  2  1  6  0  0  0
  1  7  1  0  0  0  0
  1 30  1  0  0  0  0
  3  4  1  6  0  0  0
  3  9  1  0  0  0  0
  3 39  1  0  0  0  0
  5 10  1  0  0  0  0
  5 26  1  0  0  0  0
  5 32  1  6  0  0  0
  6 12  1  0  0  0  0
  6 36  1  0  0  0  0
  6 19  1  6  0  0  0
  7  8  1  6  0  0  0
  7 14  1  0  0  0  0
  9 16  1  0  0  0  0
 10 11  1  1  0  0  0
 10 18  1  0  0  0  0
 12 13  1  6  0  0  0
 12 20  1  0  0  0  0
 14 15  1  1  0  0  0
 14 22  1  0  0  0  0
 16 17  1  6  0  0  0
 16 24  1  0  0  0  0
 18 19  1  1  0  0  0
 18 25  1  0  0  0  0
 20 21  1  1  0  0  0
 20 27  1  0  0  0  0
 22 23  1  6  0  0  0
 22 29  1  0  0  0  0
 24  2  1  1  0  0  0
 24 31  1  0  0  0  0
 25 26  1  0  0  0  0
 25 33  1  6  0  0  0
 27 28  1  6  0  0  0
 27 35  1  0  0  0  0
 29 30  1  0  0  0  0
 29 37  1  1  0  0  0
 31 32  1  6  0  0  0
 31 39  1  0  0  0  0
 33 34  1  0  0  0  0
 35 36  1  0  0  0  0
 35 41  1  6  0  0  0
 37 38  1  0  0  0  0
 39 40  1  1  0  0  0
 41 42  1  0  0  0  0
M  END
>  <CHROM.1>
-161.44590117,151.64625388,-63.22935906,-163.27879784,45.17424170,-169.62752566
-174.33241661,-175.77942057,-146.54636897,6.41774910,2.61512738,2.70964289
1.13922213,0.48397441,2.92456996

>  <Name>
2o3w_lig

>  <RI>
0

>  <Rbt.Current_Directory>
/home/itssahil/PROJECTS/Mol_Feturizer/New_Systems/rnas/2o3w

>  <Rbt.Executable>
rbdock ($Id: //depot/dev/client3/rdock/2013.1/src/exe/rbdock.cxx#4 $)

>  <Rbt.Library>
libRbt.so (2013.1, Build901 2013/11/27)

>  <Rbt.Parameter_File>
/export/apps/rDock/src/rDock_2013.1_src/data/scripts/dock_solv.prm

>  <Rbt.Receptor>
prm/pocket_docking_2.prm

>  <SCORE>
-1.06031

>  <SCORE.INTER>
5.07654

>  <SCORE.INTER.CONST>
1

>  <SCORE.INTER.POLAR>
0

>  <SCORE.INTER.ROT>
9

>  <SCORE.INTER.SOLV>
9.02209

>  <SCORE.INTER.VDW>
-9.223

>  <SCORE.INTER.norm>
0.12087

>  <SCORE.INTRA>
-7.39461

>  <SCORE.INTRA.DIHEDRAL>
-16.8434

>  <SCORE.INTRA.DIHEDRAL.0>
27.8999

>  <SCORE.INTRA.POLAR>
0

>  <SCORE.INTRA.POLAR.0>
0

>  <SCORE.INTRA.REPUL>
0

>  <SCORE.INTRA.REPUL.0>
0

>  <SCORE.INTRA.SOLV>
-1.85594

>  <SCORE.INTRA.SOLV.lig_0>
-104.479

>  <SCORE.INTRA.VDW>
1.95506

>  <SCORE.INTRA.VDW.0>
-6.17816

>  <SCORE.INTRA.norm>
-0.176062

>  <SCORE.RESTR>
1.25776

>  <SCORE.RESTR.CAVITY>
1.25776

>  <SCORE.RESTR.norm>
0.0299466

>  <SCORE.SYSTEM>
0

>  <SCORE.SYSTEM.CONST>
0

>  <SCORE.SYSTEM.DIHEDRAL>
0

>  <SCORE.SYSTEM.SOLV>
0

>  <SCORE.SYSTEM.norm>
0

>  <SCORE.heavy>
42

>  <SCORE.norm>
-0.0252456

>  <RMSD>
3.112

$$$$
2o3w_lig
 OpenBabel11021811463D
libRbt.so/2013.1/901 2013/11/27
 42 45  0  0  0  0  0  0  0  0999 V2000
    7.7190   -0.6657    3.0154 C   0  0  2  0  0  0  0  0  0  0  0  0
    8.9265   -0.4421    2.2675 O   0  0  0  0  0  0  0  0  0  0  0  0
   11.0325    1.8730    5.2678 C   0  0  2  0  0  0  0  0  0  0  0  0
   12.0672    2.6792    5.9817 N   0  0  0  0  0  0  0  0  0  0  0  0
    8.3306    3.2195    1.4357 C   0  0  1  0  0  0  0  0  0  0  0  0
    6.0735    7.0579    0.7901 C   0  0  1  0  0  0  0  0  0  0  0  0
    6.9979   -1.8828    2.3621 C   0  0  2  0  0  0  0  0  0  0  0  0
    7.8968   -3.0343    2.1704 N   0  0  0  0  0  0  0  0  0  0  0  0
   11.5488    0.4070    4.9741 C   0  0  0  0  0  0  0  0  0  0  0  0
    8.4606    4.5555    2.2288 C   0  0  2  0  0  0  0  0  0  0  0  0
    7.7387    4.5678    3.4849 O   0  0  0  0  0  0  0  0  0  0  0  0
    6.1905    8.2292    1.8308 C   0  0  2  0  0  0  0  0  0  0  0  0
    5.4934    7.8821    3.1053 N   0  0  0  0  0  0  0  0  0  0  0  0
    6.4115   -1.5415    0.9798 C   0  0  1  0  0  0  0  0  0  0  0  0
    5.7272   -2.6719    0.4370 O   0  0  0  0  0  0  0  0  0  0  0  0
   10.4093   -0.3984    4.2424 C   0  0  2  0  0  0  0  0  0  0  0  0
   10.8565   -1.7896    3.9631 N   0  0  0  0  0  0  0  0  0  0  0  0
    7.9891    5.5682    1.1840 C   0  0  2  0  0  0  0  0  0  0  0  0
    6.5450    5.7899    1.2630 O   0  0  0  0  0  0  0  0  0  0  0  0
    5.5863    9.5678    1.1903 C   0  0  1  0  0  0  0  0  0  0  0  0
    6.5102   10.0696    0.1987 O   0  0  0  0  0  0  0  0  0  0  0  0
    5.4726   -0.3201    1.1054 C   0  0  2  0  0  0  0  0  0  0  0  0
    4.9142   -0.0051   -0.1490 O   0  0  0  0  0  0  0  0  0  0  0  0
   10.0067    0.3108    2.8894 C   0  0  2  0  0  0  0  0  0  0  0  0
    8.3896    4.9863   -0.1821 C   0  0  2  0  0  0  0  0  0  0  0  0
    8.3191    3.5791    0.0351 O   0  0  0  0  0  0  0  0  0  0  0  0
    4.1492    9.3420    0.5184 C   0  0  2  0  0  0  0  0  0  0  0  0
    3.2164    9.0936    1.5693 O   0  0  0  0  0  0  0  0  0  0  0  0
    6.2853    0.8928    1.6694 C   0  0  2  0  0  0  0  0  0  0  0  0
    6.8621    0.5381    2.9660 O   0  0  0  0  0  0  0  0  0  0  0  0
    9.5440    1.7702    3.0927 C   0  0  2  0  0  0  0  0  0  0  0  0
    9.3962    2.3143    1.7523 O   0  0  0  0  0  0  0  0  0  0  0  0
    9.8050    5.4061   -0.6869 C   0  0  0  0  0  0  0  0  0  0  0  0
    9.8168    6.8073   -0.9426 O   0  0  0  0  0  0  0  0  0  0  0  0
    4.1867    8.1216   -0.4772 C   0  0  1  0  0  0  0  0  0  0  0  0
    4.6397    6.9632    0.3122 O   0  0  0  0  0  0  0  0  0  0  0  0
    5.4394    2.1346    1.8314 C   0  0  0  0  0  0  0  0  0  0  0  0
    5.0532    2.6260    0.5710 O   0  0  0  0  0  0  0  0  0  0  0  0
   10.6326    2.5821    3.9121 C   0  0  1  0  0  0  0  0  0  0  0  0
   10.1392    3.8862    4.2306 O   0  0  0  0  0  0  0  0  0  0  0  0
    2.7890    7.8045   -1.1660 C   0  0  0  0  0  0  0  0  0  0  0  0
    1.6778    7.4622   -0.2361 N   0  0  0  0  0  0  0  0  0  0  0  0
  1  2  1  6  0  0  0
  1  7  1  0  0  0  0
  1 30  1  0  0  0  0
  3  4  1  6  0  0  0
  3  9  1  0  0  0  0
  3 39  1  0  0  0  0
  5 10  1  0  0  0  0
  5 26  1  0  0  0  0
  5 32  1  6  0  0  0
  6 12  1  0  0  0  0
  6 36  1  0  0  0  0
  6 19  1  1  0  0  0
  7  8  1  6  0  0  0
  7 14  1  0  0  0  0
  9 16  1  0  0  0  0
 10 11  1  1  0  0  0
 10 18  1  0  0  0  0
 12 13  1  1  0  0  0
 12 20  1  0  0  0  0
 14 15  1  1  0  0  0
 14 22  1  0  0  0  0
 16 17  1  6  0  0  0
 16 24  1  0  0  0  0
 18 19  1  6  0  0  0
 18 25  1  0  0  0  0
 20 21  1  6  0  0  0
 20 27  1  0  0  0  0
 22 23  1  6  0  0  0
 22 29  1  0  0  0  0
 24  2  1  1  0  0  0
 24 31  1  0  0  0  0
 25 26  1  0  0  0  0
 25 33  1  1  0  0  0
 27 28  1  1  0  0  0
 27 35  1  0  0  0  0
 29 30  1  0  0  0  0
 29 37  1  1  0  0  0
 31 32  1  6  0  0  0
 31 39  1  0  0  0  0
 33 34  1  0  0  0  0
 35 36  1  0  0  0  0
 35 41  1  1  0  0  0
 37 38  1  0  0  0  0
 39 40  1  1  0  0  0
 41 42  1  0  0  0  0
M  END
>  <CHROM.1>
-159.57229659,64.29710533,-82.36095965,154.05379580,56.61240949,-65.87242907
-67.80591209,142.37556677,-60.15530006,7.33883221,3.48013328,1.75682951,1.09112817
0.50010183,3.10110716

>  <Name>
2o3w_lig

>  <RI>
0

>  <Rbt.Current_Directory>
/home/itssahil/PROJECTS/Mol_Feturizer/New_Systems/rnas/2o3w

>  <Rbt.Executable>
rbdock ($Id: //depot/dev/client3/rdock/2013.1/src/exe/rbdock.cxx#4 $)

>  <Rbt.Library>
libRbt.so (2013.1, Build901 2013/11/27)

>  <Rbt.Parameter_File>
/export/apps/rDock/src/rDock_2013.1_src/data/scripts/dock_solv.prm

>  <Rbt.Receptor>
prm/pocket_docking_4.prm

>  <SCORE>
-19.538

>  <SCORE.INTER>
-12.867

>  <SCORE.INTER.CONST>
1

>  <SCORE.INTER.POLAR>
-1.77515

>  <SCORE.INTER.ROT>
9

>  <SCORE.INTER.SOLV>
8.93879

>  <SCORE.INTER.VDW>
-15.2405

>  <SCORE.INTER.norm>
-0.306358

>  <SCORE.INTRA>
-6.76569

>  <SCORE.INTRA.DIHEDRAL>
-15.3993

>  <SCORE.INTRA.DIHEDRAL.0>
27.8999

>  <SCORE.INTRA.POLAR>
0

>  <SCORE.INTRA.POLAR.0>
0

>  <SCORE.INTRA.REPUL>
0

>  <SCORE.INTRA.REPUL.0>
0

>  <SCORE.INTRA.SOLV>
-0.713559

>  <SCORE.INTRA.SOLV.lig_0>
-104.479

>  <SCORE.INTRA.VDW>
1.29076

>  <SCORE.INTRA.VDW.0>
-6.17816

>  <SCORE.INTRA.norm>
-0.161088

>  <SCORE.RESTR>
0.0946977

>  <SCORE.RESTR.CAVITY>
0.0946977

>  <SCORE.RESTR.norm>
0.00225471

>  <SCORE.SYSTEM>
0

>  <SCORE.SYSTEM.CONST>
0

>  <SCORE.SYSTEM.DIHEDRAL>
0

>  <SCORE.SYSTEM.SOLV>
0

>  <SCORE.SYSTEM.norm>
0

>  <SCORE.heavy>
42

>  <SCORE.norm>
-0.465191

>  <RMSD>
3.213

$$$$
2o3w_lig
 OpenBabel11021811463D
libRbt.so/2013.1/901 2013/11/27
 42 45  0  0  0  0  0  0  0  0999 V2000
    7.9428   -0.9577    5.2140 C   0  0  2  0  0  0  0  0  0  0  0  0
    8.7736   -0.5115    4.1286 O   0  0  0  0  0  0  0  0  0  0  0  0
   10.7033    2.8429    6.0832 C   0  0  2  0  0  0  0  0  0  0  0  0
   11.6514    3.9474    6.4173 N   0  0  0  0  0  0  0  0  0  0  0  0
    7.6548    2.7304    2.3263 C   0  0  1  0  0  0  0  0  0  0  0  0
    4.7459    6.1794    1.9884 C   0  0  1  0  0  0  0  0  0  0  0  0
    7.8421   -2.5087    5.1021 C   0  0  2  0  0  0  0  0  0  0  0  0
    9.1601   -3.1498    4.9526 N   0  0  0  0  0  0  0  0  0  0  0  0
   11.4108    1.4313    6.1764 C   0  0  0  0  0  0  0  0  0  0  0  0
    7.3150    3.9143    3.2822 C   0  0  2  0  0  0  0  0  0  0  0  0
    6.3512    3.5825    4.3118 O   0  0  0  0  0  0  0  0  0  0  0  0
    3.3518    6.1382    1.2648 C   0  0  2  0  0  0  0  0  0  0  0  0
    3.4863    5.6000   -0.1219 N   0  0  0  0  0  0  0  0  0  0  0  0
    6.9919   -2.9537    3.8980 C   0  0  1  0  0  0  0  0  0  0  0  0
    6.8941   -4.3784    3.8576 O   0  0  0  0  0  0  0  0  0  0  0  0
   10.3581    0.3094    5.8364 C   0  0  2  0  0  0  0  0  0  0  0  0
   10.9872   -1.0357    5.9288 N   0  0  0  0  0  0  0  0  0  0  0  0
    6.8747    4.9856    2.2833 C   0  0  2  0  0  0  0  0  0  0  0  0
    5.4354    4.9237    2.0276 O   0  0  0  0  0  0  0  0  0  0  0  0
    2.7191    7.6101    1.2521 C   0  0  1  0  0  0  0  0  0  0  0  0
    2.2594    7.9325    2.5839 O   0  0  0  0  0  0  0  0  0  0  0  0
    5.5963   -2.2943    3.9804 C   0  0  2  0  0  0  0  0  0  0  0  0
    4.7996   -2.7050    2.8936 O   0  0  0  0  0  0  0  0  0  0  0  0
    9.7684    0.5202    4.3860 C   0  0  2  0  0  0  0  0  0  0  0  0
    7.6805    4.7257    0.9994 C   0  0  2  0  0  0  0  0  0  0  0  0
    7.8716    3.3131    1.0207 O   0  0  0  0  0  0  0  0  0  0  0  0
    3.7548    8.7281    0.7573 C   0  0  2  0  0  0  0  0  0  0  0  0
    3.9861    8.5153   -0.6347 O   0  0  0  0  0  0  0  0  0  0  0  0
    5.7663   -0.7384    3.9847 C   0  0  2  0  0  0  0  0  0  0  0  0
    6.6040   -0.3383    5.1152 O   0  0  0  0  0  0  0  0  0  0  0  0
    9.1090    1.9048    4.2030 C   0  0  2  0  0  0  0  0  0  0  0  0
    8.7960    1.9945    2.7858 O   0  0  0  0  0  0  0  0  0  0  0  0
    9.0462    5.4757    0.9163 C   0  0  0  0  0  0  0  0  0  0  0  0
    9.8642    5.0866    2.0156 O   0  0  0  0  0  0  0  0  0  0  0  0
    5.1083    8.6248    1.5570 C   0  0  1  0  0  0  0  0  0  0  0  0
    5.6023    7.2525    1.3497 O   0  0  0  0  0  0  0  0  0  0  0  0
    4.4453   -0.0094    4.0701 C   0  0  0  0  0  0  0  0  0  0  0  0
    3.6103   -0.3924    3.0046 O   0  0  0  0  0  0  0  0  0  0  0  0
   10.1162    3.0532    4.6301 C   0  0  1  0  0  0  0  0  0  0  0  0
    9.4569    4.3222    4.6050 O   0  0  0  0  0  0  0  0  0  0  0  0
    6.2094    9.6795    1.1054 C   0  0  0  0  0  0  0  0  0  0  0  0
    6.6840    9.5506   -0.2998 N   0  0  0  0  0  0  0  0  0  0  0  0
  1  2  1  6  0  0  0
  1  7  1  0  0  0  0
  1 30  1  0  0  0  0
  3  4  1  6  0  0  0
  3  9  1  0  0  0  0
  3 39  1  0  0  0  0
  5 10  1  0  0  0  0
  5 26  1  0  0  0  0
  5 32  1  1  0  0  0
  6 12  1  0  0  0  0
  6 36  1  0  0  0  0
  6 19  1  6  0  0  0
  7  8  1  6  0  0  0
  7 14  1  0  0  0  0
  9 16  1  0  0  0  0
 10 11  1  1  0  0  0
 10 18  1  0  0  0  0
 12 13  1  6  0  0  0
 12 20  1  0  0  0  0
 14 15  1  1  0  0  0
 14 22  1  0  0  0  0
 16 17  1  6  0  0  0
 16 24  1  0  0  0  0
 18 19  1  6  0  0  0
 18 25  1  0  0  0  0
 20 21  1  1  0  0  0
 20 27  1  0  0  0  0
 22 23  1  6  0  0  0
 22 29  1  0  0  0  0
 24  2  1  1  0  0  0
 24 31  1  0  0  0  0
 25 26  1  0  0  0  0
 25 33  1  1  0  0  0
 27 28  1  6  0  0  0
 27 35  1  0  0  0  0
 29 30  1  0  0  0  0
 29 37  1  1  0  0  0
 31 32  1  6  0  0  0
 31 39  1  0  0  0  0
 33 34  1  0  0  0  0
 35 36  1  0  0  0  0
 35 41  1  6  0  0  0
 37 38  1  0  0  0  0
 39 40  1  1  0  0  0
 41 42  1  0  0  0  0
M  END
>  <CHROM.1>
-137.84337015,29.64987157,160.83469704,136.75174161,35.66753757,59.32755814
-57.16405720,148.19322185,-62.91264492,7.03905446,2.92308420,3.10306370,1.21758678
0.36619761,2.87843837

>  <Name>
2o3w_lig

>  <RI>
0

>  <Rbt.Current_Directory>
/home/itssahil/PROJECTS/Mol_Feturizer/New_Systems/rnas/2o3w

>  <Rbt.Executable>
rbdock ($Id: //depot/dev/client3/rdock/2013.1/src/exe/rbdock.cxx#4 $)

>  <Rbt.Library>
libRbt.so (2013.1, Build901 2013/11/27)

>  <Rbt.Parameter_File>
/export/apps/rDock/src/rDock_2013.1_src/data/scripts/dock_solv.prm

>  <Rbt.Receptor>
prm/pocket_docking_2.prm

>  <SCORE>
0.588764

>  <SCORE.INTER>
-2.29826

>  <SCORE.INTER.CONST>
1

>  <SCORE.INTER.POLAR>
-0.674767

>  <SCORE.INTER.ROT>
9

>  <SCORE.INTER.SOLV>
6.18194

>  <SCORE.INTER.VDW>
-10.9436

>  <SCORE.INTER.norm>
-0.0547204

>  <SCORE.INTRA>
2.60262

>  <SCORE.INTRA.DIHEDRAL>
-4.30172

>  <SCORE.INTRA.DIHEDRAL.0>
27.8999

>  <SCORE.INTRA.POLAR>
0

>  <SCORE.INTRA.POLAR.0>
0

>  <SCORE.INTRA.REPUL>
0

>  <SCORE.INTRA.REPUL.0>
0

>  <SCORE.INTRA.SOLV>
1.1503

>  <SCORE.INTRA.SOLV.lig_0>
-104.479

>  <SCORE.INTRA.VDW>
4.17833

>  <SCORE.INTRA.VDW.0>
-6.17816

>  <SCORE.INTRA.norm>
0.0619672

>  <SCORE.RESTR>
0.284402

>  <SCORE.RESTR.CAVITY>
0.284402

>  <SCORE.RESTR.norm>
0.00677148

>  <SCORE.SYSTEM>
0

>  <SCORE.SYSTEM.CONST>
0

>  <SCORE.SYSTEM.DIHEDRAL>
0

>  <SCORE.SYSTEM.SOLV>
0

>  <SCORE.SYSTEM.norm>
0

>  <SCORE.heavy>
42

>  <SCORE.norm>
0.0140182

>  <RMSD>
3.258

$$$$
2o3w_lig
 OpenBabel11021811463D
libRbt.so/2013.1/901 2013/11/27
 42 45  0  0  0  0  0  0  0  0999 V2000
    7.6199   -0.2098    5.2319 C   0  0  2  0  0  0  0  0  0  0  0  0
    8.1646    1.0745    4.8838 O   0  0  0  0  0  0  0  0  0  0  0  0
   11.6457    2.8723    6.7402 C   0  0  2  0  0  0  0  0  0  0  0  0
   13.0535    3.2336    7.0834 N   0  0  0  0  0  0  0  0  0  0  0  0
    8.5596    3.3612    2.7162 C   0  0  1  0  0  0  0  0  0  0  0  0
    5.2665    6.3038    1.7328 C   0  0  1  0  0  0  0  0  0  0  0  0
    8.1810   -1.2362    4.2024 C   0  0  2  0  0  0  0  0  0  0  0  0
    9.6434   -1.1411    4.0513 N   0  0  0  0  0  0  0  0  0  0  0  0
   11.3529    1.3486    7.0477 C   0  0  0  0  0  0  0  0  0  0  0  0
    7.9945    4.5852    3.4993 C   0  0  2  0  0  0  0  0  0  0  0  0
    7.0082    4.2387    4.5025 O   0  0  0  0  0  0  0  0  0  0  0  0
    3.7288    5.9868    1.6694 C   0  0  2  0  0  0  0  0  0  0  0  0
    3.4487    4.8982    0.6860 N   0  0  0  0  0  0  0  0  0  0  0  0
    7.5757   -1.0468    2.7993 C   0  0  1  0  0  0  0  0  0  0  0  0
    8.0873   -2.0316    1.8998 O   0  0  0  0  0  0  0  0  0  0  0  0
    9.8515    1.0347    6.6876 C   0  0  2  0  0  0  0  0  0  0  0  0
    9.5366   -0.3900    6.9787 N   0  0  0  0  0  0  0  0  0  0  0  0
    7.4925    5.4650    2.3533 C   0  0  2  0  0  0  0  0  0  0  0  0
    6.0977    5.1728    2.0219 O   0  0  0  0  0  0  0  0  0  0  0  0
    2.9288    7.3228    1.2925 C   0  0  1  0  0  0  0  0  0  0  0  0
    2.9189    8.2010    2.4403 O   0  0  0  0  0  0  0  0  0  0  0  0
    6.0340   -1.1117    2.8898 C   0  0  2  0  0  0  0  0  0  0  0  0
    5.4649   -0.9568    1.6106 O   0  0  0  0  0  0  0  0  0  0  0  0
    9.5689    1.3393    5.1634 C   0  0  2  0  0  0  0  0  0  0  0  0
    8.4203    5.1786    1.1606 C   0  0  2  0  0  0  0  0  0  0  0  0
    8.7952    3.8184    1.3647 O   0  0  0  0  0  0  0  0  0  0  0  0
    3.5583    8.0911    0.0352 C   0  0  2  0  0  0  0  0  0  0  0  0
    3.3200    7.2910   -1.1222 O   0  0  0  0  0  0  0  0  0  0  0  0
    5.5317    0.0105    3.8582 C   0  0  2  0  0  0  0  0  0  0  0  0
    6.1432   -0.1662    5.1753 O   0  0  0  0  0  0  0  0  0  0  0  0
    9.8873    2.8000    4.7756 C   0  0  2  0  0  0  0  0  0  0  0  0
    9.7505    2.8495    3.3287 O   0  0  0  0  0  0  0  0  0  0  0  0
    9.6766    6.0992    1.0682 C   0  0  0  0  0  0  0  0  0  0  0  0
   10.4353    5.9814    2.2680 O   0  0  0  0  0  0  0  0  0  0  0  0
    5.1053    8.3118    0.2363 C   0  0  1  0  0  0  0  0  0  0  0  0
    5.6863    6.9737    0.4413 O   0  0  0  0  0  0  0  0  0  0  0  0
    4.0283    0.0163    4.0116 C   0  0  0  0  0  0  0  0  0  0  0  0
    3.5920   -1.2046    4.5580 O   0  0  0  0  0  0  0  0  0  0  0  0
   11.3649    3.1746    5.2137 C   0  0  1  0  0  0  0  0  0  0  0  0
   11.6071    4.5668    4.9926 O   0  0  0  0  0  0  0  0  0  0  0  0
    5.8195    9.0401   -0.9836 C   0  0  0  0  0  0  0  0  0  0  0  0
    7.2682    9.3299   -0.7995 N   0  0  0  0  0  0  0  0  0  0  0  0
  1  2  1  6  0  0  0
  1  7  1  0  0  0  0
  1 30  1  0  0  0  0
  3  4  1  6  0  0  0
  3  9  1  0  0  0  0
  3 39  1  0  0  0  0
  5 10  1  0  0  0  0
  5 26  1  0  0  0  0
  5 32  1  1  0  0  0
  6 12  1  0  0  0  0
  6 36  1  0  0  0  0
  6 19  1  6  0  0  0
  7  8  1  6  0  0  0
  7 14  1  0  0  0  0
  9 16  1  0  0  0  0
 10 11  1  1  0  0  0
 10 18  1  0  0  0  0
 12 13  1  6  0  0  0
 12 20  1  0  0  0  0
 14 15  1  6  0  0  0
 14 22  1  0  0  0  0
 16 17  1  6  0  0  0
 16 24  1  0  0  0  0
 18 19  1  6  0  0  0
 18 25  1  0  0  0  0
 20 21  1  1  0  0  0
 20 27  1  0  0  0  0
 22 23  1  6  0  0  0
 22 29  1  0  0  0  0
 24  2  1  1  0  0  0
 24 31  1  0  0  0  0
 25 26  1  0  0  0  0
 25 33  1  1  0  0  0
 27 28  1  6  0  0  0
 27 35  1  0  0  0  0
 29 30  1  0  0  0  0
 29 37  1  1  0  0  0
 31 32  1  6  0  0  0
 31 39  1  0  0  0  0
 33 34  1  0  0  0  0
 35 36  1  0  0  0  0
 35 41  1  6  0  0  0
 37 38  1  0  0  0  0
 39 40  1  1  0  0  0
 41 42  1  0  0  0  0
M  END
>  <CHROM.1>
-73.28196753,38.03435792,-168.18807805,139.35763578,-53.51479015,57.82072818
61.38131951,99.62404583,176.93224743,7.38844569,3.34357468,3.06746004,1.07348724
0.41854809,2.78091358

>  <Name>
2o3w_lig

>  <RI>
0

>  <Rbt.Current_Directory>
/home/itssahil/PROJECTS/Mol_Feturizer/New_Systems/rnas/2o3w

>  <Rbt.Executable>
rbdock ($Id: //depot/dev/client3/rdock/2013.1/src/exe/rbdock.cxx#4 $)

>  <Rbt.Library>
libRbt.so (2013.1, Build901 2013/11/27)

>  <Rbt.Parameter_File>
/export/apps/rDock/src/rDock_2013.1_src/data/scripts/dock_solv.prm

>  <Rbt.Receptor>
prm/pocket_docking_2.prm

>  <SCORE>
-4.34519

>  <SCORE.INTER>
-3.44256

>  <SCORE.INTER.CONST>
1

>  <SCORE.INTER.POLAR>
-0.917041

>  <SCORE.INTER.ROT>
9

>  <SCORE.INTER.SOLV>
9.47194

>  <SCORE.INTER.VDW>
-11.9955

>  <SCORE.INTER.norm>
-0.0819657

>  <SCORE.INTRA>
-2.91998

>  <SCORE.INTRA.DIHEDRAL>
-13.0434

>  <SCORE.INTRA.DIHEDRAL.0>
27.8999

>  <SCORE.INTRA.POLAR>
0

>  <SCORE.INTRA.POLAR.0>
0

>  <SCORE.INTRA.REPUL>
0

>  <SCORE.INTRA.REPUL.0>
0

>  <SCORE.INTRA.SOLV>
0.312031

>  <SCORE.INTRA.SOLV.lig_0>
-104.479

>  <SCORE.INTRA.VDW>
3.44568

>  <SCORE.INTRA.VDW.0>
-6.17816

>  <SCORE.INTRA.norm>
-0.0695234

>  <SCORE.RESTR>
2.01735

>  <SCORE.RESTR.CAVITY>
2.01735

>  <SCORE.RESTR.norm>
0.0480321

>  <SCORE.SYSTEM>
0

>  <SCORE.SYSTEM.CONST>
0

>  <SCORE.SYSTEM.DIHEDRAL>
0

>  <SCORE.SYSTEM.SOLV>
0

>  <SCORE.SYSTEM.norm>
0

>  <SCORE.heavy>
42

>  <SCORE.norm>
-0.103457

>  <RMSD>
3.290

$$$$
2o3w_lig
 OpenBabel11021811463D
libRbt.so/2013.1/901 2013/11/27
 42 45  0  0  0  0  0  0  0  0999 V2000
    6.8972   -1.3471    3.1192 C   0  0  2  0  0  0  0  0  0  0  0  0
    7.4848   -1.1894    4.4220 O   0  0  0  0  0  0  0  0  0  0  0  0
    9.8432    1.7077    6.6222 C   0  0  2  0  0  0  0  0  0  0  0  0
   10.7297    2.8584    6.9690 N   0  0  0  0  0  0  0  0  0  0  0  0
    6.9296    2.4991    3.4668 C   0  0  1  0  0  0  0  0  0  0  0  0
    7.8024    4.9163    1.8496 C   0  0  1  0  0  0  0  0  0  0  0  0
    5.7420   -2.3829    3.2634 C   0  0  2  0  0  0  0  0  0  0  0  0
    4.8347   -2.0638    4.3795 N   0  0  0  0  0  0  0  0  0  0  0  0
   10.6182    0.6217    5.7727 C   0  0  0  0  0  0  0  0  0  0  0  0
    7.8755    1.9189    2.3716 C   0  0  2  0  0  0  0  0  0  0  0  0
    9.2846    2.1153    2.6455 O   0  0  0  0  0  0  0  0  0  0  0  0
    6.5200    5.7890    1.5989 C   0  0  2  0  0  0  0  0  0  0  0  0
    6.5430    6.3907    0.2321 N   0  0  0  0  0  0  0  0  0  0  0  0
    6.2644   -3.8104    3.5092 C   0  0  1  0  0  0  0  0  0  0  0  0
    5.1751   -4.7307    3.5952 O   0  0  0  0  0  0  0  0  0  0  0  0
    9.6406   -0.5732    5.4581 C   0  0  2  0  0  0  0  0  0  0  0  0
   10.3424   -1.6224    4.6706 N   0  0  0  0  0  0  0  0  0  0  0  0
    7.3412    2.6148    1.1187 C   0  0  2  0  0  0  0  0  0  0  0  0
    8.0231    3.8867    0.8776 O   0  0  0  0  0  0  0  0  0  0  0  0
    6.4242    6.9239    2.7258 C   0  0  1  0  0  0  0  0  0  0  0  0
    6.0258    6.3116    3.9729 O   0  0  0  0  0  0  0  0  0  0  0  0
    7.2460   -4.2015    2.3811 C   0  0  2  0  0  0  0  0  0  0  0  0
    7.7206   -5.5125    2.5824 O   0  0  0  0  0  0  0  0  0  0  0  0
    8.3784   -0.0638    4.6561 C   0  0  2  0  0  0  0  0  0  0  0  0
    5.8369    2.8259    1.3593 C   0  0  2  0  0  0  0  0  0  0  0  0
    5.7572    2.9850    2.7738 O   0  0  0  0  0  0  0  0  0  0  0  0
    7.8034    7.7130    2.9327 C   0  0  2  0  0  0  0  0  0  0  0  0
    8.0278    8.5020    1.7650 O   0  0  0  0  0  0  0  0  0  0  0  0
    8.4324   -3.1809    2.3601 C   0  0  2  0  0  0  0  0  0  0  0  0
    7.9139   -1.8279    2.1596 O   0  0  0  0  0  0  0  0  0  0  0  0
    7.6012    1.0426    5.4024 C   0  0  2  0  0  0  0  0  0  0  0  0
    6.6032    1.5135    4.4553 O   0  0  0  0  0  0  0  0  0  0  0  0
    4.9226    1.6587    0.8734 C   0  0  0  0  0  0  0  0  0  0  0  0
    5.2744    0.4655    1.5671 O   0  0  0  0  0  0  0  0  0  0  0  0
    8.9944    6.7040    3.1461 C   0  0  1  0  0  0  0  0  0  0  0  0
    9.0061    5.8282    1.9616 O   0  0  0  0  0  0  0  0  0  0  0  0
    9.4422   -3.4853    1.2777 C   0  0  0  0  0  0  0  0  0  0  0  0
   10.0898   -4.7046    1.5477 O   0  0  0  0  0  0  0  0  0  0  0  0
    8.5818    2.2183    5.8168 C   0  0  1  0  0  0  0  0  0  0  0  0
    7.8951    3.1677    6.6369 O   0  0  0  0  0  0  0  0  0  0  0  0
   10.4111    7.4032    3.3266 C   0  0  0  0  0  0  0  0  0  0  0  0
   11.5556    6.4824    3.5693 N   0  0  0  0  0  0  0  0  0  0  0  0
  1  2  1  1  0  0  0
  1  7  1  0  0  0  0
  1 30  1  0  0  0  0
  3  4  1  6  0  0  0
  3  9  1  0  0  0  0
  3 39  1  0  0  0  0
  5 10  1  0  0  0  0
  5 26  1  0  0  0  0
  5 32  1  1  0  0  0
  6 12  1  0  0  0  0
  6 36  1  0  0  0  0
  6 19  1  6  0  0  0
  7  8  1  1  0  0  0
  7 14  1  0  0  0  0
  9 16  1  0  0  0  0
 10 11  1  1  0  0  0
 10 18  1  0  0  0  0
 12 13  1  6  0  0  0
 12 20  1  0  0  0  0
 14 15  1  6  0  0  0
 14 22  1  0  0  0  0
 16 17  1  6  0  0  0
 16 24  1  0  0  0  0
 18 19  1  1  0  0  0
 18 25  1  0  0  0  0
 20 21  1  1  0  0  0
 20 27  1  0  0  0  0
 22 23  1  1  0  0  0
 22 29  1  0  0  0  0
 24  2  1  1  0  0  0
 24 31  1  0  0  0  0
 25 26  1  0  0  0  0
 25 33  1  1  0  0  0
 27 28  1  6  0  0  0
 27 35  1  0  0  0  0
 29 30  1  0  0  0  0
 29 37  1  6  0  0  0
 31 32  1  6  0  0  0
 31 39  1  0  0  0  0
 33 34  1  0  0  0  0
 35 36  1  0  0  0  0
 35 41  1  6  0  0  0
 37 38  1  0  0  0  0
 39 40  1  1  0  0  0
 41 42  1  0  0  0  0
M  END
>  <CHROM.1>
-165.97384828,70.32701144,-86.13869720,-66.18191728,-135.89869450,60.63138512
-66.07436909,-83.70279381,178.33677074,7.79595497,1.56032795,3.20180094,1.64786561
0.75964351,3.04532248

>  <Name>
2o3w_lig

>  <RI>
0

>  <Rbt.Current_Directory>
/home/itssahil/PROJECTS/Mol_Feturizer/New_Systems/rnas/2o3w

>  <Rbt.Executable>
rbdock ($Id: //depot/dev/client3/rdock/2013.1/src/exe/rbdock.cxx#4 $)

>  <Rbt.Library>
libRbt.so (2013.1, Build901 2013/11/27)

>  <Rbt.Parameter_File>
/export/apps/rDock/src/rDock_2013.1_src/data/scripts/dock_solv.prm

>  <Rbt.Receptor>
prm/pocket_docking_3.prm

>  <SCORE>
-2.68192

>  <SCORE.INTER>
3.8378

>  <SCORE.INTER.CONST>
1

>  <SCORE.INTER.POLAR>
0

>  <SCORE.INTER.ROT>
9

>  <SCORE.INTER.SOLV>
5.47318

>  <SCORE.INTER.VDW>
-8.86586

>  <SCORE.INTER.norm>
0.0913762

>  <SCORE.INTRA>
-6.54274

>  <SCORE.INTRA.DIHEDRAL>
-14.7557

>  <SCORE.INTRA.DIHEDRAL.0>
27.8999

>  <SCORE.INTRA.POLAR>
0

>  <SCORE.INTRA.POLAR.0>
0

>  <SCORE.INTRA.REPUL>
0

>  <SCORE.INTRA.REPUL.0>
0

>  <SCORE.INTRA.SOLV>
-0.64902

>  <SCORE.INTRA.SOLV.lig_0>
-104.479

>  <SCORE.INTRA.VDW>
1.15963

>  <SCORE.INTRA.VDW.0>
-6.17816

>  <SCORE.INTRA.norm>
-0.155779

>  <SCORE.RESTR>
0.0230125

>  <SCORE.RESTR.CAVITY>
0.0230125

>  <SCORE.RESTR.norm>
0.000547916

>  <SCORE.SYSTEM>
0

>  <SCORE.SYSTEM.CONST>
0

>  <SCORE.SYSTEM.DIHEDRAL>
0

>  <SCORE.SYSTEM.SOLV>
0

>  <SCORE.SYSTEM.norm>
0

>  <SCORE.heavy>
42

>  <SCORE.norm>
-0.0638553

>  <RMSD>
3.383

$$$$
2o3w_lig
 OpenBabel11021811463D
libRbt.so/2013.1/901 2013/11/27
 42 45  0  0  0  0  0  0  0  0999 V2000
    7.2178   -0.9802    3.9345 C   0  0  2  0  0  0  0  0  0  0  0  0
    7.6590    0.1388    3.1467 O   0  0  0  0  0  0  0  0  0  0  0  0
    8.0168    3.0033    6.3813 C   0  0  2  0  0  0  0  0  0  0  0  0
    8.2481    4.2581    7.1574 N   0  0  0  0  0  0  0  0  0  0  0  0
    5.9588    3.5177    2.5571 C   0  0  1  0  0  0  0  0  0  0  0  0
    6.7033    6.5560   -0.4200 C   0  0  1  0  0  0  0  0  0  0  0  0
    7.1083   -2.2000    2.9711 C   0  0  2  0  0  0  0  0  0  0  0  0
    8.3210   -2.3846    2.1551 N   0  0  0  0  0  0  0  0  0  0  0  0
    9.3497    2.4988    5.6952 C   0  0  0  0  0  0  0  0  0  0  0  0
    7.3522    3.5966    1.8623 C   0  0  2  0  0  0  0  0  0  0  0  0
    8.3788    4.2236    2.6698 O   0  0  0  0  0  0  0  0  0  0  0  0
    7.8324    6.8040   -1.4842 C   0  0  2  0  0  0  0  0  0  0  0  0
    9.0336    7.4273   -0.8520 N   0  0  0  0  0  0  0  0  0  0  0  0
    5.9286   -2.0660    1.9905 C   0  0  1  0  0  0  0  0  0  0  0  0
    5.8425   -3.2218    1.1552 O   0  0  0  0  0  0  0  0  0  0  0  0
    9.0477    1.1649    4.9129 C   0  0  2  0  0  0  0  0  0  0  0  0
   10.2857    0.6531    4.2655 N   0  0  0  0  0  0  0  0  0  0  0  0
    6.9959    4.3221    0.5638 C   0  0  2  0  0  0  0  0  0  0  0  0
    7.1094    5.7735    0.7098 O   0  0  0  0  0  0  0  0  0  0  0  0
    7.2568    7.7271   -2.6604 C   0  0  1  0  0  0  0  0  0  0  0  0
    6.3622    6.9390   -3.4774 O   0  0  0  0  0  0  0  0  0  0  0  0
    4.6209   -1.8447    2.7843 C   0  0  2  0  0  0  0  0  0  0  0  0
    3.5286   -1.7368    1.9014 O   0  0  0  0  0  0  0  0  0  0  0  0
    7.9352    1.4019    3.8165 C   0  0  2  0  0  0  0  0  0  0  0  0
    5.5537    3.9069    0.2275 C   0  0  2  0  0  0  0  0  0  0  0  0
    4.9744    3.6900    1.5120 O   0  0  0  0  0  0  0  0  0  0  0  0
    6.4846    9.0207   -2.1146 C   0  0  2  0  0  0  0  0  0  0  0  0
    7.4562    9.8890   -1.5329 O   0  0  0  0  0  0  0  0  0  0  0  0
    4.7624   -0.5486    3.6501 C   0  0  2  0  0  0  0  0  0  0  0  0
    5.9076   -0.6811    4.5506 O   0  0  0  0  0  0  0  0  0  0  0  0
    6.6183    1.9504    4.4084 C   0  0  2  0  0  0  0  0  0  0  0  0
    5.7906    2.2790    3.2588 O   0  0  0  0  0  0  0  0  0  0  0  0
    5.4266    2.6353   -0.6675 C   0  0  0  0  0  0  0  0  0  0  0  0
    4.0546    2.4163   -0.9815 O   0  0  0  0  0  0  0  0  0  0  0  0
    5.4061    8.6124   -1.0411 C   0  0  1  0  0  0  0  0  0  0  0  0
    6.1341    7.8897    0.0161 O   0  0  0  0  0  0  0  0  0  0  0  0
    3.5255   -0.2579    4.4682 C   0  0  0  0  0  0  0  0  0  0  0  0
    3.7107    0.9113    5.2284 O   0  0  0  0  0  0  0  0  0  0  0  0
    6.9054    3.2425    5.2822 C   0  0  1  0  0  0  0  0  0  0  0  0
    5.7125    3.6608    5.9513 O   0  0  0  0  0  0  0  0  0  0  0  0
    4.6128    9.8426   -0.4198 C   0  0  0  0  0  0  0  0  0  0  0  0
    3.5976    9.4966    0.6128 N   0  0  0  0  0  0  0  0  0  0  0  0
  1  2  1  6  0  0  0
  1  7  1  0  0  0  0
  1 30  1  0  0  0  0
  3  4  1  6  0  0  0
  3  9  1  0  0  0  0
  3 39  1  0  0  0  0
  5 10  1  0  0  0  0
  5 26  1  0  0  0  0
  5 32  1  6  0  0  0
  6 12  1  0  0  0  0
  6 36  1  0  0  0  0
  6 19  1  1  0  0  0
  7  8  1  6  0  0  0
  7 14  1  0  0  0  0
  9 16  1  0  0  0  0
 10 11  1  1  0  0  0
 10 18  1  0  0  0  0
 12 13  1  1  0  0  0
 12 20  1  0  0  0  0
 14 15  1  1  0  0  0
 14 22  1  0  0  0  0
 16 17  1  6  0  0  0
 16 24  1  0  0  0  0
 18 19  1  1  0  0  0
 18 25  1  0  0  0  0
 20 21  1  1  0  0  0
 20 27  1  0  0  0  0
 22 23  1  6  0  0  0
 22 29  1  0  0  0  0
 24  2  1  1  0  0  0
 24 31  1  0  0  0  0
 25 26  1  0  0  0  0
 25 33  1  6  0  0  0
 27 28  1  1  0  0  0
 27 35  1  0  0  0  0
 29 30  1  0  0  0  0
 29 37  1  1  0  0  0
 31 32  1  6  0  0  0
 31 39  1  0  0  0  0
 33 34  1  0  0  0  0
 35 36  1  0  0  0  0
 35 41  1  1  0  0  0
 37 38  1  0  0  0  0
 39 40  1  1  0  0  0
 41 42  1  0  0  0  0
M  END
>  <CHROM.1>
-175.89682713,65.22943527,-87.26159342,-175.59431956,58.28109465,-175.90069234
179.75526262,-81.92667295,-179.18774493,6.45859996,3.17682115,1.99108348
-1.56752505,-1.08939285,-0.51559391

>  <Name>
2o3w_lig

>  <RI>
0

>  <Rbt.Current_Directory>
/home/itssahil/PROJECTS/Mol_Feturizer/New_Systems/rnas/2o3w

>  <Rbt.Executable>
rbdock ($Id: //depot/dev/client3/rdock/2013.1/src/exe/rbdock.cxx#4 $)

>  <Rbt.Library>
libRbt.so (2013.1, Build901 2013/11/27)

>  <Rbt.Parameter_File>
/export/apps/rDock/src/rDock_2013.1_src/data/scripts/dock_solv.prm

>  <Rbt.Receptor>
prm/pocket_docking_4.prm

>  <SCORE>
-18.288

>  <SCORE.INTER>
-7.53993

>  <SCORE.INTER.CONST>
1

>  <SCORE.INTER.POLAR>
-1.9798

>  <SCORE.INTER.ROT>
9

>  <SCORE.INTER.SOLV>
10.5798

>  <SCORE.INTER.VDW>
-11.5539

>  <SCORE.INTER.norm>
-0.179522

>  <SCORE.INTRA>
-10.7481

>  <SCORE.INTRA.DIHEDRAL>
-22.2067

>  <SCORE.INTRA.DIHEDRAL.0>
27.8999

>  <SCORE.INTRA.POLAR>
0

>  <SCORE.INTRA.POLAR.0>
0

>  <SCORE.INTRA.REPUL>
0

>  <SCORE.INTRA.REPUL.0>
0

>  <SCORE.INTRA.SOLV>
-4.33157

>  <SCORE.INTRA.SOLV.lig_0>
-104.479

>  <SCORE.INTRA.VDW>
2.52107

>  <SCORE.INTRA.VDW.0>
-6.17816

>  <SCORE.INTRA.norm>
-0.255907

>  <SCORE.RESTR>
0

>  <SCORE.RESTR.CAVITY>
0

>  <SCORE.RESTR.norm>
0

>  <SCORE.SYSTEM>
0

>  <SCORE.SYSTEM.CONST>
0

>  <SCORE.SYSTEM.DIHEDRAL>
0

>  <SCORE.SYSTEM.SOLV>
0

>  <SCORE.SYSTEM.norm>
0

>  <SCORE.heavy>
42

>  <SCORE.norm>
-0.435429

>  <RMSD>
3.462

$$$$
2o3w_lig
 OpenBabel11021811463D
libRbt.so/2013.1/901 2013/11/27
 42 45  0  0  0  0  0  0  0  0999 V2000
    7.7769    0.7510    2.8215 C   0  0  2  0  0  0  0  0  0  0  0  0
    7.8434    1.1477    4.2019 O   0  0  0  0  0  0  0  0  0  0  0  0
    6.1342    4.5734    6.2364 C   0  0  2  0  0  0  0  0  0  0  0  0
    5.7987    5.9708    6.6430 N   0  0  0  0  0  0  0  0  0  0  0  0
    6.3898    3.9375    1.9311 C   0  0  1  0  0  0  0  0  0  0  0  0
    6.6251    6.8791   -1.2015 C   0  0  1  0  0  0  0  0  0  0  0  0
    6.7963   -0.4574    2.7421 C   0  0  2  0  0  0  0  0  0  0  0  0
    5.5211   -0.1950    3.4317 N   0  0  0  0  0  0  0  0  0  0  0  0
    7.6611    4.2515    6.4946 C   0  0  0  0  0  0  0  0  0  0  0  0
    6.7965    3.4916    0.4935 C   0  0  2  0  0  0  0  0  0  0  0  0
    8.2193    3.2783    0.3231 O   0  0  0  0  0  0  0  0  0  0  0  0
    7.7227    7.7980   -1.8495 C   0  0  2  0  0  0  0  0  0  0  0  0
    8.7426    8.2058   -0.8373 N   0  0  0  0  0  0  0  0  0  0  0  0
    7.3880   -1.7323    3.3711 C   0  0  1  0  0  0  0  0  0  0  0  0
    6.4733   -2.8219    3.2407 O   0  0  0  0  0  0  0  0  0  0  0  0
    7.9477    2.7619    6.0686 C   0  0  2  0  0  0  0  0  0  0  0  0
    9.3750    2.4196    6.3120 N   0  0  0  0  0  0  0  0  0  0  0  0
    6.1896    4.6149   -0.3486 C   0  0  2  0  0  0  0  0  0  0  0  0
    7.1357    5.7143   -0.5411 O   0  0  0  0  0  0  0  0  0  0  0  0
    7.0194    9.0790   -2.5061 C   0  0  1  0  0  0  0  0  0  0  0  0
    6.3409    8.6710   -3.7153 O   0  0  0  0  0  0  0  0  0  0  0  0
    8.7461   -2.0528    2.7063 C   0  0  2  0  0  0  0  0  0  0  0  0
    9.2932   -3.2271    3.2596 O   0  0  0  0  0  0  0  0  0  0  0  0
    7.6028    2.5429    4.5425 C   0  0  2  0  0  0  0  0  0  0  0  0
    4.9365    5.0843    0.4095 C   0  0  2  0  0  0  0  0  0  0  0  0
    5.2805    4.8516    1.7734 O   0  0  0  0  0  0  0  0  0  0  0  0
    5.9756    9.7896   -1.5196 C   0  0  2  0  0  0  0  0  0  0  0  0
    6.7228   10.3953   -0.4654 O   0  0  0  0  0  0  0  0  0  0  0  0
    9.7144   -0.8407    2.9131 C   0  0  2  0  0  0  0  0  0  0  0  0
    9.1206    0.3668    2.3394 O   0  0  0  0  0  0  0  0  0  0  0  0
    6.1373    2.8929    4.2035 C   0  0  2  0  0  0  0  0  0  0  0  0
    6.0510    2.8136    2.7541 O   0  0  0  0  0  0  0  0  0  0  0  0
    3.6192    4.3404    0.0281 C   0  0  0  0  0  0  0  0  0  0  0  0
    2.5229    4.9482    0.7045 O   0  0  0  0  0  0  0  0  0  0  0  0
    4.9601    8.7375   -0.9334 C   0  0  1  0  0  0  0  0  0  0  0  0
    5.7762    7.7106   -0.2628 O   0  0  0  0  0  0  0  0  0  0  0  0
   11.0708   -1.0665    2.2861 C   0  0  0  0  0  0  0  0  0  0  0  0
   11.9027    0.0443    2.5171 O   0  0  0  0  0  0  0  0  0  0  0  0
    5.7916    4.3564    4.7080 C   0  0  1  0  0  0  0  0  0  0  0  0
    4.3976    4.6229    4.5309 O   0  0  0  0  0  0  0  0  0  0  0  0
    3.9056    9.3531    0.0853 C   0  0  0  0  0  0  0  0  0  0  0  0
    4.3903    9.5314    1.4817 N   0  0  0  0  0  0  0  0  0  0  0  0
  1  2  1  1  0  0  0
  1  7  1  0  0  0  0
  1 30  1  0  0  0  0
  3  4  1  6  0  0  0
  3  9  1  0  0  0  0
  3 39  1  0  0  0  0
  5 10  1  0  0  0  0
  5 26  1  0  0  0  0
  5 32  1  1  0  0  0
  6 12  1  0  0  0  0
  6 36  1  0  0  0  0
  6 19  1  1  0  0  0
  7  8  1  1  0  0  0
  7 14  1  0  0  0  0
  9 16  1  0  0  0  0
 10 11  1  1  0  0  0
 10 18  1  0  0  0  0
 12 13  1  1  0  0  0
 12 20  1  0  0  0  0
 14 15  1  6  0  0  0
 14 22  1  0  0  0  0
 16 17  1  6  0  0  0
 16 24  1  0  0  0  0
 18 19  1  1  0  0  0
 18 25  1  0  0  0  0
 20 21  1  6  0  0  0
 20 27  1  0  0  0  0
 22 23  1  1  0  0  0
 22 29  1  0  0  0  0
 24  2  1  1  0  0  0
 24 31  1  0  0  0  0
 25 26  1  0  0  0  0
 25 33  1  6  0  0  0
 27 28  1  1  0  0  0
 27 35  1  0  0  0  0
 29 30  1  0  0  0  0
 29 37  1  6  0  0  0
 31 32  1  6  0  0  0
 31 39  1  0  0  0  0
 33 34  1  0  0  0  0
 35 36  1  0  0  0  0
 35 41  1  1  0  0  0
 37 38  1  0  0  0  0
 39 40  1  1  0  0  0
 41 42  1  0  0  0  0
M  END
>  <CHROM.1>
-127.50899358,156.33128636,-158.97785057,-173.90730732,-171.44875660,-174.68851489
-179.25296182,-86.11794052,-81.87165840,6.85576883,3.87663534,1.91928471
-1.07230556,1.00808069,-0.90237194

>  <Name>
2o3w_lig

>  <RI>
0

>  <Rbt.Current_Directory>
/home/itssahil/PROJECTS/Mol_Feturizer/New_Systems/rnas/2o3w

>  <Rbt.Executable>
rbdock ($Id: //depot/dev/client3/rdock/2013.1/src/exe/rbdock.cxx#4 $)

>  <Rbt.Library>
libRbt.so (2013.1, Build901 2013/11/27)

>  <Rbt.Parameter_File>
/export/apps/rDock/src/rDock_2013.1_src/data/scripts/dock_solv.prm

>  <Rbt.Receptor>
prm/pocket_docking_4.prm

>  <SCORE>
-15.15

>  <SCORE.INTER>
-10.9183

>  <SCORE.INTER.CONST>
1

>  <SCORE.INTER.POLAR>
-2.84734

>  <SCORE.INTER.ROT>
9

>  <SCORE.INTER.SOLV>
17.2608

>  <SCORE.INTER.VDW>
-13.1413

>  <SCORE.INTER.norm>
-0.259959

>  <SCORE.INTRA>
-4.66657

>  <SCORE.INTRA.DIHEDRAL>
-11.415

>  <SCORE.INTRA.DIHEDRAL.0>
27.8999

>  <SCORE.INTRA.POLAR>
0

>  <SCORE.INTRA.POLAR.0>
0

>  <SCORE.INTRA.REPUL>
0

>  <SCORE.INTRA.REPUL.0>
0

>  <SCORE.INTRA.SOLV>
-3.10399

>  <SCORE.INTRA.SOLV.lig_0>
-104.479

>  <SCORE.INTRA.VDW>
2.59291

>  <SCORE.INTRA.VDW.0>
-6.17816

>  <SCORE.INTRA.norm>
-0.111109

>  <SCORE.RESTR>
0.434911

>  <SCORE.RESTR.CAVITY>
0.434911

>  <SCORE.RESTR.norm>
0.010355

>  <SCORE.SYSTEM>
0

>  <SCORE.SYSTEM.CONST>
0

>  <SCORE.SYSTEM.DIHEDRAL>
0

>  <SCORE.SYSTEM.SOLV>
0

>  <SCORE.SYSTEM.norm>
0

>  <SCORE.heavy>
42

>  <SCORE.norm>
-0.360713

>  <RMSD>
3.550

$$$$
2o3w_lig
 OpenBabel11021811463D
libRbt.so/2013.1/901 2013/11/27
 42 45  0  0  0  0  0  0  0  0999 V2000
    7.7125    0.4689    4.6482 C   0  0  2  0  0  0  0  0  0  0  0  0
    8.0307    1.8678    4.7439 O   0  0  0  0  0  0  0  0  0  0  0  0
   11.6594    3.8233    6.0871 C   0  0  2  0  0  0  0  0  0  0  0  0
   13.0681    4.3108    6.1783 N   0  0  0  0  0  0  0  0  0  0  0  0
    7.8219    4.7308    2.9459 C   0  0  1  0  0  0  0  0  0  0  0  0
    4.8833    7.9716    2.1505 C   0  0  1  0  0  0  0  0  0  0  0  0
    7.8952    0.0618    3.1552 C   0  0  2  0  0  0  0  0  0  0  0  0
    9.1905    0.4990    2.6061 N   0  0  0  0  0  0  0  0  0  0  0  0
   11.5891    2.2471    6.1988 C   0  0  0  0  0  0  0  0  0  0  0  0
    7.7910    6.1039    3.6838 C   0  0  2  0  0  0  0  0  0  0  0  0
    7.1801    6.0537    4.9967 O   0  0  0  0  0  0  0  0  0  0  0  0
    3.3233    7.7921    2.2065 C   0  0  2  0  0  0  0  0  0  0  0  0
    2.9236    6.4418    1.7088 N   0  0  0  0  0  0  0  0  0  0  0  0
    6.8033    0.6595    2.2488 C   0  0  1  0  0  0  0  0  0  0  0  0
    6.9867    0.2289    0.8990 O   0  0  0  0  0  0  0  0  0  0  0  0
   10.0814    1.7966    6.1188 C   0  0  2  0  0  0  0  0  0  0  0  0
    9.9766    0.3171    6.2354 N   0  0  0  0  0  0  0  0  0  0  0  0
    7.0753    6.9788    2.6535 C   0  0  2  0  0  0  0  0  0  0  0  0
    5.6255    6.9651    2.8501 O   0  0  0  0  0  0  0  0  0  0  0  0
    2.6265    8.9514    1.3479 C   0  0  1  0  0  0  0  0  0  0  0  0
    2.7249   10.1958    2.0765 O   0  0  0  0  0  0  0  0  0  0  0  0
    5.4106    0.2572    2.7852 C   0  0  2  0  0  0  0  0  0  0  0  0
    4.4000    0.7828    1.9565 O   0  0  0  0  0  0  0  0  0  0  0  0
    9.4305    2.2686    4.7589 C   0  0  2  0  0  0  0  0  0  0  0  0
    7.4562    6.4103    1.2761 C   0  0  2  0  0  0  0  0  0  0  0  0
    7.6384    5.0214    1.5413 O   0  0  0  0  0  0  0  0  0  0  0  0
    3.2795    9.1278   -0.1046 C   0  0  2  0  0  0  0  0  0  0  0  0
    2.9402    7.9739   -0.8727 O   0  0  0  0  0  0  0  0  0  0  0  0
    5.2554    0.7861    4.2501 C   0  0  2  0  0  0  0  0  0  0  0  0
    6.3204    0.2346    5.0876 O   0  0  0  0  0  0  0  0  0  0  0  0
    9.5132    3.7972    4.5541 C   0  0  2  0  0  0  0  0  0  0  0  0
    9.0451    4.0266    3.1966 O   0  0  0  0  0  0  0  0  0  0  0  0
    8.7369    7.0327    0.6385 C   0  0  0  0  0  0  0  0  0  0  0  0
    9.8462    6.8179    1.5057 O   0  0  0  0  0  0  0  0  0  0  0  0
    4.8449    9.2700    0.0032 C   0  0  1  0  0  0  0  0  0  0  0  0
    5.3182    8.0630    0.7029 O   0  0  0  0  0  0  0  0  0  0  0  0
    3.9185    0.4303    4.8582 C   0  0  0  0  0  0  0  0  0  0  0  0
    2.8741    0.8752    4.0272 O   0  0  0  0  0  0  0  0  0  0  0  0
   11.0099    4.2936    4.7242 C   0  0  1  0  0  0  0  0  0  0  0  0
   11.0634    5.7224    4.6852 O   0  0  0  0  0  0  0  0  0  0  0  0
    5.5801    9.4162   -1.3992 C   0  0  0  0  0  0  0  0  0  0  0  0
    5.1340   10.5595   -2.2420 N   0  0  0  0  0  0  0  0  0  0  0  0
  1  2  1  6  0  0  0
  1  7  1  0  0  0  0
  1 30  1  0  0  0  0
  3  4  1  6  0  0  0
  3  9  1  0  0  0  0
  3 39  1  0  0  0  0
  5 10  1  0  0  0  0
  5 26  1  0  0  0  0
  5 32  1  6  0  0  0
  6 12  1  0  0  0  0
  6 36  1  0  0  0  0
  6 19  1  6  0  0  0
  7  8  1  6  0  0  0
  7 14  1  0  0  0  0
  9 16  1  0  0  0  0
 10 11  1  1  0  0  0
 10 18  1  0  0  0  0
 12 13  1  6  0  0  0
 12 20  1  0  0  0  0
 14 15  1  6  0  0  0
 14 22  1  0  0  0  0
 16 17  1  6  0  0  0
 16 24  1  0  0  0  0
 18 19  1  1  0  0  0
 18 25  1  0  0  0  0
 20 21  1  1  0  0  0
 20 27  1  0  0  0  0
 22 23  1  6  0  0  0
 22 29  1  0  0  0  0
 24  2  1  1  0  0  0
 24 31  1  0  0  0  0
 25 26  1  0  0  0  0
 25 33  1  1  0  0  0
 27 28  1  6  0  0  0
 27 35  1  0  0  0  0
 29 30  1  0  0  0  0
 29 37  1  1  0  0  0
 31 32  1  6  0  0  0
 31 39  1  0  0  0  0
 33 34  1  0  0  0  0
 35 36  1  0  0  0  0
 35 41  1  6  0  0  0
 37 38  1  0  0  0  0
 39 40  1  1  0  0  0
 41 42  1  0  0  0  0
M  END
>  <CHROM.1>
-78.19870960,52.47736643,171.01505135,166.30544027,-68.98720027,59.37141710
-54.35194759,113.39249512,57.49074832,6.97155334,4.56778224,2.87902864,1.03256408
0.36253238,2.81007671

>  <Name>
2o3w_lig

>  <RI>
0

>  <Rbt.Current_Directory>
/home/itssahil/PROJECTS/Mol_Feturizer/New_Systems/rnas/2o3w

>  <Rbt.Executable>
rbdock ($Id: //depot/dev/client3/rdock/2013.1/src/exe/rbdock.cxx#4 $)

>  <Rbt.Library>
libRbt.so (2013.1, Build901 2013/11/27)

>  <Rbt.Parameter_File>
/export/apps/rDock/src/rDock_2013.1_src/data/scripts/dock_solv.prm

>  <Rbt.Receptor>
prm/pocket_docking_3.prm

>  <SCORE>
-9.25755

>  <SCORE.INTER>
-3.42214

>  <SCORE.INTER.CONST>
1

>  <SCORE.INTER.POLAR>
0

>  <SCORE.INTER.ROT>
9

>  <SCORE.INTER.SOLV>
9.50154

>  <SCORE.INTER.VDW>
-15.0486

>  <SCORE.INTER.norm>
-0.0814796

>  <SCORE.INTRA>
-5.84626

>  <SCORE.INTRA.DIHEDRAL>
-17.1797

>  <SCORE.INTRA.DIHEDRAL.0>
27.8999

>  <SCORE.INTRA.POLAR>
0

>  <SCORE.INTRA.POLAR.0>
0

>  <SCORE.INTRA.REPUL>
0

>  <SCORE.INTRA.REPUL.0>
0

>  <SCORE.INTRA.SOLV>
-0.389746

>  <SCORE.INTRA.SOLV.lig_0>
-104.479

>  <SCORE.INTRA.VDW>
2.93847

>  <SCORE.INTRA.VDW.0>
-6.17816

>  <SCORE.INTRA.norm>
-0.139197

>  <SCORE.RESTR>
0.0108492

>  <SCORE.RESTR.CAVITY>
0.0108492

>  <SCORE.RESTR.norm>
0.000258315

>  <SCORE.SYSTEM>
0

>  <SCORE.SYSTEM.CONST>
0

>  <SCORE.SYSTEM.DIHEDRAL>
0

>  <SCORE.SYSTEM.SOLV>
0

>  <SCORE.SYSTEM.norm>
0

>  <SCORE.heavy>
42

>  <SCORE.norm>
-0.220418

>  <RMSD>
3.555

$$$$
2o3w_lig
 OpenBabel11021811463D
libRbt.so/2013.1/901 2013/11/27
 42 45  0  0  0  0  0  0  0  0999 V2000
    7.0833   -2.6336    3.7589 C   0  0  2  0  0  0  0  0  0  0  0  0
    7.7873   -2.2572    2.5630 O   0  0  0  0  0  0  0  0  0  0  0  0
   11.1457   -0.2809    4.4634 C   0  0  2  0  0  0  0  0  0  0  0  0
   12.4379    0.4310    4.6954 N   0  0  0  0  0  0  0  0  0  0  0  0
    7.5037    1.7864    2.2951 C   0  0  1  0  0  0  0  0  0  0  0  0
    7.4356    5.8834    1.7677 C   0  0  1  0  0  0  0  0  0  0  0  0
    5.8598   -3.4909    3.3159 C   0  0  2  0  0  0  0  0  0  0  0  0
    6.2346   -4.5695    2.3849 N   0  0  0  0  0  0  0  0  0  0  0  0
   11.3854   -1.7250    3.8643 C   0  0  0  0  0  0  0  0  0  0  0  0
    8.0409    2.8680    1.3090 C   0  0  2  0  0  0  0  0  0  0  0  0
    9.1408    3.6507    1.8350 O   0  0  0  0  0  0  0  0  0  0  0  0
    7.5740    6.7957    3.0395 C   0  0  2  0  0  0  0  0  0  0  0  0
    6.2353    7.2626    3.5093 N   0  0  0  0  0  0  0  0  0  0  0  0
    4.7812   -2.6488    2.6099 C   0  0  1  0  0  0  0  0  0  0  0  0
    3.6637   -3.4661    2.2577 O   0  0  0  0  0  0  0  0  0  0  0  0
    9.9917   -2.4319    3.6634 C   0  0  2  0  0  0  0  0  0  0  0  0
   10.1806   -3.8014    3.1135 N   0  0  0  0  0  0  0  0  0  0  0  0
    6.7623    3.6478    0.9982 C   0  0  2  0  0  0  0  0  0  0  0  0
    6.5671    4.7558    1.9336 O   0  0  0  0  0  0  0  0  0  0  0  0
    8.5293    8.0360    2.6991 C   0  0  1  0  0  0  0  0  0  0  0  0
    9.8943    7.5672    2.6226 O   0  0  0  0  0  0  0  0  0  0  0  0
    4.3580   -1.4789    3.5272 C   0  0  2  0  0  0  0  0  0  0  0  0
    3.3586   -0.7078    2.9020 O   0  0  0  0  0  0  0  0  0  0  0  0
    9.0759   -1.5909    2.6887 C   0  0  2  0  0  0  0  0  0  0  0  0
    5.6120    2.6311    1.0907 C   0  0  2  0  0  0  0  0  0  0  0  0
    6.0768    1.7090    2.0736 O   0  0  0  0  0  0  0  0  0  0  0  0
    8.1358    8.7663    1.3282 C   0  0  2  0  0  0  0  0  0  0  0  0
    6.8883    9.4276    1.5349 O   0  0  0  0  0  0  0  0  0  0  0  0
    5.6138   -0.6016    3.8479 C   0  0  2  0  0  0  0  0  0  0  0  0
    6.6395   -1.4259    4.4870 O   0  0  0  0  0  0  0  0  0  0  0  0
    8.8437   -0.1462    3.1828 C   0  0  2  0  0  0  0  0  0  0  0  0
    8.1511    0.5233    2.0935 O   0  0  0  0  0  0  0  0  0  0  0  0
    5.2692    1.9019   -0.2453 C   0  0  0  0  0  0  0  0  0  0  0  0
    4.7573    2.8475   -1.1795 O   0  0  0  0  0  0  0  0  0  0  0  0
    8.0108    7.7199    0.1570 C   0  0  1  0  0  0  0  0  0  0  0  0
    7.0046    6.7361    0.5929 O   0  0  0  0  0  0  0  0  0  0  0  0
    5.2914    0.5676    4.7494 C   0  0  0  0  0  0  0  0  0  0  0  0
    4.3093    1.3813    4.1556 O   0  0  0  0  0  0  0  0  0  0  0  0
   10.2312    0.5602    3.4852 C   0  0  1  0  0  0  0  0  0  0  0  0
   10.0129    1.8405    4.0843 O   0  0  0  0  0  0  0  0  0  0  0  0
    7.5890    8.3564   -1.2378 C   0  0  0  0  0  0  0  0  0  0  0  0
    7.4626    7.3972   -2.3695 N   0  0  0  0  0  0  0  0  0  0  0  0
  1  2  1  6  0  0  0
  1  7  1  0  0  0  0
  1 30  1  0  0  0  0
  3  4  1  6  0  0  0
  3  9  1  0  0  0  0
  3 39  1  0  0  0  0
  5 10  1  0  0  0  0
  5 26  1  0  0  0  0
  5 32  1  6  0  0  0
  6 12  1  0  0  0  0
  6 36  1  0  0  0  0
  6 19  1  1  0  0  0
  7  8  1  6  0  0  0
  7 14  1  0  0  0  0
  9 16  1  0  0  0  0
 10 11  1  1  0  0  0
 10 18  1  0  0  0  0
 12 13  1  6  0  0  0
 12 20  1  0  0  0  0
 14 15  1  1  0  0  0
 14 22  1  0  0  0  0
 16 17  1  6  0  0  0
 16 24  1  0  0  0  0
 18 19  1  1  0  0  0
 18 25  1  0  0  0  0
 20 21  1  6  0  0  0
 20 27  1  0  0  0  0
 22 23  1  6  0  0  0
 22 29  1  0  0  0  0
 24  2  1  1  0  0  0
 24 31  1  0  0  0  0
 25 26  1  0  0  0  0
 25 33  1  6  0  0  0
 27 28  1  1  0  0  0
 27 35  1  0  0  0  0
 29 30  1  0  0  0  0
 29 37  1  1  0  0  0
 31 32  1  6  0  0  0
 31 39  1  0  0  0  0
 33 34  1  0  0  0  0
 35 36  1  0  0  0  0
 35 41  1  6  0  0  0
 37 38  1  0  0  0  0
 39 40  1  1  0  0  0
 41 42  1  0  0  0  0
M  END
>  <CHROM.1>
-172.19520846,123.49984931,-158.98683678,72.99112132,50.83683603,-65.94531812
-58.32039492,165.83433311,179.92115436,7.36518069,1.97122591,2.36143195,-1.61418484
-0.29912796,-0.24482361

>  <Name>
2o3w_lig

>  <RI>
0

>  <Rbt.Current_Directory>
/home/itssahil/PROJECTS/Mol_Feturizer/New_Systems/rnas/2o3w

>  <Rbt.Executable>
rbdock ($Id: //depot/dev/client3/rdock/2013.1/src/exe/rbdock.cxx#4 $)

>  <Rbt.Library>
libRbt.so (2013.1, Build901 2013/11/27)

>  <Rbt.Parameter_File>
/export/apps/rDock/src/rDock_2013.1_src/data/scripts/dock_solv.prm

>  <Rbt.Receptor>
prm/pocket_docking_3.prm

>  <SCORE>
-8.92054

>  <SCORE.INTER>
-0.265967

>  <SCORE.INTER.CONST>
1

>  <SCORE.INTER.POLAR>
0

>  <SCORE.INTER.ROT>
9

>  <SCORE.INTER.SOLV>
7.50002

>  <SCORE.INTER.VDW>
-12.2773

>  <SCORE.INTER.norm>
-0.00633254

>  <SCORE.INTRA>
-8.67628

>  <SCORE.INTRA.DIHEDRAL>
-16.0926

>  <SCORE.INTRA.DIHEDRAL.0>
27.8999

>  <SCORE.INTRA.POLAR>
0

>  <SCORE.INTRA.POLAR.0>
0

>  <SCORE.INTRA.REPUL>
0

>  <SCORE.INTRA.REPUL.0>
0

>  <SCORE.INTRA.SOLV>
-3.69444

>  <SCORE.INTRA.SOLV.lig_0>
-104.479

>  <SCORE.INTRA.VDW>
1.21725

>  <SCORE.INTRA.VDW.0>
-6.17816

>  <SCORE.INTRA.norm>
-0.206578

>  <SCORE.RESTR>
0.0217068

>  <SCORE.RESTR.CAVITY>
0.0217068

>  <SCORE.RESTR.norm>
0.000516828

>  <SCORE.SYSTEM>
0

>  <SCORE.SYSTEM.CONST>
0

>  <SCORE.SYSTEM.DIHEDRAL>
0

>  <SCORE.SYSTEM.SOLV>
0

>  <SCORE.SYSTEM.norm>
0

>  <SCORE.heavy>
42

>  <SCORE.norm>
-0.212394

>  <RMSD>
3.556

$$$$
2o3w_lig
 OpenBabel11021811463D
libRbt.so/2013.1/901 2013/11/27
 42 45  0  0  0  0  0  0  0  0999 V2000
    7.7044   -0.5737    3.7138 C   0  0  2  0  0  0  0  0  0  0  0  0
    8.1127    0.2612    2.6168 O   0  0  0  0  0  0  0  0  0  0  0  0
    9.5284    3.6239    4.9586 C   0  0  2  0  0  0  0  0  0  0  0  0
   10.0642    4.9589    5.3599 N   0  0  0  0  0  0  0  0  0  0  0  0
    6.6506    3.6846    1.6709 C   0  0  1  0  0  0  0  0  0  0  0  0
    6.7803    6.2840   -0.0135 C   0  0  1  0  0  0  0  0  0  0  0  0
    7.3048   -1.9540    3.1110 C   0  0  2  0  0  0  0  0  0  0  0  0
    8.3311   -2.4897    2.1999 N   0  0  0  0  0  0  0  0  0  0  0  0
   10.5974    2.8010    4.1328 C   0  0  0  0  0  0  0  0  0  0  0  0
    7.7893    3.4038    0.6436 C   0  0  2  0  0  0  0  0  0  0  0  0
    9.0674    3.9804    1.0084 O   0  0  0  0  0  0  0  0  0  0  0  0
    5.6986    7.1468   -0.7579 C   0  0  2  0  0  0  0  0  0  0  0  0
    6.3000    7.8725   -1.9166 N   0  0  0  0  0  0  0  0  0  0  0  0
    5.9918   -1.8835    2.3097 C   0  0  1  0  0  0  0  0  0  0  0  0
    5.6440   -3.1759    1.8102 O   0  0  0  0  0  0  0  0  0  0  0  0
    9.9842    1.3986    3.7590 C   0  0  2  0  0  0  0  0  0  0  0  0
   10.9703    0.5904    2.9923 N   0  0  0  0  0  0  0  0  0  0  0  0
    7.1649    3.9396   -0.6457 C   0  0  2  0  0  0  0  0  0  0  0  0
    7.4804    5.3537   -0.8491 O   0  0  0  0  0  0  0  0  0  0  0  0
    5.0331    8.1704    0.2796 C   0  0  1  0  0  0  0  0  0  0  0  0
    4.1526    7.4367    1.1601 O   0  0  0  0  0  0  0  0  0  0  0  0
    4.8723   -1.3041    3.2042 C   0  0  2  0  0  0  0  0  0  0  0  0
    3.6592   -1.2486    2.4903 O   0  0  0  0  0  0  0  0  0  0  0  0
    8.6667    1.5765    2.9055 C   0  0  2  0  0  0  0  0  0  0  0  0
    5.6489    3.7214   -0.5057 C   0  0  2  0  0  0  0  0  0  0  0  0
    5.4367    3.8343    0.8995 O   0  0  0  0  0  0  0  0  0  0  0  0
    6.1175    8.9680    1.1488 C   0  0  2  0  0  0  0  0  0  0  0  0
    6.7963    9.8663    0.2720 O   0  0  0  0  0  0  0  0  0  0  0  0
    5.2940    0.1228    3.6899 C   0  0  2  0  0  0  0  0  0  0  0  0
    6.5593    0.0402    4.4191 O   0  0  0  0  0  0  0  0  0  0  0  0
    7.5944    2.4210    3.6283 C   0  0  2  0  0  0  0  0  0  0  0  0
    6.5477    2.6348    2.6417 O   0  0  0  0  0  0  0  0  0  0  0  0
    5.1286    2.3524   -1.0437 C   0  0  0  0  0  0  0  0  0  0  0  0
    5.5672    1.3095   -0.1783 O   0  0  0  0  0  0  0  0  0  0  0  0
    7.1433    7.9708    1.8087 C   0  0  1  0  0  0  0  0  0  0  0  0
    7.7440    7.2086    0.7003 O   0  0  0  0  0  0  0  0  0  0  0  0
    4.2551    0.7646    4.5801 C   0  0  0  0  0  0  0  0  0  0  0  0
    4.6651    2.0590    4.9486 O   0  0  0  0  0  0  0  0  0  0  0  0
    8.2115    3.8033    4.1017 C   0  0  1  0  0  0  0  0  0  0  0  0
    7.2649    4.5185    4.9005 O   0  0  0  0  0  0  0  0  0  0  0  0
    8.2786    8.6823    2.6652 C   0  0  0  0  0  0  0  0  0  0  0  0
    7.8485    9.2105    3.9890 N   0  0  0  0  0  0  0  0  0  0  0  0
  1  2  1  6  0  0  0
  1  7  1  0  0  0  0
  1 30  1  0  0  0  0
  3  4  1  6  0  0  0
  3  9  1  0  0  0  0
  3 39  1  0  0  0  0
  5 10  1  0  0  0  0
  5 26  1  0  0  0  0
  5 32  1  1  0  0  0
  6 12  1  0  0  0  0
  6 36  1  0  0  0  0
  6 19  1  6  0  0  0
  7  8  1  6  0  0  0
  7 14  1  0  0  0  0
  9 16  1  0  0  0  0
 10 11  1  1  0  0  0
 10 18  1  0  0  0  0
 12 13  1  6  0  0  0
 12 20  1  0  0  0  0
 14 15  1  1  0  0  0
 14 22  1  0  0  0  0
 16 17  1  6  0  0  0
 16 24  1  0  0  0  0
 18 19  1  1  0  0  0
 18 25  1  0  0  0  0
 20 21  1  1  0  0  0
 20 27  1  0  0  0  0
 22 23  1  6  0  0  0
 22 29  1  0  0  0  0
 24  2  1  1  0  0  0
 24 31  1  0  0  0  0
 25 26  1  0  0  0  0
 25 33  1  1  0  0  0
 27 28  1  6  0  0  0
 27 35  1  0  0  0  0
 29 30  1  0  0  0  0
 29 37  1  1  0  0  0
 31 32  1  6  0  0  0
 31 39  1  0  0  0  0
 33 34  1  0  0  0  0
 35 36  1  0  0  0  0
 35 41  1  6  0  0  0
 37 38  1  0  0  0  0
 39 40  1  1  0  0  0
 41 42  1  0  0  0  0
M  END
>  <CHROM.1>
-174.04772481,68.34078948,-108.91281460,-74.22490905,61.48299448,70.63727373
-178.01622475,-82.93443782,74.81264503,6.96048486,3.31395171,2.10729347,-1.58048488
-0.77728047,-0.26087946

>  <Name>
2o3w_lig

>  <RI>
0

>  <Rbt.Current_Directory>
/home/itssahil/PROJECTS/Mol_Feturizer/New_Systems/rnas/2o3w

>  <Rbt.Executable>
rbdock ($Id: //depot/dev/client3/rdock/2013.1/src/exe/rbdock.cxx#4 $)

>  <Rbt.Library>
libRbt.so (2013.1, Build901 2013/11/27)

>  <Rbt.Parameter_File>
/export/apps/rDock/src/rDock_2013.1_src/data/scripts/dock_solv.prm

>  <Rbt.Receptor>
prm/pocket_docking_3.prm

>  <SCORE>
-8.3593

>  <SCORE.INTER>
-1.451

>  <SCORE.INTER.CONST>
1

>  <SCORE.INTER.POLAR>
-0.777592

>  <SCORE.INTER.ROT>
9

>  <SCORE.INTER.SOLV>
14.1211

>  <SCORE.INTER.VDW>
-12.6824

>  <SCORE.INTER.norm>
-0.0345477

>  <SCORE.INTRA>
-6.92013

>  <SCORE.INTRA.DIHEDRAL>
-16.3186

>  <SCORE.INTRA.DIHEDRAL.0>
27.8999

>  <SCORE.INTRA.POLAR>
0

>  <SCORE.INTRA.POLAR.0>
0

>  <SCORE.INTRA.REPUL>
0.166663

>  <SCORE.INTRA.REPUL.0>
0

>  <SCORE.INTRA.SOLV>
-2.67137

>  <SCORE.INTRA.SOLV.lig_0>
-104.479

>  <SCORE.INTRA.VDW>
1.74156

>  <SCORE.INTRA.VDW.0>
-6.17816

>  <SCORE.INTRA.norm>
-0.164765

>  <SCORE.RESTR>
0.0118313

>  <SCORE.RESTR.CAVITY>
0.0118313

>  <SCORE.RESTR.norm>
0.000281699

>  <SCORE.SYSTEM>
0

>  <SCORE.SYSTEM.CONST>
0

>  <SCORE.SYSTEM.DIHEDRAL>
0

>  <SCORE.SYSTEM.SOLV>
0

>  <SCORE.SYSTEM.norm>
0

>  <SCORE.heavy>
42

>  <SCORE.norm>
-0.199031

>  <RMSD>
3.571

$$$$
2o3w_lig
 OpenBabel11021811463D
libRbt.so/2013.1/901 2013/11/27
 42 45  0  0  0  0  0  0  0  0999 V2000
    8.2812    1.8802    4.5095 C   0  0  2  0  0  0  0  0  0  0  0  0
    7.7860    2.4730    5.7222 O   0  0  0  0  0  0  0  0  0  0  0  0
    8.4002    6.2479    7.7640 C   0  0  2  0  0  0  0  0  0  0  0  0
    9.0339    7.4644    8.3547 N   0  0  0  0  0  0  0  0  0  0  0  0
    8.2469    5.6146    3.1257 C   0  0  1  0  0  0  0  0  0  0  0  0
    7.1657    7.3379   -0.7380 C   0  0  1  0  0  0  0  0  0  0  0  0
    7.2908    0.7412    4.1224 C   0  0  2  0  0  0  0  0  0  0  0  0
    5.8868    1.1875    4.1318 N   0  0  0  0  0  0  0  0  0  0  0  0
    8.9018    4.9322    8.4845 C   0  0  0  0  0  0  0  0  0  0  0  0
    9.1401    5.4079    1.8646 C   0  0  2  0  0  0  0  0  0  0  0  0
   10.3104    6.2610    1.8251 O   0  0  0  0  0  0  0  0  0  0  0  0
    7.8344    7.3882   -2.1589 C   0  0  2  0  0  0  0  0  0  0  0  0
    8.9790    8.3476   -2.1761 N   0  0  0  0  0  0  0  0  0  0  0  0
    7.3814   -0.4620    5.0790 C   0  0  1  0  0  0  0  0  0  0  0  0
    6.4870   -1.4958    4.6641 O   0  0  0  0  0  0  0  0  0  0  0  0
    8.1838    3.6892    7.8349 C   0  0  2  0  0  0  0  0  0  0  0  0
    8.6222    2.4325    8.4997 N   0  0  0  0  0  0  0  0  0  0  0  0
    8.1241    5.6249    0.7422 C   0  0  2  0  0  0  0  0  0  0  0  0
    8.0648    7.0288    0.3342 O   0  0  0  0  0  0  0  0  0  0  0  0
    6.7307    7.7896   -3.2487 C   0  0  1  0  0  0  0  0  0  0  0  0
    5.8548    6.6603   -3.4644 O   0  0  0  0  0  0  0  0  0  0  0  0
    8.8411   -0.9675    5.1349 C   0  0  2  0  0  0  0  0  0  0  0  0
    8.9378   -2.0798    5.9939 O   0  0  0  0  0  0  0  0  0  0  0  0
    8.4992    3.6090    6.2889 C   0  0  2  0  0  0  0  0  0  0  0  0
    6.7710    5.1480    1.2963 C   0  0  2  0  0  0  0  0  0  0  0  0
    6.8813    5.4205    2.6913 O   0  0  0  0  0  0  0  0  0  0  0  0
    5.8635    9.0653   -2.8151 C   0  0  2  0  0  0  0  0  0  0  0  0
    6.7215   10.2047   -2.8590 O   0  0  0  0  0  0  0  0  0  0  0  0
    9.7653    0.1949    5.6291 C   0  0  2  0  0  0  0  0  0  0  0  0
    9.6400    1.3401    4.7275 O   0  0  0  0  0  0  0  0  0  0  0  0
    8.0866    4.8871    5.5264 C   0  0  2  0  0  0  0  0  0  0  0  0
    8.6110    4.7154    4.1811 O   0  0  0  0  0  0  0  0  0  0  0  0
    6.4495    3.6426    1.0422 C   0  0  0  0  0  0  0  0  0  0  0  0
    6.4241    3.3972   -0.3607 O   0  0  0  0  0  0  0  0  0  0  0  0
    5.2832    8.8753   -1.3628 C   0  0  1  0  0  0  0  0  0  0  0  0
    6.4439    8.6449   -0.4853 O   0  0  0  0  0  0  0  0  0  0  0  0
   11.2187   -0.2113    5.7080 C   0  0  0  0  0  0  0  0  0  0  0  0
   12.0148    0.8986    6.0452 O   0  0  0  0  0  0  0  0  0  0  0  0
    8.7193    6.1670    6.2174 C   0  0  1  0  0  0  0  0  0  0  0  0
    8.2165    7.3577    5.6050 O   0  0  0  0  0  0  0  0  0  0  0  0
    4.4343   10.1131   -0.8375 C   0  0  0  0  0  0  0  0  0  0  0  0
    3.8039    9.9383    0.4999 N   0  0  0  0  0  0  0  0  0  0  0  0
  1  2  1  1  0  0  0
  1  7  1  0  0  0  0
  1 30  1  0  0  0  0
  3  4  1  1  0  0  0
  3  9  1  0  0  0  0
  3 39  1  0  0  0  0
  5 10  1  0  0  0  0
  5 26  1  0  0  0  0
  5 32  1  1  0  0  0
  6 12  1  0  0  0  0
  6 36  1  0  0  0  0
  6 19  1  1  0  0  0
  7  8  1  1  0  0  0
  7 14  1  0  0  0  0
  9 16  1  0  0  0  0
 10 11  1  6  0  0  0
 10 18  1  0  0  0  0
 12 13  1  1  0  0  0
 12 20  1  0  0  0  0
 14 15  1  6  0  0  0
 14 22  1  0  0  0  0
 16 17  1  1  0  0  0
 16 24  1  0  0  0  0
 18 19  1  1  0  0  0
 18 25  1  0  0  0  0
 20 21  1  1  0  0  0
 20 27  1  0  0  0  0
 22 23  1  1  0  0  0
 22 29  1  0  0  0  0
 24  2  1  6  0  0  0
 24 31  1  0  0  0  0
 25 26  1  0  0  0  0
 25 33  1  1  0  0  0
 27 28  1  1  0  0  0
 27 35  1  0  0  0  0
 29 30  1  0  0  0  0
 29 37  1  6  0  0  0
 31 32  1  6  0  0  0
 31 39  1  0  0  0  0
 33 34  1  0  0  0  0
 35 36  1  0  0  0  0
 35 41  1  1  0  0  0
 37 38  1  0  0  0  0
 39 40  1  6  0  0  0
 41 42  1  0  0  0  0
M  END
>  <CHROM.1>
-177.73401892,168.62788257,-95.76119819,178.48443070,-156.30652790,-60.21779532
174.97198236,170.31553826,176.60691832,7.82713116,4.67373138,2.91200760,0.47071170
1.31238436,-2.88460156

>  <Name>
2o3w_lig

>  <RI>
0

>  <Rbt.Current_Directory>
/home/itssahil/PROJECTS/Mol_Feturizer/New_Systems/rnas/2o3w

>  <Rbt.Executable>
rbdock ($Id: //depot/dev/client3/rdock/2013.1/src/exe/rbdock.cxx#4 $)

>  <Rbt.Library>
libRbt.so (2013.1, Build901 2013/11/27)

>  <Rbt.Parameter_File>
/export/apps/rDock/src/rDock_2013.1_src/data/scripts/dock_solv.prm

>  <Rbt.Receptor>
prm/pocket_docking_6.prm

>  <SCORE>
-15.5701

>  <SCORE.INTER>
-4.74102

>  <SCORE.INTER.CONST>
1

>  <SCORE.INTER.POLAR>
-1.69711

>  <SCORE.INTER.ROT>
9

>  <SCORE.INTER.SOLV>
16.2963

>  <SCORE.INTER.VDW>
-12.5358

>  <SCORE.INTER.norm>
-0.112881

>  <SCORE.INTRA>
-10.8291

>  <SCORE.INTRA.DIHEDRAL>
-19.5079

>  <SCORE.INTRA.DIHEDRAL.0>
27.8999

>  <SCORE.INTRA.POLAR>
0

>  <SCORE.INTRA.POLAR.0>
0

>  <SCORE.INTRA.REPUL>
0

>  <SCORE.INTRA.REPUL.0>
0

>  <SCORE.INTRA.SOLV>
-5.71197

>  <SCORE.INTRA.SOLV.lig_0>
-104.479

>  <SCORE.INTRA.VDW>
1.78082

>  <SCORE.INTRA.VDW.0>
-6.17816

>  <SCORE.INTRA.norm>
-0.257836

>  <SCORE.RESTR>
0

>  <SCORE.RESTR.CAVITY>
0

>  <SCORE.RESTR.norm>
0

>  <SCORE.SYSTEM>
0

>  <SCORE.SYSTEM.CONST>
0

>  <SCORE.SYSTEM.DIHEDRAL>
0

>  <SCORE.SYSTEM.SOLV>
0

>  <SCORE.SYSTEM.norm>
0

>  <SCORE.heavy>
42

>  <SCORE.norm>
-0.370718

>  <RMSD>
3.571

$$$$
2o3w_lig
 OpenBabel11021811463D
libRbt.so/2013.1/901 2013/11/27
 42 45  0  0  0  0  0  0  0  0999 V2000
    8.2905   -0.2641    3.4908 C   0  0  2  0  0  0  0  0  0  0  0  0
    9.1583    0.4382    2.5847 O   0  0  0  0  0  0  0  0  0  0  0  0
   10.8564    3.3596    5.3009 C   0  0  2  0  0  0  0  0  0  0  0  0
   11.7614    4.3689    5.9276 N   0  0  0  0  0  0  0  0  0  0  0  0
    8.3450    4.0813    1.2836 C   0  0  1  0  0  0  0  0  0  0  0  0
    4.6644    6.4691    0.9331 C   0  0  1  0  0  0  0  0  0  0  0  0
    7.6378   -1.4278    2.6857 C   0  0  2  0  0  0  0  0  0  0  0  0
    8.6296   -2.2264    1.9447 N   0  0  0  0  0  0  0  0  0  0  0  0
   11.5473    1.9389    5.2236 C   0  0  0  0  0  0  0  0  0  0  0  0
    6.9240    3.4408    1.2479 C   0  0  2  0  0  0  0  0  0  0  0  0
    6.5625    2.8801   -0.0382 O   0  0  0  0  0  0  0  0  0  0  0  0
    3.2298    5.9621    1.3253 C   0  0  2  0  0  0  0  0  0  0  0  0
    2.6581    5.0958    0.2512 N   0  0  0  0  0  0  0  0  0  0  0  0
    6.6135   -0.9216    1.6534 C   0  0  1  0  0  0  0  0  0  0  0  0
    6.0128   -2.0217    0.9681 O   0  0  0  0  0  0  0  0  0  0  0  0
   10.5390    0.9157    4.5764 C   0  0  2  0  0  0  0  0  0  0  0  0
   11.1521   -0.4378    4.5012 N   0  0  0  0  0  0  0  0  0  0  0  0
    6.0600    4.6079    1.7281 C   0  0  2  0  0  0  0  0  0  0  0  0
    5.5969    5.4302    0.6099 O   0  0  0  0  0  0  0  0  0  0  0  0
    2.2836    7.2228    1.6122 C   0  0  1  0  0  0  0  0  0  0  0  0
    2.6573    7.8085    2.8796 O   0  0  0  0  0  0  0  0  0  0  0  0
    5.5518   -0.0517    2.3643 C   0  0  2  0  0  0  0  0  0  0  0  0
    4.5969    0.4059    1.4353 O   0  0  0  0  0  0  0  0  0  0  0  0
   10.1184    1.3883    3.1287 C   0  0  2  0  0  0  0  0  0  0  0  0
    6.9420    5.4214    2.6902 C   0  0  2  0  0  0  0  0  0  0  0  0
    8.2543    5.2195    2.1709 O   0  0  0  0  0  0  0  0  0  0  0  0
    2.3650    8.3361    0.4626 C   0  0  2  0  0  0  0  0  0  0  0  0
    1.7538    7.7932   -0.7070 O   0  0  0  0  0  0  0  0  0  0  0  0
    6.2644    1.1533    3.0641 C   0  0  2  0  0  0  0  0  0  0  0  0
    7.2565    0.6531    4.0155 O   0  0  0  0  0  0  0  0  0  0  0  0
    9.4855    2.7970    3.1189 C   0  0  2  0  0  0  0  0  0  0  0  0
    9.3359    3.1388    1.7134 O   0  0  0  0  0  0  0  0  0  0  0  0
    6.8576    4.9875    4.1865 C   0  0  0  0  0  0  0  0  0  0  0  0
    7.4300    6.0038    5.0040 O   0  0  0  0  0  0  0  0  0  0  0  0
    3.8638    8.7205    0.1662 C   0  0  1  0  0  0  0  0  0  0  0  0
    4.5432    7.4658   -0.2004 O   0  0  0  0  0  0  0  0  0  0  0  0
    5.2972    2.0572    3.7929 C   0  0  0  0  0  0  0  0  0  0  0  0
    4.6508    1.3472    4.8212 O   0  0  0  0  0  0  0  0  0  0  0  0
   10.4387    3.8322    3.8508 C   0  0  1  0  0  0  0  0  0  0  0  0
    9.7878    5.0996    3.9752 O   0  0  0  0  0  0  0  0  0  0  0  0
    4.0395    9.7986   -0.9894 C   0  0  0  0  0  0  0  0  0  0  0  0
    5.4434   10.1867   -1.2976 N   0  0  0  0  0  0  0  0  0  0  0  0
  1  2  1  6  0  0  0
  1  7  1  0  0  0  0
  1 30  1  0  0  0  0
  3  4  1  6  0  0  0
  3  9  1  0  0  0  0
  3 39  1  0  0  0  0
  5 10  1  0  0  0  0
  5 26  1  0  0  0  0
  5 32  1  1  0  0  0
  6 12  1  0  0  0  0
  6 36  1  0  0  0  0
  6 19  1  6  0  0  0
  7  8  1  6  0  0  0
  7 14  1  0  0  0  0
  9 16  1  0  0  0  0
 10 11  1  6  0  0  0
 10 18  1  0  0  0  0
 12 13  1  6  0  0  0
 12 20  1  0  0  0  0
 14 15  1  1  0  0  0
 14 22  1  0  0  0  0
 16 17  1  6  0  0  0
 16 24  1  0  0  0  0
 18 19  1  6  0  0  0
 18 25  1  0  0  0  0
 20 21  1  1  0  0  0
 20 27  1  0  0  0  0
 22 23  1  6  0  0  0
 22 29  1  0  0  0  0
 24  2  1  1  0  0  0
 24 31  1  0  0  0  0
 25 26  1  0  0  0  0
 25 33  1  1  0  0  0
 27 28  1  6  0  0  0
 27 35  1  0  0  0  0
 29 30  1  0  0  0  0
 29 37  1  1  0  0  0
 31 32  1  6  0  0  0
 31 39  1  0  0  0  0
 33 34  1  0  0  0  0
 35 36  1  0  0  0  0
 35 41  1  6  0  0  0
 37 38  1  0  0  0  0
 39 40  1  1  0  0  0
 41 42  1  0  0  0  0
M  END
>  <CHROM.1>
-166.69311122,-77.70921856,-70.91536986,173.66090214,30.05059829,-165.24672446
62.24077668,155.02101411,-179.99381611,6.76920353,3.63979013,2.30864501,0.86260969
0.49149557,3.10969053

>  <Name>
2o3w_lig

>  <RI>
0

>  <Rbt.Current_Directory>
/home/itssahil/PROJECTS/Mol_Feturizer/New_Systems/rnas/2o3w

>  <Rbt.Executable>
rbdock ($Id: //depot/dev/client3/rdock/2013.1/src/exe/rbdock.cxx#4 $)

>  <Rbt.Library>
libRbt.so (2013.1, Build901 2013/11/27)

>  <Rbt.Parameter_File>
/export/apps/rDock/src/rDock_2013.1_src/data/scripts/dock_solv.prm

>  <Rbt.Receptor>
prm/pocket_docking_3.prm

>  <SCORE>
-7.10732

>  <SCORE.INTER>
0.599563

>  <SCORE.INTER.CONST>
1

>  <SCORE.INTER.POLAR>
0

>  <SCORE.INTER.ROT>
9

>  <SCORE.INTER.SOLV>
6.75603

>  <SCORE.INTER.VDW>
-11.4523

>  <SCORE.INTER.norm>
0.0142753

>  <SCORE.INTRA>
-7.70688

>  <SCORE.INTRA.DIHEDRAL>
-17.7506

>  <SCORE.INTRA.DIHEDRAL.0>
27.8999

>  <SCORE.INTRA.POLAR>
0

>  <SCORE.INTRA.POLAR.0>
0

>  <SCORE.INTRA.REPUL>
0

>  <SCORE.INTRA.REPUL.0>
0

>  <SCORE.INTRA.SOLV>
-2.34835

>  <SCORE.INTRA.SOLV.lig_0>
-104.479

>  <SCORE.INTRA.VDW>
2.34262

>  <SCORE.INTRA.VDW.0>
-6.17816

>  <SCORE.INTRA.norm>
-0.183497

>  <SCORE.RESTR>
0

>  <SCORE.RESTR.CAVITY>
0

>  <SCORE.RESTR.norm>
0

>  <SCORE.SYSTEM>
0

>  <SCORE.SYSTEM.CONST>
0

>  <SCORE.SYSTEM.DIHEDRAL>
0

>  <SCORE.SYSTEM.SOLV>
0

>  <SCORE.SYSTEM.norm>
0

>  <SCORE.heavy>
42

>  <SCORE.norm>
-0.169222

>  <RMSD>
3.602

$$$$
2o3w_lig
 OpenBabel11021811463D
libRbt.so/2013.1/901 2013/11/27
 42 45  0  0  0  0  0  0  0  0999 V2000
    7.4731    0.2627    3.8177 C   0  0  2  0  0  0  0  0  0  0  0  0
    7.7974    0.3904    5.2126 O   0  0  0  0  0  0  0  0  0  0  0  0
    7.9186    3.7389    7.9637 C   0  0  2  0  0  0  0  0  0  0  0  0
    8.1916    5.0730    8.5771 N   0  0  0  0  0  0  0  0  0  0  0  0
    5.1554    3.4479    4.2518 C   0  0  1  0  0  0  0  0  0  0  0  0
    2.9728    6.7470    2.5812 C   0  0  1  0  0  0  0  0  0  0  0  0
    6.9941   -1.2031    3.5942 C   0  0  2  0  0  0  0  0  0  0  0  0
    5.9672   -1.6152    4.5669 N   0  0  0  0  0  0  0  0  0  0  0  0
    9.2573    2.9289    7.7320 C   0  0  0  0  0  0  0  0  0  0  0  0
    5.3642    4.6245    3.2505 C   0  0  2  0  0  0  0  0  0  0  0  0
    5.6353    5.8980    3.8859 O   0  0  0  0  0  0  0  0  0  0  0  0
    2.1155    6.9885    1.2867 C   0  0  2  0  0  0  0  0  0  0  0  0
    2.5853    6.1199    0.1661 N   0  0  0  0  0  0  0  0  0  0  0  0
    8.1465   -2.2181    3.7072 C   0  0  1  0  0  0  0  0  0  0  0  0
    7.6702   -3.5414    3.4565 O   0  0  0  0  0  0  0  0  0  0  0  0
    8.9036    1.5269    7.1062 C   0  0  2  0  0  0  0  0  0  0  0  0
   10.1413    0.7307    6.8878 N   0  0  0  0  0  0  0  0  0  0  0  0
    4.0724    4.5531    2.4347 C   0  0  2  0  0  0  0  0  0  0  0  0
    3.0198    5.3837    3.0203 O   0  0  0  0  0  0  0  0  0  0  0  0
    2.1903    8.5375    0.8845 C   0  0  1  0  0  0  0  0  0  0  0  0
    1.3912    9.3011    1.8157 O   0  0  0  0  0  0  0  0  0  0  0  0
    9.2747   -1.8288    2.7250 C   0  0  2  0  0  0  0  0  0  0  0  0
   10.3305   -2.7580    2.8042 O   0  0  0  0  0  0  0  0  0  0  0  0
    8.1395    1.7058    5.7350 C   0  0  2  0  0  0  0  0  0  0  0  0
    3.6651    3.0702    2.4137 C   0  0  2  0  0  0  0  0  0  0  0  0
    4.1582    2.5841    3.6599 O   0  0  0  0  0  0  0  0  0  0  0  0
    3.6886    9.1055    0.8726 C   0  0  2  0  0  0  0  0  0  0  0  0
    4.3695    8.5019   -0.2267 O   0  0  0  0  0  0  0  0  0  0  0  0
    9.7787   -0.3881    3.0715 C   0  0  2  0  0  0  0  0  0  0  0  0
    8.6638    0.5555    2.9917 O   0  0  0  0  0  0  0  0  0  0  0  0
    6.8462    2.5383    5.8744 C   0  0  2  0  0  0  0  0  0  0  0  0
    6.3833    2.7557    4.5131 O   0  0  0  0  0  0  0  0  0  0  0  0
    4.2428    2.2459    1.2216 C   0  0  0  0  0  0  0  0  0  0  0  0
    3.6922    0.9325    1.2472 O   0  0  0  0  0  0  0  0  0  0  0  0
    4.4235    8.7633    2.2235 C   0  0  1  0  0  0  0  0  0  0  0  0
    4.3661    7.2976    2.3606 O   0  0  0  0  0  0  0  0  0  0  0  0
   10.8836    0.0783    2.1519 C   0  0  0  0  0  0  0  0  0  0  0  0
   12.0257   -0.7259    2.3196 O   0  0  0  0  0  0  0  0  0  0  0  0
    7.1567    3.9194    6.5899 C   0  0  1  0  0  0  0  0  0  0  0  0
    5.9397    4.6225    6.8547 O   0  0  0  0  0  0  0  0  0  0  0  0
    5.9321    9.2623    2.2846 C   0  0  0  0  0  0  0  0  0  0  0  0
    6.7195    8.7852    3.4545 N   0  0  0  0  0  0  0  0  0  0  0  0
  1  2  1  1  0  0  0
  1  7  1  0  0  0  0
  1 30  1  0  0  0  0
  3  4  1  6  0  0  0
  3  9  1  0  0  0  0
  3 39  1  0  0  0  0
  5 10  1  0  0  0  0
  5 26  1  0  0  0  0
  5 32  1  6  0  0  0
  6 12  1  0  0  0  0
  6 36  1  0  0  0  0
  6 19  1  6  0  0  0
  7  8  1  1  0  0  0
  7 14  1  0  0  0  0
  9 16  1  0  0  0  0
 10 11  1  1  0  0  0
 10 18  1  0  0  0  0
 12 13  1  6  0  0  0
 12 20  1  0  0  0  0
 14 15  1  6  0  0  0
 14 22  1  0  0  0  0
 16 17  1  6  0  0  0
 16 24  1  0  0  0  0
 18 19  1  1  0  0  0
 18 25  1  0  0  0  0
 20 21  1  1  0  0  0
 20 27  1  0  0  0  0
 22 23  1  1  0  0  0
 22 29  1  0  0  0  0
 24  2  1  1  0  0  0
 24 31  1  0  0  0  0
 25 26  1  0  0  0  0
 25 33  1  6  0  0  0
 27 28  1  6  0  0  0
 27 35  1  0  0  0  0
 29 30  1  0  0  0  0
 29 37  1  6  0  0  0
 31 32  1  6  0  0  0
 31 39  1  0  0  0  0
 33 34  1  0  0  0  0
 35 36  1  0  0  0  0
 35 41  1  6  0  0  0
 37 38  1  0  0  0  0
 39 40  1  1  0  0  0
 41 42  1  0  0  0  0
M  END
>  <CHROM.1>
-173.48649977,127.23734451,87.64088267,88.93542238,-161.27375743,-174.51454770
-64.65415802,177.02534346,-171.29371521,6.27750871,3.28368583,3.57837680
0.61153866,0.86579174,-2.58877763

>  <Name>
2o3w_lig

>  <RI>
0

>  <Rbt.Current_Directory>
/home/itssahil/PROJECTS/Mol_Feturizer/New_Systems/rnas/2o3w

>  <Rbt.Executable>
rbdock ($Id: //depot/dev/client3/rdock/2013.1/src/exe/rbdock.cxx#4 $)

>  <Rbt.Library>
libRbt.so (2013.1, Build901 2013/11/27)

>  <Rbt.Parameter_File>
/export/apps/rDock/src/rDock_2013.1_src/data/scripts/dock_solv.prm

>  <Rbt.Receptor>
prm/pocket_docking_4.prm

>  <SCORE>
-13.9332

>  <SCORE.INTER>
-9.50518

>  <SCORE.INTER.CONST>
1

>  <SCORE.INTER.POLAR>
-0.807708

>  <SCORE.INTER.ROT>
9

>  <SCORE.INTER.SOLV>
16.7949

>  <SCORE.INTER.VDW>
-18.8427

>  <SCORE.INTER.norm>
-0.226314

>  <SCORE.INTRA>
-4.72645

>  <SCORE.INTRA.DIHEDRAL>
-12.0364

>  <SCORE.INTRA.DIHEDRAL.0>
27.8999

>  <SCORE.INTRA.POLAR>
0

>  <SCORE.INTRA.POLAR.0>
0

>  <SCORE.INTRA.REPUL>
0

>  <SCORE.INTRA.REPUL.0>
0

>  <SCORE.INTRA.SOLV>
-2.50551

>  <SCORE.INTRA.SOLV.lig_0>
-104.479

>  <SCORE.INTRA.VDW>
2.54452

>  <SCORE.INTRA.VDW.0>
-6.17816

>  <SCORE.INTRA.norm>
-0.112534

>  <SCORE.RESTR>
0.29847

>  <SCORE.RESTR.CAVITY>
0.29847

>  <SCORE.RESTR.norm>
0.00710643

>  <SCORE.SYSTEM>
0

>  <SCORE.SYSTEM.CONST>
0

>  <SCORE.SYSTEM.DIHEDRAL>
0

>  <SCORE.SYSTEM.SOLV>
0

>  <SCORE.SYSTEM.norm>
0

>  <SCORE.heavy>
42

>  <SCORE.norm>
-0.331742

>  <RMSD>
3.603

$$$$
2o3w_lig
 OpenBabel11021811463D
libRbt.so/2013.1/901 2013/11/27
 42 45  0  0  0  0  0  0  0  0999 V2000
    8.6507    0.2066    5.5946 C   0  0  2  0  0  0  0  0  0  0  0  0
    9.4973    0.3339    4.4395 O   0  0  0  0  0  0  0  0  0  0  0  0
   11.8669    3.7280    5.7283 C   0  0  2  0  0  0  0  0  0  0  0  0
   12.9420    4.7588    5.8379 N   0  0  0  0  0  0  0  0  0  0  0  0
    9.0506    3.6372    2.0113 C   0  0  1  0  0  0  0  0  0  0  0  0
    6.5186    5.9912   -0.6716 C   0  0  1  0  0  0  0  0  0  0  0  0
    7.6115   -0.9101    5.2764 C   0  0  2  0  0  0  0  0  0  0  0  0
    8.2431   -2.1382    4.7631 N   0  0  0  0  0  0  0  0  0  0  0  0
   12.4253    2.2811    6.0390 C   0  0  0  0  0  0  0  0  0  0  0  0
    9.1083    3.4614    0.4632 C   0  0  2  0  0  0  0  0  0  0  0  0
   10.2357    4.1214   -0.1632 O   0  0  0  0  0  0  0  0  0  0  0  0
    6.0739    5.5392   -2.1092 C   0  0  2  0  0  0  0  0  0  0  0  0
    7.1488    5.8106   -3.1101 N   0  0  0  0  0  0  0  0  0  0  0  0
    6.5809   -0.4659    4.2221 C   0  0  1  0  0  0  0  0  0  0  0  0
    5.6268   -1.5038    3.9912 O   0  0  0  0  0  0  0  0  0  0  0  0
   11.2442    1.2440    5.9298 C   0  0  2  0  0  0  0  0  0  0  0  0
   11.7317   -0.1291    6.2308 N   0  0  0  0  0  0  0  0  0  0  0  0
    7.7279    3.9775    0.0541 C   0  0  2  0  0  0  0  0  0  0  0  0
    7.7500    5.4148   -0.2189 O   0  0  0  0  0  0  0  0  0  0  0  0
    4.7163    6.2927   -2.5041 C   0  0  1  0  0  0  0  0  0  0  0  0
    3.6257    5.7156   -1.7515 O   0  0  0  0  0  0  0  0  0  0  0  0
    5.8947    0.8380    4.6892 C   0  0  2  0  0  0  0  0  0  0  0  0
    4.9360    1.2489    3.7424 O   0  0  0  0  0  0  0  0  0  0  0  0
   10.6072    1.2754    4.4844 C   0  0  2  0  0  0  0  0  0  0  0  0
    6.7869    3.6471    1.2249 C   0  0  2  0  0  0  0  0  0  0  0  0
    7.6489    3.7148    2.3584 O   0  0  0  0  0  0  0  0  0  0  0  0
    4.7790    7.8706   -2.2323 C   0  0  2  0  0  0  0  0  0  0  0  0
    5.6912    8.4342   -3.1740 O   0  0  0  0  0  0  0  0  0  0  0  0
    6.9834    1.9443    4.8898 C   0  0  2  0  0  0  0  0  0  0  0  0
    7.9712    1.4906    5.8688 O   0  0  0  0  0  0  0  0  0  0  0  0
   10.0892    2.6754    4.0885 C   0  0  2  0  0  0  0  0  0  0  0  0
    9.7160    2.5625    2.6876 O   0  0  0  0  0  0  0  0  0  0  0  0
    6.0871    2.2557    1.1343 C   0  0  0  0  0  0  0  0  0  0  0  0
    5.3012    2.2007   -0.0524 O   0  0  0  0  0  0  0  0  0  0  0  0
    5.2637    8.1625   -0.7619 C   0  0  1  0  0  0  0  0  0  0  0  0
    6.5741    7.5037   -0.6246 O   0  0  0  0  0  0  0  0  0  0  0  0
    6.3987    3.2580    5.3547 C   0  0  0  0  0  0  0  0  0  0  0  0
    7.4239    4.1993    5.5603 O   0  0  0  0  0  0  0  0  0  0  0  0
   11.2323    3.7581    4.2802 C   0  0  1  0  0  0  0  0  0  0  0  0
   10.7102    5.0713    4.0596 O   0  0  0  0  0  0  0  0  0  0  0  0
    5.3874    9.7097   -0.4159 C   0  0  0  0  0  0  0  0  0  0  0  0
    6.3475   10.4802   -1.2532 N   0  0  0  0  0  0  0  0  0  0  0  0
  1  2  1  6  0  0  0
  1  7  1  0  0  0  0
  1 30  1  0  0  0  0
  3  4  1  6  0  0  0
  3  9  1  0  0  0  0
  3 39  1  0  0  0  0
  5 10  1  0  0  0  0
  5 26  1  0  0  0  0
  5 32  1  1  0  0  0
  6 12  1  0  0  0  0
  6 36  1  0  0  0  0
  6 19  1  6  0  0  0
  7  8  1  6  0  0  0
  7 14  1  0  0  0  0
  9 16  1  0  0  0  0
 10 11  1  6  0  0  0
 10 18  1  0  0  0  0
 12 13  1  6  0  0  0
 12 20  1  0  0  0  0
 14 15  1  1  0  0  0
 14 22  1  0  0  0  0
 16 17  1  6  0  0  0
 16 24  1  0  0  0  0
 18 19  1  1  0  0  0
 18 25  1  0  0  0  0
 20 21  1  1  0  0  0
 20 27  1  0  0  0  0
 22 23  1  6  0  0  0
 22 29  1  0  0  0  0
 24  2  1  1  0  0  0
 24 31  1  0  0  0  0
 25 26  1  0  0  0  0
 25 33  1  6  0  0  0
 27 28  1  6  0  0  0
 27 35  1  0  0  0  0
 29 30  1  0  0  0  0
 29 37  1  1  0  0  0
 31 32  1  6  0  0  0
 31 39  1  0  0  0  0
 33 34  1  0  0  0  0
 35 36  1  0  0  0  0
 35 41  1  6  0  0  0
 37 38  1  0  0  0  0
 39 40  1  1  0  0  0
 41 42  1  0  0  0  0
M  END
>  <CHROM.1>
-177.28959502,164.11634691,-68.43445057,177.21036605,37.89712759,-60.00970643
178.07239878,173.07916110,-60.46047870,7.83513432,3.57368676,2.26527513,1.13768115
0.51510536,2.52989783

>  <Name>
2o3w_lig

>  <RI>
0

>  <Rbt.Current_Directory>
/home/itssahil/PROJECTS/Mol_Feturizer/New_Systems/rnas/2o3w

>  <Rbt.Executable>
rbdock ($Id: //depot/dev/client3/rdock/2013.1/src/exe/rbdock.cxx#4 $)

>  <Rbt.Library>
libRbt.so (2013.1, Build901 2013/11/27)

>  <Rbt.Parameter_File>
/export/apps/rDock/src/rDock_2013.1_src/data/scripts/dock_solv.prm

>  <Rbt.Receptor>
prm/pocket_docking_5.prm

>  <SCORE>
-18.9532

>  <SCORE.INTER>
-6.54307

>  <SCORE.INTER.CONST>
1

>  <SCORE.INTER.POLAR>
-1

>  <SCORE.INTER.ROT>
9

>  <SCORE.INTER.SOLV>
11.1032

>  <SCORE.INTER.VDW>
-14.3298

>  <SCORE.INTER.norm>
-0.155787

>  <SCORE.INTRA>
-12.4101

>  <SCORE.INTRA.DIHEDRAL>
-23.7824

>  <SCORE.INTRA.DIHEDRAL.0>
27.8999

>  <SCORE.INTRA.POLAR>
0

>  <SCORE.INTRA.POLAR.0>
0

>  <SCORE.INTRA.REPUL>
0

>  <SCORE.INTRA.REPUL.0>
0

>  <SCORE.INTRA.SOLV>
-2.17062

>  <SCORE.INTRA.SOLV.lig_0>
-104.479

>  <SCORE.INTRA.VDW>
0.566432

>  <SCORE.INTRA.VDW.0>
-6.17816

>  <SCORE.INTRA.norm>
-0.295478

>  <SCORE.RESTR>
0

>  <SCORE.RESTR.CAVITY>
0

>  <SCORE.RESTR.norm>
0

>  <SCORE.SYSTEM>
0

>  <SCORE.SYSTEM.CONST>
0

>  <SCORE.SYSTEM.DIHEDRAL>
0

>  <SCORE.SYSTEM.SOLV>
0

>  <SCORE.SYSTEM.norm>
0

>  <SCORE.heavy>
42

>  <SCORE.norm>
-0.451266

>  <RMSD>
3.609

$$$$
2o3w_lig
 OpenBabel11021811463D
libRbt.so/2013.1/901 2013/11/27
 42 45  0  0  0  0  0  0  0  0999 V2000
    6.7918    0.5290    3.0598 C   0  0  2  0  0  0  0  0  0  0  0  0
    5.7941    1.3803    3.6490 O   0  0  0  0  0  0  0  0  0  0  0  0
    5.8200    5.1074    5.8635 C   0  0  2  0  0  0  0  0  0  0  0  0
    6.1072    6.5068    6.2990 N   0  0  0  0  0  0  0  0  0  0  0  0
    5.4256    4.4345    1.5318 C   0  0  1  0  0  0  0  0  0  0  0  0
    6.9285    6.4049   -0.8224 C   0  0  1  0  0  0  0  0  0  0  0  0
    6.0346   -0.5779    2.2664 C   0  0  2  0  0  0  0  0  0  0  0  0
    5.0042   -0.0245    1.3705 N   0  0  0  0  0  0  0  0  0  0  0  0
    7.1218    4.2107    5.9182 C   0  0  0  0  0  0  0  0  0  0  0  0
    6.8604    3.8390    1.3993 C   0  0  2  0  0  0  0  0  0  0  0  0
    7.8239    4.4135    2.3162 O   0  0  0  0  0  0  0  0  0  0  0  0
    7.6676    7.4992   -1.6739 C   0  0  2  0  0  0  0  0  0  0  0  0
    8.7933    8.1056   -0.9017 N   0  0  0  0  0  0  0  0  0  0  0  0
    5.3248   -1.5804    3.1949 C   0  0  1  0  0  0  0  0  0  0  0  0
    4.6785   -2.5975    2.4276 O   0  0  0  0  0  0  0  0  0  0  0  0
    6.7517    2.7460    5.4708 C   0  0  2  0  0  0  0  0  0  0  0  0
    7.9528    1.8695    5.5243 N   0  0  0  0  0  0  0  0  0  0  0  0
    7.1414    4.0690   -0.0864 C   0  0  2  0  0  0  0  0  0  0  0  0
    7.7775    5.3659   -0.3193 O   0  0  0  0  0  0  0  0  0  0  0  0
    6.6135    8.6170   -2.1281 C   0  0  1  0  0  0  0  0  0  0  0  0
    5.7713    8.0700   -3.1676 O   0  0  0  0  0  0  0  0  0  0  0  0
    6.3498   -2.1837    4.1821 C   0  0  2  0  0  0  0  0  0  0  0  0
    5.7189   -3.1164    5.0285 O   0  0  0  0  0  0  0  0  0  0  0  0
    6.1588    2.7440    4.0064 C   0  0  2  0  0  0  0  0  0  0  0  0
    5.7790    3.9814   -0.7946 C   0  0  2  0  0  0  0  0  0  0  0  0
    4.8708    4.4559    0.1966 O   0  0  0  0  0  0  0  0  0  0  0  0
    5.7013    9.1397   -0.9189 C   0  0  2  0  0  0  0  0  0  0  0  0
    6.5386    9.8909   -0.0409 O   0  0  0  0  0  0  0  0  0  0  0  0
    6.9961   -1.0282    5.0167 C   0  0  2  0  0  0  0  0  0  0  0  0
    7.6357   -0.0691    4.1162 O   0  0  0  0  0  0  0  0  0  0  0  0
    4.9137    3.6464    3.8632 C   0  0  2  0  0  0  0  0  0  0  0  0
    4.6208    3.6701    2.4391 O   0  0  0  0  0  0  0  0  0  0  0  0
    5.3815    2.5537   -1.2826 C   0  0  0  0  0  0  0  0  0  0  0  0
    4.1722    2.6322   -2.0311 O   0  0  0  0  0  0  0  0  0  0  0  0
    5.0514    7.9284   -0.1490 C   0  0  1  0  0  0  0  0  0  0  0  0
    6.1701    7.0815    0.3001 O   0  0  0  0  0  0  0  0  0  0  0  0
    8.0206   -1.5295    6.0081 C   0  0  0  0  0  0  0  0  0  0  0  0
    9.0704   -2.1794    5.3336 O   0  0  0  0  0  0  0  0  0  0  0  0
    5.2296    5.1064    4.3965 C   0  0  1  0  0  0  0  0  0  0  0  0
    4.0380    5.8972    4.4050 O   0  0  0  0  0  0  0  0  0  0  0  0
    4.1535    8.3564    1.0917 C   0  0  0  0  0  0  0  0  0  0  0  0
    2.9033    9.0918    0.7563 N   0  0  0  0  0  0  0  0  0  0  0  0
  1  2  1  1  0  0  0
  1  7  1  0  0  0  0
  1 30  1  0  0  0  0
  3  4  1  6  0  0  0
  3  9  1  0  0  0  0
  3 39  1  0  0  0  0
  5 10  1  0  0  0  0
  5 26  1  0  0  0  0
  5 32  1  1  0  0  0
  6 12  1  0  0  0  0
  6 36  1  0  0  0  0
  6 19  1  1  0  0  0
  7  8  1  6  0  0  0
  7 14  1  0  0  0  0
  9 16  1  0  0  0  0
 10 11  1  1  0  0  0
 10 18  1  0  0  0  0
 12 13  1  1  0  0  0
 12 20  1  0  0  0  0
 14 15  1  6  0  0  0
 14 22  1  0  0  0  0
 16 17  1  6  0  0  0
 16 24  1  0  0  0  0
 18 19  1  1  0  0  0
 18 25  1  0  0  0  0
 20 21  1  6  0  0  0
 20 27  1  0  0  0  0
 22 23  1  1  0  0  0
 22 29  1  0  0  0  0
 24  2  1  1  0  0  0
 24 31  1  0  0  0  0
 25 26  1  0  0  0  0
 25 33  1  1  0  0  0
 27 28  1  1  0  0  0
 27 35  1  0  0  0  0
 29 30  1  0  0  0  0
 29 37  1  1  0  0  0
 31 32  1  6  0  0  0
 31 39  1  0  0  0  0
 33 34  1  0  0  0  0
 35 36  1  0  0  0  0
 35 41  1  1  0  0  0
 37 38  1  0  0  0  0
 39 40  1  1  0  0  0
 41 42  1  0  0  0  0
M  END
>  <CHROM.1>
-156.94130427,68.09942883,-152.59588160,-102.39054359,-87.57637105,-174.33323913
60.91644991,-74.73349332,67.20735677,6.12909643,3.65463242,2.06251916,0.71231718
1.48182382,-2.80654096

>  <Name>
2o3w_lig

>  <RI>
0

>  <Rbt.Current_Directory>
/home/itssahil/PROJECTS/Mol_Feturizer/New_Systems/rnas/2o3w

>  <Rbt.Executable>
rbdock ($Id: //depot/dev/client3/rdock/2013.1/src/exe/rbdock.cxx#4 $)

>  <Rbt.Library>
libRbt.so (2013.1, Build901 2013/11/27)

>  <Rbt.Parameter_File>
/export/apps/rDock/src/rDock_2013.1_src/data/scripts/dock_solv.prm

>  <Rbt.Receptor>
prm/pocket_docking_5.prm

>  <SCORE>
-14.4804

>  <SCORE.INTER>
-12.2664

>  <SCORE.INTER.CONST>
1

>  <SCORE.INTER.POLAR>
-2.75352

>  <SCORE.INTER.ROT>
9

>  <SCORE.INTER.SOLV>
13.3727

>  <SCORE.INTER.VDW>
-13.0568

>  <SCORE.INTER.norm>
-0.292057

>  <SCORE.INTRA>
-2.21403

>  <SCORE.INTRA.DIHEDRAL>
-11.8599

>  <SCORE.INTRA.DIHEDRAL.0>
27.8999

>  <SCORE.INTRA.POLAR>
0

>  <SCORE.INTRA.POLAR.0>
0

>  <SCORE.INTRA.REPUL>
0

>  <SCORE.INTRA.REPUL.0>
0

>  <SCORE.INTRA.SOLV>
0.0830389

>  <SCORE.INTRA.SOLV.lig_0>
-104.479

>  <SCORE.INTRA.VDW>
3.67439

>  <SCORE.INTRA.VDW.0>
-6.17816

>  <SCORE.INTRA.norm>
-0.0527151

>  <SCORE.RESTR>
0

>  <SCORE.RESTR.CAVITY>
0

>  <SCORE.RESTR.norm>
0

>  <SCORE.SYSTEM>
0

>  <SCORE.SYSTEM.CONST>
0

>  <SCORE.SYSTEM.DIHEDRAL>
0

>  <SCORE.SYSTEM.SOLV>
0

>  <SCORE.SYSTEM.norm>
0

>  <SCORE.heavy>
42

>  <SCORE.norm>
-0.344772

>  <RMSD>
3.627

$$$$
2o3w_lig
 OpenBabel11021811463D
libRbt.so/2013.1/901 2013/11/27
 42 45  0  0  0  0  0  0  0  0999 V2000
    8.8684    1.3680    2.6913 C   0  0  2  0  0  0  0  0  0  0  0  0
    9.2981    1.8556    3.9739 O   0  0  0  0  0  0  0  0  0  0  0  0
   11.4244    5.4627    5.0981 C   0  0  2  0  0  0  0  0  0  0  0  0
   12.4548    6.5388    5.2000 N   0  0  0  0  0  0  0  0  0  0  0  0
    9.1711    4.8805    1.1068 C   0  0  1  0  0  0  0  0  0  0  0  0
    7.2134    7.0179   -2.1111 C   0  0  1  0  0  0  0  0  0  0  0  0
    7.6308    0.4552    2.9429 C   0  0  2  0  0  0  0  0  0  0  0  0
    6.6169    1.1020    3.7940 N   0  0  0  0  0  0  0  0  0  0  0  0
   11.9794    4.0835    5.6381 C   0  0  0  0  0  0  0  0  0  0  0  0
    9.4937    4.5301   -0.3777 C   0  0  2  0  0  0  0  0  0  0  0  0
   10.7425    5.0869   -0.8568 O   0  0  0  0  0  0  0  0  0  0  0  0
    7.3606    7.2945   -3.6508 C   0  0  2  0  0  0  0  0  0  0  0  0
    8.5606    8.1392   -3.9287 N   0  0  0  0  0  0  0  0  0  0  0  0
    8.0112   -0.8682    3.6319 C   0  0  1  0  0  0  0  0  0  0  0  0
    6.8546   -1.6885    3.8064 O   0  0  0  0  0  0  0  0  0  0  0  0
   10.8437    2.9972    5.5259 C   0  0  2  0  0  0  0  0  0  0  0  0
   11.3277    1.6876    6.0399 N   0  0  0  0  0  0  0  0  0  0  0  0
    8.2318    5.0310   -1.0821 C   0  0  2  0  0  0  0  0  0  0  0  0
    8.3661    6.4274   -1.4979 O   0  0  0  0  0  0  0  0  0  0  0  0
    6.0254    7.9955   -4.1920 C   0  0  1  0  0  0  0  0  0  0  0  0
    4.9710    7.0089   -4.2518 O   0  0  0  0  0  0  0  0  0  0  0  0
    9.0948   -1.5903    2.7991 C   0  0  2  0  0  0  0  0  0  0  0  0
    9.4421   -2.8122    3.4079 O   0  0  0  0  0  0  0  0  0  0  0  0
   10.3726    2.8369    4.0264 C   0  0  2  0  0  0  0  0  0  0  0  0
    7.0849    4.8582   -0.0720 C   0  0  2  0  0  0  0  0  0  0  0  0
    7.7351    5.0317    1.1848 O   0  0  0  0  0  0  0  0  0  0  0  0
    5.5562    9.2270   -3.2805 C   0  0  2  0  0  0  0  0  0  0  0  0
    6.5076   10.2767   -3.4514 O   0  0  0  0  0  0  0  0  0  0  0  0
   10.3467   -0.6594    2.6735 C   0  0  2  0  0  0  0  0  0  0  0  0
    9.9590    0.6048    2.0480 O   0  0  0  0  0  0  0  0  0  0  0  0
    9.8684    4.1612    3.4122 C   0  0  2  0  0  0  0  0  0  0  0  0
    9.6578    3.8727    2.0027 O   0  0  0  0  0  0  0  0  0  0  0  0
    6.3506    3.4833   -0.1390 C   0  0  0  0  0  0  0  0  0  0  0  0
    5.7354    3.3402   -1.4157 O   0  0  0  0  0  0  0  0  0  0  0  0
    5.4810    8.8004   -1.7657 C   0  0  1  0  0  0  0  0  0  0  0  0
    6.8225    8.3038   -1.4135 O   0  0  0  0  0  0  0  0  0  0  0  0
   11.4588   -1.2866    1.8649 C   0  0  0  0  0  0  0  0  0  0  0  0
   12.5850   -0.4435    1.8537 O   0  0  0  0  0  0  0  0  0  0  0  0
   10.9560    5.3009    3.5964 C   0  0  1  0  0  0  0  0  0  0  0  0
   10.4301    6.5591    3.1652 O   0  0  0  0  0  0  0  0  0  0  0  0
    5.0541    9.9750   -0.7825 C   0  0  0  0  0  0  0  0  0  0  0  0
    6.1201   10.9639   -0.4624 N   0  0  0  0  0  0  0  0  0  0  0  0
  1  2  1  1  0  0  0
  1  7  1  0  0  0  0
  1 30  1  0  0  0  0
  3  4  1  6  0  0  0
  3  9  1  0  0  0  0
  3 39  1  0  0  0  0
  5 10  1  0  0  0  0
  5 26  1  0  0  0  0
  5 32  1  1  0  0  0
  6 12  1  0  0  0  0
  6 36  1  0  0  0  0
  6 19  1  1  0  0  0
  7  8  1  1  0  0  0
  7 14  1  0  0  0  0
  9 16  1  0  0  0  0
 10 11  1  6  0  0  0
 10 18  1  0  0  0  0
 12 13  1  1  0  0  0
 12 20  1  0  0  0  0
 14 15  1  6  0  0  0
 14 22  1  0  0  0  0
 16 17  1  6  0  0  0
 16 24  1  0  0  0  0
 18 19  1  1  0  0  0
 18 25  1  0  0  0  0
 20 21  1  1  0  0  0
 20 27  1  0  0  0  0
 22 23  1  1  0  0  0
 22 29  1  0  0  0  0
 24  2  1  1  0  0  0
 24 31  1  0  0  0  0
 25 26  1  0  0  0  0
 25 33  1  1  0  0  0
 27 28  1  1  0  0  0
 27 35  1  0  0  0  0
 29 30  1  0  0  0  0
 29 37  1  6  0  0  0
 31 32  1  6  0  0  0
 31 39  1  0  0  0  0
 33 34  1  0  0  0  0
 35 36  1  0  0  0  0
 35 41  1  1  0  0  0
 37 38  1  0  0  0  0
 39 40  1  1  0  0  0
 41 42  1  0  0  0  0
M  END
>  <CHROM.1>
-174.48428680,159.88966859,-109.42704347,-177.05603189,-169.14687846,-62.54287324
-176.41520088,179.38826984,-77.17236720,8.61658033,4.20218230,1.09007374
1.01362930,0.89628767,2.92520248

>  <Name>
2o3w_lig

>  <RI>
0

>  <Rbt.Current_Directory>
/home/itssahil/PROJECTS/Mol_Feturizer/New_Systems/rnas/2o3w

>  <Rbt.Executable>
rbdock ($Id: //depot/dev/client3/rdock/2013.1/src/exe/rbdock.cxx#4 $)

>  <Rbt.Library>
libRbt.so (2013.1, Build901 2013/11/27)

>  <Rbt.Parameter_File>
/export/apps/rDock/src/rDock_2013.1_src/data/scripts/dock_solv.prm

>  <Rbt.Receptor>
prm/pocket_docking_8.prm

>  <SCORE>
-20.8598

>  <SCORE.INTER>
-11.9846

>  <SCORE.INTER.CONST>
1

>  <SCORE.INTER.POLAR>
-1.93909

>  <SCORE.INTER.ROT>
9

>  <SCORE.INTER.SOLV>
19.1398

>  <SCORE.INTER.VDW>
-17.5061

>  <SCORE.INTER.norm>
-0.285348

>  <SCORE.INTRA>
-8.87521

>  <SCORE.INTRA.DIHEDRAL>
-17.5547

>  <SCORE.INTRA.DIHEDRAL.0>
27.8999

>  <SCORE.INTRA.POLAR>
0

>  <SCORE.INTRA.POLAR.0>
0

>  <SCORE.INTRA.REPUL>
0

>  <SCORE.INTRA.REPUL.0>
0

>  <SCORE.INTRA.SOLV>
-5.01239

>  <SCORE.INTRA.SOLV.lig_0>
-104.479

>  <SCORE.INTRA.VDW>
2.40835

>  <SCORE.INTRA.VDW.0>
-6.17816

>  <SCORE.INTRA.norm>
-0.211315

>  <SCORE.RESTR>
0

>  <SCORE.RESTR.CAVITY>
0

>  <SCORE.RESTR.norm>
0

>  <SCORE.SYSTEM>
0

>  <SCORE.SYSTEM.CONST>
0

>  <SCORE.SYSTEM.DIHEDRAL>
0

>  <SCORE.SYSTEM.SOLV>
0

>  <SCORE.SYSTEM.norm>
0

>  <SCORE.heavy>
42

>  <SCORE.norm>
-0.496663

>  <RMSD>
3.629

$$$$
2o3w_lig
 OpenBabel11021811463D
libRbt.so/2013.1/901 2013/11/27
 42 45  0  0  0  0  0  0  0  0999 V2000
    7.4898   -0.4159    4.3246 C   0  0  2  0  0  0  0  0  0  0  0  0
    7.8633    0.7577    3.5828 O   0  0  0  0  0  0  0  0  0  0  0  0
    7.2989    3.6448    6.7674 C   0  0  2  0  0  0  0  0  0  0  0  0
    7.2199    4.9206    7.5397 N   0  0  0  0  0  0  0  0  0  0  0  0
    5.8439    3.8079    2.6316 C   0  0  1  0  0  0  0  0  0  0  0  0
    6.6069    6.7687   -0.4556 C   0  0  1  0  0  0  0  0  0  0  0  0
    7.7060   -1.6379    3.3821 C   0  0  2  0  0  0  0  0  0  0  0  0
    9.0367   -1.6336    2.7497 N   0  0  0  0  0  0  0  0  0  0  0  0
    8.7797    3.3496    6.2966 C   0  0  0  0  0  0  0  0  0  0  0  0
    7.2379    3.8935    1.9387 C   0  0  2  0  0  0  0  0  0  0  0  0
    8.2493    4.5641    2.7303 O   0  0  0  0  0  0  0  0  0  0  0  0
    7.7851    6.9717   -1.4750 C   0  0  2  0  0  0  0  0  0  0  0  0
    8.9585    7.6163   -0.8127 N   0  0  0  0  0  0  0  0  0  0  0  0
    6.6720   -1.6869    2.2422 C   0  0  1  0  0  0  0  0  0  0  0  0
    6.8831   -2.8419    1.4285 O   0  0  0  0  0  0  0  0  0  0  0  0
    8.8025    1.9848    5.5097 C   0  0  2  0  0  0  0  0  0  0  0  0
   10.1860    1.6679    5.0634 N   0  0  0  0  0  0  0  0  0  0  0  0
    6.8720    4.5732    0.6183 C   0  0  2  0  0  0  0  0  0  0  0  0
    6.9567    6.0303    0.7217 O   0  0  0  0  0  0  0  0  0  0  0  0
    7.2687    7.8492   -2.7120 C   0  0  1  0  0  0  0  0  0  0  0  0
    6.4095    7.0320   -3.5382 O   0  0  0  0  0  0  0  0  0  0  0  0
    5.2461   -1.6695    2.8385 C   0  0  2  0  0  0  0  0  0  0  0  0
    4.2874   -1.7308    1.8081 O   0  0  0  0  0  0  0  0  0  0  0  0
    7.8428    2.0485    4.2564 C   0  0  2  0  0  0  0  0  0  0  0  0
    5.4393    4.1202    0.2904 C   0  0  2  0  0  0  0  0  0  0  0  0
    4.8599    3.9299    1.5790 O   0  0  0  0  0  0  0  0  0  0  0  0
    6.4779    9.1653   -2.2538 C   0  0  2  0  0  0  0  0  0  0  0  0
    7.4254   10.0534   -1.6622 O   0  0  0  0  0  0  0  0  0  0  0  0
    5.0634   -0.3672    3.6871 C   0  0  2  0  0  0  0  0  0  0  0  0
    6.0749   -0.3220    4.7429 O   0  0  0  0  0  0  0  0  0  0  0  0
    6.3849    2.3896    4.6353 C   0  0  2  0  0  0  0  0  0  0  0  0
    5.6975    2.5874    3.3692 O   0  0  0  0  0  0  0  0  0  0  0  0
    5.3401    2.8205   -0.5670 C   0  0  0  0  0  0  0  0  0  0  0  0
    5.8994    3.0624   -1.8545 O   0  0  0  0  0  0  0  0  0  0  0  0
    5.3489    8.8025   -1.2165 C   0  0  1  0  0  0  0  0  0  0  0  0
    6.0240    8.1201   -0.0990 O   0  0  0  0  0  0  0  0  0  0  0  0
    3.6926   -0.2704    4.3159 C   0  0  0  0  0  0  0  0  0  0  0  0
    2.7035   -0.2170    3.3169 O   0  0  0  0  0  0  0  0  0  0  0  0
    6.3402    3.7109    5.5116 C   0  0  1  0  0  0  0  0  0  0  0  0
    5.0117    3.9423    5.9881 O   0  0  0  0  0  0  0  0  0  0  0  0
    4.5332   10.0583   -0.6814 C   0  0  0  0  0  0  0  0  0  0  0  0
    3.7311   10.7858   -1.7031 N   0  0  0  0  0  0  0  0  0  0  0  0
  1  2  1  6  0  0  0
  1  7  1  0  0  0  0
  1 30  1  0  0  0  0
  3  4  1  6  0  0  0
  3  9  1  0  0  0  0
  3 39  1  0  0  0  0
  5 10  1  0  0  0  0
  5 26  1  0  0  0  0
  5 32  1  6  0  0  0
  6 12  1  0  0  0  0
  6 36  1  0  0  0  0
  6 19  1  1  0  0  0
  7  8  1  6  0  0  0
  7 14  1  0  0  0  0
  9 16  1  0  0  0  0
 10 11  1  1  0  0  0
 10 18  1  0  0  0  0
 12 13  1  1  0  0  0
 12 20  1  0  0  0  0
 14 15  1  1  0  0  0
 14 22  1  0  0  0  0
 16 17  1  6  0  0  0
 16 24  1  0  0  0  0
 18 19  1  1  0  0  0
 18 25  1  0  0  0  0
 20 21  1  6  0  0  0
 20 27  1  0  0  0  0
 22 23  1  6  0  0  0
 22 29  1  0  0  0  0
 24  2  1  1  0  0  0
 24 31  1  0  0  0  0
 25 26  1  0  0  0  0
 25 33  1  6  0  0  0
 27 28  1  1  0  0  0
 27 35  1  0  0  0  0
 29 30  1  0  0  0  0
 29 37  1  1  0  0  0
 31 32  1  6  0  0  0
 31 39  1  0  0  0  0
 33 34  1  0  0  0  0
 35 36  1  0  0  0  0
 35 41  1  1  0  0  0
 37 38  1  0  0  0  0
 39 40  1  1  0  0  0
 41 42  1  0  0  0  0
M  END
>  <CHROM.1>
-176.02124767,74.18449884,-85.95764754,-178.78570299,58.00011929,-64.94311197
-62.20459915,-78.13861800,64.56009383,6.48359609,3.51981586,1.99583837,-1.47666437
-1.25504654,-0.48215152

>  <Name>
2o3w_lig

>  <RI>
0

>  <Rbt.Current_Directory>
/home/itssahil/PROJECTS/Mol_Feturizer/New_Systems/rnas/2o3w

>  <Rbt.Executable>
rbdock ($Id: //depot/dev/client3/rdock/2013.1/src/exe/rbdock.cxx#4 $)

>  <Rbt.Library>
libRbt.so (2013.1, Build901 2013/11/27)

>  <Rbt.Parameter_File>
/export/apps/rDock/src/rDock_2013.1_src/data/scripts/dock_solv.prm

>  <Rbt.Receptor>
prm/pocket_docking_8.prm

>  <SCORE>
-18.1432

>  <SCORE.INTER>
-7.83441

>  <SCORE.INTER.CONST>
1

>  <SCORE.INTER.POLAR>
-1.9798

>  <SCORE.INTER.ROT>
9

>  <SCORE.INTER.SOLV>
11.4508

>  <SCORE.INTER.VDW>
-12.0406

>  <SCORE.INTER.norm>
-0.186534

>  <SCORE.INTRA>
-10.3088

>  <SCORE.INTRA.DIHEDRAL>
-22.2098

>  <SCORE.INTRA.DIHEDRAL.0>
27.8999

>  <SCORE.INTRA.POLAR>
0

>  <SCORE.INTRA.POLAR.0>
0

>  <SCORE.INTRA.REPUL>
0

>  <SCORE.INTRA.REPUL.0>
0

>  <SCORE.INTRA.SOLV>
-4.2145

>  <SCORE.INTRA.SOLV.lig_0>
-104.479

>  <SCORE.INTRA.VDW>
2.90332

>  <SCORE.INTRA.VDW.0>
-6.17816

>  <SCORE.INTRA.norm>
-0.245448

>  <SCORE.RESTR>
0

>  <SCORE.RESTR.CAVITY>
0

>  <SCORE.RESTR.norm>
0

>  <SCORE.SYSTEM>
0

>  <SCORE.SYSTEM.CONST>
0

>  <SCORE.SYSTEM.DIHEDRAL>
0

>  <SCORE.SYSTEM.SOLV>
0

>  <SCORE.SYSTEM.norm>
0

>  <SCORE.heavy>
42

>  <SCORE.norm>
-0.431982

>  <RMSD>
3.667

$$$$
2o3w_lig
 OpenBabel11021811463D
libRbt.so/2013.1/901 2013/11/27
 42 45  0  0  0  0  0  0  0  0999 V2000
    7.4518    0.3162    4.0247 C   0  0  2  0  0  0  0  0  0  0  0  0
    8.6723    0.8988    3.5366 O   0  0  0  0  0  0  0  0  0  0  0  0
    9.7121    3.1216    7.1107 C   0  0  2  0  0  0  0  0  0  0  0  0
   10.4184    4.0013    8.0894 N   0  0  0  0  0  0  0  0  0  0  0  0
    7.4533    4.4742    3.0112 C   0  0  1  0  0  0  0  0  0  0  0  0
    4.6047    7.7415    2.1516 C   0  0  1  0  0  0  0  0  0  0  0  0
    7.1293   -0.9006    3.1063 C   0  0  2  0  0  0  0  0  0  0  0  0
    8.2846   -1.7985    2.9336 N   0  0  0  0  0  0  0  0  0  0  0  0
   10.5728    1.8403    6.7654 C   0  0  0  0  0  0  0  0  0  0  0  0
    7.1091    5.6055    4.0273 C   0  0  2  0  0  0  0  0  0  0  0  0
    6.1693    5.2079    5.0558 O   0  0  0  0  0  0  0  0  0  0  0  0
    3.0369    7.6991    2.0568 C   0  0  2  0  0  0  0  0  0  0  0  0
    2.5740    6.4178    1.4445 N   0  0  0  0  0  0  0  0  0  0  0  0
    6.6879   -0.4675    1.6961 C   0  0  1  0  0  0  0  0  0  0  0  0
    6.3650   -1.6110    0.9029 O   0  0  0  0  0  0  0  0  0  0  0  0
    9.7684    0.9438    5.7497 C   0  0  2  0  0  0  0  0  0  0  0  0
   10.5441   -0.2805    5.4132 N   0  0  0  0  0  0  0  0  0  0  0  0
    6.6326    6.7141    3.0875 C   0  0  2  0  0  0  0  0  0  0  0  0
    5.1904    6.6375    2.8528 O   0  0  0  0  0  0  0  0  0  0  0  0
    2.5241    8.9594    1.2109 C   0  0  1  0  0  0  0  0  0  0  0  0
    2.6573   10.1501    2.0193 O   0  0  0  0  0  0  0  0  0  0  0  0
    5.4877    0.5003    1.8061 C   0  0  2  0  0  0  0  0  0  0  0  0
    5.0608    0.8932    0.5224 O   0  0  0  0  0  0  0  0  0  0  0  0
    9.4488    1.7487    4.4283 C   0  0  2  0  0  0  0  0  0  0  0  0
    7.4206    6.5297    1.7797 C   0  0  2  0  0  0  0  0  0  0  0  0
    7.6371    5.1214    1.7311 O   0  0  0  0  0  0  0  0  0  0  0  0
    3.3240    9.1528   -0.1640 C   0  0  2  0  0  0  0  0  0  0  0  0
    2.9631    8.0757   -1.0277 O   0  0  0  0  0  0  0  0  0  0  0  0
    5.9124    1.7461    2.6530 C   0  0  2  0  0  0  0  0  0  0  0  0
    6.3601    1.3119    3.9762 O   0  0  0  0  0  0  0  0  0  0  0  0
    8.6560    3.0470    4.6949 C   0  0  2  0  0  0  0  0  0  0  0  0
    8.6152    3.7389    3.4166 O   0  0  0  0  0  0  0  0  0  0  0  0
    8.7710    7.3079    1.7097 C   0  0  0  0  0  0  0  0  0  0  0  0
    9.3847    7.0725    0.4460 O   0  0  0  0  0  0  0  0  0  0  0  0
    4.8785    9.1490    0.0921 C   0  0  1  0  0  0  0  0  0  0  0  0
    5.1806    7.8695    0.7570 O   0  0  0  0  0  0  0  0  0  0  0  0
    4.7919    2.7467    2.8175 C   0  0  0  0  0  0  0  0  0  0  0  0
    3.6973    2.1466    3.4663 O   0  0  0  0  0  0  0  0  0  0  0  0
    9.3956    3.9274    5.7874 C   0  0  1  0  0  0  0  0  0  0  0  0
    8.5878    5.0525    6.1439 O   0  0  0  0  0  0  0  0  0  0  0  0
    5.7526    9.3024   -1.2275 C   0  0  0  0  0  0  0  0  0  0  0  0
    5.4492   10.4964   -2.0635 N   0  0  0  0  0  0  0  0  0  0  0  0
  1  2  1  6  0  0  0
  1  7  1  0  0  0  0
  1 30  1  0  0  0  0
  3  4  1  1  0  0  0
  3  9  1  0  0  0  0
  3 39  1  0  0  0  0
  5 10  1  0  0  0  0
  5 26  1  0  0  0  0
  5 32  1  1  0  0  0
  6 12  1  0  0  0  0
  6 36  1  0  0  0  0
  6 19  1  6  0  0  0
  7  8  1  6  0  0  0
  7 14  1  0  0  0  0
  9 16  1  0  0  0  0
 10 11  1  1  0  0  0
 10 18  1  0  0  0  0
 12 13  1  6  0  0  0
 12 20  1  0  0  0  0
 14 15  1  6  0  0  0
 14 22  1  0  0  0  0
 16 17  1  6  0  0  0
 16 24  1  0  0  0  0
 18 19  1  6  0  0  0
 18 25  1  0  0  0  0
 20 21  1  1  0  0  0
 20 27  1  0  0  0  0
 22 23  1  6  0  0  0
 22 29  1  0  0  0  0
 24  2  1  6  0  0  0
 24 31  1  0  0  0  0
 25 26  1  0  0  0  0
 25 33  1  1  0  0  0
 27 28  1  6  0  0  0
 27 35  1  0  0  0  0
 29 30  1  0  0  0  0
 29 37  1  1  0  0  0
 31 32  1  6  0  0  0
 31 39  1  0  0  0  0
 33 34  1  0  0  0  0
 35 36  1  0  0  0  0
 35 41  1  6  0  0  0
 37 38  1  0  0  0  0
 39 40  1  1  0  0  0
 41 42  1  0  0  0  0
M  END
>  <CHROM.1>
-159.74434548,59.00274415,-173.63189775,170.95557535,55.16087074,-178.93931987
59.96047958,143.31505392,55.22750837,6.65199391,4.35787129,2.78267925,0.93535934
0.75765207,3.13834705

>  <Name>
2o3w_lig

>  <RI>
0

>  <Rbt.Current_Directory>
/home/itssahil/PROJECTS/Mol_Feturizer/New_Systems/rnas/2o3w

>  <Rbt.Executable>
rbdock ($Id: //depot/dev/client3/rdock/2013.1/src/exe/rbdock.cxx#4 $)

>  <Rbt.Library>
libRbt.so (2013.1, Build901 2013/11/27)

>  <Rbt.Parameter_File>
/export/apps/rDock/src/rDock_2013.1_src/data/scripts/dock_solv.prm

>  <Rbt.Receptor>
prm/pocket_docking_3.prm

>  <SCORE>
-9.23797

>  <SCORE.INTER>
0.225569

>  <SCORE.INTER.CONST>
1

>  <SCORE.INTER.POLAR>
0

>  <SCORE.INTER.ROT>
9

>  <SCORE.INTER.SOLV>
7.09672

>  <SCORE.INTER.VDW>
-11.8152

>  <SCORE.INTER.norm>
0.00537069

>  <SCORE.INTRA>
-9.46976

>  <SCORE.INTRA.DIHEDRAL>
-20.2841

>  <SCORE.INTRA.DIHEDRAL.0>
27.8999

>  <SCORE.INTRA.POLAR>
0

>  <SCORE.INTRA.POLAR.0>
0

>  <SCORE.INTRA.REPUL>
0

>  <SCORE.INTRA.REPUL.0>
0

>  <SCORE.INTRA.SOLV>
-2.56193

>  <SCORE.INTRA.SOLV.lig_0>
-104.479

>  <SCORE.INTRA.VDW>
1.95324

>  <SCORE.INTRA.VDW.0>
-6.17816

>  <SCORE.INTRA.norm>
-0.22547

>  <SCORE.RESTR>
0.00622584

>  <SCORE.RESTR.CAVITY>
0.00622584

>  <SCORE.RESTR.norm>
0.000148234

>  <SCORE.SYSTEM>
0

>  <SCORE.SYSTEM.CONST>
0

>  <SCORE.SYSTEM.DIHEDRAL>
0

>  <SCORE.SYSTEM.SOLV>
0

>  <SCORE.SYSTEM.norm>
0

>  <SCORE.heavy>
42

>  <SCORE.norm>
-0.219952

>  <RMSD>
3.715

$$$$
2o3w_lig
 OpenBabel11021811463D
libRbt.so/2013.1/901 2013/11/27
 42 45  0  0  0  0  0  0  0  0999 V2000
    7.9719    1.5165    4.5150 C   0  0  2  0  0  0  0  0  0  0  0  0
    8.9211    2.0841    3.5962 O   0  0  0  0  0  0  0  0  0  0  0  0
   12.5113    1.6685    5.9907 C   0  0  2  0  0  0  0  0  0  0  0  0
   13.9398    1.5892    6.4192 N   0  0  0  0  0  0  0  0  0  0  0  0
    9.2987    4.7700    3.4464 C   0  0  1  0  0  0  0  0  0  0  0  0
    6.0414    7.2266    1.5855 C   0  0  1  0  0  0  0  0  0  0  0  0
    6.5563    1.9613    4.0393 C   0  0  2  0  0  0  0  0  0  0  0  0
    6.3395    1.7111    2.6037 N   0  0  0  0  0  0  0  0  0  0  0  0
   12.1390    0.4830    5.0120 C   0  0  0  0  0  0  0  0  0  0  0  0
    9.1022    6.3118    3.5689 C   0  0  2  0  0  0  0  0  0  0  0  0
    8.4754    6.7295    4.8065 O   0  0  0  0  0  0  0  0  0  0  0  0
    6.1698    8.7914    1.6471 C   0  0  2  0  0  0  0  0  0  0  0  0
    5.9057    9.2943    3.0285 N   0  0  0  0  0  0  0  0  0  0  0  0
    6.3068    3.4629    4.2717 C   0  0  1  0  0  0  0  0  0  0  0  0
    4.9859    3.8173    3.8587 O   0  0  0  0  0  0  0  0  0  0  0  0
   10.6195    0.6077    4.6143 C   0  0  2  0  0  0  0  0  0  0  0  0
   10.2303   -0.5024    3.7035 N   0  0  0  0  0  0  0  0  0  0  0  0
    8.3145    6.6131    2.2930 C   0  0  2  0  0  0  0  0  0  0  0  0
    6.8715    6.5225    2.5175 O   0  0  0  0  0  0  0  0  0  0  0  0
    5.1572    9.4469    0.5927 C   0  0  1  0  0  0  0  0  0  0  0  0
    5.6745    9.2423   -0.7413 O   0  0  0  0  0  0  0  0  0  0  0  0
    6.5418    3.8001    5.7617 C   0  0  2  0  0  0  0  0  0  0  0  0
    6.3011    5.1684    5.9944 O   0  0  0  0  0  0  0  0  0  0  0  0
   10.3402    1.9940    3.9099 C   0  0  2  0  0  0  0  0  0  0  0  0
    8.7822    5.5823    1.2518 C   0  0  2  0  0  0  0  0  0  0  0  0
    9.1114    4.4473    2.0492 O   0  0  0  0  0  0  0  0  0  0  0  0
    3.6771    8.8411    0.6923 C   0  0  2  0  0  0  0  0  0  0  0  0
    3.1132    9.2819    1.9268 O   0  0  0  0  0  0  0  0  0  0  0  0
    8.0121    3.4243    6.1444 C   0  0  2  0  0  0  0  0  0  0  0  0
    8.2399    2.0028    5.8852 O   0  0  0  0  0  0  0  0  0  0  0  0
   10.7340    3.2020    4.7879 C   0  0  2  0  0  0  0  0  0  0  0  0
   10.5871    4.3643    3.9266 O   0  0  0  0  0  0  0  0  0  0  0  0
    9.9986    6.0297    0.3831 C   0  0  0  0  0  0  0  0  0  0  0  0
    9.5880    7.0671   -0.5024 O   0  0  0  0  0  0  0  0  0  0  0  0
    3.7163    7.2669    0.6420 C   0  0  1  0  0  0  0  0  0  0  0  0
    4.5860    6.8435    1.7532 O   0  0  0  0  0  0  0  0  0  0  0  0
    8.3287    3.7161    7.5930 C   0  0  0  0  0  0  0  0  0  0  0  0
    7.7313    2.7507    8.4239 O   0  0  0  0  0  0  0  0  0  0  0  0
   12.2337    3.0551    5.2830 C   0  0  1  0  0  0  0  0  0  0  0  0
   12.5492    4.0923    6.2158 O   0  0  0  0  0  0  0  0  0  0  0  0
    2.2883    6.5791    0.7690 C   0  0  0  0  0  0  0  0  0  0  0  0
    1.3505    6.8331   -0.3591 N   0  0  0  0  0  0  0  0  0  0  0  0
  1  2  1  6  0  0  0
  1  7  1  0  0  0  0
  1 30  1  0  0  0  0
  3  4  1  6  0  0  0
  3  9  1  0  0  0  0
  3 39  1  0  0  0  0
  5 10  1  0  0  0  0
  5 26  1  0  0  0  0
  5 32  1  6  0  0  0
  6 12  1  0  0  0  0
  6 36  1  0  0  0  0
  6 19  1  1  0  0  0
  7  8  1  6  0  0  0
  7 14  1  0  0  0  0
  9 16  1  0  0  0  0
 10 11  1  1  0  0  0
 10 18  1  0  0  0  0
 12 13  1  1  0  0  0
 12 20  1  0  0  0  0
 14 15  1  1  0  0  0
 14 22  1  0  0  0  0
 16 17  1  6  0  0  0
 16 24  1  0  0  0  0
 18 19  1  1  0  0  0
 18 25  1  0  0  0  0
 20 21  1  6  0  0  0
 20 27  1  0  0  0  0
 22 23  1  6  0  0  0
 22 29  1  0  0  0  0
 24  2  1  1  0  0  0
 24 31  1  0  0  0  0
 25 26  1  0  0  0  0
 25 33  1  1  0  0  0
 27 28  1  1  0  0  0
 27 35  1  0  0  0  0
 29 30  1  0  0  0  0
 29 37  1  1  0  0  0
 31 32  1  6  0  0  0
 31 39  1  0  0  0  0
 33 34  1  0  0  0  0
 35 36  1  0  0  0  0
 35 41  1  1  0  0  0
 37 38  1  0  0  0  0
 39 40  1  1  0  0  0
 41 42  1  0  0  0  0
M  END
>  <CHROM.1>
171.09459274,135.39681209,-66.91227899,158.31403895,36.16128384,-69.88555587
75.13239079,66.20032242,65.80999502,7.82626584,4.78193959,3.43212512,0.87173992
-0.09207759,2.41950830

>  <Name>
2o3w_lig

>  <RI>
0

>  <Rbt.Current_Directory>
/home/itssahil/PROJECTS/Mol_Feturizer/New_Systems/rnas/2o3w

>  <Rbt.Executable>
rbdock ($Id: //depot/dev/client3/rdock/2013.1/src/exe/rbdock.cxx#4 $)

>  <Rbt.Library>
libRbt.so (2013.1, Build901 2013/11/27)

>  <Rbt.Parameter_File>
/export/apps/rDock/src/rDock_2013.1_src/data/scripts/dock_solv.prm

>  <Rbt.Receptor>
prm/pocket_docking_4.prm

>  <SCORE>
-14.9029

>  <SCORE.INTER>
-7.3721

>  <SCORE.INTER.CONST>
1

>  <SCORE.INTER.POLAR>
-0.979796

>  <SCORE.INTER.ROT>
9

>  <SCORE.INTER.SOLV>
9.86577

>  <SCORE.INTER.VDW>
-14.5373

>  <SCORE.INTER.norm>
-0.175526

>  <SCORE.INTRA>
-7.59325

>  <SCORE.INTRA.DIHEDRAL>
-15.0832

>  <SCORE.INTRA.DIHEDRAL.0>
27.8999

>  <SCORE.INTRA.POLAR>
0

>  <SCORE.INTRA.POLAR.0>
0

>  <SCORE.INTRA.REPUL>
0.10001

>  <SCORE.INTRA.REPUL.0>
0

>  <SCORE.INTRA.SOLV>
-2.39764

>  <SCORE.INTRA.SOLV.lig_0>
-104.479

>  <SCORE.INTRA.VDW>
0.647112

>  <SCORE.INTRA.VDW.0>
-6.17816

>  <SCORE.INTRA.norm>
-0.180792

>  <SCORE.RESTR>
0.0624129

>  <SCORE.RESTR.CAVITY>
0.0624129

>  <SCORE.RESTR.norm>
0.00148602

>  <SCORE.SYSTEM>
0

>  <SCORE.SYSTEM.CONST>
0

>  <SCORE.SYSTEM.DIHEDRAL>
0

>  <SCORE.SYSTEM.SOLV>
0

>  <SCORE.SYSTEM.norm>
0

>  <SCORE.heavy>
42

>  <SCORE.norm>
-0.354832

>  <RMSD>
3.717

$$$$
2o3w_lig
 OpenBabel11021811463D
libRbt.so/2013.1/901 2013/11/27
 42 45  0  0  0  0  0  0  0  0999 V2000
    7.8016    0.1321    4.5771 C   0  0  2  0  0  0  0  0  0  0  0  0
    8.2467    1.3767    4.0113 O   0  0  0  0  0  0  0  0  0  0  0  0
    7.9991    3.7637    7.6219 C   0  0  2  0  0  0  0  0  0  0  0  0
    8.0154    4.9103    8.5787 N   0  0  0  0  0  0  0  0  0  0  0  0
    6.5246    4.3937    3.4416 C   0  0  1  0  0  0  0  0  0  0  0  0
    5.8310    6.9889    0.2474 C   0  0  1  0  0  0  0  0  0  0  0  0
    7.9343   -0.9481    3.4619 C   0  0  2  0  0  0  0  0  0  0  0  0
    9.2596   -0.9342    2.8184 N   0  0  0  0  0  0  0  0  0  0  0  0
    9.4333    3.5107    7.0047 C   0  0  0  0  0  0  0  0  0  0  0  0
    5.3453    4.9176    2.5667 C   0  0  2  0  0  0  0  0  0  0  0  0
    5.2972    4.3434    1.2374 O   0  0  0  0  0  0  0  0  0  0  0  0
    6.6878    7.7573   -0.8223 C   0  0  2  0  0  0  0  0  0  0  0  0
    7.0560    9.1194   -0.3324 N   0  0  0  0  0  0  0  0  0  0  0  0
    6.8942   -0.7625    2.3418 C   0  0  1  0  0  0  0  0  0  0  0  0
    7.0267   -1.7953    1.3638 O   0  0  0  0  0  0  0  0  0  0  0  0
    9.3570    2.2796    6.0244 C   0  0  2  0  0  0  0  0  0  0  0  0
   10.6951    2.0035    5.4354 N   0  0  0  0  0  0  0  0  0  0  0  0
    5.5784    6.4280    2.6276 C   0  0  2  0  0  0  0  0  0  0  0  0
    6.4432    6.8832    1.5387 O   0  0  0  0  0  0  0  0  0  0  0  0
    5.8669    7.8420   -2.1956 C   0  0  1  0  0  0  0  0  0  0  0  0
    5.8646    6.5384   -2.8197 O   0  0  0  0  0  0  0  0  0  0  0  0
    5.4750   -0.7436    2.9541 C   0  0  2  0  0  0  0  0  0  0  0  0
    4.5098   -0.5910    1.9394 O   0  0  0  0  0  0  0  0  0  0  0  0
    8.3149    2.5517    4.8686 C   0  0  2  0  0  0  0  0  0  0  0  0
    6.2173    6.7040    3.9992 C   0  0  2  0  0  0  0  0  0  0  0  0
    6.9498    5.5087    4.2585 O   0  0  0  0  0  0  0  0  0  0  0  0
    4.3579    8.3398   -1.9885 C   0  0  2  0  0  0  0  0  0  0  0  0
    4.4058    9.7150   -1.6106 O   0  0  0  0  0  0  0  0  0  0  0  0
    5.3806    0.4277    3.9879 C   0  0  2  0  0  0  0  0  0  0  0  0
    6.3976    0.2521    5.0245 O   0  0  0  0  0  0  0  0  0  0  0  0
    6.8988    2.8633    5.4003 C   0  0  2  0  0  0  0  0  0  0  0  0
    6.1317    3.2639    4.2317 O   0  0  0  0  0  0  0  0  0  0  0  0
    5.2053    7.0026    5.1485 C   0  0  0  0  0  0  0  0  0  0  0  0
    5.8967    7.0107    6.3938 O   0  0  0  0  0  0  0  0  0  0  0  0
    3.6413    7.4917   -0.8707 C   0  0  1  0  0  0  0  0  0  0  0  0
    4.4647    7.6348    0.3425 O   0  0  0  0  0  0  0  0  0  0  0  0
    4.0217    0.5167    4.6432 C   0  0  0  0  0  0  0  0  0  0  0  0
    3.0455    0.8606    3.6904 O   0  0  0  0  0  0  0  0  0  0  0  0
    6.9580    4.0385    6.4638 C   0  0  1  0  0  0  0  0  0  0  0  0
    5.6741    4.2242    7.0660 O   0  0  0  0  0  0  0  0  0  0  0  0
    2.1450    7.9419   -0.5757 C   0  0  0  0  0  0  0  0  0  0  0  0
    1.1850    7.7552   -1.6983 N   0  0  0  0  0  0  0  0  0  0  0  0
  1  2  1  6  0  0  0
  1  7  1  0  0  0  0
  1 30  1  0  0  0  0
  3  4  1  1  0  0  0
  3  9  1  0  0  0  0
  3 39  1  0  0  0  0
  5 10  1  0  0  0  0
  5 26  1  0  0  0  0
  5 32  1  1  0  0  0
  6 12  1  0  0  0  0
  6 36  1  0  0  0  0
  6 19  1  1  0  0  0
  7  8  1  6  0  0  0
  7 14  1  0  0  0  0
  9 16  1  0  0  0  0
 10 11  1  6  0  0  0
 10 18  1  0  0  0  0
 12 13  1  1  0  0  0
 12 20  1  0  0  0  0
 14 15  1  6  0  0  0
 14 22  1  0  0  0  0
 16 17  1  6  0  0  0
 16 24  1  0  0  0  0
 18 19  1  6  0  0  0
 18 25  1  0  0  0  0
 20 21  1  1  0  0  0
 20 27  1  0  0  0  0
 22 23  1  6  0  0  0
 22 29  1  0  0  0  0
 24  2  1  6  0  0  0
 24 31  1  0  0  0  0
 25 26  1  0  0  0  0
 25 33  1  1  0  0  0
 27 28  1  1  0  0  0
 27 35  1  0  0  0  0
 29 30  1  0  0  0  0
 29 37  1  1  0  0  0
 31 32  1  6  0  0  0
 31 39  1  0  0  0  0
 33 34  1  0  0  0  0
 35 36  1  0  0  0  0
 35 41  1  1  0  0  0
 37 38  1  0  0  0  0
 39 40  1  1  0  0  0
 41 42  1  0  0  0  0
M  END
>  <CHROM.1>
-175.90733825,-160.94410175,167.77059799,76.81396335,62.10997022,170.07484051
-65.80158257,-59.67875604,64.87667750,6.17046348,4.08249221,2.90169350,0.71163097
1.16420466,-3.01228642

>  <Name>
2o3w_lig

>  <RI>
0

>  <Rbt.Current_Directory>
/home/itssahil/PROJECTS/Mol_Feturizer/New_Systems/rnas/2o3w

>  <Rbt.Executable>
rbdock ($Id: //depot/dev/client3/rdock/2013.1/src/exe/rbdock.cxx#4 $)

>  <Rbt.Library>
libRbt.so (2013.1, Build901 2013/11/27)

>  <Rbt.Parameter_File>
/export/apps/rDock/src/rDock_2013.1_src/data/scripts/dock_solv.prm

>  <Rbt.Receptor>
prm/pocket_docking_8.prm

>  <SCORE>
-18.1014

>  <SCORE.INTER>
-7.93869

>  <SCORE.INTER.CONST>
1

>  <SCORE.INTER.POLAR>
-2.21707

>  <SCORE.INTER.ROT>
9

>  <SCORE.INTER.SOLV>
10.6727

>  <SCORE.INTER.VDW>
-11.0598

>  <SCORE.INTER.norm>
-0.189016

>  <SCORE.INTRA>
-10.1627

>  <SCORE.INTRA.DIHEDRAL>
-23.4336

>  <SCORE.INTRA.DIHEDRAL.0>
27.8999

>  <SCORE.INTRA.POLAR>
0

>  <SCORE.INTRA.POLAR.0>
0

>  <SCORE.INTRA.REPUL>
0

>  <SCORE.INTRA.REPUL.0>
0

>  <SCORE.INTRA.SOLV>
-3.1381

>  <SCORE.INTRA.SOLV.lig_0>
-104.479

>  <SCORE.INTRA.VDW>
3.12315

>  <SCORE.INTRA.VDW.0>
-6.17816

>  <SCORE.INTRA.norm>
-0.241969

>  <SCORE.RESTR>
0

>  <SCORE.RESTR.CAVITY>
0

>  <SCORE.RESTR.norm>
0

>  <SCORE.SYSTEM>
0

>  <SCORE.SYSTEM.CONST>
0

>  <SCORE.SYSTEM.DIHEDRAL>
0

>  <SCORE.SYSTEM.SOLV>
0

>  <SCORE.SYSTEM.norm>
0

>  <SCORE.heavy>
42

>  <SCORE.norm>
-0.430985

>  <RMSD>
3.717

$$$$
2o3w_lig
 OpenBabel11021811463D
libRbt.so/2013.1/901 2013/11/27
 42 45  0  0  0  0  0  0  0  0999 V2000
    7.0980    1.4653    3.9998 C   0  0  2  0  0  0  0  0  0  0  0  0
    7.5370    1.3428    5.3634 O   0  0  0  0  0  0  0  0  0  0  0  0
    8.9765    4.0338    8.4428 C   0  0  2  0  0  0  0  0  0  0  0  0
    9.6653    5.1533    9.1519 N   0  0  0  0  0  0  0  0  0  0  0  0
    7.2764    4.8919    4.4523 C   0  0  1  0  0  0  0  0  0  0  0  0
    7.7797    6.5623    0.5840 C   0  0  1  0  0  0  0  0  0  0  0  0
    6.3461    0.1477    3.6437 C   0  0  2  0  0  0  0  0  0  0  0  0
    5.3320   -0.2123    4.6500 N   0  0  0  0  0  0  0  0  0  0  0  0
   10.0195    3.0419    7.7870 C   0  0  0  0  0  0  0  0  0  0  0  0
    6.4808    5.0840    3.1253 C   0  0  2  0  0  0  0  0  0  0  0  0
    6.8427    4.1479    2.0804 O   0  0  0  0  0  0  0  0  0  0  0  0
    9.0697    6.1172   -0.1948 C   0  0  2  0  0  0  0  0  0  0  0  0
   10.2002    7.0586    0.0636 N   0  0  0  0  0  0  0  0  0  0  0  0
    7.2998   -1.0551    3.5234 C   0  0  1  0  0  0  0  0  0  0  0  0
    6.5746   -2.2303    3.1577 O   0  0  0  0  0  0  0  0  0  0  0  0
    9.2359    1.8746    7.0757 C   0  0  2  0  0  0  0  0  0  0  0  0
   10.1885    0.9126    6.4588 N   0  0  0  0  0  0  0  0  0  0  0  0
    6.7611    6.5565    2.8214 C   0  0  2  0  0  0  0  0  0  0  0  0
    7.9593    6.7171    1.9973 O   0  0  0  0  0  0  0  0  0  0  0  0
    8.7390    6.0311   -1.7601 C   0  0  1  0  0  0  0  0  0  0  0  0
    7.9280    4.8595   -2.0025 O   0  0  0  0  0  0  0  0  0  0  0  0
    8.4084   -0.7333    2.4954 C   0  0  2  0  0  0  0  0  0  0  0  0
    9.2806   -1.8313    2.3612 O   0  0  0  0  0  0  0  0  0  0  0  0
    8.2686    2.4482    5.9661 C   0  0  2  0  0  0  0  0  0  0  0  0
    6.9263    7.2475    4.1855 C   0  0  2  0  0  0  0  0  0  0  0  0
    7.4676    6.2143    5.0053 O   0  0  0  0  0  0  0  0  0  0  0  0
    7.9795    7.3313   -2.3079 C   0  0  2  0  0  0  0  0  0  0  0  0
    8.9070    8.4154   -2.2812 O   0  0  0  0  0  0  0  0  0  0  0  0
    9.1889    0.5385    2.9676 C   0  0  2  0  0  0  0  0  0  0  0  0
    8.2613    1.6608    3.1086 O   0  0  0  0  0  0  0  0  0  0  0  0
    7.2551    3.4705    6.5254 C   0  0  2  0  0  0  0  0  0  0  0  0
    6.5854    4.0221    5.3584 O   0  0  0  0  0  0  0  0  0  0  0  0
    5.6096    7.8181    4.7979 C   0  0  0  0  0  0  0  0  0  0  0  0
    4.7181    6.7438    5.0808 O   0  0  0  0  0  0  0  0  0  0  0  0
    6.7274    7.6629   -1.4108 C   0  0  1  0  0  0  0  0  0  0  0  0
    7.2395    7.8319   -0.0399 O   0  0  0  0  0  0  0  0  0  0  0  0
   10.2930    0.9309    2.0132 C   0  0  0  0  0  0  0  0  0  0  0  0
   11.3306   -0.0182    2.0556 O   0  0  0  0  0  0  0  0  0  0  0  0
    8.0111    4.6090    7.3302 C   0  0  1  0  0  0  0  0  0  0  0  0
    7.0665    5.4687    7.9739 O   0  0  0  0  0  0  0  0  0  0  0  0
    5.9316    8.9627   -1.8644 C   0  0  0  0  0  0  0  0  0  0  0  0
    6.6583   10.2514   -1.6978 N   0  0  0  0  0  0  0  0  0  0  0  0
  1  2  1  1  0  0  0
  1  7  1  0  0  0  0
  1 30  1  0  0  0  0
  3  4  1  6  0  0  0
  3  9  1  0  0  0  0
  3 39  1  0  0  0  0
  5 10  1  0  0  0  0
  5 26  1  0  0  0  0
  5 32  1  1  0  0  0
  6 12  1  0  0  0  0
  6 36  1  0  0  0  0
  6 19  1  1  0  0  0
  7  8  1  1  0  0  0
  7 14  1  0  0  0  0
  9 16  1  0  0  0  0
 10 11  1  6  0  0  0
 10 18  1  0  0  0  0
 12 13  1  6  0  0  0
 12 20  1  0  0  0  0
 14 15  1  6  0  0  0
 14 22  1  0  0  0  0
 16 17  1  6  0  0  0
 16 24  1  0  0  0  0
 18 19  1  6  0  0  0
 18 25  1  0  0  0  0
 20 21  1  1  0  0  0
 20 27  1  0  0  0  0
 22 23  1  1  0  0  0
 22 29  1  0  0  0  0
 24  2  1  1  0  0  0
 24 31  1  0  0  0  0
 25 26  1  0  0  0  0
 25 33  1  1  0  0  0
 27 28  1  1  0  0  0
 27 35  1  0  0  0  0
 29 30  1  0  0  0  0
 29 37  1  6  0  0  0
 31 32  1  6  0  0  0
 31 39  1  0  0  0  0
 33 34  1  0  0  0  0
 35 36  1  0  0  0  0
 35 41  1  6  0  0  0
 37 38  1  0  0  0  0
 39 40  1  1  0  0  0
 41 42  1  0  0  0  0
M  END
>  <CHROM.1>
-179.62082823,166.67082151,-154.55370377,83.58509047,-151.43767368,64.43942811
-69.46599676,-70.27835379,-67.31999993,7.83840000,4.07725667,3.12505691,-1.11163283
1.37591032,-1.19627532

>  <Name>
2o3w_lig

>  <RI>
0

>  <Rbt.Current_Directory>
/home/itssahil/PROJECTS/Mol_Feturizer/New_Systems/rnas/2o3w

>  <Rbt.Executable>
rbdock ($Id: //depot/dev/client3/rdock/2013.1/src/exe/rbdock.cxx#4 $)

>  <Rbt.Library>
libRbt.so (2013.1, Build901 2013/11/27)

>  <Rbt.Parameter_File>
/export/apps/rDock/src/rDock_2013.1_src/data/scripts/dock_solv.prm

>  <Rbt.Receptor>
prm/pocket_docking_6.prm

>  <SCORE>
-27.0549

>  <SCORE.INTER>
-18.1004

>  <SCORE.INTER.CONST>
1

>  <SCORE.INTER.POLAR>
-3.47343

>  <SCORE.INTER.ROT>
9

>  <SCORE.INTER.SOLV>
21.4352

>  <SCORE.INTER.VDW>
-17.2339

>  <SCORE.INTER.norm>
-0.430961

>  <SCORE.INTRA>
-8.95457

>  <SCORE.INTRA.DIHEDRAL>
-17.4247

>  <SCORE.INTRA.DIHEDRAL.0>
27.8999

>  <SCORE.INTRA.POLAR>
0

>  <SCORE.INTRA.POLAR.0>
0

>  <SCORE.INTRA.REPUL>
0

>  <SCORE.INTRA.REPUL.0>
0

>  <SCORE.INTRA.SOLV>
-2.33009

>  <SCORE.INTRA.SOLV.lig_0>
-104.479

>  <SCORE.INTRA.VDW>
0.922848

>  <SCORE.INTRA.VDW.0>
-6.17816

>  <SCORE.INTRA.norm>
-0.213204

>  <SCORE.RESTR>
0

>  <SCORE.RESTR.CAVITY>
0

>  <SCORE.RESTR.norm>
0

>  <SCORE.SYSTEM>
0

>  <SCORE.SYSTEM.CONST>
0

>  <SCORE.SYSTEM.DIHEDRAL>
0

>  <SCORE.SYSTEM.SOLV>
0

>  <SCORE.SYSTEM.norm>
0

>  <SCORE.heavy>
42

>  <SCORE.norm>
-0.644165

>  <RMSD>
3.751

$$$$
2o3w_lig
 OpenBabel11021811463D
libRbt.so/2013.1/901 2013/11/27
 42 45  0  0  0  0  0  0  0  0999 V2000
    6.3883   -0.0851    4.5511 C   0  0  2  0  0  0  0  0  0  0  0  0
    6.5768   -0.1946    3.1299 O   0  0  0  0  0  0  0  0  0  0  0  0
   10.5738   -1.8737    3.1554 C   0  0  2  0  0  0  0  0  0  0  0  0
   11.8538   -2.5182    2.7351 N   0  0  0  0  0  0  0  0  0  0  0  0
    7.6814    2.2079    1.9892 C   0  0  1  0  0  0  0  0  0  0  0  0
    6.6158    6.1714    1.7941 C   0  0  1  0  0  0  0  0  0  0  0  0
    5.1951    0.8911    4.7779 C   0  0  2  0  0  0  0  0  0  0  0  0
    4.0173    0.5404    3.9653 N   0  0  0  0  0  0  0  0  0  0  0  0
    9.3566   -2.8750    3.0232 C   0  0  0  0  0  0  0  0  0  0  0  0
    7.8983    3.4530    1.0763 C   0  0  2  0  0  0  0  0  0  0  0  0
    8.7884    4.4482    1.6388 O   0  0  0  0  0  0  0  0  0  0  0  0
    6.5165    7.0079    3.1204 C   0  0  2  0  0  0  0  0  0  0  0  0
    5.0976    7.1262    3.5715 N   0  0  0  0  0  0  0  0  0  0  0  0
    5.5573    2.3470    4.4310 C   0  0  1  0  0  0  0  0  0  0  0  0
    4.4494    3.2106    4.6911 O   0  0  0  0  0  0  0  0  0  0  0  0
    8.0431   -2.1474    3.5006 C   0  0  2  0  0  0  0  0  0  0  0  0
    6.8776   -3.0670    3.4031 N   0  0  0  0  0  0  0  0  0  0  0  0
    6.4562    3.9082    0.8473 C   0  0  2  0  0  0  0  0  0  0  0  0
    6.0265    4.8671    1.8655 O   0  0  0  0  0  0  0  0  0  0  0  0
    7.1677    8.4526    2.8842 C   0  0  1  0  0  0  0  0  0  0  0  0
    8.6051    8.3134    2.8263 O   0  0  0  0  0  0  0  0  0  0  0  0
    6.8064    2.7733    5.2355 C   0  0  2  0  0  0  0  0  0  0  0  0
    7.1411    4.1098    4.9417 O   0  0  0  0  0  0  0  0  0  0  0  0
    7.7740   -0.8564    2.6307 C   0  0  2  0  0  0  0  0  0  0  0  0
    5.5974    2.6329    0.8851 C   0  0  2  0  0  0  0  0  0  0  0  0
    6.3110    1.7920    1.7885 O   0  0  0  0  0  0  0  0  0  0  0  0
    6.6434    9.1599    1.5455 C   0  0  2  0  0  0  0  0  0  0  0  0
    5.2735    9.5046    1.7483 O   0  0  0  0  0  0  0  0  0  0  0  0
    7.9927    1.8155    4.8822 C   0  0  2  0  0  0  0  0  0  0  0  0
    7.6176    0.4348    5.1868 O   0  0  0  0  0  0  0  0  0  0  0  0
    8.9488    0.1455    2.6666 C   0  0  2  0  0  0  0  0  0  0  0  0
    8.6135    1.1627    1.6830 O   0  0  0  0  0  0  0  0  0  0  0  0
    5.3979    1.9327   -0.4948 C   0  0  0  0  0  0  0  0  0  0  0  0
    4.8942    2.8781   -1.4336 O   0  0  0  0  0  0  0  0  0  0  0  0
    6.7846    8.1896    0.3123 C   0  0  1  0  0  0  0  0  0  0  0  0
    6.0231    6.9765    0.6568 O   0  0  0  0  0  0  0  0  0  0  0  0
    9.2592    2.1573    5.6324 C   0  0  0  0  0  0  0  0  0  0  0  0
   10.3243    1.3608    5.1738 O   0  0  0  0  0  0  0  0  0  0  0  0
   10.3039   -0.5835    2.2820 C   0  0  1  0  0  0  0  0  0  0  0  0
   11.4103    0.3048    2.4618 O   0  0  0  0  0  0  0  0  0  0  0  0
    6.2547    8.8009   -1.0567 C   0  0  0  0  0  0  0  0  0  0  0  0
    4.8270    9.2231   -1.0616 N   0  0  0  0  0  0  0  0  0  0  0  0
  1  2  1  6  0  0  0
  1  7  1  0  0  0  0
  1 30  1  0  0  0  0
  3  4  1  6  0  0  0
  3  9  1  0  0  0  0
  3 39  1  0  0  0  0
  5 10  1  0  0  0  0
  5 26  1  0  0  0  0
  5 32  1  6  0  0  0
  6 12  1  0  0  0  0
  6 36  1  0  0  0  0
  6 19  1  1  0  0  0
  7  8  1  6  0  0  0
  7 14  1  0  0  0  0
  9 16  1  0  0  0  0
 10 11  1  1  0  0  0
 10 18  1  0  0  0  0
 12 13  1  6  0  0  0
 12 20  1  0  0  0  0
 14 15  1  1  0  0  0
 14 22  1  0  0  0  0
 16 17  1  6  0  0  0
 16 24  1  0  0  0  0
 18 19  1  1  0  0  0
 18 25  1  0  0  0  0
 20 21  1  6  0  0  0
 20 27  1  0  0  0  0
 22 23  1  6  0  0  0
 22 29  1  0  0  0  0
 24  2  1  1  0  0  0
 24 31  1  0  0  0  0
 25 26  1  0  0  0  0
 25 33  1  6  0  0  0
 27 28  1  1  0  0  0
 27 35  1  0  0  0  0
 29 30  1  0  0  0  0
 29 37  1  1  0  0  0
 31 32  1  6  0  0  0
 31 39  1  0  0  0  0
 33 34  1  0  0  0  0
 35 36  1  0  0  0  0
 35 41  1  6  0  0  0
 37 38  1  0  0  0  0
 39 40  1  1  0  0  0
 41 42  1  0  0  0  0
M  END
>  <CHROM.1>
169.23723309,156.95187668,-160.94255448,71.01193929,42.16450079,-53.55043720
-173.75441278,79.40349361,-58.23289321,7.23681647,2.98487940,2.58147075,1.27670595
0.32882773,2.98830743

>  <Name>
2o3w_lig

>  <RI>
0

>  <Rbt.Current_Directory>
/home/itssahil/PROJECTS/Mol_Feturizer/New_Systems/rnas/2o3w

>  <Rbt.Executable>
rbdock ($Id: //depot/dev/client3/rdock/2013.1/src/exe/rbdock.cxx#4 $)

>  <Rbt.Library>
libRbt.so (2013.1, Build901 2013/11/27)

>  <Rbt.Parameter_File>
/export/apps/rDock/src/rDock_2013.1_src/data/scripts/dock_solv.prm

>  <Rbt.Receptor>
prm/pocket_docking_4.prm

>  <SCORE>
-9.01406

>  <SCORE.INTER>
-3.14909

>  <SCORE.INTER.CONST>
1

>  <SCORE.INTER.POLAR>
0

>  <SCORE.INTER.ROT>
9

>  <SCORE.INTER.SOLV>
7.84034

>  <SCORE.INTER.VDW>
-14.3128

>  <SCORE.INTER.norm>
-0.0749784

>  <SCORE.INTRA>
-5.86497

>  <SCORE.INTRA.DIHEDRAL>
-19.2318

>  <SCORE.INTRA.DIHEDRAL.0>
27.8999

>  <SCORE.INTRA.POLAR>
0

>  <SCORE.INTRA.POLAR.0>
0

>  <SCORE.INTRA.REPUL>
0.545676

>  <SCORE.INTRA.REPUL.0>
0

>  <SCORE.INTRA.SOLV>
0.569584

>  <SCORE.INTRA.SOLV.lig_0>
-104.479

>  <SCORE.INTRA.VDW>
0.737747

>  <SCORE.INTRA.VDW.0>
-6.17816

>  <SCORE.INTRA.norm>
-0.139642

>  <SCORE.RESTR>
0

>  <SCORE.RESTR.CAVITY>
0

>  <SCORE.RESTR.norm>
0

>  <SCORE.SYSTEM>
0

>  <SCORE.SYSTEM.CONST>
0

>  <SCORE.SYSTEM.DIHEDRAL>
0

>  <SCORE.SYSTEM.SOLV>
0

>  <SCORE.SYSTEM.norm>
0

>  <SCORE.heavy>
42

>  <SCORE.norm>
-0.214621

>  <RMSD>
3.880

$$$$
2o3w_lig
 OpenBabel11021811463D
libRbt.so/2013.1/901 2013/11/27
 42 45  0  0  0  0  0  0  0  0999 V2000
    6.8202    0.5825    5.0188 C   0  0  2  0  0  0  0  0  0  0  0  0
    7.9951    1.3494    4.7048 O   0  0  0  0  0  0  0  0  0  0  0  0
    6.5678    5.2107    6.0645 C   0  0  2  0  0  0  0  0  0  0  0  0
    6.4982    6.6524    6.4480 N   0  0  0  0  0  0  0  0  0  0  0  0
    7.7977    4.5467    1.8715 C   0  0  1  0  0  0  0  0  0  0  0  0
    7.1035    7.0763   -1.4020 C   0  0  1  0  0  0  0  0  0  0  0  0
    7.0475   -0.8510    4.4517 C   0  0  2  0  0  0  0  0  0  0  0  0
    8.3488   -1.4152    4.8503 N   0  0  0  0  0  0  0  0  0  0  0  0
    7.5419    4.4093    7.0188 C   0  0  0  0  0  0  0  0  0  0  0  0
    8.5371    4.1824    0.5481 C   0  0  2  0  0  0  0  0  0  0  0  0
    9.9306    4.5781    0.5234 O   0  0  0  0  0  0  0  0  0  0  0  0
    7.7160    8.1171   -2.4071 C   0  0  2  0  0  0  0  0  0  0  0  0
    8.7516    8.9596   -1.7374 N   0  0  0  0  0  0  0  0  0  0  0  0
    7.0005   -0.8850    2.9130 C   0  0  1  0  0  0  0  0  0  0  0  0
    7.1736   -2.2217    2.4396 O   0  0  0  0  0  0  0  0  0  0  0  0
    7.5557    2.8962    6.5797 C   0  0  2  0  0  0  0  0  0  0  0  0
    8.4529    2.1081    7.4671 N   0  0  0  0  0  0  0  0  0  0  0  0
    7.6385    4.8571   -0.4895 C   0  0  2  0  0  0  0  0  0  0  0  0
    8.0650    6.2306   -0.7587 O   0  0  0  0  0  0  0  0  0  0  0  0
    6.5408    9.0225   -3.0122 C   0  0  1  0  0  0  0  0  0  0  0  0
    5.7826    8.2339   -3.9567 O   0  0  0  0  0  0  0  0  0  0  0  0
    5.6639   -0.2818    2.4245 C   0  0  2  0  0  0  0  0  0  0  0  0
    5.5981   -0.3209    1.0179 O   0  0  0  0  0  0  0  0  0  0  0  0
    8.0355    2.7555    5.0810 C   0  0  2  0  0  0  0  0  0  0  0  0
    6.2155    4.8194    0.0926 C   0  0  2  0  0  0  0  0  0  0  0  0
    6.4419    4.8842    1.4986 O   0  0  0  0  0  0  0  0  0  0  0  0
    5.5583    9.6006   -1.8861 C   0  0  2  0  0  0  0  0  0  0  0  0
    6.2892   10.5660   -1.1309 O   0  0  0  0  0  0  0  0  0  0  0  0
    5.5485    1.1905    2.9429 C   0  0  2  0  0  0  0  0  0  0  0  0
    5.6290    1.2055    4.4034 O   0  0  0  0  0  0  0  0  0  0  0  0
    7.1615    3.5605    4.0944 C   0  0  2  0  0  0  0  0  0  0  0  0
    7.8461    3.4683    2.8148 O   0  0  0  0  0  0  0  0  0  0  0  0
    5.3835    3.5545   -0.2843 C   0  0  0  0  0  0  0  0  0  0  0  0
    5.3335    3.4296   -1.7023 O   0  0  0  0  0  0  0  0  0  0  0  0
    5.0495    8.4438   -0.9453 C   0  0  1  0  0  0  0  0  0  0  0  0
    6.2563    7.8115   -0.3848 O   0  0  0  0  0  0  0  0  0  0  0  0
    4.2621    1.8584    2.5150 C   0  0  0  0  0  0  0  0  0  0  0  0
    4.2464    3.1987    2.9423 O   0  0  0  0  0  0  0  0  0  0  0  0
    7.0511    5.0710    4.5654 C   0  0  1  0  0  0  0  0  0  0  0  0
    6.1223    5.7787    3.7395 O   0  0  0  0  0  0  0  0  0  0  0  0
    4.0922    8.9352    0.2256 C   0  0  0  0  0  0  0  0  0  0  0  0
    3.4961    7.8578    1.0625 N   0  0  0  0  0  0  0  0  0  0  0  0
  1  2  1  6  0  0  0
  1  7  1  0  0  0  0
  1 30  1  0  0  0  0
  3  4  1  1  0  0  0
  3  9  1  0  0  0  0
  3 39  1  0  0  0  0
  5 10  1  0  0  0  0
  5 26  1  0  0  0  0
  5 32  1  1  0  0  0
  6 12  1  0  0  0  0
  6 36  1  0  0  0  0
  6 19  1  1  0  0  0
  7  8  1  6  0  0  0
  7 14  1  0  0  0  0
  9 16  1  0  0  0  0
 10 11  1  1  0  0  0
 10 18  1  0  0  0  0
 12 13  1  1  0  0  0
 12 20  1  0  0  0  0
 14 15  1  1  0  0  0
 14 22  1  0  0  0  0
 16 17  1  1  0  0  0
 16 24  1  0  0  0  0
 18 19  1  1  0  0  0
 18 25  1  0  0  0  0
 20 21  1  6  0  0  0
 20 27  1  0  0  0  0
 22 23  1  6  0  0  0
 22 29  1  0  0  0  0
 24  2  1  6  0  0  0
 24 31  1  0  0  0  0
 25 26  1  0  0  0  0
 25 33  1  1  0  0  0
 27 28  1  1  0  0  0
 27 35  1  0  0  0  0
 29 30  1  0  0  0  0
 29 37  1  1  0  0  0
 31 32  1  6  0  0  0
 31 39  1  0  0  0  0
 33 34  1  0  0  0  0
 35 36  1  0  0  0  0
 35 41  1  1  0  0  0
 37 38  1  0  0  0  0
 39 40  1  6  0  0  0
 41 42  1  0  0  0  0
M  END
>  <CHROM.1>
177.87480298,-176.80561263,-145.13602590,-162.70948590,47.25930603,-55.76604205
-176.65379288,-147.34506537,174.86002018,6.66130664,4.30631481,1.87444171
-0.82481830,-1.46320511,0.05903764

>  <Name>
2o3w_lig

>  <RI>
0

>  <Rbt.Current_Directory>
/home/itssahil/PROJECTS/Mol_Feturizer/New_Systems/rnas/2o3w

>  <Rbt.Executable>
rbdock ($Id: //depot/dev/client3/rdock/2013.1/src/exe/rbdock.cxx#4 $)

>  <Rbt.Library>
libRbt.so (2013.1, Build901 2013/11/27)

>  <Rbt.Parameter_File>
/export/apps/rDock/src/rDock_2013.1_src/data/scripts/dock_solv.prm

>  <Rbt.Receptor>
prm/pocket_docking_4.prm

>  <SCORE>
-17.3958

>  <SCORE.INTER>
-10.8736

>  <SCORE.INTER.CONST>
1

>  <SCORE.INTER.POLAR>
-2.92108

>  <SCORE.INTER.ROT>
9

>  <SCORE.INTER.SOLV>
15.2207

>  <SCORE.INTER.VDW>
-12.1857

>  <SCORE.INTER.norm>
-0.258894

>  <SCORE.INTRA>
-7.09005

>  <SCORE.INTRA.DIHEDRAL>
-16.8129

>  <SCORE.INTRA.DIHEDRAL.0>
27.8999

>  <SCORE.INTRA.POLAR>
0

>  <SCORE.INTRA.POLAR.0>
0

>  <SCORE.INTRA.REPUL>
0

>  <SCORE.INTRA.REPUL.0>
0

>  <SCORE.INTRA.SOLV>
-3.69785

>  <SCORE.INTRA.SOLV.lig_0>
-104.479

>  <SCORE.INTRA.VDW>
3.16531

>  <SCORE.INTRA.VDW.0>
-6.17816

>  <SCORE.INTRA.norm>
-0.168811

>  <SCORE.RESTR>
0.567812

>  <SCORE.RESTR.CAVITY>
0.567812

>  <SCORE.RESTR.norm>
0.0135193

>  <SCORE.SYSTEM>
0

>  <SCORE.SYSTEM.CONST>
0

>  <SCORE.SYSTEM.DIHEDRAL>
0

>  <SCORE.SYSTEM.SOLV>
0

>  <SCORE.SYSTEM.norm>
0

>  <SCORE.heavy>
42

>  <SCORE.norm>
-0.414186

>  <RMSD>
3.890

$$$$
2o3w_lig
 OpenBabel11021811463D
libRbt.so/2013.1/901 2013/11/27
 42 45  0  0  0  0  0  0  0  0999 V2000
    8.8259    3.0811    2.7778 C   0  0  2  0  0  0  0  0  0  0  0  0
    9.3032    3.4763    4.0752 O   0  0  0  0  0  0  0  0  0  0  0  0
   11.7195    6.7897    5.4818 C   0  0  2  0  0  0  0  0  0  0  0  0
   12.8116    7.7975    5.6309 N   0  0  0  0  0  0  0  0  0  0  0  0
    8.7033    6.7205    1.8034 C   0  0  1  0  0  0  0  0  0  0  0  0
    5.5098    8.7189   -0.3199 C   0  0  1  0  0  0  0  0  0  0  0  0
    7.4969    2.2986    3.0008 C   0  0  2  0  0  0  0  0  0  0  0  0
    6.5569    3.0216    3.8750 N   0  0  0  0  0  0  0  0  0  0  0  0
   12.2488    5.3249    5.7573 C   0  0  0  0  0  0  0  0  0  0  0  0
    8.5003    6.4631    0.2792 C   0  0  2  0  0  0  0  0  0  0  0  0
    9.4285    7.1831   -0.5688 O   0  0  0  0  0  0  0  0  0  0  0  0
    4.5349    7.7543   -1.0866 C   0  0  2  0  0  0  0  0  0  0  0  0
    5.0565    7.4427   -2.4511 N   0  0  0  0  0  0  0  0  0  0  0  0
    7.7317    0.9196    3.6443 C   0  0  1  0  0  0  0  0  0  0  0  0
    6.4934    0.2229    3.7933 O   0  0  0  0  0  0  0  0  0  0  0  0
   11.0505    4.3128    5.6075 C   0  0  2  0  0  0  0  0  0  0  0  0
   11.5104    2.9233    5.8747 N   0  0  0  0  0  0  0  0  0  0  0  0
    7.0257    6.8316    0.1095 C   0  0  2  0  0  0  0  0  0  0  0  0
    6.8594    8.2475   -0.2198 O   0  0  0  0  0  0  0  0  0  0  0  0
    3.0817    8.4243   -1.1651 C   0  0  1  0  0  0  0  0  0  0  0  0
    2.4654    8.3578    0.1405 O   0  0  0  0  0  0  0  0  0  0  0  0
    8.7330    0.1137    2.7857 C   0  0  2  0  0  0  0  0  0  0  0  0
    8.9459   -1.1582    3.3526 O   0  0  0  0  0  0  0  0  0  0  0  0
   10.4292    4.3960    4.1574 C   0  0  2  0  0  0  0  0  0  0  0  0
    6.3455    6.4866    1.4450 C   0  0  2  0  0  0  0  0  0  0  0  0
    7.3853    6.6940    2.3980 O   0  0  0  0  0  0  0  0  0  0  0  0
    3.1250    9.9476   -1.6604 C   0  0  2  0  0  0  0  0  0  0  0  0
    3.5011    9.9426   -3.0369 O   0  0  0  0  0  0  0  0  0  0  0  0
   10.0779    0.9084    2.6891 C   0  0  2  0  0  0  0  0  0  0  0  0
    9.8293    2.2272    2.1071 O   0  0  0  0  0  0  0  0  0  0  0  0
    9.9404    5.8157    3.7958 C   0  0  2  0  0  0  0  0  0  0  0  0
    9.5796    5.7486    2.3887 O   0  0  0  0  0  0  0  0  0  0  0  0
    5.7787    5.0360    1.5395 C   0  0  0  0  0  0  0  0  0  0  0  0
    4.9469    4.9300    2.6909 O   0  0  0  0  0  0  0  0  0  0  0  0
    4.1630   10.7778   -0.8145 C   0  0  1  0  0  0  0  0  0  0  0  0
    5.4565   10.0886   -0.9633 O   0  0  0  0  0  0  0  0  0  0  0  0
   11.1176    0.1929    1.8579 C   0  0  0  0  0  0  0  0  0  0  0  0
   11.4602   -1.0320    2.4593 O   0  0  0  0  0  0  0  0  0  0  0  0
   11.1006    6.8717    4.0290 C   0  0  1  0  0  0  0  0  0  0  0  0
   10.6043    8.1997    3.8402 O   0  0  0  0  0  0  0  0  0  0  0  0
    4.2953   12.2978   -1.2625 C   0  0  0  0  0  0  0  0  0  0  0  0
    4.6633   12.5174   -2.6883 N   0  0  0  0  0  0  0  0  0  0  0  0
  1  2  1  1  0  0  0
  1  7  1  0  0  0  0
  1 30  1  0  0  0  0
  3  4  1  6  0  0  0
  3  9  1  0  0  0  0
  3 39  1  0  0  0  0
  5 10  1  0  0  0  0
  5 26  1  0  0  0  0
  5 32  1  1  0  0  0
  6 12  1  0  0  0  0
  6 36  1  0  0  0  0
  6 19  1  6  0  0  0
  7  8  1  1  0  0  0
  7 14  1  0  0  0  0
  9 16  1  0  0  0  0
 10 11  1  6  0  0  0
 10 18  1  0  0  0  0
 12 13  1  6  0  0  0
 12 20  1  0  0  0  0
 14 15  1  6  0  0  0
 14 22  1  0  0  0  0
 16 17  1  6  0  0  0
 16 24  1  0  0  0  0
 18 19  1  1  0  0  0
 18 25  1  0  0  0  0
 20 21  1  1  0  0  0
 20 27  1  0  0  0  0
 22 23  1  1  0  0  0
 22 29  1  0  0  0  0
 24  2  1  1  0  0  0
 24 31  1  0  0  0  0
 25 26  1  0  0  0  0
 25 33  1  6  0  0  0
 27 28  1  6  0  0  0
 27 35  1  0  0  0  0
 29 30  1  0  0  0  0
 29 37  1  6  0  0  0
 31 32  1  6  0  0  0
 31 39  1  0  0  0  0
 33 34  1  0  0  0  0
 35 36  1  0  0  0  0
 35 41  1  6  0  0  0
 37 38  1  0  0  0  0
 39 40  1  1  0  0  0
 41 42  1  0  0  0  0
M  END
>  <CHROM.1>
-170.98249733,178.33336124,-42.92655705,-176.29029958,-161.99775900,-168.16260487
-63.11915697,159.98141167,-56.95776202,7.80902822,5.62995008,1.82330613,0.87086920
0.61576003,2.99943318

>  <Name>
2o3w_lig

>  <RI>
0

>  <Rbt.Current_Directory>
/home/itssahil/PROJECTS/Mol_Feturizer/New_Systems/rnas/2o3w

>  <Rbt.Executable>
rbdock ($Id: //depot/dev/client3/rdock/2013.1/src/exe/rbdock.cxx#4 $)

>  <Rbt.Library>
libRbt.so (2013.1, Build901 2013/11/27)

>  <Rbt.Parameter_File>
/export/apps/rDock/src/rDock_2013.1_src/data/scripts/dock_solv.prm

>  <Rbt.Receptor>
prm/pocket_docking_5.prm

>  <SCORE>
-23.18

>  <SCORE.INTER>
-13.476

>  <SCORE.INTER.CONST>
1

>  <SCORE.INTER.POLAR>
-1.8389

>  <SCORE.INTER.ROT>
9

>  <SCORE.INTER.SOLV>
10.1433

>  <SCORE.INTER.VDW>
-15.8354

>  <SCORE.INTER.norm>
-0.320857

>  <SCORE.INTRA>
-9.70399

>  <SCORE.INTRA.DIHEDRAL>
-22.1392

>  <SCORE.INTRA.DIHEDRAL.0>
27.8999

>  <SCORE.INTRA.POLAR>
0

>  <SCORE.INTRA.POLAR.0>
0

>  <SCORE.INTRA.REPUL>
0

>  <SCORE.INTRA.REPUL.0>
0

>  <SCORE.INTRA.SOLV>
-1.06368

>  <SCORE.INTRA.SOLV.lig_0>
-104.479

>  <SCORE.INTRA.VDW>
1.89745

>  <SCORE.INTRA.VDW.0>
-6.17816

>  <SCORE.INTRA.norm>
-0.231047

>  <SCORE.RESTR>
0

>  <SCORE.RESTR.CAVITY>
0

>  <SCORE.RESTR.norm>
0

>  <SCORE.SYSTEM>
0

>  <SCORE.SYSTEM.CONST>
0

>  <SCORE.SYSTEM.DIHEDRAL>
0

>  <SCORE.SYSTEM.SOLV>
0

>  <SCORE.SYSTEM.norm>
0

>  <SCORE.heavy>
42

>  <SCORE.norm>
-0.551905

>  <RMSD>
3.997

$$$$
2o3w_lig
 OpenBabel11021811463D
libRbt.so/2013.1/901 2013/11/27
 42 45  0  0  0  0  0  0  0  0999 V2000
   11.9756    0.4495    5.7056 C   0  0  2  0  0  0  0  0  0  0  0  0
   12.7105    1.6454    5.3939 O   0  0  0  0  0  0  0  0  0  0  0  0
   11.1525    4.1707    8.5548 C   0  0  2  0  0  0  0  0  0  0  0  0
   10.9459    5.3044    9.5048 N   0  0  0  0  0  0  0  0  0  0  0  0
   10.4746    4.9660    4.0985 C   0  0  1  0  0  0  0  0  0  0  0  0
    7.8200    7.0783    1.3075 C   0  0  1  0  0  0  0  0  0  0  0  0
   12.2385   -0.5607    4.5487 C   0  0  2  0  0  0  0  0  0  0  0  0
   13.6724   -0.7089    4.2445 N   0  0  0  0  0  0  0  0  0  0  0  0
   12.5473    3.4654    8.7974 C   0  0  0  0  0  0  0  0  0  0  0  0
   11.0030    5.6640    2.8084 C   0  0  2  0  0  0  0  0  0  0  0  0
   11.6200    6.9531    3.0464 O   0  0  0  0  0  0  0  0  0  0  0  0
    8.1564    7.3046   -0.2105 C   0  0  2  0  0  0  0  0  0  0  0  0
    9.0848    8.4616   -0.3845 N   0  0  0  0  0  0  0  0  0  0  0  0
   11.5470   -0.1412    3.2384 C   0  0  1  0  0  0  0  0  0  0  0  0
   11.7814   -1.1140    2.2187 O   0  0  0  0  0  0  0  0  0  0  0  0
   12.6968    2.2682    7.7840 C   0  0  2  0  0  0  0  0  0  0  0  0
   13.9945    1.5715    7.9942 N   0  0  0  0  0  0  0  0  0  0  0  0
    9.7418    5.6832    1.9433 C   0  0  2  0  0  0  0  0  0  0  0  0
    8.9641    6.9046    2.1529 O   0  0  0  0  0  0  0  0  0  0  0  0
    6.7957    7.5310   -1.0255 C   0  0  1  0  0  0  0  0  0  0  0  0
    6.1069    6.2661   -1.1453 O   0  0  0  0  0  0  0  0  0  0  0  0
   10.0352    0.0560    3.4934 C   0  0  2  0  0  0  0  0  0  0  0  0
    9.3847    0.4241    2.2993 O   0  0  0  0  0  0  0  0  0  0  0  0
   12.6081    2.7855    6.2939 C   0  0  2  0  0  0  0  0  0  0  0  0
    8.9361    4.4345    2.3398 C   0  0  2  0  0  0  0  0  0  0  0  0
    9.2749    4.2566    3.7131 O   0  0  0  0  0  0  0  0  0  0  0  0
    5.8280    8.6049   -0.3342 C   0  0  2  0  0  0  0  0  0  0  0  0
    6.4434    9.8858   -0.4637 O   0  0  0  0  0  0  0  0  0  0  0  0
    9.8417    1.1555    4.5903 C   0  0  2  0  0  0  0  0  0  0  0  0
   10.5333    0.7552    5.8155 O   0  0  0  0  0  0  0  0  0  0  0  0
   11.2917    3.5370    5.9982 C   0  0  2  0  0  0  0  0  0  0  0  0
   11.4602    4.0928    4.6651 O   0  0  0  0  0  0  0  0  0  0  0  0
    9.2590    3.1525    1.5113 C   0  0  0  0  0  0  0  0  0  0  0  0
    9.1425    3.4479    0.1228 O   0  0  0  0  0  0  0  0  0  0  0  0
    5.6078    8.2569    1.1866 C   0  0  1  0  0  0  0  0  0  0  0  0
    6.9487    8.2166    1.7954 O   0  0  0  0  0  0  0  0  0  0  0  0
    8.3864    1.4096    4.9085 C   0  0  0  0  0  0  0  0  0  0  0  0
    8.2749    2.3345    5.9627 O   0  0  0  0  0  0  0  0  0  0  0  0
   11.0666    4.6902    7.0637 C   0  0  1  0  0  0  0  0  0  0  0  0
    9.7788    5.2853    6.8821 O   0  0  0  0  0  0  0  0  0  0  0  0
    4.6836    9.2936    1.9609 C   0  0  0  0  0  0  0  0  0  0  0  0
    3.3008    9.4428    1.4296 N   0  0  0  0  0  0  0  0  0  0  0  0
  1  2  1  6  0  0  0
  1  7  1  0  0  0  0
  1 30  1  0  0  0  0
  3  4  1  1  0  0  0
  3  9  1  0  0  0  0
  3 39  1  0  0  0  0
  5 10  1  0  0  0  0
  5 26  1  0  0  0  0
  5 32  1  6  0  0  0
  6 12  1  0  0  0  0
  6 36  1  0  0  0  0
  6 19  1  1  0  0  0
  7  8  1  6  0  0  0
  7 14  1  0  0  0  0
  9 16  1  0  0  0  0
 10 11  1  1  0  0  0
 10 18  1  0  0  0  0
 12 13  1  1  0  0  0
 12 20  1  0  0  0  0
 14 15  1  6  0  0  0
 14 22  1  0  0  0  0
 16 17  1  6  0  0  0
 16 24  1  0  0  0  0
 18 19  1  1  0  0  0
 18 25  1  0  0  0  0
 20 21  1  1  0  0  0
 20 27  1  0  0  0  0
 22 23  1  6  0  0  0
 22 29  1  0  0  0  0
 24  2  1  6  0  0  0
 24 31  1  0  0  0  0
 25 26  1  0  0  0  0
 25 33  1  6  0  0  0
 27 28  1  1  0  0  0
 27 35  1  0  0  0  0
 29 30  1  0  0  0  0
 29 37  1  1  0  0  0
 31 32  1  6  0  0  0
 31 39  1  0  0  0  0
 33 34  1  0  0  0  0
 35 36  1  0  0  0  0
 35 41  1  1  0  0  0
 37 38  1  0  0  0  0
 39 40  1  6  0  0  0
 41 42  1  0  0  0  0
M  END
>  <CHROM.1>
177.92960714,168.06050957,-67.24031837,174.87634536,43.33960356,-52.90440973
175.87040623,-174.30138197,59.95790676,9.67448568,4.25841138,3.58629312,0.06117944
1.01638554,-2.33711314

>  <Name>
2o3w_lig

>  <RI>
0

>  <Rbt.Current_Directory>
/home/itssahil/PROJECTS/Mol_Feturizer/New_Systems/rnas/2o3w

>  <Rbt.Executable>
rbdock ($Id: //depot/dev/client3/rdock/2013.1/src/exe/rbdock.cxx#4 $)

>  <Rbt.Library>
libRbt.so (2013.1, Build901 2013/11/27)

>  <Rbt.Parameter_File>
/export/apps/rDock/src/rDock_2013.1_src/data/scripts/dock_solv.prm

>  <Rbt.Receptor>
prm/pocket_docking_6.prm

>  <SCORE>
-24.5313

>  <SCORE.INTER>
-11.5204

>  <SCORE.INTER.CONST>
1

>  <SCORE.INTER.POLAR>
-1.8813

>  <SCORE.INTER.ROT>
9

>  <SCORE.INTER.SOLV>
15.6744

>  <SCORE.INTER.VDW>
-16.2341

>  <SCORE.INTER.norm>
-0.274296

>  <SCORE.INTRA>
-13.0109

>  <SCORE.INTRA.DIHEDRAL>
-25.008

>  <SCORE.INTRA.DIHEDRAL.0>
27.8999

>  <SCORE.INTRA.POLAR>
0

>  <SCORE.INTRA.POLAR.0>
0

>  <SCORE.INTRA.REPUL>
0

>  <SCORE.INTRA.REPUL.0>
0

>  <SCORE.INTRA.SOLV>
-3.28849

>  <SCORE.INTRA.SOLV.lig_0>
-104.479

>  <SCORE.INTRA.VDW>
1.13736

>  <SCORE.INTRA.VDW.0>
-6.17816

>  <SCORE.INTRA.norm>
-0.309783

>  <SCORE.RESTR>
0

>  <SCORE.RESTR.CAVITY>
0

>  <SCORE.RESTR.norm>
0

>  <SCORE.SYSTEM>
0

>  <SCORE.SYSTEM.CONST>
0

>  <SCORE.SYSTEM.DIHEDRAL>
0

>  <SCORE.SYSTEM.SOLV>
0

>  <SCORE.SYSTEM.norm>
0

>  <SCORE.heavy>
42

>  <SCORE.norm>
-0.584078

>  <RMSD>
4.022

$$$$
2o3w_lig
 OpenBabel11021811463D
libRbt.so/2013.1/901 2013/11/27
 42 45  0  0  0  0  0  0  0  0999 V2000
    9.6003    1.5771    5.0309 C   0  0  2  0  0  0  0  0  0  0  0  0
   10.7278    2.0748    4.2904 O   0  0  0  0  0  0  0  0  0  0  0  0
   12.6226    4.3453    7.4606 C   0  0  2  0  0  0  0  0  0  0  0  0
   13.6113    5.1277    8.2611 N   0  0  0  0  0  0  0  0  0  0  0  0
   10.2142    5.6227    3.3588 C   0  0  1  0  0  0  0  0  0  0  0  0
    7.6881    8.3646    0.9621 C   0  0  1  0  0  0  0  0  0  0  0  0
    8.6586    0.8736    4.0080 C   0  0  2  0  0  0  0  0  0  0  0  0
    9.3759   -0.0822    3.1463 N   0  0  0  0  0  0  0  0  0  0  0  0
   13.1260    2.8663    7.2135 C   0  0  0  0  0  0  0  0  0  0  0  0
   10.7088    6.9820    2.7770 C   0  0  2  0  0  0  0  0  0  0  0  0
   10.7464    8.0588    3.7456 O   0  0  0  0  0  0  0  0  0  0  0  0
    6.4736    9.2424    1.4345 C   0  0  2  0  0  0  0  0  0  0  0  0
    5.6610    8.5213    2.4596 N   0  0  0  0  0  0  0  0  0  0  0  0
    7.9582    1.8765    3.0729 C   0  0  1  0  0  0  0  0  0  0  0  0
    7.0769    1.1926    2.1804 O   0  0  0  0  0  0  0  0  0  0  0  0
   12.0345    2.0873    6.3864 C   0  0  2  0  0  0  0  0  0  0  0  0
   12.4697    0.6847    6.1475 N   0  0  0  0  0  0  0  0  0  0  0  0
    9.7401    7.1753    1.6092 C   0  0  2  0  0  0  0  0  0  0  0  0
    8.5439    7.9116    2.0186 O   0  0  0  0  0  0  0  0  0  0  0  0
    5.5799    9.6358    0.1643 C   0  0  1  0  0  0  0  0  0  0  0  0
    6.2802   10.6372   -0.6075 O   0  0  0  0  0  0  0  0  0  0  0  0
    7.2023    2.9276    3.9173 C   0  0  2  0  0  0  0  0  0  0  0  0
    6.5416    3.8437    3.0756 O   0  0  0  0  0  0  0  0  0  0  0  0
   11.7683    2.8025    5.0031 C   0  0  2  0  0  0  0  0  0  0  0  0
    9.3834    5.7631    1.1154 C   0  0  2  0  0  0  0  0  0  0  0  0
    9.4672    4.9773    2.3021 O   0  0  0  0  0  0  0  0  0  0  0  0
    5.2403    8.3794   -0.7704 C   0  0  2  0  0  0  0  0  0  0  0  0
    4.3407    7.5374   -0.0505 O   0  0  0  0  0  0  0  0  0  0  0  0
    8.2229    3.6663    4.8459 C   0  0  2  0  0  0  0  0  0  0  0  0
    8.9020    2.6940    5.7022 O   0  0  0  0  0  0  0  0  0  0  0  0
   11.3260    4.2734    5.1648 C   0  0  2  0  0  0  0  0  0  0  0  0
   11.3084    4.8174    3.8164 O   0  0  0  0  0  0  0  0  0  0  0  0
   10.3193    5.1993    0.0017 C   0  0  0  0  0  0  0  0  0  0  0  0
    9.8955    3.8852   -0.3483 O   0  0  0  0  0  0  0  0  0  0  0  0
    6.5526    7.5883   -1.1368 C   0  0  1  0  0  0  0  0  0  0  0  0
    7.1681    7.2010    0.1444 O   0  0  0  0  0  0  0  0  0  0  0  0
    7.5656    4.7125    5.7160 C   0  0  0  0  0  0  0  0  0  0  0  0
    8.5321    5.3666    6.5017 O   0  0  0  0  0  0  0  0  0  0  0  0
   12.3593    5.0604    6.0751 C   0  0  1  0  0  0  0  0  0  0  0  0
   11.8726    6.3772    6.3489 O   0  0  0  0  0  0  0  0  0  0  0  0
    6.3031    6.3020   -2.0378 C   0  0  0  0  0  0  0  0  0  0  0  0
    5.4346    5.2540   -1.4346 N   0  0  0  0  0  0  0  0  0  0  0  0
  1  2  1  6  0  0  0
  1  7  1  0  0  0  0
  1 30  1  0  0  0  0
  3  4  1  6  0  0  0
  3  9  1  0  0  0  0
  3 39  1  0  0  0  0
  5 10  1  0  0  0  0
  5 26  1  0  0  0  0
  5 32  1  6  0  0  0
  6 12  1  0  0  0  0
  6 36  1  0  0  0  0
  6 19  1  1  0  0  0
  7  8  1  6  0  0  0
  7 14  1  0  0  0  0
  9 16  1  0  0  0  0
 10 11  1  1  0  0  0
 10 18  1  0  0  0  0
 12 13  1  1  0  0  0
 12 20  1  0  0  0  0
 14 15  1  6  0  0  0
 14 22  1  0  0  0  0
 16 17  1  6  0  0  0
 16 24  1  0  0  0  0
 18 19  1  1  0  0  0
 18 25  1  0  0  0  0
 20 21  1  6  0  0  0
 20 27  1  0  0  0  0
 22 23  1  6  0  0  0
 22 29  1  0  0  0  0
 24  2  1  1  0  0  0
 24 31  1  0  0  0  0
 25 26  1  0  0  0  0
 25 33  1  6  0  0  0
 27 28  1  1  0  0  0
 27 35  1  0  0  0  0
 29 30  1  0  0  0  0
 29 37  1  1  0  0  0
 31 32  1  6  0  0  0
 31 39  1  0  0  0  0
 33 34  1  0  0  0  0
 35 36  1  0  0  0  0
 35 41  1  6  0  0  0
 37 38  1  0  0  0  0
 39 40  1  1  0  0  0
 41 42  1  0  0  0  0
M  END
>  <CHROM.1>
179.08708719,126.95813825,-175.62619838,168.84115876,40.50601393,179.06357522
-178.46315947,135.00730470,-60.76787009,8.99500456,5.09633651,3.05662994
0.67109252,0.80715819,2.99563082

>  <Name>
2o3w_lig

>  <RI>
0

>  <Rbt.Current_Directory>
/home/itssahil/PROJECTS/Mol_Feturizer/New_Systems/rnas/2o3w

>  <Rbt.Executable>
rbdock ($Id: //depot/dev/client3/rdock/2013.1/src/exe/rbdock.cxx#4 $)

>  <Rbt.Library>
libRbt.so (2013.1, Build901 2013/11/27)

>  <Rbt.Parameter_File>
/export/apps/rDock/src/rDock_2013.1_src/data/scripts/dock_solv.prm

>  <Rbt.Receptor>
prm/pocket_docking_4.prm

>  <SCORE>
-20.9849

>  <SCORE.INTER>
-13.6148

>  <SCORE.INTER.CONST>
1

>  <SCORE.INTER.POLAR>
-1.85058

>  <SCORE.INTER.ROT>
9

>  <SCORE.INTER.SOLV>
8.86431

>  <SCORE.INTER.VDW>
-15.4627

>  <SCORE.INTER.norm>
-0.324161

>  <SCORE.INTRA>
-7.37014

>  <SCORE.INTRA.DIHEDRAL>
-12.2423

>  <SCORE.INTRA.DIHEDRAL.0>
27.8999

>  <SCORE.INTRA.POLAR>
0

>  <SCORE.INTRA.POLAR.0>
0

>  <SCORE.INTRA.REPUL>
0

>  <SCORE.INTRA.REPUL.0>
0

>  <SCORE.INTRA.SOLV>
-2.37436

>  <SCORE.INTRA.SOLV.lig_0>
-104.479

>  <SCORE.INTRA.VDW>
-0.0618145

>  <SCORE.INTRA.VDW.0>
-6.17816

>  <SCORE.INTRA.norm>
-0.175479

>  <SCORE.RESTR>
0

>  <SCORE.RESTR.CAVITY>
0

>  <SCORE.RESTR.norm>
0

>  <SCORE.SYSTEM>
0

>  <SCORE.SYSTEM.CONST>
0

>  <SCORE.SYSTEM.DIHEDRAL>
0

>  <SCORE.SYSTEM.SOLV>
0

>  <SCORE.SYSTEM.norm>
0

>  <SCORE.heavy>
42

>  <SCORE.norm>
-0.499641

>  <RMSD>
4.054

$$$$
2o3w_lig
 OpenBabel11021811463D
libRbt.so/2013.1/901 2013/11/27
 42 45  0  0  0  0  0  0  0  0999 V2000
   10.0336    1.5255    5.6291 C   0  0  2  0  0  0  0  0  0  0  0  0
   10.1693    2.7346    4.8631 O   0  0  0  0  0  0  0  0  0  0  0  0
    6.7660    4.8478    6.5210 C   0  0  2  0  0  0  0  0  0  0  0  0
    5.6974    5.8615    6.7674 N   0  0  0  0  0  0  0  0  0  0  0  0
    7.8769    4.0165    2.3172 C   0  0  1  0  0  0  0  0  0  0  0  0
    7.2220    6.6429   -1.0151 C   0  0  1  0  0  0  0  0  0  0  0  0
   11.3378    0.7008    5.4125 C   0  0  2  0  0  0  0  0  0  0  0  0
   12.5545    1.5034    5.6272 N   0  0  0  0  0  0  0  0  0  0  0  0
    8.2039    5.4563    6.7743 C   0  0  0  0  0  0  0  0  0  0  0  0
    8.0918    3.4725    0.8719 C   0  0  2  0  0  0  0  0  0  0  0  0
    9.4822    3.3969    0.4715 O   0  0  0  0  0  0  0  0  0  0  0  0
    8.0877    7.7213   -1.7609 C   0  0  2  0  0  0  0  0  0  0  0  0
    9.0965    8.3255   -0.8399 N   0  0  0  0  0  0  0  0  0  0  0  0
   11.4329    0.1209    3.9893 C   0  0  1  0  0  0  0  0  0  0  0  0
   12.6218   -0.6586    3.8482 O   0  0  0  0  0  0  0  0  0  0  0  0
    9.2835    4.3371    6.5210 C   0  0  2  0  0  0  0  0  0  0  0  0
   10.6503    4.8720    6.7647 N   0  0  0  0  0  0  0  0  0  0  0  0
    7.2202    4.4323    0.0606 C   0  0  2  0  0  0  0  0  0  0  0  0
    7.9785    5.6015   -0.3852 O   0  0  0  0  0  0  0  0  0  0  0  0
    7.1220    8.8438   -2.3728 C   0  0  1  0  0  0  0  0  0  0  0  0
    6.4329    8.2935   -3.5179 O   0  0  0  0  0  0  0  0  0  0  0  0
   10.1695   -0.7173    3.6885 C   0  0  2  0  0  0  0  0  0  0  0  0
   10.2488   -1.2692    2.3949 O   0  0  0  0  0  0  0  0  0  0  0  0
    9.1837    3.7916    5.0416 C   0  0  2  0  0  0  0  0  0  0  0  0
    6.0617    4.8394    0.9866 C   0  0  2  0  0  0  0  0  0  0  0  0
    6.6526    4.7853    2.2829 O   0  0  0  0  0  0  0  0  0  0  0  0
    6.0504    9.3875   -1.3128 C   0  0  2  0  0  0  0  0  0  0  0  0
    6.7602   10.1403   -0.3300 O   0  0  0  0  0  0  0  0  0  0  0  0
    8.9063    0.1969    3.8234 C   0  0  2  0  0  0  0  0  0  0  0  0
    8.8517    0.7649    5.1703 O   0  0  0  0  0  0  0  0  0  0  0  0
    7.7850    3.2310    4.7032 C   0  0  2  0  0  0  0  0  0  0  0  0
    7.8201    2.9526    3.2764 O   0  0  0  0  0  0  0  0  0  0  0  0
    4.8013    3.9233    0.9056 C   0  0  0  0  0  0  0  0  0  0  0  0
    5.1626    2.5932    1.2650 O   0  0  0  0  0  0  0  0  0  0  0  0
    5.2836    8.1904   -0.6337 C   0  0  1  0  0  0  0  0  0  0  0  0
    6.3167    7.3381   -0.0201 O   0  0  0  0  0  0  0  0  0  0  0  0
    7.6189   -0.5462    3.5512 C   0  0  0  0  0  0  0  0  0  0  0  0
    7.5541   -0.9242    2.1976 O   0  0  0  0  0  0  0  0  0  0  0  0
    6.6672    4.3048    5.0392 C   0  0  1  0  0  0  0  0  0  0  0  0
    5.3671    3.7334    4.8694 O   0  0  0  0  0  0  0  0  0  0  0  0
    4.2206    8.6396    0.4603 C   0  0  0  0  0  0  0  0  0  0  0  0
    4.7889    9.2257    1.7053 N   0  0  0  0  0  0  0  0  0  0  0  0
  1  2  1  6  0  0  0
  1  7  1  0  0  0  0
  1 30  1  0  0  0  0
  3  4  1  6  0  0  0
  3  9  1  0  0  0  0
  3 39  1  0  0  0  0
  5 10  1  0  0  0  0
  5 26  1  0  0  0  0
  5 32  1  1  0  0  0
  6 12  1  0  0  0  0
  6 36  1  0  0  0  0
  6 19  1  1  0  0  0
  7  8  1  6  0  0  0
  7 14  1  0  0  0  0
  9 16  1  0  0  0  0
 10 11  1  6  0  0  0
 10 18  1  0  0  0  0
 12 13  1  1  0  0  0
 12 20  1  0  0  0  0
 14 15  1  1  0  0  0
 14 22  1  0  0  0  0
 16 17  1  6  0  0  0
 16 24  1  0  0  0  0
 18 19  1  1  0  0  0
 18 25  1  0  0  0  0
 20 21  1  6  0  0  0
 20 27  1  0  0  0  0
 22 23  1  6  0  0  0
 22 29  1  0  0  0  0
 24  2  1  1  0  0  0
 24 31  1  0  0  0  0
 25 26  1  0  0  0  0
 25 33  1  1  0  0  0
 27 28  1  1  0  0  0
 27 35  1  0  0  0  0
 29 30  1  0  0  0  0
 29 37  1  1  0  0  0
 31 32  1  6  0  0  0
 31 39  1  0  0  0  0
 33 34  1  0  0  0  0
 35 36  1  0  0  0  0
 35 41  1  1  0  0  0
 37 38  1  0  0  0  0
 39 40  1  1  0  0  0
 41 42  1  0  0  0  0
M  END
>  <CHROM.1>
-170.61866609,172.62285901,-166.98246737,-172.72830144,64.45228097,60.17281534
-67.23533849,-69.17190236,-68.63545577,7.93805901,4.17417590,2.48564805,0.64020212
-1.08413690,1.62083908

>  <Name>
2o3w_lig

>  <RI>
0

>  <Rbt.Current_Directory>
/home/itssahil/PROJECTS/Mol_Feturizer/New_Systems/rnas/2o3w

>  <Rbt.Executable>
rbdock ($Id: //depot/dev/client3/rdock/2013.1/src/exe/rbdock.cxx#4 $)

>  <Rbt.Library>
libRbt.so (2013.1, Build901 2013/11/27)

>  <Rbt.Parameter_File>
/export/apps/rDock/src/rDock_2013.1_src/data/scripts/dock_solv.prm

>  <Rbt.Receptor>
prm/pocket_docking_4.prm

>  <SCORE>
-20.3547

>  <SCORE.INTER>
-9.81316

>  <SCORE.INTER.CONST>
1

>  <SCORE.INTER.POLAR>
-2.87791

>  <SCORE.INTER.ROT>
9

>  <SCORE.INTER.SOLV>
18.7744

>  <SCORE.INTER.VDW>
-12.8072

>  <SCORE.INTER.norm>
-0.233647

>  <SCORE.INTRA>
-10.9572

>  <SCORE.INTRA.DIHEDRAL>
-25.0616

>  <SCORE.INTRA.DIHEDRAL.0>
27.8999

>  <SCORE.INTRA.POLAR>
0

>  <SCORE.INTRA.POLAR.0>
0

>  <SCORE.INTRA.REPUL>
0

>  <SCORE.INTRA.REPUL.0>
0

>  <SCORE.INTRA.SOLV>
-2.36622

>  <SCORE.INTRA.SOLV.lig_0>
-104.479

>  <SCORE.INTRA.VDW>
2.75668

>  <SCORE.INTRA.VDW.0>
-6.17816

>  <SCORE.INTRA.norm>
-0.260886

>  <SCORE.RESTR>
0.415692

>  <SCORE.RESTR.CAVITY>
0.415692

>  <SCORE.RESTR.norm>
0.00989742

>  <SCORE.SYSTEM>
0

>  <SCORE.SYSTEM.CONST>
0

>  <SCORE.SYSTEM.DIHEDRAL>
0

>  <SCORE.SYSTEM.SOLV>
0

>  <SCORE.SYSTEM.norm>
0

>  <SCORE.heavy>
42

>  <SCORE.norm>
-0.484635

>  <RMSD>
4.058

$$$$
2o3w_lig
 OpenBabel11021811463D
libRbt.so/2013.1/901 2013/11/27
 42 45  0  0  0  0  0  0  0  0999 V2000
    7.8941    1.2836    5.2089 C   0  0  2  0  0  0  0  0  0  0  0  0
    8.4752    1.8145    4.0056 O   0  0  0  0  0  0  0  0  0  0  0  0
   11.3666    4.4480    5.8765 C   0  0  2  0  0  0  0  0  0  0  0  0
   12.4112    5.4916    6.1003 N   0  0  0  0  0  0  0  0  0  0  0  0
    8.2654    5.3921    2.9061 C   0  0  1  0  0  0  0  0  0  0  0  0
    7.3110    6.9491   -0.8871 C   0  0  1  0  0  0  0  0  0  0  0  0
    7.1350   -0.0180    4.8117 C   0  0  2  0  0  0  0  0  0  0  0  0
    7.9631   -0.9290    4.0024 N   0  0  0  0  0  0  0  0  0  0  0  0
   11.9193    3.2648    4.9841 C   0  0  0  0  0  0  0  0  0  0  0  0
    7.0180    5.6879    2.0187 C   0  0  2  0  0  0  0  0  0  0  0  0
    6.8079    4.7243    0.9574 O   0  0  0  0  0  0  0  0  0  0  0  0
    8.1593    6.9945   -2.2089 C   0  0  2  0  0  0  0  0  0  0  0  0
    8.9283    8.2712   -2.3057 N   0  0  0  0  0  0  0  0  0  0  0  0
    5.8641    0.2736    3.9926 C   0  0  1  0  0  0  0  0  0  0  0  0
    5.1805   -0.9426    3.6852 O   0  0  0  0  0  0  0  0  0  0  0  0
   10.7829    2.1887    4.8027 C   0  0  2  0  0  0  0  0  0  0  0  0
   11.2739    1.0516    3.9783 N   0  0  0  0  0  0  0  0  0  0  0  0
    7.3088    7.1195    1.5654 C   0  0  2  0  0  0  0  0  0  0  0  0
    8.0673    7.1441    0.3144 O   0  0  0  0  0  0  0  0  0  0  0  0
    7.1859    6.8120   -3.4683 C   0  0  1  0  0  0  0  0  0  0  0  0
    6.7608    5.4322   -3.5342 O   0  0  0  0  0  0  0  0  0  0  0  0
    4.9569    1.2481    4.7778 C   0  0  2  0  0  0  0  0  0  0  0  0
    3.7810    1.5121    4.0485 O   0  0  0  0  0  0  0  0  0  0  0  0
    9.5123    2.8305    4.1174 C   0  0  2  0  0  0  0  0  0  0  0  0
    8.1001    7.7747    2.7099 C   0  0  2  0  0  0  0  0  0  0  0  0
    8.8141    6.6780    3.2755 O   0  0  0  0  0  0  0  0  0  0  0  0
    5.9004    7.7664   -3.4043 C   0  0  2  0  0  0  0  0  0  0  0  0
    6.3494    9.1075   -3.5948 O   0  0  0  0  0  0  0  0  0  0  0  0
    5.7462    2.5714    5.0525 C   0  0  2  0  0  0  0  0  0  0  0  0
    6.9660    2.2701    5.8015 O   0  0  0  0  0  0  0  0  0  0  0  0
    8.9492    4.0326    4.9067 C   0  0  2  0  0  0  0  0  0  0  0  0
    7.9203    4.6027    4.0518 O   0  0  0  0  0  0  0  0  0  0  0  0
    7.2281    8.4919    3.7866 C   0  0  0  0  0  0  0  0  0  0  0  0
    6.2604    9.3119    3.1384 O   0  0  0  0  0  0  0  0  0  0  0  0
    5.1735    7.6271   -2.0135 C   0  0  1  0  0  0  0  0  0  0  0  0
    6.1820    7.9529   -0.9902 O   0  0  0  0  0  0  0  0  0  0  0  0
    4.9329    3.5838    5.8252 C   0  0  0  0  0  0  0  0  0  0  0  0
    4.5760    3.0617    7.0819 O   0  0  0  0  0  0  0  0  0  0  0  0
   10.0967    5.0909    5.1877 C   0  0  1  0  0  0  0  0  0  0  0  0
    9.6124    6.1276    6.0457 O   0  0  0  0  0  0  0  0  0  0  0  0
    3.9015    8.5675   -1.8505 C   0  0  0  0  0  0  0  0  0  0  0  0
    3.2099    8.4899   -0.5344 N   0  0  0  0  0  0  0  0  0  0  0  0
  1  2  1  6  0  0  0
  1  7  1  0  0  0  0
  1 30  1  0  0  0  0
  3  4  1  6  0  0  0
  3  9  1  0  0  0  0
  3 39  1  0  0  0  0
  5 10  1  0  0  0  0
  5 26  1  0  0  0  0
  5 32  1  1  0  0  0
  6 12  1  0  0  0  0
  6 36  1  0  0  0  0
  6 19  1  1  0  0  0
  7  8  1  6  0  0  0
  7 14  1  0  0  0  0
  9 16  1  0  0  0  0
 10 11  1  6  0  0  0
 10 18  1  0  0  0  0
 12 13  1  6  0  0  0
 12 20  1  0  0  0  0
 14 15  1  1  0  0  0
 14 22  1  0  0  0  0
 16 17  1  6  0  0  0
 16 24  1  0  0  0  0
 18 19  1  6  0  0  0
 18 25  1  0  0  0  0
 20 21  1  1  0  0  0
 20 27  1  0  0  0  0
 22 23  1  6  0  0  0
 22 29  1  0  0  0  0
 24  2  1  1  0  0  0
 24 31  1  0  0  0  0
 25 26  1  0  0  0  0
 25 33  1  1  0  0  0
 27 28  1  1  0  0  0
 27 35  1  0  0  0  0
 29 30  1  0  0  0  0
 29 37  1  1  0  0  0
 31 32  1  6  0  0  0
 31 39  1  0  0  0  0
 33 34  1  0  0  0  0
 35 36  1  0  0  0  0
 35 41  1  6  0  0  0
 37 38  1  0  0  0  0
 39 40  1  1  0  0  0
 41 42  1  0  0  0  0
M  END
>  <CHROM.1>
-164.73670307,170.39745126,179.50917836,80.25341846,65.55853277,-47.12907102
61.18854449,-75.78805171,-178.42205869,7.44446972,4.80348634,2.48211013,1.35965140
0.56440270,2.39327467

>  <Name>
2o3w_lig

>  <RI>
0

>  <Rbt.Current_Directory>
/home/itssahil/PROJECTS/Mol_Feturizer/New_Systems/rnas/2o3w

>  <Rbt.Executable>
rbdock ($Id: //depot/dev/client3/rdock/2013.1/src/exe/rbdock.cxx#4 $)

>  <Rbt.Library>
libRbt.so (2013.1, Build901 2013/11/27)

>  <Rbt.Parameter_File>
/export/apps/rDock/src/rDock_2013.1_src/data/scripts/dock_solv.prm

>  <Rbt.Receptor>
prm/pocket_docking_5.prm

>  <SCORE>
-19.0545

>  <SCORE.INTER>
-8.40878

>  <SCORE.INTER.CONST>
1

>  <SCORE.INTER.POLAR>
-1.66629

>  <SCORE.INTER.ROT>
9

>  <SCORE.INTER.SOLV>
15.468

>  <SCORE.INTER.VDW>
-14.8075

>  <SCORE.INTER.norm>
-0.200209

>  <SCORE.INTRA>
-10.6878

>  <SCORE.INTRA.DIHEDRAL>
-22.4949

>  <SCORE.INTRA.DIHEDRAL.0>
27.8999

>  <SCORE.INTRA.POLAR>
0

>  <SCORE.INTRA.POLAR.0>
0

>  <SCORE.INTRA.REPUL>
0

>  <SCORE.INTRA.REPUL.0>
0

>  <SCORE.INTRA.SOLV>
-4.30422

>  <SCORE.INTRA.SOLV.lig_0>
-104.479

>  <SCORE.INTRA.VDW>
2.71177

>  <SCORE.INTRA.VDW.0>
-6.17816

>  <SCORE.INTRA.norm>
-0.254471

>  <SCORE.RESTR>
0.0420769

>  <SCORE.RESTR.CAVITY>
0.0420769

>  <SCORE.RESTR.norm>
0.00100183

>  <SCORE.SYSTEM>
0

>  <SCORE.SYSTEM.CONST>
0

>  <SCORE.SYSTEM.DIHEDRAL>
0

>  <SCORE.SYSTEM.SOLV>
0

>  <SCORE.SYSTEM.norm>
0

>  <SCORE.heavy>
42

>  <SCORE.norm>
-0.453678

>  <RMSD>
4.134

$$$$
2o3w_lig
 OpenBabel11021811463D
libRbt.so/2013.1/901 2013/11/27
 42 45  0  0  0  0  0  0  0  0999 V2000
    6.7070    0.5093    3.2078 C   0  0  2  0  0  0  0  0  0  0  0  0
    6.7888    0.9872    4.5613 O   0  0  0  0  0  0  0  0  0  0  0  0
    5.8682    4.7322    6.5420 C   0  0  2  0  0  0  0  0  0  0  0  0
    5.7555    6.1860    6.8648 N   0  0  0  0  0  0  0  0  0  0  0  0
    5.1007    3.7534    2.3716 C   0  0  1  0  0  0  0  0  0  0  0  0
    5.3771    6.4770    0.3883 C   0  0  1  0  0  0  0  0  0  0  0  0
    6.5682   -1.0411    3.2802 C   0  0  2  0  0  0  0  0  0  0  0  0
    5.5113   -1.4695    4.2129 N   0  0  0  0  0  0  0  0  0  0  0  0
    7.3791    4.2649    6.5186 C   0  0  0  0  0  0  0  0  0  0  0  0
    5.4343    3.1601    0.9690 C   0  0  2  0  0  0  0  0  0  0  0  0
    6.8526    3.0066    0.7162 O   0  0  0  0  0  0  0  0  0  0  0  0
    4.4726    7.5413   -0.3315 C   0  0  2  0  0  0  0  0  0  0  0  0
    4.9944    7.8489   -1.6967 N   0  0  0  0  0  0  0  0  0  0  0  0
    7.8699   -1.7235    3.7394 C   0  0  1  0  0  0  0  0  0  0  0  0
    7.7094   -3.1430    3.7530 O   0  0  0  0  0  0  0  0  0  0  0  0
    7.4316    2.7236    6.1962 C   0  0  2  0  0  0  0  0  0  0  0  0
    8.8406    2.2459    6.1805 N   0  0  0  0  0  0  0  0  0  0  0  0
    4.6999    4.1380    0.0505 C   0  0  2  0  0  0  0  0  0  0  0  0
    5.5582    5.2566   -0.3406 O   0  0  0  0  0  0  0  0  0  0  0  0
    4.3967    8.8653    0.5675 C   0  0  1  0  0  0  0  0  0  0  0  0
    3.5523    8.6055    1.7114 O   0  0  0  0  0  0  0  0  0  0  0  0
    9.0309   -1.2957    2.8129 C   0  0  2  0  0  0  0  0  0  0  0  0
   10.2270   -1.9251    3.2099 O   0  0  0  0  0  0  0  0  0  0  0  0
    6.7544    2.4231    4.8008 C   0  0  2  0  0  0  0  0  0  0  0  0
    3.4750    4.6258    0.8424 C   0  0  2  0  0  0  0  0  0  0  0  0
    3.9269    4.5791    2.1937 O   0  0  0  0  0  0  0  0  0  0  0  0
    5.8362    9.3622    1.0658 C   0  0  2  0  0  0  0  0  0  0  0  0
    6.5446    9.8440   -0.0755 O   0  0  0  0  0  0  0  0  0  0  0  0
    9.1807    0.2613    2.8679 C   0  0  2  0  0  0  0  0  0  0  0  0
    7.9246    0.8910    2.4611 O   0  0  0  0  0  0  0  0  0  0  0  0
    5.2888    2.9050    4.7303 C   0  0  2  0  0  0  0  0  0  0  0  0
    4.8923    2.7204    3.3435 O   0  0  0  0  0  0  0  0  0  0  0  0
    2.1847    3.7697    0.6521 C   0  0  0  0  0  0  0  0  0  0  0  0
    1.2100    4.1681    1.6114 O   0  0  0  0  0  0  0  0  0  0  0  0
    6.6293    8.1801    1.7408 C   0  0  1  0  0  0  0  0  0  0  0  0
    6.7090    7.1112    0.7302 O   0  0  0  0  0  0  0  0  0  0  0  0
   10.2944    0.7699    1.9820 C   0  0  0  0  0  0  0  0  0  0  0  0
   11.4942    0.0968    2.2767 O   0  0  0  0  0  0  0  0  0  0  0  0
    5.1929    4.4332    5.1438 C   0  0  1  0  0  0  0  0  0  0  0  0
    3.8233    4.8374    5.2250 O   0  0  0  0  0  0  0  0  0  0  0  0
    8.0871    8.5779    2.2362 C   0  0  0  0  0  0  0  0  0  0  0  0
    8.8634    7.4879    2.8887 N   0  0  0  0  0  0  0  0  0  0  0  0
  1  2  1  1  0  0  0
  1  7  1  0  0  0  0
  1 30  1  0  0  0  0
  3  4  1  6  0  0  0
  3  9  1  0  0  0  0
  3 39  1  0  0  0  0
  5 10  1  0  0  0  0
  5 26  1  0  0  0  0
  5 32  1  1  0  0  0
  6 12  1  0  0  0  0
  6 36  1  0  0  0  0
  6 19  1  6  0  0  0
  7  8  1  1  0  0  0
  7 14  1  0  0  0  0
  9 16  1  0  0  0  0
 10 11  1  6  0  0  0
 10 18  1  0  0  0  0
 12 13  1  6  0  0  0
 12 20  1  0  0  0  0
 14 15  1  6  0  0  0
 14 22  1  0  0  0  0
 16 17  1  6  0  0  0
 16 24  1  0  0  0  0
 18 19  1  1  0  0  0
 18 25  1  0  0  0  0
 20 21  1  1  0  0  0
 20 27  1  0  0  0  0
 22 23  1  1  0  0  0
 22 29  1  0  0  0  0
 24  2  1  1  0  0  0
 24 31  1  0  0  0  0
 25 26  1  0  0  0  0
 25 33  1  1  0  0  0
 27 28  1  6  0  0  0
 27 35  1  0  0  0  0
 29 30  1  0  0  0  0
 29 37  1  6  0  0  0
 31 32  1  6  0  0  0
 31 39  1  0  0  0  0
 33 34  1  0  0  0  0
 35 36  1  0  0  0  0
 35 41  1  6  0  0  0
 37 38  1  0  0  0  0
 39 40  1  1  0  0  0
 41 42  1  0  0  0  0
M  END
>  <CHROM.1>
-172.30640218,145.74722247,-98.37844379,-99.48769703,-157.01378390,169.37195940
-53.15537400,-88.78466510,179.57651352,6.30026279,3.71624142,2.65103458,-0.00158228
1.21447192,-1.89796722

>  <Name>
2o3w_lig

>  <RI>
0

>  <Rbt.Current_Directory>
/home/itssahil/PROJECTS/Mol_Feturizer/New_Systems/rnas/2o3w

>  <Rbt.Executable>
rbdock ($Id: //depot/dev/client3/rdock/2013.1/src/exe/rbdock.cxx#4 $)

>  <Rbt.Library>
libRbt.so (2013.1, Build901 2013/11/27)

>  <Rbt.Parameter_File>
/export/apps/rDock/src/rDock_2013.1_src/data/scripts/dock_solv.prm

>  <Rbt.Receptor>
prm/pocket_docking_5.prm

>  <SCORE>
-12.7636

>  <SCORE.INTER>
-11.2

>  <SCORE.INTER.CONST>
1

>  <SCORE.INTER.POLAR>
-1.895

>  <SCORE.INTER.ROT>
9

>  <SCORE.INTER.SOLV>
14.6495

>  <SCORE.INTER.VDW>
-15.6331

>  <SCORE.INTER.norm>
-0.266666

>  <SCORE.INTRA>
-1.56365

>  <SCORE.INTRA.DIHEDRAL>
-6.49154

>  <SCORE.INTRA.DIHEDRAL.0>
27.8999

>  <SCORE.INTRA.POLAR>
0

>  <SCORE.INTRA.POLAR.0>
0

>  <SCORE.INTRA.REPUL>
0

>  <SCORE.INTRA.REPUL.0>
0

>  <SCORE.INTRA.SOLV>
-4.43123

>  <SCORE.INTRA.SOLV.lig_0>
-104.479

>  <SCORE.INTRA.VDW>
3.89774

>  <SCORE.INTRA.VDW.0>
-6.17816

>  <SCORE.INTRA.norm>
-0.0372297

>  <SCORE.RESTR>
0

>  <SCORE.RESTR.CAVITY>
0

>  <SCORE.RESTR.norm>
0

>  <SCORE.SYSTEM>
0

>  <SCORE.SYSTEM.CONST>
0

>  <SCORE.SYSTEM.DIHEDRAL>
0

>  <SCORE.SYSTEM.SOLV>
0

>  <SCORE.SYSTEM.norm>
0

>  <SCORE.heavy>
42

>  <SCORE.norm>
-0.303896

>  <RMSD>
4.150

$$$$
2o3w_lig
 OpenBabel11021811463D
libRbt.so/2013.1/901 2013/11/27
 42 45  0  0  0  0  0  0  0  0999 V2000
    7.0574    2.1772    5.4743 C   0  0  2  0  0  0  0  0  0  0  0  0
    7.9537    1.9699    4.3693 O   0  0  0  0  0  0  0  0  0  0  0  0
   11.6882    3.0023    6.3146 C   0  0  2  0  0  0  0  0  0  0  0  0
   13.1404    3.1366    6.6362 N   0  0  0  0  0  0  0  0  0  0  0  0
    8.7860    4.8515    2.6581 C   0  0  1  0  0  0  0  0  0  0  0  0
    6.9775    8.3135    0.7129 C   0  0  1  0  0  0  0  0  0  0  0  0
    5.6245    1.8315    4.9690 C   0  0  2  0  0  0  0  0  0  0  0  0
    5.5665    0.5264    4.2878 N   0  0  0  0  0  0  0  0  0  0  0  0
   11.2268    1.4902    6.3643 C   0  0  0  0  0  0  0  0  0  0  0  0
    9.4820    6.2465    2.6758 C   0  0  2  0  0  0  0  0  0  0  0  0
    9.3261    6.9672    3.9229 O   0  0  0  0  0  0  0  0  0  0  0  0
    6.0848    9.5297    1.1522 C   0  0  2  0  0  0  0  0  0  0  0  0
    5.0721    9.1091    2.1663 N   0  0  0  0  0  0  0  0  0  0  0  0
    5.0879    2.8768    3.9738 C   0  0  1  0  0  0  0  0  0  0  0  0
    3.7596    2.5416    3.5685 O   0  0  0  0  0  0  0  0  0  0  0  0
    9.6867    1.4156    6.0397 C   0  0  2  0  0  0  0  0  0  0  0  0
    9.2146    0.0057    6.0921 N   0  0  0  0  0  0  0  0  0  0  0  0
    8.8553    6.9067    1.4466 C   0  0  2  0  0  0  0  0  0  0  0  0
    7.6337    7.6346    1.7909 O   0  0  0  0  0  0  0  0  0  0  0  0
    5.3779   10.1605   -0.1397 C   0  0  1  0  0  0  0  0  0  0  0  0
    6.3659   10.8861   -0.9054 O   0  0  0  0  0  0  0  0  0  0  0  0
    5.1437    4.2799    4.6197 C   0  0  2  0  0  0  0  0  0  0  0  0
    4.6400    5.2465    3.7272 O   0  0  0  0  0  0  0  0  0  0  0  0
    9.3886    2.0218    4.6116 C   0  0  2  0  0  0  0  0  0  0  0  0
    8.5646    5.7677    0.4549 C   0  0  2  0  0  0  0  0  0  0  0  0
    8.3018    4.6572    1.3095 O   0  0  0  0  0  0  0  0  0  0  0  0
    4.6836    9.0563   -1.0704 C   0  0  2  0  0  0  0  0  0  0  0  0
    3.5561    8.5430   -0.3621 O   0  0  0  0  0  0  0  0  0  0  0  0
    6.6247    4.6045    5.0083 C   0  0  2  0  0  0  0  0  0  0  0  0
    7.1275    3.5830    5.9267 O   0  0  0  0  0  0  0  0  0  0  0  0
    9.8651    3.4841    4.4703 C   0  0  2  0  0  0  0  0  0  0  0  0
    9.6839    3.8108    3.0650 O   0  0  0  0  0  0  0  0  0  0  0  0
    9.7239    5.4488   -0.5394 C   0  0  0  0  0  0  0  0  0  0  0  0
   10.1174    6.6462   -1.2028 O   0  0  0  0  0  0  0  0  0  0  0  0
    5.6941    7.8941   -1.4024 C   0  0  1  0  0  0  0  0  0  0  0  0
    6.1382    7.3549   -0.1054 O   0  0  0  0  0  0  0  0  0  0  0  0
    6.7719    5.9621    5.6556 C   0  0  0  0  0  0  0  0  0  0  0  0
    5.9913    6.0293    6.8241 O   0  0  0  0  0  0  0  0  0  0  0  0
   11.3915    3.6064    4.8837 C   0  0  1  0  0  0  0  0  0  0  0  0
   11.7901    4.9799    4.8985 O   0  0  0  0  0  0  0  0  0  0  0  0
    5.0758    6.7341   -2.2972 C   0  0  0  0  0  0  0  0  0  0  0  0
    6.0090    5.6295   -2.6514 N   0  0  0  0  0  0  0  0  0  0  0  0
  1  2  1  6  0  0  0
  1  7  1  0  0  0  0
  1 30  1  0  0  0  0
  3  4  1  6  0  0  0
  3  9  1  0  0  0  0
  3 39  1  0  0  0  0
  5 10  1  0  0  0  0
  5 26  1  0  0  0  0
  5 32  1  6  0  0  0
  6 12  1  0  0  0  0
  6 36  1  0  0  0  0
  6 19  1  1  0  0  0
  7  8  1  6  0  0  0
  7 14  1  0  0  0  0
  9 16  1  0  0  0  0
 10 11  1  1  0  0  0
 10 18  1  0  0  0  0
 12 13  1  1  0  0  0
 12 20  1  0  0  0  0
 14 15  1  1  0  0  0
 14 22  1  0  0  0  0
 16 17  1  6  0  0  0
 16 24  1  0  0  0  0
 18 19  1  1  0  0  0
 18 25  1  0  0  0  0
 20 21  1  6  0  0  0
 20 27  1  0  0  0  0
 22 23  1  6  0  0  0
 22 29  1  0  0  0  0
 24  2  1  1  0  0  0
 24 31  1  0  0  0  0
 25 26  1  0  0  0  0
 25 33  1  6  0  0  0
 27 28  1  1  0  0  0
 27 35  1  0  0  0  0
 29 30  1  0  0  0  0
 29 37  1  1  0  0  0
 31 32  1  6  0  0  0
 31 39  1  0  0  0  0
 33 34  1  0  0  0  0
 35 36  1  0  0  0  0
 35 41  1  6  0  0  0
 37 38  1  0  0  0  0
 39 40  1  1  0  0  0
 41 42  1  0  0  0  0
M  END
>  <CHROM.1>
-170.76236946,86.07334982,-155.33738930,178.88516838,35.31118016,-53.10460128
59.36544441,117.72831298,178.97398620,7.60855964,5.19338587,2.82804466,1.18654323
0.03034596,2.35786632

>  <Name>
2o3w_lig

>  <RI>
0

>  <Rbt.Current_Directory>
/home/itssahil/PROJECTS/Mol_Feturizer/New_Systems/rnas/2o3w

>  <Rbt.Executable>
rbdock ($Id: //depot/dev/client3/rdock/2013.1/src/exe/rbdock.cxx#4 $)

>  <Rbt.Library>
libRbt.so (2013.1, Build901 2013/11/27)

>  <Rbt.Parameter_File>
/export/apps/rDock/src/rDock_2013.1_src/data/scripts/dock_solv.prm

>  <Rbt.Receptor>
prm/pocket_docking_5.prm

>  <SCORE>
-23.3907

>  <SCORE.INTER>
-16.9377

>  <SCORE.INTER.CONST>
1

>  <SCORE.INTER.POLAR>
-2.76591

>  <SCORE.INTER.ROT>
9

>  <SCORE.INTER.SOLV>
11.8849

>  <SCORE.INTER.VDW>
-15.6337

>  <SCORE.INTER.norm>
-0.40328

>  <SCORE.INTRA>
-6.45298

>  <SCORE.INTRA.DIHEDRAL>
-11.9813

>  <SCORE.INTRA.DIHEDRAL.0>
27.8999

>  <SCORE.INTRA.POLAR>
0

>  <SCORE.INTRA.POLAR.0>
0

>  <SCORE.INTRA.REPUL>
0.0506628

>  <SCORE.INTRA.REPUL.0>
0

>  <SCORE.INTRA.SOLV>
-3.2684

>  <SCORE.INTRA.SOLV.lig_0>
-104.479

>  <SCORE.INTRA.VDW>
0.918575

>  <SCORE.INTRA.VDW.0>
-6.17816

>  <SCORE.INTRA.norm>
-0.153642

>  <SCORE.RESTR>
0

>  <SCORE.RESTR.CAVITY>
0

>  <SCORE.RESTR.norm>
0

>  <SCORE.SYSTEM>
0

>  <SCORE.SYSTEM.CONST>
0

>  <SCORE.SYSTEM.DIHEDRAL>
0

>  <SCORE.SYSTEM.SOLV>
0

>  <SCORE.SYSTEM.norm>
0

>  <SCORE.heavy>
42

>  <SCORE.norm>
-0.556922

>  <RMSD>
4.175

$$$$
2o3w_lig
 OpenBabel11021811463D
libRbt.so/2013.1/901 2013/11/27
 42 45  0  0  0  0  0  0  0  0999 V2000
   10.6181    1.2591    5.4057 C   0  0  2  0  0  0  0  0  0  0  0  0
   11.4617    2.4231    5.3815 O   0  0  0  0  0  0  0  0  0  0  0  0
    9.3578    4.7474    8.3760 C   0  0  2  0  0  0  0  0  0  0  0  0
    8.9855    5.8140    9.3529 N   0  0  0  0  0  0  0  0  0  0  0  0
    9.5116    5.8285    3.9105 C   0  0  1  0  0  0  0  0  0  0  0  0
    7.7596    8.4509    0.7760 C   0  0  1  0  0  0  0  0  0  0  0  0
   11.1659    0.2775    4.3266 C   0  0  2  0  0  0  0  0  0  0  0  0
   12.6184    0.0616    4.4463 N   0  0  0  0  0  0  0  0  0  0  0  0
   10.6765    3.9962    8.8213 C   0  0  0  0  0  0  0  0  0  0  0  0
   10.3071    6.8926    3.0946 C   0  0  2  0  0  0  0  0  0  0  0  0
   10.5418    8.1299    3.8109 O   0  0  0  0  0  0  0  0  0  0  0  0
    6.4528    9.2943    0.9993 C   0  0  2  0  0  0  0  0  0  0  0  0
    5.4888    8.5628    1.8748 N   0  0  0  0  0  0  0  0  0  0  0  0
   10.9076    0.7803    2.8943 C   0  0  1  0  0  0  0  0  0  0  0  0
   11.3897   -0.1673    1.9401 O   0  0  0  0  0  0  0  0  0  0  0  0
   11.0043    2.8722    7.7668 C   0  0  2  0  0  0  0  0  0  0  0  0
   12.2338    2.1339    8.1629 N   0  0  0  0  0  0  0  0  0  0  0  0
    9.4442    7.0087    1.8372 C   0  0  2  0  0  0  0  0  0  0  0  0
    8.4210    8.0447    1.9806 O   0  0  0  0  0  0  0  0  0  0  0  0
    5.7951    9.6362   -0.4211 C   0  0  1  0  0  0  0  0  0  0  0  0
    6.5938   10.6482   -1.0743 O   0  0  0  0  0  0  0  0  0  0  0  0
    9.3973    1.0510    2.7075 C   0  0  2  0  0  0  0  0  0  0  0  0
    9.1418    1.4961    1.3956 O   0  0  0  0  0  0  0  0  0  0  0  0
   11.2012    3.4973    6.3294 C   0  0  2  0  0  0  0  0  0  0  0  0
    8.8093    5.6235    1.6285 C   0  0  2  0  0  0  0  0  0  0  0  0
    8.6806    5.1259    2.9583 O   0  0  0  0  0  0  0  0  0  0  0  0
    5.6708    8.3539   -1.3738 C   0  0  2  0  0  0  0  0  0  0  0  0
    4.6808    7.4936   -0.8114 O   0  0  0  0  0  0  0  0  0  0  0  0
    8.9370    2.1201    3.7538 C   0  0  2  0  0  0  0  0  0  0  0  0
    9.2212    1.6394    5.1058 O   0  0  0  0  0  0  0  0  0  0  0  0
    9.9697    4.2968    5.8502 C   0  0  2  0  0  0  0  0  0  0  0  0
   10.3901    4.9434    4.6174 O   0  0  0  0  0  0  0  0  0  0  0  0
    9.6403    4.6456    0.7412 C   0  0  0  0  0  0  0  0  0  0  0  0
    9.8642    5.2414   -0.5330 O   0  0  0  0  0  0  0  0  0  0  0  0
    7.0515    7.6022   -1.4770 C   0  0  1  0  0  0  0  0  0  0  0  0
    7.4337    7.2571   -0.0968 O   0  0  0  0  0  0  0  0  0  0  0  0
    7.4644    2.4422    3.6466 C   0  0  0  0  0  0  0  0  0  0  0  0
    6.6955    1.3070    3.9620 O   0  0  0  0  0  0  0  0  0  0  0  0
    9.5577    5.3748    6.9383 C   0  0  1  0  0  0  0  0  0  0  0  0
    8.3317    6.0095    6.5645 O   0  0  0  0  0  0  0  0  0  0  0  0
    7.0105    6.2935   -2.3795 C   0  0  0  0  0  0  0  0  0  0  0  0
    6.6933    6.5146   -3.8172 N   0  0  0  0  0  0  0  0  0  0  0  0
  1  2  1  6  0  0  0
  1  7  1  0  0  0  0
  1 30  1  0  0  0  0
  3  4  1  1  0  0  0
  3  9  1  0  0  0  0
  3 39  1  0  0  0  0
  5 10  1  0  0  0  0
  5 26  1  0  0  0  0
  5 32  1  6  0  0  0
  6 12  1  0  0  0  0
  6 36  1  0  0  0  0
  6 19  1  1  0  0  0
  7  8  1  1  0  0  0
  7 14  1  0  0  0  0
  9 16  1  0  0  0  0
 10 11  1  1  0  0  0
 10 18  1  0  0  0  0
 12 13  1  1  0  0  0
 12 20  1  0  0  0  0
 14 15  1  6  0  0  0
 14 22  1  0  0  0  0
 16 17  1  1  0  0  0
 16 24  1  0  0  0  0
 18 19  1  1  0  0  0
 18 25  1  0  0  0  0
 20 21  1  6  0  0  0
 20 27  1  0  0  0  0
 22 23  1  6  0  0  0
 22 29  1  0  0  0  0
 24  2  1  6  0  0  0
 24 31  1  0  0  0  0
 25 26  1  0  0  0  0
 25 33  1  6  0  0  0
 27 28  1  1  0  0  0
 27 35  1  0  0  0  0
 29 30  1  0  0  0  0
 29 37  1  1  0  0  0
 31 32  1  6  0  0  0
 31 39  1  0  0  0  0
 33 34  1  0  0  0  0
 35 36  1  0  0  0  0
 35 41  1  6  0  0  0
 37 38  1  0  0  0  0
 39 40  1  6  0  0  0
 41 42  1  0  0  0  0
M  END
>  <CHROM.1>
-178.06586059,152.26129418,166.06395014,166.29982326,47.16384754,-57.51460997
64.49191963,-177.24491446,63.32060662,8.95292414,4.88194894,3.04590634,-0.21408742
1.14930734,-2.19827068

>  <Name>
2o3w_lig

>  <RI>
0

>  <Rbt.Current_Directory>
/home/itssahil/PROJECTS/Mol_Feturizer/New_Systems/rnas/2o3w

>  <Rbt.Executable>
rbdock ($Id: //depot/dev/client3/rdock/2013.1/src/exe/rbdock.cxx#4 $)

>  <Rbt.Library>
libRbt.so (2013.1, Build901 2013/11/27)

>  <Rbt.Parameter_File>
/export/apps/rDock/src/rDock_2013.1_src/data/scripts/dock_solv.prm

>  <Rbt.Receptor>
prm/pocket_docking_7.prm

>  <SCORE>
-27.289

>  <SCORE.INTER>
-15.8695

>  <SCORE.INTER.CONST>
1

>  <SCORE.INTER.POLAR>
-2.65302

>  <SCORE.INTER.ROT>
9

>  <SCORE.INTER.SOLV>
15.291

>  <SCORE.INTER.VDW>
-16.4333

>  <SCORE.INTER.norm>
-0.377846

>  <SCORE.INTRA>
-11.4194

>  <SCORE.INTRA.DIHEDRAL>
-21.8245

>  <SCORE.INTRA.DIHEDRAL.0>
27.8999

>  <SCORE.INTRA.POLAR>
0

>  <SCORE.INTRA.POLAR.0>
0

>  <SCORE.INTRA.REPUL>
0

>  <SCORE.INTRA.REPUL.0>
0

>  <SCORE.INTRA.SOLV>
-3.674

>  <SCORE.INTRA.SOLV.lig_0>
-104.479

>  <SCORE.INTRA.VDW>
1.3298

>  <SCORE.INTRA.VDW.0>
-6.17816

>  <SCORE.INTRA.norm>
-0.271891

>  <SCORE.RESTR>
0

>  <SCORE.RESTR.CAVITY>
0

>  <SCORE.RESTR.norm>
0

>  <SCORE.SYSTEM>
0

>  <SCORE.SYSTEM.CONST>
0

>  <SCORE.SYSTEM.DIHEDRAL>
0

>  <SCORE.SYSTEM.SOLV>
0

>  <SCORE.SYSTEM.norm>
0

>  <SCORE.heavy>
42

>  <SCORE.norm>
-0.649737

>  <RMSD>
4.189

$$$$
2o3w_lig
 OpenBabel11021811463D
libRbt.so/2013.1/901 2013/11/27
 42 45  0  0  0  0  0  0  0  0999 V2000
    7.6458    0.4841    4.3977 C   0  0  2  0  0  0  0  0  0  0  0  0
    6.7487    1.2052    5.2594 O   0  0  0  0  0  0  0  0  0  0  0  0
    6.2053    5.2237    6.7931 C   0  0  2  0  0  0  0  0  0  0  0  0
    6.2488    6.7078    6.9544 N   0  0  0  0  0  0  0  0  0  0  0  0
    5.8226    3.5433    2.6910 C   0  0  1  0  0  0  0  0  0  0  0  0
    6.8713    5.1785   -1.3046 C   0  0  1  0  0  0  0  0  0  0  0  0
    7.0742   -0.9580    4.2501 C   0  0  2  0  0  0  0  0  0  0  0  0
    5.6446   -0.9641    3.8940 N   0  0  0  0  0  0  0  0  0  0  0  0
    7.6541    4.5945    6.8767 C   0  0  0  0  0  0  0  0  0  0  0  0
    5.3661    2.9257    1.3342 C   0  0  2  0  0  0  0  0  0  0  0  0
    6.1400    1.7725    0.9216 O   0  0  0  0  0  0  0  0  0  0  0  0
    8.2303    5.1099   -2.0903 C   0  0  2  0  0  0  0  0  0  0  0  0
    9.3898    5.2985   -1.1679 N   0  0  0  0  0  0  0  0  0  0  0  0
    7.2131   -1.7771    5.5465 C   0  0  1  0  0  0  0  0  0  0  0  0
    6.7137   -3.1017    5.3539 O   0  0  0  0  0  0  0  0  0  0  0  0
    7.5409    3.0305    6.7227 C   0  0  2  0  0  0  0  0  0  0  0  0
    8.8870    2.4031    6.8112 N   0  0  0  0  0  0  0  0  0  0  0  0
    5.4479    4.1427    0.4114 C   0  0  2  0  0  0  0  0  0  0  0  0
    6.7670    4.2582   -0.2111 O   0  0  0  0  0  0  0  0  0  0  0  0
    8.2288    6.2186   -3.2470 C   0  0  1  0  0  0  0  0  0  0  0  0
    7.3468    5.7864   -4.3072 O   0  0  0  0  0  0  0  0  0  0  0  0
    8.6933   -1.7912    5.9915 C   0  0  2  0  0  0  0  0  0  0  0  0
    8.8400   -2.5513    7.1683 O   0  0  0  0  0  0  0  0  0  0  0  0
    6.8701    2.6538    5.3429 C   0  0  2  0  0  0  0  0  0  0  0  0
    5.1385    5.3649    1.2922 C   0  0  2  0  0  0  0  0  0  0  0  0
    5.6302    4.9715    2.5713 O   0  0  0  0  0  0  0  0  0  0  0  0
    7.7711    7.6624   -2.7241 C   0  0  2  0  0  0  0  0  0  0  0  0
    8.8007    8.1573   -1.8689 O   0  0  0  0  0  0  0  0  0  0  0  0
    9.1714   -0.3186    6.2210 C   0  0  2  0  0  0  0  0  0  0  0  0
    9.0003    0.4517    4.9893 O   0  0  0  0  0  0  0  0  0  0  0  0
    5.4704    3.2821    5.1661 C   0  0  2  0  0  0  0  0  0  0  0  0
    5.0913    2.9902    3.7929 O   0  0  0  0  0  0  0  0  0  0  0  0
    3.6303    5.7573    1.3672 C   0  0  0  0  0  0  0  0  0  0  0  0
    2.8967    4.6938    1.9669 O   0  0  0  0  0  0  0  0  0  0  0  0
    6.4098    7.5627   -1.9372 C   0  0  1  0  0  0  0  0  0  0  0  0
    6.6385    6.6021   -0.8440 O   0  0  0  0  0  0  0  0  0  0  0  0
   10.6169   -0.2374    6.6542 C   0  0  0  0  0  0  0  0  0  0  0  0
   11.4437   -0.8653    5.7048 O   0  0  0  0  0  0  0  0  0  0  0  0
    5.5366    4.8479    5.4103 C   0  0  1  0  0  0  0  0  0  0  0  0
    4.2197    5.4056    5.3963 O   0  0  0  0  0  0  0  0  0  0  0  0
    5.8970    8.9495   -1.3520 C   0  0  0  0  0  0  0  0  0  0  0  0
    6.7976    9.6009   -0.3614 N   0  0  0  0  0  0  0  0  0  0  0  0
  1  2  1  1  0  0  0
  1  7  1  0  0  0  0
  1 30  1  0  0  0  0
  3  4  1  6  0  0  0
  3  9  1  0  0  0  0
  3 39  1  0  0  0  0
  5 10  1  0  0  0  0
  5 26  1  0  0  0  0
  5 32  1  1  0  0  0
  6 12  1  0  0  0  0
  6 36  1  0  0  0  0
  6 19  1  1  0  0  0
  7  8  1  1  0  0  0
  7 14  1  0  0  0  0
  9 16  1  0  0  0  0
 10 11  1  6  0  0  0
 10 18  1  0  0  0  0
 12 13  1  1  0  0  0
 12 20  1  0  0  0  0
 14 15  1  6  0  0  0
 14 22  1  0  0  0  0
 16 17  1  6  0  0  0
 16 24  1  0  0  0  0
 18 19  1  1  0  0  0
 18 25  1  0  0  0  0
 20 21  1  6  0  0  0
 20 27  1  0  0  0  0
 22 23  1  1  0  0  0
 22 29  1  0  0  0  0
 24  2  1  1  0  0  0
 24 31  1  0  0  0  0
 25 26  1  0  0  0  0
 25 33  1  1  0  0  0
 27 28  1  1  0  0  0
 27 35  1  0  0  0  0
 29 30  1  0  0  0  0
 29 37  1  6  0  0  0
 31 32  1  6  0  0  0
 31 39  1  0  0  0  0
 33 34  1  0  0  0  0
 35 36  1  0  0  0  0
 35 41  1  1  0  0  0
 37 38  1  0  0  0  0
 39 40  1  1  0  0  0
 41 42  1  0  0  0  0
M  END
>  <CHROM.1>
-166.78889114,171.57781060,-170.75597251,166.96129792,-105.58128752,63.04833671
56.99425269,-64.74331473,-61.45666924,6.94531164,3.41225539,2.75257706,-1.33026522
1.02644818,-1.01895971

>  <Name>
2o3w_lig

>  <RI>
0

>  <Rbt.Current_Directory>
/home/itssahil/PROJECTS/Mol_Feturizer/New_Systems/rnas/2o3w

>  <Rbt.Executable>
rbdock ($Id: //depot/dev/client3/rdock/2013.1/src/exe/rbdock.cxx#4 $)

>  <Rbt.Library>
libRbt.so (2013.1, Build901 2013/11/27)

>  <Rbt.Parameter_File>
/export/apps/rDock/src/rDock_2013.1_src/data/scripts/dock_solv.prm

>  <Rbt.Receptor>
prm/pocket_docking_6.prm

>  <SCORE>
-24.2662

>  <SCORE.INTER>
-16.396

>  <SCORE.INTER.CONST>
1

>  <SCORE.INTER.POLAR>
-2.91788

>  <SCORE.INTER.ROT>
9

>  <SCORE.INTER.SOLV>
17.7048

>  <SCORE.INTER.VDW>
-16.706

>  <SCORE.INTER.norm>
-0.390381

>  <SCORE.INTRA>
-7.87018

>  <SCORE.INTRA.DIHEDRAL>
-19.0282

>  <SCORE.INTRA.DIHEDRAL.0>
27.8999

>  <SCORE.INTRA.POLAR>
0

>  <SCORE.INTRA.POLAR.0>
0

>  <SCORE.INTRA.REPUL>
0

>  <SCORE.INTRA.REPUL.0>
0

>  <SCORE.INTRA.SOLV>
0.393162

>  <SCORE.INTRA.SOLV.lig_0>
-104.479

>  <SCORE.INTRA.VDW>
1.44735

>  <SCORE.INTRA.VDW.0>
-6.17816

>  <SCORE.INTRA.norm>
-0.187385

>  <SCORE.RESTR>
0

>  <SCORE.RESTR.CAVITY>
0

>  <SCORE.RESTR.norm>
0

>  <SCORE.SYSTEM>
0

>  <SCORE.SYSTEM.CONST>
0

>  <SCORE.SYSTEM.DIHEDRAL>
0

>  <SCORE.SYSTEM.SOLV>
0

>  <SCORE.SYSTEM.norm>
0

>  <SCORE.heavy>
42

>  <SCORE.norm>
-0.577766

>  <RMSD>
4.312

$$$$
2o3w_lig
 OpenBabel11021811463D
libRbt.so/2013.1/901 2013/11/27
 42 45  0  0  0  0  0  0  0  0999 V2000
    7.6214   -1.2675    5.5257 C   0  0  2  0  0  0  0  0  0  0  0  0
    8.6470   -0.5356    4.8330 O   0  0  0  0  0  0  0  0  0  0  0  0
    8.3266    3.1647    7.0694 C   0  0  2  0  0  0  0  0  0  0  0  0
    8.4881    4.5803    7.5171 N   0  0  0  0  0  0  0  0  0  0  0  0
    7.5955    2.8058    2.8179 C   0  0  1  0  0  0  0  0  0  0  0  0
    8.6183    5.3795    1.5015 C   0  0  1  0  0  0  0  0  0  0  0  0
    7.7307   -2.7517    5.0639 C   0  0  2  0  0  0  0  0  0  0  0  0
    9.1071   -3.2697    5.1524 N   0  0  0  0  0  0  0  0  0  0  0  0
    9.6990    2.3811    7.1371 C   0  0  0  0  0  0  0  0  0  0  0  0
    7.7412    2.4307    1.3116 C   0  0  2  0  0  0  0  0  0  0  0  0
    9.1002    2.1326    0.9073 O   0  0  0  0  0  0  0  0  0  0  0  0
    9.1183    6.8399    1.2086 C   0  0  2  0  0  0  0  0  0  0  0  0
   10.1294    6.8471    0.1092 N   0  0  0  0  0  0  0  0  0  0  0  0
    7.2757   -2.9450    3.6057 C   0  0  1  0  0  0  0  0  0  0  0  0
    7.3550   -4.3233    3.2385 O   0  0  0  0  0  0  0  0  0  0  0  0
    9.4605    0.8935    6.6760 C   0  0  2  0  0  0  0  0  0  0  0  0
   10.7308    0.1216    6.7413 N   0  0  0  0  0  0  0  0  0  0  0  0
    7.1020    3.6469    0.6395 C   0  0  2  0  0  0  0  0  0  0  0  0
    8.0903    4.6895    0.3619 O   0  0  0  0  0  0  0  0  0  0  0  0
    9.7236    7.4708    2.5513 C   0  0  1  0  0  0  0  0  0  0  0  0
    8.6364    7.7927    3.4476 O   0  0  0  0  0  0  0  0  0  0  0  0
    5.8401   -2.3975    3.4366 C   0  0  2  0  0  0  0  0  0  0  0  0
    5.4024   -2.5823    2.1104 O   0  0  0  0  0  0  0  0  0  0  0  0
    8.8898    0.8515    5.2035 C   0  0  2  0  0  0  0  0  0  0  0  0
    6.0203    4.1489    1.6107 C   0  0  2  0  0  0  0  0  0  0  0  0
    6.5498    3.8021    2.8882 O   0  0  0  0  0  0  0  0  0  0  0  0
   10.7544    6.4908    3.2893 C   0  0  2  0  0  0  0  0  0  0  0  0
   11.9230    6.4022    2.4750 O   0  0  0  0  0  0  0  0  0  0  0  0
    5.8244   -0.8796    3.8178 C   0  0  2  0  0  0  0  0  0  0  0  0
    6.2915   -0.7132    5.1940 O   0  0  0  0  0  0  0  0  0  0  0  0
    7.5747    1.6462    5.0480 C   0  0  2  0  0  0  0  0  0  0  0  0
    7.3002    1.6550    3.6201 O   0  0  0  0  0  0  0  0  0  0  0  0
    4.6062    3.5241    1.4009 C   0  0  0  0  0  0  0  0  0  0  0  0
    3.6934    4.1037    2.3281 O   0  0  0  0  0  0  0  0  0  0  0  0
   10.1187    5.0630    3.4880 C   0  0  1  0  0  0  0  0  0  0  0  0
    9.7412    4.5925    2.1440 O   0  0  0  0  0  0  0  0  0  0  0  0
    4.4517   -0.2614    3.6870 C   0  0  0  0  0  0  0  0  0  0  0  0
    3.5363   -0.9328    4.5179 O   0  0  0  0  0  0  0  0  0  0  0  0
    7.7583    3.1239    5.5943 C   0  0  1  0  0  0  0  0  0  0  0  0
    6.5039    3.8109    5.5905 O   0  0  0  0  0  0  0  0  0  0  0  0
   11.0889    4.0136    4.1853 C   0  0  0  0  0  0  0  0  0  0  0  0
   11.6841    4.4498    5.4783 N   0  0  0  0  0  0  0  0  0  0  0  0
  1  2  1  6  0  0  0
  1  7  1  0  0  0  0
  1 30  1  0  0  0  0
  3  4  1  6  0  0  0
  3  9  1  0  0  0  0
  3 39  1  0  0  0  0
  5 10  1  0  0  0  0
  5 26  1  0  0  0  0
  5 32  1  1  0  0  0
  6 12  1  0  0  0  0
  6 36  1  0  0  0  0
  6 19  1  6  0  0  0
  7  8  1  6  0  0  0
  7 14  1  0  0  0  0
  9 16  1  0  0  0  0
 10 11  1  6  0  0  0
 10 18  1  0  0  0  0
 12 13  1  6  0  0  0
 12 20  1  0  0  0  0
 14 15  1  1  0  0  0
 14 22  1  0  0  0  0
 16 17  1  6  0  0  0
 16 24  1  0  0  0  0
 18 19  1  1  0  0  0
 18 25  1  0  0  0  0
 20 21  1  1  0  0  0
 20 27  1  0  0  0  0
 22 23  1  6  0  0  0
 22 29  1  0  0  0  0
 24  2  1  1  0  0  0
 24 31  1  0  0  0  0
 25 26  1  0  0  0  0
 25 33  1  6  0  0  0
 27 28  1  6  0  0  0
 27 35  1  0  0  0  0
 29 30  1  0  0  0  0
 29 37  1  1  0  0  0
 31 32  1  6  0  0  0
 31 39  1  0  0  0  0
 33 34  1  0  0  0  0
 35 36  1  0  0  0  0
 35 41  1  6  0  0  0
 37 38  1  0  0  0  0
 39 40  1  1  0  0  0
 41 42  1  0  0  0  0
M  END
>  <CHROM.1>
-172.15295951,158.27966870,-153.30803931,-70.19886193,66.32848564,-178.03300443
59.09136756,-101.05444901,53.25569279,7.96382104,2.27811880,3.65375145,-2.00203282
-0.70347582,-0.51990035

>  <Name>
2o3w_lig

>  <RI>
0

>  <Rbt.Current_Directory>
/home/itssahil/PROJECTS/Mol_Feturizer/New_Systems/rnas/2o3w

>  <Rbt.Executable>
rbdock ($Id: //depot/dev/client3/rdock/2013.1/src/exe/rbdock.cxx#4 $)

>  <Rbt.Library>
libRbt.so (2013.1, Build901 2013/11/27)

>  <Rbt.Parameter_File>
/export/apps/rDock/src/rDock_2013.1_src/data/scripts/dock_solv.prm

>  <Rbt.Receptor>
prm/pocket_docking_3.prm

>  <SCORE>
-6.91865

>  <SCORE.INTER>
-0.986668

>  <SCORE.INTER.CONST>
1

>  <SCORE.INTER.POLAR>
-0.316598

>  <SCORE.INTER.ROT>
9

>  <SCORE.INTER.SOLV>
12.3647

>  <SCORE.INTER.VDW>
-13.324

>  <SCORE.INTER.norm>
-0.0234921

>  <SCORE.INTRA>
-6.18563

>  <SCORE.INTRA.DIHEDRAL>
-15.997

>  <SCORE.INTRA.DIHEDRAL.0>
27.8999

>  <SCORE.INTRA.POLAR>
0

>  <SCORE.INTRA.POLAR.0>
0

>  <SCORE.INTRA.REPUL>
0

>  <SCORE.INTRA.REPUL.0>
0

>  <SCORE.INTRA.SOLV>
-0.234361

>  <SCORE.INTRA.SOLV.lig_0>
-104.479

>  <SCORE.INTRA.VDW>
1.93008

>  <SCORE.INTRA.VDW.0>
-6.17816

>  <SCORE.INTRA.norm>
-0.147277

>  <SCORE.RESTR>
0.253648

>  <SCORE.RESTR.CAVITY>
0.253648

>  <SCORE.RESTR.norm>
0.00603923

>  <SCORE.SYSTEM>
0

>  <SCORE.SYSTEM.CONST>
0

>  <SCORE.SYSTEM.DIHEDRAL>
0

>  <SCORE.SYSTEM.SOLV>
0

>  <SCORE.SYSTEM.norm>
0

>  <SCORE.heavy>
42

>  <SCORE.norm>
-0.16473

>  <RMSD>
4.360

$$$$
2o3w_lig
 OpenBabel11021811463D
libRbt.so/2013.1/901 2013/11/27
 42 45  0  0  0  0  0  0  0  0999 V2000
   10.3616    2.7240    5.1177 C   0  0  2  0  0  0  0  0  0  0  0  0
   10.5493    3.5672    6.2671 O   0  0  0  0  0  0  0  0  0  0  0  0
   12.4318    7.3950    7.0418 C   0  0  2  0  0  0  0  0  0  0  0  0
   13.3790    8.5495    7.0228 N   0  0  0  0  0  0  0  0  0  0  0  0
    9.5612    5.9754    3.4077 C   0  0  1  0  0  0  0  0  0  0  0  0
    7.2699    8.3123    0.2934 C   0  0  1  0  0  0  0  0  0  0  0  0
    9.1925    1.7501    5.4538 C   0  0  2  0  0  0  0  0  0  0  0  0
    8.0075    2.4514    5.9778 N   0  0  0  0  0  0  0  0  0  0  0  0
   13.1125    6.1040    7.6517 C   0  0  0  0  0  0  0  0  0  0  0  0
    9.9235    7.3113    2.6900 C   0  0  2  0  0  0  0  0  0  0  0  0
    9.6196    8.4975    3.4644 O   0  0  0  0  0  0  0  0  0  0  0  0
    5.9736    9.1716    0.5175 C   0  0  2  0  0  0  0  0  0  0  0  0
    4.9092    8.3663    1.1879 N   0  0  0  0  0  0  0  0  0  0  0  0
    9.5907    0.7009    6.5081 C   0  0  1  0  0  0  0  0  0  0  0  0
    8.5041   -0.1928    6.7555 O   0  0  0  0  0  0  0  0  0  0  0  0
   12.0607    4.9309    7.6658 C   0  0  2  0  0  0  0  0  0  0  0  0
   12.6642    3.7019    8.2481 N   0  0  0  0  0  0  0  0  0  0  0  0
    9.1527    7.1618    1.3775 C   0  0  2  0  0  0  0  0  0  0  0  0
    7.8011    7.7124    1.4815 O   0  0  0  0  0  0  0  0  0  0  0  0
    5.4647    9.7382   -0.8921 C   0  0  1  0  0  0  0  0  0  0  0  0
    6.3520   10.7966   -1.3180 O   0  0  0  0  0  0  0  0  0  0  0  0
   10.8488   -0.0590    6.0296 C   0  0  2  0  0  0  0  0  0  0  0  0
   11.2167   -1.0350    6.9764 O   0  0  0  0  0  0  0  0  0  0  0  0
   11.5458    4.6270    6.2035 C   0  0  2  0  0  0  0  0  0  0  0  0
    9.1185    5.6543    1.0746 C   0  0  2  0  0  0  0  0  0  0  0  0
    9.1215    5.0658    2.3731 O   0  0  0  0  0  0  0  0  0  0  0  0
    5.3935    8.6094   -2.0271 C   0  0  2  0  0  0  0  0  0  0  0  0
    4.3293    7.7219   -1.6862 O   0  0  0  0  0  0  0  0  0  0  0  0
   12.0117    0.9654    5.8109 C   0  0  2  0  0  0  0  0  0  0  0  0
   11.6025    1.9727    4.8323 O   0  0  0  0  0  0  0  0  0  0  0  0
   10.9171    5.8617    5.5213 C   0  0  2  0  0  0  0  0  0  0  0  0
   10.6750    5.4563    4.1459 O   0  0  0  0  0  0  0  0  0  0  0  0
   10.3109    5.1280    0.2171 C   0  0  0  0  0  0  0  0  0  0  0  0
   10.2611    5.7256   -1.0749 O   0  0  0  0  0  0  0  0  0  0  0  0
    6.7548    7.8208   -2.1129 C   0  0  1  0  0  0  0  0  0  0  0  0
    6.9932    7.2686   -0.7681 O   0  0  0  0  0  0  0  0  0  0  0  0
   13.2853    0.3064    5.3340 C   0  0  0  0  0  0  0  0  0  0  0  0
   13.0466   -0.4057    4.1444 O   0  0  0  0  0  0  0  0  0  0  0  0
   11.9195    7.0897    5.5772 C   0  0  1  0  0  0  0  0  0  0  0  0
   11.2814    8.2704    5.0829 O   0  0  0  0  0  0  0  0  0  0  0  0
    6.7609    6.6553   -3.1947 C   0  0  0  0  0  0  0  0  0  0  0  0
    6.5921    7.0903   -4.6085 N   0  0  0  0  0  0  0  0  0  0  0  0
  1  2  1  1  0  0  0
  1  7  1  0  0  0  0
  1 30  1  0  0  0  0
  3  4  1  6  0  0  0
  3  9  1  0  0  0  0
  3 39  1  0  0  0  0
  5 10  1  0  0  0  0
  5 26  1  0  0  0  0
  5 32  1  6  0  0  0
  6 12  1  0  0  0  0
  6 36  1  0  0  0  0
  6 19  1  1  0  0  0
  7  8  1  1  0  0  0
  7 14  1  0  0  0  0
  9 16  1  0  0  0  0
 10 11  1  1  0  0  0
 10 18  1  0  0  0  0
 12 13  1  6  0  0  0
 12 20  1  0  0  0  0
 14 15  1  6  0  0  0
 14 22  1  0  0  0  0
 16 17  1  6  0  0  0
 16 24  1  0  0  0  0
 18 19  1  1  0  0  0
 18 25  1  0  0  0  0
 20 21  1  6  0  0  0
 20 27  1  0  0  0  0
 22 23  1  1  0  0  0
 22 29  1  0  0  0  0
 24  2  1  1  0  0  0
 24 31  1  0  0  0  0
 25 26  1  0  0  0  0
 25 33  1  6  0  0  0
 27 28  1  1  0  0  0
 27 35  1  0  0  0  0
 29 30  1  0  0  0  0
 29 37  1  6  0  0  0
 31 32  1  6  0  0  0
 31 39  1  0  0  0  0
 33 34  1  0  0  0  0
 35 36  1  0  0  0  0
 35 41  1  6  0  0  0
 37 38  1  0  0  0  0
 39 40  1  1  0  0  0
 41 42  1  0  0  0  0
M  END
>  <CHROM.1>
-176.97988302,87.75470708,-166.78850130,146.40480283,-153.11508429,-64.29860658
57.00944037,147.56784250,63.45628920,9.51669834,5.32386509,3.16402505,0.63748752
0.96421095,3.07584040

>  <Name>
2o3w_lig

>  <RI>
0

>  <Rbt.Current_Directory>
/home/itssahil/PROJECTS/Mol_Feturizer/New_Systems/rnas/2o3w

>  <Rbt.Executable>
rbdock ($Id: //depot/dev/client3/rdock/2013.1/src/exe/rbdock.cxx#4 $)

>  <Rbt.Library>
libRbt.so (2013.1, Build901 2013/11/27)

>  <Rbt.Parameter_File>
/export/apps/rDock/src/rDock_2013.1_src/data/scripts/dock_solv.prm

>  <Rbt.Receptor>
prm/pocket_docking_6.prm

>  <SCORE>
-18.9124

>  <SCORE.INTER>
-13.3479

>  <SCORE.INTER.CONST>
1

>  <SCORE.INTER.POLAR>
-2.1539

>  <SCORE.INTER.ROT>
9

>  <SCORE.INTER.SOLV>
10.9171

>  <SCORE.INTER.VDW>
-14.9579

>  <SCORE.INTER.norm>
-0.317807

>  <SCORE.INTRA>
-5.56451

>  <SCORE.INTRA.DIHEDRAL>
-12.2691

>  <SCORE.INTRA.DIHEDRAL.0>
27.8999

>  <SCORE.INTRA.POLAR>
0

>  <SCORE.INTRA.POLAR.0>
0

>  <SCORE.INTRA.REPUL>
0

>  <SCORE.INTRA.REPUL.0>
0

>  <SCORE.INTRA.SOLV>
-4.39696

>  <SCORE.INTRA.SOLV.lig_0>
-104.479

>  <SCORE.INTRA.VDW>
2.76854

>  <SCORE.INTRA.VDW.0>
-6.17816

>  <SCORE.INTRA.norm>
-0.132488

>  <SCORE.RESTR>
0

>  <SCORE.RESTR.CAVITY>
0

>  <SCORE.RESTR.norm>
0

>  <SCORE.SYSTEM>
0

>  <SCORE.SYSTEM.CONST>
0

>  <SCORE.SYSTEM.DIHEDRAL>
0

>  <SCORE.SYSTEM.SOLV>
0

>  <SCORE.SYSTEM.norm>
0

>  <SCORE.heavy>
42

>  <SCORE.norm>
-0.450295

>  <RMSD>
4.469

$$$$
2o3w_lig
 OpenBabel11021811463D
libRbt.so/2013.1/901 2013/11/27
 42 45  0  0  0  0  0  0  0  0999 V2000
    6.2733    0.3460    4.9264 C   0  0  2  0  0  0  0  0  0  0  0  0
    6.7473    1.3777    4.0442 O   0  0  0  0  0  0  0  0  0  0  0  0
    5.8948    4.7622    6.6161 C   0  0  2  0  0  0  0  0  0  0  0  0
    5.7720    6.1492    7.1559 N   0  0  0  0  0  0  0  0  0  0  0  0
    5.3182    4.0233    2.2339 C   0  0  1  0  0  0  0  0  0  0  0  0
    5.8786    6.5331   -1.4197 C   0  0  1  0  0  0  0  0  0  0  0  0
    6.6746   -1.0179    4.2887 C   0  0  2  0  0  0  0  0  0  0  0  0
    8.0949   -1.0620    3.8993 N   0  0  0  0  0  0  0  0  0  0  0  0
    7.4102    4.3584    6.4104 C   0  0  0  0  0  0  0  0  0  0  0  0
    4.7225    3.7304    0.8231 C   0  0  2  0  0  0  0  0  0  0  0  0
    5.4579    2.7368    0.0676 O   0  0  0  0  0  0  0  0  0  0  0  0
    7.2146    6.7930   -2.2047 C   0  0  2  0  0  0  0  0  0  0  0  0
    8.3559    6.9957   -1.2628 N   0  0  0  0  0  0  0  0  0  0  0  0
    5.8565   -1.3346    3.0232 C   0  0  1  0  0  0  0  0  0  0  0  0
    6.2291   -2.6090    2.4960 O   0  0  0  0  0  0  0  0  0  0  0  0
    7.4752    2.8825    5.8626 C   0  0  2  0  0  0  0  0  0  0  0  0
    8.8899    2.4636    5.6708 N   0  0  0  0  0  0  0  0  0  0  0  0
    4.6913    5.1342    0.2166 C   0  0  2  0  0  0  0  0  0  0  0  0
    5.9335    5.4413   -0.4930 O   0  0  0  0  0  0  0  0  0  0  0  0
    7.0264    8.0634   -3.1626 C   0  0  1  0  0  0  0  0  0  0  0  0
    6.1915    7.6861   -4.2804 O   0  0  0  0  0  0  0  0  0  0  0  0
    4.3484   -1.2810    3.3575 C   0  0  2  0  0  0  0  0  0  0  0  0
    3.5856   -1.5852    2.2129 O   0  0  0  0  0  0  0  0  0  0  0  0
    6.6963    2.7618    4.4934 C   0  0  2  0  0  0  0  0  0  0  0  0
    4.4680    6.0999    1.3926 C   0  0  2  0  0  0  0  0  0  0  0  0
    5.1001    5.4312    2.4816 O   0  0  0  0  0  0  0  0  0  0  0  0
    6.3775    9.3199   -2.4090 C   0  0  2  0  0  0  0  0  0  0  0  0
    7.3445    9.8136   -1.4831 O   0  0  0  0  0  0  0  0  0  0  0  0
    3.9948    0.1459    3.8945 C   0  0  2  0  0  0  0  0  0  0  0  0
    4.8055    0.4418    5.0756 O   0  0  0  0  0  0  0  0  0  0  0  0
    5.2182    3.1953    4.6051 C   0  0  2  0  0  0  0  0  0  0  0  0
    4.7168    3.1982    3.2402 O   0  0  0  0  0  0  0  0  0  0  0  0
    2.9732    6.4093    1.7154 C   0  0  0  0  0  0  0  0  0  0  0  0
    2.3633    7.0179    0.5812 O   0  0  0  0  0  0  0  0  0  0  0  0
    5.0634    8.8952   -1.6506 C   0  0  1  0  0  0  0  0  0  0  0  0
    5.4536    7.8128   -0.7307 O   0  0  0  0  0  0  0  0  0  0  0  0
    2.5337    0.2864    4.2540 C   0  0  0  0  0  0  0  0  0  0  0  0
    2.2149   -0.5637    5.3288 O   0  0  0  0  0  0  0  0  0  0  0  0
    5.1175    4.6435    5.2441 C   0  0  1  0  0  0  0  0  0  0  0  0
    3.7492    4.9817    5.4869 O   0  0  0  0  0  0  0  0  0  0  0  0
    4.3697   10.0778   -0.8451 C   0  0  0  0  0  0  0  0  0  0  0  0
    3.8528   11.2021   -1.6729 N   0  0  0  0  0  0  0  0  0  0  0  0
  1  2  1  6  0  0  0
  1  7  1  0  0  0  0
  1 30  1  0  0  0  0
  3  4  1  6  0  0  0
  3  9  1  0  0  0  0
  3 39  1  0  0  0  0
  5 10  1  0  0  0  0
  5 26  1  0  0  0  0
  5 32  1  1  0  0  0
  6 12  1  0  0  0  0
  6 36  1  0  0  0  0
  6 19  1  1  0  0  0
  7  8  1  6  0  0  0
  7 14  1  0  0  0  0
  9 16  1  0  0  0  0
 10 11  1  6  0  0  0
 10 18  1  0  0  0  0
 12 13  1  1  0  0  0
 12 20  1  0  0  0  0
 14 15  1  1  0  0  0
 14 22  1  0  0  0  0
 16 17  1  6  0  0  0
 16 24  1  0  0  0  0
 18 19  1  1  0  0  0
 18 25  1  0  0  0  0
 20 21  1  6  0  0  0
 20 27  1  0  0  0  0
 22 23  1  6  0  0  0
 22 29  1  0  0  0  0
 24  2  1  1  0  0  0
 24 31  1  0  0  0  0
 25 26  1  0  0  0  0
 25 33  1  1  0  0  0
 27 28  1  1  0  0  0
 27 35  1  0  0  0  0
 29 30  1  0  0  0  0
 29 37  1  1  0  0  0
 31 32  1  6  0  0  0
 31 39  1  0  0  0  0
 33 34  1  0  0  0  0
 35 36  1  0  0  0  0
 35 41  1  1  0  0  0
 37 38  1  0  0  0  0
 39 40  1  1  0  0  0
 41 42  1  0  0  0  0
M  END
>  <CHROM.1>
-170.46175785,173.23754377,-177.57749738,162.10676353,55.52072474,-60.78840257
64.70920280,-58.97861857,64.29921458,5.45706390,4.07599092,2.11191053,-2.36561932
1.53580271,0.15215828

>  <Name>
2o3w_lig

>  <RI>
0

>  <Rbt.Current_Directory>
/home/itssahil/PROJECTS/Mol_Feturizer/New_Systems/rnas/2o3w

>  <Rbt.Executable>
rbdock ($Id: //depot/dev/client3/rdock/2013.1/src/exe/rbdock.cxx#4 $)

>  <Rbt.Library>
libRbt.so (2013.1, Build901 2013/11/27)

>  <Rbt.Parameter_File>
/export/apps/rDock/src/rDock_2013.1_src/data/scripts/dock_solv.prm

>  <Rbt.Receptor>
prm/pocket_docking_6.prm

>  <SCORE>
-22.5

>  <SCORE.INTER>
-9.7868

>  <SCORE.INTER.CONST>
1

>  <SCORE.INTER.POLAR>
-1.93808

>  <SCORE.INTER.ROT>
9

>  <SCORE.INTER.SOLV>
14.4045

>  <SCORE.INTER.VDW>
-14.4657

>  <SCORE.INTER.norm>
-0.233019

>  <SCORE.INTRA>
-12.7132

>  <SCORE.INTRA.DIHEDRAL>
-25.3388

>  <SCORE.INTRA.DIHEDRAL.0>
27.8999

>  <SCORE.INTRA.POLAR>
0

>  <SCORE.INTRA.POLAR.0>
0

>  <SCORE.INTRA.REPUL>
0

>  <SCORE.INTRA.REPUL.0>
0

>  <SCORE.INTRA.SOLV>
-4.19353

>  <SCORE.INTRA.SOLV.lig_0>
-104.479

>  <SCORE.INTRA.VDW>
2.053

>  <SCORE.INTRA.VDW.0>
-6.17816

>  <SCORE.INTRA.norm>
-0.302694

>  <SCORE.RESTR>
0

>  <SCORE.RESTR.CAVITY>
0

>  <SCORE.RESTR.norm>
0

>  <SCORE.SYSTEM>
0

>  <SCORE.SYSTEM.CONST>
0

>  <SCORE.SYSTEM.DIHEDRAL>
0

>  <SCORE.SYSTEM.SOLV>
0

>  <SCORE.SYSTEM.norm>
0

>  <SCORE.heavy>
42

>  <SCORE.norm>
-0.535713

>  <RMSD>
4.514

$$$$
2o3w_lig
 OpenBabel11021811463D
libRbt.so/2013.1/901 2013/11/27
 42 45  0  0  0  0  0  0  0  0999 V2000
    9.9749    2.5563    4.7118 C   0  0  2  0  0  0  0  0  0  0  0  0
   10.7528    3.2177    3.6995 O   0  0  0  0  0  0  0  0  0  0  0  0
   10.8063    7.1752    5.4692 C   0  0  2  0  0  0  0  0  0  0  0  0
   11.1156    8.6091    5.7497 N   0  0  0  0  0  0  0  0  0  0  0  0
    8.7580    6.2465    1.5196 C   0  0  1  0  0  0  0  0  0  0  0  0
    6.3673    7.9693   -1.9136 C   0  0  1  0  0  0  0  0  0  0  0  0
    9.7950    1.0778    4.2539 C   0  0  2  0  0  0  0  0  0  0  0  0
   11.0691    0.4497    3.8631 N   0  0  0  0  0  0  0  0  0  0  0  0
   12.0826    6.2628    5.6699 C   0  0  0  0  0  0  0  0  0  0  0  0
    8.9518    6.1920   -0.0265 C   0  0  2  0  0  0  0  0  0  0  0  0
    9.8636    7.1931   -0.5418 O   0  0  0  0  0  0  0  0  0  0  0  0
    7.1378    7.6689   -3.2496 C   0  0  2  0  0  0  0  0  0  0  0  0
    8.4371    8.4044   -3.2930 N   0  0  0  0  0  0  0  0  0  0  0  0
    8.8480    0.9512    3.0464 C   0  0  1  0  0  0  0  0  0  0  0  0
    8.6815   -0.4213    2.6866 O   0  0  0  0  0  0  0  0  0  0  0  0
   11.6890    4.7645    5.3824 C   0  0  2  0  0  0  0  0  0  0  0  0
   12.8652    3.8742    5.5763 N   0  0  0  0  0  0  0  0  0  0  0  0
    7.5053    6.3014   -0.5112 C   0  0  2  0  0  0  0  0  0  0  0  0
    7.1120    7.6951   -0.7204 O   0  0  0  0  0  0  0  0  0  0  0  0
    6.2108    8.0643   -4.4950 C   0  0  1  0  0  0  0  0  0  0  0  0
    5.1612    7.0796   -4.6274 O   0  0  0  0  0  0  0  0  0  0  0  0
    7.4931    1.6150    3.3819 C   0  0  2  0  0  0  0  0  0  0  0  0
    6.6087    1.4929    2.2922 O   0  0  0  0  0  0  0  0  0  0  0  0
   11.1410    4.6054    3.9092 C   0  0  2  0  0  0  0  0  0  0  0  0
    6.6425    5.6358    0.5740 C   0  0  2  0  0  0  0  0  0  0  0  0
    7.3802    5.8847    1.7683 O   0  0  0  0  0  0  0  0  0  0  0  0
    5.5625    9.5224   -4.3496 C   0  0  2  0  0  0  0  0  0  0  0  0
    6.6158   10.4769   -4.4758 O   0  0  0  0  0  0  0  0  0  0  0  0
    7.7352    3.1213    3.7315 C   0  0  2  0  0  0  0  0  0  0  0  0
    8.6628    3.2218    4.8581 O   0  0  0  0  0  0  0  0  0  0  0  0
    9.9242    5.5121    3.6218 C   0  0  2  0  0  0  0  0  0  0  0  0
    9.6754    5.3767    2.1955 O   0  0  0  0  0  0  0  0  0  0  0  0
    6.3967    4.1080    0.3743 C   0  0  0  0  0  0  0  0  0  0  0  0
    7.6412    3.4185    0.4424 O   0  0  0  0  0  0  0  0  0  0  0  0
    4.8506    9.6774   -2.9527 C   0  0  1  0  0  0  0  0  0  0  0  0
    5.8807    9.4031   -1.9359 O   0  0  0  0  0  0  0  0  0  0  0  0
    6.4580    3.8498    4.0804 C   0  0  0  0  0  0  0  0  0  0  0  0
    5.8373    3.2384    5.1851 O   0  0  0  0  0  0  0  0  0  0  0  0
   10.2608    7.0168    3.9934 C   0  0  1  0  0  0  0  0  0  0  0  0
    9.0900    7.8291    3.8711 O   0  0  0  0  0  0  0  0  0  0  0  0
    4.2064   11.1108   -2.7096 C   0  0  0  0  0  0  0  0  0  0  0  0
    3.4998   11.2854   -1.4109 N   0  0  0  0  0  0  0  0  0  0  0  0
  1  2  1  6  0  0  0
  1  7  1  0  0  0  0
  1 30  1  0  0  0  0
  3  4  1  6  0  0  0
  3  9  1  0  0  0  0
  3 39  1  0  0  0  0
  5 10  1  0  0  0  0
  5 26  1  0  0  0  0
  5 32  1  1  0  0  0
  6 12  1  0  0  0  0
  6 36  1  0  0  0  0
  6 19  1  1  0  0  0
  7  8  1  6  0  0  0
  7 14  1  0  0  0  0
  9 16  1  0  0  0  0
 10 11  1  6  0  0  0
 10 18  1  0  0  0  0
 12 13  1  1  0  0  0
 12 20  1  0  0  0  0
 14 15  1  1  0  0  0
 14 22  1  0  0  0  0
 16 17  1  6  0  0  0
 16 24  1  0  0  0  0
 18 19  1  1  0  0  0
 18 25  1  0  0  0  0
 20 21  1  1  0  0  0
 20 27  1  0  0  0  0
 22 23  1  6  0  0  0
 22 29  1  0  0  0  0
 24  2  1  1  0  0  0
 24 31  1  0  0  0  0
 25 26  1  0  0  0  0
 25 33  1  6  0  0  0
 27 28  1  1  0  0  0
 27 35  1  0  0  0  0
 29 30  1  0  0  0  0
 29 37  1  1  0  0  0
 31 32  1  6  0  0  0
 31 39  1  0  0  0  0
 33 34  1  0  0  0  0
 35 36  1  0  0  0  0
 35 41  1  1  0  0  0
 37 38  1  0  0  0  0
 39 40  1  1  0  0  0
 41 42  1  0  0  0  0
M  END
>  <CHROM.1>
-176.48009693,163.80600707,-62.55378207,136.64911817,45.85744056,63.16804967
59.19585158,-169.41174712,178.77049259,8.18218947,5.67316024,1.38207148,0.90583227
0.88885624,2.79018368

>  <Name>
2o3w_lig

>  <RI>
0

>  <Rbt.Current_Directory>
/home/itssahil/PROJECTS/Mol_Feturizer/New_Systems/rnas/2o3w

>  <Rbt.Executable>
rbdock ($Id: //depot/dev/client3/rdock/2013.1/src/exe/rbdock.cxx#4 $)

>  <Rbt.Library>
libRbt.so (2013.1, Build901 2013/11/27)

>  <Rbt.Parameter_File>
/export/apps/rDock/src/rDock_2013.1_src/data/scripts/dock_solv.prm

>  <Rbt.Receptor>
prm/pocket_docking_5.prm

>  <SCORE>
-20.8029

>  <SCORE.INTER>
-10.8024

>  <SCORE.INTER.CONST>
1

>  <SCORE.INTER.POLAR>
-3.00378

>  <SCORE.INTER.ROT>
9

>  <SCORE.INTER.SOLV>
16.7014

>  <SCORE.INTER.VDW>
-12.3561

>  <SCORE.INTER.norm>
-0.257201

>  <SCORE.INTRA>
-10.0005

>  <SCORE.INTRA.DIHEDRAL>
-19.0293

>  <SCORE.INTRA.DIHEDRAL.0>
27.8999

>  <SCORE.INTRA.POLAR>
0

>  <SCORE.INTRA.POLAR.0>
0

>  <SCORE.INTRA.REPUL>
0

>  <SCORE.INTRA.REPUL.0>
0

>  <SCORE.INTRA.SOLV>
-2.17614

>  <SCORE.INTRA.SOLV.lig_0>
-104.479

>  <SCORE.INTRA.VDW>
0.602268

>  <SCORE.INTRA.VDW.0>
-6.17816

>  <SCORE.INTRA.norm>
-0.238106

>  <SCORE.RESTR>
0

>  <SCORE.RESTR.CAVITY>
0

>  <SCORE.RESTR.norm>
0

>  <SCORE.SYSTEM>
0

>  <SCORE.SYSTEM.CONST>
0

>  <SCORE.SYSTEM.DIHEDRAL>
0

>  <SCORE.SYSTEM.SOLV>
0

>  <SCORE.SYSTEM.norm>
0

>  <SCORE.heavy>
42

>  <SCORE.norm>
-0.495307

>  <RMSD>
4.816

$$$$
2o3w_lig
 OpenBabel11021811463D
libRbt.so/2013.1/901 2013/11/27
 42 45  0  0  0  0  0  0  0  0999 V2000
    7.2699    2.4795    5.7947 C   0  0  2  0  0  0  0  0  0  0  0  0
    8.4346    2.9472    5.0934 O   0  0  0  0  0  0  0  0  0  0  0  0
    9.7187    5.9818    7.9109 C   0  0  2  0  0  0  0  0  0  0  0  0
   10.5335    6.9991    8.6400 N   0  0  0  0  0  0  0  0  0  0  0  0
    7.8871    6.2953    3.3958 C   0  0  1  0  0  0  0  0  0  0  0  0
    5.8400    9.2182    0.7494 C   0  0  1  0  0  0  0  0  0  0  0  0
    6.4751    1.5757    4.8050 C   0  0  2  0  0  0  0  0  0  0  0  0
    7.3270    0.5621    4.1589 N   0  0  0  0  0  0  0  0  0  0  0  0
   10.3464    4.5366    8.0501 C   0  0  0  0  0  0  0  0  0  0  0  0
    8.1780    7.8269    3.3766 C   0  0  2  0  0  0  0  0  0  0  0  0
    7.5486    8.5599    4.4562 O   0  0  0  0  0  0  0  0  0  0  0  0
    4.3047    9.5524    0.7399 C   0  0  2  0  0  0  0  0  0  0  0  0
    3.4905    8.3272    0.9984 N   0  0  0  0  0  0  0  0  0  0  0  0
    5.8142    2.3868    3.6752 C   0  0  1  0  0  0  0  0  0  0  0  0
    5.0654    1.5248    2.8166 O   0  0  0  0  0  0  0  0  0  0  0  0
    9.4335    3.5076    7.2818 C   0  0  2  0  0  0  0  0  0  0  0  0
    9.9876    2.1323    7.4042 N   0  0  0  0  0  0  0  0  0  0  0  0
    7.7171    8.1991    1.9665 C   0  0  2  0  0  0  0  0  0  0  0  0
    6.3044    8.5790    1.9449 O   0  0  0  0  0  0  0  0  0  0  0  0
    3.9166   10.2153   -0.6661 C   0  0  1  0  0  0  0  0  0  0  0  0
    4.4297   11.5659   -0.7033 O   0  0  0  0  0  0  0  0  0  0  0  0
    4.9203    3.4894    4.2870 C   0  0  2  0  0  0  0  0  0  0  0  0
    4.2946    4.2305    3.2653 O   0  0  0  0  0  0  0  0  0  0  0  0
    9.3165    3.8981    5.7555 C   0  0  2  0  0  0  0  0  0  0  0  0
    7.9739    6.9583    1.0947 C   0  0  2  0  0  0  0  0  0  0  0  0
    7.8067    5.8806    2.0128 O   0  0  0  0  0  0  0  0  0  0  0  0
    4.4824    9.3923   -1.9191 C   0  0  2  0  0  0  0  0  0  0  0  0
    3.7633    8.1616   -1.9865 O   0  0  0  0  0  0  0  0  0  0  0  0
    5.8008    4.4203    5.1856 C   0  0  2  0  0  0  0  0  0  0  0  0
    6.4465    3.6271    6.2314 O   0  0  0  0  0  0  0  0  0  0  0  0
    8.7616    5.3237    5.5428 C   0  0  2  0  0  0  0  0  0  0  0  0
    8.8965    5.5774    4.1174 O   0  0  0  0  0  0  0  0  0  0  0  0
    9.3796    6.9077    0.4197 C   0  0  0  0  0  0  0  0  0  0  0  0
    9.5130    8.0099   -0.4726 O   0  0  0  0  0  0  0  0  0  0  0  0
    6.0241    9.1145   -1.7512 C   0  0  1  0  0  0  0  0  0  0  0  0
    6.1733    8.3928   -0.4756 O   0  0  0  0  0  0  0  0  0  0  0  0
    5.0026    5.5287    5.8323 C   0  0  0  0  0  0  0  0  0  0  0  0
    5.8155    6.2578    6.7193 O   0  0  0  0  0  0  0  0  0  0  0  0
    9.6050    6.3720    6.3828 C   0  0  1  0  0  0  0  0  0  0  0  0
    9.0006    7.6660    6.3063 O   0  0  0  0  0  0  0  0  0  0  0  0
    6.6631    8.2708   -2.9380 C   0  0  0  0  0  0  0  0  0  0  0  0
    8.1505    8.2789   -3.0034 N   0  0  0  0  0  0  0  0  0  0  0  0
  1  2  1  6  0  0  0
  1  7  1  0  0  0  0
  1 30  1  0  0  0  0
  3  4  1  1  0  0  0
  3  9  1  0  0  0  0
  3 39  1  0  0  0  0
  5 10  1  0  0  0  0
  5 26  1  0  0  0  0
  5 32  1  6  0  0  0
  6 12  1  0  0  0  0
  6 36  1  0  0  0  0
  6 19  1  1  0  0  0
  7  8  1  6  0  0  0
  7 14  1  0  0  0  0
  9 16  1  0  0  0  0
 10 11  1  1  0  0  0
 10 18  1  0  0  0  0
 12 13  1  6  0  0  0
 12 20  1  0  0  0  0
 14 15  1  1  0  0  0
 14 22  1  0  0  0  0
 16 17  1  6  0  0  0
 16 24  1  0  0  0  0
 18 19  1  1  0  0  0
 18 25  1  0  0  0  0
 20 21  1  1  0  0  0
 20 27  1  0  0  0  0
 22 23  1  6  0  0  0
 22 29  1  0  0  0  0
 24  2  1  6  0  0  0
 24 31  1  0  0  0  0
 25 26  1  0  0  0  0
 25 33  1  1  0  0  0
 27 28  1  1  0  0  0
 27 35  1  0  0  0  0
 29 30  1  0  0  0  0
 29 37  1  1  0  0  0
 31 32  1  6  0  0  0
 31 39  1  0  0  0  0
 33 34  1  0  0  0  0
 35 36  1  0  0  0  0
 35 41  1  6  0  0  0
 37 38  1  0  0  0  0
 39 40  1  1  0  0  0
 41 42  1  0  0  0  0
M  END
>  <CHROM.1>
175.63206228,90.84666595,177.39978267,166.98297221,38.75449837,-62.67630085
174.70206895,141.73006464,165.09810922,7.07373951,6.17747100,3.13241004,1.14339526
0.80524483,2.50338837

>  <Name>
2o3w_lig

>  <RI>
0

>  <Rbt.Current_Directory>
/home/itssahil/PROJECTS/Mol_Feturizer/New_Systems/rnas/2o3w

>  <Rbt.Executable>
rbdock ($Id: //depot/dev/client3/rdock/2013.1/src/exe/rbdock.cxx#4 $)

>  <Rbt.Library>
libRbt.so (2013.1, Build901 2013/11/27)

>  <Rbt.Parameter_File>
/export/apps/rDock/src/rDock_2013.1_src/data/scripts/dock_solv.prm

>  <Rbt.Receptor>
prm/pocket_docking_6.prm

>  <SCORE>
-21.3355

>  <SCORE.INTER>
-13.9153

>  <SCORE.INTER.CONST>
1

>  <SCORE.INTER.POLAR>
-2.63533

>  <SCORE.INTER.ROT>
9

>  <SCORE.INTER.SOLV>
12.2453

>  <SCORE.INTER.VDW>
-14.1742

>  <SCORE.INTER.norm>
-0.331317

>  <SCORE.INTRA>
-7.42023

>  <SCORE.INTRA.DIHEDRAL>
-15.0845

>  <SCORE.INTRA.DIHEDRAL.0>
27.8999

>  <SCORE.INTRA.POLAR>
0

>  <SCORE.INTRA.POLAR.0>
0

>  <SCORE.INTRA.REPUL>
0

>  <SCORE.INTRA.REPUL.0>
0

>  <SCORE.INTRA.SOLV>
-1.66646

>  <SCORE.INTRA.SOLV.lig_0>
-104.479

>  <SCORE.INTRA.VDW>
0.955236

>  <SCORE.INTRA.VDW.0>
-6.17816

>  <SCORE.INTRA.norm>
-0.176672

>  <SCORE.RESTR>
0

>  <SCORE.RESTR.CAVITY>
0

>  <SCORE.RESTR.norm>
0

>  <SCORE.SYSTEM>
0

>  <SCORE.SYSTEM.CONST>
0

>  <SCORE.SYSTEM.DIHEDRAL>
0

>  <SCORE.SYSTEM.SOLV>
0

>  <SCORE.SYSTEM.norm>
0

>  <SCORE.heavy>
42

>  <SCORE.norm>
-0.507989

>  <RMSD>
4.862

$$$$
2o3w_lig
 OpenBabel11021811463D
libRbt.so/2013.1/901 2013/11/27
 42 45  0  0  0  0  0  0  0  0999 V2000
    5.9681    0.2145    4.8285 C   0  0  2  0  0  0  0  0  0  0  0  0
    6.5888    1.1576    3.9383 O   0  0  0  0  0  0  0  0  0  0  0  0
    5.9871    4.7046    6.3575 C   0  0  2  0  0  0  0  0  0  0  0  0
    5.9460    6.1217    6.8272 N   0  0  0  0  0  0  0  0  0  0  0  0
    5.0808    3.9083    2.0917 C   0  0  1  0  0  0  0  0  0  0  0  0
    6.5852    5.7699    0.1537 C   0  0  1  0  0  0  0  0  0  0  0  0
    6.3007   -1.2086    4.2878 C   0  0  2  0  0  0  0  0  0  0  0  0
    7.7370   -1.3852    4.0113 N   0  0  0  0  0  0  0  0  0  0  0  0
    7.4742    4.2228    6.1163 C   0  0  0  0  0  0  0  0  0  0  0  0
    4.5724    3.4748    0.6830 C   0  0  2  0  0  0  0  0  0  0  0  0
    5.4811    2.5982   -0.0275 O   0  0  0  0  0  0  0  0  0  0  0  0
    6.5418    7.2959    0.5255 C   0  0  2  0  0  0  0  0  0  0  0  0
    6.4721    8.1424   -0.7031 N   0  0  0  0  0  0  0  0  0  0  0  0
    5.5536   -1.5258    2.9793 C   0  0  1  0  0  0  0  0  0  0  0  0
    5.8569   -2.8517    2.5422 O   0  0  0  0  0  0  0  0  0  0  0  0
    7.4535    2.7193    5.6454 C   0  0  2  0  0  0  0  0  0  0  0  0
    8.8399    2.2277    5.4226 N   0  0  0  0  0  0  0  0  0  0  0  0
    4.3156    4.8333    0.0289 C   0  0  2  0  0  0  0  0  0  0  0  0
    5.5017    5.3256   -0.6723 O   0  0  0  0  0  0  0  0  0  0  0  0
    7.8298    7.6627    1.4049 C   0  0  1  0  0  0  0  0  0  0  0  0
    7.6612    7.1145    2.7315 O   0  0  0  0  0  0  0  0  0  0  0  0
    4.0347   -1.3358    3.1937 C   0  0  2  0  0  0  0  0  0  0  0  0
    3.3348   -1.6386    2.0092 O   0  0  0  0  0  0  0  0  0  0  0  0
    6.6157    2.5639    4.3151 C   0  0  2  0  0  0  0  0  0  0  0  0
    3.9076    5.7827    1.1681 C   0  0  2  0  0  0  0  0  0  0  0  0
    4.6218    5.2654    2.2883 O   0  0  0  0  0  0  0  0  0  0  0  0
    9.1943    7.1150    0.7680 C   0  0  2  0  0  0  0  0  0  0  0  0
    9.4478    7.8657   -0.4188 O   0  0  0  0  0  0  0  0  0  0  0  0
    3.7622    0.1409    3.6349 C   0  0  2  0  0  0  0  0  0  0  0  0
    4.5063    0.4336    4.8598 O   0  0  0  0  0  0  0  0  0  0  0  0
    5.1633    3.0688    4.4595 C   0  0  2  0  0  0  0  0  0  0  0  0
    4.6080    3.0243    3.1163 O   0  0  0  0  0  0  0  0  0  0  0  0
    2.3758    5.8426    1.4580 C   0  0  0  0  0  0  0  0  0  0  0  0
    1.9259    4.5580    1.8780 O   0  0  0  0  0  0  0  0  0  0  0  0
    9.0726    5.5815    0.4276 C   0  0  1  0  0  0  0  0  0  0  0  0
    7.9221    5.4547   -0.4837 O   0  0  0  0  0  0  0  0  0  0  0  0
    2.2954    0.4150    3.8741 C   0  0  0  0  0  0  0  0  0  0  0  0
    1.5662    0.2228    2.6863 O   0  0  0  0  0  0  0  0  0  0  0  0
    5.1509    4.5509    5.0242 C   0  0  1  0  0  0  0  0  0  0  0  0
    3.8093    4.9625    5.3003 O   0  0  0  0  0  0  0  0  0  0  0  0
   10.3750    4.9614   -0.2417 C   0  0  0  0  0  0  0  0  0  0  0  0
   10.2894    3.5181   -0.5968 N   0  0  0  0  0  0  0  0  0  0  0  0
  1  2  1  6  0  0  0
  1  7  1  0  0  0  0
  1 30  1  0  0  0  0
  3  4  1  6  0  0  0
  3  9  1  0  0  0  0
  3 39  1  0  0  0  0
  5 10  1  0  0  0  0
  5 26  1  0  0  0  0
  5 32  1  1  0  0  0
  6 12  1  0  0  0  0
  6 36  1  0  0  0  0
  6 19  1  6  0  0  0
  7  8  1  6  0  0  0
  7 14  1  0  0  0  0
  9 16  1  0  0  0  0
 10 11  1  6  0  0  0
 10 18  1  0  0  0  0
 12 13  1  6  0  0  0
 12 20  1  0  0  0  0
 14 15  1  1  0  0  0
 14 22  1  0  0  0  0
 16 17  1  6  0  0  0
 16 24  1  0  0  0  0
 18 19  1  1  0  0  0
 18 25  1  0  0  0  0
 20 21  1  1  0  0  0
 20 27  1  0  0  0  0
 22 23  1  6  0  0  0
 22 29  1  0  0  0  0
 24  2  1  1  0  0  0
 24 31  1  0  0  0  0
 25 26  1  0  0  0  0
 25 33  1  1  0  0  0
 27 28  1  6  0  0  0
 27 35  1  0  0  0  0
 29 30  1  0  0  0  0
 29 37  1  1  0  0  0
 31 32  1  6  0  0  0
 31 39  1  0  0  0  0
 33 34  1  0  0  0  0
 35 36  1  0  0  0  0
 35 41  1  6  0  0  0
 37 38  1  0  0  0  0
 39 40  1  1  0  0  0
 41 42  1  0  0  0  0
M  END
>  <CHROM.1>
-170.67915615,167.59043157,-90.51049460,-71.83116443,62.49618791,62.60265338
-61.81094584,-67.91840486,-179.10160117,5.86402495,3.38695692,2.54294002
-1.92993190,-0.06023972,-0.46659534

>  <Name>
2o3w_lig

>  <RI>
0

>  <Rbt.Current_Directory>
/home/itssahil/PROJECTS/Mol_Feturizer/New_Systems/rnas/2o3w

>  <Rbt.Executable>
rbdock ($Id: //depot/dev/client3/rdock/2013.1/src/exe/rbdock.cxx#4 $)

>  <Rbt.Library>
libRbt.so (2013.1, Build901 2013/11/27)

>  <Rbt.Parameter_File>
/export/apps/rDock/src/rDock_2013.1_src/data/scripts/dock_solv.prm

>  <Rbt.Receptor>
prm/pocket_docking_5.prm

>  <SCORE>
-18.8131

>  <SCORE.INTER>
-8.94268

>  <SCORE.INTER.CONST>
1

>  <SCORE.INTER.POLAR>
-1.91788

>  <SCORE.INTER.ROT>
9

>  <SCORE.INTER.SOLV>
18.5698

>  <SCORE.INTER.VDW>
-15.3588

>  <SCORE.INTER.norm>
-0.212921

>  <SCORE.INTRA>
-9.87046

>  <SCORE.INTRA.DIHEDRAL>
-21.9211

>  <SCORE.INTRA.DIHEDRAL.0>
27.8999

>  <SCORE.INTRA.POLAR>
0

>  <SCORE.INTRA.POLAR.0>
0

>  <SCORE.INTRA.REPUL>
0

>  <SCORE.INTRA.REPUL.0>
0

>  <SCORE.INTRA.SOLV>
-2.99694

>  <SCORE.INTRA.SOLV.lig_0>
-104.479

>  <SCORE.INTRA.VDW>
2.58858

>  <SCORE.INTRA.VDW.0>
-6.17816

>  <SCORE.INTRA.norm>
-0.235011

>  <SCORE.RESTR>
0

>  <SCORE.RESTR.CAVITY>
0

>  <SCORE.RESTR.norm>
0

>  <SCORE.SYSTEM>
0

>  <SCORE.SYSTEM.CONST>
0

>  <SCORE.SYSTEM.DIHEDRAL>
0

>  <SCORE.SYSTEM.SOLV>
0

>  <SCORE.SYSTEM.norm>
0

>  <SCORE.heavy>
42

>  <SCORE.norm>
-0.447932

>  <RMSD>
4.889

$$$$
2o3w_lig
 OpenBabel11021811463D
libRbt.so/2013.1/901 2013/11/27
 42 45  0  0  0  0  0  0  0  0999 V2000
   10.7946    2.5219    5.1340 C   0  0  2  0  0  0  0  0  0  0  0  0
   11.3155    3.2001    3.9781 O   0  0  0  0  0  0  0  0  0  0  0  0
   11.1727    7.2820    5.4317 C   0  0  2  0  0  0  0  0  0  0  0  0
   11.4171    8.7453    5.6032 N   0  0  0  0  0  0  0  0  0  0  0  0
    9.0864    5.7974    1.5904 C   0  0  1  0  0  0  0  0  0  0  0  0
    6.8471    6.9302   -2.0678 C   0  0  1  0  0  0  0  0  0  0  0  0
   10.5532    1.0389    4.7212 C   0  0  2  0  0  0  0  0  0  0  0  0
   11.7247    0.4405    4.0578 N   0  0  0  0  0  0  0  0  0  0  0  0
   12.4820    6.4435    5.7224 C   0  0  0  0  0  0  0  0  0  0  0  0
    9.2359    5.6306    0.0475 C   0  0  2  0  0  0  0  0  0  0  0  0
    9.9191    6.7315   -0.6008 O   0  0  0  0  0  0  0  0  0  0  0  0
    8.1164    7.2556   -2.9349 C   0  0  2  0  0  0  0  0  0  0  0  0
    8.8728    8.4088   -2.3616 N   0  0  0  0  0  0  0  0  0  0  0  0
    9.3673    0.8881    3.7506 C   0  0  1  0  0  0  0  0  0  0  0  0
    9.1581   -0.4885    3.4311 O   0  0  0  0  0  0  0  0  0  0  0  0
   12.1562    4.9118    5.5477 C   0  0  2  0  0  0  0  0  0  0  0  0
   13.3647    4.0906    5.8283 N   0  0  0  0  0  0  0  0  0  0  0  0
    7.7803    5.4163   -0.3704 C   0  0  2  0  0  0  0  0  0  0  0  0
    7.1180    6.6831   -0.6824 O   0  0  0  0  0  0  0  0  0  0  0  0
    7.6640    7.5562   -4.4422 C   0  0  1  0  0  0  0  0  0  0  0  0
    7.2867    6.3121   -5.0737 O   0  0  0  0  0  0  0  0  0  0  0  0
    8.1040    1.5203    4.3780 C   0  0  2  0  0  0  0  0  0  0  0  0
    7.0050    1.3756    3.5087 O   0  0  0  0  0  0  0  0  0  0  0  0
   11.6419    4.6152    4.0837 C   0  0  2  0  0  0  0  0  0  0  0  0
    7.0989    4.7079    0.8125 C   0  0  2  0  0  0  0  0  0  0  0  0
    7.8137    5.2070    1.9405 O   0  0  0  0  0  0  0  0  0  0  0  0
    6.4458    8.5933   -4.5309 C   0  0  2  0  0  0  0  0  0  0  0  0
    6.9381    9.8715   -4.1306 O   0  0  0  0  0  0  0  0  0  0  0  0
    8.3817    3.0323    4.6716 C   0  0  2  0  0  0  0  0  0  0  0  0
    9.5315    3.1564    5.5673 O   0  0  0  0  0  0  0  0  0  0  0  0
   10.3939    5.4438    3.7080 C   0  0  2  0  0  0  0  0  0  0  0  0
   10.1767    5.1871    2.2933 O   0  0  0  0  0  0  0  0  0  0  0  0
    7.1470    3.1492    0.7624 C   0  0  0  0  0  0  0  0  0  0  0  0
    6.0244    2.6212    1.4623 O   0  0  0  0  0  0  0  0  0  0  0  0
    5.2644    8.1448   -3.5900 C   0  0  1  0  0  0  0  0  0  0  0  0
    5.8354    8.0443   -2.2358 O   0  0  0  0  0  0  0  0  0  0  0  0
    7.1957    3.7310    5.2952 C   0  0  0  0  0  0  0  0  0  0  0  0
    6.1149    3.7487    4.3947 O   0  0  0  0  0  0  0  0  0  0  0  0
   10.6610    6.9859    3.9651 C   0  0  1  0  0  0  0  0  0  0  0  0
    9.4598    7.7353    3.7621 O   0  0  0  0  0  0  0  0  0  0  0  0
    4.0230    9.1386   -3.5907 C   0  0  0  0  0  0  0  0  0  0  0  0
    3.3054    9.2689   -4.8886 N   0  0  0  0  0  0  0  0  0  0  0  0
  1  2  1  6  0  0  0
  1  7  1  0  0  0  0
  1 30  1  0  0  0  0
  3  4  1  6  0  0  0
  3  9  1  0  0  0  0
  3 39  1  0  0  0  0
  5 10  1  0  0  0  0
  5 26  1  0  0  0  0
  5 32  1  1  0  0  0
  6 12  1  0  0  0  0
  6 36  1  0  0  0  0
  6 19  1  1  0  0  0
  7  8  1  6  0  0  0
  7 14  1  0  0  0  0
  9 16  1  0  0  0  0
 10 11  1  6  0  0  0
 10 18  1  0  0  0  0
 12 13  1  1  0  0  0
 12 20  1  0  0  0  0
 14 15  1  1  0  0  0
 14 22  1  0  0  0  0
 16 17  1  6  0  0  0
 16 24  1  0  0  0  0
 18 19  1  1  0  0  0
 18 25  1  0  0  0  0
 20 21  1  1  0  0  0
 20 27  1  0  0  0  0
 22 23  1  6  0  0  0
 22 29  1  0  0  0  0
 24  2  1  1  0  0  0
 24 31  1  0  0  0  0
 25 26  1  0  0  0  0
 25 33  1  6  0  0  0
 27 28  1  1  0  0  0
 27 35  1  0  0  0  0
 29 30  1  0  0  0  0
 29 37  1  1  0  0  0
 31 32  1  6  0  0  0
 31 39  1  0  0  0  0
 33 34  1  0  0  0  0
 35 36  1  0  0  0  0
 35 41  1  1  0  0  0
 37 38  1  0  0  0  0
 39 40  1  1  0  0  0
 41 42  1  0  0  0  0
M  END
>  <CHROM.1>
-179.66222667,167.50923710,-71.98373137,107.98497426,33.25678504,-152.41389716
-64.22288065,179.91848978,64.11031955,8.63085535,5.25223603,1.50870033,0.96725276
0.80616426,2.55925170

>  <Name>
2o3w_lig

>  <RI>
0

>  <Rbt.Current_Directory>
/home/itssahil/PROJECTS/Mol_Feturizer/New_Systems/rnas/2o3w

>  <Rbt.Executable>
rbdock ($Id: //depot/dev/client3/rdock/2013.1/src/exe/rbdock.cxx#4 $)

>  <Rbt.Library>
libRbt.so (2013.1, Build901 2013/11/27)

>  <Rbt.Parameter_File>
/export/apps/rDock/src/rDock_2013.1_src/data/scripts/dock_solv.prm

>  <Rbt.Receptor>
prm/pocket_docking_6.prm

>  <SCORE>
-20.4961

>  <SCORE.INTER>
-14.0996

>  <SCORE.INTER.CONST>
1

>  <SCORE.INTER.POLAR>
-3.37793

>  <SCORE.INTER.ROT>
9

>  <SCORE.INTER.SOLV>
17.1513

>  <SCORE.INTER.VDW>
-13.4571

>  <SCORE.INTER.norm>
-0.335705

>  <SCORE.INTRA>
-6.45139

>  <SCORE.INTRA.DIHEDRAL>
-14.4995

>  <SCORE.INTRA.DIHEDRAL.0>
27.8999

>  <SCORE.INTRA.POLAR>
0

>  <SCORE.INTRA.POLAR.0>
0

>  <SCORE.INTRA.REPUL>
0

>  <SCORE.INTRA.REPUL.0>
0

>  <SCORE.INTRA.SOLV>
-1.3716

>  <SCORE.INTRA.SOLV.lig_0>
-104.479

>  <SCORE.INTRA.VDW>
1.48415

>  <SCORE.INTRA.VDW.0>
-6.17816

>  <SCORE.INTRA.norm>
-0.153604

>  <SCORE.RESTR>
0.0549275

>  <SCORE.RESTR.CAVITY>
0.0549275

>  <SCORE.RESTR.norm>
0.0013078

>  <SCORE.SYSTEM>
0

>  <SCORE.SYSTEM.CONST>
0

>  <SCORE.SYSTEM.DIHEDRAL>
0

>  <SCORE.SYSTEM.SOLV>
0

>  <SCORE.SYSTEM.norm>
0

>  <SCORE.heavy>
42

>  <SCORE.norm>
-0.488002

>  <RMSD>
4.902

$$$$
2o3w_lig
 OpenBabel11021811463D
libRbt.so/2013.1/901 2013/11/27
 42 45  0  0  0  0  0  0  0  0999 V2000
    7.3615    3.4230    2.0450 C   0  0  2  0  0  0  0  0  0  0  0  0
    6.8626    3.7427    3.3551 O   0  0  0  0  0  0  0  0  0  0  0  0
    7.2776    7.1552    5.9968 C   0  0  2  0  0  0  0  0  0  0  0  0
    7.8477    8.2836    6.7918 N   0  0  0  0  0  0  0  0  0  0  0  0
    7.3236    7.3473    1.3578 C   0  0  1  0  0  0  0  0  0  0  0  0
    6.6367    9.7640   -2.3677 C   0  0  1  0  0  0  0  0  0  0  0  0
    6.3618    2.4087    1.4125 C   0  0  2  0  0  0  0  0  0  0  0  0
    4.9628    2.8599    1.5111 N   0  0  0  0  0  0  0  0  0  0  0  0
    7.8244    5.7609    6.5054 C   0  0  0  0  0  0  0  0  0  0  0  0
    8.0658    7.2213   -0.0075 C   0  0  2  0  0  0  0  0  0  0  0  0
    9.3563    7.8791   -0.0396 O   0  0  0  0  0  0  0  0  0  0  0  0
    5.8779   11.1300   -2.2038 C   0  0  2  0  0  0  0  0  0  0  0  0
    4.7801   11.0131   -1.1977 N   0  0  0  0  0  0  0  0  0  0  0  0
    6.4310    1.0245    2.0834 C   0  0  1  0  0  0  0  0  0  0  0  0
    5.5288    0.1178    1.4473 O   0  0  0  0  0  0  0  0  0  0  0  0
    7.1722    4.6127    5.6460 C   0  0  2  0  0  0  0  0  0  0  0  0
    7.6543    3.2831    6.1078 N   0  0  0  0  0  0  0  0  0  0  0  0
    7.0149    7.7776   -0.9694 C   0  0  2  0  0  0  0  0  0  0  0  0
    7.1608    9.2223   -1.1488 O   0  0  0  0  0  0  0  0  0  0  0  0
    5.3068   11.5917   -3.6277 C   0  0  1  0  0  0  0  0  0  0  0  0
    6.4059   12.0543   -4.4443 O   0  0  0  0  0  0  0  0  0  0  0  0
    7.8845    0.5006    2.0360 C   0  0  2  0  0  0  0  0  0  0  0  0
    7.9617   -0.7737    2.6316 O   0  0  0  0  0  0  0  0  0  0  0  0
    7.5161    4.7988    4.1153 C   0  0  2  0  0  0  0  0  0  0  0  0
    5.6492    7.4275   -0.3548 C   0  0  2  0  0  0  0  0  0  0  0  0
    5.9146    7.4411    1.0459 O   0  0  0  0  0  0  0  0  0  0  0  0
    4.5255   10.4211   -4.3938 C   0  0  2  0  0  0  0  0  0  0  0  0
    3.3158   10.1711   -3.6793 O   0  0  0  0  0  0  0  0  0  0  0  0
    8.8173    1.5152    2.7777 C   0  0  2  0  0  0  0  0  0  0  0  0
    8.7123    2.8311    2.1477 O   0  0  0  0  0  0  0  0  0  0  0  0
    7.0604    6.1665    3.5611 C   0  0  2  0  0  0  0  0  0  0  0  0
    7.6138    6.2382    2.2183 O   0  0  0  0  0  0  0  0  0  0  0  0
    5.0593    6.0538   -0.8010 C   0  0  0  0  0  0  0  0  0  0  0  0
    5.9527    5.0120   -0.4197 O   0  0  0  0  0  0  0  0  0  0  0  0
    5.4032    9.1141   -4.4542 C   0  0  1  0  0  0  0  0  0  0  0  0
    5.7243    8.7719   -3.0578 O   0  0  0  0  0  0  0  0  0  0  0  0
   10.2654    1.0832    2.7744 C   0  0  0  0  0  0  0  0  0  0  0  0
   10.7251    0.9379    1.4527 O   0  0  0  0  0  0  0  0  0  0  0  0
    7.6251    7.3409    4.4654 C   0  0  1  0  0  0  0  0  0  0  0  0
    7.0807    8.5942    4.0430 O   0  0  0  0  0  0  0  0  0  0  0  0
    4.6891    7.8871   -5.1705 C   0  0  0  0  0  0  0  0  0  0  0  0
    4.4146    8.0626   -6.6233 N   0  0  0  0  0  0  0  0  0  0  0  0
  1  2  1  1  0  0  0
  1  7  1  0  0  0  0
  1 30  1  0  0  0  0
  3  4  1  1  0  0  0
  3  9  1  0  0  0  0
  3 39  1  0  0  0  0
  5 10  1  0  0  0  0
  5 26  1  0  0  0  0
  5 32  1  1  0  0  0
  6 12  1  0  0  0  0
  6 36  1  0  0  0  0
  6 19  1  1  0  0  0
  7  8  1  1  0  0  0
  7 14  1  0  0  0  0
  9 16  1  0  0  0  0
 10 11  1  1  0  0  0
 10 18  1  0  0  0  0
 12 13  1  1  0  0  0
 12 20  1  0  0  0  0
 14 15  1  6  0  0  0
 14 22  1  0  0  0  0
 16 17  1  1  0  0  0
 16 24  1  0  0  0  0
 18 19  1  1  0  0  0
 18 25  1  0  0  0  0
 20 21  1  6  0  0  0
 20 27  1  0  0  0  0
 22 23  1  1  0  0  0
 22 29  1  0  0  0  0
 24  2  1  6  0  0  0
 24 31  1  0  0  0  0
 25 26  1  0  0  0  0
 25 33  1  6  0  0  0
 27 28  1  1  0  0  0
 27 35  1  0  0  0  0
 29 30  1  0  0  0  0
 29 37  1  6  0  0  0
 31 32  1  6  0  0  0
 31 39  1  0  0  0  0
 33 34  1  0  0  0  0
 35 36  1  0  0  0  0
 35 41  1  1  0  0  0
 37 38  1  0  0  0  0
 39 40  1  6  0  0  0
 41 42  1  0  0  0  0
M  END
>  <CHROM.1>
-172.59389041,178.13798137,138.78975983,155.84409591,-159.43740728,60.39159392
58.70831075,176.07642474,65.72599624,6.79907659,6.10636086,0.75380181,0.40690474
1.30477780,-2.75722725

>  <Name>
2o3w_lig

>  <RI>
0

>  <Rbt.Current_Directory>
/home/itssahil/PROJECTS/Mol_Feturizer/New_Systems/rnas/2o3w

>  <Rbt.Executable>
rbdock ($Id: //depot/dev/client3/rdock/2013.1/src/exe/rbdock.cxx#4 $)

>  <Rbt.Library>
libRbt.so (2013.1, Build901 2013/11/27)

>  <Rbt.Parameter_File>
/export/apps/rDock/src/rDock_2013.1_src/data/scripts/dock_solv.prm

>  <Rbt.Receptor>
prm/pocket_docking_7.prm

>  <SCORE>
-20.9477

>  <SCORE.INTER>
-12.5327

>  <SCORE.INTER.CONST>
1

>  <SCORE.INTER.POLAR>
-2.62193

>  <SCORE.INTER.ROT>
9

>  <SCORE.INTER.SOLV>
14.1193

>  <SCORE.INTER.VDW>
-13.9218

>  <SCORE.INTER.norm>
-0.298398

>  <SCORE.INTRA>
-8.41497

>  <SCORE.INTRA.DIHEDRAL>
-17.3777

>  <SCORE.INTRA.DIHEDRAL.0>
27.8999

>  <SCORE.INTRA.POLAR>
0

>  <SCORE.INTRA.POLAR.0>
0

>  <SCORE.INTRA.REPUL>
0

>  <SCORE.INTRA.REPUL.0>
0

>  <SCORE.INTRA.SOLV>
-2.5006

>  <SCORE.INTRA.SOLV.lig_0>
-104.479

>  <SCORE.INTRA.VDW>
1.5242

>  <SCORE.INTRA.VDW.0>
-6.17816

>  <SCORE.INTRA.norm>
-0.200356

>  <SCORE.RESTR>
0

>  <SCORE.RESTR.CAVITY>
0

>  <SCORE.RESTR.norm>
0

>  <SCORE.SYSTEM>
0

>  <SCORE.SYSTEM.CONST>
0

>  <SCORE.SYSTEM.DIHEDRAL>
0

>  <SCORE.SYSTEM.SOLV>
0

>  <SCORE.SYSTEM.norm>
0

>  <SCORE.heavy>
42

>  <SCORE.norm>
-0.498755

>  <RMSD>
4.906

$$$$
2o3w_lig
 OpenBabel11021811463D
libRbt.so/2013.1/901 2013/11/27
 42 45  0  0  0  0  0  0  0  0999 V2000
    7.8537   -0.5619    4.6414 C   0  0  2  0  0  0  0  0  0  0  0  0
    6.9645   -1.4612    3.9572 O   0  0  0  0  0  0  0  0  0  0  0  0
    2.6626   -1.9815    3.8212 C   0  0  2  0  0  0  0  0  0  0  0  0
    1.2272   -2.1080    4.2136 N   0  0  0  0  0  0  0  0  0  0  0  0
    5.0331    2.0912    4.1761 C   0  0  1  0  0  0  0  0  0  0  0  0
    5.3509    6.2361    2.8554 C   0  0  1  0  0  0  0  0  0  0  0  0
    9.2372   -0.6623    3.9315 C   0  0  2  0  0  0  0  0  0  0  0  0
    9.1315   -0.5247    2.4684 N   0  0  0  0  0  0  0  0  0  0  0  0
    3.5275   -3.1629    4.4196 C   0  0  0  0  0  0  0  0  0  0  0  0
    5.7823    3.1578    5.0316 C   0  0  2  0  0  0  0  0  0  0  0  0
    5.0148    3.6581    6.1540 O   0  0  0  0  0  0  0  0  0  0  0  0
    6.6217    7.1120    3.1498 C   0  0  2  0  0  0  0  0  0  0  0  0
    6.5515    7.7117    4.5159 N   0  0  0  0  0  0  0  0  0  0  0  0
    9.9368   -2.0070    4.2023 C   0  0  1  0  0  0  0  0  0  0  0  0
   11.2157   -2.0392    3.5665 O   0  0  0  0  0  0  0  0  0  0  0  0
    5.0225   -2.9874    3.9541 C   0  0  2  0  0  0  0  0  0  0  0  0
    5.8637   -4.0922    4.4881 N   0  0  0  0  0  0  0  0  0  0  0  0
    6.1465    4.1917    3.9650 C   0  0  2  0  0  0  0  0  0  0  0  0
    5.1008    5.2045    3.8182 O   0  0  0  0  0  0  0  0  0  0  0  0
    6.7517    8.2487    2.0282 C   0  0  1  0  0  0  0  0  0  0  0  0
    7.1931    7.6393    0.7943 O   0  0  0  0  0  0  0  0  0  0  0  0
   10.0590   -2.2266    5.7274 C   0  0  2  0  0  0  0  0  0  0  0  0
   10.7126   -3.4461    5.9922 O   0  0  0  0  0  0  0  0  0  0  0  0
    5.5983   -1.5994    4.4416 C   0  0  2  0  0  0  0  0  0  0  0  0
    6.3455    3.4030    2.6597 C   0  0  2  0  0  0  0  0  0  0  0  0
    5.4470    2.3061    2.8072 O   0  0  0  0  0  0  0  0  0  0  0  0
    5.3780    9.0342    1.7766 C   0  0  2  0  0  0  0  0  0  0  0  0
    5.1126    9.8210    2.9373 O   0  0  0  0  0  0  0  0  0  0  0  0
    8.6278   -2.2173    6.3609 C   0  0  2  0  0  0  0  0  0  0  0  0
    7.9669   -0.9464    6.0644 O   0  0  0  0  0  0  0  0  0  0  0  0
    4.7681   -0.3973    3.9405 C   0  0  2  0  0  0  0  0  0  0  0  0
    5.3208    0.7605    4.6250 O   0  0  0  0  0  0  0  0  0  0  0  0
    7.8024    2.9051    2.4072 C   0  0  0  0  0  0  0  0  0  0  0  0
    7.8834    2.3266    1.1081 O   0  0  0  0  0  0  0  0  0  0  0  0
    4.1975    8.0223    1.5223 C   0  0  1  0  0  0  0  0  0  0  0  0
    4.1489    7.1448    2.7046 O   0  0  0  0  0  0  0  0  0  0  0  0
    8.6533   -2.4199    7.8582 C   0  0  0  0  0  0  0  0  0  0  0  0
    7.3411   -2.4894    8.3606 O   0  0  0  0  0  0  0  0  0  0  0  0
    3.2387   -0.5932    4.3124 C   0  0  1  0  0  0  0  0  0  0  0  0
    2.4500    0.4416    3.7185 O   0  0  0  0  0  0  0  0  0  0  0  0
    2.7857    8.7179    1.2957 C   0  0  0  0  0  0  0  0  0  0  0  0
    1.6566    7.7958    0.9933 N   0  0  0  0  0  0  0  0  0  0  0  0
  1  2  1  6  0  0  0
  1  7  1  0  0  0  0
  1 30  1  0  0  0  0
  3  4  1  1  0  0  0
  3  9  1  0  0  0  0
  3 39  1  0  0  0  0
  5 10  1  0  0  0  0
  5 26  1  0  0  0  0
  5 32  1  1  0  0  0
  6 12  1  0  0  0  0
  6 36  1  0  0  0  0
  6 19  1  1  0  0  0
  7  8  1  6  0  0  0
  7 14  1  0  0  0  0
  9 16  1  0  0  0  0
 10 11  1  1  0  0  0
 10 18  1  0  0  0  0
 12 13  1  1  0  0  0
 12 20  1  0  0  0  0
 14 15  1  6  0  0  0
 14 22  1  0  0  0  0
 16 17  1  1  0  0  0
 16 24  1  0  0  0  0
 18 19  1  6  0  0  0
 18 25  1  0  0  0  0
 20 21  1  6  0  0  0
 20 27  1  0  0  0  0
 22 23  1  6  0  0  0
 22 29  1  0  0  0  0
 24  2  1  6  0  0  0
 24 31  1  0  0  0  0
 25 26  1  0  0  0  0
 25 33  1  1  0  0  0
 27 28  1  1  0  0  0
 27 35  1  0  0  0  0
 29 30  1  0  0  0  0
 29 37  1  1  0  0  0
 31 32  1  1  0  0  0
 31 39  1  0  0  0  0
 33 34  1  0  0  0  0
 35 36  1  0  0  0  0
 35 41  1  1  0  0  0
 37 38  1  0  0  0  0
 39 40  1  6  0  0  0
 41 42  1  0  0  0  0
M  END
>  <CHROM.1>
178.21009231,-177.72131205,-61.07134742,179.10286104,-157.48488994,-173.53181329
-176.19685311,164.44777595,177.43955727,6.15182944,1.91224457,3.86168112
-1.32806474,-0.07713656,-0.26374703

>  <Name>
2o3w_lig

>  <RI>
0

>  <Rbt.Current_Directory>
/home/itssahil/PROJECTS/Mol_Feturizer/New_Systems/rnas/2o3w

>  <Rbt.Executable>
rbdock ($Id: //depot/dev/client3/rdock/2013.1/src/exe/rbdock.cxx#4 $)

>  <Rbt.Library>
libRbt.so (2013.1, Build901 2013/11/27)

>  <Rbt.Parameter_File>
/export/apps/rDock/src/rDock_2013.1_src/data/scripts/dock_solv.prm

>  <Rbt.Receptor>
prm/pocket_docking_4.prm

>  <SCORE>
-15.6452

>  <SCORE.INTER>
-2.69944

>  <SCORE.INTER.CONST>
1

>  <SCORE.INTER.POLAR>
0

>  <SCORE.INTER.ROT>
9

>  <SCORE.INTER.SOLV>
12.9466

>  <SCORE.INTER.VDW>
-15.7152

>  <SCORE.INTER.norm>
-0.0642723

>  <SCORE.INTRA>
-12.9637

>  <SCORE.INTRA.DIHEDRAL>
-24.1489

>  <SCORE.INTRA.DIHEDRAL.0>
27.8999

>  <SCORE.INTRA.POLAR>
0

>  <SCORE.INTRA.POLAR.0>
0

>  <SCORE.INTRA.REPUL>
0

>  <SCORE.INTRA.REPUL.0>
0

>  <SCORE.INTRA.SOLV>
-4.73721

>  <SCORE.INTRA.SOLV.lig_0>
-104.479

>  <SCORE.INTRA.VDW>
1.47942

>  <SCORE.INTRA.VDW.0>
-6.17816

>  <SCORE.INTRA.norm>
-0.308658

>  <SCORE.RESTR>
0.0178863

>  <SCORE.RESTR.CAVITY>
0.0178863

>  <SCORE.RESTR.norm>
0.000425864

>  <SCORE.SYSTEM>
0

>  <SCORE.SYSTEM.CONST>
0

>  <SCORE.SYSTEM.DIHEDRAL>
0

>  <SCORE.SYSTEM.SOLV>
0

>  <SCORE.SYSTEM.norm>
0

>  <SCORE.heavy>
42

>  <SCORE.norm>
-0.372505

>  <RMSD>
4.928

$$$$
2o3w_lig
 OpenBabel11021811463D
libRbt.so/2013.1/901 2013/11/27
 42 45  0  0  0  0  0  0  0  0999 V2000
    8.2560   -1.0588    3.7676 C   0  0  2  0  0  0  0  0  0  0  0  0
    7.3504   -2.1411    3.4923 O   0  0  0  0  0  0  0  0  0  0  0  0
    3.0231   -2.0859    3.2317 C   0  0  2  0  0  0  0  0  0  0  0  0
    1.5743   -1.9612    3.5720 N   0  0  0  0  0  0  0  0  0  0  0  0
    5.6795    1.6839    3.3720 C   0  0  1  0  0  0  0  0  0  0  0  0
    5.9144    5.9880    2.3515 C   0  0  1  0  0  0  0  0  0  0  0  0
    9.6849   -1.5545    3.3926 C   0  0  2  0  0  0  0  0  0  0  0  0
    9.7386   -2.1548    2.0482 N   0  0  0  0  0  0  0  0  0  0  0  0
    3.6970   -3.2804    4.0195 C   0  0  0  0  0  0  0  0  0  0  0  0
    6.3722    2.7552    4.2682 C   0  0  2  0  0  0  0  0  0  0  0  0
    5.5708    3.1887    5.3947 O   0  0  0  0  0  0  0  0  0  0  0  0
    6.9854    6.9324    3.0070 C   0  0  2  0  0  0  0  0  0  0  0  0
    6.5821    7.3151    4.3933 N   0  0  0  0  0  0  0  0  0  0  0  0
   10.2116   -2.6166    4.3752 C   0  0  1  0  0  0  0  0  0  0  0  0
   11.5367   -3.0122    4.0168 O   0  0  0  0  0  0  0  0  0  0  0  0
    5.2137   -3.3752    3.6031 C   0  0  2  0  0  0  0  0  0  0  0  0
    5.8767   -4.5002    4.3161 N   0  0  0  0  0  0  0  0  0  0  0  0
    6.7045    3.8351    3.2373 C   0  0  2  0  0  0  0  0  0  0  0  0
    5.6182    4.8066    3.1067 O   0  0  0  0  0  0  0  0  0  0  0  0
    7.1816    8.2287    2.0862 C   0  0  1  0  0  0  0  0  0  0  0  0
    7.9225    7.8537    0.9033 O   0  0  0  0  0  0  0  0  0  0  0  0
   10.1596   -2.0574    5.8153 C   0  0  2  0  0  0  0  0  0  0  0  0
   10.6543   -3.0119    6.7256 O   0  0  0  0  0  0  0  0  0  0  0  0
    5.9660   -2.0246    3.9284 C   0  0  2  0  0  0  0  0  0  0  0  0
    6.9525    3.0949    1.9122 C   0  0  2  0  0  0  0  0  0  0  0  0
    6.1000    1.9569    2.0156 O   0  0  0  0  0  0  0  0  0  0  0  0
    5.7927    8.9030    1.6574 C   0  0  2  0  0  0  0  0  0  0  0  0
    5.2148    9.4807    2.8273 O   0  0  0  0  0  0  0  0  0  0  0  0
    8.6817   -1.6765    6.1621 C   0  0  2  0  0  0  0  0  0  0  0  0
    8.1882   -0.6928    5.1984 O   0  0  0  0  0  0  0  0  0  0  0  0
    5.3267   -0.8011    3.2356 C   0  0  2  0  0  0  0  0  0  0  0  0
    6.0185    0.3538    3.7853 O   0  0  0  0  0  0  0  0  0  0  0  0
    8.4323    2.6670    1.6643 C   0  0  0  0  0  0  0  0  0  0  0  0
    8.8329    1.7502    2.6781 O   0  0  0  0  0  0  0  0  0  0  0  0
    4.8193    7.8277    1.0423 C   0  0  1  0  0  0  0  0  0  0  0  0
    4.6581    6.7856    2.0712 O   0  0  0  0  0  0  0  0  0  0  0  0
    8.5385   -1.1124    7.5567 C   0  0  0  0  0  0  0  0  0  0  0  0
    9.1054    0.1736    7.6202 O   0  0  0  0  0  0  0  0  0  0  0  0
    3.7757   -0.7346    3.5606 C   0  0  1  0  0  0  0  0  0  0  0  0
    3.1564    0.3064    2.8000 O   0  0  0  0  0  0  0  0  0  0  0  0
    3.3999    8.4060    0.6188 C   0  0  0  0  0  0  0  0  0  0  0  0
    2.5991    9.0116    1.7181 N   0  0  0  0  0  0  0  0  0  0  0  0
  1  2  1  1  0  0  0
  1  7  1  0  0  0  0
  1 30  1  0  0  0  0
  3  4  1  1  0  0  0
  3  9  1  0  0  0  0
  3 39  1  0  0  0  0
  5 10  1  0  0  0  0
  5 26  1  0  0  0  0
  5 32  1  1  0  0  0
  6 12  1  0  0  0  0
  6 36  1  0  0  0  0
  6 19  1  1  0  0  0
  7  8  1  6  0  0  0
  7 14  1  0  0  0  0
  9 16  1  0  0  0  0
 10 11  1  1  0  0  0
 10 18  1  0  0  0  0
 12 13  1  1  0  0  0
 12 20  1  0  0  0  0
 14 15  1  6  0  0  0
 14 22  1  0  0  0  0
 16 17  1  1  0  0  0
 16 24  1  0  0  0  0
 18 19  1  6  0  0  0
 18 25  1  0  0  0  0
 20 21  1  6  0  0  0
 20 27  1  0  0  0  0
 22 23  1  1  0  0  0
 22 29  1  0  0  0  0
 24  2  1  6  0  0  0
 24 31  1  0  0  0  0
 25 26  1  0  0  0  0
 25 33  1  1  0  0  0
 27 28  1  1  0  0  0
 27 35  1  0  0  0  0
 29 30  1  0  0  0  0
 29 37  1  1  0  0  0
 31 32  1  1  0  0  0
 31 39  1  0  0  0  0
 33 34  1  0  0  0  0
 35 36  1  0  0  0  0
 35 41  1  1  0  0  0
 37 38  1  0  0  0  0
 39 40  1  6  0  0  0
 41 42  1  0  0  0  0
M  END
>  <CHROM.1>
171.34133910,170.10492852,-66.30110411,169.24422368,-175.91296262,62.33029910
71.09701178,-179.69282172,-60.22080671,6.61975552,1.76315699,3.50566554,-1.32844486
-0.23877152,-0.19563350

>  <Name>
2o3w_lig

>  <RI>
0

>  <Rbt.Current_Directory>
/home/itssahil/PROJECTS/Mol_Feturizer/New_Systems/rnas/2o3w

>  <Rbt.Executable>
rbdock ($Id: //depot/dev/client3/rdock/2013.1/src/exe/rbdock.cxx#4 $)

>  <Rbt.Library>
libRbt.so (2013.1, Build901 2013/11/27)

>  <Rbt.Parameter_File>
/export/apps/rDock/src/rDock_2013.1_src/data/scripts/dock_solv.prm

>  <Rbt.Receptor>
prm/pocket_docking_3.prm

>  <SCORE>
-11.0292

>  <SCORE.INTER>
1.09922

>  <SCORE.INTER.CONST>
1

>  <SCORE.INTER.POLAR>
0

>  <SCORE.INTER.ROT>
9

>  <SCORE.INTER.SOLV>
9.87373

>  <SCORE.INTER.VDW>
-12.1584

>  <SCORE.INTER.norm>
0.0261718

>  <SCORE.INTRA>
-12.1285

>  <SCORE.INTRA.DIHEDRAL>
-25.6313

>  <SCORE.INTRA.DIHEDRAL.0>
27.8999

>  <SCORE.INTRA.POLAR>
0

>  <SCORE.INTRA.POLAR.0>
0

>  <SCORE.INTRA.REPUL>
0

>  <SCORE.INTRA.REPUL.0>
0

>  <SCORE.INTRA.SOLV>
-3.16759

>  <SCORE.INTRA.SOLV.lig_0>
-104.479

>  <SCORE.INTRA.VDW>
2.27098

>  <SCORE.INTRA.VDW.0>
-6.17816

>  <SCORE.INTRA.norm>
-0.288773

>  <SCORE.RESTR>
0

>  <SCORE.RESTR.CAVITY>
0

>  <SCORE.RESTR.norm>
0

>  <SCORE.SYSTEM>
0

>  <SCORE.SYSTEM.CONST>
0

>  <SCORE.SYSTEM.DIHEDRAL>
0

>  <SCORE.SYSTEM.SOLV>
0

>  <SCORE.SYSTEM.norm>
0

>  <SCORE.heavy>
42

>  <SCORE.norm>
-0.262601

>  <RMSD>
4.961

$$$$
2o3w_lig
 OpenBabel11021811463D
libRbt.so/2013.1/901 2013/11/27
 42 45  0  0  0  0  0  0  0  0999 V2000
    9.5301    3.5704    4.4764 C   0  0  2  0  0  0  0  0  0  0  0  0
    9.2352    4.7553    3.7171 O   0  0  0  0  0  0  0  0  0  0  0  0
   11.5615    7.5713    6.0525 C   0  0  2  0  0  0  0  0  0  0  0  0
   12.1115    8.8324    6.6334 N   0  0  0  0  0  0  0  0  0  0  0  0
    7.2162    7.3665    5.0729 C   0  0  1  0  0  0  0  0  0  0  0  0
    5.7268    9.4173    1.5483 C   0  0  1  0  0  0  0  0  0  0  0  0
    9.1577    2.3512    3.5803 C   0  0  2  0  0  0  0  0  0  0  0  0
    9.7349    2.4482    2.2282 N   0  0  0  0  0  0  0  0  0  0  0  0
   11.8664    7.4721    4.5036 C   0  0  0  0  0  0  0  0  0  0  0  0
    7.0211    7.1051    3.5483 C   0  0  2  0  0  0  0  0  0  0  0  0
    8.0846    7.6342    2.7188 O   0  0  0  0  0  0  0  0  0  0  0  0
    4.3020    9.4733    0.8885 C   0  0  2  0  0  0  0  0  0  0  0  0
    3.5505    8.2059    1.1333 N   0  0  0  0  0  0  0  0  0  0  0  0
    7.6356    2.1988    3.4041 C   0  0  1  0  0  0  0  0  0  0  0  0
    7.3395    1.0484    2.6105 O   0  0  0  0  0  0  0  0  0  0  0  0
   11.2834    6.1151    3.9547 C   0  0  2  0  0  0  0  0  0  0  0  0
   11.5656    5.9816    2.5000 N   0  0  0  0  0  0  0  0  0  0  0  0
    5.6366    7.7127    3.3175 C   0  0  2  0  0  0  0  0  0  0  0  0
    5.7238    9.1267    2.9516 O   0  0  0  0  0  0  0  0  0  0  0  0
    4.4568    9.7566   -0.6808 C   0  0  1  0  0  0  0  0  0  0  0  0
    4.8351   11.1385   -0.8710 O   0  0  0  0  0  0  0  0  0  0  0  0
    6.9617    2.1153    4.7927 C   0  0  2  0  0  0  0  0  0  0  0  0
    5.5691    1.9587    4.6486 O   0  0  0  0  0  0  0  0  0  0  0  0
    9.7249    6.0381    4.2017 C   0  0  2  0  0  0  0  0  0  0  0  0
    4.8655    7.5246    4.6349 C   0  0  2  0  0  0  0  0  0  0  0  0
    5.8946    7.5796    5.6199 O   0  0  0  0  0  0  0  0  0  0  0  0
    5.5381    8.8037   -1.3812 C   0  0  2  0  0  0  0  0  0  0  0  0
    5.0040    7.4804   -1.3912 O   0  0  0  0  0  0  0  0  0  0  0  0
    7.2915    3.4154    5.5992 C   0  0  2  0  0  0  0  0  0  0  0  0
    8.7414    3.5606    5.7269 O   0  0  0  0  0  0  0  0  0  0  0  0
    9.3468    6.1850    5.6919 C   0  0  2  0  0  0  0  0  0  0  0  0
    7.8957    6.2771    5.7104 O   0  0  0  0  0  0  0  0  0  0  0  0
    4.0579    6.1939    4.7406 C   0  0  0  0  0  0  0  0  0  0  0  0
    4.9615    5.0929    4.7265 O   0  0  0  0  0  0  0  0  0  0  0  0
    6.9012    8.8356   -0.5918 C   0  0  1  0  0  0  0  0  0  0  0  0
    6.5847    8.4278    0.7880 O   0  0  0  0  0  0  0  0  0  0  0  0
    6.6746    3.4161    6.9788 C   0  0  0  0  0  0  0  0  0  0  0  0
    5.2726    3.3492    6.8830 O   0  0  0  0  0  0  0  0  0  0  0  0
   10.0011    7.4968    6.2975 C   0  0  1  0  0  0  0  0  0  0  0  0
    9.7776    7.5532    7.7091 O   0  0  0  0  0  0  0  0  0  0  0  0
    8.0244    7.8889   -1.2007 C   0  0  0  0  0  0  0  0  0  0  0  0
    8.4945    8.2468   -2.5673 N   0  0  0  0  0  0  0  0  0  0  0  0
  1  2  1  6  0  0  0
  1  7  1  0  0  0  0
  1 30  1  0  0  0  0
  3  4  1  6  0  0  0
  3  9  1  0  0  0  0
  3 39  1  0  0  0  0
  5 10  1  0  0  0  0
  5 26  1  0  0  0  0
  5 32  1  1  0  0  0
  6 12  1  0  0  0  0
  6 36  1  0  0  0  0
  6 19  1  1  0  0  0
  7  8  1  6  0  0  0
  7 14  1  0  0  0  0
  9 16  1  0  0  0  0
 10 11  1  6  0  0  0
 10 18  1  0  0  0  0
 12 13  1  6  0  0  0
 12 20  1  0  0  0  0
 14 15  1  6  0  0  0
 14 22  1  0  0  0  0
 16 17  1  6  0  0  0
 16 24  1  0  0  0  0
 18 19  1  1  0  0  0
 18 25  1  0  0  0  0
 20 21  1  1  0  0  0
 20 27  1  0  0  0  0
 22 23  1  6  0  0  0
 22 29  1  0  0  0  0
 24  2  1  1  0  0  0
 24 31  1  0  0  0  0
 25 26  1  0  0  0  0
 25 33  1  6  0  0  0
 27 28  1  1  0  0  0
 27 35  1  0  0  0  0
 29 30  1  0  0  0  0
 29 37  1  1  0  0  0
 31 32  1  6  0  0  0
 31 39  1  0  0  0  0
 33 34  1  0  0  0  0
 35 36  1  0  0  0  0
 35 41  1  6  0  0  0
 37 38  1  0  0  0  0
 39 40  1  1  0  0  0
 41 42  1  0  0  0  0
M  END
>  <CHROM.1>
-168.15472120,83.71785135,83.08280553,94.41243092,73.55659155,64.29073696
-61.21722445,-62.94011621,64.28156841,7.46736200,6.33343985,3.36913523,1.10254668
0.51291299,2.51822883

>  <Name>
2o3w_lig

>  <RI>
0

>  <Rbt.Current_Directory>
/home/itssahil/PROJECTS/Mol_Feturizer/New_Systems/rnas/2o3w

>  <Rbt.Executable>
rbdock ($Id: //depot/dev/client3/rdock/2013.1/src/exe/rbdock.cxx#4 $)

>  <Rbt.Library>
libRbt.so (2013.1, Build901 2013/11/27)

>  <Rbt.Parameter_File>
/export/apps/rDock/src/rDock_2013.1_src/data/scripts/dock_solv.prm

>  <Rbt.Receptor>
prm/pocket_docking_7.prm

>  <SCORE>
-16.2864

>  <SCORE.INTER>
-10.1369

>  <SCORE.INTER.CONST>
1

>  <SCORE.INTER.POLAR>
-0.954589

>  <SCORE.INTER.ROT>
9

>  <SCORE.INTER.SOLV>
18.5194

>  <SCORE.INTER.VDW>
-19.3491

>  <SCORE.INTER.norm>
-0.241354

>  <SCORE.INTRA>
-6.14957

>  <SCORE.INTRA.DIHEDRAL>
-16.9095

>  <SCORE.INTRA.DIHEDRAL.0>
27.8999

>  <SCORE.INTRA.POLAR>
0

>  <SCORE.INTRA.POLAR.0>
0

>  <SCORE.INTRA.REPUL>
0

>  <SCORE.INTRA.REPUL.0>
0

>  <SCORE.INTRA.SOLV>
0.155622

>  <SCORE.INTRA.SOLV.lig_0>
-104.479

>  <SCORE.INTRA.VDW>
2.22735

>  <SCORE.INTRA.VDW.0>
-6.17816

>  <SCORE.INTRA.norm>
-0.146418

>  <SCORE.RESTR>
0

>  <SCORE.RESTR.CAVITY>
0

>  <SCORE.RESTR.norm>
0

>  <SCORE.SYSTEM>
0

>  <SCORE.SYSTEM.CONST>
0

>  <SCORE.SYSTEM.DIHEDRAL>
0

>  <SCORE.SYSTEM.SOLV>
0

>  <SCORE.SYSTEM.norm>
0

>  <SCORE.heavy>
42

>  <SCORE.norm>
-0.387772

>  <RMSD>
5.025

$$$$
2o3w_lig
 OpenBabel11021811463D
libRbt.so/2013.1/901 2013/11/27
 42 45  0  0  0  0  0  0  0  0999 V2000
    6.8907   -2.0772    4.1543 C   0  0  2  0  0  0  0  0  0  0  0  0
    5.8198   -1.1822    4.5001 O   0  0  0  0  0  0  0  0  0  0  0  0
    5.9522    1.3490    0.9828 C   0  0  2  0  0  0  0  0  0  0  0  0
    5.6089    2.3589   -0.0625 N   0  0  0  0  0  0  0  0  0  0  0  0
    6.6457    2.9153    5.1855 C   0  0  1  0  0  0  0  0  0  0  0  0
    7.3011    5.8201    5.3195 C   0  0  1  0  0  0  0  0  0  0  0  0
    7.1441   -2.9845    5.3956 C   0  0  2  0  0  0  0  0  0  0  0  0
    5.9041   -3.5848    5.9178 N   0  0  0  0  0  0  0  0  0  0  0  0
    4.9135    0.1562    0.9915 C   0  0  0  0  0  0  0  0  0  0  0  0
    6.1637    3.4082    6.5839 C   0  0  2  0  0  0  0  0  0  0  0  0
    4.9570    4.2089    6.5429 O   0  0  0  0  0  0  0  0  0  0  0  0
    8.2127    6.9942    4.8103 C   0  0  2  0  0  0  0  0  0  0  0  0
    7.9630    8.2414    5.5932 N   0  0  0  0  0  0  0  0  0  0  0  0
    7.7899   -2.2131    6.5612 C   0  0  1  0  0  0  0  0  0  0  0  0
    8.0400   -3.0905    7.6605 O   0  0  0  0  0  0  0  0  0  0  0  0
    5.3400   -0.8838    2.0956 C   0  0  2  0  0  0  0  0  0  0  0  0
    4.3907   -2.0292    2.1218 N   0  0  0  0  0  0  0  0  0  0  0  0
    7.4157    4.1231    7.0946 C   0  0  2  0  0  0  0  0  0  0  0  0
    7.4184    5.5373    6.7195 O   0  0  0  0  0  0  0  0  0  0  0  0
    7.9454    7.2319    3.2486 C   0  0  1  0  0  0  0  0  0  0  0  0
    8.5500    6.1524    2.5015 O   0  0  0  0  0  0  0  0  0  0  0  0
    9.0903   -1.5350    6.0731 C   0  0  2  0  0  0  0  0  0  0  0  0
    9.7028   -0.8381    7.1331 O   0  0  0  0  0  0  0  0  0  0  0  0
    5.3838   -0.1989    3.5186 C   0  0  2  0  0  0  0  0  0  0  0  0
    8.6113    3.3800    6.4751 C   0  0  2  0  0  0  0  0  0  0  0  0
    8.0910    2.9148    5.2319 O   0  0  0  0  0  0  0  0  0  0  0  0
    6.3861    7.3235    2.8912 C   0  0  2  0  0  0  0  0  0  0  0  0
    5.8880    8.5408    3.4446 O   0  0  0  0  0  0  0  0  0  0  0  0
    8.7480   -0.5618    4.8961 C   0  0  2  0  0  0  0  0  0  0  0  0
    8.1052   -1.3063    3.8133 O   0  0  0  0  0  0  0  0  0  0  0  0
    6.3386    1.0139    3.5703 C   0  0  2  0  0  0  0  0  0  0  0  0
    6.1147    1.6210    4.8725 O   0  0  0  0  0  0  0  0  0  0  0  0
    9.1657    2.1978    7.3291 C   0  0  0  0  0  0  0  0  0  0  0  0
   10.4146    1.7739    6.7911 O   0  0  0  0  0  0  0  0  0  0  0  0
    5.6055    6.0928    3.4897 C   0  0  1  0  0  0  0  0  0  0  0  0
    5.8642    6.1101    4.9399 O   0  0  0  0  0  0  0  0  0  0  0  0
    9.9684    0.1429    4.3506 C   0  0  0  0  0  0  0  0  0  0  0  0
    9.6138    0.9454    3.2508 O   0  0  0  0  0  0  0  0  0  0  0  0
    5.9926    2.0350    2.4070 C   0  0  1  0  0  0  0  0  0  0  0  0
    6.9685    3.0796    2.3609 O   0  0  0  0  0  0  0  0  0  0  0  0
    4.0403    6.1206    3.2102 C   0  0  0  0  0  0  0  0  0  0  0  0
    3.2664    4.9819    3.7768 N   0  0  0  0  0  0  0  0  0  0  0  0
  1  2  1  1  0  0  0
  1  7  1  0  0  0  0
  1 30  1  0  0  0  0
  3  4  1  6  0  0  0
  3  9  1  0  0  0  0
  3 39  1  0  0  0  0
  5 10  1  0  0  0  0
  5 26  1  0  0  0  0
  5 32  1  1  0  0  0
  6 12  1  0  0  0  0
  6 36  1  0  0  0  0
  6 19  1  1  0  0  0
  7  8  1  1  0  0  0
  7 14  1  0  0  0  0
  9 16  1  0  0  0  0
 10 11  1  6  0  0  0
 10 18  1  0  0  0  0
 12 13  1  1  0  0  0
 12 20  1  0  0  0  0
 14 15  1  1  0  0  0
 14 22  1  0  0  0  0
 16 17  1  1  0  0  0
 16 24  1  0  0  0  0
 18 19  1  6  0  0  0
 18 25  1  0  0  0  0
 20 21  1  6  0  0  0
 20 27  1  0  0  0  0
 22 23  1  1  0  0  0
 22 29  1  0  0  0  0
 24  2  1  1  0  0  0
 24 31  1  0  0  0  0
 25 26  1  0  0  0  0
 25 33  1  1  0  0  0
 27 28  1  1  0  0  0
 27 35  1  0  0  0  0
 29 30  1  0  0  0  0
 29 37  1  6  0  0  0
 31 32  1  1  0  0  0
 31 39  1  0  0  0  0
 33 34  1  0  0  0  0
 35 36  1  0  0  0  0
 35 41  1  1  0  0  0
 37 38  1  0  0  0  0
 39 40  1  6  0  0  0
 41 42  1  0  0  0  0
M  END
>  <CHROM.1>
179.14182244,174.68667693,-139.75040081,-56.29778089,41.53244075,-168.36115982
176.75672564,-168.38502543,-179.21900481,7.01883511,2.25735986,4.49428325
1.41079611,0.91427368,-3.11374136

>  <Name>
2o3w_lig

>  <RI>
0

>  <Rbt.Current_Directory>
/home/itssahil/PROJECTS/Mol_Feturizer/New_Systems/rnas/2o3w

>  <Rbt.Executable>
rbdock ($Id: //depot/dev/client3/rdock/2013.1/src/exe/rbdock.cxx#4 $)

>  <Rbt.Library>
libRbt.so (2013.1, Build901 2013/11/27)

>  <Rbt.Parameter_File>
/export/apps/rDock/src/rDock_2013.1_src/data/scripts/dock_solv.prm

>  <Rbt.Receptor>
prm/pocket_docking_4.prm

>  <SCORE>
-10.6774

>  <SCORE.INTER>
-0.783019

>  <SCORE.INTER.CONST>
1

>  <SCORE.INTER.POLAR>
0

>  <SCORE.INTER.ROT>
9

>  <SCORE.INTER.SOLV>
10.9822

>  <SCORE.INTER.VDW>
-13.7828

>  <SCORE.INTER.norm>
-0.0186433

>  <SCORE.INTRA>
-9.89441

>  <SCORE.INTRA.DIHEDRAL>
-19.5048

>  <SCORE.INTRA.DIHEDRAL.0>
27.8999

>  <SCORE.INTRA.POLAR>
0

>  <SCORE.INTRA.POLAR.0>
0

>  <SCORE.INTRA.REPUL>
0

>  <SCORE.INTRA.REPUL.0>
0

>  <SCORE.INTRA.SOLV>
-0.500692

>  <SCORE.INTRA.SOLV.lig_0>
-104.479

>  <SCORE.INTRA.VDW>
0.10832

>  <SCORE.INTRA.VDW.0>
-6.17816

>  <SCORE.INTRA.norm>
-0.235581

>  <SCORE.RESTR>
0

>  <SCORE.RESTR.CAVITY>
0

>  <SCORE.RESTR.norm>
0

>  <SCORE.SYSTEM>
0

>  <SCORE.SYSTEM.CONST>
0

>  <SCORE.SYSTEM.DIHEDRAL>
0

>  <SCORE.SYSTEM.SOLV>
0

>  <SCORE.SYSTEM.norm>
0

>  <SCORE.heavy>
42

>  <SCORE.norm>
-0.254224

>  <RMSD>
5.059

$$$$
2o3w_lig
 OpenBabel11021811463D
libRbt.so/2013.1/901 2013/11/27
 42 45  0  0  0  0  0  0  0  0999 V2000
    9.9241    2.8958    5.7466 C   0  0  2  0  0  0  0  0  0  0  0  0
   10.5144    3.3844    4.5300 O   0  0  0  0  0  0  0  0  0  0  0  0
   12.0497    7.2417    5.7790 C   0  0  2  0  0  0  0  0  0  0  0  0
   12.8853    8.4734    5.9020 N   0  0  0  0  0  0  0  0  0  0  0  0
    9.3106    6.1310    1.9889 C   0  0  1  0  0  0  0  0  0  0  0  0
    6.8493    7.0726   -1.5989 C   0  0  1  0  0  0  0  0  0  0  0  0
    8.7946    1.9032    5.3378 C   0  0  2  0  0  0  0  0  0  0  0  0
    9.2515    0.9014    4.3588 N   0  0  0  0  0  0  0  0  0  0  0  0
   12.8594    5.9533    6.2106 C   0  0  0  0  0  0  0  0  0  0  0  0
    9.3705    5.8624    0.4543 C   0  0  2  0  0  0  0  0  0  0  0  0
   10.0464    6.8988   -0.2994 O   0  0  0  0  0  0  0  0  0  0  0  0
    8.0403    7.2425   -2.6096 C   0  0  2  0  0  0  0  0  0  0  0  0
    8.9105    8.3923   -2.2202 N   0  0  0  0  0  0  0  0  0  0  0  0
    7.5858    2.6204    4.7090 C   0  0  1  0  0  0  0  0  0  0  0  0
    6.5610    1.6786    4.3869 O   0  0  0  0  0  0  0  0  0  0  0  0
   11.9214    4.6940    6.0811 C   0  0  2  0  0  0  0  0  0  0  0  0
   12.6480    3.4630    6.4940 N   0  0  0  0  0  0  0  0  0  0  0  0
    7.8889    5.6664    0.1291 C   0  0  2  0  0  0  0  0  0  0  0  0
    7.2448    6.9305   -0.2288 O   0  0  0  0  0  0  0  0  0  0  0  0
    7.4551    7.4384   -4.0881 C   0  0  1  0  0  0  0  0  0  0  0  0
    6.9509    6.1699   -4.5630 O   0  0  0  0  0  0  0  0  0  0  0  0
    7.0690    3.7070    5.6793 C   0  0  2  0  0  0  0  0  0  0  0  0
    5.9516    4.3618    5.1253 O   0  0  0  0  0  0  0  0  0  0  0  0
   11.4069    4.5330    4.5961 C   0  0  2  0  0  0  0  0  0  0  0  0
    7.2547    5.0553    1.3899 C   0  0  2  0  0  0  0  0  0  0  0  0
    8.0436    5.6029    2.4437 O   0  0  0  0  0  0  0  0  0  0  0  0
    6.2907    8.5372   -4.1557 C   0  0  2  0  0  0  0  0  0  0  0  0
    6.8877    9.8125   -3.9240 O   0  0  0  0  0  0  0  0  0  0  0  0
    8.2218    4.7263    5.9651 C   0  0  2  0  0  0  0  0  0  0  0  0
    9.3725    4.0217    6.5301 O   0  0  0  0  0  0  0  0  0  0  0  0
   10.6527    5.7801    4.0851 C   0  0  2  0  0  0  0  0  0  0  0  0
   10.4210    5.5336    2.6709 O   0  0  0  0  0  0  0  0  0  0  0  0
    7.2580    3.4959    1.4385 C   0  0  0  0  0  0  0  0  0  0  0  0
    8.6033    3.0279    1.4357 O   0  0  0  0  0  0  0  0  0  0  0  0
    5.1879    8.2458   -3.0689 C   0  0  1  0  0  0  0  0  0  0  0  0
    5.8862    8.2282   -1.7718 O   0  0  0  0  0  0  0  0  0  0  0  0
    7.8042    5.8252    6.9147 C   0  0  0  0  0  0  0  0  0  0  0  0
    7.8045    5.3484    8.2383 O   0  0  0  0  0  0  0  0  0  0  0  0
   11.5379    7.0799    4.2916 C   0  0  1  0  0  0  0  0  0  0  0  0
   10.7832    8.2487    3.9599 O   0  0  0  0  0  0  0  0  0  0  0  0
    4.0070    9.3105   -3.0429 C   0  0  0  0  0  0  0  0  0  0  0  0
    2.9673    9.0911   -2.0001 N   0  0  0  0  0  0  0  0  0  0  0  0
  1  2  1  6  0  0  0
  1  7  1  0  0  0  0
  1 30  1  0  0  0  0
  3  4  1  6  0  0  0
  3  9  1  0  0  0  0
  3 39  1  0  0  0  0
  5 10  1  0  0  0  0
  5 26  1  0  0  0  0
  5 32  1  1  0  0  0
  6 12  1  0  0  0  0
  6 36  1  0  0  0  0
  6 19  1  1  0  0  0
  7  8  1  6  0  0  0
  7 14  1  0  0  0  0
  9 16  1  0  0  0  0
 10 11  1  6  0  0  0
 10 18  1  0  0  0  0
 12 13  1  1  0  0  0
 12 20  1  0  0  0  0
 14 15  1  1  0  0  0
 14 22  1  0  0  0  0
 16 17  1  6  0  0  0
 16 24  1  0  0  0  0
 18 19  1  1  0  0  0
 18 25  1  0  0  0  0
 20 21  1  1  0  0  0
 20 27  1  0  0  0  0
 22 23  1  6  0  0  0
 22 29  1  0  0  0  0
 24  2  1  1  0  0  0
 24 31  1  0  0  0  0
 25 26  1  0  0  0  0
 25 33  1  6  0  0  0
 27 28  1  1  0  0  0
 27 35  1  0  0  0  0
 29 30  1  0  0  0  0
 29 37  1  1  0  0  0
 31 32  1  6  0  0  0
 31 39  1  0  0  0  0
 33 34  1  0  0  0  0
 35 36  1  0  0  0  0
 35 41  1  1  0  0  0
 37 38  1  0  0  0  0
 39 40  1  1  0  0  0
 41 42  1  0  0  0  0
M  END
>  <CHROM.1>
167.39002180,173.04272039,-70.92797243,110.75182557,19.44570026,62.14928702
77.91837096,153.01382165,-178.19104137,8.55948925,5.72912546,2.21544423,1.12575598
0.56622242,2.21778998

>  <Name>
2o3w_lig

>  <RI>
0

>  <Rbt.Current_Directory>
/home/itssahil/PROJECTS/Mol_Feturizer/New_Systems/rnas/2o3w

>  <Rbt.Executable>
rbdock ($Id: //depot/dev/client3/rdock/2013.1/src/exe/rbdock.cxx#4 $)

>  <Rbt.Library>
libRbt.so (2013.1, Build901 2013/11/27)

>  <Rbt.Parameter_File>
/export/apps/rDock/src/rDock_2013.1_src/data/scripts/dock_solv.prm

>  <Rbt.Receptor>
prm/pocket_docking_7.prm

>  <SCORE>
-22.4967

>  <SCORE.INTER>
-19.1653

>  <SCORE.INTER.CONST>
1

>  <SCORE.INTER.POLAR>
-4.03707

>  <SCORE.INTER.ROT>
9

>  <SCORE.INTER.SOLV>
14.1055

>  <SCORE.INTER.VDW>
-13.6218

>  <SCORE.INTER.norm>
-0.456316

>  <SCORE.INTRA>
-3.33144

>  <SCORE.INTRA.DIHEDRAL>
-9.84808

>  <SCORE.INTRA.DIHEDRAL.0>
27.8999

>  <SCORE.INTRA.POLAR>
0

>  <SCORE.INTRA.POLAR.0>
0

>  <SCORE.INTRA.REPUL>
0

>  <SCORE.INTRA.REPUL.0>
0

>  <SCORE.INTRA.SOLV>
-0.633304

>  <SCORE.INTRA.SOLV.lig_0>
-104.479

>  <SCORE.INTRA.VDW>
1.90925

>  <SCORE.INTRA.VDW.0>
-6.17816

>  <SCORE.INTRA.norm>
-0.0793201

>  <SCORE.RESTR>
0

>  <SCORE.RESTR.CAVITY>
0

>  <SCORE.RESTR.norm>
0

>  <SCORE.SYSTEM>
0

>  <SCORE.SYSTEM.CONST>
0

>  <SCORE.SYSTEM.DIHEDRAL>
0

>  <SCORE.SYSTEM.SOLV>
0

>  <SCORE.SYSTEM.norm>
0

>  <SCORE.heavy>
42

>  <SCORE.norm>
-0.535636

>  <RMSD>
5.072

$$$$
2o3w_lig
 OpenBabel11021811463D
libRbt.so/2013.1/901 2013/11/27
 42 45  0  0  0  0  0  0  0  0999 V2000
   10.8270    3.1512    7.1466 C   0  0  2  0  0  0  0  0  0  0  0  0
   11.4008    3.6920    5.9443 O   0  0  0  0  0  0  0  0  0  0  0  0
   10.1971    7.8155    6.5307 C   0  0  2  0  0  0  0  0  0  0  0  0
   10.0199    9.2886    6.3601 N   0  0  0  0  0  0  0  0  0  0  0  0
    8.8561    5.5163    3.0439 C   0  0  1  0  0  0  0  0  0  0  0  0
    7.4046    7.0580   -0.7605 C   0  0  1  0  0  0  0  0  0  0  0  0
   11.2036    1.6398    7.1907 C   0  0  2  0  0  0  0  0  0  0  0  0
   12.6414    1.4102    6.9657 N   0  0  0  0  0  0  0  0  0  0  0  0
   11.7120    7.4468    6.7974 C   0  0  0  0  0  0  0  0  0  0  0  0
    9.7834    6.3527    2.1104 C   0  0  2  0  0  0  0  0  0  0  0  0
    9.9435    7.7327    2.5216 O   0  0  0  0  0  0  0  0  0  0  0  0
    8.3156    7.2023   -2.0326 C   0  0  2  0  0  0  0  0  0  0  0  0
    9.0813    8.4843   -1.9977 N   0  0  0  0  0  0  0  0  0  0  0  0
   10.4505    0.8188    6.1277 C   0  0  1  0  0  0  0  0  0  0  0  0
   10.7957   -0.5636    6.2305 O   0  0  0  0  0  0  0  0  0  0  0  0
   11.8312    5.8876    6.9906 C   0  0  2  0  0  0  0  0  0  0  0  0
   13.2441    5.5061    7.2586 N   0  0  0  0  0  0  0  0  0  0  0  0
    9.1095    6.1397    0.7540 C   0  0  2  0  0  0  0  0  0  0  0  0
    8.1008    7.1654    0.4875 O   0  0  0  0  0  0  0  0  0  0  0  0
    7.4053    7.1112   -3.3478 C   0  0  1  0  0  0  0  0  0  0  0  0
    6.9916    5.7391   -3.5356 O   0  0  0  0  0  0  0  0  0  0  0  0
    8.9288    1.0344    6.2925 C   0  0  2  0  0  0  0  0  0  0  0  0
    8.2241    0.2761    5.3370 O   0  0  0  0  0  0  0  0  0  0  0  0
   11.3105    5.1261    5.7082 C   0  0  2  0  0  0  0  0  0  0  0  0
    8.4783    4.7383    0.8091 C   0  0  2  0  0  0  0  0  0  0  0  0
    8.1516    4.5873    2.1885 O   0  0  0  0  0  0  0  0  0  0  0  0
    6.1129    8.0557   -3.2765 C   0  0  2  0  0  0  0  0  0  0  0  0
    6.5631    9.4080   -3.3458 O   0  0  0  0  0  0  0  0  0  0  0  0
    8.6090    2.5583    6.1344 C   0  0  2  0  0  0  0  0  0  0  0  0
    9.3589    3.3241    7.1298 O   0  0  0  0  0  0  0  0  0  0  0  0
    9.8502    5.4814    5.3524 C   0  0  2  0  0  0  0  0  0  0  0  0
    9.6052    4.8474    4.0669 O   0  0  0  0  0  0  0  0  0  0  0  0
    9.4032    3.5803    0.3213 C   0  0  0  0  0  0  0  0  0  0  0  0
    9.6190    3.7094   -1.0807 O   0  0  0  0  0  0  0  0  0  0  0  0
    5.3203    7.8128   -1.9367 C   0  0  1  0  0  0  0  0  0  0  0  0
    6.2763    8.0644   -0.8444 O   0  0  0  0  0  0  0  0  0  0  0  0
    7.1366    2.8624    6.2879 C   0  0  0  0  0  0  0  0  0  0  0  0
    6.8600    4.1637    5.8302 O   0  0  0  0  0  0  0  0  0  0  0  0
    9.6785    7.0545    5.2452 C   0  0  1  0  0  0  0  0  0  0  0  0
    8.2996    7.3893    5.0662 O   0  0  0  0  0  0  0  0  0  0  0  0
    4.0367    8.7360   -1.7671 C   0  0  0  0  0  0  0  0  0  0  0  0
    2.9623    8.5340   -2.7777 N   0  0  0  0  0  0  0  0  0  0  0  0
  1  2  1  6  0  0  0
  1  7  1  0  0  0  0
  1 30  1  0  0  0  0
  3  4  1  6  0  0  0
  3  9  1  0  0  0  0
  3 39  1  0  0  0  0
  5 10  1  0  0  0  0
  5 26  1  0  0  0  0
  5 32  1  1  0  0  0
  6 12  1  0  0  0  0
  6 36  1  0  0  0  0
  6 19  1  1  0  0  0
  7  8  1  6  0  0  0
  7 14  1  0  0  0  0
  9 16  1  0  0  0  0
 10 11  1  1  0  0  0
 10 18  1  0  0  0  0
 12 13  1  1  0  0  0
 12 20  1  0  0  0  0
 14 15  1  1  0  0  0
 14 22  1  0  0  0  0
 16 17  1  6  0  0  0
 16 24  1  0  0  0  0
 18 19  1  1  0  0  0
 18 25  1  0  0  0  0
 20 21  1  1  0  0  0
 20 27  1  0  0  0  0
 22 23  1  6  0  0  0
 22 29  1  0  0  0  0
 24  2  1  1  0  0  0
 24 31  1  0  0  0  0
 25 26  1  0  0  0  0
 25 33  1  1  0  0  0
 27 28  1  1  0  0  0
 27 35  1  0  0  0  0
 29 30  1  0  0  0  0
 29 37  1  1  0  0  0
 31 32  1  6  0  0  0
 31 39  1  0  0  0  0
 33 34  1  0  0  0  0
 35 36  1  0  0  0  0
 35 41  1  1  0  0  0
 37 38  1  0  0  0  0
 39 40  1  1  0  0  0
 41 42  1  0  0  0  0
M  END
>  <CHROM.1>
-174.32131834,90.44119427,-62.91035031,-179.89483068,51.07762644,-68.09148620
-166.08078251,-139.68167759,63.39863339,8.88465123,5.36299511,2.87330560
-0.59641920,-1.10036841,-0.17248767

>  <Name>
2o3w_lig

>  <RI>
0

>  <Rbt.Current_Directory>
/home/itssahil/PROJECTS/Mol_Feturizer/New_Systems/rnas/2o3w

>  <Rbt.Executable>
rbdock ($Id: //depot/dev/client3/rdock/2013.1/src/exe/rbdock.cxx#4 $)

>  <Rbt.Library>
libRbt.so (2013.1, Build901 2013/11/27)

>  <Rbt.Parameter_File>
/export/apps/rDock/src/rDock_2013.1_src/data/scripts/dock_solv.prm

>  <Rbt.Receptor>
prm/pocket_docking_5.prm

>  <SCORE>
-18.1374

>  <SCORE.INTER>
-11.0487

>  <SCORE.INTER.CONST>
1

>  <SCORE.INTER.POLAR>
-2.72706

>  <SCORE.INTER.ROT>
9

>  <SCORE.INTER.SOLV>
17.0846

>  <SCORE.INTER.VDW>
-13.5705

>  <SCORE.INTER.norm>
-0.263064

>  <SCORE.INTRA>
-7.2868

>  <SCORE.INTRA.DIHEDRAL>
-17.0816

>  <SCORE.INTRA.DIHEDRAL.0>
27.8999

>  <SCORE.INTRA.POLAR>
0

>  <SCORE.INTRA.POLAR.0>
0

>  <SCORE.INTRA.REPUL>
0

>  <SCORE.INTRA.REPUL.0>
0

>  <SCORE.INTRA.SOLV>
-3.27888

>  <SCORE.INTRA.SOLV.lig_0>
-104.479

>  <SCORE.INTRA.VDW>
2.89343

>  <SCORE.INTRA.VDW.0>
-6.17816

>  <SCORE.INTRA.norm>
-0.173495

>  <SCORE.RESTR>
0.198068

>  <SCORE.RESTR.CAVITY>
0.198068

>  <SCORE.RESTR.norm>
0.00471591

>  <SCORE.SYSTEM>
0

>  <SCORE.SYSTEM.CONST>
0

>  <SCORE.SYSTEM.DIHEDRAL>
0

>  <SCORE.SYSTEM.SOLV>
0

>  <SCORE.SYSTEM.norm>
0

>  <SCORE.heavy>
42

>  <SCORE.norm>
-0.431843

>  <RMSD>
5.073

$$$$
2o3w_lig
 OpenBabel11021811463D
libRbt.so/2013.1/901 2013/11/27
 42 45  0  0  0  0  0  0  0  0999 V2000
    9.5356   -0.0197    6.6434 C   0  0  2  0  0  0  0  0  0  0  0  0
    8.8667    0.1732    5.3853 O   0  0  0  0  0  0  0  0  0  0  0  0
    5.5855   -1.9028    3.4567 C   0  0  2  0  0  0  0  0  0  0  0  0
    4.2454   -2.4938    3.1645 N   0  0  0  0  0  0  0  0  0  0  0  0
    6.0737    2.7087    3.6593 C   0  0  1  0  0  0  0  0  0  0  0  0
    5.3635    6.6567    1.6451 C   0  0  1  0  0  0  0  0  0  0  0  0
    9.6307    1.3773    7.3272 C   0  0  2  0  0  0  0  0  0  0  0  0
    8.3373    2.0824    7.3510 N   0  0  0  0  0  0  0  0  0  0  0  0
    6.2560   -2.5933    4.7118 C   0  0  0  0  0  0  0  0  0  0  0  0
    6.1725    4.1262    4.3009 C   0  0  2  0  0  0  0  0  0  0  0  0
    5.0046    4.5083    5.0685 O   0  0  0  0  0  0  0  0  0  0  0  0
    4.0017    7.2358    1.1170 C   0  0  2  0  0  0  0  0  0  0  0  0
    3.2370    6.1975    0.3631 N   0  0  0  0  0  0  0  0  0  0  0  0
   10.6317    2.3080    6.6182 C   0  0  1  0  0  0  0  0  0  0  0  0
   10.7158    3.5602    7.3006 O   0  0  0  0  0  0  0  0  0  0  0  0
    7.6713   -1.9450    4.9555 C   0  0  2  0  0  0  0  0  0  0  0  0
    8.3383   -2.5822    6.1228 N   0  0  0  0  0  0  0  0  0  0  0  0
    6.4688    4.9882    3.0727 C   0  0  2  0  0  0  0  0  0  0  0  0
    5.2388    5.4769    2.4490 O   0  0  0  0  0  0  0  0  0  0  0  0
    4.2922    8.5163    0.1990 C   0  0  1  0  0  0  0  0  0  0  0  0
    4.6798    9.6207    1.0469 O   0  0  0  0  0  0  0  0  0  0  0  0
   12.0112    1.6156    6.5372 C   0  0  2  0  0  0  0  0  0  0  0  0
   12.9436    2.4617    5.9055 O   0  0  0  0  0  0  0  0  0  0  0  0
    7.5364   -0.3909    5.2052 C   0  0  2  0  0  0  0  0  0  0  0  0
    7.2652    4.0933    2.1082 C   0  0  2  0  0  0  0  0  0  0  0  0
    6.7613    2.7897    2.3897 O   0  0  0  0  0  0  0  0  0  0  0  0
    5.4346    8.2524   -0.8932 C   0  0  2  0  0  0  0  0  0  0  0  0
    4.9090    7.3377   -1.8541 O   0  0  0  0  0  0  0  0  0  0  0  0
   11.8623    0.2711    5.7499 C   0  0  2  0  0  0  0  0  0  0  0  0
   10.8832   -0.5851    6.4193 O   0  0  0  0  0  0  0  0  0  0  0  0
    6.8370    0.3443    4.0410 C   0  0  2  0  0  0  0  0  0  0  0  0
    6.6348    1.7042    4.5145 O   0  0  0  0  0  0  0  0  0  0  0  0
    8.8141    4.1472    2.2876 C   0  0  0  0  0  0  0  0  0  0  0  0
    9.4287    3.2909    1.3296 O   0  0  0  0  0  0  0  0  0  0  0  0
    6.7232    7.6506   -0.2153 C   0  0  1  0  0  0  0  0  0  0  0  0
    6.2888    6.4209    0.4698 O   0  0  0  0  0  0  0  0  0  0  0  0
   13.1685   -0.4790    5.6278 C   0  0  0  0  0  0  0  0  0  0  0  0
   13.5908   -0.9265    6.8930 O   0  0  0  0  0  0  0  0  0  0  0  0
    5.4489   -0.3478    3.7096 C   0  0  1  0  0  0  0  0  0  0  0  0
    4.8735    0.2363    2.5377 O   0  0  0  0  0  0  0  0  0  0  0  0
    7.8994    7.3255   -1.2348 C   0  0  0  0  0  0  0  0  0  0  0  0
    8.6885    8.4991   -1.7003 N   0  0  0  0  0  0  0  0  0  0  0  0
  1  2  1  6  0  0  0
  1  7  1  0  0  0  0
  1 30  1  0  0  0  0
  3  4  1  1  0  0  0
  3  9  1  0  0  0  0
  3 39  1  0  0  0  0
  5 10  1  0  0  0  0
  5 26  1  0  0  0  0
  5 32  1  1  0  0  0
  6 12  1  0  0  0  0
  6 36  1  0  0  0  0
  6 19  1  6  0  0  0
  7  8  1  6  0  0  0
  7 14  1  0  0  0  0
  9 16  1  0  0  0  0
 10 11  1  6  0  0  0
 10 18  1  0  0  0  0
 12 13  1  6  0  0  0
 12 20  1  0  0  0  0
 14 15  1  1  0  0  0
 14 22  1  0  0  0  0
 16 17  1  1  0  0  0
 16 24  1  0  0  0  0
 18 19  1  6  0  0  0
 18 25  1  0  0  0  0
 20 21  1  1  0  0  0
 20 27  1  0  0  0  0
 22 23  1  6  0  0  0
 22 29  1  0  0  0  0
 24  2  1  6  0  0  0
 24 31  1  0  0  0  0
 25 26  1  0  0  0  0
 25 33  1  1  0  0  0
 27 28  1  6  0  0  0
 27 35  1  0  0  0  0
 29 30  1  0  0  0  0
 29 37  1  1  0  0  0
 31 32  1  1  0  0  0
 31 39  1  0  0  0  0
 33 34  1  0  0  0  0
 35 36  1  0  0  0  0
 35 41  1  6  0  0  0
 37 38  1  0  0  0  0
 39 40  1  6  0  0  0
 41 42  1  0  0  0  0
M  END
>  <CHROM.1>
-112.19982591,-170.57759046,-173.88867106,157.15165034,-76.85509942,-179.32981415
66.86893753,176.30077970,77.53926739,7.60468503,2.91531236,3.46978517,-1.10061309
-0.39547886,-0.45869089

>  <Name>
2o3w_lig

>  <RI>
0

>  <Rbt.Current_Directory>
/home/itssahil/PROJECTS/Mol_Feturizer/New_Systems/rnas/2o3w

>  <Rbt.Executable>
rbdock ($Id: //depot/dev/client3/rdock/2013.1/src/exe/rbdock.cxx#4 $)

>  <Rbt.Library>
libRbt.so (2013.1, Build901 2013/11/27)

>  <Rbt.Parameter_File>
/export/apps/rDock/src/rDock_2013.1_src/data/scripts/dock_solv.prm

>  <Rbt.Receptor>
prm/pocket_docking_3.prm

>  <SCORE>
-8.99771

>  <SCORE.INTER>
-1.72399

>  <SCORE.INTER.CONST>
1

>  <SCORE.INTER.POLAR>
-1.10196

>  <SCORE.INTER.ROT>
9

>  <SCORE.INTER.SOLV>
11.6922

>  <SCORE.INTER.VDW>
-10.9735

>  <SCORE.INTER.norm>
-0.0410475

>  <SCORE.INTRA>
-7.51881

>  <SCORE.INTRA.DIHEDRAL>
-15.3797

>  <SCORE.INTRA.DIHEDRAL.0>
27.8999

>  <SCORE.INTRA.POLAR>
0

>  <SCORE.INTRA.POLAR.0>
0

>  <SCORE.INTRA.REPUL>
0

>  <SCORE.INTRA.REPUL.0>
0

>  <SCORE.INTRA.SOLV>
-3.36725

>  <SCORE.INTRA.SOLV.lig_0>
-104.479

>  <SCORE.INTRA.VDW>
1.85465

>  <SCORE.INTRA.VDW.0>
-6.17816

>  <SCORE.INTRA.norm>
-0.179019

>  <SCORE.RESTR>
0.245098

>  <SCORE.RESTR.CAVITY>
0.245098

>  <SCORE.RESTR.norm>
0.00583566

>  <SCORE.SYSTEM>
0

>  <SCORE.SYSTEM.CONST>
0

>  <SCORE.SYSTEM.DIHEDRAL>
0

>  <SCORE.SYSTEM.SOLV>
0

>  <SCORE.SYSTEM.norm>
0

>  <SCORE.heavy>
42

>  <SCORE.norm>
-0.214231

>  <RMSD>
5.090

$$$$
2o3w_lig
 OpenBabel11021811463D
libRbt.so/2013.1/901 2013/11/27
 42 45  0  0  0  0  0  0  0  0999 V2000
    6.0171   -1.8492    3.0232 C   0  0  2  0  0  0  0  0  0  0  0  0
    7.0536   -2.8365    2.8876 O   0  0  0  0  0  0  0  0  0  0  0  0
   11.2877   -2.2308    2.1793 C   0  0  2  0  0  0  0  0  0  0  0  0
   12.5916   -1.8690    1.5474 N   0  0  0  0  0  0  0  0  0  0  0  0
    8.3088    1.1329    3.2234 C   0  0  1  0  0  0  0  0  0  0  0  0
    7.9815    5.2489    4.7043 C   0  0  1  0  0  0  0  0  0  0  0  0
    4.7789   -2.5705    3.6353 C   0  0  2  0  0  0  0  0  0  0  0  0
    5.1206   -3.3598    4.8315 N   0  0  0  0  0  0  0  0  0  0  0  0
   10.5686   -3.3948    1.3857 C   0  0  0  0  0  0  0  0  0  0  0  0
    7.5947    2.2540    2.4087 C   0  0  2  0  0  0  0  0  0  0  0  0
    8.3960    2.8028    1.3336 O   0  0  0  0  0  0  0  0  0  0  0  0
    6.7768    6.1815    4.3198 C   0  0  2  0  0  0  0  0  0  0  0  0
    6.9882    6.7995    2.9766 N   0  0  0  0  0  0  0  0  0  0  0  0
    4.1145   -3.5381    2.6387 C   0  0  1  0  0  0  0  0  0  0  0  0
    2.9634   -4.1456    3.2275 O   0  0  0  0  0  0  0  0  0  0  0  0
    9.2146   -3.7461    2.1108 C   0  0  2  0  0  0  0  0  0  0  0  0
    8.5170   -4.8500    1.3976 N   0  0  0  0  0  0  0  0  0  0  0  0
    7.2172    3.2345    3.5203 C   0  0  2  0  0  0  0  0  0  0  0  0
    8.2717    4.2232    3.7464 O   0  0  0  0  0  0  0  0  0  0  0  0
    6.5966    7.3046    5.4481 C   0  0  1  0  0  0  0  0  0  0  0  0
    6.0266    6.6944    6.6278 O   0  0  0  0  0  0  0  0  0  0  0  0
    3.7505   -2.7756    1.3444 C   0  0  2  0  0  0  0  0  0  0  0  0
    3.1259   -3.6441    0.4278 O   0  0  0  0  0  0  0  0  0  0  0  0
    8.2731   -2.4792    2.1766 C   0  0  2  0  0  0  0  0  0  0  0  0
    6.9759    2.3800    4.7761 C   0  0  2  0  0  0  0  0  0  0  0  0
    7.8639    1.2800    4.5914 O   0  0  0  0  0  0  0  0  0  0  0  0
    7.9740    8.0281    5.8312 C   0  0  2  0  0  0  0  0  0  0  0  0
    8.3695    8.8215    4.7129 O   0  0  0  0  0  0  0  0  0  0  0  0
    5.0531   -2.1649    0.7281 C   0  0  2  0  0  0  0  0  0  0  0  0
    5.6875   -1.2756    1.7010 O   0  0  0  0  0  0  0  0  0  0  0  0
    8.9328   -1.2793    2.8909 C   0  0  2  0  0  0  0  0  0  0  0  0
    8.0155   -0.1678    2.6968 O   0  0  0  0  0  0  0  0  0  0  0  0
    5.5070    1.8897    4.9662 C   0  0  0  0  0  0  0  0  0  0  0  0
    5.1767    0.9778    3.9230 O   0  0  0  0  0  0  0  0  0  0  0  0
    9.0866    6.9639    6.1654 C   0  0  1  0  0  0  0  0  0  0  0  0
    9.2015    6.1041    4.9747 O   0  0  0  0  0  0  0  0  0  0  0  0
    4.7881   -1.3925   -0.5435 C   0  0  0  0  0  0  0  0  0  0  0  0
    5.9909   -0.8707   -1.0535 O   0  0  0  0  0  0  0  0  0  0  0  0
   10.3450   -0.9627    2.2418 C   0  0  1  0  0  0  0  0  0  0  0  0
   11.0203    0.0465    2.9975 O   0  0  0  0  0  0  0  0  0  0  0  0
   10.5006    7.5964    6.5251 C   0  0  0  0  0  0  0  0  0  0  0  0
   11.1485    8.3808    5.4381 N   0  0  0  0  0  0  0  0  0  0  0  0
  1  2  1  6  0  0  0
  1  7  1  0  0  0  0
  1 30  1  0  0  0  0
  3  4  1  6  0  0  0
  3  9  1  0  0  0  0
  3 39  1  0  0  0  0
  5 10  1  0  0  0  0
  5 26  1  0  0  0  0
  5 32  1  6  0  0  0
  6 12  1  0  0  0  0
  6 36  1  0  0  0  0
  6 19  1  6  0  0  0
  7  8  1  1  0  0  0
  7 14  1  0  0  0  0
  9 16  1  0  0  0  0
 10 11  1  6  0  0  0
 10 18  1  0  0  0  0
 12 13  1  6  0  0  0
 12 20  1  0  0  0  0
 14 15  1  1  0  0  0
 14 22  1  0  0  0  0
 16 17  1  6  0  0  0
 16 24  1  0  0  0  0
 18 19  1  1  0  0  0
 18 25  1  0  0  0  0
 20 21  1  1  0  0  0
 20 27  1  0  0  0  0
 22 23  1  6  0  0  0
 22 29  1  0  0  0  0
 24  2  1  1  0  0  0
 24 31  1  0  0  0  0
 25 26  1  0  0  0  0
 25 33  1  6  0  0  0
 27 28  1  6  0  0  0
 27 35  1  0  0  0  0
 29 30  1  0  0  0  0
 29 37  1  6  0  0  0
 31 32  1  6  0  0  0
 31 39  1  0  0  0  0
 33 34  1  0  0  0  0
 35 36  1  0  0  0  0
 35 41  1  6  0  0  0
 37 38  1  0  0  0  0
 39 40  1  1  0  0  0
 41 42  1  0  0  0  0
M  END
>  <CHROM.1>
172.06588289,154.46035629,-62.80135420,175.78587739,-177.46796085,66.20717152
-179.84745021,-179.54560733,-62.60243655,7.43473756,1.12903898,3.19574766
1.76518613,-0.05262719,-2.80444209

>  <Name>
2o3w_lig

>  <RI>
0

>  <Rbt.Current_Directory>
/home/itssahil/PROJECTS/Mol_Feturizer/New_Systems/rnas/2o3w

>  <Rbt.Executable>
rbdock ($Id: //depot/dev/client3/rdock/2013.1/src/exe/rbdock.cxx#4 $)

>  <Rbt.Library>
libRbt.so (2013.1, Build901 2013/11/27)

>  <Rbt.Parameter_File>
/export/apps/rDock/src/rDock_2013.1_src/data/scripts/dock_solv.prm

>  <Rbt.Receptor>
prm/pocket_docking_5.prm

>  <SCORE>
-18.6503

>  <SCORE.INTER>
-6.91637

>  <SCORE.INTER.CONST>
1

>  <SCORE.INTER.POLAR>
-1.81812

>  <SCORE.INTER.ROT>
9

>  <SCORE.INTER.SOLV>
10.3574

>  <SCORE.INTER.VDW>
-11.603

>  <SCORE.INTER.norm>
-0.164675

>  <SCORE.INTRA>
-11.7567

>  <SCORE.INTRA.DIHEDRAL>
-24.3676

>  <SCORE.INTRA.DIHEDRAL.0>
27.8999

>  <SCORE.INTRA.POLAR>
0

>  <SCORE.INTRA.POLAR.0>
0

>  <SCORE.INTRA.REPUL>
0

>  <SCORE.INTRA.REPUL.0>
0

>  <SCORE.INTRA.SOLV>
-3.56923

>  <SCORE.INTRA.SOLV.lig_0>
-104.479

>  <SCORE.INTRA.VDW>
2.21175

>  <SCORE.INTRA.VDW.0>
-6.17816

>  <SCORE.INTRA.norm>
-0.279921

>  <SCORE.RESTR>
0.0227844

>  <SCORE.RESTR.CAVITY>
0.0227844

>  <SCORE.RESTR.norm>
0.000542486

>  <SCORE.SYSTEM>
0

>  <SCORE.SYSTEM.CONST>
0

>  <SCORE.SYSTEM.DIHEDRAL>
0

>  <SCORE.SYSTEM.SOLV>
0

>  <SCORE.SYSTEM.norm>
0

>  <SCORE.heavy>
42

>  <SCORE.norm>
-0.444054

>  <RMSD>
5.102

$$$$
2o3w_lig
 OpenBabel11021811463D
libRbt.so/2013.1/901 2013/11/27
 42 45  0  0  0  0  0  0  0  0999 V2000
    9.4794   -1.7378    4.9691 C   0  0  2  0  0  0  0  0  0  0  0  0
    8.2394   -1.3630    5.5929 O   0  0  0  0  0  0  0  0  0  0  0  0
    5.6050   -2.3291    2.2879 C   0  0  2  0  0  0  0  0  0  0  0  0
    4.3886   -2.5569    1.4519 N   0  0  0  0  0  0  0  0  0  0  0  0
    6.5928    1.9606    3.6820 C   0  0  1  0  0  0  0  0  0  0  0  0
    6.1335    6.2220    2.6025 C   0  0  1  0  0  0  0  0  0  0  0  0
   10.5858   -1.6427    6.0623 C   0  0  2  0  0  0  0  0  0  0  0  0
   10.2143   -2.3451    7.3030 N   0  0  0  0  0  0  0  0  0  0  0  0
    5.6671   -3.3439    3.4996 C   0  0  0  0  0  0  0  0  0  0  0  0
    5.5207    2.8990    4.3150 C   0  0  2  0  0  0  0  0  0  0  0  0
    4.1917    2.7324    3.7626 O   0  0  0  0  0  0  0  0  0  0  0  0
    5.4703    7.2472    3.5914 C   0  0  2  0  0  0  0  0  0  0  0  0
    3.9816    7.1287    3.5633 N   0  0  0  0  0  0  0  0  0  0  0  0
   10.8981   -0.1862    6.4524 C   0  0  1  0  0  0  0  0  0  0  0  0
   11.9429   -0.1451    7.4257 O   0  0  0  0  0  0  0  0  0  0  0  0
    6.9787   -3.0696    4.3283 C   0  0  2  0  0  0  0  0  0  0  0  0
    7.0771   -4.0181    5.4703 N   0  0  0  0  0  0  0  0  0  0  0  0
    6.1611    4.2708    4.0977 C   0  0  2  0  0  0  0  0  0  0  0  0
    5.7584    4.8560    2.8186 O   0  0  0  0  0  0  0  0  0  0  0  0
    5.9370    8.7307    3.2066 C   0  0  1  0  0  0  0  0  0  0  0  0
    7.3141    8.9063    3.6085 O   0  0  0  0  0  0  0  0  0  0  0  0
   11.2739    0.6173    5.1865 C   0  0  2  0  0  0  0  0  0  0  0  0
   11.5791    1.9492    5.5289 O   0  0  0  0  0  0  0  0  0  0  0  0
    6.9956   -1.5853    4.8691 C   0  0  2  0  0  0  0  0  0  0  0  0
    7.6812    4.0431    4.1523 C   0  0  2  0  0  0  0  0  0  0  0  0
    7.8253    2.7163    3.6509 O   0  0  0  0  0  0  0  0  0  0  0  0
    5.7915    9.0423    1.6416 C   0  0  2  0  0  0  0  0  0  0  0  0
    4.3976    9.1054    1.3425 O   0  0  0  0  0  0  0  0  0  0  0  0
   10.0800    0.5657    4.1758 C   0  0  2  0  0  0  0  0  0  0  0  0
    9.7765   -0.8262    3.8437 O   0  0  0  0  0  0  0  0  0  0  0  0
    6.8808   -0.5358    3.7418 C   0  0  2  0  0  0  0  0  0  0  0  0
    6.7261    0.7400    4.4220 O   0  0  0  0  0  0  0  0  0  0  0  0
    8.3165    4.1791    5.5708 C   0  0  0  0  0  0  0  0  0  0  0  0
    7.8739    3.1010    6.3898 O   0  0  0  0  0  0  0  0  0  0  0  0
    6.4827    7.9158    0.7840 C   0  0  1  0  0  0  0  0  0  0  0  0
    5.8421    6.6495    1.1793 O   0  0  0  0  0  0  0  0  0  0  0  0
   10.3649    1.3241    2.9001 C   0  0  0  0  0  0  0  0  0  0  0  0
    9.3211    1.1299    1.9771 O   0  0  0  0  0  0  0  0  0  0  0  0
    5.6192   -0.8441    2.8313 C   0  0  1  0  0  0  0  0  0  0  0  0
    5.5990    0.0340    1.7025 O   0  0  0  0  0  0  0  0  0  0  0  0
    6.3566    8.1286   -0.7868 C   0  0  0  0  0  0  0  0  0  0  0  0
    7.0204    9.3477   -1.3251 N   0  0  0  0  0  0  0  0  0  0  0  0
  1  2  1  1  0  0  0
  1  7  1  0  0  0  0
  1 30  1  0  0  0  0
  3  4  1  1  0  0  0
  3  9  1  0  0  0  0
  3 39  1  0  0  0  0
  5 10  1  0  0  0  0
  5 26  1  0  0  0  0
  5 32  1  1  0  0  0
  6 12  1  0  0  0  0
  6 36  1  0  0  0  0
  6 19  1  1  0  0  0
  7  8  1  1  0  0  0
  7 14  1  0  0  0  0
  9 16  1  0  0  0  0
 10 11  1  6  0  0  0
 10 18  1  0  0  0  0
 12 13  1  6  0  0  0
 12 20  1  0  0  0  0
 14 15  1  1  0  0  0
 14 22  1  0  0  0  0
 16 17  1  1  0  0  0
 16 24  1  0  0  0  0
 18 19  1  6  0  0  0
 18 25  1  0  0  0  0
 20 21  1  6  0  0  0
 20 27  1  0  0  0  0
 22 23  1  1  0  0  0
 22 29  1  0  0  0  0
 24  2  1  6  0  0  0
 24 31  1  0  0  0  0
 25 26  1  0  0  0  0
 25 33  1  1  0  0  0
 27 28  1  6  0  0  0
 27 35  1  0  0  0  0
 29 30  1  0  0  0  0
 29 37  1  6  0  0  0
 31 32  1  1  0  0  0
 31 39  1  0  0  0  0
 33 34  1  0  0  0  0
 35 36  1  0  0  0  0
 35 41  1  6  0  0  0
 37 38  1  0  0  0  0
 39 40  1  6  0  0  0
 41 42  1  0  0  0  0
M  END
>  <CHROM.1>
-169.35973686,139.05321069,-64.06865069,170.80357566,49.43871162,68.47938155
173.92777403,179.79114319,63.41209743,7.38991943,2.38475099,3.66439746,-1.24948202
-0.56855418,-0.14379517

>  <Name>
2o3w_lig

>  <RI>
0

>  <Rbt.Current_Directory>
/home/itssahil/PROJECTS/Mol_Feturizer/New_Systems/rnas/2o3w

>  <Rbt.Executable>
rbdock ($Id: //depot/dev/client3/rdock/2013.1/src/exe/rbdock.cxx#4 $)

>  <Rbt.Library>
libRbt.so (2013.1, Build901 2013/11/27)

>  <Rbt.Parameter_File>
/export/apps/rDock/src/rDock_2013.1_src/data/scripts/dock_solv.prm

>  <Rbt.Receptor>
prm/pocket_docking_3.prm

>  <SCORE>
-13.3176

>  <SCORE.INTER>
-2.46964

>  <SCORE.INTER.CONST>
1

>  <SCORE.INTER.POLAR>
-1

>  <SCORE.INTER.ROT>
9

>  <SCORE.INTER.SOLV>
11.3309

>  <SCORE.INTER.VDW>
-11.6901

>  <SCORE.INTER.norm>
-0.058801

>  <SCORE.INTRA>
-10.8519

>  <SCORE.INTRA.DIHEDRAL>
-20.2231

>  <SCORE.INTRA.DIHEDRAL.0>
27.8999

>  <SCORE.INTRA.POLAR>
0

>  <SCORE.INTRA.POLAR.0>
0

>  <SCORE.INTRA.REPUL>
0

>  <SCORE.INTRA.REPUL.0>
0

>  <SCORE.INTRA.SOLV>
-2.51789

>  <SCORE.INTRA.SOLV.lig_0>
-104.479

>  <SCORE.INTRA.VDW>
0.518575

>  <SCORE.INTRA.VDW.0>
-6.17816

>  <SCORE.INTRA.norm>
-0.258379

>  <SCORE.RESTR>
0.00395594

>  <SCORE.RESTR.CAVITY>
0.00395594

>  <SCORE.RESTR.norm>
9.4189e-05

>  <SCORE.SYSTEM>
0

>  <SCORE.SYSTEM.CONST>
0

>  <SCORE.SYSTEM.DIHEDRAL>
0

>  <SCORE.SYSTEM.SOLV>
0

>  <SCORE.SYSTEM.norm>
0

>  <SCORE.heavy>
42

>  <SCORE.norm>
-0.317086

>  <RMSD>
5.105

$$$$
2o3w_lig
 OpenBabel11021811463D
libRbt.so/2013.1/901 2013/11/27
 42 45  0  0  0  0  0  0  0  0999 V2000
    9.9959   -0.7409    5.0064 C   0  0  2  0  0  0  0  0  0  0  0  0
    8.9353   -0.5049    5.9480 O   0  0  0  0  0  0  0  0  0  0  0  0
    5.7530   -2.4700    3.7554 C   0  0  2  0  0  0  0  0  0  0  0  0
    4.4335   -3.0566    3.3741 N   0  0  0  0  0  0  0  0  0  0  0  0
    6.5533    2.2113    4.2963 C   0  0  1  0  0  0  0  0  0  0  0  0
    5.9465    6.0393    2.7028 C   0  0  1  0  0  0  0  0  0  0  0  0
   11.2666   -0.0331    5.5655 C   0  0  2  0  0  0  0  0  0  0  0  0
   11.5268   -0.3729    6.9753 N   0  0  0  0  0  0  0  0  0  0  0  0
    6.3974   -3.2489    4.9719 C   0  0  0  0  0  0  0  0  0  0  0  0
    5.0844    2.7337    4.3013 C   0  0  2  0  0  0  0  0  0  0  0  0
    4.2620    2.1903    3.2395 O   0  0  0  0  0  0  0  0  0  0  0  0
    5.0759    7.2305    3.2430 C   0  0  2  0  0  0  0  0  0  0  0  0
    3.7105    7.2106    2.6379 N   0  0  0  0  0  0  0  0  0  0  0  0
   11.1619    1.5012    5.4899 C   0  0  1  0  0  0  0  0  0  0  0  0
   12.3617    2.1062    5.9749 O   0  0  0  0  0  0  0  0  0  0  0  0
    7.7924   -2.6001    5.3118 C   0  0  2  0  0  0  0  0  0  0  0  0
    8.4349   -3.3188    6.4450 N   0  0  0  0  0  0  0  0  0  0  0  0
    5.3069    4.2463    4.2585 C   0  0  2  0  0  0  0  0  0  0  0  0
    5.3624    4.7432    2.8834 O   0  0  0  0  0  0  0  0  0  0  0  0
    5.8225    8.6139    2.9333 C   0  0  1  0  0  0  0  0  0  0  0  0
    6.9482    8.7481    3.8298 O   0  0  0  0  0  0  0  0  0  0  0  0
   10.8640    1.9265    4.0340 C   0  0  2  0  0  0  0  0  0  0  0  0
   10.7817    3.3300    3.9446 O   0  0  0  0  0  0  0  0  0  0  0  0
    7.6216   -1.0735    5.6808 C   0  0  2  0  0  0  0  0  0  0  0  0
    6.6316    4.5016    4.9971 C   0  0  2  0  0  0  0  0  0  0  0  0
    7.3773    3.3143    4.7385 O   0  0  0  0  0  0  0  0  0  0  0  0
    6.3290    8.7215    1.4170 C   0  0  2  0  0  0  0  0  0  0  0  0
    5.1758    8.8382    0.5846 O   0  0  0  0  0  0  0  0  0  0  0  0
    9.5236    1.2634    3.5725 C   0  0  2  0  0  0  0  0  0  0  0  0
    9.6307   -0.1913    3.6834 O   0  0  0  0  0  0  0  0  0  0  0  0
    6.9448   -0.2579    4.5575 C   0  0  2  0  0  0  0  0  0  0  0  0
    6.7034    1.0560    5.1317 O   0  0  0  0  0  0  0  0  0  0  0  0
    6.4921    4.7540    6.5304 C   0  0  0  0  0  0  0  0  0  0  0  0
    5.7416    5.9455    6.7447 O   0  0  0  0  0  0  0  0  0  0  0  0
    7.1628    7.4458    1.0176 C   0  0  1  0  0  0  0  0  0  0  0  0
    6.2781    6.2904    1.2468 O   0  0  0  0  0  0  0  0  0  0  0  0
    9.1568    1.6218    2.1509 C   0  0  0  0  0  0  0  0  0  0  0  0
    7.9326    1.0236    1.8005 O   0  0  0  0  0  0  0  0  0  0  0  0
    5.5803   -0.9429    4.1276 C   0  0  1  0  0  0  0  0  0  0  0  0
    5.0305   -0.2753    2.9884 O   0  0  0  0  0  0  0  0  0  0  0  0
    7.6780    7.4536   -0.4867 C   0  0  0  0  0  0  0  0  0  0  0  0
    8.7609    8.4294   -0.7897 N   0  0  0  0  0  0  0  0  0  0  0  0
  1  2  1  1  0  0  0
  1  7  1  0  0  0  0
  1 30  1  0  0  0  0
  3  4  1  1  0  0  0
  3  9  1  0  0  0  0
  3 39  1  0  0  0  0
  5 10  1  0  0  0  0
  5 26  1  0  0  0  0
  5 32  1  1  0  0  0
  6 12  1  0  0  0  0
  6 36  1  0  0  0  0
  6 19  1  6  0  0  0
  7  8  1  1  0  0  0
  7 14  1  0  0  0  0
  9 16  1  0  0  0  0
 10 11  1  6  0  0  0
 10 18  1  0  0  0  0
 12 13  1  6  0  0  0
 12 20  1  0  0  0  0
 14 15  1  6  0  0  0
 14 22  1  0  0  0  0
 16 17  1  1  0  0  0
 16 24  1  0  0  0  0
 18 19  1  6  0  0  0
 18 25  1  0  0  0  0
 20 21  1  1  0  0  0
 20 27  1  0  0  0  0
 22 23  1  1  0  0  0
 22 29  1  0  0  0  0
 24  2  1  6  0  0  0
 24 31  1  0  0  0  0
 25 26  1  0  0  0  0
 25 33  1  1  0  0  0
 27 28  1  6  0  0  0
 27 35  1  0  0  0  0
 29 30  1  0  0  0  0
 29 37  1  6  0  0  0
 31 32  1  1  0  0  0
 31 39  1  0  0  0  0
 33 34  1  0  0  0  0
 35 36  1  0  0  0  0
 35 41  1  6  0  0  0
 37 38  1  0  0  0  0
 39 40  1  6  0  0  0
 41 42  1  0  0  0  0
M  END
>  <CHROM.1>
-179.26763417,109.90302421,-70.65524415,-162.29886152,48.79001606,-63.48804906
-178.72450079,156.79129803,70.88174081,7.36691921,2.75783466,3.82017801,-1.33543673
-0.20789993,-0.28352923

>  <Name>
2o3w_lig

>  <RI>
0

>  <Rbt.Current_Directory>
/home/itssahil/PROJECTS/Mol_Feturizer/New_Systems/rnas/2o3w

>  <Rbt.Executable>
rbdock ($Id: //depot/dev/client3/rdock/2013.1/src/exe/rbdock.cxx#4 $)

>  <Rbt.Library>
libRbt.so (2013.1, Build901 2013/11/27)

>  <Rbt.Parameter_File>
/export/apps/rDock/src/rDock_2013.1_src/data/scripts/dock_solv.prm

>  <Rbt.Receptor>
prm/pocket_docking_4.prm

>  <SCORE>
-18.9917

>  <SCORE.INTER>
-11.101

>  <SCORE.INTER.CONST>
1

>  <SCORE.INTER.POLAR>
-1.91659

>  <SCORE.INTER.ROT>
9

>  <SCORE.INTER.SOLV>
14.6145

>  <SCORE.INTER.VDW>
-15.4835

>  <SCORE.INTER.norm>
-0.264309

>  <SCORE.INTRA>
-8.35322

>  <SCORE.INTRA.DIHEDRAL>
-15.657

>  <SCORE.INTRA.DIHEDRAL.0>
27.8999

>  <SCORE.INTRA.POLAR>
0

>  <SCORE.INTRA.POLAR.0>
0

>  <SCORE.INTRA.REPUL>
0

>  <SCORE.INTRA.REPUL.0>
0

>  <SCORE.INTRA.SOLV>
-3.25462

>  <SCORE.INTRA.SOLV.lig_0>
-104.479

>  <SCORE.INTRA.VDW>
1.10258

>  <SCORE.INTRA.VDW.0>
-6.17816

>  <SCORE.INTRA.norm>
-0.198886

>  <SCORE.RESTR>
0.462485

>  <SCORE.RESTR.CAVITY>
0.462485

>  <SCORE.RESTR.norm>
0.0110115

>  <SCORE.SYSTEM>
0

>  <SCORE.SYSTEM.CONST>
0

>  <SCORE.SYSTEM.DIHEDRAL>
0

>  <SCORE.SYSTEM.SOLV>
0

>  <SCORE.SYSTEM.norm>
0

>  <SCORE.heavy>
42

>  <SCORE.norm>
-0.452184

>  <RMSD>
5.166

$$$$
2o3w_lig
 OpenBabel11021811463D
libRbt.so/2013.1/901 2013/11/27
 42 45  0  0  0  0  0  0  0  0999 V2000
    7.4202    3.4814    3.2765 C   0  0  2  0  0  0  0  0  0  0  0  0
    7.2713    4.1848    4.5216 O   0  0  0  0  0  0  0  0  0  0  0  0
    8.7310    8.0412    5.8609 C   0  0  2  0  0  0  0  0  0  0  0  0
    9.6228    9.1887    6.2046 N   0  0  0  0  0  0  0  0  0  0  0  0
    7.9210    6.6284    1.3997 C   0  0  1  0  0  0  0  0  0  0  0  0
    6.8037    7.5491   -2.7736 C   0  0  1  0  0  0  0  0  0  0  0  0
    6.2739    2.4281    3.2089 C   0  0  2  0  0  0  0  0  0  0  0  0
    4.9533    3.0125    3.5008 N   0  0  0  0  0  0  0  0  0  0  0  0
    9.0393    6.7828    6.7683 C   0  0  0  0  0  0  0  0  0  0  0  0
    8.8224    6.2874    0.1741 C   0  0  2  0  0  0  0  0  0  0  0  0
    9.9150    7.2165   -0.0305 O   0  0  0  0  0  0  0  0  0  0  0  0
    7.0904    6.3718   -3.7737 C   0  0  2  0  0  0  0  0  0  0  0  0
    8.5359    6.3294   -4.1475 N   0  0  0  0  0  0  0  0  0  0  0  0
    6.4805    1.2748    4.2079 C   0  0  1  0  0  0  0  0  0  0  0  0
    5.4296    0.3150    4.0838 O   0  0  0  0  0  0  0  0  0  0  0  0
    8.0552    5.6168    6.3751 C   0  0  2  0  0  0  0  0  0  0  0  0
    8.3080    4.4192    7.2209 N   0  0  0  0  0  0  0  0  0  0  0  0
    7.7859    6.2263   -0.9490 C   0  0  2  0  0  0  0  0  0  0  0  0
    7.6044    7.5313   -1.5853 O   0  0  0  0  0  0  0  0  0  0  0  0
    6.1654    6.5427   -5.0707 C   0  0  1  0  0  0  0  0  0  0  0  0
    4.8049    6.2010   -4.7226 O   0  0  0  0  0  0  0  0  0  0  0  0
    7.8650    0.6296    3.9714 C   0  0  2  0  0  0  0  0  0  0  0  0
    8.0628   -0.4393    4.8674 O   0  0  0  0  0  0  0  0  0  0  0  0
    8.2243    5.2352    4.8515 C   0  0  2  0  0  0  0  0  0  0  0  0
    6.4814    5.7382   -0.2967 C   0  0  2  0  0  0  0  0  0  0  0  0
    6.5750    6.2504    1.0305 O   0  0  0  0  0  0  0  0  0  0  0  0
    6.2079    8.0266   -5.6737 C   0  0  2  0  0  0  0  0  0  0  0  0
    7.5056    8.2280   -6.2321 O   0  0  0  0  0  0  0  0  0  0  0  0
    8.9740    1.7184    4.1561 C   0  0  2  0  0  0  0  0  0  0  0  0
    8.7416    2.8205    3.2227 O   0  0  0  0  0  0  0  0  0  0  0  0
    7.9928    6.4332    3.9047 C   0  0  2  0  0  0  0  0  0  0  0  0
    8.3662    5.9538    2.5836 O   0  0  0  0  0  0  0  0  0  0  0  0
    6.2889    4.1899   -0.2885 C   0  0  0  0  0  0  0  0  0  0  0  0
    7.4228    3.5780    0.3187 O   0  0  0  0  0  0  0  0  0  0  0  0
    5.9273    9.0924   -4.5478 C   0  0  1  0  0  0  0  0  0  0  0  0
    6.9454    8.8661   -3.5074 O   0  0  0  0  0  0  0  0  0  0  0  0
   10.3663    1.1737    3.9358 C   0  0  0  0  0  0  0  0  0  0  0  0
   11.3229    2.1775    4.1732 O   0  0  0  0  0  0  0  0  0  0  0  0
    8.9035    7.6580    4.3365 C   0  0  1  0  0  0  0  0  0  0  0  0
    8.5798    8.8125    3.5567 O   0  0  0  0  0  0  0  0  0  0  0  0
    5.9837   10.5989   -5.0536 C   0  0  0  0  0  0  0  0  0  0  0  0
    4.9124   10.9965   -6.0079 N   0  0  0  0  0  0  0  0  0  0  0  0
  1  2  1  1  0  0  0
  1  7  1  0  0  0  0
  1 30  1  0  0  0  0
  3  4  1  1  0  0  0
  3  9  1  0  0  0  0
  3 39  1  0  0  0  0
  5 10  1  0  0  0  0
  5 26  1  0  0  0  0
  5 32  1  1  0  0  0
  6 12  1  0  0  0  0
  6 36  1  0  0  0  0
  6 19  1  1  0  0  0
  7  8  1  1  0  0  0
  7 14  1  0  0  0  0
  9 16  1  0  0  0  0
 10 11  1  6  0  0  0
 10 18  1  0  0  0  0
 12 13  1  6  0  0  0
 12 20  1  0  0  0  0
 14 15  1  6  0  0  0
 14 22  1  0  0  0  0
 16 17  1  1  0  0  0
 16 24  1  0  0  0  0
 18 19  1  1  0  0  0
 18 25  1  0  0  0  0
 20 21  1  1  0  0  0
 20 27  1  0  0  0  0
 22 23  1  1  0  0  0
 22 29  1  0  0  0  0
 24  2  1  6  0  0  0
 24 31  1  0  0  0  0
 25 26  1  0  0  0  0
 25 33  1  1  0  0  0
 27 28  1  1  0  0  0
 27 35  1  0  0  0  0
 29 30  1  0  0  0  0
 29 37  1  6  0  0  0
 31 32  1  6  0  0  0
 31 39  1  0  0  0  0
 33 34  1  0  0  0  0
 35 36  1  0  0  0  0
 35 41  1  6  0  0  0
 37 38  1  0  0  0  0
 39 40  1  6  0  0  0
 41 42  1  0  0  0  0
M  END
>  <CHROM.1>
179.73528187,159.28566219,-42.88480102,171.24127924,-167.23964335,54.46679484
-177.35546099,161.14884056,66.77166457,7.59885781,5.53704308,1.10671324,1.00600622
1.26256303,2.59691620

>  <Name>
2o3w_lig

>  <RI>
0

>  <Rbt.Current_Directory>
/home/itssahil/PROJECTS/Mol_Feturizer/New_Systems/rnas/2o3w

>  <Rbt.Executable>
rbdock ($Id: //depot/dev/client3/rdock/2013.1/src/exe/rbdock.cxx#4 $)

>  <Rbt.Library>
libRbt.so (2013.1, Build901 2013/11/27)

>  <Rbt.Parameter_File>
/export/apps/rDock/src/rDock_2013.1_src/data/scripts/dock_solv.prm

>  <Rbt.Receptor>
prm/pocket_docking_6.prm

>  <SCORE>
-18.4645

>  <SCORE.INTER>
-7.32629

>  <SCORE.INTER.CONST>
1

>  <SCORE.INTER.POLAR>
-2.38633

>  <SCORE.INTER.ROT>
9

>  <SCORE.INTER.SOLV>
17.1417

>  <SCORE.INTER.VDW>
-12.2437

>  <SCORE.INTER.norm>
-0.174435

>  <SCORE.INTRA>
-11.1455

>  <SCORE.INTRA.DIHEDRAL>
-21.443

>  <SCORE.INTRA.DIHEDRAL.0>
27.8999

>  <SCORE.INTRA.POLAR>
0

>  <SCORE.INTRA.POLAR.0>
0

>  <SCORE.INTRA.REPUL>
0

>  <SCORE.INTRA.REPUL.0>
0

>  <SCORE.INTRA.SOLV>
-3.97784

>  <SCORE.INTRA.SOLV.lig_0>
-104.479

>  <SCORE.INTRA.VDW>
1.56496

>  <SCORE.INTRA.VDW.0>
-6.17816

>  <SCORE.INTRA.norm>
-0.265368

>  <SCORE.RESTR>
0.00721979

>  <SCORE.RESTR.CAVITY>
0.00721979

>  <SCORE.RESTR.norm>
0.0001719

>  <SCORE.SYSTEM>
0

>  <SCORE.SYSTEM.CONST>
0

>  <SCORE.SYSTEM.DIHEDRAL>
0

>  <SCORE.SYSTEM.SOLV>
0

>  <SCORE.SYSTEM.norm>
0

>  <SCORE.heavy>
42

>  <SCORE.norm>
-0.439632

>  <RMSD>
5.177

$$$$
2o3w_lig
 OpenBabel11021811463D
libRbt.so/2013.1/901 2013/11/27
 42 45  0  0  0  0  0  0  0  0999 V2000
   12.1599    1.2622    5.9858 C   0  0  2  0  0  0  0  0  0  0  0  0
   10.8819    0.8266    6.4799 O   0  0  0  0  0  0  0  0  0  0  0  0
    9.7625   -1.6318    3.0888 C   0  0  2  0  0  0  0  0  0  0  0  0
    9.0223   -2.5555    2.1781 N   0  0  0  0  0  0  0  0  0  0  0  0
    8.5702    2.9362    4.3533 C   0  0  1  0  0  0  0  0  0  0  0  0
    7.3641    6.3793    1.7588 C   0  0  1  0  0  0  0  0  0  0  0  0
   12.9558    1.8139    7.2066 C   0  0  2  0  0  0  0  0  0  0  0  0
   12.9546    0.8824    8.3480 N   0  0  0  0  0  0  0  0  0  0  0  0
   10.2065   -2.3684    4.4162 C   0  0  0  0  0  0  0  0  0  0  0  0
    8.2533    2.8798    2.8278 C   0  0  2  0  0  0  0  0  0  0  0  0
    9.4294    2.8643    1.9818 O   0  0  0  0  0  0  0  0  0  0  0  0
    8.1708    7.7186    1.6025 C   0  0  2  0  0  0  0  0  0  0  0  0
    8.7270    8.1626    2.9156 N   0  0  0  0  0  0  0  0  0  0  0  0
   12.3854    3.1484    7.7211 C   0  0  1  0  0  0  0  0  0  0  0  0
   13.1678    3.6360    8.8124 O   0  0  0  0  0  0  0  0  0  0  0  0
   10.9992   -1.3525    5.3229 C   0  0  2  0  0  0  0  0  0  0  0  0
   11.4457   -2.0174    6.5768 N   0  0  0  0  0  0  0  0  0  0  0  0
    7.3393    4.0958    2.6691 C   0  0  2  0  0  0  0  0  0  0  0  0
    8.1015    5.3042    2.3538 O   0  0  0  0  0  0  0  0  0  0  0  0
    7.2159    8.8405    0.9729 C   0  0  1  0  0  0  0  0  0  0  0  0
    7.0126    8.5486   -0.4279 O   0  0  0  0  0  0  0  0  0  0  0  0
   12.3361    4.1693    6.5616 C   0  0  2  0  0  0  0  0  0  0  0  0
   11.8316    5.4021    7.0202 O   0  0  0  0  0  0  0  0  0  0  0  0
   10.0998   -0.1028    5.6768 C   0  0  2  0  0  0  0  0  0  0  0  0
    6.5910    4.2416    4.0048 C   0  0  2  0  0  0  0  0  0  0  0  0
    7.5280    3.7385    4.9543 O   0  0  0  0  0  0  0  0  0  0  0  0
    5.7974    8.9361    1.7119 C   0  0  2  0  0  0  0  0  0  0  0  0
    6.0259    9.4685    3.0160 O   0  0  0  0  0  0  0  0  0  0  0  0
   11.4380    3.5965    5.4149 C   0  0  2  0  0  0  0  0  0  0  0  0
   11.9762    2.3136    4.9628 O   0  0  0  0  0  0  0  0  0  0  0  0
    9.5811    0.6359    4.4236 C   0  0  2  0  0  0  0  0  0  0  0  0
    8.6388    1.6234    4.9250 O   0  0  0  0  0  0  0  0  0  0  0  0
    5.2377    3.4697    4.0887 C   0  0  0  0  0  0  0  0  0  0  0  0
    5.4876    2.0705    3.9962 O   0  0  0  0  0  0  0  0  0  0  0  0
    5.1265    7.5142    1.8133 C   0  0  1  0  0  0  0  0  0  0  0  0
    6.0892    6.6575    2.5271 O   0  0  0  0  0  0  0  0  0  0  0  0
   11.3387    4.5316    4.2319 C   0  0  0  0  0  0  0  0  0  0  0  0
   10.5974    5.6758    4.5792 O   0  0  0  0  0  0  0  0  0  0  0  0
    8.8602   -0.3830    3.4449 C   0  0  1  0  0  0  0  0  0  0  0  0
    8.5150    0.2697    2.2200 O   0  0  0  0  0  0  0  0  0  0  0  0
    3.7254    7.5113    2.5652 C   0  0  0  0  0  0  0  0  0  0  0  0
    3.0370    6.1931    2.6355 N   0  0  0  0  0  0  0  0  0  0  0  0
  1  2  1  1  0  0  0
  1  7  1  0  0  0  0
  1 30  1  0  0  0  0
  3  4  1  6  0  0  0
  3  9  1  0  0  0  0
  3 39  1  0  0  0  0
  5 10  1  0  0  0  0
  5 26  1  0  0  0  0
  5 32  1  1  0  0  0
  6 12  1  0  0  0  0
  6 36  1  0  0  0  0
  6 19  1  1  0  0  0
  7  8  1  1  0  0  0
  7 14  1  0  0  0  0
  9 16  1  0  0  0  0
 10 11  1  6  0  0  0
 10 18  1  0  0  0  0
 12 13  1  1  0  0  0
 12 20  1  0  0  0  0
 14 15  1  1  0  0  0
 14 22  1  0  0  0  0
 16 17  1  1  0  0  0
 16 24  1  0  0  0  0
 18 19  1  1  0  0  0
 18 25  1  0  0  0  0
 20 21  1  6  0  0  0
 20 27  1  0  0  0  0
 22 23  1  1  0  0  0
 22 29  1  0  0  0  0
 24  2  1  1  0  0  0
 24 31  1  0  0  0  0
 25 26  1  0  0  0  0
 25 33  1  6  0  0  0
 27 28  1  1  0  0  0
 27 35  1  0  0  0  0
 29 30  1  0  0  0  0
 29 37  1  6  0  0  0
 31 32  1  1  0  0  0
 31 39  1  0  0  0  0
 33 34  1  0  0  0  0
 35 36  1  0  0  0  0
 35 41  1  1  0  0  0
 37 38  1  0  0  0  0
 39 40  1  6  0  0  0
 41 42  1  0  0  0  0
M  END
>  <CHROM.1>
-160.81830849,58.26726112,172.63313091,160.11895400,53.05374657,64.07227357
-69.11771014,140.96922736,177.79900526,8.94354568,3.53211775,4.09557168,-0.82224847
-0.65234684,0.01581266

>  <Name>
2o3w_lig

>  <RI>
0

>  <Rbt.Current_Directory>
/home/itssahil/PROJECTS/Mol_Feturizer/New_Systems/rnas/2o3w

>  <Rbt.Executable>
rbdock ($Id: //depot/dev/client3/rdock/2013.1/src/exe/rbdock.cxx#4 $)

>  <Rbt.Library>
libRbt.so (2013.1, Build901 2013/11/27)

>  <Rbt.Parameter_File>
/export/apps/rDock/src/rDock_2013.1_src/data/scripts/dock_solv.prm

>  <Rbt.Receptor>
prm/pocket_docking_3.prm

>  <SCORE>
-7.21663

>  <SCORE.INTER>
1.44909

>  <SCORE.INTER.CONST>
1

>  <SCORE.INTER.POLAR>
0

>  <SCORE.INTER.ROT>
9

>  <SCORE.INTER.SOLV>
10.2096

>  <SCORE.INTER.VDW>
-12.0371

>  <SCORE.INTER.norm>
0.0345021

>  <SCORE.INTRA>
-8.66572

>  <SCORE.INTRA.DIHEDRAL>
-18.2019

>  <SCORE.INTRA.DIHEDRAL.0>
27.8999

>  <SCORE.INTRA.POLAR>
0

>  <SCORE.INTRA.POLAR.0>
0

>  <SCORE.INTRA.REPUL>
0

>  <SCORE.INTRA.REPUL.0>
0

>  <SCORE.INTRA.SOLV>
-0.338009

>  <SCORE.INTRA.SOLV.lig_0>
-104.479

>  <SCORE.INTRA.VDW>
0.604251

>  <SCORE.INTRA.VDW.0>
-6.17816

>  <SCORE.INTRA.norm>
-0.206327

>  <SCORE.RESTR>
0

>  <SCORE.RESTR.CAVITY>
0

>  <SCORE.RESTR.norm>
0

>  <SCORE.SYSTEM>
0

>  <SCORE.SYSTEM.CONST>
0

>  <SCORE.SYSTEM.DIHEDRAL>
0

>  <SCORE.SYSTEM.SOLV>
0

>  <SCORE.SYSTEM.norm>
0

>  <SCORE.heavy>
42

>  <SCORE.norm>
-0.171824

>  <RMSD>
5.179

$$$$
2o3w_lig
 OpenBabel11021811463D
libRbt.so/2013.1/901 2013/11/27
 42 45  0  0  0  0  0  0  0  0999 V2000
   10.3832    0.9763    7.1709 C   0  0  2  0  0  0  0  0  0  0  0  0
    9.7869    0.6245    5.9108 O   0  0  0  0  0  0  0  0  0  0  0  0
    6.6338   -2.0007    4.5099 C   0  0  2  0  0  0  0  0  0  0  0  0
    5.3549   -2.7645    4.4029 N   0  0  0  0  0  0  0  0  0  0  0  0
    6.7815    2.6968    4.1273 C   0  0  1  0  0  0  0  0  0  0  0  0
    5.5034    6.5772    2.2025 C   0  0  1  0  0  0  0  0  0  0  0  0
    9.7372    2.3213    7.6203 C   0  0  2  0  0  0  0  0  0  0  0  0
    8.2657    2.2896    7.5548 N   0  0  0  0  0  0  0  0  0  0  0  0
    7.4798   -2.4703    5.7612 C   0  0  0  0  0  0  0  0  0  0  0  0
    6.3047    4.0271    4.7858 C   0  0  2  0  0  0  0  0  0  0  0  0
    4.9086    4.0258    5.1729 O   0  0  0  0  0  0  0  0  0  0  0  0
    4.7429    7.6095    3.1107 C   0  0  2  0  0  0  0  0  0  0  0  0
    3.3812    7.1076    3.4638 N   0  0  0  0  0  0  0  0  0  0  0  0
   10.1956    3.5082    6.7531 C   0  0  1  0  0  0  0  0  0  0  0  0
    9.6112    4.7236    7.2245 O   0  0  0  0  0  0  0  0  0  0  0  0
    8.8224   -1.6470    5.8075 C   0  0  2  0  0  0  0  0  0  0  0  0
    9.6515   -2.0741    6.9667 N   0  0  0  0  0  0  0  0  0  0  0  0
    6.6935    5.0456    3.7130 C   0  0  2  0  0  0  0  0  0  0  0  0
    5.6081    5.2593    2.7554 O   0  0  0  0  0  0  0  0  0  0  0  0
    4.6584    9.0186    2.3530 C   0  0  1  0  0  0  0  0  0  0  0  0
    5.9639    9.6383    2.3718 O   0  0  0  0  0  0  0  0  0  0  0  0
   11.7394    3.5849    6.7587 C   0  0  2  0  0  0  0  0  0  0  0  0
   12.1747    4.6769    5.9825 O   0  0  0  0  0  0  0  0  0  0  0  0
    8.5234   -0.0992    5.9112 C   0  0  2  0  0  0  0  0  0  0  0  0
    7.9434    4.4766    3.0206 C   0  0  2  0  0  0  0  0  0  0  0  0
    7.7536    3.0673    3.1229 O   0  0  0  0  0  0  0  0  0  0  0  0
    4.1521    8.8812    0.8389 C   0  0  2  0  0  0  0  0  0  0  0  0
    2.7760    8.5056    0.8771 O   0  0  0  0  0  0  0  0  0  0  0  0
   12.3193    2.2430    6.1997 C   0  0  2  0  0  0  0  0  0  0  0  0
   11.8459    1.1249    7.0155 O   0  0  0  0  0  0  0  0  0  0  0  0
    7.6507    0.4213    4.7481 C   0  0  2  0  0  0  0  0  0  0  0  0
    7.3260    1.7946    5.0992 O   0  0  0  0  0  0  0  0  0  0  0  0
    9.3016    4.9076    3.6562 C   0  0  0  0  0  0  0  0  0  0  0  0
    9.4087    6.3275    3.6193 O   0  0  0  0  0  0  0  0  0  0  0  0
    4.9928    7.7943    0.0681 C   0  0  1  0  0  0  0  0  0  0  0  0
    4.8501    6.5457    0.8368 O   0  0  0  0  0  0  0  0  0  0  0  0
   13.8302    2.2279    6.1752 C   0  0  0  0  0  0  0  0  0  0  0  0
   14.3129    3.2840    5.3809 O   0  0  0  0  0  0  0  0  0  0  0  0
    6.3331   -0.4519    4.6169 C   0  0  1  0  0  0  0  0  0  0  0  0
    5.6007   -0.0678    3.4500 O   0  0  0  0  0  0  0  0  0  0  0  0
    4.5340    7.5684   -1.4375 C   0  0  0  0  0  0  0  0  0  0  0  0
    4.7984    8.7014   -2.3664 N   0  0  0  0  0  0  0  0  0  0  0  0
  1  2  1  6  0  0  0
  1  7  1  0  0  0  0
  1 30  1  0  0  0  0
  3  4  1  1  0  0  0
  3  9  1  0  0  0  0
  3 39  1  0  0  0  0
  5 10  1  0  0  0  0
  5 26  1  0  0  0  0
  5 32  1  1  0  0  0
  6 12  1  0  0  0  0
  6 36  1  0  0  0  0
  6 19  1  1  0  0  0
  7  8  1  6  0  0  0
  7 14  1  0  0  0  0
  9 16  1  0  0  0  0
 10 11  1  6  0  0  0
 10 18  1  0  0  0  0
 12 13  1  6  0  0  0
 12 20  1  0  0  0  0
 14 15  1  1  0  0  0
 14 22  1  0  0  0  0
 16 17  1  1  0  0  0
 16 24  1  0  0  0  0
 18 19  1  6  0  0  0
 18 25  1  0  0  0  0
 20 21  1  6  0  0  0
 20 27  1  0  0  0  0
 22 23  1  6  0  0  0
 22 29  1  0  0  0  0
 24  2  1  6  0  0  0
 24 31  1  0  0  0  0
 25 26  1  0  0  0  0
 25 33  1  1  0  0  0
 27 28  1  1  0  0  0
 27 35  1  0  0  0  0
 29 30  1  0  0  0  0
 29 37  1  1  0  0  0
 31 32  1  1  0  0  0
 31 39  1  0  0  0  0
 33 34  1  0  0  0  0
 35 36  1  0  0  0  0
 35 41  1  6  0  0  0
 37 38  1  0  0  0  0
 39 40  1  6  0  0  0
 41 42  1  0  0  0  0
M  END
>  <CHROM.1>
-85.12017658,170.83539702,-82.46751897,147.29427758,-94.38526193,-59.42883245
-58.90398131,165.89849717,68.59888853,7.69961776,3.60805492,4.21390366,-0.96203715
-0.45978369,-0.31337431

>  <Name>
2o3w_lig

>  <RI>
0

>  <Rbt.Current_Directory>
/home/itssahil/PROJECTS/Mol_Feturizer/New_Systems/rnas/2o3w

>  <Rbt.Executable>
rbdock ($Id: //depot/dev/client3/rdock/2013.1/src/exe/rbdock.cxx#4 $)

>  <Rbt.Library>
libRbt.so (2013.1, Build901 2013/11/27)

>  <Rbt.Parameter_File>
/export/apps/rDock/src/rDock_2013.1_src/data/scripts/dock_solv.prm

>  <Rbt.Receptor>
prm/pocket_docking_3.prm

>  <SCORE>
-6.84876

>  <SCORE.INTER>
-0.885936

>  <SCORE.INTER.CONST>
1

>  <SCORE.INTER.POLAR>
0

>  <SCORE.INTER.ROT>
9

>  <SCORE.INTER.SOLV>
9.85941

>  <SCORE.INTER.VDW>
-13.4771

>  <SCORE.INTER.norm>
-0.0210937

>  <SCORE.INTRA>
-5.96283

>  <SCORE.INTRA.DIHEDRAL>
-12.7927

>  <SCORE.INTRA.DIHEDRAL.0>
27.8999

>  <SCORE.INTRA.POLAR>
0

>  <SCORE.INTRA.POLAR.0>
0

>  <SCORE.INTRA.REPUL>
0

>  <SCORE.INTRA.REPUL.0>
0

>  <SCORE.INTRA.SOLV>
-0.978856

>  <SCORE.INTRA.SOLV.lig_0>
-104.479

>  <SCORE.INTRA.VDW>
0.922971

>  <SCORE.INTRA.VDW.0>
-6.17816

>  <SCORE.INTRA.norm>
-0.141972

>  <SCORE.RESTR>
0

>  <SCORE.RESTR.CAVITY>
0

>  <SCORE.RESTR.norm>
0

>  <SCORE.SYSTEM>
0

>  <SCORE.SYSTEM.CONST>
0

>  <SCORE.SYSTEM.DIHEDRAL>
0

>  <SCORE.SYSTEM.SOLV>
0

>  <SCORE.SYSTEM.norm>
0

>  <SCORE.heavy>
42

>  <SCORE.norm>
-0.163066

>  <RMSD>
5.187

$$$$
2o3w_lig
 OpenBabel11021811463D
libRbt.so/2013.1/901 2013/11/27
 42 45  0  0  0  0  0  0  0  0999 V2000
   10.7929    2.6716    4.2600 C   0  0  2  0  0  0  0  0  0  0  0  0
    9.7359    2.7636    5.2304 O   0  0  0  0  0  0  0  0  0  0  0  0
    7.3362    6.0795    6.6596 C   0  0  2  0  0  0  0  0  0  0  0  0
    6.9125    7.3997    7.2145 N   0  0  0  0  0  0  0  0  0  0  0  0
    9.4037    5.8217    2.4852 C   0  0  1  0  0  0  0  0  0  0  0  0
    8.8367    6.8286   -1.6799 C   0  0  1  0  0  0  0  0  0  0  0  0
   10.9612    1.1621    3.9122 C   0  0  2  0  0  0  0  0  0  0  0  0
    9.6806    0.5139    3.5796 N   0  0  0  0  0  0  0  0  0  0  0  0
    8.1392    5.2375    7.7311 C   0  0  0  0  0  0  0  0  0  0  0  0
   10.6326    5.8955    1.5285 C   0  0  2  0  0  0  0  0  0  0  0  0
   11.4040    7.1156    1.6531 O   0  0  0  0  0  0  0  0  0  0  0  0
    8.3953    8.2044   -2.2973 C   0  0  2  0  0  0  0  0  0  0  0  0
    7.5881    8.9935   -1.3192 N   0  0  0  0  0  0  0  0  0  0  0  0
   11.5772    0.3601    5.0734 C   0  0  1  0  0  0  0  0  0  0  0  0
   11.7496   -1.0073    4.6971 O   0  0  0  0  0  0  0  0  0  0  0  0
    8.5380    3.8516    7.0964 C   0  0  2  0  0  0  0  0  0  0  0  0
    9.2841    3.0259    8.0840 N   0  0  0  0  0  0  0  0  0  0  0  0
    9.9659    5.6693    0.1707 C   0  0  2  0  0  0  0  0  0  0  0  0
    9.5520    6.9316   -0.4424 O   0  0  0  0  0  0  0  0  0  0  0  0
    7.5690    7.9388   -3.6439 C   0  0  1  0  0  0  0  0  0  0  0  0
    8.4863    7.5236   -4.6808 O   0  0  0  0  0  0  0  0  0  0  0  0
   12.9190    1.0042    5.4902 C   0  0  2  0  0  0  0  0  0  0  0  0
   13.5042    0.2717    6.5416 O   0  0  0  0  0  0  0  0  0  0  0  0
    9.4243    4.0643    5.8060 C   0  0  2  0  0  0  0  0  0  0  0  0
    8.7569    4.7570    0.4382 C   0  0  2  0  0  0  0  0  0  0  0  0
    8.3679    5.1190    1.7610 O   0  0  0  0  0  0  0  0  0  0  0  0
    6.4261    6.8302   -3.4640 C   0  0  2  0  0  0  0  0  0  0  0  0
    5.4146    7.3863   -2.6249 O   0  0  0  0  0  0  0  0  0  0  0  0
   12.6610    2.4855    5.9249 C   0  0  2  0  0  0  0  0  0  0  0  0
   12.0452    3.2218    4.8211 O   0  0  0  0  0  0  0  0  0  0  0  0
    8.7242    4.9286    4.7345 C   0  0  2  0  0  0  0  0  0  0  0  0
    9.7362    5.1718    3.7190 O   0  0  0  0  0  0  0  0  0  0  0  0
    9.0514    3.2280    0.3384 C   0  0  0  0  0  0  0  0  0  0  0  0
    9.6649    2.7873    1.5460 O   0  0  0  0  0  0  0  0  0  0  0  0
    7.0172    5.5231   -2.8126 C   0  0  1  0  0  0  0  0  0  0  0  0
    7.6196    5.9395   -1.5343 O   0  0  0  0  0  0  0  0  0  0  0  0
   13.9264    3.1972    6.3445 C   0  0  0  0  0  0  0  0  0  0  0  0
   13.6452    4.5379    6.6649 O   0  0  0  0  0  0  0  0  0  0  0  0
    8.2259    6.2937    5.3699 C   0  0  1  0  0  0  0  0  0  0  0  0
    7.4473    7.0254    4.4190 O   0  0  0  0  0  0  0  0  0  0  0  0
    5.9410    4.3787   -2.5661 C   0  0  0  0  0  0  0  0  0  0  0  0
    4.7633    4.7708   -1.7440 N   0  0  0  0  0  0  0  0  0  0  0  0
  1  2  1  1  0  0  0
  1  7  1  0  0  0  0
  1 30  1  0  0  0  0
  3  4  1  1  0  0  0
  3  9  1  0  0  0  0
  3 39  1  0  0  0  0
  5 10  1  0  0  0  0
  5 26  1  0  0  0  0
  5 32  1  1  0  0  0
  6 12  1  0  0  0  0
  6 36  1  0  0  0  0
  6 19  1  1  0  0  0
  7  8  1  1  0  0  0
  7 14  1  0  0  0  0
  9 16  1  0  0  0  0
 10 11  1  6  0  0  0
 10 18  1  0  0  0  0
 12 13  1  1  0  0  0
 12 20  1  0  0  0  0
 14 15  1  6  0  0  0
 14 22  1  0  0  0  0
 16 17  1  1  0  0  0
 16 24  1  0  0  0  0
 18 19  1  1  0  0  0
 18 25  1  0  0  0  0
 20 21  1  6  0  0  0
 20 27  1  0  0  0  0
 22 23  1  1  0  0  0
 22 29  1  0  0  0  0
 24  2  1  6  0  0  0
 24 31  1  0  0  0  0
 25 26  1  0  0  0  0
 25 33  1  1  0  0  0
 27 28  1  1  0  0  0
 27 35  1  0  0  0  0
 29 30  1  0  0  0  0
 29 37  1  6  0  0  0
 31 32  1  6  0  0  0
 31 39  1  0  0  0  0
 33 34  1  0  0  0  0
 35 36  1  0  0  0  0
 35 41  1  1  0  0  0
 37 38  1  0  0  0  0
 39 40  1  6  0  0  0
 41 42  1  0  0  0  0
M  END
>  <CHROM.1>
175.86181891,-176.74031270,179.31078926,-176.06253437,-164.56210274,80.11495174
177.30853405,172.93165624,-55.84109105,9.35350516,4.65966403,2.48128868,-0.90411345
0.90565254,-1.65141186

>  <Name>
2o3w_lig

>  <RI>
0

>  <Rbt.Current_Directory>
/home/itssahil/PROJECTS/Mol_Feturizer/New_Systems/rnas/2o3w

>  <Rbt.Executable>
rbdock ($Id: //depot/dev/client3/rdock/2013.1/src/exe/rbdock.cxx#4 $)

>  <Rbt.Library>
libRbt.so (2013.1, Build901 2013/11/27)

>  <Rbt.Parameter_File>
/export/apps/rDock/src/rDock_2013.1_src/data/scripts/dock_solv.prm

>  <Rbt.Receptor>
prm/pocket_docking_7.prm

>  <SCORE>
-23.4954

>  <SCORE.INTER>
-12.7235

>  <SCORE.INTER.CONST>
1

>  <SCORE.INTER.POLAR>
-2.30866

>  <SCORE.INTER.ROT>
9

>  <SCORE.INTER.SOLV>
17.6869

>  <SCORE.INTER.VDW>
-16.2824

>  <SCORE.INTER.norm>
-0.30294

>  <SCORE.INTRA>
-10.7806

>  <SCORE.INTRA.DIHEDRAL>
-24.8018

>  <SCORE.INTRA.DIHEDRAL.0>
27.8999

>  <SCORE.INTRA.POLAR>
0

>  <SCORE.INTRA.POLAR.0>
0

>  <SCORE.INTRA.REPUL>
0

>  <SCORE.INTRA.REPUL.0>
0

>  <SCORE.INTRA.SOLV>
-2.22497

>  <SCORE.INTRA.SOLV.lig_0>
-104.479

>  <SCORE.INTRA.VDW>
2.73276

>  <SCORE.INTRA.VDW.0>
-6.17816

>  <SCORE.INTRA.norm>
-0.256682

>  <SCORE.RESTR>
0.00875598

>  <SCORE.RESTR.CAVITY>
0.00875598

>  <SCORE.RESTR.norm>
0.000208476

>  <SCORE.SYSTEM>
0

>  <SCORE.SYSTEM.CONST>
0

>  <SCORE.SYSTEM.DIHEDRAL>
0

>  <SCORE.SYSTEM.SOLV>
0

>  <SCORE.SYSTEM.norm>
0

>  <SCORE.heavy>
42

>  <SCORE.norm>
-0.559414

>  <RMSD>
5.200

$$$$
2o3w_lig
 OpenBabel11021811463D
libRbt.so/2013.1/901 2013/11/27
 42 45  0  0  0  0  0  0  0  0999 V2000
    9.0685    1.0182    6.8625 C   0  0  2  0  0  0  0  0  0  0  0  0
    8.6426    1.1012    5.4917 O   0  0  0  0  0  0  0  0  0  0  0  0
    6.2098   -1.6642    3.2048 C   0  0  2  0  0  0  0  0  0  0  0  0
    5.0559   -2.4588    2.6876 N   0  0  0  0  0  0  0  0  0  0  0  0
    6.0113    2.8500    2.6810 C   0  0  1  0  0  0  0  0  0  0  0  0
    4.2101    6.3245    1.0025 C   0  0  1  0  0  0  0  0  0  0  0  0
    9.1937    2.4793    7.3894 C   0  0  2  0  0  0  0  0  0  0  0  0
    7.9955    3.2869    7.1020 N   0  0  0  0  0  0  0  0  0  0  0  0
    6.5419   -2.0435    4.7040 C   0  0  0  0  0  0  0  0  0  0  0  0
    5.9220    4.3856    2.9358 C   0  0  2  0  0  0  0  0  0  0  0  0
    4.6880    4.8074    3.5668 O   0  0  0  0  0  0  0  0  0  0  0  0
    2.6563    6.2308    0.7890 C   0  0  2  0  0  0  0  0  0  0  0  0
    2.3356    5.7014   -0.5704 N   0  0  0  0  0  0  0  0  0  0  0  0
   10.3907    3.2234    6.7694 C   0  0  1  0  0  0  0  0  0  0  0  0
   10.4903    4.5423    7.3093 O   0  0  0  0  0  0  0  0  0  0  0  0
    7.7773   -1.1917    5.1842 C   0  0  2  0  0  0  0  0  0  0  0  0
    8.1273   -1.5343    6.5892 N   0  0  0  0  0  0  0  0  0  0  0  0
    6.1683    4.9348    1.5297 C   0  0  2  0  0  0  0  0  0  0  0  0
    4.9172    5.0966    0.7886 O   0  0  0  0  0  0  0  0  0  0  0  0
    2.0037    7.6769    1.0121 C   0  0  1  0  0  0  0  0  0  0  0  0
    2.0076    7.9782    2.4256 O   0  0  0  0  0  0  0  0  0  0  0  0
   11.6844    2.4139    7.0148 C   0  0  2  0  0  0  0  0  0  0  0  0
   12.7924    3.0902    6.4676 O   0  0  0  0  0  0  0  0  0  0  0  0
    7.4641    0.3530    5.0775 C   0  0  2  0  0  0  0  0  0  0  0  0
    7.0999    3.9260    0.8371 C   0  0  2  0  0  0  0  0  0  0  0  0
    6.7364    2.6866    1.4405 O   0  0  0  0  0  0  0  0  0  0  0  0
    2.7718    8.8355    0.2150 C   0  0  2  0  0  0  0  0  0  0  0  0
    2.5289    8.6351   -1.1768 O   0  0  0  0  0  0  0  0  0  0  0  0
   11.5290    0.9957    6.3712 C   0  0  2  0  0  0  0  0  0  0  0  0
   10.3679    0.3183    6.9479 O   0  0  0  0  0  0  0  0  0  0  0  0
    7.0751    0.7878    3.6475 C   0  0  2  0  0  0  0  0  0  0  0  0
    6.6477    2.1721    3.7721 O   0  0  0  0  0  0  0  0  0  0  0  0
    8.6240    4.2099    1.0122 C   0  0  0  0  0  0  0  0  0  0  0  0
    9.3697    3.2511    0.2681 O   0  0  0  0  0  0  0  0  0  0  0  0
    4.3182    8.7832    0.5117 C   0  0  1  0  0  0  0  0  0  0  0  0
    4.7627    7.4316    0.1296 O   0  0  0  0  0  0  0  0  0  0  0  0
   12.7516    0.1299    6.5698 C   0  0  0  0  0  0  0  0  0  0  0  0
   13.8542    0.6858    5.8956 O   0  0  0  0  0  0  0  0  0  0  0  0
    5.8938   -0.1183    3.1004 C   0  0  1  0  0  0  0  0  0  0  0  0
    5.6367    0.1830    1.7261 O   0  0  0  0  0  0  0  0  0  0  0  0
    5.1647    9.8809   -0.2675 C   0  0  0  0  0  0  0  0  0  0  0  0
    6.6384    9.6696   -0.2749 N   0  0  0  0  0  0  0  0  0  0  0  0
  1  2  1  6  0  0  0
  1  7  1  0  0  0  0
  1 30  1  0  0  0  0
  3  4  1  1  0  0  0
  3  9  1  0  0  0  0
  3 39  1  0  0  0  0
  5 10  1  0  0  0  0
  5 26  1  0  0  0  0
  5 32  1  1  0  0  0
  6 12  1  0  0  0  0
  6 36  1  0  0  0  0
  6 19  1  6  0  0  0
  7  8  1  6  0  0  0
  7 14  1  0  0  0  0
  9 16  1  0  0  0  0
 10 11  1  6  0  0  0
 10 18  1  0  0  0  0
 12 13  1  6  0  0  0
 12 20  1  0  0  0  0
 14 15  1  1  0  0  0
 14 22  1  0  0  0  0
 16 17  1  1  0  0  0
 16 24  1  0  0  0  0
 18 19  1  6  0  0  0
 18 25  1  0  0  0  0
 20 21  1  1  0  0  0
 20 27  1  0  0  0  0
 22 23  1  6  0  0  0
 22 29  1  0  0  0  0
 24  2  1  6  0  0  0
 24 31  1  0  0  0  0
 25 26  1  0  0  0  0
 25 33  1  1  0  0  0
 27 28  1  6  0  0  0
 27 35  1  0  0  0  0
 29 30  1  0  0  0  0
 29 37  1  1  0  0  0
 31 32  1  1  0  0  0
 31 39  1  0  0  0  0
 33 34  1  0  0  0  0
 35 36  1  0  0  0  0
 35 41  1  6  0  0  0
 37 38  1  0  0  0  0
 39 40  1  6  0  0  0
 41 42  1  0  0  0  0
M  END
>  <CHROM.1>
-126.82224175,-167.86006806,-152.56438558,85.11085838,-66.19374287,-176.91537650
-64.62087782,-170.00279489,-166.06026730,7.03043412,3.37780147,3.29374838
-0.81807691,-0.57053161,-0.22771858

>  <Name>
2o3w_lig

>  <RI>
0

>  <Rbt.Current_Directory>
/home/itssahil/PROJECTS/Mol_Feturizer/New_Systems/rnas/2o3w

>  <Rbt.Executable>
rbdock ($Id: //depot/dev/client3/rdock/2013.1/src/exe/rbdock.cxx#4 $)

>  <Rbt.Library>
libRbt.so (2013.1, Build901 2013/11/27)

>  <Rbt.Parameter_File>
/export/apps/rDock/src/rDock_2013.1_src/data/scripts/dock_solv.prm

>  <Rbt.Receptor>
prm/pocket_docking_3.prm

>  <SCORE>
-11.4667

>  <SCORE.INTER>
-6.38548

>  <SCORE.INTER.CONST>
1

>  <SCORE.INTER.POLAR>
-1

>  <SCORE.INTER.ROT>
9

>  <SCORE.INTER.SOLV>
11.1255

>  <SCORE.INTER.VDW>
-14.2322

>  <SCORE.INTER.norm>
-0.152035

>  <SCORE.INTRA>
-5.08559

>  <SCORE.INTRA.DIHEDRAL>
-12.8786

>  <SCORE.INTRA.DIHEDRAL.0>
27.8999

>  <SCORE.INTRA.POLAR>
0

>  <SCORE.INTRA.POLAR.0>
0

>  <SCORE.INTRA.REPUL>
0

>  <SCORE.INTRA.REPUL.0>
0

>  <SCORE.INTRA.SOLV>
-3.41897

>  <SCORE.INTRA.SOLV.lig_0>
-104.479

>  <SCORE.INTRA.VDW>
3.0632

>  <SCORE.INTRA.VDW.0>
-6.17816

>  <SCORE.INTRA.norm>
-0.121085

>  <SCORE.RESTR>
0.00436511

>  <SCORE.RESTR.CAVITY>
0.00436511

>  <SCORE.RESTR.norm>
0.000103931

>  <SCORE.SYSTEM>
0

>  <SCORE.SYSTEM.CONST>
0

>  <SCORE.SYSTEM.DIHEDRAL>
0

>  <SCORE.SYSTEM.SOLV>
0

>  <SCORE.SYSTEM.norm>
0

>  <SCORE.heavy>
42

>  <SCORE.norm>
-0.273017

>  <RMSD>
5.223

$$$$
2o3w_lig
 OpenBabel11021811463D
libRbt.so/2013.1/901 2013/11/27
 42 45  0  0  0  0  0  0  0  0999 V2000
    8.2077   -1.9178    4.2029 C   0  0  2  0  0  0  0  0  0  0  0  0
    7.4818   -0.8523    4.8392 O   0  0  0  0  0  0  0  0  0  0  0  0
    6.4627    1.4154    1.2874 C   0  0  2  0  0  0  0  0  0  0  0  0
    5.8484    2.4068    0.3545 N   0  0  0  0  0  0  0  0  0  0  0  0
    9.0784    3.0544    4.6354 C   0  0  1  0  0  0  0  0  0  0  0  0
   10.2888    5.7471    4.0877 C   0  0  1  0  0  0  0  0  0  0  0  0
    8.8364   -2.7812    5.3376 C   0  0  2  0  0  0  0  0  0  0  0  0
    7.8550   -3.1553    6.3708 N   0  0  0  0  0  0  0  0  0  0  0  0
    5.3782    0.4150    1.8573 C   0  0  0  0  0  0  0  0  0  0  0  0
    9.2814    3.7110    6.0348 C   0  0  2  0  0  0  0  0  0  0  0  0
    8.3077    4.7360    6.3517 O   0  0  0  0  0  0  0  0  0  0  0  0
   11.0924    6.7721    3.2088 C   0  0  2  0  0  0  0  0  0  0  0  0
   11.2151    8.0889    3.9030 N   0  0  0  0  0  0  0  0  0  0  0  0
    9.9850   -2.0519    6.0585 C   0  0  1  0  0  0  0  0  0  0  0  0
   10.5564   -2.8934    7.0617 O   0  0  0  0  0  0  0  0  0  0  0  0
    6.0880   -0.6165    2.8137 C   0  0  2  0  0  0  0  0  0  0  0  0
    5.0974   -1.5841    3.3577 N   0  0  0  0  0  0  0  0  0  0  0  0
   10.7322    4.1846    5.9331 C   0  0  2  0  0  0  0  0  0  0  0  0
   10.8179    5.5461    5.4042 O   0  0  0  0  0  0  0  0  0  0  0  0
   10.3666    6.9350    1.7898 C   0  0  1  0  0  0  0  0  0  0  0  0
   10.6052    5.7459    1.0037 O   0  0  0  0  0  0  0  0  0  0  0  0
   11.0440   -1.6083    5.0237 C   0  0  2  0  0  0  0  0  0  0  0  0
   12.1109   -0.9536    5.6699 O   0  0  0  0  0  0  0  0  0  0  0  0
    6.8071    0.1320    4.0047 C   0  0  2  0  0  0  0  0  0  0  0  0
   11.4422    3.1817    5.0081 C   0  0  2  0  0  0  0  0  0  0  0  0
   10.4011    2.7637    4.1284 O   0  0  0  0  0  0  0  0  0  0  0  0
    8.7889    7.1818    1.9229 C   0  0  2  0  0  0  0  0  0  0  0  0
    8.6016    8.4824    2.4795 O   0  0  0  0  0  0  0  0  0  0  0  0
   10.3686   -0.6628    3.9752 C   0  0  2  0  0  0  0  0  0  0  0  0
    9.2595   -1.3612    3.3256 O   0  0  0  0  0  0  0  0  0  0  0  0
    7.8438    1.1696    3.5210 C   0  0  2  0  0  0  0  0  0  0  0  0
    8.2617    1.8792    4.7195 O   0  0  0  0  0  0  0  0  0  0  0  0
   12.0881    1.9607    5.7335 C   0  0  0  0  0  0  0  0  0  0  0  0
   13.0852    2.4247    6.6386 O   0  0  0  0  0  0  0  0  0  0  0  0
    8.1322    6.0916    2.8515 C   0  0  1  0  0  0  0  0  0  0  0  0
    8.8373    6.1750    4.1423 O   0  0  0  0  0  0  0  0  0  0  0  0
   11.3348   -0.1839    2.9165 C   0  0  0  0  0  0  0  0  0  0  0  0
   11.8127   -1.2745    2.1672 O   0  0  0  0  0  0  0  0  0  0  0  0
    7.1794    2.1656    2.4808 C   0  0  1  0  0  0  0  0  0  0  0  0
    8.1728    3.0285    1.9202 O   0  0  0  0  0  0  0  0  0  0  0  0
    6.5680    6.2810    3.0664 C   0  0  0  0  0  0  0  0  0  0  0  0
    5.9273    5.3181    4.0039 N   0  0  0  0  0  0  0  0  0  0  0  0
  1  2  1  1  0  0  0
  1  7  1  0  0  0  0
  1 30  1  0  0  0  0
  3  4  1  6  0  0  0
  3  9  1  0  0  0  0
  3 39  1  0  0  0  0
  5 10  1  0  0  0  0
  5 26  1  0  0  0  0
  5 32  1  1  0  0  0
  6 12  1  0  0  0  0
  6 36  1  0  0  0  0
  6 19  1  1  0  0  0
  7  8  1  1  0  0  0
  7 14  1  0  0  0  0
  9 16  1  0  0  0  0
 10 11  1  6  0  0  0
 10 18  1  0  0  0  0
 12 13  1  1  0  0  0
 12 20  1  0  0  0  0
 14 15  1  1  0  0  0
 14 22  1  0  0  0  0
 16 17  1  1  0  0  0
 16 24  1  0  0  0  0
 18 19  1  6  0  0  0
 18 25  1  0  0  0  0
 20 21  1  6  0  0  0
 20 27  1  0  0  0  0
 22 23  1  1  0  0  0
 22 29  1  0  0  0  0
 24  2  1  1  0  0  0
 24 31  1  0  0  0  0
 25 26  1  0  0  0  0
 25 33  1  1  0  0  0
 27 28  1  1  0  0  0
 27 35  1  0  0  0  0
 29 30  1  0  0  0  0
 29 37  1  6  0  0  0
 31 32  1  1  0  0  0
 31 39  1  0  0  0  0
 33 34  1  0  0  0  0
 35 36  1  0  0  0  0
 35 41  1  1  0  0  0
 37 38  1  0  0  0  0
 39 40  1  6  0  0  0
 41 42  1  0  0  0  0
M  END
>  <CHROM.1>
178.86668637,174.59890009,-143.45023603,-60.74864250,42.65282687,-61.31532378
63.19749142,-170.76668577,-176.46268754,9.12491575,2.27154497,3.95934617
1.60691313,0.52167254,2.94362485

>  <Name>
2o3w_lig

>  <RI>
0

>  <Rbt.Current_Directory>
/home/itssahil/PROJECTS/Mol_Feturizer/New_Systems/rnas/2o3w

>  <Rbt.Executable>
rbdock ($Id: //depot/dev/client3/rdock/2013.1/src/exe/rbdock.cxx#4 $)

>  <Rbt.Library>
libRbt.so (2013.1, Build901 2013/11/27)

>  <Rbt.Parameter_File>
/export/apps/rDock/src/rDock_2013.1_src/data/scripts/dock_solv.prm

>  <Rbt.Receptor>
prm/pocket_docking_4.prm

>  <SCORE>
-13.8966

>  <SCORE.INTER>
-3.5438

>  <SCORE.INTER.CONST>
1

>  <SCORE.INTER.POLAR>
-0.894427

>  <SCORE.INTER.ROT>
9

>  <SCORE.INTER.SOLV>
9.69326

>  <SCORE.INTER.VDW>
-12.2122

>  <SCORE.INTER.norm>
-0.0843763

>  <SCORE.INTRA>
-10.3528

>  <SCORE.INTRA.DIHEDRAL>
-20.9861

>  <SCORE.INTRA.DIHEDRAL.0>
27.8999

>  <SCORE.INTRA.POLAR>
0

>  <SCORE.INTRA.POLAR.0>
0

>  <SCORE.INTRA.REPUL>
0

>  <SCORE.INTRA.REPUL.0>
0

>  <SCORE.INTRA.SOLV>
-0.708536

>  <SCORE.INTRA.SOLV.lig_0>
-104.479

>  <SCORE.INTRA.VDW>
0.494465

>  <SCORE.INTRA.VDW.0>
-6.17816

>  <SCORE.INTRA.norm>
-0.246496

>  <SCORE.RESTR>
0

>  <SCORE.RESTR.CAVITY>
0

>  <SCORE.RESTR.norm>
0

>  <SCORE.SYSTEM>
0

>  <SCORE.SYSTEM.CONST>
0

>  <SCORE.SYSTEM.DIHEDRAL>
0

>  <SCORE.SYSTEM.SOLV>
0

>  <SCORE.SYSTEM.norm>
0

>  <SCORE.heavy>
42

>  <SCORE.norm>
-0.330872

>  <RMSD>
5.229

$$$$
2o3w_lig
 OpenBabel11021811463D
libRbt.so/2013.1/901 2013/11/27
 42 45  0  0  0  0  0  0  0  0999 V2000
   11.6611   -2.3948    6.0164 C   0  0  2  0  0  0  0  0  0  0  0  0
   12.0159   -1.1131    5.4698 O   0  0  0  0  0  0  0  0  0  0  0  0
   15.1670   -0.1263    8.2792 C   0  0  2  0  0  0  0  0  0  0  0  0
   16.2056    0.6132    9.0570 N   0  0  0  0  0  0  0  0  0  0  0  0
   11.3185    1.8254    6.7646 C   0  0  1  0  0  0  0  0  0  0  0  0
    9.6391    4.9763    4.0380 C   0  0  1  0  0  0  0  0  0  0  0  0
   11.1671   -3.2749    4.8291 C   0  0  2  0  0  0  0  0  0  0  0  0
   12.1016   -3.2614    3.6903 N   0  0  0  0  0  0  0  0  0  0  0  0
   15.5478   -0.2079    6.7462 C   0  0  0  0  0  0  0  0  0  0  0  0
   10.2576    1.6381    5.6375 C   0  0  2  0  0  0  0  0  0  0  0  0
   10.7989    1.1147    4.3998 O   0  0  0  0  0  0  0  0  0  0  0  0
   10.1896    5.5068    2.6653 C   0  0  2  0  0  0  0  0  0  0  0  0
   11.6318    5.8791    2.7769 N   0  0  0  0  0  0  0  0  0  0  0  0
    9.8010   -2.8136    4.2888 C   0  0  1  0  0  0  0  0  0  0  0  0
    9.3695   -3.6707    3.2305 O   0  0  0  0  0  0  0  0  0  0  0  0
   14.4296   -1.0158    5.9849 C   0  0  2  0  0  0  0  0  0  0  0  0
   14.7635   -1.1248    4.5392 N   0  0  0  0  0  0  0  0  0  0  0  0
    9.6589    3.0432    5.5567 C   0  0  2  0  0  0  0  0  0  0  0  0
   10.3749    3.8785    4.5921 O   0  0  0  0  0  0  0  0  0  0  0  0
    9.3077    6.7569    2.1895 C   0  0  1  0  0  0  0  0  0  0  0  0
    8.0234    6.2760    1.7334 O   0  0  0  0  0  0  0  0  0  0  0  0
    8.7739   -2.7817    5.4435 C   0  0  2  0  0  0  0  0  0  0  0  0
    7.5133   -2.3773    4.9619 O   0  0  0  0  0  0  0  0  0  0  0  0
   13.0239   -0.3146    6.1529 C   0  0  2  0  0  0  0  0  0  0  0  0
    9.7524    3.6268    6.9766 C   0  0  2  0  0  0  0  0  0  0  0  0
   10.9209    3.0030    7.5038 O   0  0  0  0  0  0  0  0  0  0  0  0
    9.0928    7.8432    3.3476 C   0  0  2  0  0  0  0  0  0  0  0  0
   10.3518    8.4700    3.5895 O   0  0  0  0  0  0  0  0  0  0  0  0
    9.2828   -1.8014    6.5525 C   0  0  2  0  0  0  0  0  0  0  0  0
   10.5956   -2.2365    7.0289 O   0  0  0  0  0  0  0  0  0  0  0  0
   12.6102   -0.1490    7.6316 C   0  0  2  0  0  0  0  0  0  0  0  0
   11.4059    0.6655    7.6024 O   0  0  0  0  0  0  0  0  0  0  0  0
    8.5126    3.3536    7.8835 C   0  0  0  0  0  0  0  0  0  0  0  0
    8.4981    1.9797    8.2590 O   0  0  0  0  0  0  0  0  0  0  0  0
    8.5641    7.1561    4.6631 C   0  0  1  0  0  0  0  0  0  0  0  0
    9.5593    6.1291    5.0167 O   0  0  0  0  0  0  0  0  0  0  0  0
    8.3380   -1.7131    7.7286 C   0  0  0  0  0  0  0  0  0  0  0  0
    8.1745   -2.9812    8.3155 O   0  0  0  0  0  0  0  0  0  0  0  0
   13.7611    0.5782    8.4455 C   0  0  1  0  0  0  0  0  0  0  0  0
   13.4438    0.5959    9.8400 O   0  0  0  0  0  0  0  0  0  0  0  0
    8.3543    8.1596    5.8786 C   0  0  0  0  0  0  0  0  0  0  0  0
    9.4595    9.1305    6.1081 N   0  0  0  0  0  0  0  0  0  0  0  0
  1  2  1  6  0  0  0
  1  7  1  0  0  0  0
  1 30  1  0  0  0  0
  3  4  1  1  0  0  0
  3  9  1  0  0  0  0
  3 39  1  0  0  0  0
  5 10  1  0  0  0  0
  5 26  1  0  0  0  0
  5 32  1  1  0  0  0
  6 12  1  0  0  0  0
  6 36  1  0  0  0  0
  6 19  1  1  0  0  0
  7  8  1  6  0  0  0
  7 14  1  0  0  0  0
  9 16  1  0  0  0  0
 10 11  1  6  0  0  0
 10 18  1  0  0  0  0
 12 13  1  1  0  0  0
 12 20  1  0  0  0  0
 14 15  1  6  0  0  0
 14 22  1  0  0  0  0
 16 17  1  6  0  0  0
 16 24  1  0  0  0  0
 18 19  1  6  0  0  0
 18 25  1  0  0  0  0
 20 21  1  1  0  0  0
 20 27  1  0  0  0  0
 22 23  1  6  0  0  0
 22 29  1  0  0  0  0
 24  2  1  6  0  0  0
 24 31  1  0  0  0  0
 25 26  1  0  0  0  0
 25 33  1  1  0  0  0
 27 28  1  1  0  0  0
 27 35  1  0  0  0  0
 29 30  1  0  0  0  0
 29 37  1  1  0  0  0
 31 32  1  6  0  0  0
 31 39  1  0  0  0  0
 33 34  1  0  0  0  0
 35 36  1  0  0  0  0
 35 41  1  1  0  0  0
 37 38  1  0  0  0  0
 39 40  1  1  0  0  0
 41 42  1  0  0  0  0
M  END
>  <CHROM.1>
-152.86537711,113.80179154,-157.99053928,156.10059457,69.47037657,72.13690556
59.53060660,-44.28969469,-45.20693999,10.75806894,1.63319514,5.75792807,1.29144506
0.53593825,3.04436743

>  <Name>
2o3w_lig

>  <RI>
0

>  <Rbt.Current_Directory>
/home/itssahil/PROJECTS/Mol_Feturizer/New_Systems/rnas/2o3w

>  <Rbt.Executable>
rbdock ($Id: //depot/dev/client3/rdock/2013.1/src/exe/rbdock.cxx#4 $)

>  <Rbt.Library>
libRbt.so (2013.1, Build901 2013/11/27)

>  <Rbt.Parameter_File>
/export/apps/rDock/src/rDock_2013.1_src/data/scripts/dock_solv.prm

>  <Rbt.Receptor>
prm/pocket_docking_7.prm

>  <SCORE>
-10.8203

>  <SCORE.INTER>
-6.63572

>  <SCORE.INTER.CONST>
1

>  <SCORE.INTER.POLAR>
-1.40867

>  <SCORE.INTER.ROT>
9

>  <SCORE.INTER.SOLV>
15.0944

>  <SCORE.INTER.VDW>
-14.3597

>  <SCORE.INTER.norm>
-0.157993

>  <SCORE.INTRA>
-4.18453

>  <SCORE.INTRA.DIHEDRAL>
-10.2836

>  <SCORE.INTRA.DIHEDRAL.0>
27.8999

>  <SCORE.INTRA.POLAR>
0

>  <SCORE.INTRA.POLAR.0>
0

>  <SCORE.INTRA.REPUL>
0

>  <SCORE.INTRA.REPUL.0>
0

>  <SCORE.INTRA.SOLV>
-1.12551

>  <SCORE.INTRA.SOLV.lig_0>
-104.479

>  <SCORE.INTRA.VDW>
1.52003

>  <SCORE.INTRA.VDW.0>
-6.17816

>  <SCORE.INTRA.norm>
-0.0996317

>  <SCORE.RESTR>
0

>  <SCORE.RESTR.CAVITY>
0

>  <SCORE.RESTR.norm>
0

>  <SCORE.SYSTEM>
0

>  <SCORE.SYSTEM.CONST>
0

>  <SCORE.SYSTEM.DIHEDRAL>
0

>  <SCORE.SYSTEM.SOLV>
0

>  <SCORE.SYSTEM.norm>
0

>  <SCORE.heavy>
42

>  <SCORE.norm>
-0.257625

>  <RMSD>
5.309

$$$$
2o3w_lig
 OpenBabel11021811463D
libRbt.so/2013.1/901 2013/11/27
 42 45  0  0  0  0  0  0  0  0999 V2000
    8.6265    2.9189    4.4134 C   0  0  2  0  0  0  0  0  0  0  0  0
    8.8591    3.7013    3.2297 O   0  0  0  0  0  0  0  0  0  0  0  0
   10.7937    7.2241    4.8553 C   0  0  2  0  0  0  0  0  0  0  0  0
   11.6659    8.4251    5.0210 N   0  0  0  0  0  0  0  0  0  0  0  0
    7.8083    7.4564    1.5095 C   0  0  1  0  0  0  0  0  0  0  0  0
    5.8061   10.4100   -1.2465 C   0  0  1  0  0  0  0  0  0  0  0  0
    7.4200    1.9809    4.1090 C   0  0  2  0  0  0  0  0  0  0  0  0
    7.5787    1.2525    2.8382 N   0  0  0  0  0  0  0  0  0  0  0  0
   11.6540    5.9022    4.7355 C   0  0  0  0  0  0  0  0  0  0  0  0
    7.7442    7.4536   -0.0483 C   0  0  2  0  0  0  0  0  0  0  0  0
    8.9318    7.9824   -0.6879 O   0  0  0  0  0  0  0  0  0  0  0  0
    4.5027   10.8987   -0.5178 C   0  0  2  0  0  0  0  0  0  0  0  0
    3.7822    9.7523    0.1127 N   0  0  0  0  0  0  0  0  0  0  0  0
    6.0898    2.7510    4.0171 C   0  0  1  0  0  0  0  0  0  0  0  0
    5.0084    1.8489    3.7769 O   0  0  0  0  0  0  0  0  0  0  0  0
   10.6809    4.6720    4.5859 C   0  0  2  0  0  0  0  0  0  0  0  0
   11.4578    3.4071    4.4850 N   0  0  0  0  0  0  0  0  0  0  0  0
    6.4546    8.2385   -0.2939 C   0  0  2  0  0  0  0  0  0  0  0  0
    6.7132    9.6733   -0.4170 O   0  0  0  0  0  0  0  0  0  0  0  0
    3.5635   11.6607   -1.5687 C   0  0  1  0  0  0  0  0  0  0  0  0
    4.1421   12.9525   -1.8613 O   0  0  0  0  0  0  0  0  0  0  0  0
    5.8718    3.5604    5.3157 C   0  0  2  0  0  0  0  0  0  0  0  0
    4.6496    4.2583    5.2543 O   0  0  0  0  0  0  0  0  0  0  0  0
    9.7676    4.8366    3.3074 C   0  0  2  0  0  0  0  0  0  0  0  0
    5.5399    7.9380    0.9054 C   0  0  2  0  0  0  0  0  0  0  0  0
    6.4647    7.7281    1.9699 O   0  0  0  0  0  0  0  0  0  0  0  0
    3.3631   10.8421   -2.9315 C   0  0  2  0  0  0  0  0  0  0  0  0
    2.5683    9.6952   -2.6323 O   0  0  0  0  0  0  0  0  0  0  0  0
    7.0667    4.5534    5.5050 C   0  0  2  0  0  0  0  0  0  0  0  0
    8.3235    3.8066    5.5561 O   0  0  0  0  0  0  0  0  0  0  0  0
    8.9372    6.1386    3.3281 C   0  0  2  0  0  0  0  0  0  0  0  0
    8.3126    6.2142    2.0172 O   0  0  0  0  0  0  0  0  0  0  0  0
    4.6023    6.7040    0.7251 C   0  0  0  0  0  0  0  0  0  0  0  0
    3.8410    6.8621   -0.4683 O   0  0  0  0  0  0  0  0  0  0  0  0
    4.7544   10.4015   -3.5250 C   0  0  1  0  0  0  0  0  0  0  0  0
    5.4165    9.6114   -2.4726 O   0  0  0  0  0  0  0  0  0  0  0  0
    6.9383    5.3851    6.7602 C   0  0  0  0  0  0  0  0  0  0  0  0
    5.8121    6.2238    6.6730 O   0  0  0  0  0  0  0  0  0  0  0  0
    9.8823    7.3885    3.5735 C   0  0  1  0  0  0  0  0  0  0  0  0
    9.0993    8.5733    3.7436 O   0  0  0  0  0  0  0  0  0  0  0  0
    4.6472    9.5519   -4.8648 C   0  0  0  0  0  0  0  0  0  0  0  0
    3.8923    8.2732   -4.7558 N   0  0  0  0  0  0  0  0  0  0  0  0
  1  2  1  6  0  0  0
  1  7  1  0  0  0  0
  1 30  1  0  0  0  0
  3  4  1  6  0  0  0
  3  9  1  0  0  0  0
  3 39  1  0  0  0  0
  5 10  1  0  0  0  0
  5 26  1  0  0  0  0
  5 32  1  1  0  0  0
  6 12  1  0  0  0  0
  6 36  1  0  0  0  0
  6 19  1  1  0  0  0
  7  8  1  6  0  0  0
  7 14  1  0  0  0  0
  9 16  1  0  0  0  0
 10 11  1  6  0  0  0
 10 18  1  0  0  0  0
 12 13  1  6  0  0  0
 12 20  1  0  0  0  0
 14 15  1  1  0  0  0
 14 22  1  0  0  0  0
 16 17  1  6  0  0  0
 16 24  1  0  0  0  0
 18 19  1  1  0  0  0
 18 25  1  0  0  0  0
 20 21  1  6  0  0  0
 20 27  1  0  0  0  0
 22 23  1  6  0  0  0
 22 29  1  0  0  0  0
 24  2  1  1  0  0  0
 24 31  1  0  0  0  0
 25 26  1  0  0  0  0
 25 33  1  6  0  0  0
 27 28  1  1  0  0  0
 27 35  1  0  0  0  0
 29 30  1  0  0  0  0
 29 37  1  1  0  0  0
 31 32  1  6  0  0  0
 31 39  1  0  0  0  0
 33 34  1  0  0  0  0
 35 36  1  0  0  0  0
 35 41  1  6  0  0  0
 37 38  1  0  0  0  0
 39 40  1  1  0  0  0
 41 42  1  0  0  0  0
M  END
>  <CHROM.1>
168.76236447,156.17987331,85.48046388,150.75864481,18.96079059,-54.53848159
-64.50030713,-160.51832535,-60.08966987,6.84793305,6.89186722,1.75637855
1.09795657,0.45952044,2.48739764

>  <Name>
2o3w_lig

>  <RI>
0

>  <Rbt.Current_Directory>
/home/itssahil/PROJECTS/Mol_Feturizer/New_Systems/rnas/2o3w

>  <Rbt.Executable>
rbdock ($Id: //depot/dev/client3/rdock/2013.1/src/exe/rbdock.cxx#4 $)

>  <Rbt.Library>
libRbt.so (2013.1, Build901 2013/11/27)

>  <Rbt.Parameter_File>
/export/apps/rDock/src/rDock_2013.1_src/data/scripts/dock_solv.prm

>  <Rbt.Receptor>
prm/pocket_docking_8.prm

>  <SCORE>
-18.8864

>  <SCORE.INTER>
-19.0987

>  <SCORE.INTER.CONST>
1

>  <SCORE.INTER.POLAR>
-3.45558

>  <SCORE.INTER.ROT>
9

>  <SCORE.INTER.SOLV>
13.7998

>  <SCORE.INTER.VDW>
-15.4138

>  <SCORE.INTER.norm>
-0.454731

>  <SCORE.INTRA>
0.212322

>  <SCORE.INTRA.DIHEDRAL>
-11.1354

>  <SCORE.INTRA.DIHEDRAL.0>
27.8999

>  <SCORE.INTRA.POLAR>
0

>  <SCORE.INTRA.POLAR.0>
0

>  <SCORE.INTRA.REPUL>
0.032778

>  <SCORE.INTRA.REPUL.0>
0

>  <SCORE.INTRA.SOLV>
1.0013

>  <SCORE.INTRA.SOLV.lig_0>
-104.479

>  <SCORE.INTRA.VDW>
5.11549

>  <SCORE.INTRA.VDW.0>
-6.17816

>  <SCORE.INTRA.norm>
0.00505528

>  <SCORE.RESTR>
0

>  <SCORE.RESTR.CAVITY>
0

>  <SCORE.RESTR.norm>
0

>  <SCORE.SYSTEM>
0

>  <SCORE.SYSTEM.CONST>
0

>  <SCORE.SYSTEM.DIHEDRAL>
0

>  <SCORE.SYSTEM.SOLV>
0

>  <SCORE.SYSTEM.norm>
0

>  <SCORE.heavy>
42

>  <SCORE.norm>
-0.449676

>  <RMSD>
5.309

$$$$
2o3w_lig
 OpenBabel11021811463D
libRbt.so/2013.1/901 2013/11/27
 42 45  0  0  0  0  0  0  0  0999 V2000
   10.3950    1.0411    7.1977 C   0  0  2  0  0  0  0  0  0  0  0  0
    9.8341    0.6410    5.9357 O   0  0  0  0  0  0  0  0  0  0  0  0
    6.7640   -2.0926    4.5578 C   0  0  2  0  0  0  0  0  0  0  0  0
    5.4998   -2.8797    4.4455 N   0  0  0  0  0  0  0  0  0  0  0  0
    6.4585    2.4426    4.1590 C   0  0  1  0  0  0  0  0  0  0  0  0
    4.3378    5.8374    2.1007 C   0  0  1  0  0  0  0  0  0  0  0  0
    9.7087    2.3822    7.5959 C   0  0  2  0  0  0  0  0  0  0  0  0
    8.2401    2.3141    7.5006 N   0  0  0  0  0  0  0  0  0  0  0  0
    7.5756   -2.4920    5.8554 C   0  0  0  0  0  0  0  0  0  0  0  0
    6.1712    3.8734    4.7075 C   0  0  2  0  0  0  0  0  0  0  0  0
    5.0222    3.9477    5.5869 O   0  0  0  0  0  0  0  0  0  0  0  0
    2.8046    5.9622    1.7804 C   0  0  2  0  0  0  0  0  0  0  0  0
    2.2893    4.7134    1.1434 N   0  0  0  0  0  0  0  0  0  0  0  0
   10.1582    3.5554    6.7057 C   0  0  1  0  0  0  0  0  0  0  0  0
    9.5361    4.7691    7.1308 O   0  0  0  0  0  0  0  0  0  0  0  0
    8.9046   -1.6473    5.9062 C   0  0  2  0  0  0  0  0  0  0  0  0
    9.7017   -2.0087    7.1094 N   0  0  0  0  0  0  0  0  0  0  0  0
    6.0637    4.6735    3.4084 C   0  0  2  0  0  0  0  0  0  0  0  0
    4.6885    4.7080    2.9101 O   0  0  0  0  0  0  0  0  0  0  0  0
    2.5638    7.2325    0.8342 C   0  0  1  0  0  0  0  0  0  0  0  0
    2.7168    8.4360    1.6198 O   0  0  0  0  0  0  0  0  0  0  0  0
   11.6994    3.6687    6.7412 C   0  0  2  0  0  0  0  0  0  0  0  0
   12.1260    4.7490    5.9442 O   0  0  0  0  0  0  0  0  0  0  0  0
    8.5812   -0.1011    5.9293 C   0  0  2  0  0  0  0  0  0  0  0  0
    7.0027    3.9824    2.4054 C   0  0  2  0  0  0  0  0  0  0  0  0
    6.9606    2.6173    2.8142 O   0  0  0  0  0  0  0  0  0  0  0  0
    3.5666    7.2767   -0.4148 C   0  0  2  0  0  0  0  0  0  0  0  0
    3.2105    6.2084   -1.2914 O   0  0  0  0  0  0  0  0  0  0  0  0
   12.3218    2.3260    6.2321 C   0  0  2  0  0  0  0  0  0  0  0  0
   11.8569    1.2198    7.0687 O   0  0  0  0  0  0  0  0  0  0  0  0
    7.7394    0.3529    4.7167 C   0  0  2  0  0  0  0  0  0  0  0  0
    7.3848    1.7356    4.9940 O   0  0  0  0  0  0  0  0  0  0  0  0
    8.4671    4.5206    2.3962 C   0  0  0  0  0  0  0  0  0  0  0  0
    9.2325    3.7858    1.4460 O   0  0  0  0  0  0  0  0  0  0  0  0
    5.0587    7.1145    0.0643 C   0  0  1  0  0  0  0  0  0  0  0  0
    5.1155    5.8403    0.8015 O   0  0  0  0  0  0  0  0  0  0  0  0
   13.8329    2.3458    6.2395 C   0  0  0  0  0  0  0  0  0  0  0  0
   14.3362    1.0765    5.9006 O   0  0  0  0  0  0  0  0  0  0  0  0
    6.4389   -0.5453    4.5841 C   0  0  1  0  0  0  0  0  0  0  0  0
    5.7393   -0.2256    3.3782 O   0  0  0  0  0  0  0  0  0  0  0  0
    6.1220    7.1134   -1.1180 C   0  0  0  0  0  0  0  0  0  0  0  0
    7.5498    7.0760   -0.6977 N   0  0  0  0  0  0  0  0  0  0  0  0
  1  2  1  6  0  0  0
  1  7  1  0  0  0  0
  1 30  1  0  0  0  0
  3  4  1  1  0  0  0
  3  9  1  0  0  0  0
  3 39  1  0  0  0  0
  5 10  1  0  0  0  0
  5 26  1  0  0  0  0
  5 32  1  1  0  0  0
  6 12  1  0  0  0  0
  6 36  1  0  0  0  0
  6 19  1  6  0  0  0
  7  8  1  6  0  0  0
  7 14  1  0  0  0  0
  9 16  1  0  0  0  0
 10 11  1  6  0  0  0
 10 18  1  0  0  0  0
 12 13  1  6  0  0  0
 12 20  1  0  0  0  0
 14 15  1  1  0  0  0
 14 22  1  0  0  0  0
 16 17  1  1  0  0  0
 16 24  1  0  0  0  0
 18 19  1  6  0  0  0
 18 25  1  0  0  0  0
 20 21  1  1  0  0  0
 20 27  1  0  0  0  0
 22 23  1  6  0  0  0
 22 29  1  0  0  0  0
 24  2  1  6  0  0  0
 24 31  1  0  0  0  0
 25 26  1  0  0  0  0
 25 33  1  1  0  0  0
 27 28  1  6  0  0  0
 27 35  1  0  0  0  0
 29 30  1  0  0  0  0
 29 37  1  1  0  0  0
 31 32  1  1  0  0  0
 31 39  1  0  0  0  0
 33 34  1  0  0  0  0
 35 36  1  0  0  0  0
 35 41  1  6  0  0  0
 37 38  1  0  0  0  0
 39 40  1  6  0  0  0
 41 42  1  0  0  0  0
M  END
>  <CHROM.1>
-84.54248102,176.41857238,-170.50290172,153.51074985,-93.45878514,179.03574697
174.21079471,-172.15231028,175.12220678,7.49026432,3.06074271,3.94946537
-0.82160998,-0.43346639,-0.41747861

>  <Name>
2o3w_lig

>  <RI>
0

>  <Rbt.Current_Directory>
/home/itssahil/PROJECTS/Mol_Feturizer/New_Systems/rnas/2o3w

>  <Rbt.Executable>
rbdock ($Id: //depot/dev/client3/rdock/2013.1/src/exe/rbdock.cxx#4 $)

>  <Rbt.Library>
libRbt.so (2013.1, Build901 2013/11/27)

>  <Rbt.Parameter_File>
/export/apps/rDock/src/rDock_2013.1_src/data/scripts/dock_solv.prm

>  <Rbt.Receptor>
prm/pocket_docking_3.prm

>  <SCORE>
-6.89823

>  <SCORE.INTER>
1.03133

>  <SCORE.INTER.CONST>
1

>  <SCORE.INTER.POLAR>
0

>  <SCORE.INTER.ROT>
9

>  <SCORE.INTER.SOLV>
6.74828

>  <SCORE.INTER.VDW>
-11.1619

>  <SCORE.INTER.norm>
0.0245556

>  <SCORE.INTRA>
-7.92956

>  <SCORE.INTRA.DIHEDRAL>
-17.0282

>  <SCORE.INTRA.DIHEDRAL.0>
27.8999

>  <SCORE.INTRA.POLAR>
0

>  <SCORE.INTRA.POLAR.0>
0

>  <SCORE.INTRA.REPUL>
0

>  <SCORE.INTRA.REPUL.0>
0

>  <SCORE.INTRA.SOLV>
-1.87179

>  <SCORE.INTRA.SOLV.lig_0>
-104.479

>  <SCORE.INTRA.VDW>
1.52045

>  <SCORE.INTRA.VDW.0>
-6.17816

>  <SCORE.INTRA.norm>
-0.188799

>  <SCORE.RESTR>
0

>  <SCORE.RESTR.CAVITY>
0

>  <SCORE.RESTR.norm>
0

>  <SCORE.SYSTEM>
0

>  <SCORE.SYSTEM.CONST>
0

>  <SCORE.SYSTEM.DIHEDRAL>
0

>  <SCORE.SYSTEM.SOLV>
0

>  <SCORE.SYSTEM.norm>
0

>  <SCORE.heavy>
42

>  <SCORE.norm>
-0.164244

>  <RMSD>
5.328

$$$$
2o3w_lig
 OpenBabel11021811463D
libRbt.so/2013.1/901 2013/11/27
 42 45  0  0  0  0  0  0  0  0999 V2000
    9.9654   -2.1738    5.3287 C   0  0  2  0  0  0  0  0  0  0  0  0
    8.9123   -1.7223    6.1974 O   0  0  0  0  0  0  0  0  0  0  0  0
    5.5842   -2.4382    3.5128 C   0  0  2  0  0  0  0  0  0  0  0  0
    4.2068   -2.5701    2.9507 N   0  0  0  0  0  0  0  0  0  0  0  0
    7.2764    1.7485    4.7047 C   0  0  1  0  0  0  0  0  0  0  0  0
    7.4423    5.9372    3.6174 C   0  0  1  0  0  0  0  0  0  0  0  0
   11.2935   -2.0839    6.1388 C   0  0  2  0  0  0  0  0  0  0  0  0
   11.1904   -2.7212    7.4630 N   0  0  0  0  0  0  0  0  0  0  0  0
    5.8353   -3.4882    4.6688 C   0  0  0  0  0  0  0  0  0  0  0  0
    6.3850    2.7881    5.4501 C   0  0  2  0  0  0  0  0  0  0  0  0
    5.0029    2.7984    5.0156 O   0  0  0  0  0  0  0  0  0  0  0  0
    6.9119    7.2507    4.2972 C   0  0  2  0  0  0  0  0  0  0  0  0
    5.4557    7.4416    4.0251 N   0  0  0  0  0  0  0  0  0  0  0  0
   11.7340   -0.6281    6.3789 C   0  0  1  0  0  0  0  0  0  0  0  0
   12.9733   -0.5942    7.0887 O   0  0  0  0  0  0  0  0  0  0  0  0
    7.3070   -3.3153    5.2044 C   0  0  2  0  0  0  0  0  0  0  0  0
    7.5830   -4.2993    6.2856 N   0  0  0  0  0  0  0  0  0  0  0  0
    7.1662    4.0798    5.2041 C   0  0  2  0  0  0  0  0  0  0  0  0
    6.7285    4.7481    3.9783 O   0  0  0  0  0  0  0  0  0  0  0  0
    7.7645    8.5004    3.7698 C   0  0  1  0  0  0  0  0  0  0  0  0
    9.0759    8.4604    4.3761 O   0  0  0  0  0  0  0  0  0  0  0  0
   11.8391    0.1089    5.0243 C   0  0  2  0  0  0  0  0  0  0  0  0
   12.2577    1.4388    5.2256 O   0  0  0  0  0  0  0  0  0  0  0  0
    7.5323   -1.8502    5.7508 C   0  0  2  0  0  0  0  0  0  0  0  0
    8.6463    3.6708    5.1177 C   0  0  2  0  0  0  0  0  0  0  0  0
    8.5842    2.3525    4.5786 O   0  0  0  0  0  0  0  0  0  0  0  0
    7.9121    8.5239    2.1745 C   0  0  2  0  0  0  0  0  0  0  0  0
    6.6270    8.8162    1.6271 O   0  0  0  0  0  0  0  0  0  0  0  0
   10.4459    0.0695    4.3123 C   0  0  2  0  0  0  0  0  0  0  0  0
   10.0291   -1.3199    4.1234 O   0  0  0  0  0  0  0  0  0  0  0  0
    7.2497   -0.7649    4.6889 C   0  0  2  0  0  0  0  0  0  0  0  0
    7.3238    0.4985    5.4049 O   0  0  0  0  0  0  0  0  0  0  0  0
    9.4137    3.6861    6.4761 C   0  0  0  0  0  0  0  0  0  0  0  0
    8.8628    2.6956    7.3388 O   0  0  0  0  0  0  0  0  0  0  0  0
    8.4275    7.1331    1.6433 C   0  0  1  0  0  0  0  0  0  0  0  0
    7.4575    6.1298    2.1155 O   0  0  0  0  0  0  0  0  0  0  0  0
   10.4586    0.7650    2.9707 C   0  0  0  0  0  0  0  0  0  0  0  0
    9.1700    0.7537    2.4064 O   0  0  0  0  0  0  0  0  0  0  0  0
    5.8075   -0.9723    4.0623 C   0  0  1  0  0  0  0  0  0  0  0  0
    5.6059   -0.0636    2.9764 O   0  0  0  0  0  0  0  0  0  0  0  0
    8.5711    7.0568    0.0615 C   0  0  0  0  0  0  0  0  0  0  0  0
    7.3056    7.2149   -0.7067 N   0  0  0  0  0  0  0  0  0  0  0  0
  1  2  1  1  0  0  0
  1  7  1  0  0  0  0
  1 30  1  0  0  0  0
  3  4  1  1  0  0  0
  3  9  1  0  0  0  0
  3 39  1  0  0  0  0
  5 10  1  0  0  0  0
  5 26  1  0  0  0  0
  5 32  1  1  0  0  0
  6 12  1  0  0  0  0
  6 36  1  0  0  0  0
  6 19  1  6  0  0  0
  7  8  1  1  0  0  0
  7 14  1  0  0  0  0
  9 16  1  0  0  0  0
 10 11  1  6  0  0  0
 10 18  1  0  0  0  0
 12 13  1  6  0  0  0
 12 20  1  0  0  0  0
 14 15  1  6  0  0  0
 14 22  1  0  0  0  0
 16 17  1  1  0  0  0
 16 24  1  0  0  0  0
 18 19  1  6  0  0  0
 18 25  1  0  0  0  0
 20 21  1  1  0  0  0
 20 27  1  0  0  0  0
 22 23  1  1  0  0  0
 22 29  1  0  0  0  0
 24  2  1  6  0  0  0
 24 31  1  0  0  0  0
 25 26  1  0  0  0  0
 25 33  1  1  0  0  0
 27 28  1  6  0  0  0
 27 35  1  0  0  0  0
 29 30  1  0  0  0  0
 29 37  1  6  0  0  0
 31 32  1  1  0  0  0
 31 39  1  0  0  0  0
 33 34  1  0  0  0  0
 35 36  1  0  0  0  0
 35 41  1  6  0  0  0
 37 38  1  0  0  0  0
 39 40  1  6  0  0  0
 41 42  1  0  0  0  0
M  END
>  <CHROM.1>
-172.78695371,138.44666113,-85.54957205,-177.03064486,48.38936671,65.07963809
-177.24504199,172.21787144,-63.04199588,8.23290169,2.01938473,4.35660001
-1.41682967,-0.38016911,-0.23278570

>  <Name>
2o3w_lig

>  <RI>
0

>  <Rbt.Current_Directory>
/home/itssahil/PROJECTS/Mol_Feturizer/New_Systems/rnas/2o3w

>  <Rbt.Executable>
rbdock ($Id: //depot/dev/client3/rdock/2013.1/src/exe/rbdock.cxx#4 $)

>  <Rbt.Library>
libRbt.so (2013.1, Build901 2013/11/27)

>  <Rbt.Parameter_File>
/export/apps/rDock/src/rDock_2013.1_src/data/scripts/dock_solv.prm

>  <Rbt.Receptor>
prm/pocket_docking_3.prm

>  <SCORE>
-12.7065

>  <SCORE.INTER>
-3.43959

>  <SCORE.INTER.CONST>
1

>  <SCORE.INTER.POLAR>
-0.390497

>  <SCORE.INTER.ROT>
9

>  <SCORE.INTER.SOLV>
7.68958

>  <SCORE.INTER.VDW>
-13.1546

>  <SCORE.INTER.norm>
-0.081895

>  <SCORE.INTRA>
-9.29718

>  <SCORE.INTRA.DIHEDRAL>
-18.0039

>  <SCORE.INTRA.DIHEDRAL.0>
27.8999

>  <SCORE.INTRA.POLAR>
0

>  <SCORE.INTRA.POLAR.0>
0

>  <SCORE.INTRA.REPUL>
0

>  <SCORE.INTRA.REPUL.0>
0

>  <SCORE.INTRA.SOLV>
-1.43585

>  <SCORE.INTRA.SOLV.lig_0>
-104.479

>  <SCORE.INTRA.VDW>
0.422693

>  <SCORE.INTRA.VDW.0>
-6.17816

>  <SCORE.INTRA.norm>
-0.221362

>  <SCORE.RESTR>
0.0302465

>  <SCORE.RESTR.CAVITY>
0.0302465

>  <SCORE.RESTR.norm>
0.000720155

>  <SCORE.SYSTEM>
0

>  <SCORE.SYSTEM.CONST>
0

>  <SCORE.SYSTEM.DIHEDRAL>
0

>  <SCORE.SYSTEM.SOLV>
0

>  <SCORE.SYSTEM.norm>
0

>  <SCORE.heavy>
42

>  <SCORE.norm>
-0.302536

>  <RMSD>
5.357

$$$$
2o3w_lig
 OpenBabel11021811463D
libRbt.so/2013.1/901 2013/11/27
 42 45  0  0  0  0  0  0  0  0999 V2000
    9.8254    1.1920    5.1432 C   0  0  2  0  0  0  0  0  0  0  0  0
    8.6792    0.7981    5.9167 O   0  0  0  0  0  0  0  0  0  0  0  0
    6.9544   -2.0108    3.1005 C   0  0  2  0  0  0  0  0  0  0  0  0
    6.0006   -2.9082    2.3826 N   0  0  0  0  0  0  0  0  0  0  0  0
    6.1844    2.5275    3.0357 C   0  0  1  0  0  0  0  0  0  0  0  0
    4.5309    6.1960    1.3501 C   0  0  1  0  0  0  0  0  0  0  0  0
   11.0640    0.4880    5.7742 C   0  0  2  0  0  0  0  0  0  0  0  0
   10.8496   -0.9554    5.9770 N   0  0  0  0  0  0  0  0  0  0  0  0
    7.2200   -2.5176    4.5751 C   0  0  0  0  0  0  0  0  0  0  0  0
    5.8944    3.9964    3.4704 C   0  0  2  0  0  0  0  0  0  0  0  0
    4.5308    4.2244    3.9037 O   0  0  0  0  0  0  0  0  0  0  0  0
    3.2116    6.2612    0.4992 C   0  0  2  0  0  0  0  0  0  0  0  0
    3.4801    5.9144   -0.9286 N   0  0  0  0  0  0  0  0  0  0  0  0
   11.4362    1.0794    7.1463 C   0  0  1  0  0  0  0  0  0  0  0  0
   12.5980    0.4324    7.6682 O   0  0  0  0  0  0  0  0  0  0  0  0
    8.2472   -1.5466    5.2711 C   0  0  2  0  0  0  0  0  0  0  0  0
    8.5319   -2.0026    6.6584 N   0  0  0  0  0  0  0  0  0  0  0  0
    6.3306    4.7669    2.2233 C   0  0  2  0  0  0  0  0  0  0  0  0
    5.2223    4.9425    1.2843 O   0  0  0  0  0  0  0  0  0  0  0  0
    2.5728    7.7250    0.6255 C   0  0  1  0  0  0  0  0  0  0  0  0
    1.9872    7.8674    1.9392 O   0  0  0  0  0  0  0  0  0  0  0  0
   11.6526    2.6037    7.0092 C   0  0  2  0  0  0  0  0  0  0  0  0
   12.0105    3.1578    8.2539 O   0  0  0  0  0  0  0  0  0  0  0  0
    7.6846   -0.0707    5.3032 C   0  0  2  0  0  0  0  0  0  0  0  0
    7.4693    3.9465    1.5942 C   0  0  2  0  0  0  0  0  0  0  0  0
    7.1325    2.6068    1.9467 O   0  0  0  0  0  0  0  0  0  0  0  0
    3.6428    8.8934    0.3862 C   0  0  2  0  0  0  0  0  0  0  0  0
    4.0059    8.8692   -0.9936 O   0  0  0  0  0  0  0  0  0  0  0  0
   10.3381    3.2595    6.4693 C   0  0  2  0  0  0  0  0  0  0  0  0
    9.9826    2.6615    5.1825 O   0  0  0  0  0  0  0  0  0  0  0  0
    7.3479    0.4726    3.8973 C   0  0  2  0  0  0  0  0  0  0  0  0
    6.6813    1.7441    4.1286 O   0  0  0  0  0  0  0  0  0  0  0  0
    8.9004    4.3156    2.0942 C   0  0  0  0  0  0  0  0  0  0  0  0
    8.8690    4.5157    3.5041 O   0  0  0  0  0  0  0  0  0  0  0  0
    4.9155    8.6751    1.2889 C   0  0  1  0  0  0  0  0  0  0  0  0
    5.4364    7.3405    0.9459 O   0  0  0  0  0  0  0  0  0  0  0  0
   10.4627    4.7558    6.2978 C   0  0  0  0  0  0  0  0  0  0  0  0
   11.5480    5.0586    5.4555 O   0  0  0  0  0  0  0  0  0  0  0  0
    6.3888   -0.5345    3.1348 C   0  0  1  0  0  0  0  0  0  0  0  0
    6.1996   -0.1079    1.7828 O   0  0  0  0  0  0  0  0  0  0  0  0
    6.0470    9.7745    1.0898 C   0  0  0  0  0  0  0  0  0  0  0  0
    6.6767    9.8112   -0.2588 N   0  0  0  0  0  0  0  0  0  0  0  0
  1  2  1  1  0  0  0
  1  7  1  0  0  0  0
  1 30  1  0  0  0  0
  3  4  1  1  0  0  0
  3  9  1  0  0  0  0
  3 39  1  0  0  0  0
  5 10  1  0  0  0  0
  5 26  1  0  0  0  0
  5 32  1  1  0  0  0
  6 12  1  0  0  0  0
  6 36  1  0  0  0  0
  6 19  1  6  0  0  0
  7  8  1  1  0  0  0
  7 14  1  0  0  0  0
  9 16  1  0  0  0  0
 10 11  1  6  0  0  0
 10 18  1  0  0  0  0
 12 13  1  6  0  0  0
 12 20  1  0  0  0  0
 14 15  1  6  0  0  0
 14 22  1  0  0  0  0
 16 17  1  1  0  0  0
 16 24  1  0  0  0  0
 18 19  1  6  0  0  0
 18 25  1  0  0  0  0
 20 21  1  1  0  0  0
 20 27  1  0  0  0  0
 22 23  1  1  0  0  0
 22 29  1  0  0  0  0
 24  2  1  6  0  0  0
 24 31  1  0  0  0  0
 25 26  1  0  0  0  0
 25 33  1  1  0  0  0
 27 28  1  6  0  0  0
 27 35  1  0  0  0  0
 29 30  1  0  0  0  0
 29 37  1  6  0  0  0
 31 32  1  1  0  0  0
 31 39  1  0  0  0  0
 33 34  1  0  0  0  0
 35 36  1  0  0  0  0
 35 41  1  6  0  0  0
 37 38  1  0  0  0  0
 39 40  1  6  0  0  0
 41 42  1  0  0  0  0
M  END
>  <CHROM.1>
-111.22228697,-163.50053621,-170.53197367,97.12214303,76.46449277,42.05127230
56.05405138,-178.20548310,-64.37044252,7.36430125,3.32546765,3.47154065,-0.87363948
-0.63211409,-0.16068971

>  <Name>
2o3w_lig

>  <RI>
0

>  <Rbt.Current_Directory>
/home/itssahil/PROJECTS/Mol_Feturizer/New_Systems/rnas/2o3w

>  <Rbt.Executable>
rbdock ($Id: //depot/dev/client3/rdock/2013.1/src/exe/rbdock.cxx#4 $)

>  <Rbt.Library>
libRbt.so (2013.1, Build901 2013/11/27)

>  <Rbt.Parameter_File>
/export/apps/rDock/src/rDock_2013.1_src/data/scripts/dock_solv.prm

>  <Rbt.Receptor>
prm/pocket_docking_2.prm

>  <SCORE>
-3.37981

>  <SCORE.INTER>
-2.4994

>  <SCORE.INTER.CONST>
1

>  <SCORE.INTER.POLAR>
-0.97824

>  <SCORE.INTER.ROT>
9

>  <SCORE.INTER.SOLV>
8.08792

>  <SCORE.INTER.VDW>
-10.7014

>  <SCORE.INTER.norm>
-0.0595094

>  <SCORE.INTRA>
-2.76183

>  <SCORE.INTRA.DIHEDRAL>
-11.8703

>  <SCORE.INTRA.DIHEDRAL.0>
27.8999

>  <SCORE.INTRA.POLAR>
0

>  <SCORE.INTRA.POLAR.0>
0

>  <SCORE.INTRA.REPUL>
0.00602607

>  <SCORE.INTRA.REPUL.0>
0

>  <SCORE.INTRA.SOLV>
1.78049

>  <SCORE.INTRA.SOLV.lig_0>
-104.479

>  <SCORE.INTRA.VDW>
2.25295

>  <SCORE.INTRA.VDW.0>
-6.17816

>  <SCORE.INTRA.norm>
-0.0657577

>  <SCORE.RESTR>
1.88141

>  <SCORE.RESTR.CAVITY>
1.88141

>  <SCORE.RESTR.norm>
0.0447955

>  <SCORE.SYSTEM>
0

>  <SCORE.SYSTEM.CONST>
0

>  <SCORE.SYSTEM.DIHEDRAL>
0

>  <SCORE.SYSTEM.SOLV>
0

>  <SCORE.SYSTEM.norm>
0

>  <SCORE.heavy>
42

>  <SCORE.norm>
-0.0804717

>  <RMSD>
5.393

$$$$
2o3w_lig
 OpenBabel11021811463D
libRbt.so/2013.1/901 2013/11/27
 42 45  0  0  0  0  0  0  0  0999 V2000
   10.0691    0.7901    5.0455 C   0  0  2  0  0  0  0  0  0  0  0  0
    8.8866    0.8410    5.8618 O   0  0  0  0  0  0  0  0  0  0  0  0
    6.3811   -1.7126    3.4128 C   0  0  2  0  0  0  0  0  0  0  0  0
    5.2062   -2.4413    2.8481 N   0  0  0  0  0  0  0  0  0  0  0  0
    6.7191    2.9500    3.0941 C   0  0  1  0  0  0  0  0  0  0  0  0
    5.0928    6.5215    1.4197 C   0  0  1  0  0  0  0  0  0  0  0  0
   11.1431   -0.0027    5.8492 C   0  0  2  0  0  0  0  0  0  0  0  0
   10.6274   -1.2802    6.3713 N   0  0  0  0  0  0  0  0  0  0  0  0
    6.6974   -2.1890    4.8875 C   0  0  0  0  0  0  0  0  0  0  0  0
    6.1361    4.3211    3.5534 C   0  0  2  0  0  0  0  0  0  0  0  0
    4.6888    4.3831    3.5318 O   0  0  0  0  0  0  0  0  0  0  0  0
    3.6195    6.0111    1.2253 C   0  0  2  0  0  0  0  0  0  0  0  0
    3.4852    5.2411   -0.0475 N   0  0  0  0  0  0  0  0  0  0  0  0
   11.6720    0.7908    7.0581 C   0  0  1  0  0  0  0  0  0  0  0  0
   12.6804    0.0438    7.7408 O   0  0  0  0  0  0  0  0  0  0  0  0
    7.9557   -1.4036    5.4187 C   0  0  2  0  0  0  0  0  0  0  0  0
    8.2911   -1.8382    6.8016 N   0  0  0  0  0  0  0  0  0  0  0  0
    6.8544    5.2820    2.6046 C   0  0  2  0  0  0  0  0  0  0  0  0
    6.0911    5.4944    1.3746 O   0  0  0  0  0  0  0  0  0  0  0  0
    2.6191    7.2623    1.2494 C   0  0  1  0  0  0  0  0  0  0  0  0
    2.5021    7.7409    2.6081 O   0  0  0  0  0  0  0  0  0  0  0  0
   12.2090    2.1596    6.5815 C   0  0  2  0  0  0  0  0  0  0  0  0
   12.7124    2.8918    7.6747 O   0  0  0  0  0  0  0  0  0  0  0  0
    7.6880    0.1533    5.4027 C   0  0  2  0  0  0  0  0  0  0  0  0
    8.2218    4.6433    2.3087 C   0  0  2  0  0  0  0  0  0  0  0  0
    7.9490    3.2466    2.3937 O   0  0  0  0  0  0  0  0  0  0  0  0
    3.0978    8.4599    0.2985 C   0  0  2  0  0  0  0  0  0  0  0  0
    2.9575    8.0204   -1.0519 O   0  0  0  0  0  0  0  0  0  0  0  0
   11.0530    2.9439    5.8758 C   0  0  2  0  0  0  0  0  0  0  0  0
   10.5413    2.1600    4.7517 O   0  0  0  0  0  0  0  0  0  0  0  0
    7.3163    0.6827    4.0002 C   0  0  2  0  0  0  0  0  0  0  0  0
    6.9291    2.0692    4.2054 O   0  0  0  0  0  0  0  0  0  0  0  0
    9.3652    5.0525    3.2882 C   0  0  0  0  0  0  0  0  0  0  0  0
   10.5698    5.2423    2.5522 O   0  0  0  0  0  0  0  0  0  0  0  0
    4.5978    8.8395    0.5953 C   0  0  1  0  0  0  0  0  0  0  0  0
    5.3784    7.6052    0.4014 O   0  0  0  0  0  0  0  0  0  0  0  0
   11.4934    4.2981    5.3699 C   0  0  0  0  0  0  0  0  0  0  0  0
   11.7045    5.1741    6.4504 O   0  0  0  0  0  0  0  0  0  0  0  0
    6.1108   -0.1547    3.3991 C   0  0  1  0  0  0  0  0  0  0  0  0
    5.8668    0.2343    2.0446 O   0  0  0  0  0  0  0  0  0  0  0  0
    5.1672   10.0009   -0.3297 C   0  0  0  0  0  0  0  0  0  0  0  0
    6.6352   10.2321   -0.2399 N   0  0  0  0  0  0  0  0  0  0  0  0
  1  2  1  1  0  0  0
  1  7  1  0  0  0  0
  1 30  1  0  0  0  0
  3  4  1  1  0  0  0
  3  9  1  0  0  0  0
  3 39  1  0  0  0  0
  5 10  1  0  0  0  0
  5 26  1  0  0  0  0
  5 32  1  1  0  0  0
  6 12  1  0  0  0  0
  6 36  1  0  0  0  0
  6 19  1  6  0  0  0
  7  8  1  1  0  0  0
  7 14  1  0  0  0  0
  9 16  1  0  0  0  0
 10 11  1  6  0  0  0
 10 18  1  0  0  0  0
 12 13  1  6  0  0  0
 12 20  1  0  0  0  0
 14 15  1  6  0  0  0
 14 22  1  0  0  0  0
 16 17  1  1  0  0  0
 16 24  1  0  0  0  0
 18 19  1  6  0  0  0
 18 25  1  0  0  0  0
 20 21  1  1  0  0  0
 20 27  1  0  0  0  0
 22 23  1  1  0  0  0
 22 29  1  0  0  0  0
 24  2  1  6  0  0  0
 24 31  1  0  0  0  0
 25 26  1  0  0  0  0
 25 33  1  1  0  0  0
 27 28  1  6  0  0  0
 27 35  1  0  0  0  0
 29 30  1  0  0  0  0
 29 37  1  6  0  0  0
 31 32  1  1  0  0  0
 31 39  1  0  0  0  0
 33 34  1  0  0  0  0
 35 36  1  0  0  0  0
 35 41  1  6  0  0  0
 37 38  1  0  0  0  0
 39 40  1  6  0  0  0
 41 42  1  0  0  0  0
M  END
>  <CHROM.1>
-114.61496539,172.64787585,-116.35864630,85.97484216,67.03624380,-140.11516798
-71.30377730,170.06797562,-170.17075749,7.52107226,3.38751458,3.52263573
-0.91389744,-0.48896602,-0.28608465

>  <Name>
2o3w_lig

>  <RI>
0

>  <Rbt.Current_Directory>
/home/itssahil/PROJECTS/Mol_Feturizer/New_Systems/rnas/2o3w

>  <Rbt.Executable>
rbdock ($Id: //depot/dev/client3/rdock/2013.1/src/exe/rbdock.cxx#4 $)

>  <Rbt.Library>
libRbt.so (2013.1, Build901 2013/11/27)

>  <Rbt.Parameter_File>
/export/apps/rDock/src/rDock_2013.1_src/data/scripts/dock_solv.prm

>  <Rbt.Receptor>
prm/pocket_docking_2.prm

>  <SCORE>
0.377683

>  <SCORE.INTER>
-2.07091

>  <SCORE.INTER.CONST>
1

>  <SCORE.INTER.POLAR>
-1

>  <SCORE.INTER.ROT>
9

>  <SCORE.INTER.SOLV>
10.9966

>  <SCORE.INTER.VDW>
-11.3128

>  <SCORE.INTER.norm>
-0.0493073

>  <SCORE.INTRA>
0.376095

>  <SCORE.INTRA.DIHEDRAL>
-5.18802

>  <SCORE.INTRA.DIHEDRAL.0>
27.8999

>  <SCORE.INTRA.POLAR>
0

>  <SCORE.INTRA.POLAR.0>
0

>  <SCORE.INTRA.REPUL>
0

>  <SCORE.INTRA.REPUL.0>
0

>  <SCORE.INTRA.SOLV>
-0.288441

>  <SCORE.INTRA.SOLV.lig_0>
-104.479

>  <SCORE.INTRA.VDW>
3.11433

>  <SCORE.INTRA.VDW.0>
-6.17816

>  <SCORE.INTRA.norm>
0.00895463

>  <SCORE.RESTR>
2.0725

>  <SCORE.RESTR.CAVITY>
2.0725

>  <SCORE.RESTR.norm>
0.0493451

>  <SCORE.SYSTEM>
0

>  <SCORE.SYSTEM.CONST>
0

>  <SCORE.SYSTEM.DIHEDRAL>
0

>  <SCORE.SYSTEM.SOLV>
0

>  <SCORE.SYSTEM.norm>
0

>  <SCORE.heavy>
42

>  <SCORE.norm>
0.00899245

>  <RMSD>
5.408

$$$$
2o3w_lig
 OpenBabel11021811463D
libRbt.so/2013.1/901 2013/11/27
 42 45  0  0  0  0  0  0  0  0999 V2000
    9.8059    4.6215    4.9502 C   0  0  2  0  0  0  0  0  0  0  0  0
    9.7408    3.2788    4.4400 O   0  0  0  0  0  0  0  0  0  0  0  0
    6.7676    0.3255    3.3291 C   0  0  2  0  0  0  0  0  0  0  0  0
    5.4891   -0.3280    2.9181 N   0  0  0  0  0  0  0  0  0  0  0  0
    7.8671    4.4261    1.8021 C   0  0  1  0  0  0  0  0  0  0  0  0
    5.2424    7.7544    0.6510 C   0  0  1  0  0  0  0  0  0  0  0  0
   11.3150    4.9932    5.0616 C   0  0  2  0  0  0  0  0  0  0  0  0
   12.0598    4.7040    3.8237 N   0  0  0  0  0  0  0  0  0  0  0  0
    6.6341    1.0041    4.7516 C   0  0  0  0  0  0  0  0  0  0  0  0
    8.3131    5.5334    0.7992 C   0  0  2  0  0  0  0  0  0  0  0  0
    9.1769    6.5412    1.3799 O   0  0  0  0  0  0  0  0  0  0  0  0
    4.8425    9.0603    1.4280 C   0  0  2  0  0  0  0  0  0  0  0  0
    4.7458    8.7994    2.8954 N   0  0  0  0  0  0  0  0  0  0  0  0
   12.0230    4.2288    6.1953 C   0  0  1  0  0  0  0  0  0  0  0  0
   13.3913    4.6292    6.2864 O   0  0  0  0  0  0  0  0  0  0  0  0
    8.0160    1.6544    5.1384 C   0  0  2  0  0  0  0  0  0  0  0  0
    7.9307    2.2909    6.4805 N   0  0  0  0  0  0  0  0  0  0  0  0
    6.9610    6.0342    0.2891 C   0  0  2  0  0  0  0  0  0  0  0  0
    6.4515    7.1350    1.1072 O   0  0  0  0  0  0  0  0  0  0  0  0
    3.4555    9.6158    0.8496 C   0  0  1  0  0  0  0  0  0  0  0  0
    3.6930   10.2039   -0.4491 O   0  0  0  0  0  0  0  0  0  0  0  0
   11.2745    4.4705    7.5259 C   0  0  2  0  0  0  0  0  0  0  0  0
   11.9200    3.7908    8.5774 O   0  0  0  0  0  0  0  0  0  0  0  0
    8.4434    2.7332    4.0663 C   0  0  2  0  0  0  0  0  0  0  0  0
    6.0150    4.8223    0.3340 C   0  0  2  0  0  0  0  0  0  0  0  0
    6.5171    4.0636    1.4316 O   0  0  0  0  0  0  0  0  0  0  0  0
    2.3332    8.4789    0.7260 C   0  0  2  0  0  0  0  0  0  0  0  0
    1.9505    8.1055    2.0491 O   0  0  0  0  0  0  0  0  0  0  0  0
    9.7956    3.9805    7.3761 C   0  0  2  0  0  0  0  0  0  0  0  0
    9.1506    4.6932    6.2735 O   0  0  0  0  0  0  0  0  0  0  0  0
    8.5396    2.1530    2.6383 C   0  0  2  0  0  0  0  0  0  0  0  0
    8.7557    3.3015    1.7730 O   0  0  0  0  0  0  0  0  0  0  0  0
    5.9793    3.9666   -0.9702 C   0  0  0  0  0  0  0  0  0  0  0  0
    5.1047    2.8582   -0.7817 O   0  0  0  0  0  0  0  0  0  0  0  0
    2.8918    7.2288   -0.0533 C   0  0  1  0  0  0  0  0  0  0  0  0
    4.0825    6.7817    0.6901 O   0  0  0  0  0  0  0  0  0  0  0  0
    8.9847    4.1858    8.6347 C   0  0  0  0  0  0  0  0  0  0  0  0
    8.4998    5.5053    8.6892 O   0  0  0  0  0  0  0  0  0  0  0  0
    7.1927    1.4073    2.2569 C   0  0  1  0  0  0  0  0  0  0  0  0
    7.3361    0.7422    0.9988 O   0  0  0  0  0  0  0  0  0  0  0  0
    1.8510    6.0348   -0.1933 C   0  0  0  0  0  0  0  0  0  0  0  0
    0.6296    6.3375   -0.9891 N   0  0  0  0  0  0  0  0  0  0  0  0
  1  2  1  1  0  0  0
  1  7  1  0  0  0  0
  1 30  1  0  0  0  0
  3  4  1  6  0  0  0
  3  9  1  0  0  0  0
  3 39  1  0  0  0  0
  5 10  1  0  0  0  0
  5 26  1  0  0  0  0
  5 32  1  6  0  0  0
  6 12  1  0  0  0  0
  6 36  1  0  0  0  0
  6 19  1  1  0  0  0
  7  8  1  6  0  0  0
  7 14  1  0  0  0  0
  9 16  1  0  0  0  0
 10 11  1  1  0  0  0
 10 18  1  0  0  0  0
 12 13  1  1  0  0  0
 12 20  1  0  0  0  0
 14 15  1  1  0  0  0
 14 22  1  0  0  0  0
 16 17  1  1  0  0  0
 16 24  1  0  0  0  0
 18 19  1  1  0  0  0
 18 25  1  0  0  0  0
 20 21  1  6  0  0  0
 20 27  1  0  0  0  0
 22 23  1  1  0  0  0
 22 29  1  0  0  0  0
 24  2  1  1  0  0  0
 24 31  1  0  0  0  0
 25 26  1  0  0  0  0
 25 33  1  6  0  0  0
 27 28  1  1  0  0  0
 27 35  1  0  0  0  0
 29 30  1  0  0  0  0
 29 37  1  1  0  0  0
 31 32  1  6  0  0  0
 31 39  1  0  0  0  0
 33 34  1  0  0  0  0
 35 36  1  0  0  0  0
 35 41  1  1  0  0  0
 37 38  1  0  0  0  0
 39 40  1  6  0  0  0
 41 42  1  0  0  0  0
M  END
>  <CHROM.1>
-171.92456521,179.42505382,-171.38171943,174.97451774,-107.81862531,178.08362284
83.08279639,-53.87437740,63.82238292,7.18045140,4.82363559,2.98505202,-0.21979907
-0.77976900,0.23753176

>  <Name>
2o3w_lig

>  <RI>
0

>  <Rbt.Current_Directory>
/home/itssahil/PROJECTS/Mol_Feturizer/New_Systems/rnas/2o3w

>  <Rbt.Executable>
rbdock ($Id: //depot/dev/client3/rdock/2013.1/src/exe/rbdock.cxx#4 $)

>  <Rbt.Library>
libRbt.so (2013.1, Build901 2013/11/27)

>  <Rbt.Parameter_File>
/export/apps/rDock/src/rDock_2013.1_src/data/scripts/dock_solv.prm

>  <Rbt.Receptor>
prm/pocket_docking_4.prm

>  <SCORE>
-10.5874

>  <SCORE.INTER>
-3.35394

>  <SCORE.INTER.CONST>
1

>  <SCORE.INTER.POLAR>
-0.797827

>  <SCORE.INTER.ROT>
9

>  <SCORE.INTER.SOLV>
12.3611

>  <SCORE.INTER.VDW>
-13.2969

>  <SCORE.INTER.norm>
-0.0798558

>  <SCORE.INTRA>
-7.36979

>  <SCORE.INTRA.DIHEDRAL>
-18.5622

>  <SCORE.INTRA.DIHEDRAL.0>
27.8999

>  <SCORE.INTRA.POLAR>
0

>  <SCORE.INTRA.POLAR.0>
0

>  <SCORE.INTRA.REPUL>
0

>  <SCORE.INTRA.REPUL.0>
0

>  <SCORE.INTRA.SOLV>
-1.39372

>  <SCORE.INTRA.SOLV.lig_0>
-104.479

>  <SCORE.INTRA.VDW>
2.60816

>  <SCORE.INTRA.VDW.0>
-6.17816

>  <SCORE.INTRA.norm>
-0.175471

>  <SCORE.RESTR>
0.136336

>  <SCORE.RESTR.CAVITY>
0.136336

>  <SCORE.RESTR.norm>
0.0032461

>  <SCORE.SYSTEM>
0

>  <SCORE.SYSTEM.CONST>
0

>  <SCORE.SYSTEM.DIHEDRAL>
0

>  <SCORE.SYSTEM.SOLV>
0

>  <SCORE.SYSTEM.norm>
0

>  <SCORE.heavy>
42

>  <SCORE.norm>
-0.252081

>  <RMSD>
5.448

$$$$
2o3w_lig
 OpenBabel11021811463D
libRbt.so/2013.1/901 2013/11/27
 42 45  0  0  0  0  0  0  0  0999 V2000
    8.5397   -0.5873    4.5342 C   0  0  2  0  0  0  0  0  0  0  0  0
    7.3527   -0.3366    5.3060 O   0  0  0  0  0  0  0  0  0  0  0  0
    4.8131    1.0589    2.0812 C   0  0  2  0  0  0  0  0  0  0  0  0
    3.6294    1.5076    1.2889 N   0  0  0  0  0  0  0  0  0  0  0  0
    6.3828    3.6855    5.5745 C   0  0  1  0  0  0  0  0  0  0  0  0
    6.3447    6.6291    5.0927 C   0  0  1  0  0  0  0  0  0  0  0  0
    9.6777   -0.9209    5.5451 C   0  0  2  0  0  0  0  0  0  0  0  0
    9.2792   -1.9472    6.5242 N   0  0  0  0  0  0  0  0  0  0  0  0
    4.6607   -0.4478    2.5377 C   0  0  0  0  0  0  0  0  0  0  0  0
    5.5685    4.3076    6.7495 C   0  0  2  0  0  0  0  0  0  0  0  0
    4.2380    4.7443    6.3781 O   0  0  0  0  0  0  0  0  0  0  0  0
    7.6665    7.2280    4.4902 C   0  0  2  0  0  0  0  0  0  0  0  0
    7.8797    8.6297    4.9600 N   0  0  0  0  0  0  0  0  0  0  0  0
   10.1237    0.3131    6.3509 C   0  0  1  0  0  0  0  0  0  0  0  0
   11.1928   -0.0296    7.2344 O   0  0  0  0  0  0  0  0  0  0  0  0
    5.9455   -0.8683    3.3470 C   0  0  2  0  0  0  0  0  0  0  0  0
    5.8423   -2.2878    3.7805 N   0  0  0  0  0  0  0  0  0  0  0  0
    6.5199    5.4090    7.2197 C   0  0  2  0  0  0  0  0  0  0  0  0
    6.2683    6.6708    6.5231 O   0  0  0  0  0  0  0  0  0  0  0  0
    7.5962    7.1615    2.8909 C   0  0  1  0  0  0  0  0  0  0  0  0
    7.7727    5.7895    2.4722 O   0  0  0  0  0  0  0  0  0  0  0  0
   10.5346    1.4426    5.3791 C   0  0  2  0  0  0  0  0  0  0  0  0
   10.9616    2.5741    6.1014 O   0  0  0  0  0  0  0  0  0  0  0  0
    6.1359    0.0596    4.6113 C   0  0  2  0  0  0  0  0  0  0  0  0
    7.9406    4.8912    6.9391 C   0  0  2  0  0  0  0  0  0  0  0  0
    7.7609    4.0676    5.7894 O   0  0  0  0  0  0  0  0  0  0  0  0
    6.2163    7.7274    2.3049 C   0  0  2  0  0  0  0  0  0  0  0  0
    6.2015    9.1375    2.5232 O   0  0  0  0  0  0  0  0  0  0  0  0
    9.3152    1.7980    4.4646 C   0  0  2  0  0  0  0  0  0  0  0  0
    8.8850    0.6064    3.7333 O   0  0  0  0  0  0  0  0  0  0  0  0
    6.2360    1.5568    4.2456 C   0  0  2  0  0  0  0  0  0  0  0  0
    6.2194    2.2624    5.5170 O   0  0  0  0  0  0  0  0  0  0  0  0
    8.5914    4.0887    8.1082 C   0  0  0  0  0  0  0  0  0  0  0  0
    8.4033    4.7990    9.3284 O   0  0  0  0  0  0  0  0  0  0  0  0
    4.9883    7.0514    3.0240 C   0  0  1  0  0  0  0  0  0  0  0  0
    5.1558    7.3232    4.4622 O   0  0  0  0  0  0  0  0  0  0  0  0
    9.6314    2.8946    3.4740 C   0  0  0  0  0  0  0  0  0  0  0  0
    9.9739    4.0779    4.1535 O   0  0  0  0  0  0  0  0  0  0  0  0
    5.0008    1.9865    3.3481 C   0  0  1  0  0  0  0  0  0  0  0  0
    5.1707    3.3290    2.8850 O   0  0  0  0  0  0  0  0  0  0  0  0
    3.5741    7.5809    2.5256 C   0  0  0  0  0  0  0  0  0  0  0  0
    3.1981    7.1981    1.1369 N   0  0  0  0  0  0  0  0  0  0  0  0
  1  2  1  1  0  0  0
  1  7  1  0  0  0  0
  1 30  1  0  0  0  0
  3  4  1  1  0  0  0
  3  9  1  0  0  0  0
  3 39  1  0  0  0  0
  5 10  1  0  0  0  0
  5 26  1  0  0  0  0
  5 32  1  1  0  0  0
  6 12  1  0  0  0  0
  6 36  1  0  0  0  0
  6 19  1  1  0  0  0
  7  8  1  1  0  0  0
  7 14  1  0  0  0  0
  9 16  1  0  0  0  0
 10 11  1  6  0  0  0
 10 18  1  0  0  0  0
 12 13  1  6  0  0  0
 12 20  1  0  0  0  0
 14 15  1  1  0  0  0
 14 22  1  0  0  0  0
 16 17  1  1  0  0  0
 16 24  1  0  0  0  0
 18 19  1  6  0  0  0
 18 25  1  0  0  0  0
 20 21  1  1  0  0  0
 20 27  1  0  0  0  0
 22 23  1  1  0  0  0
 22 29  1  0  0  0  0
 24  2  1  6  0  0  0
 24 31  1  0  0  0  0
 25 26  1  0  0  0  0
 25 33  1  1  0  0  0
 27 28  1  1  0  0  0
 27 35  1  0  0  0  0
 29 30  1  0  0  0  0
 29 37  1  6  0  0  0
 31 32  1  1  0  0  0
 31 39  1  0  0  0  0
 33 34  1  0  0  0  0
 35 36  1  0  0  0  0
 35 41  1  6  0  0  0
 37 38  1  0  0  0  0
 39 40  1  6  0  0  0
 41 42  1  0  0  0  0
M  END
>  <CHROM.1>
177.38273056,147.11121433,-102.95857864,-56.81539684,44.89183954,-46.82713425
-61.49767414,175.98817163,69.08158178,7.10038883,3.41751890,4.66602496,1.09371621
0.72055424,-3.01346247

>  <Name>
2o3w_lig

>  <RI>
0

>  <Rbt.Current_Directory>
/home/itssahil/PROJECTS/Mol_Feturizer/New_Systems/rnas/2o3w

>  <Rbt.Executable>
rbdock ($Id: //depot/dev/client3/rdock/2013.1/src/exe/rbdock.cxx#4 $)

>  <Rbt.Library>
libRbt.so (2013.1, Build901 2013/11/27)

>  <Rbt.Parameter_File>
/export/apps/rDock/src/rDock_2013.1_src/data/scripts/dock_solv.prm

>  <Rbt.Receptor>
prm/pocket_docking_5.prm

>  <SCORE>
-20.4562

>  <SCORE.INTER>
-12.2674

>  <SCORE.INTER.CONST>
1

>  <SCORE.INTER.POLAR>
-1.74016

>  <SCORE.INTER.ROT>
9

>  <SCORE.INTER.SOLV>
10.4449

>  <SCORE.INTER.VDW>
-15.4593

>  <SCORE.INTER.norm>
-0.29208

>  <SCORE.INTRA>
-8.31968

>  <SCORE.INTRA.DIHEDRAL>
-15.738

>  <SCORE.INTRA.DIHEDRAL.0>
27.8999

>  <SCORE.INTRA.POLAR>
0

>  <SCORE.INTRA.POLAR.0>
0

>  <SCORE.INTRA.REPUL>
0.0364779

>  <SCORE.INTRA.REPUL.0>
0

>  <SCORE.INTRA.SOLV>
-2.08522

>  <SCORE.INTRA.SOLV.lig_0>
-104.479

>  <SCORE.INTRA.VDW>
0.409565

>  <SCORE.INTRA.VDW.0>
-6.17816

>  <SCORE.INTRA.norm>
-0.198088

>  <SCORE.RESTR>
0.130839

>  <SCORE.RESTR.CAVITY>
0.130839

>  <SCORE.RESTR.norm>
0.00311522

>  <SCORE.SYSTEM>
0

>  <SCORE.SYSTEM.CONST>
0

>  <SCORE.SYSTEM.DIHEDRAL>
0

>  <SCORE.SYSTEM.SOLV>
0

>  <SCORE.SYSTEM.norm>
0

>  <SCORE.heavy>
42

>  <SCORE.norm>
-0.487052

>  <RMSD>
5.451

$$$$
2o3w_lig
 OpenBabel11021811463D
libRbt.so/2013.1/901 2013/11/27
 42 45  0  0  0  0  0  0  0  0999 V2000
    8.4875    3.0138    5.6474 C   0  0  2  0  0  0  0  0  0  0  0  0
    8.7290    3.4696    4.3053 O   0  0  0  0  0  0  0  0  0  0  0  0
   10.3974    7.3429    5.3102 C   0  0  2  0  0  0  0  0  0  0  0  0
   10.9506    8.7269    5.2148 N   0  0  0  0  0  0  0  0  0  0  0  0
    7.1458    6.1913    2.5154 C   0  0  1  0  0  0  0  0  0  0  0  0
    6.0210    7.6391   -1.4688 C   0  0  1  0  0  0  0  0  0  0  0  0
    7.9701    1.5476    5.5438 C   0  0  2  0  0  0  0  0  0  0  0  0
    8.8259    0.7069    4.6885 N   0  0  0  0  0  0  0  0  0  0  0  0
   11.3465    6.2953    4.6006 C   0  0  0  0  0  0  0  0  0  0  0  0
    5.9744    5.5595    1.7033 C   0  0  2  0  0  0  0  0  0  0  0  0
    6.3148    4.3107    1.0524 O   0  0  0  0  0  0  0  0  0  0  0  0
    4.4916    7.7171   -1.8202 C   0  0  2  0  0  0  0  0  0  0  0  0
    3.9744    6.3835   -2.2502 N   0  0  0  0  0  0  0  0  0  0  0  0
    6.5467    1.4700    4.9618 C   0  0  1  0  0  0  0  0  0  0  0  0
    6.0988    0.1140    4.9222 O   0  0  0  0  0  0  0  0  0  0  0  0
   10.7231    4.8564    4.7538 C   0  0  2  0  0  0  0  0  0  0  0  0
   11.5993    3.8416    4.1088 N   0  0  0  0  0  0  0  0  0  0  0  0
    5.6039    6.7133    0.7701 C   0  0  2  0  0  0  0  0  0  0  0  0
    6.3575    6.6552   -0.4827 O   0  0  0  0  0  0  0  0  0  0  0  0
    4.2672    8.8172   -2.9632 C   0  0  1  0  0  0  0  0  0  0  0  0
    4.4205   10.1319   -2.3829 O   0  0  0  0  0  0  0  0  0  0  0  0
    5.5971    2.3537    5.8024 C   0  0  2  0  0  0  0  0  0  0  0  0
    4.2860    2.2804    5.2924 O   0  0  0  0  0  0  0  0  0  0  0  0
    9.2830    4.8015    4.1066 C   0  0  2  0  0  0  0  0  0  0  0  0
    5.9132    8.0039    1.5472 C   0  0  2  0  0  0  0  0  0  0  0  0
    7.0081    7.6242    2.3775 O   0  0  0  0  0  0  0  0  0  0  0  0
    5.2813    8.6524   -4.1928 C   0  0  2  0  0  0  0  0  0  0  0  0
    4.9265    7.4572   -4.8869 O   0  0  0  0  0  0  0  0  0  0  0  0
    6.1181    3.8294    5.7784 C   0  0  2  0  0  0  0  0  0  0  0  0
    7.4828    3.8778    6.3030 O   0  0  0  0  0  0  0  0  0  0  0  0
    8.3139    5.8398    4.7133 C   0  0  2  0  0  0  0  0  0  0  0  0
    7.1190    5.7754    3.8870 O   0  0  0  0  0  0  0  0  0  0  0  0
    4.7295    8.5593    2.3984 C   0  0  0  0  0  0  0  0  0  0  0  0
    5.1333    9.7690    3.0329 O   0  0  0  0  0  0  0  0  0  0  0  0
    6.7680    8.5637   -3.6790 C   0  0  1  0  0  0  0  0  0  0  0  0
    6.8104    7.4265   -2.7434 O   0  0  0  0  0  0  0  0  0  0  0  0
    5.2486    4.7663    6.5845 C   0  0  0  0  0  0  0  0  0  0  0  0
    5.8428    6.0396    6.6546 O   0  0  0  0  0  0  0  0  0  0  0  0
    8.9573    7.2885    4.6593 C   0  0  1  0  0  0  0  0  0  0  0  0
    8.1280    8.2230    5.3553 O   0  0  0  0  0  0  0  0  0  0  0  0
    7.8419    8.3648   -4.8347 C   0  0  0  0  0  0  0  0  0  0  0  0
    7.5673    7.2491   -5.7815 N   0  0  0  0  0  0  0  0  0  0  0  0
  1  2  1  6  0  0  0
  1  7  1  0  0  0  0
  1 30  1  0  0  0  0
  3  4  1  6  0  0  0
  3  9  1  0  0  0  0
  3 39  1  0  0  0  0
  5 10  1  0  0  0  0
  5 26  1  0  0  0  0
  5 32  1  1  0  0  0
  6 12  1  0  0  0  0
  6 36  1  0  0  0  0
  6 19  1  1  0  0  0
  7  8  1  6  0  0  0
  7 14  1  0  0  0  0
  9 16  1  0  0  0  0
 10 11  1  6  0  0  0
 10 18  1  0  0  0  0
 12 13  1  6  0  0  0
 12 20  1  0  0  0  0
 14 15  1  1  0  0  0
 14 22  1  0  0  0  0
 16 17  1  6  0  0  0
 16 24  1  0  0  0  0
 18 19  1  6  0  0  0
 18 25  1  0  0  0  0
 20 21  1  1  0  0  0
 20 27  1  0  0  0  0
 22 23  1  6  0  0  0
 22 29  1  0  0  0  0
 24  2  1  1  0  0  0
 24 31  1  0  0  0  0
 25 26  1  0  0  0  0
 25 33  1  1  0  0  0
 27 28  1  1  0  0  0
 27 35  1  0  0  0  0
 29 30  1  0  0  0  0
 29 37  1  1  0  0  0
 31 32  1  6  0  0  0
 31 39  1  0  0  0  0
 33 34  1  0  0  0  0
 35 36  1  0  0  0  0
 35 41  1  6  0  0  0
 37 38  1  0  0  0  0
 39 40  1  1  0  0  0
 41 42  1  0  0  0  0
M  END
>  <CHROM.1>
-177.17798307,158.59575575,-52.60578446,175.88674120,63.24085922,-178.36280262
173.30655492,-66.63164961,-51.32424638,6.98156737,5.91566633,2.17280824,1.21759459
0.87381838,2.32348005

>  <Name>
2o3w_lig

>  <RI>
0

>  <Rbt.Current_Directory>
/home/itssahil/PROJECTS/Mol_Feturizer/New_Systems/rnas/2o3w

>  <Rbt.Executable>
rbdock ($Id: //depot/dev/client3/rdock/2013.1/src/exe/rbdock.cxx#4 $)

>  <Rbt.Library>
libRbt.so (2013.1, Build901 2013/11/27)

>  <Rbt.Parameter_File>
/export/apps/rDock/src/rDock_2013.1_src/data/scripts/dock_solv.prm

>  <Rbt.Receptor>
prm/pocket_docking_6.prm

>  <SCORE>
-19.2401

>  <SCORE.INTER>
-8.07438

>  <SCORE.INTER.CONST>
1

>  <SCORE.INTER.POLAR>
-2.76041

>  <SCORE.INTER.ROT>
9

>  <SCORE.INTER.SOLV>
18.7803

>  <SCORE.INTER.VDW>
-12.0416

>  <SCORE.INTER.norm>
-0.192247

>  <SCORE.INTRA>
-11.1657

>  <SCORE.INTRA.DIHEDRAL>
-24.6336

>  <SCORE.INTRA.DIHEDRAL.0>
27.8999

>  <SCORE.INTRA.POLAR>
0

>  <SCORE.INTRA.POLAR.0>
0

>  <SCORE.INTRA.REPUL>
0

>  <SCORE.INTRA.REPUL.0>
0

>  <SCORE.INTRA.SOLV>
-2.77887

>  <SCORE.INTRA.SOLV.lig_0>
-104.479

>  <SCORE.INTRA.VDW>
2.54051

>  <SCORE.INTRA.VDW.0>
-6.17816

>  <SCORE.INTRA.norm>
-0.26585

>  <SCORE.RESTR>
0

>  <SCORE.RESTR.CAVITY>
0

>  <SCORE.RESTR.norm>
0

>  <SCORE.SYSTEM>
0

>  <SCORE.SYSTEM.CONST>
0

>  <SCORE.SYSTEM.DIHEDRAL>
0

>  <SCORE.SYSTEM.SOLV>
0

>  <SCORE.SYSTEM.norm>
0

>  <SCORE.heavy>
42

>  <SCORE.norm>
-0.458097

>  <RMSD>
5.459

$$$$
2o3w_lig
 OpenBabel11021811463D
libRbt.so/2013.1/901 2013/11/27
 42 45  0  0  0  0  0  0  0  0999 V2000
    8.4847    3.2579    6.0107 C   0  0  2  0  0  0  0  0  0  0  0  0
    8.9237    3.9573    4.8337 O   0  0  0  0  0  0  0  0  0  0  0  0
    9.6632    7.7999    6.7003 C   0  0  2  0  0  0  0  0  0  0  0  0
   10.0181    9.2332    6.9239 N   0  0  0  0  0  0  0  0  0  0  0  0
    7.5664    6.7059    2.9360 C   0  0  1  0  0  0  0  0  0  0  0  0
    7.2694    6.9502   -1.3307 C   0  0  1  0  0  0  0  0  0  0  0  0
    8.1258    1.8068    5.5705 C   0  0  2  0  0  0  0  0  0  0  0  0
    9.1928    1.1802    4.7709 N   0  0  0  0  0  0  0  0  0  0  0  0
   10.9155    6.9687    6.2076 C   0  0  0  0  0  0  0  0  0  0  0  0
    6.6386    6.2231    1.7797 C   0  0  2  0  0  0  0  0  0  0  0  0
    7.1324    5.0570    1.0758 O   0  0  0  0  0  0  0  0  0  0  0  0
    8.5002    6.8142   -2.2980 C   0  0  2  0  0  0  0  0  0  0  0  0
    9.1374    8.1431   -2.5405 N   0  0  0  0  0  0  0  0  0  0  0  0
    6.8435    1.7546    4.7197 C   0  0  1  0  0  0  0  0  0  0  0  0
    6.5314    0.4044    4.3728 O   0  0  0  0  0  0  0  0  0  0  0  0
   10.4853    5.4657    6.0115 C   0  0  2  0  0  0  0  0  0  0  0  0
   11.6452    4.6500    5.5612 N   0  0  0  0  0  0  0  0  0  0  0  0
    6.5168    7.4985    0.9445 C   0  0  2  0  0  0  0  0  0  0  0  0
    7.5631    7.5758   -0.0754 O   0  0  0  0  0  0  0  0  0  0  0  0
    8.0206    6.1464   -3.6731 C   0  0  1  0  0  0  0  0  0  0  0  0
    7.7697    4.7410   -3.4475 O   0  0  0  0  0  0  0  0  0  0  0  0
    5.6835    2.4210    5.4940 C   0  0  2  0  0  0  0  0  0  0  0  0
    4.4978    2.3664    4.7352 O   0  0  0  0  0  0  0  0  0  0  0  0
    9.3166    5.3543    4.9544 C   0  0  2  0  0  0  0  0  0  0  0  0
    6.6196    8.6680    1.9380 C   0  0  2  0  0  0  0  0  0  0  0  0
    7.4684    8.1484    2.9588 O   0  0  0  0  0  0  0  0  0  0  0  0
    6.7050    6.8361   -4.2740 C   0  0  2  0  0  0  0  0  0  0  0  0
    7.0670    8.1443   -4.7142 O   0  0  0  0  0  0  0  0  0  0  0  0
    6.0681    3.9041    5.8130 C   0  0  2  0  0  0  0  0  0  0  0  0
    7.3058    3.9346    6.5922 O   0  0  0  0  0  0  0  0  0  0  0  0
    8.0764    6.1889    5.3425 C   0  0  2  0  0  0  0  0  0  0  0  0
    7.1930    6.1192    4.1896 O   0  0  0  0  0  0  0  0  0  0  0  0
    5.2591    9.1497    2.5306 C   0  0  0  0  0  0  0  0  0  0  0  0
    4.3579    9.4382    1.4659 O   0  0  0  0  0  0  0  0  0  0  0  0
    5.5739    6.9222   -3.1806 C   0  0  1  0  0  0  0  0  0  0  0  0
    6.1516    7.6730   -2.0525 O   0  0  0  0  0  0  0  0  0  0  0  0
    4.9880    4.6333    6.5782 C   0  0  0  0  0  0  0  0  0  0  0  0
    5.4680    5.8767    7.0284 O   0  0  0  0  0  0  0  0  0  0  0  0
    8.4956    7.6894    5.6396 C   0  0  1  0  0  0  0  0  0  0  0  0
    7.3766    8.4237    6.1441 O   0  0  0  0  0  0  0  0  0  0  0  0
    4.2394    7.6259   -3.6834 C   0  0  0  0  0  0  0  0  0  0  0  0
    3.1317    7.6859   -2.6904 N   0  0  0  0  0  0  0  0  0  0  0  0
  1  2  1  6  0  0  0
  1  7  1  0  0  0  0
  1 30  1  0  0  0  0
  3  4  1  6  0  0  0
  3  9  1  0  0  0  0
  3 39  1  0  0  0  0
  5 10  1  0  0  0  0
  5 26  1  0  0  0  0
  5 32  1  1  0  0  0
  6 12  1  0  0  0  0
  6 36  1  0  0  0  0
  6 19  1  1  0  0  0
  7  8  1  6  0  0  0
  7 14  1  0  0  0  0
  9 16  1  0  0  0  0
 10 11  1  6  0  0  0
 10 18  1  0  0  0  0
 12 13  1  6  0  0  0
 12 20  1  0  0  0  0
 14 15  1  1  0  0  0
 14 22  1  0  0  0  0
 16 17  1  6  0  0  0
 16 24  1  0  0  0  0
 18 19  1  6  0  0  0
 18 25  1  0  0  0  0
 20 21  1  1  0  0  0
 20 27  1  0  0  0  0
 22 23  1  6  0  0  0
 22 29  1  0  0  0  0
 24  2  1  1  0  0  0
 24 31  1  0  0  0  0
 25 26  1  0  0  0  0
 25 33  1  1  0  0  0
 27 28  1  1  0  0  0
 27 35  1  0  0  0  0
 29 30  1  0  0  0  0
 29 37  1  1  0  0  0
 31 32  1  6  0  0  0
 31 39  1  0  0  0  0
 33 34  1  0  0  0  0
 35 36  1  0  0  0  0
 35 41  1  6  0  0  0
 37 38  1  0  0  0  0
 39 40  1  1  0  0  0
 41 42  1  0  0  0  0
M  END
>  <CHROM.1>
179.55016253,166.54110824,-169.00376875,87.83716610,57.73750369,-53.38526857
170.29689385,-65.47892837,178.09319709,7.29786981,5.94452633,2.51133018,0.99940039
1.25252422,2.43596063

>  <Name>
2o3w_lig

>  <RI>
0

>  <Rbt.Current_Directory>
/home/itssahil/PROJECTS/Mol_Feturizer/New_Systems/rnas/2o3w

>  <Rbt.Executable>
rbdock ($Id: //depot/dev/client3/rdock/2013.1/src/exe/rbdock.cxx#4 $)

>  <Rbt.Library>
libRbt.so (2013.1, Build901 2013/11/27)

>  <Rbt.Parameter_File>
/export/apps/rDock/src/rDock_2013.1_src/data/scripts/dock_solv.prm

>  <Rbt.Receptor>
prm/pocket_docking_8.prm

>  <SCORE>
-28.9943

>  <SCORE.INTER>
-17.6382

>  <SCORE.INTER.CONST>
1

>  <SCORE.INTER.POLAR>
-3.28149

>  <SCORE.INTER.ROT>
9

>  <SCORE.INTER.SOLV>
16.8798

>  <SCORE.INTER.VDW>
-16.0471

>  <SCORE.INTER.norm>
-0.419957

>  <SCORE.INTRA>
-11.3561

>  <SCORE.INTRA.DIHEDRAL>
-22.4782

>  <SCORE.INTRA.DIHEDRAL.0>
27.8999

>  <SCORE.INTRA.POLAR>
0

>  <SCORE.INTRA.POLAR.0>
0

>  <SCORE.INTRA.REPUL>
0

>  <SCORE.INTRA.REPUL.0>
0

>  <SCORE.INTRA.SOLV>
-4.96221

>  <SCORE.INTRA.SOLV.lig_0>
-104.479

>  <SCORE.INTRA.VDW>
2.36411

>  <SCORE.INTRA.VDW.0>
-6.17816

>  <SCORE.INTRA.norm>
-0.270383

>  <SCORE.RESTR>
0

>  <SCORE.RESTR.CAVITY>
0

>  <SCORE.RESTR.norm>
0

>  <SCORE.SYSTEM>
0

>  <SCORE.SYSTEM.CONST>
0

>  <SCORE.SYSTEM.DIHEDRAL>
0

>  <SCORE.SYSTEM.SOLV>
0

>  <SCORE.SYSTEM.norm>
0

>  <SCORE.heavy>
42

>  <SCORE.norm>
-0.69034

>  <RMSD>
5.466

$$$$
2o3w_lig
 OpenBabel11021811463D
libRbt.so/2013.1/901 2013/11/27
 42 45  0  0  0  0  0  0  0  0999 V2000
    2.4952    0.1554    3.6186 C   0  0  2  0  0  0  0  0  0  0  0  0
    3.4561   -0.7367    4.2086 O   0  0  0  0  0  0  0  0  0  0  0  0
    7.6508   -0.2767    5.2033 C   0  0  2  0  0  0  0  0  0  0  0  0
    9.1150    0.0049    5.1189 N   0  0  0  0  0  0  0  0  0  0  0  0
    4.7548    2.2149    2.8522 C   0  0  1  0  0  0  0  0  0  0  0  0
    5.3333    4.4038   -0.9250 C   0  0  1  0  0  0  0  0  0  0  0  0
    1.0825   -0.3976    3.9745 C   0  0  2  0  0  0  0  0  0  0  0  0
    0.9379   -0.6922    5.4108 N   0  0  0  0  0  0  0  0  0  0  0  0
    7.2448   -1.4886    4.2714 C   0  0  0  0  0  0  0  0  0  0  0  0
    3.8219    3.3783    2.3972 C   0  0  2  0  0  0  0  0  0  0  0  0
    2.5637    2.9374    1.8299 O   0  0  0  0  0  0  0  0  0  0  0  0
    5.1275    3.8896   -2.3954 C   0  0  2  0  0  0  0  0  0  0  0  0
    5.4816    2.4431   -2.5091 N   0  0  0  0  0  0  0  0  0  0  0  0
    0.7569   -1.6989    3.2186 C   0  0  1  0  0  0  0  0  0  0  0  0
   -0.5598   -2.1472    3.5445 O   0  0  0  0  0  0  0  0  0  0  0  0
    5.6983   -1.7509    4.4203 C   0  0  2  0  0  0  0  0  0  0  0  0
    5.2833   -2.8965    3.5665 N   0  0  0  0  0  0  0  0  0  0  0  0
    4.7441    4.1445    1.4476 C   0  0  2  0  0  0  0  0  0  0  0  0
    4.6247    3.6583    0.0728 O   0  0  0  0  0  0  0  0  0  0  0  0
    6.0098    4.7784   -3.3947 C   0  0  1  0  0  0  0  0  0  0  0  0
    5.3918    6.0775   -3.5340 O   0  0  0  0  0  0  0  0  0  0  0  0
    0.9135   -1.4653    1.6987 C   0  0  2  0  0  0  0  0  0  0  0  0
    0.6026   -2.6431    0.9912 O   0  0  0  0  0  0  0  0  0  0  0  0
    4.8740   -0.4645    4.0187 C   0  0  2  0  0  0  0  0  0  0  0  0
    6.1702    3.9444    1.9875 C   0  0  2  0  0  0  0  0  0  0  0  0
    6.1074    2.6538    2.5898 O   0  0  0  0  0  0  0  0  0  0  0  0
    7.5231    4.9551   -2.8986 C   0  0  2  0  0  0  0  0  0  0  0  0
    8.1663    3.6867   -3.0167 O   0  0  0  0  0  0  0  0  0  0  0  0
    2.3817   -1.0123    1.4005 C   0  0  2  0  0  0  0  0  0  0  0  0
    2.6832    0.2053    2.1530 O   0  0  0  0  0  0  0  0  0  0  0  0
    5.2588    0.7777    4.8519 C   0  0  2  0  0  0  0  0  0  0  0  0
    4.5513    1.8871    4.2328 O   0  0  0  0  0  0  0  0  0  0  0  0
    6.6423    5.0204    3.0140 C   0  0  0  0  0  0  0  0  0  0  0  0
    6.6653    6.2963    2.3811 O   0  0  0  0  0  0  0  0  0  0  0  0
    7.5637    5.4500   -1.4034 C   0  0  1  0  0  0  0  0  0  0  0  0
    6.8161    4.4503   -0.6211 O   0  0  0  0  0  0  0  0  0  0  0  0
    2.6234   -0.7541   -0.0687 C   0  0  0  0  0  0  0  0  0  0  0  0
    3.9732   -0.4229   -0.2872 O   0  0  0  0  0  0  0  0  0  0  0  0
    6.8267    1.0106    4.7980 C   0  0  1  0  0  0  0  0  0  0  0  0
    7.1997    2.0660    5.6884 O   0  0  0  0  0  0  0  0  0  0  0  0
    9.0320    5.6205   -0.8172 C   0  0  0  0  0  0  0  0  0  0  0  0
    9.8268    6.7407   -1.3916 N   0  0  0  0  0  0  0  0  0  0  0  0
  1  2  1  1  0  0  0
  1  7  1  0  0  0  0
  1 30  1  0  0  0  0
  3  4  1  6  0  0  0
  3  9  1  0  0  0  0
  3 39  1  0  0  0  0
  5 10  1  0  0  0  0
  5 26  1  0  0  0  0
  5 32  1  1  0  0  0
  6 12  1  0  0  0  0
  6 36  1  0  0  0  0
  6 19  1  1  0  0  0
  7  8  1  1  0  0  0
  7 14  1  0  0  0  0
  9 16  1  0  0  0  0
 10 11  1  6  0  0  0
 10 18  1  0  0  0  0
 12 13  1  1  0  0  0
 12 20  1  0  0  0  0
 14 15  1  6  0  0  0
 14 22  1  0  0  0  0
 16 17  1  6  0  0  0
 16 24  1  0  0  0  0
 18 19  1  6  0  0  0
 18 25  1  0  0  0  0
 20 21  1  1  0  0  0
 20 27  1  0  0  0  0
 22 23  1  6  0  0  0
 22 29  1  0  0  0  0
 24  2  1  1  0  0  0
 24 31  1  0  0  0  0
 25 26  1  0  0  0  0
 25 33  1  1  0  0  0
 27 28  1  1  0  0  0
 27 35  1  0  0  0  0
 29 30  1  0  0  0  0
 29 37  1  6  0  0  0
 31 32  1  6  0  0  0
 31 39  1  0  0  0  0
 33 34  1  0  0  0  0
 35 36  1  0  0  0  0
 35 41  1  1  0  0  0
 37 38  1  0  0  0  0
 39 40  1  1  0  0  0
 41 42  1  0  0  0  0
M  END
>  <CHROM.1>
179.31704674,176.35331406,-177.34813546,173.29676110,-165.42313576,-62.37400593
-176.76019361,-58.19953033,69.26359273,4.92366205,1.77542614,1.69084408,2.17400451
0.56268966,2.11345307

>  <Name>
2o3w_lig

>  <RI>
0

>  <Rbt.Current_Directory>
/home/itssahil/PROJECTS/Mol_Feturizer/New_Systems/rnas/2o3w

>  <Rbt.Executable>
rbdock ($Id: //depot/dev/client3/rdock/2013.1/src/exe/rbdock.cxx#4 $)

>  <Rbt.Library>
libRbt.so (2013.1, Build901 2013/11/27)

>  <Rbt.Parameter_File>
/export/apps/rDock/src/rDock_2013.1_src/data/scripts/dock_solv.prm

>  <Rbt.Receptor>
prm/pocket_docking_7.prm

>  <SCORE>
-18.3468

>  <SCORE.INTER>
-5.05945

>  <SCORE.INTER.CONST>
1

>  <SCORE.INTER.POLAR>
-0.979796

>  <SCORE.INTER.ROT>
9

>  <SCORE.INTER.SOLV>
18.8984

>  <SCORE.INTER.VDW>
-16.0065

>  <SCORE.INTER.norm>
-0.120463

>  <SCORE.INTRA>
-13.2873

>  <SCORE.INTRA.DIHEDRAL>
-26.0548

>  <SCORE.INTRA.DIHEDRAL.0>
27.8999

>  <SCORE.INTRA.POLAR>
0

>  <SCORE.INTRA.POLAR.0>
0

>  <SCORE.INTRA.REPUL>
0.0300004

>  <SCORE.INTRA.REPUL.0>
0

>  <SCORE.INTRA.SOLV>
-4.44232

>  <SCORE.INTRA.SOLV.lig_0>
-104.479

>  <SCORE.INTRA.VDW>
1.81121

>  <SCORE.INTRA.VDW.0>
-6.17816

>  <SCORE.INTRA.norm>
-0.316365

>  <SCORE.RESTR>
0

>  <SCORE.RESTR.CAVITY>
0

>  <SCORE.RESTR.norm>
0

>  <SCORE.SYSTEM>
0

>  <SCORE.SYSTEM.CONST>
0

>  <SCORE.SYSTEM.DIHEDRAL>
0

>  <SCORE.SYSTEM.SOLV>
0

>  <SCORE.SYSTEM.norm>
0

>  <SCORE.heavy>
42

>  <SCORE.norm>
-0.436828

>  <RMSD>
5.554

$$$$
2o3w_lig
 OpenBabel11021811463D
libRbt.so/2013.1/901 2013/11/27
 42 45  0  0  0  0  0  0  0  0999 V2000
    7.4835    3.2229    5.7958 C   0  0  2  0  0  0  0  0  0  0  0  0
    7.6990    4.6311    5.6011 O   0  0  0  0  0  0  0  0  0  0  0  0
    4.0395    5.4884    3.4403 C   0  0  2  0  0  0  0  0  0  0  0  0
    2.9891    6.1693    2.6257 N   0  0  0  0  0  0  0  0  0  0  0  0
    7.9920    5.8703    1.7252 C   0  0  1  0  0  0  0  0  0  0  0  0
    7.8688    7.9813   -0.7140 C   0  0  1  0  0  0  0  0  0  0  0  0
    8.4804    2.7584    6.8996 C   0  0  2  0  0  0  0  0  0  0  0  0
    8.4399    3.6194    8.0944 N   0  0  0  0  0  0  0  0  0  0  0  0
    4.2738    6.2351    4.8148 C   0  0  0  0  0  0  0  0  0  0  0  0
    9.3692    6.5961    1.8101 C   0  0  2  0  0  0  0  0  0  0  0  0
    9.3405    7.8274    2.5732 O   0  0  0  0  0  0  0  0  0  0  0  0
    7.7059    7.3572   -2.1468 C   0  0  2  0  0  0  0  0  0  0  0  0
    8.5877    8.0498   -3.1336 N   0  0  0  0  0  0  0  0  0  0  0  0
    9.9386    2.7523    6.4050 C   0  0  1  0  0  0  0  0  0  0  0  0
   10.8110    2.2831    7.4344 O   0  0  0  0  0  0  0  0  0  0  0  0
    5.3723    5.4596    5.6360 C   0  0  2  0  0  0  0  0  0  0  0  0
    5.6081    6.1278    6.9443 N   0  0  0  0  0  0  0  0  0  0  0  0
    9.7193    6.7433    0.3285 C   0  0  2  0  0  0  0  0  0  0  0  0
    9.2143    8.0017   -0.2212 O   0  0  0  0  0  0  0  0  0  0  0  0
    6.1685    7.4431   -2.5892 C   0  0  1  0  0  0  0  0  0  0  0  0
    5.4120    6.4639   -1.8422 O   0  0  0  0  0  0  0  0  0  0  0  0
   10.0477    1.8818    5.1324 C   0  0  2  0  0  0  0  0  0  0  0  0
   11.3803    1.8523    4.6764 O   0  0  0  0  0  0  0  0  0  0  0  0
    6.7266    5.3882    4.8255 C   0  0  2  0  0  0  0  0  0  0  0  0
    9.0875    5.5327   -0.3791 C   0  0  2  0  0  0  0  0  0  0  0  0
    7.9341    5.2630    0.4142 O   0  0  0  0  0  0  0  0  0  0  0  0
    5.5357    8.8973   -2.3607 C   0  0  2  0  0  0  0  0  0  0  0  0
    6.1428    9.7838   -3.2998 O   0  0  0  0  0  0  0  0  0  0  0  0
    9.0994    2.4647    4.0322 C   0  0  2  0  0  0  0  0  0  0  0  0
    7.7251    2.4939    4.5325 O   0  0  0  0  0  0  0  0  0  0  0  0
    6.5625    4.7195    3.4430 C   0  0  2  0  0  0  0  0  0  0  0  0
    7.8405    4.9056    2.7747 O   0  0  0  0  0  0  0  0  0  0  0  0
   10.0062    4.2757   -0.4793 C   0  0  0  0  0  0  0  0  0  0  0  0
   11.3520    4.6921   -0.6899 O   0  0  0  0  0  0  0  0  0  0  0  0
    5.8027    9.3948   -0.8899 C   0  0  1  0  0  0  0  0  0  0  0  0
    7.2645    9.3697   -0.7084 O   0  0  0  0  0  0  0  0  0  0  0  0
    9.1381    1.6673    2.7491 C   0  0  0  0  0  0  0  0  0  0  0  0
    8.7122    0.3474    2.9855 O   0  0  0  0  0  0  0  0  0  0  0  0
    5.3953    5.4203    2.6293 C   0  0  1  0  0  0  0  0  0  0  0  0
    5.1427    4.7071    1.4156 O   0  0  0  0  0  0  0  0  0  0  0  0
    5.2360   10.8490   -0.5851 C   0  0  0  0  0  0  0  0  0  0  0  0
    3.7678   11.0171   -0.7665 N   0  0  0  0  0  0  0  0  0  0  0  0
  1  2  1  6  0  0  0
  1  7  1  0  0  0  0
  1 30  1  0  0  0  0
  3  4  1  6  0  0  0
  3  9  1  0  0  0  0
  3 39  1  0  0  0  0
  5 10  1  0  0  0  0
  5 26  1  0  0  0  0
  5 32  1  1  0  0  0
  6 12  1  0  0  0  0
  6 36  1  0  0  0  0
  6 19  1  6  0  0  0
  7  8  1  1  0  0  0
  7 14  1  0  0  0  0
  9 16  1  0  0  0  0
 10 11  1  6  0  0  0
 10 18  1  0  0  0  0
 12 13  1  6  0  0  0
 12 20  1  0  0  0  0
 14 15  1  1  0  0  0
 14 22  1  0  0  0  0
 16 17  1  1  0  0  0
 16 24  1  0  0  0  0
 18 19  1  6  0  0  0
 18 25  1  0  0  0  0
 20 21  1  1  0  0  0
 20 27  1  0  0  0  0
 22 23  1  6  0  0  0
 22 29  1  0  0  0  0
 24  2  1  1  0  0  0
 24 31  1  0  0  0  0
 25 26  1  0  0  0  0
 25 33  1  1  0  0  0
 27 28  1  6  0  0  0
 27 35  1  0  0  0  0
 29 30  1  0  0  0  0
 29 37  1  6  0  0  0
 31 32  1  6  0  0  0
 31 39  1  0  0  0  0
 33 34  1  0  0  0  0
 35 36  1  0  0  0  0
 35 41  1  6  0  0  0
 37 38  1  0  0  0  0
 39 40  1  6  0  0  0
 41 42  1  0  0  0  0
M  END
>  <CHROM.1>
-167.66694836,141.26282849,-79.62811914,-86.88938463,68.13812495,-36.32292192
61.25377610,-105.23891362,59.28264005,7.56984960,5.60131647,2.09944325,1.28352030
-0.56785574,2.09156461

>  <Name>
2o3w_lig

>  <RI>
0

>  <Rbt.Current_Directory>
/home/itssahil/PROJECTS/Mol_Feturizer/New_Systems/rnas/2o3w

>  <Rbt.Executable>
rbdock ($Id: //depot/dev/client3/rdock/2013.1/src/exe/rbdock.cxx#4 $)

>  <Rbt.Library>
libRbt.so (2013.1, Build901 2013/11/27)

>  <Rbt.Parameter_File>
/export/apps/rDock/src/rDock_2013.1_src/data/scripts/dock_solv.prm

>  <Rbt.Receptor>
prm/pocket_docking_6.prm

>  <SCORE>
-22.6005

>  <SCORE.INTER>
-21.4368

>  <SCORE.INTER.CONST>
1

>  <SCORE.INTER.POLAR>
-3.60098

>  <SCORE.INTER.ROT>
9

>  <SCORE.INTER.SOLV>
21.6917

>  <SCORE.INTER.VDW>
-19.1185

>  <SCORE.INTER.norm>
-0.5104

>  <SCORE.INTRA>
-1.16373

>  <SCORE.INTRA.DIHEDRAL>
-8.8795

>  <SCORE.INTRA.DIHEDRAL.0>
27.8999

>  <SCORE.INTRA.POLAR>
0

>  <SCORE.INTRA.POLAR.0>
0

>  <SCORE.INTRA.REPUL>
0

>  <SCORE.INTRA.REPUL.0>
0

>  <SCORE.INTRA.SOLV>
-2.98129

>  <SCORE.INTRA.SOLV.lig_0>
-104.479

>  <SCORE.INTRA.VDW>
4.76667

>  <SCORE.INTRA.VDW.0>
-6.17816

>  <SCORE.INTRA.norm>
-0.0277079

>  <SCORE.RESTR>
0

>  <SCORE.RESTR.CAVITY>
0

>  <SCORE.RESTR.norm>
0

>  <SCORE.SYSTEM>
0

>  <SCORE.SYSTEM.CONST>
0

>  <SCORE.SYSTEM.DIHEDRAL>
0

>  <SCORE.SYSTEM.SOLV>
0

>  <SCORE.SYSTEM.norm>
0

>  <SCORE.heavy>
42

>  <SCORE.norm>
-0.538108

>  <RMSD>
5.633

$$$$
2o3w_lig
 OpenBabel11021811463D
libRbt.so/2013.1/901 2013/11/27
 42 45  0  0  0  0  0  0  0  0999 V2000
    7.3210    3.0553    5.2611 C   0  0  2  0  0  0  0  0  0  0  0  0
    7.5561    4.4566    5.0412 O   0  0  0  0  0  0  0  0  0  0  0  0
    3.6644    5.4523    3.4104 C   0  0  2  0  0  0  0  0  0  0  0  0
    2.5355    6.1741    2.7509 N   0  0  0  0  0  0  0  0  0  0  0  0
    7.5752    5.9698    1.5237 C   0  0  1  0  0  0  0  0  0  0  0  0
    7.4440    8.4685   -0.1084 C   0  0  1  0  0  0  0  0  0  0  0  0
    8.4887    2.5321    6.1504 C   0  0  2  0  0  0  0  0  0  0  0  0
    8.7135    3.3739    7.3385 N   0  0  0  0  0  0  0  0  0  0  0  0
    4.1124    6.1810    4.7409 C   0  0  0  0  0  0  0  0  0  0  0  0
    7.8595    7.1429    2.5105 C   0  0  2  0  0  0  0  0  0  0  0  0
    6.6838    7.9104    2.8678 O   0  0  0  0  0  0  0  0  0  0  0  0
    8.0946    7.6797   -1.3015 C   0  0  2  0  0  0  0  0  0  0  0  0
    9.1586    8.4937   -1.9620 N   0  0  0  0  0  0  0  0  0  0  0  0
    9.8246    2.4750    5.3867 C   0  0  1  0  0  0  0  0  0  0  0  0
   10.8558    1.9535    6.2266 O   0  0  0  0  0  0  0  0  0  0  0  0
    5.2867    5.3631    5.4001 C   0  0  2  0  0  0  0  0  0  0  0  0
    5.7242    6.0137    6.6646 N   0  0  0  0  0  0  0  0  0  0  0  0
    8.9465    7.9094    1.7553 C   0  0  2  0  0  0  0  0  0  0  0  0
    8.3739    8.9314    0.8788 O   0  0  0  0  0  0  0  0  0  0  0  0
    6.9533    7.2669   -2.3473 C   0  0  1  0  0  0  0  0  0  0  0  0
    6.1690    6.1921   -1.7828 O   0  0  0  0  0  0  0  0  0  0  0  0
    9.6520    1.6223    4.1091 C   0  0  2  0  0  0  0  0  0  0  0  0
   10.8709    1.5462    3.4070 O   0  0  0  0  0  0  0  0  0  0  0  0
    6.5123    5.2516    4.4096 C   0  0  2  0  0  0  0  0  0  0  0  0
    9.7259    6.8568    0.9491 C   0  0  2  0  0  0  0  0  0  0  0  0
    8.7357    5.8709    0.6666 O   0  0  0  0  0  0  0  0  0  0  0  0
    5.9903    8.4886   -2.7315 C   0  0  2  0  0  0  0  0  0  0  0  0
    6.7539    9.4118   -3.5068 O   0  0  0  0  0  0  0  0  0  0  0  0
    8.5377    2.2617    3.2151 C   0  0  2  0  0  0  0  0  0  0  0  0
    7.2863    2.3383    3.9686 O   0  0  0  0  0  0  0  0  0  0  0  0
    6.1355    4.5985    3.0617 C   0  0  2  0  0  0  0  0  0  0  0  0
    7.3143    4.7459    2.2231 O   0  0  0  0  0  0  0  0  0  0  0  0
   10.9463    6.2299    1.6919 C   0  0  0  0  0  0  0  0  0  0  0  0
   10.4772    5.3987    2.7492 O   0  0  0  0  0  0  0  0  0  0  0  0
    5.4393    9.1914   -1.4336 C   0  0  1  0  0  0  0  0  0  0  0  0
    6.6219    9.6129   -0.6630 O   0  0  0  0  0  0  0  0  0  0  0  0
    8.2972    1.4850    1.9413 C   0  0  0  0  0  0  0  0  0  0  0  0
    7.6847    0.2525    2.2332 O   0  0  0  0  0  0  0  0  0  0  0  0
    4.8917    5.3441    2.4192 C   0  0  1  0  0  0  0  0  0  0  0  0
    4.4491    4.6483    1.2506 O   0  0  0  0  0  0  0  0  0  0  0  0
    4.4983   10.4401   -1.7232 C   0  0  0  0  0  0  0  0  0  0  0  0
    3.8963   11.0827   -0.5227 N   0  0  0  0  0  0  0  0  0  0  0  0
  1  2  1  6  0  0  0
  1  7  1  0  0  0  0
  1 30  1  0  0  0  0
  3  4  1  6  0  0  0
  3  9  1  0  0  0  0
  3 39  1  0  0  0  0
  5 10  1  0  0  0  0
  5 26  1  0  0  0  0
  5 32  1  1  0  0  0
  6 12  1  0  0  0  0
  6 36  1  0  0  0  0
  6 19  1  1  0  0  0
  7  8  1  1  0  0  0
  7 14  1  0  0  0  0
  9 16  1  0  0  0  0
 10 11  1  6  0  0  0
 10 18  1  0  0  0  0
 12 13  1  6  0  0  0
 12 20  1  0  0  0  0
 14 15  1  1  0  0  0
 14 22  1  0  0  0  0
 16 17  1  1  0  0  0
 16 24  1  0  0  0  0
 18 19  1  6  0  0  0
 18 25  1  0  0  0  0
 20 21  1  1  0  0  0
 20 27  1  0  0  0  0
 22 23  1  6  0  0  0
 22 29  1  0  0  0  0
 24  2  1  1  0  0  0
 24 31  1  0  0  0  0
 25 26  1  0  0  0  0
 25 33  1  1  0  0  0
 27 28  1  6  0  0  0
 27 35  1  0  0  0  0
 29 30  1  0  0  0  0
 29 37  1  6  0  0  0
 31 32  1  6  0  0  0
 31 39  1  0  0  0  0
 33 34  1  0  0  0  0
 35 36  1  0  0  0  0
 35 41  1  6  0  0  0
 37 38  1  0  0  0  0
 39 40  1  6  0  0  0
 41 42  1  0  0  0  0
M  END
>  <CHROM.1>
-170.74822944,65.55037313,-72.78051518,-57.77186920,68.11854729,69.76481484
69.80774508,-82.00695977,176.66632326,7.31331140,5.68694402,2.08238316,1.29015116
-0.43467538,2.24508639

>  <Name>
2o3w_lig

>  <RI>
0

>  <Rbt.Current_Directory>
/home/itssahil/PROJECTS/Mol_Feturizer/New_Systems/rnas/2o3w

>  <Rbt.Executable>
rbdock ($Id: //depot/dev/client3/rdock/2013.1/src/exe/rbdock.cxx#4 $)

>  <Rbt.Library>
libRbt.so (2013.1, Build901 2013/11/27)

>  <Rbt.Parameter_File>
/export/apps/rDock/src/rDock_2013.1_src/data/scripts/dock_solv.prm

>  <Rbt.Receptor>
prm/pocket_docking_6.prm

>  <SCORE>
-25.0334

>  <SCORE.INTER>
-16.5758

>  <SCORE.INTER.CONST>
1

>  <SCORE.INTER.POLAR>
-3.50257

>  <SCORE.INTER.ROT>
9

>  <SCORE.INTER.SOLV>
21.4499

>  <SCORE.INTER.VDW>
-16.1252

>  <SCORE.INTER.norm>
-0.394661

>  <SCORE.INTRA>
-8.45763

>  <SCORE.INTRA.DIHEDRAL>
-23.2357

>  <SCORE.INTRA.DIHEDRAL.0>
27.8999

>  <SCORE.INTRA.POLAR>
0

>  <SCORE.INTRA.POLAR.0>
0

>  <SCORE.INTRA.REPUL>
0.131861

>  <SCORE.INTRA.REPUL.0>
0

>  <SCORE.INTRA.SOLV>
-1.27135

>  <SCORE.INTRA.SOLV.lig_0>
-104.479

>  <SCORE.INTRA.VDW>
3.13661

>  <SCORE.INTRA.VDW.0>
-6.17816

>  <SCORE.INTRA.norm>
-0.201372

>  <SCORE.RESTR>
0

>  <SCORE.RESTR.CAVITY>
0

>  <SCORE.RESTR.norm>
0

>  <SCORE.SYSTEM>
0

>  <SCORE.SYSTEM.CONST>
0

>  <SCORE.SYSTEM.DIHEDRAL>
0

>  <SCORE.SYSTEM.SOLV>
0

>  <SCORE.SYSTEM.norm>
0

>  <SCORE.heavy>
42

>  <SCORE.norm>
-0.596033

>  <RMSD>
5.634

$$$$
2o3w_lig
 OpenBabel11021811463D
libRbt.so/2013.1/901 2013/11/27
 42 45  0  0  0  0  0  0  0  0999 V2000
    9.3327    3.9317    6.9643 C   0  0  2  0  0  0  0  0  0  0  0  0
    9.1086    3.3635    5.6626 O   0  0  0  0  0  0  0  0  0  0  0  0
    8.3479   -0.7675    4.5895 C   0  0  2  0  0  0  0  0  0  0  0  0
    7.6955   -2.0993    4.4127 N   0  0  0  0  0  0  0  0  0  0  0  0
    7.4526    3.7510    2.6189 C   0  0  1  0  0  0  0  0  0  0  0  0
    7.5506    5.8608   -1.2421 C   0  0  1  0  0  0  0  0  0  0  0  0
    7.9612    4.4760    7.4654 C   0  0  2  0  0  0  0  0  0  0  0  0
    6.8802    3.4830    7.3386 N   0  0  0  0  0  0  0  0  0  0  0  0
    8.5654   -0.4336    6.1202 C   0  0  0  0  0  0  0  0  0  0  0  0
    7.6568    3.0141    1.2602 C   0  0  2  0  0  0  0  0  0  0  0  0
    9.0334    2.6560    0.9850 O   0  0  0  0  0  0  0  0  0  0  0  0
    8.6842    6.7130   -1.9184 C   0  0  2  0  0  0  0  0  0  0  0  0
    9.4545    7.4830   -0.8963 N   0  0  0  0  0  0  0  0  0  0  0  0
    7.5098    5.7265    6.6885 C   0  0  1  0  0  0  0  0  0  0  0  0
    6.2706    6.2133    7.2064 O   0  0  0  0  0  0  0  0  0  0  0  0
    9.2750    0.9680    6.2409 C   0  0  2  0  0  0  0  0  0  0  0  0
    9.5087    1.3081    7.6703 N   0  0  0  0  0  0  0  0  0  0  0  0
    7.0234    4.0079    0.2852 C   0  0  2  0  0  0  0  0  0  0  0  0
    8.0051    4.9705   -0.2153 O   0  0  0  0  0  0  0  0  0  0  0  0
    8.0320    7.6924   -3.0057 C   0  0  1  0  0  0  0  0  0  0  0  0
    7.6342    6.9140   -4.1567 O   0  0  0  0  0  0  0  0  0  0  0  0
    8.6145    6.8052    6.7609 C   0  0  2  0  0  0  0  0  0  0  0  0
    8.2095    7.9631    6.0684 O   0  0  0  0  0  0  0  0  0  0  0  0
    8.3996    2.0955    5.5640 C   0  0  2  0  0  0  0  0  0  0  0  0
    5.9008    4.7118    1.0661 C   0  0  2  0  0  0  0  0  0  0  0  0
    6.3902    4.7085    2.4051 O   0  0  0  0  0  0  0  0  0  0  0  0
    6.7671    8.4965   -2.4393 C   0  0  2  0  0  0  0  0  0  0  0  0
    7.2480    9.4340   -1.4769 O   0  0  0  0  0  0  0  0  0  0  0  0
    9.9335    6.2271    6.1481 C   0  0  2  0  0  0  0  0  0  0  0  0
   10.3277    5.0217    6.8771 O   0  0  0  0  0  0  0  0  0  0  0  0
    8.0980    1.8077    4.0769 C   0  0  2  0  0  0  0  0  0  0  0  0
    7.1465    2.8312    3.6751 O   0  0  0  0  0  0  0  0  0  0  0  0
    4.5045    4.0216    0.9771 C   0  0  0  0  0  0  0  0  0  0  0  0
    4.5858    2.7199    1.5497 O   0  0  0  0  0  0  0  0  0  0  0  0
    5.7353    7.5106   -1.7717 C   0  0  1  0  0  0  0  0  0  0  0  0
    6.4768    6.7924   -0.7206 O   0  0  0  0  0  0  0  0  0  0  0  0
   11.0742    7.2176    6.1838 C   0  0  0  0  0  0  0  0  0  0  0  0
   10.7672    8.3396    5.3925 O   0  0  0  0  0  0  0  0  0  0  0  0
    7.4693    0.3607    3.9143 C   0  0  1  0  0  0  0  0  0  0  0  0
    7.3311    0.0356    2.5284 O   0  0  0  0  0  0  0  0  0  0  0  0
    4.4604    8.2302   -1.1509 C   0  0  0  0  0  0  0  0  0  0  0  0
    3.5863    8.9406   -2.1245 N   0  0  0  0  0  0  0  0  0  0  0  0
  1  2  1  6  0  0  0
  1  7  1  0  0  0  0
  1 30  1  0  0  0  0
  3  4  1  1  0  0  0
  3  9  1  0  0  0  0
  3 39  1  0  0  0  0
  5 10  1  0  0  0  0
  5 26  1  0  0  0  0
  5 32  1  1  0  0  0
  6 12  1  0  0  0  0
  6 36  1  0  0  0  0
  6 19  1  1  0  0  0
  7  8  1  6  0  0  0
  7 14  1  0  0  0  0
  9 16  1  0  0  0  0
 10 11  1  6  0  0  0
 10 18  1  0  0  0  0
 12 13  1  1  0  0  0
 12 20  1  0  0  0  0
 14 15  1  1  0  0  0
 14 22  1  0  0  0  0
 16 17  1  1  0  0  0
 16 24  1  0  0  0  0
 18 19  1  1  0  0  0
 18 25  1  0  0  0  0
 20 21  1  6  0  0  0
 20 27  1  0  0  0  0
 22 23  1  6  0  0  0
 22 29  1  0  0  0  0
 24  2  1  6  0  0  0
 24 31  1  0  0  0  0
 25 26  1  0  0  0  0
 25 33  1  1  0  0  0
 27 28  1  1  0  0  0
 27 35  1  0  0  0  0
 29 30  1  0  0  0  0
 29 37  1  1  0  0  0
 31 32  1  1  0  0  0
 31 39  1  0  0  0  0
 33 34  1  0  0  0  0
 35 36  1  0  0  0  0
 35 41  1  1  0  0  0
 37 38  1  0  0  0  0
 39 40  1  6  0  0  0
 41 42  1  0  0  0  0
M  END
>  <CHROM.1>
-73.14222753,62.62415846,-170.37963238,173.71520937,-65.23691031,62.49663671
-63.18529125,119.94401549,63.56226904,7.71095489,4.63899039,2.78799579,-0.89967802
-1.23919450,-0.38478828

>  <Name>
2o3w_lig

>  <RI>
0

>  <Rbt.Current_Directory>
/home/itssahil/PROJECTS/Mol_Feturizer/New_Systems/rnas/2o3w

>  <Rbt.Executable>
rbdock ($Id: //depot/dev/client3/rdock/2013.1/src/exe/rbdock.cxx#4 $)

>  <Rbt.Library>
libRbt.so (2013.1, Build901 2013/11/27)

>  <Rbt.Parameter_File>
/export/apps/rDock/src/rDock_2013.1_src/data/scripts/dock_solv.prm

>  <Rbt.Receptor>
prm/pocket_docking_7.prm

>  <SCORE>
-23.7198

>  <SCORE.INTER>
-17.145

>  <SCORE.INTER.CONST>
1

>  <SCORE.INTER.POLAR>
-3.78677

>  <SCORE.INTER.ROT>
9

>  <SCORE.INTER.SOLV>
16.1252

>  <SCORE.INTER.VDW>
-13.7825

>  <SCORE.INTER.norm>
-0.408214

>  <SCORE.INTRA>
-6.57485

>  <SCORE.INTRA.DIHEDRAL>
-18.8349

>  <SCORE.INTRA.DIHEDRAL.0>
27.8999

>  <SCORE.INTRA.POLAR>
0

>  <SCORE.INTRA.POLAR.0>
0

>  <SCORE.INTRA.REPUL>
0

>  <SCORE.INTRA.REPUL.0>
0

>  <SCORE.INTRA.SOLV>
-0.171551

>  <SCORE.INTRA.SOLV.lig_0>
-104.479

>  <SCORE.INTRA.VDW>
2.92836

>  <SCORE.INTRA.VDW.0>
-6.17816

>  <SCORE.INTRA.norm>
-0.156544

>  <SCORE.RESTR>
0

>  <SCORE.RESTR.CAVITY>
0

>  <SCORE.RESTR.norm>
0

>  <SCORE.SYSTEM>
0

>  <SCORE.SYSTEM.CONST>
0

>  <SCORE.SYSTEM.DIHEDRAL>
0

>  <SCORE.SYSTEM.SOLV>
0

>  <SCORE.SYSTEM.norm>
0

>  <SCORE.heavy>
42

>  <SCORE.norm>
-0.564758

>  <RMSD>
5.652

$$$$
2o3w_lig
 OpenBabel11021811463D
libRbt.so/2013.1/901 2013/11/27
 42 45  0  0  0  0  0  0  0  0999 V2000
   10.6216   -1.3394    6.2925 C   0  0  2  0  0  0  0  0  0  0  0  0
   10.3197   -1.4092    4.8885 O   0  0  0  0  0  0  0  0  0  0  0  0
    9.4318   -4.7949    2.3302 C   0  0  2  0  0  0  0  0  0  0  0  0
    8.7718   -5.9861    1.7171 N   0  0  0  0  0  0  0  0  0  0  0  0
    8.4243    0.1026    3.5248 C   0  0  1  0  0  0  0  0  0  0  0  0
    9.9682    4.3259    3.0494 C   0  0  1  0  0  0  0  0  0  0  0  0
    9.4816   -0.5150    6.9626 C   0  0  2  0  0  0  0  0  0  0  0  0
    8.1412   -0.9943    6.5829 N   0  0  0  0  0  0  0  0  0  0  0  0
    9.8953   -5.0950    3.8124 C   0  0  0  0  0  0  0  0  0  0  0  0
    9.4583    0.7007    2.5229 C   0  0  2  0  0  0  0  0  0  0  0  0
   10.8394    0.5084    2.9165 O   0  0  0  0  0  0  0  0  0  0  0  0
   10.7863    5.1474    4.1098 C   0  0  2  0  0  0  0  0  0  0  0  0
   10.0773    5.1772    5.4241 N   0  0  0  0  0  0  0  0  0  0  0  0
    9.5426    0.9775    6.5890 C   0  0  1  0  0  0  0  0  0  0  0  0
    8.5057    1.6998    7.2554 O   0  0  0  0  0  0  0  0  0  0  0  0
   10.6018   -3.8130    4.3955 C   0  0  2  0  0  0  0  0  0  0  0  0
   11.0647   -4.0651    5.7869 N   0  0  0  0  0  0  0  0  0  0  0  0
    8.9885    2.1540    2.4434 C   0  0  2  0  0  0  0  0  0  0  0  0
    9.6466    2.9879    3.4496 O   0  0  0  0  0  0  0  0  0  0  0  0
   11.0321    6.6301    3.5548 C   0  0  1  0  0  0  0  0  0  0  0  0
   12.0286    6.5784    2.5093 O   0  0  0  0  0  0  0  0  0  0  0  0
   10.9385    1.5404    6.9408 C   0  0  2  0  0  0  0  0  0  0  0  0
   11.0051    2.9106    6.6202 O   0  0  0  0  0  0  0  0  0  0  0  0
    9.6162   -2.5784    4.3802 C   0  0  2  0  0  0  0  0  0  0  0  0
    7.4658    2.1202    2.6570 C   0  0  2  0  0  0  0  0  0  0  0  0
    7.2868    0.9954    3.5145 O   0  0  0  0  0  0  0  0  0  0  0  0
    9.6969    7.3120    2.9893 C   0  0  2  0  0  0  0  0  0  0  0  0
    8.8415    7.5721    4.1016 O   0  0  0  0  0  0  0  0  0  0  0  0
   12.0266    0.7351    6.1553 C   0  0  2  0  0  0  0  0  0  0  0  0
   11.9308   -0.6839    6.4974 O   0  0  0  0  0  0  0  0  0  0  0  0
    9.0764   -2.2604    2.9686 C   0  0  2  0  0  0  0  0  0  0  0  0
    8.0620   -1.2380    3.1688 O   0  0  0  0  0  0  0  0  0  0  0  0
    6.6216    1.9721    1.3533 C   0  0  0  0  0  0  0  0  0  0  0  0
    5.2438    1.8559    1.6958 O   0  0  0  0  0  0  0  0  0  0  0  0
    8.9789    6.3589    1.9605 C   0  0  1  0  0  0  0  0  0  0  0  0
    8.7201    5.1001    2.6806 O   0  0  0  0  0  0  0  0  0  0  0  0
   13.4292    1.2167    6.4457 C   0  0  0  0  0  0  0  0  0  0  0  0
   13.7063    1.1022    7.8203 O   0  0  0  0  0  0  0  0  0  0  0  0
    8.4433   -3.5607    2.3172 C   0  0  1  0  0  0  0  0  0  0  0  0
    8.0817   -3.3052    0.9572 O   0  0  0  0  0  0  0  0  0  0  0  0
    7.6225    6.9447    1.3727 C   0  0  0  0  0  0  0  0  0  0  0  0
    6.9756    6.1253    0.3113 N   0  0  0  0  0  0  0  0  0  0  0  0
  1  2  1  6  0  0  0
  1  7  1  0  0  0  0
  1 30  1  0  0  0  0
  3  4  1  1  0  0  0
  3  9  1  0  0  0  0
  3 39  1  0  0  0  0
  5 10  1  0  0  0  0
  5 26  1  0  0  0  0
  5 32  1  6  0  0  0
  6 12  1  0  0  0  0
  6 36  1  0  0  0  0
  6 19  1  1  0  0  0
  7  8  1  6  0  0  0
  7 14  1  0  0  0  0
  9 16  1  0  0  0  0
 10 11  1  1  0  0  0
 10 18  1  0  0  0  0
 12 13  1  1  0  0  0
 12 20  1  0  0  0  0
 14 15  1  1  0  0  0
 14 22  1  0  0  0  0
 16 17  1  1  0  0  0
 16 24  1  0  0  0  0
 18 19  1  1  0  0  0
 18 25  1  0  0  0  0
 20 21  1  6  0  0  0
 20 27  1  0  0  0  0
 22 23  1  6  0  0  0
 22 29  1  0  0  0  0
 24  2  1  6  0  0  0
 24 31  1  0  0  0  0
 25 26  1  0  0  0  0
 25 33  1  6  0  0  0
 27 28  1  1  0  0  0
 27 35  1  0  0  0  0
 29 30  1  0  0  0  0
 29 37  1  1  0  0  0
 31 32  1  1  0  0  0
 31 39  1  0  0  0  0
 33 34  1  0  0  0  0
 35 36  1  0  0  0  0
 35 41  1  1  0  0  0
 37 38  1  0  0  0  0
 39 40  1  6  0  0  0
 41 42  1  0  0  0  0
M  END
>  <CHROM.1>
-95.53489498,53.83011743,-174.81598760,143.46061073,-71.89870157,175.78701556
59.15940682,71.80696660,174.98466696,9.55349737,1.20433515,3.98374966,-1.50891610
-0.87515747,-0.06487078

>  <Name>
2o3w_lig

>  <RI>
0

>  <Rbt.Current_Directory>
/home/itssahil/PROJECTS/Mol_Feturizer/New_Systems/rnas/2o3w

>  <Rbt.Executable>
rbdock ($Id: //depot/dev/client3/rdock/2013.1/src/exe/rbdock.cxx#4 $)

>  <Rbt.Library>
libRbt.so (2013.1, Build901 2013/11/27)

>  <Rbt.Parameter_File>
/export/apps/rDock/src/rDock_2013.1_src/data/scripts/dock_solv.prm

>  <Rbt.Receptor>
prm/pocket_docking_3.prm

>  <SCORE>
-9.07402

>  <SCORE.INTER>
-1.25068

>  <SCORE.INTER.CONST>
1

>  <SCORE.INTER.POLAR>
0

>  <SCORE.INTER.ROT>
9

>  <SCORE.INTER.SOLV>
6.63246

>  <SCORE.INTER.VDW>
-12.6446

>  <SCORE.INTER.norm>
-0.029778

>  <SCORE.INTRA>
-7.83532

>  <SCORE.INTRA.DIHEDRAL>
-16.5164

>  <SCORE.INTRA.DIHEDRAL.0>
27.8999

>  <SCORE.INTRA.POLAR>
0

>  <SCORE.INTRA.POLAR.0>
0

>  <SCORE.INTRA.REPUL>
0

>  <SCORE.INTRA.REPUL.0>
0

>  <SCORE.INTRA.SOLV>
0.98887

>  <SCORE.INTRA.SOLV.lig_0>
-104.479

>  <SCORE.INTRA.VDW>
-0.0715649

>  <SCORE.INTRA.VDW.0>
-6.17816

>  <SCORE.INTRA.norm>
-0.186555

>  <SCORE.RESTR>
0.0119837

>  <SCORE.RESTR.CAVITY>
0.0119837

>  <SCORE.RESTR.norm>
0.000285327

>  <SCORE.SYSTEM>
0

>  <SCORE.SYSTEM.CONST>
0

>  <SCORE.SYSTEM.DIHEDRAL>
0

>  <SCORE.SYSTEM.SOLV>
0

>  <SCORE.SYSTEM.norm>
0

>  <SCORE.heavy>
42

>  <SCORE.norm>
-0.216048

>  <RMSD>
5.658

$$$$
2o3w_lig
 OpenBabel11021811463D
libRbt.so/2013.1/901 2013/11/27
 42 45  0  0  0  0  0  0  0  0999 V2000
    7.9402    4.0122    5.4836 C   0  0  2  0  0  0  0  0  0  0  0  0
    8.6669    3.9660    4.2439 O   0  0  0  0  0  0  0  0  0  0  0  0
   11.6661    6.9731    5.1146 C   0  0  2  0  0  0  0  0  0  0  0  0
   12.8981    7.8160    5.0665 N   0  0  0  0  0  0  0  0  0  0  0  0
    8.5403    7.1992    1.6716 C   0  0  1  0  0  0  0  0  0  0  0  0
    6.9400    9.3421   -1.8745 C   0  0  1  0  0  0  0  0  0  0  0  0
    6.7744    2.9850    5.3663 C   0  0  2  0  0  0  0  0  0  0  0  0
    7.2315    1.6643    4.9000 N   0  0  0  0  0  0  0  0  0  0  0  0
   12.0134    5.4681    5.4554 C   0  0  0  0  0  0  0  0  0  0  0  0
    8.2436    6.8859    0.1735 C   0  0  2  0  0  0  0  0  0  0  0  0
    9.3422    7.1897   -0.7209 O   0  0  0  0  0  0  0  0  0  0  0  0
    5.7999   10.4056   -2.0692 C   0  0  2  0  0  0  0  0  0  0  0  0
    4.5595    9.9966   -1.3445 N   0  0  0  0  0  0  0  0  0  0  0  0
    5.6827    3.4497    4.3849 C   0  0  1  0  0  0  0  0  0  0  0  0
    4.6176    2.4987    4.3389 O   0  0  0  0  0  0  0  0  0  0  0  0
   10.6763    4.6366    5.5141 C   0  0  2  0  0  0  0  0  0  0  0  0
   10.9649    3.2156    5.8475 N   0  0  0  0  0  0  0  0  0  0  0  0
    6.9642    7.6933   -0.0511 C   0  0  2  0  0  0  0  0  0  0  0  0
    7.2585    9.0519   -0.5077 O   0  0  0  0  0  0  0  0  0  0  0  0
    5.5158   10.5954   -3.6345 C   0  0  1  0  0  0  0  0  0  0  0  0
    6.6064   11.3414   -4.2202 O   0  0  0  0  0  0  0  0  0  0  0  0
    5.1735    4.8476    4.8043 C   0  0  2  0  0  0  0  0  0  0  0  0
    4.1614    5.2803    3.9252 O   0  0  0  0  0  0  0  0  0  0  0  0
    9.9123    4.7124    4.1334 C   0  0  2  0  0  0  0  0  0  0  0  0
    6.2281    7.7065    1.2993 C   0  0  2  0  0  0  0  0  0  0  0  0
    7.2928    7.6520    2.2458 O   0  0  0  0  0  0  0  0  0  0  0  0
    5.3421    9.2032   -4.4085 C   0  0  2  0  0  0  0  0  0  0  0  0
    4.1147    8.6189   -3.9743 O   0  0  0  0  0  0  0  0  0  0  0  0
    6.3749    5.8507    4.8011 C   0  0  2  0  0  0  0  0  0  0  0  0
    7.4152    5.3751    5.7129 O   0  0  0  0  0  0  0  0  0  0  0  0
    9.5887    6.1611    3.7068 C   0  0  2  0  0  0  0  0  0  0  0  0
    9.0649    6.0531    2.3546 O   0  0  0  0  0  0  0  0  0  0  0  0
    5.2255    6.5305    1.5138 C   0  0  0  0  0  0  0  0  0  0  0  0
    4.2442    6.5547    0.4817 O   0  0  0  0  0  0  0  0  0  0  0  0
    6.5469    8.2381   -4.0936 C   0  0  1  0  0  0  0  0  0  0  0  0
    6.5736    8.0814   -2.6290 O   0  0  0  0  0  0  0  0  0  0  0  0
    5.9669    7.2479    5.2075 C   0  0  0  0  0  0  0  0  0  0  0  0
    7.0810    8.1065    5.1772 O   0  0  0  0  0  0  0  0  0  0  0  0
   10.9039    7.0472    3.7311 C   0  0  1  0  0  0  0  0  0  0  0  0
   10.5798    8.4182    3.4841 O   0  0  0  0  0  0  0  0  0  0  0  0
    6.4384    6.8160   -4.7966 C   0  0  0  0  0  0  0  0  0  0  0  0
    6.7465    6.7944   -6.2531 N   0  0  0  0  0  0  0  0  0  0  0  0
  1  2  1  6  0  0  0
  1  7  1  0  0  0  0
  1 30  1  0  0  0  0
  3  4  1  6  0  0  0
  3  9  1  0  0  0  0
  3 39  1  0  0  0  0
  5 10  1  0  0  0  0
  5 26  1  0  0  0  0
  5 32  1  1  0  0  0
  6 12  1  0  0  0  0
  6 36  1  0  0  0  0
  6 19  1  1  0  0  0
  7  8  1  6  0  0  0
  7 14  1  0  0  0  0
  9 16  1  0  0  0  0
 10 11  1  6  0  0  0
 10 18  1  0  0  0  0
 12 13  1  1  0  0  0
 12 20  1  0  0  0  0
 14 15  1  1  0  0  0
 14 22  1  0  0  0  0
 16 17  1  6  0  0  0
 16 24  1  0  0  0  0
 18 19  1  1  0  0  0
 18 25  1  0  0  0  0
 20 21  1  6  0  0  0
 20 27  1  0  0  0  0
 22 23  1  6  0  0  0
 22 29  1  0  0  0  0
 24  2  1  1  0  0  0
 24 31  1  0  0  0  0
 25 26  1  0  0  0  0
 25 33  1  6  0  0  0
 27 28  1  1  0  0  0
 27 35  1  0  0  0  0
 29 30  1  0  0  0  0
 29 37  1  1  0  0  0
 31 32  1  6  0  0  0
 31 39  1  0  0  0  0
 33 34  1  0  0  0  0
 35 36  1  0  0  0  0
 35 41  1  6  0  0  0
 37 38  1  0  0  0  0
 39 40  1  1  0  0  0
 41 42  1  0  0  0  0
M  END
>  <CHROM.1>
-172.68292478,171.28957164,114.43072905,108.92169628,36.96687003,-58.61488323
-179.55851962,174.30166855,75.65621877,7.44323448,6.72015687,1.64105738,1.26297641
0.35842820,2.13192271

>  <Name>
2o3w_lig

>  <RI>
0

>  <Rbt.Current_Directory>
/home/itssahil/PROJECTS/Mol_Feturizer/New_Systems/rnas/2o3w

>  <Rbt.Executable>
rbdock ($Id: //depot/dev/client3/rdock/2013.1/src/exe/rbdock.cxx#4 $)

>  <Rbt.Library>
libRbt.so (2013.1, Build901 2013/11/27)

>  <Rbt.Parameter_File>
/export/apps/rDock/src/rDock_2013.1_src/data/scripts/dock_solv.prm

>  <Rbt.Receptor>
prm/pocket_docking_8.prm

>  <SCORE>
-24.4792

>  <SCORE.INTER>
-19.1343

>  <SCORE.INTER.CONST>
1

>  <SCORE.INTER.POLAR>
-4.01189

>  <SCORE.INTER.ROT>
9

>  <SCORE.INTER.SOLV>
14.9498

>  <SCORE.INTER.VDW>
-13.9665

>  <SCORE.INTER.norm>
-0.455578

>  <SCORE.INTRA>
-5.34492

>  <SCORE.INTRA.DIHEDRAL>
-10.2935

>  <SCORE.INTRA.DIHEDRAL.0>
27.8999

>  <SCORE.INTRA.POLAR>
0

>  <SCORE.INTRA.POLAR.0>
0

>  <SCORE.INTRA.REPUL>
0

>  <SCORE.INTRA.REPUL.0>
0

>  <SCORE.INTRA.SOLV>
-2.49599

>  <SCORE.INTRA.SOLV.lig_0>
-104.479

>  <SCORE.INTRA.VDW>
1.04985

>  <SCORE.INTRA.VDW.0>
-6.17816

>  <SCORE.INTRA.norm>
-0.12726

>  <SCORE.RESTR>
0

>  <SCORE.RESTR.CAVITY>
0

>  <SCORE.RESTR.norm>
0

>  <SCORE.SYSTEM>
0

>  <SCORE.SYSTEM.CONST>
0

>  <SCORE.SYSTEM.DIHEDRAL>
0

>  <SCORE.SYSTEM.SOLV>
0

>  <SCORE.SYSTEM.norm>
0

>  <SCORE.heavy>
42

>  <SCORE.norm>
-0.582838

>  <RMSD>
5.663

$$$$
2o3w_lig
 OpenBabel11021811463D
libRbt.so/2013.1/901 2013/11/27
 42 45  0  0  0  0  0  0  0  0999 V2000
    9.4716    2.0172    7.3694 C   0  0  2  0  0  0  0  0  0  0  0  0
    9.0933    2.2522    6.0023 O   0  0  0  0  0  0  0  0  0  0  0  0
    6.3432    0.2197    3.3372 C   0  0  2  0  0  0  0  0  0  0  0  0
    5.1073   -0.3665    2.7379 N   0  0  0  0  0  0  0  0  0  0  0  0
    7.4791    4.9453    3.9169 C   0  0  1  0  0  0  0  0  0  0  0  0
    7.4091    7.0687    0.3153 C   0  0  1  0  0  0  0  0  0  0  0  0
    8.6752    3.0326    8.2428 C   0  0  2  0  0  0  0  0  0  0  0  0
    7.2352    3.0362    7.9315 N   0  0  0  0  0  0  0  0  0  0  0  0
    6.7215   -0.5017    4.6931 C   0  0  0  0  0  0  0  0  0  0  0  0
    6.6156    5.0718    2.6249 C   0  0  2  0  0  0  0  0  0  0  0  0
    7.1951    4.4281    1.4635 O   0  0  0  0  0  0  0  0  0  0  0  0
    8.6368    6.3734   -0.3760 C   0  0  2  0  0  0  0  0  0  0  0  0
    9.9094    7.0782   -0.0373 N   0  0  0  0  0  0  0  0  0  0  0  0
    9.1735    4.4779    8.0594 C   0  0  1  0  0  0  0  0  0  0  0  0
    8.4436    5.3670    8.9065 O   0  0  0  0  0  0  0  0  0  0  0  0
    8.0412    0.1432    5.2633 C   0  0  2  0  0  0  0  0  0  0  0  0
    8.4351   -0.5227    6.5341 N   0  0  0  0  0  0  0  0  0  0  0  0
    6.4485    6.5890    2.5268 C   0  0  2  0  0  0  0  0  0  0  0  0
    7.5197    7.1984    1.7381 O   0  0  0  0  0  0  0  0  0  0  0  0
    8.4020    6.3393   -1.9605 C   0  0  1  0  0  0  0  0  0  0  0  0
    7.3961    5.3464   -2.2625 O   0  0  0  0  0  0  0  0  0  0  0  0
   10.6906    4.5409    8.3486 C   0  0  2  0  0  0  0  0  0  0  0  0
   11.1592    5.8612    8.2012 O   0  0  0  0  0  0  0  0  0  0  0  0
    7.8415    1.6900    5.5150 C   0  0  2  0  0  0  0  0  0  0  0  0
    6.4553    7.1112    3.9734 C   0  0  2  0  0  0  0  0  0  0  0  0
    7.3001    6.1809    4.6466 O   0  0  0  0  0  0  0  0  0  0  0  0
    7.9499    7.7578   -2.5530 C   0  0  2  0  0  0  0  0  0  0  0  0
    9.0675    8.6401   -2.4587 O   0  0  0  0  0  0  0  0  0  0  0  0
   11.4377    3.5762    7.3684 C   0  0  2  0  0  0  0  0  0  0  0  0
   10.9274    2.2153    7.5335 O   0  0  0  0  0  0  0  0  0  0  0  0
    7.4144    2.4536    4.2423 C   0  0  2  0  0  0  0  0  0  0  0  0
    7.1006    3.8003    4.6922 O   0  0  0  0  0  0  0  0  0  0  0  0
    5.0525    7.1885    4.6518 C   0  0  0  0  0  0  0  0  0  0  0  0
    4.5571    5.8693    4.8595 O   0  0  0  0  0  0  0  0  0  0  0  0
    6.7292    8.3354   -1.7416 C   0  0  1  0  0  0  0  0  0  0  0  0
    7.1707    8.4137   -0.3384 O   0  0  0  0  0  0  0  0  0  0  0  0
   12.9331    3.5698    7.5861 C   0  0  0  0  0  0  0  0  0  0  0  0
   13.2309    3.1457    8.8941 O   0  0  0  0  0  0  0  0  0  0  0  0
    6.1411    1.7673    3.5916 C   0  0  1  0  0  0  0  0  0  0  0  0
    5.8379    2.3803    2.3355 O   0  0  0  0  0  0  0  0  0  0  0  0
    6.2351    9.7614   -2.2427 C   0  0  0  0  0  0  0  0  0  0  0  0
    5.0310   10.3024   -1.5542 N   0  0  0  0  0  0  0  0  0  0  0  0
  1  2  1  6  0  0  0
  1  7  1  0  0  0  0
  1 30  1  0  0  0  0
  3  4  1  1  0  0  0
  3  9  1  0  0  0  0
  3 39  1  0  0  0  0
  5 10  1  0  0  0  0
  5 26  1  0  0  0  0
  5 32  1  1  0  0  0
  6 12  1  0  0  0  0
  6 36  1  0  0  0  0
  6 19  1  1  0  0  0
  7  8  1  6  0  0  0
  7 14  1  0  0  0  0
  9 16  1  0  0  0  0
 10 11  1  6  0  0  0
 10 18  1  0  0  0  0
 12 13  1  6  0  0  0
 12 20  1  0  0  0  0
 14 15  1  1  0  0  0
 14 22  1  0  0  0  0
 16 17  1  1  0  0  0
 16 24  1  0  0  0  0
 18 19  1  6  0  0  0
 18 25  1  0  0  0  0
 20 21  1  1  0  0  0
 20 27  1  0  0  0  0
 22 23  1  6  0  0  0
 22 29  1  0  0  0  0
 24  2  1  6  0  0  0
 24 31  1  0  0  0  0
 25 26  1  0  0  0  0
 25 33  1  1  0  0  0
 27 28  1  1  0  0  0
 27 35  1  0  0  0  0
 29 30  1  0  0  0  0
 29 37  1  1  0  0  0
 31 32  1  1  0  0  0
 31 39  1  0  0  0  0
 33 34  1  0  0  0  0
 35 36  1  0  0  0  0
 35 41  1  6  0  0  0
 37 38  1  0  0  0  0
 39 40  1  6  0  0  0
 41 42  1  0  0  0  0
M  END
>  <CHROM.1>
-80.33708660,71.66971347,-122.73536036,77.56231045,-76.26051968,68.17153903
60.39614800,139.86275737,176.41846652,7.96783857,4.65122085,3.64558628,-1.17593219
-0.90967223,-0.69716907

>  <Name>
2o3w_lig

>  <RI>
0

>  <Rbt.Current_Directory>
/home/itssahil/PROJECTS/Mol_Feturizer/New_Systems/rnas/2o3w

>  <Rbt.Executable>
rbdock ($Id: //depot/dev/client3/rdock/2013.1/src/exe/rbdock.cxx#4 $)

>  <Rbt.Library>
libRbt.so (2013.1, Build901 2013/11/27)

>  <Rbt.Parameter_File>
/export/apps/rDock/src/rDock_2013.1_src/data/scripts/dock_solv.prm

>  <Rbt.Receptor>
prm/pocket_docking_6.prm

>  <SCORE>
-19.9584

>  <SCORE.INTER>
-16.7573

>  <SCORE.INTER.CONST>
1

>  <SCORE.INTER.POLAR>
-3.0167

>  <SCORE.INTER.ROT>
9

>  <SCORE.INTER.SOLV>
15.0579

>  <SCORE.INTER.VDW>
-15.7351

>  <SCORE.INTER.norm>
-0.398982

>  <SCORE.INTRA>
-3.20119

>  <SCORE.INTRA.DIHEDRAL>
-9.87344

>  <SCORE.INTRA.DIHEDRAL.0>
27.8999

>  <SCORE.INTRA.POLAR>
0

>  <SCORE.INTRA.POLAR.0>
0

>  <SCORE.INTRA.REPUL>
0

>  <SCORE.INTRA.REPUL.0>
0

>  <SCORE.INTRA.SOLV>
-0.843782

>  <SCORE.INTRA.SOLV.lig_0>
-104.479

>  <SCORE.INTRA.VDW>
2.15741

>  <SCORE.INTRA.VDW.0>
-6.17816

>  <SCORE.INTRA.norm>
-0.0762189

>  <SCORE.RESTR>
0

>  <SCORE.RESTR.CAVITY>
0

>  <SCORE.RESTR.norm>
0

>  <SCORE.SYSTEM>
0

>  <SCORE.SYSTEM.CONST>
0

>  <SCORE.SYSTEM.DIHEDRAL>
0

>  <SCORE.SYSTEM.SOLV>
0

>  <SCORE.SYSTEM.norm>
0

>  <SCORE.heavy>
42

>  <SCORE.norm>
-0.475201

>  <RMSD>
5.670

$$$$
2o3w_lig
 OpenBabel11021811463D
libRbt.so/2013.1/901 2013/11/27
 42 45  0  0  0  0  0  0  0  0999 V2000
    5.2376    0.3149    3.4750 C   0  0  2  0  0  0  0  0  0  0  0  0
    5.4558   -0.8863    4.2345 O   0  0  0  0  0  0  0  0  0  0  0  0
    8.9263   -2.1695    6.4939 C   0  0  2  0  0  0  0  0  0  0  0  0
   10.3098   -2.5881    6.8697 N   0  0  0  0  0  0  0  0  0  0  0  0
    8.1660    2.1612    5.0245 C   0  0  1  0  0  0  0  0  0  0  0  0
    8.8239    6.1207    6.3637 C   0  0  1  0  0  0  0  0  0  0  0  0
    3.6995    0.5633    3.4485 C   0  0  2  0  0  0  0  0  0  0  0  0
    3.0937    0.4926    4.7897 N   0  0  0  0  0  0  0  0  0  0  0  0
    8.2536   -3.2191    5.5204 C   0  0  0  0  0  0  0  0  0  0  0  0
    8.1009    3.2959    3.9572 C   0  0  2  0  0  0  0  0  0  0  0  0
    9.2950    3.4099    3.1447 O   0  0  0  0  0  0  0  0  0  0  0  0
    8.5948    7.6005    5.8878 C   0  0  2  0  0  0  0  0  0  0  0  0
    9.7003    8.0490    4.9891 N   0  0  0  0  0  0  0  0  0  0  0  0
    2.9572   -0.4612    2.5707 C   0  0  1  0  0  0  0  0  0  0  0  0
    1.5584   -0.1720    2.5437 O   0  0  0  0  0  0  0  0  0  0  0  0
    6.7934   -2.7355    5.1790 C   0  0  2  0  0  0  0  0  0  0  0  0
    6.1242   -3.7090    4.2745 N   0  0  0  0  0  0  0  0  0  0  0  0
    7.7768    4.5081    4.8319 C   0  0  2  0  0  0  0  0  0  0  0  0
    8.9926    5.1719    5.3031 O   0  0  0  0  0  0  0  0  0  0  0  0
    8.4716    8.5548    7.1688 C   0  0  1  0  0  0  0  0  0  0  0  0
    7.1891    8.3311    7.7965 O   0  0  0  0  0  0  0  0  0  0  0  0
    3.5622   -0.4558    1.1484 C   0  0  2  0  0  0  0  0  0  0  0  0
    2.8824   -1.3768    0.3274 O   0  0  0  0  0  0  0  0  0  0  0  0
    6.8238   -1.3114    4.4958 C   0  0  2  0  0  0  0  0  0  0  0  0
    6.9429    3.9722    6.0078 C   0  0  2  0  0  0  0  0  0  0  0  0
    7.4416    2.6475    6.1777 O   0  0  0  0  0  0  0  0  0  0  0  0
    9.6407    8.3148    8.2380 C   0  0  2  0  0  0  0  0  0  0  0  0
   10.8572    8.7856    7.6594 O   0  0  0  0  0  0  0  0  0  0  0  0
    5.0832   -0.8136    1.2392 C   0  0  2  0  0  0  0  0  0  0  0  0
    5.7644    0.1500    2.1035 O   0  0  0  0  0  0  0  0  0  0  0  0
    7.5193   -0.2434    5.3682 C   0  0  2  0  0  0  0  0  0  0  0  0
    7.6204    0.9346    4.5216 O   0  0  0  0  0  0  0  0  0  0  0  0
    5.4007    3.9654    5.7718 C   0  0  0  0  0  0  0  0  0  0  0  0
    4.9574    5.2953    5.5197 O   0  0  0  0  0  0  0  0  0  0  0  0
    9.7626    6.7850    8.5943 C   0  0  1  0  0  0  0  0  0  0  0  0
    9.9981    6.0854    7.3193 O   0  0  0  0  0  0  0  0  0  0  0  0
    5.7595   -0.8251   -0.1121 C   0  0  0  0  0  0  0  0  0  0  0  0
    5.6069    0.4238   -0.7414 O   0  0  0  0  0  0  0  0  0  0  0  0
    8.9583   -0.7454    5.8074 C   0  0  1  0  0  0  0  0  0  0  0  0
    9.5395    0.1741    6.7361 O   0  0  0  0  0  0  0  0  0  0  0  0
   10.9247    6.4512    9.6271 C   0  0  0  0  0  0  0  0  0  0  0  0
   10.7861    7.0728   10.9728 N   0  0  0  0  0  0  0  0  0  0  0  0
  1  2  1  1  0  0  0
  1  7  1  0  0  0  0
  1 30  1  0  0  0  0
  3  4  1  6  0  0  0
  3  9  1  0  0  0  0
  3 39  1  0  0  0  0
  5 10  1  0  0  0  0
  5 26  1  0  0  0  0
  5 32  1  6  0  0  0
  6 12  1  0  0  0  0
  6 36  1  0  0  0  0
  6 19  1  6  0  0  0
  7  8  1  1  0  0  0
  7 14  1  0  0  0  0
  9 16  1  0  0  0  0
 10 11  1  1  0  0  0
 10 18  1  0  0  0  0
 12 13  1  6  0  0  0
 12 20  1  0  0  0  0
 14 15  1  6  0  0  0
 14 22  1  0  0  0  0
 16 17  1  6  0  0  0
 16 24  1  0  0  0  0
 18 19  1  1  0  0  0
 18 25  1  0  0  0  0
 20 21  1  1  0  0  0
 20 27  1  0  0  0  0
 22 23  1  6  0  0  0
 22 29  1  0  0  0  0
 24  2  1  1  0  0  0
 24 31  1  0  0  0  0
 25 26  1  0  0  0  0
 25 33  1  6  0  0  0
 27 28  1  6  0  0  0
 27 35  1  0  0  0  0
 29 30  1  0  0  0  0
 29 37  1  6  0  0  0
 31 32  1  6  0  0  0
 31 39  1  0  0  0  0
 33 34  1  0  0  0  0
 35 36  1  0  0  0  0
 35 41  1  1  0  0  0
 37 38  1  0  0  0  0
 39 40  1  1  0  0  0
 41 42  1  0  0  0  0
M  END
>  <CHROM.1>
-176.03464692,-177.02435333,-91.74963082,-166.25868271,-172.89578002,-59.74221960
57.38801262,177.10893943,62.22868719,7.21181969,2.35416817,4.99021625,2.17398958
0.75405085,-3.04823141

>  <Name>
2o3w_lig

>  <RI>
0

>  <Rbt.Current_Directory>
/home/itssahil/PROJECTS/Mol_Feturizer/New_Systems/rnas/2o3w

>  <Rbt.Executable>
rbdock ($Id: //depot/dev/client3/rdock/2013.1/src/exe/rbdock.cxx#4 $)

>  <Rbt.Library>
libRbt.so (2013.1, Build901 2013/11/27)

>  <Rbt.Parameter_File>
/export/apps/rDock/src/rDock_2013.1_src/data/scripts/dock_solv.prm

>  <Rbt.Receptor>
prm/pocket_docking_6.prm

>  <SCORE>
-16.3128

>  <SCORE.INTER>
-5.37981

>  <SCORE.INTER.CONST>
1

>  <SCORE.INTER.POLAR>
-1.05502

>  <SCORE.INTER.ROT>
9

>  <SCORE.INTER.SOLV>
12.426

>  <SCORE.INTER.VDW>
-13.8118

>  <SCORE.INTER.norm>
-0.128091

>  <SCORE.INTRA>
-10.9407

>  <SCORE.INTRA.DIHEDRAL>
-22.5453

>  <SCORE.INTRA.DIHEDRAL.0>
27.8999

>  <SCORE.INTRA.POLAR>
0

>  <SCORE.INTRA.POLAR.0>
0

>  <SCORE.INTRA.REPUL>
0

>  <SCORE.INTRA.REPUL.0>
0

>  <SCORE.INTRA.SOLV>
-5.51206

>  <SCORE.INTRA.SOLV.lig_0>
-104.479

>  <SCORE.INTRA.VDW>
3.08803

>  <SCORE.INTRA.VDW.0>
-6.17816

>  <SCORE.INTRA.norm>
-0.260492

>  <SCORE.RESTR>
0.00769576

>  <SCORE.RESTR.CAVITY>
0.00769576

>  <SCORE.RESTR.norm>
0.000183232

>  <SCORE.SYSTEM>
0

>  <SCORE.SYSTEM.CONST>
0

>  <SCORE.SYSTEM.DIHEDRAL>
0

>  <SCORE.SYSTEM.SOLV>
0

>  <SCORE.SYSTEM.norm>
0

>  <SCORE.heavy>
42

>  <SCORE.norm>
-0.388399

>  <RMSD>
5.729

$$$$
2o3w_lig
 OpenBabel11021811463D
libRbt.so/2013.1/901 2013/11/27
 42 45  0  0  0  0  0  0  0  0999 V2000
    7.8695   -2.5395    4.2174 C   0  0  2  0  0  0  0  0  0  0  0  0
    6.5577   -2.7893    3.6844 O   0  0  0  0  0  0  0  0  0  0  0  0
    3.1613   -0.1234    3.2927 C   0  0  2  0  0  0  0  0  0  0  0  0
    2.0299    0.8015    3.6009 N   0  0  0  0  0  0  0  0  0  0  0  0
    7.4630    1.2604    4.1955 C   0  0  1  0  0  0  0  0  0  0  0  0
   10.1028    4.6286    3.4644 C   0  0  1  0  0  0  0  0  0  0  0  0
    8.7529   -3.7685    3.8468 C   0  0  2  0  0  0  0  0  0  0  0  0
    8.6595   -4.1198    2.4190 N   0  0  0  0  0  0  0  0  0  0  0  0
    2.8980   -1.5681    3.8803 C   0  0  0  0  0  0  0  0  0  0  0  0
    8.7548    1.4542    5.0466 C   0  0  2  0  0  0  0  0  0  0  0  0
    8.5163    2.0172    6.3600 O   0  0  0  0  0  0  0  0  0  0  0  0
   10.3239    6.0683    4.0537 C   0  0  2  0  0  0  0  0  0  0  0  0
    9.0228    6.6925    4.4390 N   0  0  0  0  0  0  0  0  0  0  0  0
    8.3636   -5.0288    4.6412 C   0  0  1  0  0  0  0  0  0  0  0  0
    9.2230   -6.1175    4.2992 O   0  0  0  0  0  0  0  0  0  0  0  0
    4.1112   -2.5007    3.5047 C   0  0  2  0  0  0  0  0  0  0  0  0
    3.8898   -3.8747    4.0305 N   0  0  0  0  0  0  0  0  0  0  0  0
    9.6057    2.3077    4.1048 C   0  0  2  0  0  0  0  0  0  0  0  0
    9.3803    3.7369    4.3225 O   0  0  0  0  0  0  0  0  0  0  0  0
   11.0969    6.9675    2.9763 C   0  0  1  0  0  0  0  0  0  0  0  0
   12.4780    6.5451    2.9199 O   0  0  0  0  0  0  0  0  0  0  0  0
    8.4176   -4.7211    6.1550 C   0  0  2  0  0  0  0  0  0  0  0  0
    8.0799   -5.8700    6.8970 O   0  0  0  0  0  0  0  0  0  0  0  0
    5.4604   -1.9211    4.0875 C   0  0  2  0  0  0  0  0  0  0  0  0
    9.2074    1.8917    2.6787 C   0  0  2  0  0  0  0  0  0  0  0  0
    7.8390    1.5188    2.8233 O   0  0  0  0  0  0  0  0  0  0  0  0
   10.4494    6.8796    1.5133 C   0  0  2  0  0  0  0  0  0  0  0  0
    9.1830    7.5356    1.5623 O   0  0  0  0  0  0  0  0  0  0  0  0
    7.4317   -3.5479    6.4730 C   0  0  2  0  0  0  0  0  0  0  0  0
    7.7967   -2.3712    5.6844 O   0  0  0  0  0  0  0  0  0  0  0  0
    5.7558   -0.4858    3.5997 C   0  0  2  0  0  0  0  0  0  0  0  0
    6.9125   -0.0522    4.3668 O   0  0  0  0  0  0  0  0  0  0  0  0
   10.0468    0.7231    2.0753 C   0  0  0  0  0  0  0  0  0  0  0  0
    9.8735   -0.4426    2.8754 O   0  0  0  0  0  0  0  0  0  0  0  0
   10.2685    5.3771    1.0749 C   0  0  1  0  0  0  0  0  0  0  0  0
    9.4331    4.7462    2.1114 O   0  0  0  0  0  0  0  0  0  0  0  0
    7.4248   -3.1749    7.9374 C   0  0  0  0  0  0  0  0  0  0  0  0
    8.6738   -2.6442    8.3085 O   0  0  0  0  0  0  0  0  0  0  0  0
    4.5106    0.4561    3.8792 C   0  0  1  0  0  0  0  0  0  0  0  0
    4.7242    1.7432    3.2932 O   0  0  0  0  0  0  0  0  0  0  0  0
    9.5990    5.1961   -0.3561 C   0  0  0  0  0  0  0  0  0  0  0  0
    9.4096    3.7887   -0.8031 N   0  0  0  0  0  0  0  0  0  0  0  0
  1  2  1  1  0  0  0
  1  7  1  0  0  0  0
  1 30  1  0  0  0  0
  3  4  1  1  0  0  0
  3  9  1  0  0  0  0
  3 39  1  0  0  0  0
  5 10  1  0  0  0  0
  5 26  1  0  0  0  0
  5 32  1  6  0  0  0
  6 12  1  0  0  0  0
  6 36  1  0  0  0  0
  6 19  1  1  0  0  0
  7  8  1  6  0  0  0
  7 14  1  0  0  0  0
  9 16  1  0  0  0  0
 10 11  1  1  0  0  0
 10 18  1  0  0  0  0
 12 13  1  6  0  0  0
 12 20  1  0  0  0  0
 14 15  1  1  0  0  0
 14 22  1  0  0  0  0
 16 17  1  1  0  0  0
 16 24  1  0  0  0  0
 18 19  1  6  0  0  0
 18 25  1  0  0  0  0
 20 21  1  6  0  0  0
 20 27  1  0  0  0  0
 22 23  1  1  0  0  0
 22 29  1  0  0  0  0
 24  2  1  6  0  0  0
 24 31  1  0  0  0  0
 25 26  1  0  0  0  0
 25 33  1  1  0  0  0
 27 28  1  1  0  0  0
 27 35  1  0  0  0  0
 29 30  1  0  0  0  0
 29 37  1  1  0  0  0
 31 32  1  1  0  0  0
 31 39  1  0  0  0  0
 33 34  1  0  0  0  0
 35 36  1  0  0  0  0
 35 41  1  6  0  0  0
 37 38  1  0  0  0  0
 39 40  1  6  0  0  0
 41 42  1  0  0  0  0
M  END
>  <CHROM.1>
168.93167931,-175.85164746,-156.01130865,-178.33877711,-173.50166584,61.58187268
65.77503035,-178.85972172,-179.89165758,7.94766533,0.58275217,3.81850879
-1.89173166,-0.18604079,-0.35285916

>  <Name>
2o3w_lig

>  <RI>
0

>  <Rbt.Current_Directory>
/home/itssahil/PROJECTS/Mol_Feturizer/New_Systems/rnas/2o3w

>  <Rbt.Executable>
rbdock ($Id: //depot/dev/client3/rdock/2013.1/src/exe/rbdock.cxx#4 $)

>  <Rbt.Library>
libRbt.so (2013.1, Build901 2013/11/27)

>  <Rbt.Parameter_File>
/export/apps/rDock/src/rDock_2013.1_src/data/scripts/dock_solv.prm

>  <Rbt.Receptor>
prm/pocket_docking_4.prm

>  <SCORE>
-17.1414

>  <SCORE.INTER>
-5.089

>  <SCORE.INTER.CONST>
1

>  <SCORE.INTER.POLAR>
0

>  <SCORE.INTER.ROT>
9

>  <SCORE.INTER.SOLV>
13.6111

>  <SCORE.INTER.VDW>
-17.5297

>  <SCORE.INTER.norm>
-0.121167

>  <SCORE.INTRA>
-12.0596

>  <SCORE.INTRA.DIHEDRAL>
-24.2764

>  <SCORE.INTRA.DIHEDRAL.0>
27.8999

>  <SCORE.INTRA.POLAR>
0

>  <SCORE.INTRA.POLAR.0>
0

>  <SCORE.INTRA.REPUL>
0

>  <SCORE.INTRA.REPUL.0>
0

>  <SCORE.INTRA.SOLV>
-4.1129

>  <SCORE.INTRA.SOLV.lig_0>
-104.479

>  <SCORE.INTRA.VDW>
2.13504

>  <SCORE.INTRA.VDW.0>
-6.17816

>  <SCORE.INTRA.norm>
-0.287133

>  <SCORE.RESTR>
0.0072377

>  <SCORE.RESTR.CAVITY>
0.0072377

>  <SCORE.RESTR.norm>
0.000172326

>  <SCORE.SYSTEM>
0

>  <SCORE.SYSTEM.CONST>
0

>  <SCORE.SYSTEM.DIHEDRAL>
0

>  <SCORE.SYSTEM.SOLV>
0

>  <SCORE.SYSTEM.norm>
0

>  <SCORE.heavy>
42

>  <SCORE.norm>
-0.408127

>  <RMSD>
5.730

$$$$
2o3w_lig
 OpenBabel11021811463D
libRbt.so/2013.1/901 2013/11/27
 42 45  0  0  0  0  0  0  0  0999 V2000
    8.8188   -2.2495    5.9062 C   0  0  2  0  0  0  0  0  0  0  0  0
    9.6201   -3.2066    5.1926 O   0  0  0  0  0  0  0  0  0  0  0  0
   11.6852   -3.1061    1.3820 C   0  0  2  0  0  0  0  0  0  0  0  0
   11.9993   -2.9249   -0.0668 N   0  0  0  0  0  0  0  0  0  0  0  0
   10.7676    0.6061    3.9977 C   0  0  1  0  0  0  0  0  0  0  0  0
   10.5109    4.6864    4.2372 C   0  0  1  0  0  0  0  0  0  0  0  0
    8.6501   -2.7897    7.3581 C   0  0  2  0  0  0  0  0  0  0  0  0
    9.9331   -3.1835    7.9658 N   0  0  0  0  0  0  0  0  0  0  0  0
   10.5917   -4.2287    1.5962 C   0  0  0  0  0  0  0  0  0  0  0  0
    9.8685    1.7031    4.6451 C   0  0  2  0  0  0  0  0  0  0  0  0
    9.0372    2.4182    3.6982 O   0  0  0  0  0  0  0  0  0  0  0  0
   11.1345    5.8808    3.4289 C   0  0  2  0  0  0  0  0  0  0  0  0
   12.3305    6.4340    4.1320 N   0  0  0  0  0  0  0  0  0  0  0  0
    7.7316   -4.0240    7.4192 C   0  0  1  0  0  0  0  0  0  0  0  0
    7.5739   -4.4602    8.7704 O   0  0  0  0  0  0  0  0  0  0  0  0
   10.3203   -4.3887    3.1400 C   0  0  2  0  0  0  0  0  0  0  0  0
    9.3047   -5.4493    3.3796 N   0  0  0  0  0  0  0  0  0  0  0  0
   10.9117    2.5467    5.3795 C   0  0  2  0  0  0  0  0  0  0  0  0
   11.4257    3.6237    4.5329 O   0  0  0  0  0  0  0  0  0  0  0  0
   10.0202    7.0114    3.2122 C   0  0  1  0  0  0  0  0  0  0  0  0
    9.0752    6.5519    2.2199 O   0  0  0  0  0  0  0  0  0  0  0  0
    6.3690   -3.6854    6.7728 C   0  0  2  0  0  0  0  0  0  0  0  0
    5.5104   -4.8004    6.8358 O   0  0  0  0  0  0  0  0  0  0  0  0
    9.8198   -3.0253    3.7617 C   0  0  2  0  0  0  0  0  0  0  0  0
   12.0323    1.5755    5.7874 C   0  0  2  0  0  0  0  0  0  0  0  0
   12.0016    0.5965    4.7515 O   0  0  0  0  0  0  0  0  0  0  0  0
    9.2413    7.3839    4.5621 C   0  0  2  0  0  0  0  0  0  0  0  0
   10.1606    8.0629    5.4166 O   0  0  0  0  0  0  0  0  0  0  0  0
    6.6026   -3.2504    5.2876 C   0  0  2  0  0  0  0  0  0  0  0  0
    7.5036   -2.0987    5.2482 O   0  0  0  0  0  0  0  0  0  0  0  0
   10.8151   -1.8652    3.5407 C   0  0  2  0  0  0  0  0  0  0  0  0
   10.1215   -0.6736    4.0027 O   0  0  0  0  0  0  0  0  0  0  0  0
   11.8527    0.9149    7.1894 C   0  0  0  0  0  0  0  0  0  0  0  0
   10.6584    0.1386    7.1942 O   0  0  0  0  0  0  0  0  0  0  0  0
    8.6991    6.0839    5.2678 C   0  0  1  0  0  0  0  0  0  0  0  0
    9.8730    5.2247    5.5006 O   0  0  0  0  0  0  0  0  0  0  0  0
    5.3175   -2.8931    4.5773 C   0  0  0  0  0  0  0  0  0  0  0  0
    5.5819   -2.5535    3.2379 O   0  0  0  0  0  0  0  0  0  0  0  0
   11.1814   -1.7417    2.0024 C   0  0  1  0  0  0  0  0  0  0  0  0
   12.2146   -0.7701    1.8177 O   0  0  0  0  0  0  0  0  0  0  0  0
    7.9393    6.3593    6.6373 C   0  0  0  0  0  0  0  0  0  0  0  0
    6.5774    6.9469    6.5092 N   0  0  0  0  0  0  0  0  0  0  0  0
  1  2  1  6  0  0  0
  1  7  1  0  0  0  0
  1 30  1  0  0  0  0
  3  4  1  6  0  0  0
  3  9  1  0  0  0  0
  3 39  1  0  0  0  0
  5 10  1  0  0  0  0
  5 26  1  0  0  0  0
  5 32  1  1  0  0  0
  6 12  1  0  0  0  0
  6 36  1  0  0  0  0
  6 19  1  1  0  0  0
  7  8  1  6  0  0  0
  7 14  1  0  0  0  0
  9 16  1  0  0  0  0
 10 11  1  6  0  0  0
 10 18  1  0  0  0  0
 12 13  1  1  0  0  0
 12 20  1  0  0  0  0
 14 15  1  1  0  0  0
 14 22  1  0  0  0  0
 16 17  1  6  0  0  0
 16 24  1  0  0  0  0
 18 19  1  6  0  0  0
 18 25  1  0  0  0  0
 20 21  1  6  0  0  0
 20 27  1  0  0  0  0
 22 23  1  6  0  0  0
 22 29  1  0  0  0  0
 24  2  1  1  0  0  0
 24 31  1  0  0  0  0
 25 26  1  0  0  0  0
 25 33  1  1  0  0  0
 27 28  1  1  0  0  0
 27 35  1  0  0  0  0
 29 30  1  0  0  0  0
 29 37  1  1  0  0  0
 31 32  1  6  0  0  0
 31 39  1  0  0  0  0
 33 34  1  0  0  0  0
 35 36  1  0  0  0  0
 35 41  1  1  0  0  0
 37 38  1  0  0  0  0
 39 40  1  1  0  0  0
 41 42  1  0  0  0  0
M  END
>  <CHROM.1>
173.56123168,-175.29315616,175.06689122,69.84145505,-162.44598666,61.74129532
-178.06603175,177.54016629,74.15004989,9.53925394,0.42216001,4.71307665,1.77473541
-0.81178354,-3.02172888

>  <Name>
2o3w_lig

>  <RI>
0

>  <Rbt.Current_Directory>
/home/itssahil/PROJECTS/Mol_Feturizer/New_Systems/rnas/2o3w

>  <Rbt.Executable>
rbdock ($Id: //depot/dev/client3/rdock/2013.1/src/exe/rbdock.cxx#4 $)

>  <Rbt.Library>
libRbt.so (2013.1, Build901 2013/11/27)

>  <Rbt.Parameter_File>
/export/apps/rDock/src/rDock_2013.1_src/data/scripts/dock_solv.prm

>  <Rbt.Receptor>
prm/pocket_docking_6.prm

>  <SCORE>
-16.7808

>  <SCORE.INTER>
-4.16382

>  <SCORE.INTER.CONST>
1

>  <SCORE.INTER.POLAR>
-0.85252

>  <SCORE.INTER.ROT>
9

>  <SCORE.INTER.SOLV>
13.6554

>  <SCORE.INTER.VDW>
-14.0859

>  <SCORE.INTER.norm>
-0.0991385

>  <SCORE.INTRA>
-12.617

>  <SCORE.INTRA.DIHEDRAL>
-24.7037

>  <SCORE.INTRA.DIHEDRAL.0>
27.8999

>  <SCORE.INTRA.POLAR>
0

>  <SCORE.INTRA.POLAR.0>
0

>  <SCORE.INTRA.REPUL>
0

>  <SCORE.INTRA.REPUL.0>
0

>  <SCORE.INTRA.SOLV>
-4.22777

>  <SCORE.INTRA.SOLV.lig_0>
-104.479

>  <SCORE.INTRA.VDW>
1.84872

>  <SCORE.INTRA.VDW.0>
-6.17816

>  <SCORE.INTRA.norm>
-0.300405

>  <SCORE.RESTR>
0

>  <SCORE.RESTR.CAVITY>
0

>  <SCORE.RESTR.norm>
0

>  <SCORE.SYSTEM>
0

>  <SCORE.SYSTEM.CONST>
0

>  <SCORE.SYSTEM.DIHEDRAL>
0

>  <SCORE.SYSTEM.SOLV>
0

>  <SCORE.SYSTEM.norm>
0

>  <SCORE.heavy>
42

>  <SCORE.norm>
-0.399543

>  <RMSD>
5.742

$$$$
2o3w_lig
 OpenBabel11021811463D
libRbt.so/2013.1/901 2013/11/27
 42 45  0  0  0  0  0  0  0  0999 V2000
    6.0784    5.2872    2.3270 C   0  0  2  0  0  0  0  0  0  0  0  0
    6.3750    5.3213    3.7335 O   0  0  0  0  0  0  0  0  0  0  0  0
    8.5644    8.1944    6.1309 C   0  0  2  0  0  0  0  0  0  0  0  0
    9.6384    9.0848    6.6640 N   0  0  0  0  0  0  0  0  0  0  0  0
    6.2917    8.8306    1.9489 C   0  0  1  0  0  0  0  0  0  0  0  0
    4.8064   10.8023   -1.4467 C   0  0  1  0  0  0  0  0  0  0  0  0
    4.9844    4.1972    2.1190 C   0  0  2  0  0  0  0  0  0  0  0  0
    3.8494    4.3537    3.0452 N   0  0  0  0  0  0  0  0  0  0  0  0
    8.9646    6.6699    6.2629 C   0  0  0  0  0  0  0  0  0  0  0  0
    6.0509    8.5714    0.4305 C   0  0  2  0  0  0  0  0  0  0  0  0
    7.0239    9.2039   -0.4368 O   0  0  0  0  0  0  0  0  0  0  0  0
    4.6371   12.3240   -1.7995 C   0  0  2  0  0  0  0  0  0  0  0  0
    3.2797   12.8132   -1.4135 N   0  0  0  0  0  0  0  0  0  0  0  0
    5.5323    2.7729    2.3237 C   0  0  1  0  0  0  0  0  0  0  0  0
    4.5076    1.8066    2.0847 O   0  0  0  0  0  0  0  0  0  0  0  0
    7.7869    5.7832    5.7068 C   0  0  2  0  0  0  0  0  0  0  0  0
    8.1242    4.3392    5.8291 N   0  0  0  0  0  0  0  0  0  0  0  0
    4.6087    9.0554    0.2717 C   0  0  2  0  0  0  0  0  0  0  0  0
    4.5529   10.4758   -0.0746 O   0  0  0  0  0  0  0  0  0  0  0  0
    4.9015   12.5363   -3.3654 C   0  0  1  0  0  0  0  0  0  0  0  0
    6.3189   12.4140   -3.6206 O   0  0  0  0  0  0  0  0  0  0  0  0
    6.7469    2.5491    1.3943 C   0  0  2  0  0  0  0  0  0  0  0  0
    7.2501    1.2435    1.5575 O   0  0  0  0  0  0  0  0  0  0  0  0
    7.4929    6.1326    4.1944 C   0  0  2  0  0  0  0  0  0  0  0  0
    3.9187    8.7827    1.6189 C   0  0  2  0  0  0  0  0  0  0  0  0
    4.9829    8.9175    2.5578 O   0  0  0  0  0  0  0  0  0  0  0  0
    4.1004   11.4916   -4.2788 C   0  0  2  0  0  0  0  0  0  0  0  0
    2.7133   11.8142   -4.1871 O   0  0  0  0  0  0  0  0  0  0  0  0
    7.8470    3.6115    1.7271 C   0  0  2  0  0  0  0  0  0  0  0  0
    7.2982    4.9570    1.5597 O   0  0  0  0  0  0  0  0  0  0  0  0
    7.1487    7.6229    3.9801 C   0  0  2  0  0  0  0  0  0  0  0  0
    7.0939    7.7986    2.5376 O   0  0  0  0  0  0  0  0  0  0  0  0
    3.2384    7.3837    1.7386 C   0  0  0  0  0  0  0  0  0  0  0  0
    2.2569    7.2487    0.7152 O   0  0  0  0  0  0  0  0  0  0  0  0
    4.3508   10.0162   -3.7860 C   0  0  1  0  0  0  0  0  0  0  0  0
    3.9349    9.9806   -2.3732 O   0  0  0  0  0  0  0  0  0  0  0  0
    9.0743    3.4699    0.8567 C   0  0  0  0  0  0  0  0  0  0  0  0
    9.6835    2.2211    1.0769 O   0  0  0  0  0  0  0  0  0  0  0  0
    8.2731    8.5430    4.6163 C   0  0  1  0  0  0  0  0  0  0  0  0
    7.8812    9.9170    4.5520 O   0  0  0  0  0  0  0  0  0  0  0  0
    3.5642    8.9131   -4.6185 C   0  0  0  0  0  0  0  0  0  0  0  0
    3.8104    7.5030   -4.2093 N   0  0  0  0  0  0  0  0  0  0  0  0
  1  2  1  1  0  0  0
  1  7  1  0  0  0  0
  1 30  1  0  0  0  0
  3  4  1  6  0  0  0
  3  9  1  0  0  0  0
  3 39  1  0  0  0  0
  5 10  1  0  0  0  0
  5 26  1  0  0  0  0
  5 32  1  1  0  0  0
  6 12  1  0  0  0  0
  6 36  1  0  0  0  0
  6 19  1  1  0  0  0
  7  8  1  1  0  0  0
  7 14  1  0  0  0  0
  9 16  1  0  0  0  0
 10 11  1  6  0  0  0
 10 18  1  0  0  0  0
 12 13  1  6  0  0  0
 12 20  1  0  0  0  0
 14 15  1  6  0  0  0
 14 22  1  0  0  0  0
 16 17  1  6  0  0  0
 16 24  1  0  0  0  0
 18 19  1  1  0  0  0
 18 25  1  0  0  0  0
 20 21  1  1  0  0  0
 20 27  1  0  0  0  0
 22 23  1  1  0  0  0
 22 29  1  0  0  0  0
 24  2  1  1  0  0  0
 24 31  1  0  0  0  0
 25 26  1  0  0  0  0
 25 33  1  6  0  0  0
 27 28  1  1  0  0  0
 27 35  1  0  0  0  0
 29 30  1  0  0  0  0
 29 37  1  6  0  0  0
 31 32  1  6  0  0  0
 31 39  1  0  0  0  0
 33 34  1  0  0  0  0
 35 36  1  0  0  0  0
 35 41  1  6  0  0  0
 37 38  1  0  0  0  0
 39 40  1  1  0  0  0
 41 42  1  0  0  0  0
M  END
>  <CHROM.1>
172.10355359,-163.09757506,175.85521706,79.12273617,-168.94601471,-58.84775194
-62.69110830,153.64787153,178.11830298,5.93502118,7.48560544,1.11665841,0.69660777
1.10125733,-3.12221829

>  <Name>
2o3w_lig

>  <RI>
0

>  <Rbt.Current_Directory>
/home/itssahil/PROJECTS/Mol_Feturizer/New_Systems/rnas/2o3w

>  <Rbt.Executable>
rbdock ($Id: //depot/dev/client3/rdock/2013.1/src/exe/rbdock.cxx#4 $)

>  <Rbt.Library>
libRbt.so (2013.1, Build901 2013/11/27)

>  <Rbt.Parameter_File>
/export/apps/rDock/src/rDock_2013.1_src/data/scripts/dock_solv.prm

>  <Rbt.Receptor>
prm/pocket_docking_6.prm

>  <SCORE>
-22.3947

>  <SCORE.INTER>
-11.2894

>  <SCORE.INTER.CONST>
1

>  <SCORE.INTER.POLAR>
-2.31257

>  <SCORE.INTER.ROT>
9

>  <SCORE.INTER.SOLV>
19.3529

>  <SCORE.INTER.VDW>
-15.8687

>  <SCORE.INTER.norm>
-0.268795

>  <SCORE.INTRA>
-11.1053

>  <SCORE.INTRA.DIHEDRAL>
-20.8549

>  <SCORE.INTRA.DIHEDRAL.0>
27.8999

>  <SCORE.INTRA.POLAR>
0

>  <SCORE.INTRA.POLAR.0>
0

>  <SCORE.INTRA.REPUL>
0

>  <SCORE.INTRA.REPUL.0>
0

>  <SCORE.INTRA.SOLV>
-4.80158

>  <SCORE.INTRA.SOLV.lig_0>
-104.479

>  <SCORE.INTRA.VDW>
1.7229

>  <SCORE.INTRA.VDW.0>
-6.17816

>  <SCORE.INTRA.norm>
-0.264412

>  <SCORE.RESTR>
0

>  <SCORE.RESTR.CAVITY>
0

>  <SCORE.RESTR.norm>
0

>  <SCORE.SYSTEM>
0

>  <SCORE.SYSTEM.CONST>
0

>  <SCORE.SYSTEM.DIHEDRAL>
0

>  <SCORE.SYSTEM.SOLV>
0

>  <SCORE.SYSTEM.norm>
0

>  <SCORE.heavy>
42

>  <SCORE.norm>
-0.533208

>  <RMSD>
5.807

$$$$
2o3w_lig
 OpenBabel11021811463D
libRbt.so/2013.1/901 2013/11/27
 42 45  0  0  0  0  0  0  0  0999 V2000
    5.5792   -0.0896    0.3972 C   0  0  2  0  0  0  0  0  0  0  0  0
    5.0163   -0.9599    1.3937 O   0  0  0  0  0  0  0  0  0  0  0  0
    6.6964   -2.6526    5.0142 C   0  0  2  0  0  0  0  0  0  0  0  0
    7.5751   -3.3894    5.9710 N   0  0  0  0  0  0  0  0  0  0  0  0
    8.2939    1.1246    2.8178 C   0  0  1  0  0  0  0  0  0  0  0  0
    9.9777    4.9772    3.6766 C   0  0  1  0  0  0  0  0  0  0  0  0
    4.3862    0.5848   -0.3444 C   0  0  2  0  0  0  0  0  0  0  0  0
    3.4024    1.1684    0.5843 N   0  0  0  0  0  0  0  0  0  0  0  0
    6.0035   -3.6418    3.9928 C   0  0  0  0  0  0  0  0  0  0  0  0
    9.0032    1.9106    1.6733 C   0  0  2  0  0  0  0  0  0  0  0  0
   10.3448    1.4467    1.3834 O   0  0  0  0  0  0  0  0  0  0  0  0
   11.3702    5.6174    4.0232 C   0  0  2  0  0  0  0  0  0  0  0  0
   12.2047    4.6756    4.8279 N   0  0  0  0  0  0  0  0  0  0  0  0
    3.6194   -0.4060   -1.2396 C   0  0  1  0  0  0  0  0  0  0  0  0
    2.5616    0.2625   -1.9289 O   0  0  0  0  0  0  0  0  0  0  0  0
    5.0755   -2.8113    3.0276 C   0  0  2  0  0  0  0  0  0  0  0  0
    4.3950   -3.7140    2.0604 N   0  0  0  0  0  0  0  0  0  0  0  0
    8.8959    3.3467    2.1884 C   0  0  2  0  0  0  0  0  0  0  0  0
   10.0523    3.7126    3.0067 O   0  0  0  0  0  0  0  0  0  0  0  0
   11.1382    6.9949    4.8078 C   0  0  1  0  0  0  0  0  0  0  0  0
   10.6711    7.9925    3.8721 O   0  0  0  0  0  0  0  0  0  0  0  0
    4.6021   -1.0755   -2.2271 C   0  0  2  0  0  0  0  0  0  0  0  0
    3.9126   -1.9734   -3.0654 O   0  0  0  0  0  0  0  0  0  0  0  0
    5.9162   -1.7291    2.2415 C   0  0  2  0  0  0  0  0  0  0  0  0
    7.5937    3.4088    3.0044 C   0  0  2  0  0  0  0  0  0  0  0  0
    7.4773    2.0864    3.5243 O   0  0  0  0  0  0  0  0  0  0  0  0
   10.0895    6.8563    6.0113 C   0  0  2  0  0  0  0  0  0  0  0  0
   10.7007    6.0605    7.0260 O   0  0  0  0  0  0  0  0  0  0  0  0
    5.7141   -1.8196   -1.4152 C   0  0  2  0  0  0  0  0  0  0  0  0
    6.4082   -0.8692   -0.5465 O   0  0  0  0  0  0  0  0  0  0  0  0
    6.6689   -0.7590    3.1783 C   0  0  2  0  0  0  0  0  0  0  0  0
    7.5202    0.0324    2.3045 O   0  0  0  0  0  0  0  0  0  0  0  0
    6.3241    3.8049    2.1887 C   0  0  0  0  0  0  0  0  0  0  0  0
    6.1167    2.8532    1.1495 O   0  0  0  0  0  0  0  0  0  0  0  0
    8.7584    6.1764    5.5132 C   0  0  1  0  0  0  0  0  0  0  0  0
    9.1517    4.8767    4.9418 O   0  0  0  0  0  0  0  0  0  0  0  0
    6.7270   -2.5010   -2.3060 C   0  0  0  0  0  0  0  0  0  0  0  0
    6.1133   -3.5365   -3.0343 O   0  0  0  0  0  0  0  0  0  0  0  0
    7.5395   -1.5720    4.2256 C   0  0  1  0  0  0  0  0  0  0  0  0
    8.1150   -0.6816    5.1856 O   0  0  0  0  0  0  0  0  0  0  0  0
    7.6709    5.9684    6.6546 C   0  0  0  0  0  0  0  0  0  0  0  0
    7.1481    7.2151    7.2784 N   0  0  0  0  0  0  0  0  0  0  0  0
  1  2  1  1  0  0  0
  1  7  1  0  0  0  0
  1 30  1  0  0  0  0
  3  4  1  1  0  0  0
  3  9  1  0  0  0  0
  3 39  1  0  0  0  0
  5 10  1  0  0  0  0
  5 26  1  0  0  0  0
  5 32  1  6  0  0  0
  6 12  1  0  0  0  0
  6 36  1  0  0  0  0
  6 19  1  1  0  0  0
  7  8  1  1  0  0  0
  7 14  1  0  0  0  0
  9 16  1  0  0  0  0
 10 11  1  1  0  0  0
 10 18  1  0  0  0  0
 12 13  1  1  0  0  0
 12 20  1  0  0  0  0
 14 15  1  6  0  0  0
 14 22  1  0  0  0  0
 16 17  1  6  0  0  0
 16 24  1  0  0  0  0
 18 19  1  1  0  0  0
 18 25  1  0  0  0  0
 20 21  1  6  0  0  0
 20 27  1  0  0  0  0
 22 23  1  1  0  0  0
 22 29  1  0  0  0  0
 24  2  1  6  0  0  0
 24 31  1  0  0  0  0
 25 26  1  0  0  0  0
 25 33  1  6  0  0  0
 27 28  1  1  0  0  0
 27 35  1  0  0  0  0
 29 30  1  0  0  0  0
 29 37  1  6  0  0  0
 31 32  1  6  0  0  0
 31 39  1  0  0  0  0
 33 34  1  0  0  0  0
 35 36  1  0  0  0  0
 35 41  1  1  0  0  0
 37 38  1  0  0  0  0
 39 40  1  1  0  0  0
 41 42  1  0  0  0  0
M  END
>  <CHROM.1>
179.80190137,-173.95311279,-155.41418395,-172.52944266,-168.33738381,59.82915725
-65.36846868,174.79210891,63.09690300,7.30117282,1.40719691,2.42291476,2.85486147
1.07635314,2.51106439

>  <Name>
2o3w_lig

>  <RI>
0

>  <Rbt.Current_Directory>
/home/itssahil/PROJECTS/Mol_Feturizer/New_Systems/rnas/2o3w

>  <Rbt.Executable>
rbdock ($Id: //depot/dev/client3/rdock/2013.1/src/exe/rbdock.cxx#4 $)

>  <Rbt.Library>
libRbt.so (2013.1, Build901 2013/11/27)

>  <Rbt.Parameter_File>
/export/apps/rDock/src/rDock_2013.1_src/data/scripts/dock_solv.prm

>  <Rbt.Receptor>
prm/pocket_docking_8.prm

>  <SCORE>
-21.7623

>  <SCORE.INTER>
-9.90773

>  <SCORE.INTER.CONST>
1

>  <SCORE.INTER.POLAR>
-1.76127

>  <SCORE.INTER.ROT>
9

>  <SCORE.INTER.SOLV>
13.6211

>  <SCORE.INTER.VDW>
-14.8746

>  <SCORE.INTER.norm>
-0.235898

>  <SCORE.INTRA>
-11.8545

>  <SCORE.INTRA.DIHEDRAL>
-23.8344

>  <SCORE.INTRA.DIHEDRAL.0>
27.8999

>  <SCORE.INTRA.POLAR>
0

>  <SCORE.INTRA.POLAR.0>
0

>  <SCORE.INTRA.REPUL>
0

>  <SCORE.INTRA.REPUL.0>
0

>  <SCORE.INTRA.SOLV>
-3.79497

>  <SCORE.INTRA.SOLV.lig_0>
-104.479

>  <SCORE.INTRA.VDW>
1.96016

>  <SCORE.INTRA.VDW.0>
-6.17816

>  <SCORE.INTRA.norm>
-0.282251

>  <SCORE.RESTR>
0

>  <SCORE.RESTR.CAVITY>
0

>  <SCORE.RESTR.norm>
0

>  <SCORE.SYSTEM>
0

>  <SCORE.SYSTEM.CONST>
0

>  <SCORE.SYSTEM.DIHEDRAL>
0

>  <SCORE.SYSTEM.SOLV>
0

>  <SCORE.SYSTEM.norm>
0

>  <SCORE.heavy>
42

>  <SCORE.norm>
-0.518149

>  <RMSD>
5.813

$$$$
2o3w_lig
 OpenBabel11021811463D
libRbt.so/2013.1/901 2013/11/27
 42 45  0  0  0  0  0  0  0  0999 V2000
    8.3961    3.5485    7.5123 C   0  0  2  0  0  0  0  0  0  0  0  0
    9.2093    3.3973    6.3362 O   0  0  0  0  0  0  0  0  0  0  0  0
    9.8329    0.1645    3.5155 C   0  0  2  0  0  0  0  0  0  0  0  0
    9.6047   -0.9210    2.5155 N   0  0  0  0  0  0  0  0  0  0  0  0
    9.0177    4.6351    2.4193 C   0  0  1  0  0  0  0  0  0  0  0  0
    7.9312    7.1610   -0.5557 C   0  0  1  0  0  0  0  0  0  0  0  0
    7.6403    4.9040    7.3716 C   0  0  2  0  0  0  0  0  0  0  0  0
    6.9725    5.0442    6.0659 N   0  0  0  0  0  0  0  0  0  0  0  0
    9.1773   -0.1927    4.9100 C   0  0  0  0  0  0  0  0  0  0  0  0
    8.0250    5.8110    2.1695 C   0  0  2  0  0  0  0  0  0  0  0  0
    6.9218    5.4747    1.2926 O   0  0  0  0  0  0  0  0  0  0  0  0
    8.1415    7.1931   -2.1125 C   0  0  2  0  0  0  0  0  0  0  0  0
    9.2387    8.1364   -2.4831 N   0  0  0  0  0  0  0  0  0  0  0  0
    8.5792    6.1150    7.5233 C   0  0  1  0  0  0  0  0  0  0  0  0
    7.8391    7.3332    7.4272 O   0  0  0  0  0  0  0  0  0  0  0  0
    9.4702    0.9756    5.9257 C   0  0  2  0  0  0  0  0  0  0  0  0
    8.8789    0.6657    7.2554 N   0  0  0  0  0  0  0  0  0  0  0  0
    8.9728    6.8958    1.6553 C   0  0  2  0  0  0  0  0  0  0  0  0
    9.1078    6.8461    0.1992 O   0  0  0  0  0  0  0  0  0  0  0  0
    6.7655    7.6029   -2.8236 C   0  0  1  0  0  0  0  0  0  0  0  0
    5.8527    6.4845   -2.7542 O   0  0  0  0  0  0  0  0  0  0  0  0
    9.3333    6.0173    8.8690 C   0  0  2  0  0  0  0  0  0  0  0  0
   10.1850    7.1278    9.0307 O   0  0  0  0  0  0  0  0  0  0  0  0
    8.8824    2.3404    5.3893 C   0  0  2  0  0  0  0  0  0  0  0  0
   10.3221    6.6441    2.3490 C   0  0  2  0  0  0  0  0  0  0  0  0
   10.3310    5.2301    2.5306 O   0  0  0  0  0  0  0  0  0  0  0  0
    6.0836    8.8932   -2.1620 C   0  0  2  0  0  0  0  0  0  0  0  0
    6.9015   10.0203   -2.4737 O   0  0  0  0  0  0  0  0  0  0  0  0
   10.1516    4.6836    8.9001 C   0  0  2  0  0  0  0  0  0  0  0  0
    9.2477    3.5476    8.7208 O   0  0  0  0  0  0  0  0  0  0  0  0
    9.4369    2.7267    4.0006 C   0  0  2  0  0  0  0  0  0  0  0  0
    8.6627    3.8868    3.5893 O   0  0  0  0  0  0  0  0  0  0  0  0
   10.5116    7.3858    3.7085 C   0  0  0  0  0  0  0  0  0  0  0  0
    9.4468    7.0362    4.5875 O   0  0  0  0  0  0  0  0  0  0  0  0
    5.9655    8.7203   -0.6005 C   0  0  1  0  0  0  0  0  0  0  0  0
    7.3338    8.4793   -0.1108 O   0  0  0  0  0  0  0  0  0  0  0  0
   10.9189    4.5020   10.1893 C   0  0  0  0  0  0  0  0  0  0  0  0
   11.9073    5.4958   10.3094 O   0  0  0  0  0  0  0  0  0  0  0  0
    9.2414    1.5293    2.9790 C   0  0  1  0  0  0  0  0  0  0  0  0
    9.8884    1.8281    1.7389 O   0  0  0  0  0  0  0  0  0  0  0  0
    5.3281    9.9730    0.1433 C   0  0  0  0  0  0  0  0  0  0  0  0
    3.9196   10.2883   -0.2215 N   0  0  0  0  0  0  0  0  0  0  0  0
  1  2  1  6  0  0  0
  1  7  1  0  0  0  0
  1 30  1  0  0  0  0
  3  4  1  6  0  0  0
  3  9  1  0  0  0  0
  3 39  1  0  0  0  0
  5 10  1  0  0  0  0
  5 26  1  0  0  0  0
  5 32  1  1  0  0  0
  6 12  1  0  0  0  0
  6 36  1  0  0  0  0
  6 19  1  1  0  0  0
  7  8  1  6  0  0  0
  7 14  1  0  0  0  0
  9 16  1  0  0  0  0
 10 11  1  6  0  0  0
 10 18  1  0  0  0  0
 12 13  1  1  0  0  0
 12 20  1  0  0  0  0
 14 15  1  1  0  0  0
 14 22  1  0  0  0  0
 16 17  1  1  0  0  0
 16 24  1  0  0  0  0
 18 19  1  6  0  0  0
 18 25  1  0  0  0  0
 20 21  1  1  0  0  0
 20 27  1  0  0  0  0
 22 23  1  6  0  0  0
 22 29  1  0  0  0  0
 24  2  1  1  0  0  0
 24 31  1  0  0  0  0
 25 26  1  0  0  0  0
 25 33  1  1  0  0  0
 27 28  1  1  0  0  0
 27 35  1  0  0  0  0
 29 30  1  0  0  0  0
 29 37  1  1  0  0  0
 31 32  1  6  0  0  0
 31 39  1  0  0  0  0
 33 34  1  0  0  0  0
 35 36  1  0  0  0  0
 35 41  1  1  0  0  0
 37 38  1  0  0  0  0
 39 40  1  6  0  0  0
 41 42  1  0  0  0  0
M  END
>  <CHROM.1>
-112.67527335,178.83643748,176.00234550,66.10702907,-80.86715614,56.14721138
-65.04360073,171.61336333,63.25394869,8.57206539,5.35766878,3.46101067,0.34770234
-1.28812145,0.84034944

>  <Name>
2o3w_lig

>  <RI>
0

>  <Rbt.Current_Directory>
/home/itssahil/PROJECTS/Mol_Feturizer/New_Systems/rnas/2o3w

>  <Rbt.Executable>
rbdock ($Id: //depot/dev/client3/rdock/2013.1/src/exe/rbdock.cxx#4 $)

>  <Rbt.Library>
libRbt.so (2013.1, Build901 2013/11/27)

>  <Rbt.Parameter_File>
/export/apps/rDock/src/rDock_2013.1_src/data/scripts/dock_solv.prm

>  <Rbt.Receptor>
prm/pocket_docking_5.prm

>  <SCORE>
-17.5014

>  <SCORE.INTER>
-9.95303

>  <SCORE.INTER.CONST>
1

>  <SCORE.INTER.POLAR>
-1.56402

>  <SCORE.INTER.ROT>
9

>  <SCORE.INTER.SOLV>
19.5425

>  <SCORE.INTER.VDW>
-17.5361

>  <SCORE.INTER.norm>
-0.236977

>  <SCORE.INTRA>
-7.58241

>  <SCORE.INTRA.DIHEDRAL>
-18.0957

>  <SCORE.INTRA.DIHEDRAL.0>
27.8999

>  <SCORE.INTRA.POLAR>
0

>  <SCORE.INTRA.POLAR.0>
0

>  <SCORE.INTRA.REPUL>
0.0114987

>  <SCORE.INTRA.REPUL.0>
0

>  <SCORE.INTRA.SOLV>
-0.819099

>  <SCORE.INTRA.SOLV.lig_0>
-104.479

>  <SCORE.INTRA.VDW>
1.81752

>  <SCORE.INTRA.VDW.0>
-6.17816

>  <SCORE.INTRA.norm>
-0.180534

>  <SCORE.RESTR>
0.0339918

>  <SCORE.RESTR.CAVITY>
0.0339918

>  <SCORE.RESTR.norm>
0.000809328

>  <SCORE.SYSTEM>
0

>  <SCORE.SYSTEM.CONST>
0

>  <SCORE.SYSTEM.DIHEDRAL>
0

>  <SCORE.SYSTEM.SOLV>
0

>  <SCORE.SYSTEM.norm>
0

>  <SCORE.heavy>
42

>  <SCORE.norm>
-0.416701

>  <RMSD>
5.860

$$$$
2o3w_lig
 OpenBabel11021811463D
libRbt.so/2013.1/901 2013/11/27
 42 45  0  0  0  0  0  0  0  0999 V2000
   11.6609    4.1945    5.9635 C   0  0  2  0  0  0  0  0  0  0  0  0
   11.7741    4.9479    7.1829 O   0  0  0  0  0  0  0  0  0  0  0  0
   12.0623    9.1676    8.1353 C   0  0  2  0  0  0  0  0  0  0  0  0
   12.4527   10.6091    8.1272 N   0  0  0  0  0  0  0  0  0  0  0  0
    9.4587    6.6620    4.8084 C   0  0  1  0  0  0  0  0  0  0  0  0
    5.7284    7.0385    2.4384 C   0  0  1  0  0  0  0  0  0  0  0  0
   10.8454    2.9092    6.2968 C   0  0  2  0  0  0  0  0  0  0  0  0
    9.5999    3.2051    7.0261 N   0  0  0  0  0  0  0  0  0  0  0  0
   13.2884    8.2430    8.5142 C   0  0  0  0  0  0  0  0  0  0  0  0
    8.8491    8.0189    4.3415 C   0  0  2  0  0  0  0  0  0  0  0  0
    8.1168    8.7226    5.3747 O   0  0  0  0  0  0  0  0  0  0  0  0
    5.3304    8.3616    1.6902 C   0  0  2  0  0  0  0  0  0  0  0  0
    4.7960    9.3757    2.6477 N   0  0  0  0  0  0  0  0  0  0  0  0
   11.6441    1.9189    7.1642 C   0  0  1  0  0  0  0  0  0  0  0  0
   10.8742    0.7411    7.4113 O   0  0  0  0  0  0  0  0  0  0  0  0
   12.8103    6.7418    8.5280 C   0  0  2  0  0  0  0  0  0  0  0  0
   13.9376    5.8431    8.8958 N   0  0  0  0  0  0  0  0  0  0  0  0
    8.0253    7.5740    3.1321 C   0  0  2  0  0  0  0  0  0  0  0  0
    6.6586    7.2175    3.5138 O   0  0  0  0  0  0  0  0  0  0  0  0
    4.2552    8.0223    0.5519 C   0  0  1  0  0  0  0  0  0  0  0  0
    4.9259    7.3529   -0.5395 O   0  0  0  0  0  0  0  0  0  0  0  0
   12.9809    1.5829    6.4648 C   0  0  2  0  0  0  0  0  0  0  0  0
   13.7168    0.6640    7.2385 O   0  0  0  0  0  0  0  0  0  0  0  0
   12.2401    6.3258    7.1146 C   0  0  2  0  0  0  0  0  0  0  0  0
    8.7688    6.3686    2.5323 C   0  0  2  0  0  0  0  0  0  0  0  0
    9.3839    5.7716    3.6714 O   0  0  0  0  0  0  0  0  0  0  0  0
    3.0532    7.1065    1.0847 C   0  0  2  0  0  0  0  0  0  0  0  0
    2.2700    7.8992    1.9762 O   0  0  0  0  0  0  0  0  0  0  0  0
   13.7932    2.9041    6.2544 C   0  0  2  0  0  0  0  0  0  0  0  0
   13.0052    3.8443    5.4576 O   0  0  0  0  0  0  0  0  0  0  0  0
   11.0723    7.2243    6.6519 C   0  0  2  0  0  0  0  0  0  0  0  0
   10.8026    6.8240    5.2802 O   0  0  0  0  0  0  0  0  0  0  0  0
    9.8286    6.7241    1.4439 C   0  0  0  0  0  0  0  0  0  0  0  0
   11.0564    7.0696    2.0780 O   0  0  0  0  0  0  0  0  0  0  0  0
    3.6109    5.8362    1.8313 C   0  0  1  0  0  0  0  0  0  0  0  0
    4.4705    6.3431    2.9150 O   0  0  0  0  0  0  0  0  0  0  0  0
   15.1185    2.6687    5.5675 C   0  0  0  0  0  0  0  0  0  0  0  0
   15.9013    3.8369    5.6106 O   0  0  0  0  0  0  0  0  0  0  0  0
   11.4947    8.7516    6.7192 C   0  0  1  0  0  0  0  0  0  0  0  0
   10.3692    9.5878    6.4371 O   0  0  0  0  0  0  0  0  0  0  0  0
    2.4822    4.8857    2.4240 C   0  0  0  0  0  0  0  0  0  0  0  0
    1.6204    4.2071    1.4174 N   0  0  0  0  0  0  0  0  0  0  0  0
  1  2  1  1  0  0  0
  1  7  1  0  0  0  0
  1 30  1  0  0  0  0
  3  4  1  6  0  0  0
  3  9  1  0  0  0  0
  3 39  1  0  0  0  0
  5 10  1  0  0  0  0
  5 26  1  0  0  0  0
  5 32  1  6  0  0  0
  6 12  1  0  0  0  0
  6 36  1  0  0  0  0
  6 19  1  1  0  0  0
  7  8  1  1  0  0  0
  7 14  1  0  0  0  0
  9 16  1  0  0  0  0
 10 11  1  1  0  0  0
 10 18  1  0  0  0  0
 12 13  1  1  0  0  0
 12 20  1  0  0  0  0
 14 15  1  6  0  0  0
 14 22  1  0  0  0  0
 16 17  1  6  0  0  0
 16 24  1  0  0  0  0
 18 19  1  1  0  0  0
 18 25  1  0  0  0  0
 20 21  1  6  0  0  0
 20 27  1  0  0  0  0
 22 23  1  1  0  0  0
 22 29  1  0  0  0  0
 24  2  1  1  0  0  0
 24 31  1  0  0  0  0
 25 26  1  0  0  0  0
 25 33  1  6  0  0  0
 27 28  1  1  0  0  0
 27 35  1  0  0  0  0
 29 30  1  0  0  0  0
 29 37  1  6  0  0  0
 31 32  1  6  0  0  0
 31 39  1  0  0  0  0
 33 34  1  0  0  0  0
 35 36  1  0  0  0  0
 35 41  1  1  0  0  0
 37 38  1  0  0  0  0
 39 40  1  1  0  0  0
 41 42  1  0  0  0  0
M  END
>  <CHROM.1>
-167.17774444,84.70054608,-70.19451858,168.25351868,-158.10246300,84.20901745
-169.87092015,137.16933130,66.12650370,9.39175441,6.01519343,4.78187601,0.19490177
0.55403698,-3.04193143

>  <Name>
2o3w_lig

>  <RI>
0

>  <Rbt.Current_Directory>
/home/itssahil/PROJECTS/Mol_Feturizer/New_Systems/rnas/2o3w

>  <Rbt.Executable>
rbdock ($Id: //depot/dev/client3/rdock/2013.1/src/exe/rbdock.cxx#4 $)

>  <Rbt.Library>
libRbt.so (2013.1, Build901 2013/11/27)

>  <Rbt.Parameter_File>
/export/apps/rDock/src/rDock_2013.1_src/data/scripts/dock_solv.prm

>  <Rbt.Receptor>
prm/pocket_docking_8.prm

>  <SCORE>
-13.7807

>  <SCORE.INTER>
-6.75052

>  <SCORE.INTER.CONST>
1

>  <SCORE.INTER.POLAR>
-1.02092

>  <SCORE.INTER.ROT>
9

>  <SCORE.INTER.SOLV>
15.0214

>  <SCORE.INTER.VDW>
-15.7044

>  <SCORE.INTER.norm>
-0.160727

>  <SCORE.INTRA>
-7.03022

>  <SCORE.INTRA.DIHEDRAL>
-12.9594

>  <SCORE.INTRA.DIHEDRAL.0>
27.8999

>  <SCORE.INTRA.POLAR>
0

>  <SCORE.INTRA.POLAR.0>
0

>  <SCORE.INTRA.REPUL>
0

>  <SCORE.INTRA.REPUL.0>
0

>  <SCORE.INTRA.SOLV>
-4.028

>  <SCORE.INTRA.SOLV.lig_0>
-104.479

>  <SCORE.INTRA.VDW>
1.46351

>  <SCORE.INTRA.VDW.0>
-6.17816

>  <SCORE.INTRA.norm>
-0.167386

>  <SCORE.RESTR>
0

>  <SCORE.RESTR.CAVITY>
0

>  <SCORE.RESTR.norm>
0

>  <SCORE.SYSTEM>
0

>  <SCORE.SYSTEM.CONST>
0

>  <SCORE.SYSTEM.DIHEDRAL>
0

>  <SCORE.SYSTEM.SOLV>
0

>  <SCORE.SYSTEM.norm>
0

>  <SCORE.heavy>
42

>  <SCORE.norm>
-0.328113

>  <RMSD>
5.910

$$$$
2o3w_lig
 OpenBabel11021811463D
libRbt.so/2013.1/901 2013/11/27
 42 45  0  0  0  0  0  0  0  0999 V2000
    8.1765    2.9974    2.6242 C   0  0  2  0  0  0  0  0  0  0  0  0
    7.1034    3.1254    3.5726 O   0  0  0  0  0  0  0  0  0  0  0  0
    3.4697    5.4897    3.5213 C   0  0  2  0  0  0  0  0  0  0  0  0
    2.5118    6.6330    3.4446 N   0  0  0  0  0  0  0  0  0  0  0  0
    6.8350    5.6642    0.7305 C   0  0  1  0  0  0  0  0  0  0  0  0
    7.2242    8.4838   -0.2429 C   0  0  1  0  0  0  0  0  0  0  0  0
    8.8136    1.5926    2.8449 C   0  0  2  0  0  0  0  0  0  0  0  0
    7.8082    0.5162    2.8766 N   0  0  0  0  0  0  0  0  0  0  0  0
    4.4081    5.6112    4.7888 C   0  0  0  0  0  0  0  0  0  0  0  0
    7.5050    6.4202    1.9181 C   0  0  2  0  0  0  0  0  0  0  0  0
    6.6029    7.2868    2.6490 O   0  0  0  0  0  0  0  0  0  0  0  0
    7.6187    7.9389   -1.6629 C   0  0  2  0  0  0  0  0  0  0  0  0
    8.8122    8.6600   -2.1982 N   0  0  0  0  0  0  0  0  0  0  0  0
    9.5977    1.5078    4.1674 C   0  0  1  0  0  0  0  0  0  0  0  0
   10.1963    0.2184    4.3090 O   0  0  0  0  0  0  0  0  0  0  0  0
    5.3774    4.3696    4.8270 C   0  0  2  0  0  0  0  0  0  0  0  0
    6.2668    4.4440    6.0174 N   0  0  0  0  0  0  0  0  0  0  0  0
    8.6653    7.1195    1.2082 C   0  0  2  0  0  0  0  0  0  0  0  0
    8.2798    8.4458    0.7255 O   0  0  0  0  0  0  0  0  0  0  0  0
    6.3667    8.0850   -2.6518 C   0  0  1  0  0  0  0  0  0  0  0  0
    5.3798    7.0871   -2.3065 O   0  0  0  0  0  0  0  0  0  0  0  0
   10.6591    2.6306    4.2104 C   0  0  2  0  0  0  0  0  0  0  0  0
   11.3971    2.5565    5.4080 O   0  0  0  0  0  0  0  0  0  0  0  0
    6.2534    4.3063    3.5138 C   0  0  2  0  0  0  0  0  0  0  0  0
    9.0680    6.1983    0.0443 C   0  0  2  0  0  0  0  0  0  0  0  0
    7.8384    5.5677   -0.3063 O   0  0  0  0  0  0  0  0  0  0  0  0
    5.6986    9.5404   -2.5987 C   0  0  2  0  0  0  0  0  0  0  0  0
    6.6206   10.4594   -3.1835 O   0  0  0  0  0  0  0  0  0  0  0  0
    9.9418    4.0163    4.0876 C   0  0  2  0  0  0  0  0  0  0  0  0
    9.1757    4.0650    2.8425 O   0  0  0  0  0  0  0  0  0  0  0  0
    5.4007    4.2429    2.2276 C   0  0  2  0  0  0  0  0  0  0  0  0
    6.3492    4.3771    1.1336 O   0  0  0  0  0  0  0  0  0  0  0  0
   10.1622    5.1411    0.3900 C   0  0  0  0  0  0  0  0  0  0  0  0
   11.2451    5.7850    1.0545 O   0  0  0  0  0  0  0  0  0  0  0  0
    5.3855    9.9544   -1.1112 C   0  0  1  0  0  0  0  0  0  0  0  0
    6.6673    9.8844   -0.3885 O   0  0  0  0  0  0  0  0  0  0  0  0
   10.9098    5.1765    4.1144 C   0  0  0  0  0  0  0  0  0  0  0  0
   10.2091    6.3943    4.0406 O   0  0  0  0  0  0  0  0  0  0  0  0
    4.3481    5.4292    2.2078 C   0  0  1  0  0  0  0  0  0  0  0  0
    3.4609    5.2831    1.0956 O   0  0  0  0  0  0  0  0  0  0  0  0
    4.7493   11.4042   -0.9627 C   0  0  0  0  0  0  0  0  0  0  0  0
    3.4153   11.5883   -1.5975 N   0  0  0  0  0  0  0  0  0  0  0  0
  1  2  1  1  0  0  0
  1  7  1  0  0  0  0
  1 30  1  0  0  0  0
  3  4  1  6  0  0  0
  3  9  1  0  0  0  0
  3 39  1  0  0  0  0
  5 10  1  0  0  0  0
  5 26  1  0  0  0  0
  5 32  1  1  0  0  0
  6 12  1  0  0  0  0
  6 36  1  0  0  0  0
  6 19  1  1  0  0  0
  7  8  1  1  0  0  0
  7 14  1  0  0  0  0
  9 16  1  0  0  0  0
 10 11  1  6  0  0  0
 10 18  1  0  0  0  0
 12 13  1  6  0  0  0
 12 20  1  0  0  0  0
 14 15  1  6  0  0  0
 14 22  1  0  0  0  0
 16 17  1  1  0  0  0
 16 24  1  0  0  0  0
 18 19  1  6  0  0  0
 18 25  1  0  0  0  0
 20 21  1  1  0  0  0
 20 27  1  0  0  0  0
 22 23  1  1  0  0  0
 22 29  1  0  0  0  0
 24  2  1  1  0  0  0
 24 31  1  0  0  0  0
 25 26  1  0  0  0  0
 25 33  1  1  0  0  0
 27 28  1  1  0  0  0
 27 35  1  0  0  0  0
 29 30  1  0  0  0  0
 29 37  1  6  0  0  0
 31 32  1  6  0  0  0
 31 39  1  0  0  0  0
 33 34  1  0  0  0  0
 35 36  1  0  0  0  0
 35 41  1  6  0  0  0
 37 38  1  0  0  0  0
 39 40  1  6  0  0  0
 41 42  1  0  0  0  0
M  END
>  <CHROM.1>
-174.81905173,56.75432628,-70.97003572,-61.73187380,-167.61347412,-48.76694544
-178.27793453,-81.29921746,63.49814065,7.31693299,5.85406598,1.59943475,-1.19774998
0.22069663,-0.77140730

>  <Name>
2o3w_lig

>  <RI>
0

>  <Rbt.Current_Directory>
/home/itssahil/PROJECTS/Mol_Feturizer/New_Systems/rnas/2o3w

>  <Rbt.Executable>
rbdock ($Id: //depot/dev/client3/rdock/2013.1/src/exe/rbdock.cxx#4 $)

>  <Rbt.Library>
libRbt.so (2013.1, Build901 2013/11/27)

>  <Rbt.Parameter_File>
/export/apps/rDock/src/rDock_2013.1_src/data/scripts/dock_solv.prm

>  <Rbt.Receptor>
prm/pocket_docking_4.prm

>  <SCORE>
-24.7151

>  <SCORE.INTER>
-15.068

>  <SCORE.INTER.CONST>
1

>  <SCORE.INTER.POLAR>
-2.64896

>  <SCORE.INTER.ROT>
9

>  <SCORE.INTER.SOLV>
17.5246

>  <SCORE.INTER.VDW>
-16.657

>  <SCORE.INTER.norm>
-0.358763

>  <SCORE.INTRA>
-9.85926

>  <SCORE.INTRA.DIHEDRAL>
-23.7612

>  <SCORE.INTRA.DIHEDRAL.0>
27.8999

>  <SCORE.INTRA.POLAR>
0

>  <SCORE.INTRA.POLAR.0>
0

>  <SCORE.INTRA.REPUL>
0

>  <SCORE.INTRA.REPUL.0>
0

>  <SCORE.INTRA.SOLV>
-1.00553

>  <SCORE.INTRA.SOLV.lig_0>
-104.479

>  <SCORE.INTRA.VDW>
2.52409

>  <SCORE.INTRA.VDW.0>
-6.17816

>  <SCORE.INTRA.norm>
-0.234744

>  <SCORE.RESTR>
0.212191

>  <SCORE.RESTR.CAVITY>
0.212191

>  <SCORE.RESTR.norm>
0.00505218

>  <SCORE.SYSTEM>
0

>  <SCORE.SYSTEM.CONST>
0

>  <SCORE.SYSTEM.DIHEDRAL>
0

>  <SCORE.SYSTEM.SOLV>
0

>  <SCORE.SYSTEM.norm>
0

>  <SCORE.heavy>
42

>  <SCORE.norm>
-0.588455

>  <RMSD>
5.920

$$$$
2o3w_lig
 OpenBabel11021811463D
libRbt.so/2013.1/901 2013/11/27
 42 45  0  0  0  0  0  0  0  0999 V2000
    8.6627    4.0624    4.9788 C   0  0  2  0  0  0  0  0  0  0  0  0
    7.7429    2.9709    5.1519 O   0  0  0  0  0  0  0  0  0  0  0  0
    7.7301   -0.7069    2.8565 C   0  0  2  0  0  0  0  0  0  0  0  0
    7.5532   -1.7031    1.7579 N   0  0  0  0  0  0  0  0  0  0  0  0
    9.1226    3.2558    1.6163 C   0  0  1  0  0  0  0  0  0  0  0  0
    7.1538    5.6758   -1.6166 C   0  0  1  0  0  0  0  0  0  0  0  0
    9.0388    4.5706    6.4031 C   0  0  2  0  0  0  0  0  0  0  0  0
    9.4491    3.4775    7.3016 N   0  0  0  0  0  0  0  0  0  0  0  0
    6.3371   -0.1439    3.3506 C   0  0  0  0  0  0  0  0  0  0  0  0
    7.6687    3.8187    1.6034 C   0  0  2  0  0  0  0  0  0  0  0  0
    6.6628    2.8439    1.2332 O   0  0  0  0  0  0  0  0  0  0  0  0
    8.3326    6.4248   -2.3365 C   0  0  2  0  0  0  0  0  0  0  0  0
    9.3098    6.9613   -1.3424 N   0  0  0  0  0  0  0  0  0  0  0  0
    7.8691    5.2974    7.0920 C   0  0  1  0  0  0  0  0  0  0  0  0
    8.2700    5.7797    8.3755 O   0  0  0  0  0  0  0  0  0  0  0  0
    6.5871    0.8813    4.5206 C   0  0  2  0  0  0  0  0  0  0  0  0
    5.2940    1.4213    5.0206 N   0  0  0  0  0  0  0  0  0  0  0  0
    7.8193    5.0083    0.6539 C   0  0  2  0  0  0  0  0  0  0  0  0
    7.5651    4.6238   -0.7348 O   0  0  0  0  0  0  0  0  0  0  0  0
    7.7347    7.5994   -3.2474 C   0  0  1  0  0  0  0  0  0  0  0  0
    7.1096    7.0152   -4.4122 O   0  0  0  0  0  0  0  0  0  0  0  0
    7.3718    6.4475    6.1869 C   0  0  2  0  0  0  0  0  0  0  0  0
    6.3115    7.1336    6.8110 O   0  0  0  0  0  0  0  0  0  0  0  0
    7.5049    2.0708    4.0323 C   0  0  2  0  0  0  0  0  0  0  0  0
    9.2589    5.5176    0.8365 C   0  0  2  0  0  0  0  0  0  0  0  0
    9.9784    4.3333    1.1717 O   0  0  0  0  0  0  0  0  0  0  0  0
    6.6712    8.5105   -2.4686 C   0  0  2  0  0  0  0  0  0  0  0  0
    7.3840    9.2597   -1.4852 O   0  0  0  0  0  0  0  0  0  0  0  0
    6.9140    5.8543    4.8128 C   0  0  2  0  0  0  0  0  0  0  0  0
    8.0280    5.1397    4.1899 O   0  0  0  0  0  0  0  0  0  0  0  0
    8.8654    1.5903    3.4815 C   0  0  2  0  0  0  0  0  0  0  0  0
    9.4892    2.7763    2.9166 O   0  0  0  0  0  0  0  0  0  0  0  0
    9.4357    6.6115    1.9348 C   0  0  0  0  0  0  0  0  0  0  0  0
   10.8216    6.8998    2.0929 O   0  0  0  0  0  0  0  0  0  0  0  0
    5.5711    7.6164   -1.7813 C   0  0  1  0  0  0  0  0  0  0  0  0
    6.2934    6.6899   -0.8924 O   0  0  0  0  0  0  0  0  0  0  0  0
    6.4161    6.9151    3.8585 C   0  0  0  0  0  0  0  0  0  0  0  0
    7.4238    7.8685    3.6245 O   0  0  0  0  0  0  0  0  0  0  0  0
    8.6463    0.4847    2.3655 C   0  0  1  0  0  0  0  0  0  0  0  0
    9.9032   -0.0674    1.9645 O   0  0  0  0  0  0  0  0  0  0  0  0
    4.4903    8.4400   -0.9554 C   0  0  0  0  0  0  0  0  0  0  0  0
    5.0384    9.3846    0.0565 N   0  0  0  0  0  0  0  0  0  0  0  0
  1  2  1  1  0  0  0
  1  7  1  0  0  0  0
  1 30  1  0  0  0  0
  3  4  1  6  0  0  0
  3  9  1  0  0  0  0
  3 39  1  0  0  0  0
  5 10  1  0  0  0  0
  5 26  1  0  0  0  0
  5 32  1  1  0  0  0
  6 12  1  0  0  0  0
  6 36  1  0  0  0  0
  6 19  1  1  0  0  0
  7  8  1  1  0  0  0
  7 14  1  0  0  0  0
  9 16  1  0  0  0  0
 10 11  1  6  0  0  0
 10 18  1  0  0  0  0
 12 13  1  1  0  0  0
 12 20  1  0  0  0  0
 14 15  1  1  0  0  0
 14 22  1  0  0  0  0
 16 17  1  6  0  0  0
 16 24  1  0  0  0  0
 18 19  1  6  0  0  0
 18 25  1  0  0  0  0
 20 21  1  6  0  0  0
 20 27  1  0  0  0  0
 22 23  1  1  0  0  0
 22 29  1  0  0  0  0
 24  2  1  1  0  0  0
 24 31  1  0  0  0  0
 25 26  1  0  0  0  0
 25 33  1  1  0  0  0
 27 28  1  1  0  0  0
 27 35  1  0  0  0  0
 29 30  1  0  0  0  0
 29 37  1  6  0  0  0
 31 32  1  6  0  0  0
 31 39  1  0  0  0  0
 33 34  1  0  0  0  0
 35 36  1  0  0  0  0
 35 41  1  1  0  0  0
 37 38  1  0  0  0  0
 39 40  1  1  0  0  0
 41 42  1  0  0  0  0
M  END
>  <CHROM.1>
-163.36127131,68.56045653,89.68695377,156.01967762,173.99867825,174.37804165
58.48536922,-80.16673291,-52.96074340,7.74700589,4.76219595,2.16702784,0.68363153
-1.43400664,1.33114271

>  <Name>
2o3w_lig

>  <RI>
0

>  <Rbt.Current_Directory>
/home/itssahil/PROJECTS/Mol_Feturizer/New_Systems/rnas/2o3w

>  <Rbt.Executable>
rbdock ($Id: //depot/dev/client3/rdock/2013.1/src/exe/rbdock.cxx#4 $)

>  <Rbt.Library>
libRbt.so (2013.1, Build901 2013/11/27)

>  <Rbt.Parameter_File>
/export/apps/rDock/src/rDock_2013.1_src/data/scripts/dock_solv.prm

>  <Rbt.Receptor>
prm/pocket_docking_5.prm

>  <SCORE>
-21.6254

>  <SCORE.INTER>
-16.1431

>  <SCORE.INTER.CONST>
1

>  <SCORE.INTER.POLAR>
-3.55272

>  <SCORE.INTER.ROT>
9

>  <SCORE.INTER.SOLV>
15.3887

>  <SCORE.INTER.VDW>
-13.6492

>  <SCORE.INTER.norm>
-0.38436

>  <SCORE.INTRA>
-5.48223

>  <SCORE.INTRA.DIHEDRAL>
-17.8452

>  <SCORE.INTRA.DIHEDRAL.0>
27.8999

>  <SCORE.INTRA.POLAR>
0

>  <SCORE.INTRA.POLAR.0>
0

>  <SCORE.INTRA.REPUL>
0

>  <SCORE.INTRA.REPUL.0>
0

>  <SCORE.INTRA.SOLV>
0.555929

>  <SCORE.INTRA.SOLV.lig_0>
-104.479

>  <SCORE.INTRA.VDW>
3.16242

>  <SCORE.INTRA.VDW.0>
-6.17816

>  <SCORE.INTRA.norm>
-0.130529

>  <SCORE.RESTR>
0

>  <SCORE.RESTR.CAVITY>
0

>  <SCORE.RESTR.norm>
0

>  <SCORE.SYSTEM>
0

>  <SCORE.SYSTEM.CONST>
0

>  <SCORE.SYSTEM.DIHEDRAL>
0

>  <SCORE.SYSTEM.SOLV>
0

>  <SCORE.SYSTEM.norm>
0

>  <SCORE.heavy>
42

>  <SCORE.norm>
-0.514889

>  <RMSD>
5.920

$$$$
2o3w_lig
 OpenBabel11021811463D
libRbt.so/2013.1/901 2013/11/27
 42 45  0  0  0  0  0  0  0  0999 V2000
    6.2455   -1.3913    3.0848 C   0  0  2  0  0  0  0  0  0  0  0  0
    5.6446   -0.8884    4.2903 O   0  0  0  0  0  0  0  0  0  0  0  0
    1.5309   -0.8034    2.9242 C   0  0  2  0  0  0  0  0  0  0  0  0
    0.0428   -0.6842    2.8834 N   0  0  0  0  0  0  0  0  0  0  0  0
    4.8456    2.7301    3.6500 C   0  0  1  0  0  0  0  0  0  0  0  0
    5.8013    6.8239    2.3426 C   0  0  1  0  0  0  0  0  0  0  0  0
    7.7866   -1.4028    3.3150 C   0  0  2  0  0  0  0  0  0  0  0  0
    8.1627   -2.0563    4.5808 N   0  0  0  0  0  0  0  0  0  0  0  0
    1.9844   -2.0287    3.8156 C   0  0  0  0  0  0  0  0  0  0  0  0
    3.7535    3.7552    3.2172 C   0  0  2  0  0  0  0  0  0  0  0  0
    3.2537    3.5515    1.8727 O   0  0  0  0  0  0  0  0  0  0  0  0
    6.5193    7.2878    1.0243 C   0  0  2  0  0  0  0  0  0  0  0  0
    7.5479    6.2920    0.5983 N   0  0  0  0  0  0  0  0  0  0  0  0
    8.3824    0.0166    3.3533 C   0  0  1  0  0  0  0  0  0  0  0  0
    9.7992   -0.0432    3.5261 O   0  0  0  0  0  0  0  0  0  0  0  0
    3.5575   -2.1155    3.8014 C   0  0  2  0  0  0  0  0  0  0  0  0
    4.0195   -3.2687    4.6202 N   0  0  0  0  0  0  0  0  0  0  0  0
    4.4770    5.0805    3.4610 C   0  0  2  0  0  0  0  0  0  0  0  0
    5.2061    5.5222    2.2719 O   0  0  0  0  0  0  0  0  0  0  0  0
    7.1770    8.7296    1.2597 C   0  0  1  0  0  0  0  0  0  0  0  0
    6.1270    9.7224    1.2921 O   0  0  0  0  0  0  0  0  0  0  0  0
    8.0030    0.7700    2.0581 C   0  0  2  0  0  0  0  0  0  0  0  0
    8.5551    2.0660    2.0700 O   0  0  0  0  0  0  0  0  0  0  0  0
    4.1940   -0.7811    4.3583 C   0  0  2  0  0  0  0  0  0  0  0  0
    5.4326    4.8319    4.6402 C   0  0  2  0  0  0  0  0  0  0  0  0
    5.7681    3.4537    4.4964 O   0  0  0  0  0  0  0  0  0  0  0  0
    8.0323    8.8098    2.6123 C   0  0  2  0  0  0  0  0  0  0  0  0
    9.1952    8.0019    2.4353 O   0  0  0  0  0  0  0  0  0  0  0  0
    6.4435    0.8343    1.9430 C   0  0  2  0  0  0  0  0  0  0  0  0
    5.8940   -0.5213    1.9423 O   0  0  0  0  0  0  0  0  0  0  0  0
    3.7493    0.4695    3.5688 C   0  0  2  0  0  0  0  0  0  0  0  0
    4.2704    1.6005    4.3196 O   0  0  0  0  0  0  0  0  0  0  0  0
    4.8273    5.1181    6.0495 C   0  0  0  0  0  0  0  0  0  0  0  0
    5.8250    4.9016    7.0428 O   0  0  0  0  0  0  0  0  0  0  0  0
    7.1875    8.2889    3.8358 C   0  0  1  0  0  0  0  0  0  0  0  0
    6.7787    6.9151    3.4956 O   0  0  0  0  0  0  0  0  0  0  0  0
    5.9815    1.5521    0.6959 C   0  0  0  0  0  0  0  0  0  0  0  0
    4.5759    1.5881    0.6496 O   0  0  0  0  0  0  0  0  0  0  0  0
    2.1667    0.5316    3.4847 C   0  0  1  0  0  0  0  0  0  0  0  0
    1.7597    1.6023    2.6282 O   0  0  0  0  0  0  0  0  0  0  0  0
    7.9736    8.3021    5.2180 C   0  0  0  0  0  0  0  0  0  0  0  0
    9.1712    7.4200    5.2842 N   0  0  0  0  0  0  0  0  0  0  0  0
  1  2  1  1  0  0  0
  1  7  1  0  0  0  0
  1 30  1  0  0  0  0
  3  4  1  1  0  0  0
  3  9  1  0  0  0  0
  3 39  1  0  0  0  0
  5 10  1  0  0  0  0
  5 26  1  0  0  0  0
  5 32  1  1  0  0  0
  6 12  1  0  0  0  0
  6 36  1  0  0  0  0
  6 19  1  6  0  0  0
  7  8  1  1  0  0  0
  7 14  1  0  0  0  0
  9 16  1  0  0  0  0
 10 11  1  6  0  0  0
 10 18  1  0  0  0  0
 12 13  1  1  0  0  0
 12 20  1  0  0  0  0
 14 15  1  6  0  0  0
 14 22  1  0  0  0  0
 16 17  1  1  0  0  0
 16 24  1  0  0  0  0
 18 19  1  6  0  0  0
 18 25  1  0  0  0  0
 20 21  1  1  0  0  0
 20 27  1  0  0  0  0
 22 23  1  1  0  0  0
 22 29  1  0  0  0  0
 24  2  1  6  0  0  0
 24 31  1  0  0  0  0
 25 26  1  0  0  0  0
 25 33  1  1  0  0  0
 27 28  1  6  0  0  0
 27 35  1  0  0  0  0
 29 30  1  0  0  0  0
 29 37  1  6  0  0  0
 31 32  1  1  0  0  0
 31 39  1  0  0  0  0
 33 34  1  0  0  0  0
 35 36  1  0  0  0  0
 35 41  1  1  0  0  0
 37 38  1  0  0  0  0
 39 40  1  6  0  0  0
 41 42  1  0  0  0  0
M  END
>  <CHROM.1>
-179.44819485,84.82295724,-177.37446817,173.48904289,45.85076333,-177.68655500
-179.58174624,139.20333089,-62.80006248,5.67339006,2.89882401,3.18754836
-1.89305986,-0.03000114,-0.06588073

>  <Name>
2o3w_lig

>  <RI>
0

>  <Rbt.Current_Directory>
/home/itssahil/PROJECTS/Mol_Feturizer/New_Systems/rnas/2o3w

>  <Rbt.Executable>
rbdock ($Id: //depot/dev/client3/rdock/2013.1/src/exe/rbdock.cxx#4 $)

>  <Rbt.Library>
libRbt.so (2013.1, Build901 2013/11/27)

>  <Rbt.Parameter_File>
/export/apps/rDock/src/rDock_2013.1_src/data/scripts/dock_solv.prm

>  <Rbt.Receptor>
prm/pocket_docking_6.prm

>  <SCORE>
-13.2008

>  <SCORE.INTER>
-4.02255

>  <SCORE.INTER.CONST>
1

>  <SCORE.INTER.POLAR>
0

>  <SCORE.INTER.ROT>
9

>  <SCORE.INTER.SOLV>
8.68604

>  <SCORE.INTER.VDW>
-15.177

>  <SCORE.INTER.norm>
-0.095775

>  <SCORE.INTRA>
-9.17825

>  <SCORE.INTRA.DIHEDRAL>
-18.3701

>  <SCORE.INTRA.DIHEDRAL.0>
27.8999

>  <SCORE.INTRA.POLAR>
0

>  <SCORE.INTRA.POLAR.0>
0

>  <SCORE.INTRA.REPUL>
0

>  <SCORE.INTRA.REPUL.0>
0

>  <SCORE.INTRA.SOLV>
-1.64275

>  <SCORE.INTRA.SOLV.lig_0>
-104.479

>  <SCORE.INTRA.VDW>
0.828182

>  <SCORE.INTRA.VDW.0>
-6.17816

>  <SCORE.INTRA.norm>
-0.21853

>  <SCORE.RESTR>
0

>  <SCORE.RESTR.CAVITY>
0

>  <SCORE.RESTR.norm>
0

>  <SCORE.SYSTEM>
0

>  <SCORE.SYSTEM.CONST>
0

>  <SCORE.SYSTEM.DIHEDRAL>
0

>  <SCORE.SYSTEM.SOLV>
0

>  <SCORE.SYSTEM.norm>
0

>  <SCORE.heavy>
42

>  <SCORE.norm>
-0.314305

>  <RMSD>
5.967

$$$$
2o3w_lig
 OpenBabel11021811463D
libRbt.so/2013.1/901 2013/11/27
 42 45  0  0  0  0  0  0  0  0999 V2000
    5.2999    2.3565    5.1591 C   0  0  2  0  0  0  0  0  0  0  0  0
    5.2861    3.0421    3.8954 O   0  0  0  0  0  0  0  0  0  0  0  0
    2.1969    3.3543    0.8697 C   0  0  2  0  0  0  0  0  0  0  0  0
    0.9259    3.6792    0.1559 N   0  0  0  0  0  0  0  0  0  0  0  0
    5.5676    6.5414    2.1780 C   0  0  1  0  0  0  0  0  0  0  0  0
    6.9754    8.4349    0.3055 C   0  0  1  0  0  0  0  0  0  0  0  0
    6.4017    3.0309    6.0307 C   0  0  2  0  0  0  0  0  0  0  0  0
    6.2776    4.4987    6.0597 N   0  0  0  0  0  0  0  0  0  0  0  0
    1.9383    2.3772    2.0863 C   0  0  0  0  0  0  0  0  0  0  0  0
    5.6682    7.8874    2.9583 C   0  0  2  0  0  0  0  0  0  0  0  0
    4.7152    8.8905    2.5284 O   0  0  0  0  0  0  0  0  0  0  0  0
    7.9914    7.3510   -0.2061 C   0  0  2  0  0  0  0  0  0  0  0  0
    9.3686    7.9192   -0.3129 N   0  0  0  0  0  0  0  0  0  0  0  0
    7.8214    2.7146    5.5255 C   0  0  1  0  0  0  0  0  0  0  0  0
    8.7979    3.3189    6.3753 O   0  0  0  0  0  0  0  0  0  0  0  0
    3.3141    2.0547    2.7831 C   0  0  2  0  0  0  0  0  0  0  0  0
    3.1097    1.1243    3.9260 N   0  0  0  0  0  0  0  0  0  0  0  0
    7.1416    8.2417    2.7507 C   0  0  2  0  0  0  0  0  0  0  0  0
    7.3358    9.0517    1.5478 O   0  0  0  0  0  0  0  0  0  0  0  0
    7.4921    6.7831   -1.6185 C   0  0  1  0  0  0  0  0  0  0  0  0
    6.3526    5.9214   -1.3991 O   0  0  0  0  0  0  0  0  0  0  0  0
    8.0115    1.1826    5.4477 C   0  0  2  0  0  0  0  0  0  0  0  0
    9.3125    0.8761    5.0027 O   0  0  0  0  0  0  0  0  0  0  0  0
    4.0031    3.3807    3.2958 C   0  0  2  0  0  0  0  0  0  0  0  0
    7.8898    6.9020    2.6472 C   0  0  2  0  0  0  0  0  0  0  0  0
    6.9177    6.0354    2.0671 O   0  0  0  0  0  0  0  0  0  0  0  0
    7.0959    7.9431   -2.6505 C   0  0  2  0  0  0  0  0  0  0  0  0
    8.2986    8.6104   -3.0311 O   0  0  0  0  0  0  0  0  0  0  0  0
    6.9396    0.5837    4.4772 C   0  0  2  0  0  0  0  0  0  0  0  0
    5.5993    0.9232    4.9549 O   0  0  0  0  0  0  0  0  0  0  0  0
    4.2364    4.4092    2.1675 C   0  0  2  0  0  0  0  0  0  0  0  0
    4.6959    5.6147    2.8385 O   0  0  0  0  0  0  0  0  0  0  0  0
    8.4112    6.3329    4.0031 C   0  0  0  0  0  0  0  0  0  0  0  0
    9.0832    5.0992    3.7682 O   0  0  0  0  0  0  0  0  0  0  0  0
    6.0948    8.9612   -1.9847 C   0  0  1  0  0  0  0  0  0  0  0  0
    6.7710    9.4713   -0.7794 O   0  0  0  0  0  0  0  0  0  0  0  0
    7.0484   -0.9179    4.3459 C   0  0  0  0  0  0  0  0  0  0  0  0
    6.0363   -1.4051    3.4988 O   0  0  0  0  0  0  0  0  0  0  0  0
    2.8840    4.6820    1.3851 C   0  0  1  0  0  0  0  0  0  0  0  0
    3.1306    5.5154    0.2492 O   0  0  0  0  0  0  0  0  0  0  0  0
    5.6737   10.1680   -2.9308 C   0  0  0  0  0  0  0  0  0  0  0  0
    4.8174    9.8041   -4.0932 N   0  0  0  0  0  0  0  0  0  0  0  0
  1  2  1  6  0  0  0
  1  7  1  0  0  0  0
  1 30  1  0  0  0  0
  3  4  1  1  0  0  0
  3  9  1  0  0  0  0
  3 39  1  0  0  0  0
  5 10  1  0  0  0  0
  5 26  1  0  0  0  0
  5 32  1  1  0  0  0
  6 12  1  0  0  0  0
  6 36  1  0  0  0  0
  6 19  1  1  0  0  0
  7  8  1  6  0  0  0
  7 14  1  0  0  0  0
  9 16  1  0  0  0  0
 10 11  1  6  0  0  0
 10 18  1  0  0  0  0
 12 13  1  6  0  0  0
 12 20  1  0  0  0  0
 14 15  1  1  0  0  0
 14 22  1  0  0  0  0
 16 17  1  1  0  0  0
 16 24  1  0  0  0  0
 18 19  1  6  0  0  0
 18 25  1  0  0  0  0
 20 21  1  1  0  0  0
 20 27  1  0  0  0  0
 22 23  1  6  0  0  0
 22 29  1  0  0  0  0
 24  2  1  6  0  0  0
 24 31  1  0  0  0  0
 25 26  1  0  0  0  0
 25 33  1  1  0  0  0
 27 28  1  1  0  0  0
 27 35  1  0  0  0  0
 29 30  1  0  0  0  0
 29 37  1  1  0  0  0
 31 32  1  1  0  0  0
 31 39  1  0  0  0  0
 33 34  1  0  0  0  0
 35 36  1  0  0  0  0
 35 41  1  6  0  0  0
 37 38  1  0  0  0  0
 39 40  1  6  0  0  0
 41 42  1  0  0  0  0
M  END
>  <CHROM.1>
-136.89007801,167.39530089,-74.93731657,-62.41720367,-71.29520227,-179.88012584
178.08002241,151.05688420,68.79731762,6.05114647,5.06455185,2.05928351,1.61397339
0.47019716,2.43064944

>  <Name>
2o3w_lig

>  <RI>
0

>  <Rbt.Current_Directory>
/home/itssahil/PROJECTS/Mol_Feturizer/New_Systems/rnas/2o3w

>  <Rbt.Executable>
rbdock ($Id: //depot/dev/client3/rdock/2013.1/src/exe/rbdock.cxx#4 $)

>  <Rbt.Library>
libRbt.so (2013.1, Build901 2013/11/27)

>  <Rbt.Parameter_File>
/export/apps/rDock/src/rDock_2013.1_src/data/scripts/dock_solv.prm

>  <Rbt.Receptor>
prm/pocket_docking_4.prm

>  <SCORE>
-18.4081

>  <SCORE.INTER>
-13.5821

>  <SCORE.INTER.CONST>
1

>  <SCORE.INTER.POLAR>
-2.66207

>  <SCORE.INTER.ROT>
9

>  <SCORE.INTER.SOLV>
12.451

>  <SCORE.INTER.VDW>
-13.9315

>  <SCORE.INTER.norm>
-0.323383

>  <SCORE.INTRA>
-4.90123

>  <SCORE.INTRA.DIHEDRAL>
-15.7616

>  <SCORE.INTRA.DIHEDRAL.0>
27.8999

>  <SCORE.INTRA.POLAR>
0

>  <SCORE.INTRA.POLAR.0>
0

>  <SCORE.INTRA.REPUL>
0.136823

>  <SCORE.INTRA.REPUL.0>
0

>  <SCORE.INTRA.SOLV>
0.582312

>  <SCORE.INTRA.SOLV.lig_0>
-104.479

>  <SCORE.INTRA.VDW>
2.0043

>  <SCORE.INTRA.VDW.0>
-6.17816

>  <SCORE.INTRA.norm>
-0.116696

>  <SCORE.RESTR>
0.0752554

>  <SCORE.RESTR.CAVITY>
0.0752554

>  <SCORE.RESTR.norm>
0.0017918

>  <SCORE.SYSTEM>
0

>  <SCORE.SYSTEM.CONST>
0

>  <SCORE.SYSTEM.DIHEDRAL>
0

>  <SCORE.SYSTEM.SOLV>
0

>  <SCORE.SYSTEM.norm>
0

>  <SCORE.heavy>
42

>  <SCORE.norm>
-0.438287

>  <RMSD>
5.995

$$$$
2o3w_lig
 OpenBabel11021811463D
libRbt.so/2013.1/901 2013/11/27
 42 45  0  0  0  0  0  0  0  0999 V2000
    9.6923    5.9808    5.9689 C   0  0  2  0  0  0  0  0  0  0  0  0
    8.8129    6.2192    4.8566 O   0  0  0  0  0  0  0  0  0  0  0  0
    5.8579    3.1939    5.8114 C   0  0  2  0  0  0  0  0  0  0  0  0
    4.6616    2.3012    5.7612 N   0  0  0  0  0  0  0  0  0  0  0  0
    8.2644    4.9118    2.1737 C   0  0  1  0  0  0  0  0  0  0  0  0
    7.3380    6.8213   -1.7566 C   0  0  1  0  0  0  0  0  0  0  0  0
   10.8451    7.0245    5.8694 C   0  0  2  0  0  0  0  0  0  0  0  0
   10.3470    8.3987    5.6846 N   0  0  0  0  0  0  0  0  0  0  0  0
    5.4365    4.7099    5.9724 C   0  0  0  0  0  0  0  0  0  0  0  0
    9.0483    4.6912    0.8441 C   0  0  2  0  0  0  0  0  0  0  0  0
   10.2782    5.4514    0.7522 O   0  0  0  0  0  0  0  0  0  0  0  0
    7.5230    8.3234   -2.1789 C   0  0  2  0  0  0  0  0  0  0  0  0
    7.0964    9.2424   -1.0814 N   0  0  0  0  0  0  0  0  0  0  0  0
   11.7962    6.7343    4.6938 C   0  0  1  0  0  0  0  0  0  0  0  0
   12.8574    7.6903    4.6650 O   0  0  0  0  0  0  0  0  0  0  0  0
    6.7371    5.5965    6.0417 C   0  0  2  0  0  0  0  0  0  0  0  0
    6.3775    7.0306    6.2081 N   0  0  0  0  0  0  0  0  0  0  0  0
    7.9778    5.0358   -0.1925 C   0  0  2  0  0  0  0  0  0  0  0  0
    8.0042    6.4565   -0.5414 O   0  0  0  0  0  0  0  0  0  0  0  0
    6.6906    8.6022   -3.5191 C   0  0  1  0  0  0  0  0  0  0  0  0
    7.3742    7.9817   -4.6312 O   0  0  0  0  0  0  0  0  0  0  0  0
   12.3390    5.2920    4.8137 C   0  0  2  0  0  0  0  0  0  0  0  0
   13.2248    5.0162    3.7536 O   0  0  0  0  0  0  0  0  0  0  0  0
    7.6047    5.4158    4.7338 C   0  0  2  0  0  0  0  0  0  0  0  0
    6.6322    4.6422    0.4399 C   0  0  2  0  0  0  0  0  0  0  0  0
    6.8608    4.8440    1.8326 O   0  0  0  0  0  0  0  0  0  0  0  0
    5.1864    8.0555   -3.4422 C   0  0  2  0  0  0  0  0  0  0  0  0
    4.4802    8.8676   -2.5050 O   0  0  0  0  0  0  0  0  0  0  0  0
   11.1358    4.2912    4.8036 C   0  0  2  0  0  0  0  0  0  0  0  0
   10.2267    4.6037    5.9062 O   0  0  0  0  0  0  0  0  0  0  0  0
    8.0070    3.9464    4.4803 C   0  0  2  0  0  0  0  0  0  0  0  0
    8.6269    3.9417    3.1649 O   0  0  0  0  0  0  0  0  0  0  0  0
    6.1730    3.1790    0.1528 C   0  0  0  0  0  0  0  0  0  0  0  0
    5.9190    3.0305   -1.2408 O   0  0  0  0  0  0  0  0  0  0  0  0
    5.1654    6.5487   -2.9826 C   0  0  1  0  0  0  0  0  0  0  0  0
    5.8584    6.5075   -1.6832 O   0  0  0  0  0  0  0  0  0  0  0  0
   11.5765    2.8507    4.9238 C   0  0  0  0  0  0  0  0  0  0  0  0
   10.4680    1.9928    4.8040 O   0  0  0  0  0  0  0  0  0  0  0  0
    6.7238    3.0145    4.5004 C   0  0  1  0  0  0  0  0  0  0  0  0
    7.1107    1.6401    4.4173 O   0  0  0  0  0  0  0  0  0  0  0  0
    3.7054    5.9335   -2.8465 C   0  0  0  0  0  0  0  0  0  0  0  0
    2.8335    6.5694   -1.8208 N   0  0  0  0  0  0  0  0  0  0  0  0
  1  2  1  6  0  0  0
  1  7  1  0  0  0  0
  1 30  1  0  0  0  0
  3  4  1  6  0  0  0
  3  9  1  0  0  0  0
  3 39  1  0  0  0  0
  5 10  1  0  0  0  0
  5 26  1  0  0  0  0
  5 32  1  1  0  0  0
  6 12  1  0  0  0  0
  6 36  1  0  0  0  0
  6 19  1  1  0  0  0
  7  8  1  6  0  0  0
  7 14  1  0  0  0  0
  9 16  1  0  0  0  0
 10 11  1  1  0  0  0
 10 18  1  0  0  0  0
 12 13  1  1  0  0  0
 12 20  1  0  0  0  0
 14 15  1  1  0  0  0
 14 22  1  0  0  0  0
 16 17  1  6  0  0  0
 16 24  1  0  0  0  0
 18 19  1  1  0  0  0
 18 25  1  0  0  0  0
 20 21  1  6  0  0  0
 20 27  1  0  0  0  0
 22 23  1  6  0  0  0
 22 29  1  0  0  0  0
 24  2  1  1  0  0  0
 24 31  1  0  0  0  0
 25 26  1  0  0  0  0
 25 33  1  1  0  0  0
 27 28  1  1  0  0  0
 27 35  1  0  0  0  0
 29 30  1  0  0  0  0
 29 37  1  1  0  0  0
 31 32  1  6  0  0  0
 31 39  1  0  0  0  0
 33 34  1  0  0  0  0
 35 36  1  0  0  0  0
 35 41  1  1  0  0  0
 37 38  1  0  0  0  0
 39 40  1  1  0  0  0
 41 42  1  0  0  0  0
M  END
>  <CHROM.1>
-177.33767752,-179.25003555,-173.54313537,162.33899531,57.89954203,-65.20250050
-175.39720396,-27.76812713,-62.89603527,7.94934914,5.52168457,2.06460977
-1.05447565,-0.43967994,-1.05038673

>  <Name>
2o3w_lig

>  <RI>
0

>  <Rbt.Current_Directory>
/home/itssahil/PROJECTS/Mol_Feturizer/New_Systems/rnas/2o3w

>  <Rbt.Executable>
rbdock ($Id: //depot/dev/client3/rdock/2013.1/src/exe/rbdock.cxx#4 $)

>  <Rbt.Library>
libRbt.so (2013.1, Build901 2013/11/27)

>  <Rbt.Parameter_File>
/export/apps/rDock/src/rDock_2013.1_src/data/scripts/dock_solv.prm

>  <Rbt.Receptor>
prm/pocket_docking_5.prm

>  <SCORE>
-20.2715

>  <SCORE.INTER>
-10.6419

>  <SCORE.INTER.CONST>
1

>  <SCORE.INTER.POLAR>
-2.59536

>  <SCORE.INTER.ROT>
9

>  <SCORE.INTER.SOLV>
18.0965

>  <SCORE.INTER.VDW>
-14.0755

>  <SCORE.INTER.norm>
-0.253378

>  <SCORE.INTRA>
-9.62965

>  <SCORE.INTRA.DIHEDRAL>
-21.8337

>  <SCORE.INTRA.DIHEDRAL.0>
27.8999

>  <SCORE.INTRA.POLAR>
0

>  <SCORE.INTRA.POLAR.0>
0

>  <SCORE.INTRA.REPUL>
0

>  <SCORE.INTRA.REPUL.0>
0

>  <SCORE.INTRA.SOLV>
-2.96645

>  <SCORE.INTRA.SOLV.lig_0>
-104.479

>  <SCORE.INTRA.VDW>
2.77043

>  <SCORE.INTRA.VDW.0>
-6.17816

>  <SCORE.INTRA.norm>
-0.229277

>  <SCORE.RESTR>
0

>  <SCORE.RESTR.CAVITY>
0

>  <SCORE.RESTR.norm>
0

>  <SCORE.SYSTEM>
0

>  <SCORE.SYSTEM.CONST>
0

>  <SCORE.SYSTEM.DIHEDRAL>
0

>  <SCORE.SYSTEM.SOLV>
0

>  <SCORE.SYSTEM.norm>
0

>  <SCORE.heavy>
42

>  <SCORE.norm>
-0.482655

>  <RMSD>
6.002

$$$$
2o3w_lig
 OpenBabel11021811463D
libRbt.so/2013.1/901 2013/11/27
 42 45  0  0  0  0  0  0  0  0999 V2000
    4.5606    1.2462    5.1827 C   0  0  2  0  0  0  0  0  0  0  0  0
    4.3791    2.4267    4.3821 O   0  0  0  0  0  0  0  0  0  0  0  0
    5.7825    6.4782    5.0239 C   0  0  2  0  0  0  0  0  0  0  0  0
    6.6589    7.6783    5.1725 N   0  0  0  0  0  0  0  0  0  0  0  0
    4.6983    3.8223    1.0023 C   0  0  1  0  0  0  0  0  0  0  0  0
    3.0233    4.8050   -2.9896 C   0  0  1  0  0  0  0  0  0  0  0  0
    5.5309    0.3108    4.4006 C   0  0  2  0  0  0  0  0  0  0  0  0
    6.7444    1.0112    3.9450 N   0  0  0  0  0  0  0  0  0  0  0  0
    6.0730    5.4116    6.1552 C   0  0  0  0  0  0  0  0  0  0  0  0
    4.4467    5.2712    0.4845 C   0  0  2  0  0  0  0  0  0  0  0  0
    3.2378    5.8801    1.0011 O   0  0  0  0  0  0  0  0  0  0  0  0
    3.1198    6.2479   -3.6040 C   0  0  2  0  0  0  0  0  0  0  0  0
    2.1205    7.1632   -2.9757 N   0  0  0  0  0  0  0  0  0  0  0  0
    4.8729   -0.2987    3.1490 C   0  0  1  0  0  0  0  0  0  0  0  0
    5.7833   -1.1781    2.4866 O   0  0  0  0  0  0  0  0  0  0  0  0
    5.1058    4.1834    5.9591 C   0  0  2  0  0  0  0  0  0  0  0  0
    5.3421    3.1646    7.0173 N   0  0  0  0  0  0  0  0  0  0  0  0
    4.4854    5.0565   -1.0293 C   0  0  2  0  0  0  0  0  0  0  0  0
    3.1576    4.7532   -1.5638 O   0  0  0  0  0  0  0  0  0  0  0  0
    2.9052    6.1629   -5.1895 C   0  0  1  0  0  0  0  0  0  0  0  0
    4.0899    5.5945   -5.7914 O   0  0  0  0  0  0  0  0  0  0  0  0
    3.5740   -1.0320    3.5546 C   0  0  2  0  0  0  0  0  0  0  0  0
    2.9681   -1.6100    2.4218 O   0  0  0  0  0  0  0  0  0  0  0  0
    5.3176    3.5293    4.5367 C   0  0  2  0  0  0  0  0  0  0  0  0
    5.4616    3.8923   -1.2681 C   0  0  2  0  0  0  0  0  0  0  0  0
    5.3134    3.1024   -0.0906 O   0  0  0  0  0  0  0  0  0  0  0  0
    1.6250    5.2901   -5.5980 C   0  0  2  0  0  0  0  0  0  0  0  0
    0.4631    6.0174   -5.2010 O   0  0  0  0  0  0  0  0  0  0  0  0
    2.6049   -0.0122    4.2404 C   0  0  2  0  0  0  0  0  0  0  0  0
    3.2595    0.5807    5.4065 O   0  0  0  0  0  0  0  0  0  0  0  0
    5.1053    4.5301    3.3797 C   0  0  2  0  0  0  0  0  0  0  0  0
    5.5163    3.8193    2.1796 O   0  0  0  0  0  0  0  0  0  0  0  0
    6.9492    4.3132   -1.4781 C   0  0  0  0  0  0  0  0  0  0  0  0
    7.0438    5.1493   -2.6275 O   0  0  0  0  0  0  0  0  0  0  0  0
    1.6592    3.8857   -4.8848 C   0  0  1  0  0  0  0  0  0  0  0  0
    1.7281    4.1623   -3.4394 O   0  0  0  0  0  0  0  0  0  0  0  0
    1.3056   -0.6483    4.6772 C   0  0  0  0  0  0  0  0  0  0  0  0
    1.5495   -1.6202    5.6647 O   0  0  0  0  0  0  0  0  0  0  0  0
    5.9977    5.8225    3.6011 C   0  0  1  0  0  0  0  0  0  0  0  0
    5.6889    6.8103    2.6139 O   0  0  0  0  0  0  0  0  0  0  0  0
    0.4045    2.9641   -5.2088 C   0  0  0  0  0  0  0  0  0  0  0  0
    0.3964    1.6327   -4.5425 N   0  0  0  0  0  0  0  0  0  0  0  0
  1  2  1  6  0  0  0
  1  7  1  0  0  0  0
  1 30  1  0  0  0  0
  3  4  1  1  0  0  0
  3  9  1  0  0  0  0
  3 39  1  0  0  0  0
  5 10  1  0  0  0  0
  5 26  1  0  0  0  0
  5 32  1  1  0  0  0
  6 12  1  0  0  0  0
  6 36  1  0  0  0  0
  6 19  1  1  0  0  0
  7  8  1  6  0  0  0
  7 14  1  0  0  0  0
  9 16  1  0  0  0  0
 10 11  1  6  0  0  0
 10 18  1  0  0  0  0
 12 13  1  1  0  0  0
 12 20  1  0  0  0  0
 14 15  1  1  0  0  0
 14 22  1  0  0  0  0
 16 17  1  1  0  0  0
 16 24  1  0  0  0  0
 18 19  1  1  0  0  0
 18 25  1  0  0  0  0
 20 21  1  6  0  0  0
 20 27  1  0  0  0  0
 22 23  1  6  0  0  0
 22 29  1  0  0  0  0
 24  2  1  6  0  0  0
 24 31  1  0  0  0  0
 25 26  1  0  0  0  0
 25 33  1  1  0  0  0
 27 28  1  1  0  0  0
 27 35  1  0  0  0  0
 29 30  1  0  0  0  0
 29 37  1  1  0  0  0
 31 32  1  6  0  0  0
 31 39  1  0  0  0  0
 33 34  1  0  0  0  0
 35 36  1  0  0  0  0
 35 41  1  1  0  0  0
 37 38  1  0  0  0  0
 39 40  1  6  0  0  0
 41 42  1  0  0  0  0
M  END
>  <CHROM.1>
-87.67730970,58.64648030,-69.40800439,167.59937408,-68.82234934,-60.90097280
63.80120244,132.59424364,-179.48564306,4.03551913,3.44959080,0.93332915,1.17073915
1.01258449,2.26301840

>  <Name>
2o3w_lig

>  <RI>
0

>  <Rbt.Current_Directory>
/home/itssahil/PROJECTS/Mol_Feturizer/New_Systems/rnas/2o3w

>  <Rbt.Executable>
rbdock ($Id: //depot/dev/client3/rdock/2013.1/src/exe/rbdock.cxx#4 $)

>  <Rbt.Library>
libRbt.so (2013.1, Build901 2013/11/27)

>  <Rbt.Parameter_File>
/export/apps/rDock/src/rDock_2013.1_src/data/scripts/dock_solv.prm

>  <Rbt.Receptor>
prm/pocket_docking_8.prm

>  <SCORE>
-13.688

>  <SCORE.INTER>
-6.78781

>  <SCORE.INTER.CONST>
1

>  <SCORE.INTER.POLAR>
0

>  <SCORE.INTER.ROT>
9

>  <SCORE.INTER.SOLV>
12.4452

>  <SCORE.INTER.VDW>
-18.2736

>  <SCORE.INTER.norm>
-0.161615

>  <SCORE.INTRA>
-6.9002

>  <SCORE.INTRA.DIHEDRAL>
-16.5521

>  <SCORE.INTRA.DIHEDRAL.0>
27.8999

>  <SCORE.INTRA.POLAR>
0

>  <SCORE.INTRA.POLAR.0>
0

>  <SCORE.INTRA.REPUL>
0

>  <SCORE.INTRA.REPUL.0>
0

>  <SCORE.INTRA.SOLV>
-1.8963

>  <SCORE.INTRA.SOLV.lig_0>
-104.479

>  <SCORE.INTRA.VDW>
2.32399

>  <SCORE.INTRA.VDW.0>
-6.17816

>  <SCORE.INTRA.norm>
-0.16429

>  <SCORE.RESTR>
0

>  <SCORE.RESTR.CAVITY>
0

>  <SCORE.RESTR.norm>
0

>  <SCORE.SYSTEM>
0

>  <SCORE.SYSTEM.CONST>
0

>  <SCORE.SYSTEM.DIHEDRAL>
0

>  <SCORE.SYSTEM.SOLV>
0

>  <SCORE.SYSTEM.norm>
0

>  <SCORE.heavy>
42

>  <SCORE.norm>
-0.325905

>  <RMSD>
6.004

$$$$
2o3w_lig
 OpenBabel11021811463D
libRbt.so/2013.1/901 2013/11/27
 42 45  0  0  0  0  0  0  0  0999 V2000
   12.6770    2.3062    7.3344 C   0  0  2  0  0  0  0  0  0  0  0  0
   11.8089    2.6234    6.2330 O   0  0  0  0  0  0  0  0  0  0  0  0
    8.7571    0.0853    4.4892 C   0  0  2  0  0  0  0  0  0  0  0  0
    7.4864   -0.6635    4.2546 N   0  0  0  0  0  0  0  0  0  0  0  0
    8.6783    4.6993    4.4124 C   0  0  1  0  0  0  0  0  0  0  0  0
    7.3533    7.7309    1.7998 C   0  0  1  0  0  0  0  0  0  0  0  0
   13.2877    3.6499    7.8341 C   0  0  2  0  0  0  0  0  0  0  0  0
   12.2642    4.6858    8.0573 N   0  0  0  0  0  0  0  0  0  0  0  0
    9.5060   -0.4446    5.7777 C   0  0  0  0  0  0  0  0  0  0  0  0
    8.4765    6.1184    5.0259 C   0  0  2  0  0  0  0  0  0  0  0  0
    7.2443    6.2676    5.7731 O   0  0  0  0  0  0  0  0  0  0  0  0
    5.9943    8.3322    1.2897 C   0  0  2  0  0  0  0  0  0  0  0  0
    4.8911    7.3321    1.4068 N   0  0  0  0  0  0  0  0  0  0  0  0
   14.3040    4.2363    6.8370 C   0  0  1  0  0  0  0  0  0  0  0  0
   14.8665    5.4441    7.3526 O   0  0  0  0  0  0  0  0  0  0  0  0
   10.8450    0.3658    5.9592 C   0  0  2  0  0  0  0  0  0  0  0  0
   11.5840   -0.1174    7.1566 N   0  0  0  0  0  0  0  0  0  0  0  0
    8.6086    7.0006    3.7834 C   0  0  2  0  0  0  0  0  0  0  0  0
    7.3140    7.2166    3.1369 O   0  0  0  0  0  0  0  0  0  0  0  0
    6.1687    8.8220   -0.2258 C   0  0  1  0  0  0  0  0  0  0  0  0
    6.9565   10.0337   -0.2375 O   0  0  0  0  0  0  0  0  0  0  0  0
   15.3984    3.1864    6.5387 C   0  0  2  0  0  0  0  0  0  0  0  0
   16.3463    3.7139    5.6400 O   0  0  0  0  0  0  0  0  0  0  0  0
   10.5457    1.9098    6.1083 C   0  0  2  0  0  0  0  0  0  0  0  0
    9.5847    6.2700    2.8459 C   0  0  2  0  0  0  0  0  0  0  0  0
    9.3533    4.8963    3.1488 O   0  0  0  0  0  0  0  0  0  0  0  0
    6.8648    7.7211   -1.1591 C   0  0  2  0  0  0  0  0  0  0  0  0
    5.9399    6.6465   -1.3212 O   0  0  0  0  0  0  0  0  0  0  0  0
   14.7269    1.9037    5.9444 C   0  0  2  0  0  0  0  0  0  0  0  0
   13.7413    1.3810    6.8906 O   0  0  0  0  0  0  0  0  0  0  0  0
    9.7639    2.4870    4.9079 C   0  0  2  0  0  0  0  0  0  0  0  0
    9.4200    3.8461    5.2939 O   0  0  0  0  0  0  0  0  0  0  0  0
   11.0873    6.6423    3.0406 C   0  0  0  0  0  0  0  0  0  0  0  0
   11.8715    5.9567    2.0690 O   0  0  0  0  0  0  0  0  0  0  0  0
    8.1981    7.1985   -0.5025 C   0  0  1  0  0  0  0  0  0  0  0  0
    7.8237    6.6743    0.8224 O   0  0  0  0  0  0  0  0  0  0  0  0
   15.7280    0.8168    5.6275 C   0  0  0  0  0  0  0  0  0  0  0  0
   16.3938    0.4142    6.7996 O   0  0  0  0  0  0  0  0  0  0  0  0
    8.4560    1.6302    4.6415 C   0  0  1  0  0  0  0  0  0  0  0  0
    7.8138    2.0701    3.4416 O   0  0  0  0  0  0  0  0  0  0  0  0
    8.9396    6.0748   -1.3487 C   0  0  0  0  0  0  0  0  0  0  0  0
    8.1984    4.7928   -1.5027 N   0  0  0  0  0  0  0  0  0  0  0  0
  1  2  1  6  0  0  0
  1  7  1  0  0  0  0
  1 30  1  0  0  0  0
  3  4  1  1  0  0  0
  3  9  1  0  0  0  0
  3 39  1  0  0  0  0
  5 10  1  0  0  0  0
  5 26  1  0  0  0  0
  5 32  1  1  0  0  0
  6 12  1  0  0  0  0
  6 36  1  0  0  0  0
  6 19  1  1  0  0  0
  7  8  1  6  0  0  0
  7 14  1  0  0  0  0
  9 16  1  0  0  0  0
 10 11  1  6  0  0  0
 10 18  1  0  0  0  0
 12 13  1  6  0  0  0
 12 20  1  0  0  0  0
 14 15  1  1  0  0  0
 14 22  1  0  0  0  0
 16 17  1  1  0  0  0
 16 24  1  0  0  0  0
 18 19  1  6  0  0  0
 18 25  1  0  0  0  0
 20 21  1  1  0  0  0
 20 27  1  0  0  0  0
 22 23  1  6  0  0  0
 22 29  1  0  0  0  0
 24  2  1  6  0  0  0
 24 31  1  0  0  0  0
 25 26  1  0  0  0  0
 25 33  1  1  0  0  0
 27 28  1  1  0  0  0
 27 35  1  0  0  0  0
 29 30  1  0  0  0  0
 29 37  1  1  0  0  0
 31 32  1  1  0  0  0
 31 39  1  0  0  0  0
 33 34  1  0  0  0  0
 35 36  1  0  0  0  0
 35 41  1  6  0  0  0
 37 38  1  0  0  0  0
 39 40  1  6  0  0  0
 41 42  1  0  0  0  0
M  END
>  <CHROM.1>
-140.77642445,-178.01093693,-163.32174608,-164.70547033,-60.14781413,-176.83636587
61.18929887,-179.91663441,-64.51166457,10.14883745,4.34843730,3.93213260
0.80833634,0.42841076,2.67388134

>  <Name>
2o3w_lig

>  <RI>
0

>  <Rbt.Current_Directory>
/home/itssahil/PROJECTS/Mol_Feturizer/New_Systems/rnas/2o3w

>  <Rbt.Executable>
rbdock ($Id: //depot/dev/client3/rdock/2013.1/src/exe/rbdock.cxx#4 $)

>  <Rbt.Library>
libRbt.so (2013.1, Build901 2013/11/27)

>  <Rbt.Parameter_File>
/export/apps/rDock/src/rDock_2013.1_src/data/scripts/dock_solv.prm

>  <Rbt.Receptor>
prm/pocket_docking_5.prm

>  <SCORE>
-12.2079

>  <SCORE.INTER>
-5.21958

>  <SCORE.INTER.CONST>
1

>  <SCORE.INTER.POLAR>
-0.871057

>  <SCORE.INTER.ROT>
9

>  <SCORE.INTER.SOLV>
8.5346

>  <SCORE.INTER.VDW>
-13.0211

>  <SCORE.INTER.norm>
-0.124276

>  <SCORE.INTRA>
-6.98831

>  <SCORE.INTRA.DIHEDRAL>
-19.9904

>  <SCORE.INTRA.DIHEDRAL.0>
27.8999

>  <SCORE.INTRA.POLAR>
0

>  <SCORE.INTRA.POLAR.0>
0

>  <SCORE.INTRA.REPUL>
0

>  <SCORE.INTRA.REPUL.0>
0

>  <SCORE.INTRA.SOLV>
-1.83167

>  <SCORE.INTRA.SOLV.lig_0>
-104.479

>  <SCORE.INTRA.VDW>
3.92274

>  <SCORE.INTRA.VDW.0>
-6.17816

>  <SCORE.INTRA.norm>
-0.166388

>  <SCORE.RESTR>
0

>  <SCORE.RESTR.CAVITY>
0

>  <SCORE.RESTR.norm>
0

>  <SCORE.SYSTEM>
0

>  <SCORE.SYSTEM.CONST>
0

>  <SCORE.SYSTEM.DIHEDRAL>
0

>  <SCORE.SYSTEM.SOLV>
0

>  <SCORE.SYSTEM.norm>
0

>  <SCORE.heavy>
42

>  <SCORE.norm>
-0.290664

>  <RMSD>
6.014

$$$$
2o3w_lig
 OpenBabel11021811463D
libRbt.so/2013.1/901 2013/11/27
 42 45  0  0  0  0  0  0  0  0999 V2000
   12.2744    4.2823    5.2062 C   0  0  2  0  0  0  0  0  0  0  0  0
   10.9773    3.9098    5.7023 O   0  0  0  0  0  0  0  0  0  0  0  0
   10.8394   -0.0799    4.0113 C   0  0  2  0  0  0  0  0  0  0  0  0
   10.4032   -1.4604    3.6450 N   0  0  0  0  0  0  0  0  0  0  0  0
    8.9229    4.1616    2.5286 C   0  0  1  0  0  0  0  0  0  0  0  0
    7.6094    5.9202   -1.2691 C   0  0  1  0  0  0  0  0  0  0  0  0
   12.7753    5.4666    6.0865 C   0  0  2  0  0  0  0  0  0  0  0  0
   12.6584    5.1863    7.5281 N   0  0  0  0  0  0  0  0  0  0  0  0
   11.0837    0.0505    5.5686 C   0  0  0  0  0  0  0  0  0  0  0  0
    8.6143    3.2903    1.2731 C   0  0  2  0  0  0  0  0  0  0  0  0
    9.7942    2.8518    0.5556 O   0  0  0  0  0  0  0  0  0  0  0  0
    8.4205    6.7025   -2.3640 C   0  0  2  0  0  0  0  0  0  0  0  0
    9.5116    7.5117   -1.7431 N   0  0  0  0  0  0  0  0  0  0  0  0
   11.9910    6.7647    5.8207 C   0  0  1  0  0  0  0  0  0  0  0  0
   12.5088    7.8308    6.6183 O   0  0  0  0  0  0  0  0  0  0  0  0
   11.5619    1.5172    5.8891 C   0  0  2  0  0  0  0  0  0  0  0  0
   11.8156    1.6719    7.3469 N   0  0  0  0  0  0  0  0  0  0  0  0
    7.6714    4.2111    0.4970 C   0  0  2  0  0  0  0  0  0  0  0  0
    8.4050    5.0806   -0.4231 O   0  0  0  0  0  0  0  0  0  0  0  0
    7.4189    7.6325   -3.2001 C   0  0  1  0  0  0  0  0  0  0  0  0
    6.6276    6.7980   -4.0756 O   0  0  0  0  0  0  0  0  0  0  0  0
   12.0529    7.1053    4.3143 C   0  0  2  0  0  0  0  0  0  0  0  0
   11.3534    8.3007    4.0570 O   0  0  0  0  0  0  0  0  0  0  0  0
   10.4792    2.5699    5.4248 C   0  0  2  0  0  0  0  0  0  0  0  0
    6.9138    5.0316    1.5545 C   0  0  2  0  0  0  0  0  0  0  0  0
    7.8586    5.1366    2.6169 O   0  0  0  0  0  0  0  0  0  0  0  0
    6.4488    8.4999   -2.2652 C   0  0  2  0  0  0  0  0  0  0  0  0
    7.2492    9.4799   -1.6054 O   0  0  0  0  0  0  0  0  0  0  0  0
   11.4406    5.9193    3.4971 C   0  0  2  0  0  0  0  0  0  0  0  0
   12.1769    4.6893    3.7883 O   0  0  0  0  0  0  0  0  0  0  0  0
   10.1470    2.4636    3.9203 C   0  0  2  0  0  0  0  0  0  0  0  0
    9.0213    3.3605    3.7133 O   0  0  0  0  0  0  0  0  0  0  0  0
    5.5795    4.3934    2.0510 C   0  0  0  0  0  0  0  0  0  0  0  0
    4.9060    5.3146    2.9035 O   0  0  0  0  0  0  0  0  0  0  0  0
    5.7292    7.5811   -1.2068 C   0  0  1  0  0  0  0  0  0  0  0  0
    6.8012    6.9075   -0.4536 O   0  0  0  0  0  0  0  0  0  0  0  0
   11.4664    6.1658    2.0063 C   0  0  0  0  0  0  0  0  0  0  0  0
   10.5457    7.1736    1.6655 O   0  0  0  0  0  0  0  0  0  0  0  0
    9.7536    0.9726    3.5491 C   0  0  1  0  0  0  0  0  0  0  0  0
    9.5939    0.8422    2.1337 O   0  0  0  0  0  0  0  0  0  0  0  0
    4.7695    8.3677   -0.2124 C   0  0  0  0  0  0  0  0  0  0  0  0
    5.4201    9.4314    0.6011 N   0  0  0  0  0  0  0  0  0  0  0  0
  1  2  1  1  0  0  0
  1  7  1  0  0  0  0
  1 30  1  0  0  0  0
  3  4  1  1  0  0  0
  3  9  1  0  0  0  0
  3 39  1  0  0  0  0
  5 10  1  0  0  0  0
  5 26  1  0  0  0  0
  5 32  1  1  0  0  0
  6 12  1  0  0  0  0
  6 36  1  0  0  0  0
  6 19  1  1  0  0  0
  7  8  1  1  0  0  0
  7 14  1  0  0  0  0
  9 16  1  0  0  0  0
 10 11  1  6  0  0  0
 10 18  1  0  0  0  0
 12 13  1  1  0  0  0
 12 20  1  0  0  0  0
 14 15  1  1  0  0  0
 14 22  1  0  0  0  0
 16 17  1  1  0  0  0
 16 24  1  0  0  0  0
 18 19  1  6  0  0  0
 18 25  1  0  0  0  0
 20 21  1  6  0  0  0
 20 27  1  0  0  0  0
 22 23  1  1  0  0  0
 22 29  1  0  0  0  0
 24  2  1  6  0  0  0
 24 31  1  0  0  0  0
 25 26  1  0  0  0  0
 25 33  1  1  0  0  0
 27 28  1  1  0  0  0
 27 35  1  0  0  0  0
 29 30  1  0  0  0  0
 29 37  1  6  0  0  0
 31 32  1  1  0  0  0
 31 39  1  0  0  0  0
 33 34  1  0  0  0  0
 35 36  1  0  0  0  0
 35 41  1  1  0  0  0
 37 38  1  0  0  0  0
 39 40  1  6  0  0  0
 41 42  1  0  0  0  0
M  END
>  <CHROM.1>
-157.82716413,70.51763492,-172.65595770,175.80298920,52.98429811,-173.38855803
-70.24112819,141.37289682,-58.95928841,9.30793965,5.01053126,2.29942099,-0.65294601
-0.89094735,-0.18921097

>  <Name>
2o3w_lig

>  <RI>
0

>  <Rbt.Current_Directory>
/home/itssahil/PROJECTS/Mol_Feturizer/New_Systems/rnas/2o3w

>  <Rbt.Executable>
rbdock ($Id: //depot/dev/client3/rdock/2013.1/src/exe/rbdock.cxx#4 $)

>  <Rbt.Library>
libRbt.so (2013.1, Build901 2013/11/27)

>  <Rbt.Parameter_File>
/export/apps/rDock/src/rDock_2013.1_src/data/scripts/dock_solv.prm

>  <Rbt.Receptor>
prm/pocket_docking_8.prm

>  <SCORE>
-26.428

>  <SCORE.INTER>
-18.0467

>  <SCORE.INTER.CONST>
1

>  <SCORE.INTER.POLAR>
-2.87422

>  <SCORE.INTER.ROT>
9

>  <SCORE.INTER.SOLV>
16.6384

>  <SCORE.INTER.VDW>
-17.5965

>  <SCORE.INTER.norm>
-0.429683

>  <SCORE.INTRA>
-8.38133

>  <SCORE.INTRA.DIHEDRAL>
-18.7868

>  <SCORE.INTRA.DIHEDRAL.0>
27.8999

>  <SCORE.INTRA.POLAR>
0

>  <SCORE.INTRA.POLAR.0>
0

>  <SCORE.INTRA.REPUL>
0.0104935

>  <SCORE.INTRA.REPUL.0>
0

>  <SCORE.INTRA.SOLV>
-0.416034

>  <SCORE.INTRA.SOLV.lig_0>
-104.479

>  <SCORE.INTRA.VDW>
1.16762

>  <SCORE.INTRA.VDW.0>
-6.17816

>  <SCORE.INTRA.norm>
-0.199555

>  <SCORE.RESTR>
0

>  <SCORE.RESTR.CAVITY>
0

>  <SCORE.RESTR.norm>
0

>  <SCORE.SYSTEM>
0

>  <SCORE.SYSTEM.CONST>
0

>  <SCORE.SYSTEM.DIHEDRAL>
0

>  <SCORE.SYSTEM.SOLV>
0

>  <SCORE.SYSTEM.norm>
0

>  <SCORE.heavy>
42

>  <SCORE.norm>
-0.629238

>  <RMSD>
6.028

$$$$
2o3w_lig
 OpenBabel11021811463D
libRbt.so/2013.1/901 2013/11/27
 42 45  0  0  0  0  0  0  0  0999 V2000
    5.8269    2.9930    4.2251 C   0  0  2  0  0  0  0  0  0  0  0  0
    6.3380    4.3218    4.4256 O   0  0  0  0  0  0  0  0  0  0  0  0
    3.0829    6.5339    2.6069 C   0  0  2  0  0  0  0  0  0  0  0  0
    2.1685    7.6350    2.1806 N   0  0  0  0  0  0  0  0  0  0  0  0
    7.3864    6.6130    1.0544 C   0  0  1  0  0  0  0  0  0  0  0  0
    7.7553    7.9034   -1.6550 C   0  0  1  0  0  0  0  0  0  0  0  0
    6.9354    2.0034    4.6944 C   0  0  2  0  0  0  0  0  0  0  0  0
    7.4548    2.3325    6.0332 N   0  0  0  0  0  0  0  0  0  0  0  0
    3.0516    6.3368    4.1760 C   0  0  0  0  0  0  0  0  0  0  0  0
    8.7823    7.3038    1.1265 C   0  0  2  0  0  0  0  0  0  0  0  0
    8.7205    8.7387    1.3169 O   0  0  0  0  0  0  0  0  0  0  0  0
    7.4454    7.5354   -3.1508 C   0  0  2  0  0  0  0  0  0  0  0  0
    8.2976    8.3318   -4.0837 N   0  0  0  0  0  0  0  0  0  0  0  0
    8.1440    1.9849    3.7406 C   0  0  1  0  0  0  0  0  0  0  0  0
    9.1155    1.0374    4.1871 O   0  0  0  0  0  0  0  0  0  0  0  0
    4.0153    5.1512    4.5608 C   0  0  2  0  0  0  0  0  0  0  0  0
    3.9994    4.9280    6.0317 N   0  0  0  0  0  0  0  0  0  0  0  0
    9.4131    6.8365   -0.1862 C   0  0  2  0  0  0  0  0  0  0  0  0
    9.1316    7.7671   -1.2796 O   0  0  0  0  0  0  0  0  0  0  0  0
    5.8891    7.7787   -3.4435 C   0  0  1  0  0  0  0  0  0  0  0  0
    5.1242    6.7328   -2.8030 O   0  0  0  0  0  0  0  0  0  0  0  0
    7.6640    1.6677    2.3060 C   0  0  2  0  0  0  0  0  0  0  0  0
    8.7611    1.6305    1.4232 O   0  0  0  0  0  0  0  0  0  0  0  0
    5.4911    5.4569    4.0869 C   0  0  2  0  0  0  0  0  0  0  0  0
    8.8199    5.4464   -0.4710 C   0  0  2  0  0  0  0  0  0  0  0  0
    7.5200    5.5271    0.1088 O   0  0  0  0  0  0  0  0  0  0  0  0
    5.3759    9.2079   -2.9320 C   0  0  2  0  0  0  0  0  0  0  0  0
    5.9717   10.2026   -3.7639 O   0  0  0  0  0  0  0  0  0  0  0  0
    6.6322    2.7569    1.8604 C   0  0  2  0  0  0  0  0  0  0  0  0
    5.5086    2.7826    2.7967 O   0  0  0  0  0  0  0  0  0  0  0  0
    5.5905    5.7169    2.5677 C   0  0  2  0  0  0  0  0  0  0  0  0
    6.9584    6.1567    2.3442 O   0  0  0  0  0  0  0  0  0  0  0  0
    9.6272    4.2517    0.1251 C   0  0  0  0  0  0  0  0  0  0  0  0
    9.5517    4.2956    1.5468 O   0  0  0  0  0  0  0  0  0  0  0  0
    5.7837    9.4392   -1.4279 C   0  0  1  0  0  0  0  0  0  0  0  0
    7.2496    9.3032   -1.3758 O   0  0  0  0  0  0  0  0  0  0  0  0
    6.1030    2.5202    0.4647 C   0  0  0  0  0  0  0  0  0  0  0  0
    5.1663    3.5138    0.1263 O   0  0  0  0  0  0  0  0  0  0  0  0
    4.5603    6.8424    2.1348 C   0  0  1  0  0  0  0  0  0  0  0  0
    4.5447    6.9758    0.7109 O   0  0  0  0  0  0  0  0  0  0  0  0
    5.3418   10.8520   -0.8471 C   0  0  0  0  0  0  0  0  0  0  0  0
    3.8772   11.1196   -0.8540 N   0  0  0  0  0  0  0  0  0  0  0  0
  1  2  1  6  0  0  0
  1  7  1  0  0  0  0
  1 30  1  0  0  0  0
  3  4  1  1  0  0  0
  3  9  1  0  0  0  0
  3 39  1  0  0  0  0
  5 10  1  0  0  0  0
  5 26  1  0  0  0  0
  5 32  1  1  0  0  0
  6 12  1  0  0  0  0
  6 36  1  0  0  0  0
  6 19  1  6  0  0  0
  7  8  1  1  0  0  0
  7 14  1  0  0  0  0
  9 16  1  0  0  0  0
 10 11  1  6  0  0  0
 10 18  1  0  0  0  0
 12 13  1  6  0  0  0
 12 20  1  0  0  0  0
 14 15  1  1  0  0  0
 14 22  1  0  0  0  0
 16 17  1  1  0  0  0
 16 24  1  0  0  0  0
 18 19  1  6  0  0  0
 18 25  1  0  0  0  0
 20 21  1  1  0  0  0
 20 27  1  0  0  0  0
 22 23  1  6  0  0  0
 22 29  1  0  0  0  0
 24  2  1  6  0  0  0
 24 31  1  0  0  0  0
 25 26  1  0  0  0  0
 25 33  1  1  0  0  0
 27 28  1  6  0  0  0
 27 35  1  0  0  0  0
 29 30  1  0  0  0  0
 29 37  1  6  0  0  0
 31 32  1  1  0  0  0
 31 39  1  0  0  0  0
 33 34  1  0  0  0  0
 35 36  1  0  0  0  0
 35 41  1  6  0  0  0
 37 38  1  0  0  0  0
 39 40  1  6  0  0  0
 41 42  1  0  0  0  0
M  END
>  <CHROM.1>
-179.03831987,168.09087062,-120.71020602,-64.25774953,41.19186015,67.20360931
179.03439092,-174.07829155,60.29436455,6.55460851,5.86150544,1.04444293,1.52442749
-0.59802721,2.33893606

>  <Name>
2o3w_lig

>  <RI>
0

>  <Rbt.Current_Directory>
/home/itssahil/PROJECTS/Mol_Feturizer/New_Systems/rnas/2o3w

>  <Rbt.Executable>
rbdock ($Id: //depot/dev/client3/rdock/2013.1/src/exe/rbdock.cxx#4 $)

>  <Rbt.Library>
libRbt.so (2013.1, Build901 2013/11/27)

>  <Rbt.Parameter_File>
/export/apps/rDock/src/rDock_2013.1_src/data/scripts/dock_solv.prm

>  <Rbt.Receptor>
prm/pocket_docking_5.prm

>  <SCORE>
-24.1258

>  <SCORE.INTER>
-14.2074

>  <SCORE.INTER.CONST>
1

>  <SCORE.INTER.POLAR>
-2.56364

>  <SCORE.INTER.ROT>
9

>  <SCORE.INTER.SOLV>
22.0543

>  <SCORE.INTER.VDW>
-17.8776

>  <SCORE.INTER.norm>
-0.338273

>  <SCORE.INTRA>
-9.91835

>  <SCORE.INTRA.DIHEDRAL>
-17.9521

>  <SCORE.INTRA.DIHEDRAL.0>
27.8999

>  <SCORE.INTRA.POLAR>
0

>  <SCORE.INTRA.POLAR.0>
0

>  <SCORE.INTRA.REPUL>
0.0219921

>  <SCORE.INTRA.REPUL.0>
0

>  <SCORE.INTRA.SOLV>
-1.37238

>  <SCORE.INTRA.SOLV.lig_0>
-104.479

>  <SCORE.INTRA.VDW>
-0.366059

>  <SCORE.INTRA.VDW.0>
-6.17816

>  <SCORE.INTRA.norm>
-0.236151

>  <SCORE.RESTR>
0

>  <SCORE.RESTR.CAVITY>
0

>  <SCORE.RESTR.norm>
0

>  <SCORE.SYSTEM>
0

>  <SCORE.SYSTEM.CONST>
0

>  <SCORE.SYSTEM.DIHEDRAL>
0

>  <SCORE.SYSTEM.SOLV>
0

>  <SCORE.SYSTEM.norm>
0

>  <SCORE.heavy>
42

>  <SCORE.norm>
-0.574424

>  <RMSD>
6.044

$$$$
2o3w_lig
 OpenBabel11021811463D
libRbt.so/2013.1/901 2013/11/27
 42 45  0  0  0  0  0  0  0  0999 V2000
   10.1365    5.2033    5.6756 C   0  0  2  0  0  0  0  0  0  0  0  0
   10.8109    4.0333    5.1821 O   0  0  0  0  0  0  0  0  0  0  0  0
    9.4508    0.6145    2.8892 C   0  0  2  0  0  0  0  0  0  0  0  0
    8.6819   -0.5796    2.4271 N   0  0  0  0  0  0  0  0  0  0  0  0
    8.0542    5.3249    3.0338 C   0  0  1  0  0  0  0  0  0  0  0  0
    7.0978    6.8642   -0.7204 C   0  0  1  0  0  0  0  0  0  0  0  0
   11.2282    6.2874    5.9230 C   0  0  2  0  0  0  0  0  0  0  0  0
   12.1226    6.4612    4.7652 N   0  0  0  0  0  0  0  0  0  0  0  0
   10.1709    0.3346    4.2694 C   0  0  0  0  0  0  0  0  0  0  0  0
    7.3117    4.9059    1.7285 C   0  0  2  0  0  0  0  0  0  0  0  0
    8.1947    4.5830    0.6261 O   0  0  0  0  0  0  0  0  0  0  0  0
    7.8175    7.9748   -1.5673 C   0  0  2  0  0  0  0  0  0  0  0  0
    7.1857    9.3096   -1.3436 N   0  0  0  0  0  0  0  0  0  0  0  0
   12.1232    5.9507    7.1298 C   0  0  1  0  0  0  0  0  0  0  0  0
   13.0816    6.9884    7.3432 O   0  0  0  0  0  0  0  0  0  0  0  0
   10.9807    1.6184    4.6919 C   0  0  2  0  0  0  0  0  0  0  0  0
   11.6843    1.3851    5.9819 N   0  0  0  0  0  0  0  0  0  0  0  0
    6.3927    6.1089    1.5104 C   0  0  2  0  0  0  0  0  0  0  0  0
    7.0340    7.1334    0.6857 O   0  0  0  0  0  0  0  0  0  0  0  0
    7.7735    7.5697   -3.1168 C   0  0  1  0  0  0  0  0  0  0  0  0
    8.7063    6.4893   -3.3439 O   0  0  0  0  0  0  0  0  0  0  0  0
   11.2415    5.7309    8.3802 C   0  0  2  0  0  0  0  0  0  0  0  0
   12.0473    5.4381    9.4980 O   0  0  0  0  0  0  0  0  0  0  0  0
   10.0182    2.8635    4.8306 C   0  0  2  0  0  0  0  0  0  0  0  0
    6.0606    6.6489    2.9116 C   0  0  2  0  0  0  0  0  0  0  0  0
    7.2303    6.3331    3.6629 O   0  0  0  0  0  0  0  0  0  0  0  0
    6.3121    7.1271   -3.6027 C   0  0  2  0  0  0  0  0  0  0  0  0
    5.4858    8.2905   -3.5982 O   0  0  0  0  0  0  0  0  0  0  0  0
   10.2395    4.5618    8.0993 C   0  0  2  0  0  0  0  0  0  0  0  0
    9.4219    4.8850    6.9301 O   0  0  0  0  0  0  0  0  0  0  0  0
    9.2360    3.1632    3.5331 C   0  0  2  0  0  0  0  0  0  0  0  0
    8.2822    4.2002    3.8930 O   0  0  0  0  0  0  0  0  0  0  0  0
    4.7873    6.0325    3.5697 C   0  0  0  0  0  0  0  0  0  0  0  0
    4.5745    6.6386    4.8410 O   0  0  0  0  0  0  0  0  0  0  0  0
    5.7152    6.0306   -2.6417 C   0  0  1  0  0  0  0  0  0  0  0  0
    5.7168    6.6237   -1.2932 O   0  0  0  0  0  0  0  0  0  0  0  0
    9.3294    4.2815    9.2727 C   0  0  0  0  0  0  0  0  0  0  0  0
    8.5060    5.3941    9.5244 O   0  0  0  0  0  0  0  0  0  0  0  0
    8.4858    1.8592    3.0307 C   0  0  1  0  0  0  0  0  0  0  0  0
    7.8876    2.0954    1.7532 O   0  0  0  0  0  0  0  0  0  0  0  0
    4.2484    5.5565   -3.0319 C   0  0  0  0  0  0  0  0  0  0  0  0
    3.6475    4.5271   -2.1398 N   0  0  0  0  0  0  0  0  0  0  0  0
  1  2  1  1  0  0  0
  1  7  1  0  0  0  0
  1 30  1  0  0  0  0
  3  4  1  1  0  0  0
  3  9  1  0  0  0  0
  3 39  1  0  0  0  0
  5 10  1  0  0  0  0
  5 26  1  0  0  0  0
  5 32  1  1  0  0  0
  6 12  1  0  0  0  0
  6 36  1  0  0  0  0
  6 19  1  1  0  0  0
  7  8  1  6  0  0  0
  7 14  1  0  0  0  0
  9 16  1  0  0  0  0
 10 11  1  6  0  0  0
 10 18  1  0  0  0  0
 12 13  1  6  0  0  0
 12 20  1  0  0  0  0
 14 15  1  1  0  0  0
 14 22  1  0  0  0  0
 16 17  1  1  0  0  0
 16 24  1  0  0  0  0
 18 19  1  6  0  0  0
 18 25  1  0  0  0  0
 20 21  1  1  0  0  0
 20 27  1  0  0  0  0
 22 23  1  1  0  0  0
 22 29  1  0  0  0  0
 24  2  1  6  0  0  0
 24 31  1  0  0  0  0
 25 26  1  0  0  0  0
 25 33  1  1  0  0  0
 27 28  1  1  0  0  0
 27 35  1  0  0  0  0
 29 30  1  0  0  0  0
 29 37  1  1  0  0  0
 31 32  1  1  0  0  0
 31 39  1  0  0  0  0
 33 34  1  0  0  0  0
 35 36  1  0  0  0  0
 35 41  1  6  0  0  0
 37 38  1  0  0  0  0
 39 40  1  6  0  0  0
 41 42  1  0  0  0  0
M  END
>  <CHROM.1>
-178.42406413,69.77999987,-178.89013815,76.36689658,-165.13550026,-178.54920586
63.92956501,136.61940655,-179.58626275,8.42788460,5.09461609,2.90849864,0.06351342
-1.11833992,0.31714273

>  <Name>
2o3w_lig

>  <RI>
0

>  <Rbt.Current_Directory>
/home/itssahil/PROJECTS/Mol_Feturizer/New_Systems/rnas/2o3w

>  <Rbt.Executable>
rbdock ($Id: //depot/dev/client3/rdock/2013.1/src/exe/rbdock.cxx#4 $)

>  <Rbt.Library>
libRbt.so (2013.1, Build901 2013/11/27)

>  <Rbt.Parameter_File>
/export/apps/rDock/src/rDock_2013.1_src/data/scripts/dock_solv.prm

>  <Rbt.Receptor>
prm/pocket_docking_7.prm

>  <SCORE>
-16.6622

>  <SCORE.INTER>
-6.61014

>  <SCORE.INTER.CONST>
1

>  <SCORE.INTER.POLAR>
-1.82462

>  <SCORE.INTER.ROT>
9

>  <SCORE.INTER.SOLV>
10.5207

>  <SCORE.INTER.VDW>
-11.4316

>  <SCORE.INTER.norm>
-0.157384

>  <SCORE.INTRA>
-10.052

>  <SCORE.INTRA.DIHEDRAL>
-19.0231

>  <SCORE.INTRA.DIHEDRAL.0>
27.8999

>  <SCORE.INTRA.POLAR>
0

>  <SCORE.INTRA.POLAR.0>
0

>  <SCORE.INTRA.REPUL>
0

>  <SCORE.INTRA.REPUL.0>
0

>  <SCORE.INTRA.SOLV>
-5.37122

>  <SCORE.INTRA.SOLV.lig_0>
-104.479

>  <SCORE.INTRA.VDW>
2.1451

>  <SCORE.INTRA.VDW.0>
-6.17816

>  <SCORE.INTRA.norm>
-0.239334

>  <SCORE.RESTR>
0

>  <SCORE.RESTR.CAVITY>
0

>  <SCORE.RESTR.norm>
0

>  <SCORE.SYSTEM>
0

>  <SCORE.SYSTEM.CONST>
0

>  <SCORE.SYSTEM.DIHEDRAL>
0

>  <SCORE.SYSTEM.SOLV>
0

>  <SCORE.SYSTEM.norm>
0

>  <SCORE.heavy>
42

>  <SCORE.norm>
-0.396719

>  <RMSD>
6.045

$$$$
2o3w_lig
 OpenBabel11021811463D
libRbt.so/2013.1/901 2013/11/27
 42 45  0  0  0  0  0  0  0  0999 V2000
    5.5220    1.0026    2.1840 C   0  0  2  0  0  0  0  0  0  0  0  0
    5.8696   -0.3446    2.5466 O   0  0  0  0  0  0  0  0  0  0  0  0
    9.7005   -2.3616    2.7743 C   0  0  2  0  0  0  0  0  0  0  0  0
   11.0393   -2.9257    2.4280 N   0  0  0  0  0  0  0  0  0  0  0  0
    8.9474    2.2804    3.0096 C   0  0  1  0  0  0  0  0  0  0  0  0
   10.0638    5.9200    5.0746 C   0  0  1  0  0  0  0  0  0  0  0  0
    4.1338    1.3026    2.8250 C   0  0  2  0  0  0  0  0  0  0  0  0
    4.0865    0.9546    4.2558 N   0  0  0  0  0  0  0  0  0  0  0  0
    8.5510   -3.0587    1.9410 C   0  0  0  0  0  0  0  0  0  0  0  0
    8.6361    3.6697    2.3742 C   0  0  2  0  0  0  0  0  0  0  0  0
    9.5592    4.0593    1.3276 O   0  0  0  0  0  0  0  0  0  0  0  0
    9.2019    7.2336    5.0573 C   0  0  2  0  0  0  0  0  0  0  0  0
    9.5182    8.0634    3.8563 N   0  0  0  0  0  0  0  0  0  0  0  0
    2.9940    0.5259    2.1405 C   0  0  1  0  0  0  0  0  0  0  0  0
    1.7379    0.8609    2.7330 O   0  0  0  0  0  0  0  0  0  0  0  0
    7.1657   -2.4394    2.3653 C   0  0  2  0  0  0  0  0  0  0  0  0
    6.0577   -3.0836    1.6097 N   0  0  0  0  0  0  0  0  0  0  0  0
    8.6229    4.5666    3.6131 C   0  0  2  0  0  0  0  0  0  0  0  0
    9.9497    5.1156    3.8941 O   0  0  0  0  0  0  0  0  0  0  0  0
    9.4617    8.0543    6.4085 C   0  0  1  0  0  0  0  0  0  0  0  0
    8.7991    7.3781    7.5006 O   0  0  0  0  0  0  0  0  0  0  0  0
    3.0016    0.8284    0.6247 C   0  0  2  0  0  0  0  0  0  0  0  0
    1.9532    0.1377   -0.0142 O   0  0  0  0  0  0  0  0  0  0  0  0
    7.1491   -0.8812    2.1048 C   0  0  2  0  0  0  0  0  0  0  0  0
    8.1285    3.6835    4.7712 C   0  0  2  0  0  0  0  0  0  0  0  0
    8.5965    2.3866    4.4084 O   0  0  0  0  0  0  0  0  0  0  0  0
   11.0194    8.2191    6.7463 C   0  0  2  0  0  0  0  0  0  0  0  0
   11.5798    9.1020    5.7753 O   0  0  0  0  0  0  0  0  0  0  0  0
    4.3857    0.4081    0.0272 C   0  0  2  0  0  0  0  0  0  0  0  0
    5.4572    1.1307    0.7125 O   0  0  0  0  0  0  0  0  0  0  0  0
    8.2832   -0.1383    2.8445 C   0  0  2  0  0  0  0  0  0  0  0  0
    8.2300    1.2285    2.3509 O   0  0  0  0  0  0  0  0  0  0  0  0
    6.5831    3.6830    4.9851 C   0  0  0  0  0  0  0  0  0  0  0  0
    6.2651    2.8794    6.1174 O   0  0  0  0  0  0  0  0  0  0  0  0
   11.7489    6.8235    6.6998 C   0  0  1  0  0  0  0  0  0  0  0  0
   11.5081    6.2806    5.3517 O   0  0  0  0  0  0  0  0  0  0  0  0
    4.4839    0.6759   -1.4568 C   0  0  0  0  0  0  0  0  0  0  0  0
    5.7286    0.2401   -1.9469 O   0  0  0  0  0  0  0  0  0  0  0  0
    9.6841   -0.8026    2.5102 C   0  0  1  0  0  0  0  0  0  0  0  0
   10.7130   -0.2134    3.3101 O   0  0  0  0  0  0  0  0  0  0  0  0
   13.3104    6.8990    6.9911 C   0  0  0  0  0  0  0  0  0  0  0  0
   13.9929    5.5891    7.1780 N   0  0  0  0  0  0  0  0  0  0  0  0
  1  2  1  6  0  0  0
  1  7  1  0  0  0  0
  1 30  1  0  0  0  0
  3  4  1  6  0  0  0
  3  9  1  0  0  0  0
  3 39  1  0  0  0  0
  5 10  1  0  0  0  0
  5 26  1  0  0  0  0
  5 32  1  6  0  0  0
  6 12  1  0  0  0  0
  6 36  1  0  0  0  0
  6 19  1  6  0  0  0
  7  8  1  1  0  0  0
  7 14  1  0  0  0  0
  9 16  1  0  0  0  0
 10 11  1  6  0  0  0
 10 18  1  0  0  0  0
 12 13  1  6  0  0  0
 12 20  1  0  0  0  0
 14 15  1  1  0  0  0
 14 22  1  0  0  0  0
 16 17  1  6  0  0  0
 16 24  1  0  0  0  0
 18 19  1  1  0  0  0
 18 25  1  0  0  0  0
 20 21  1  1  0  0  0
 20 27  1  0  0  0  0
 22 23  1  6  0  0  0
 22 29  1  0  0  0  0
 24  2  1  1  0  0  0
 24 31  1  0  0  0  0
 25 26  1  0  0  0  0
 25 33  1  6  0  0  0
 27 28  1  6  0  0  0
 27 35  1  0  0  0  0
 29 30  1  0  0  0  0
 29 37  1  6  0  0  0
 31 32  1  6  0  0  0
 31 39  1  0  0  0  0
 33 34  1  0  0  0  0
 35 36  1  0  0  0  0
 35 41  1  6  0  0  0
 37 38  1  0  0  0  0
 39 40  1  1  0  0  0
 41 42  1  0  0  0  0
M  END
>  <CHROM.1>
-178.44607387,-174.98296445,-63.06680135,-177.06681239,-168.46409082,-177.41787184
-178.09113236,166.84520987,170.33541622,7.87934316,2.51521095,3.32352012
2.17286825,0.28975413,-2.77184921

>  <Name>
2o3w_lig

>  <RI>
0

>  <Rbt.Current_Directory>
/home/itssahil/PROJECTS/Mol_Feturizer/New_Systems/rnas/2o3w

>  <Rbt.Executable>
rbdock ($Id: //depot/dev/client3/rdock/2013.1/src/exe/rbdock.cxx#4 $)

>  <Rbt.Library>
libRbt.so (2013.1, Build901 2013/11/27)

>  <Rbt.Parameter_File>
/export/apps/rDock/src/rDock_2013.1_src/data/scripts/dock_solv.prm

>  <Rbt.Receptor>
prm/pocket_docking_6.prm

>  <SCORE>
-17.3539

>  <SCORE.INTER>
-3.87873

>  <SCORE.INTER.CONST>
1

>  <SCORE.INTER.POLAR>
-1.18601

>  <SCORE.INTER.ROT>
9

>  <SCORE.INTER.SOLV>
11.6781

>  <SCORE.INTER.VDW>
-12.1251

>  <SCORE.INTER.norm>
-0.0923508

>  <SCORE.INTRA>
-13.4772

>  <SCORE.INTRA.DIHEDRAL>
-25.7118

>  <SCORE.INTRA.DIHEDRAL.0>
27.8999

>  <SCORE.INTRA.POLAR>
0

>  <SCORE.INTRA.POLAR.0>
0

>  <SCORE.INTRA.REPUL>
0

>  <SCORE.INTRA.REPUL.0>
0

>  <SCORE.INTRA.SOLV>
-5.21711

>  <SCORE.INTRA.SOLV.lig_0>
-104.479

>  <SCORE.INTRA.VDW>
1.98728

>  <SCORE.INTRA.VDW.0>
-6.17816

>  <SCORE.INTRA.norm>
-0.320886

>  <SCORE.RESTR>
0.00201181

>  <SCORE.RESTR.CAVITY>
0.00201181

>  <SCORE.RESTR.norm>
4.79002e-05

>  <SCORE.SYSTEM>
0

>  <SCORE.SYSTEM.CONST>
0

>  <SCORE.SYSTEM.DIHEDRAL>
0

>  <SCORE.SYSTEM.SOLV>
0

>  <SCORE.SYSTEM.norm>
0

>  <SCORE.heavy>
42

>  <SCORE.norm>
-0.413189

>  <RMSD>
6.059

$$$$
2o3w_lig
 OpenBabel11021811463D
libRbt.so/2013.1/901 2013/11/27
 42 45  0  0  0  0  0  0  0  0999 V2000
    4.5952    2.0072    4.2904 C   0  0  2  0  0  0  0  0  0  0  0  0
    4.4690    2.9992    3.2573 O   0  0  0  0  0  0  0  0  0  0  0  0
    3.4607    0.3340   -0.0102 C   0  0  2  0  0  0  0  0  0  0  0  0
    3.0482   -0.1964   -1.3440 N   0  0  0  0  0  0  0  0  0  0  0  0
    5.9088    4.0467    0.1351 C   0  0  1  0  0  0  0  0  0  0  0  0
    6.1484    7.3371   -2.6118 C   0  0  1  0  0  0  0  0  0  0  0  0
    5.1531    2.7323    5.5518 C   0  0  2  0  0  0  0  0  0  0  0  0
    4.3997    3.9555    5.8783 N   0  0  0  0  0  0  0  0  0  0  0  0
    2.2807    1.1283    0.6816 C   0  0  0  0  0  0  0  0  0  0  0  0
    6.7448    5.3021    0.5302 C   0  0  2  0  0  0  0  0  0  0  0  0
    6.0714    6.1914    1.4547 O   0  0  0  0  0  0  0  0  0  0  0  0
    7.4077    8.2390   -2.8755 C   0  0  2  0  0  0  0  0  0  0  0  0
    7.4523    9.3856   -1.9193 N   0  0  0  0  0  0  0  0  0  0  0  0
    6.6258    3.1488    5.3829 C   0  0  1  0  0  0  0  0  0  0  0  0
    7.1061    3.7727    6.5749 O   0  0  0  0  0  0  0  0  0  0  0  0
    2.7677    1.6419    2.0893 C   0  0  2  0  0  0  0  0  0  0  0  0
    1.6754    2.3829    2.7759 N   0  0  0  0  0  0  0  0  0  0  0  0
    7.0618    5.8926   -0.8447 C   0  0  2  0  0  0  0  0  0  0  0  0
    6.0365    6.8456   -1.2703 O   0  0  0  0  0  0  0  0  0  0  0  0
    7.3802    8.7551   -4.3920 C   0  0  1  0  0  0  0  0  0  0  0  0
    7.7183    7.6548   -5.2661 O   0  0  0  0  0  0  0  0  0  0  0  0
    7.4729    1.9097    5.0137 C   0  0  2  0  0  0  0  0  0  0  0  0
    8.8270    2.2713    4.8718 O   0  0  0  0  0  0  0  0  0  0  0  0
    4.0289    2.5806    1.9339 C   0  0  2  0  0  0  0  0  0  0  0  0
    7.1476    4.6983   -1.8100 C   0  0  2  0  0  0  0  0  0  0  0  0
    6.2319    3.7628   -1.2455 O   0  0  0  0  0  0  0  0  0  0  0  0
    5.9588    9.3603   -4.8174 C   0  0  2  0  0  0  0  0  0  0  0  0
    5.7815   10.5847   -4.1062 O   0  0  0  0  0  0  0  0  0  0  0  0
    6.9230    1.2929    3.6845 C   0  0  2  0  0  0  0  0  0  0  0  0
    5.5148    0.9350    3.8539 O   0  0  0  0  0  0  0  0  0  0  0  0
    5.2061    1.8876    1.2134 C   0  0  2  0  0  0  0  0  0  0  0  0
    6.1906    2.9353    0.9955 O   0  0  0  0  0  0  0  0  0  0  0  0
    8.5692    4.0727   -1.9582 C   0  0  0  0  0  0  0  0  0  0  0  0
    9.0715    3.7354   -0.6688 O   0  0  0  0  0  0  0  0  0  0  0  0
    4.7987    8.3535   -4.4673 C   0  0  1  0  0  0  0  0  0  0  0  0
    4.9032    8.0957   -3.0206 O   0  0  0  0  0  0  0  0  0  0  0  0
    7.6925    0.0669    3.2504 C   0  0  0  0  0  0  0  0  0  0  0  0
    7.6126   -0.9309    4.2390 O   0  0  0  0  0  0  0  0  0  0  0  0
    4.7211    1.2759   -0.1673 C   0  0  1  0  0  0  0  0  0  0  0  0
    5.7700    0.5062   -0.7616 O   0  0  0  0  0  0  0  0  0  0  0  0
    3.3454    8.8897   -4.8264 C   0  0  0  0  0  0  0  0  0  0  0  0
    2.2188    7.9903   -4.4544 N   0  0  0  0  0  0  0  0  0  0  0  0
  1  2  1  6  0  0  0
  1  7  1  0  0  0  0
  1 30  1  0  0  0  0
  3  4  1  6  0  0  0
  3  9  1  0  0  0  0
  3 39  1  0  0  0  0
  5 10  1  0  0  0  0
  5 26  1  0  0  0  0
  5 32  1  1  0  0  0
  6 12  1  0  0  0  0
  6 36  1  0  0  0  0
  6 19  1  1  0  0  0
  7  8  1  6  0  0  0
  7 14  1  0  0  0  0
  9 16  1  0  0  0  0
 10 11  1  1  0  0  0
 10 18  1  0  0  0  0
 12 13  1  1  0  0  0
 12 20  1  0  0  0  0
 14 15  1  1  0  0  0
 14 22  1  0  0  0  0
 16 17  1  6  0  0  0
 16 24  1  0  0  0  0
 18 19  1  6  0  0  0
 18 25  1  0  0  0  0
 20 21  1  6  0  0  0
 20 27  1  0  0  0  0
 22 23  1  6  0  0  0
 22 29  1  0  0  0  0
 24  2  1  1  0  0  0
 24 31  1  0  0  0  0
 25 26  1  0  0  0  0
 25 33  1  1  0  0  0
 27 28  1  1  0  0  0
 27 35  1  0  0  0  0
 29 30  1  0  0  0  0
 29 37  1  1  0  0  0
 31 32  1  6  0  0  0
 31 39  1  0  0  0  0
 33 34  1  0  0  0  0
 35 36  1  0  0  0  0
 35 41  1  1  0  0  0
 37 38  1  0  0  0  0
 39 40  1  1  0  0  0
 41 42  1  0  0  0  0
M  END
>  <CHROM.1>
176.90563028,153.93800332,-66.71072519,-172.70469589,46.99800280,53.92417536
60.25165896,-64.71710985,-177.40313527,5.78552168,4.23366297,0.36409992,1.58697507
0.70032568,2.28594091

>  <Name>
2o3w_lig

>  <RI>
0

>  <Rbt.Current_Directory>
/home/itssahil/PROJECTS/Mol_Feturizer/New_Systems/rnas/2o3w

>  <Rbt.Executable>
rbdock ($Id: //depot/dev/client3/rdock/2013.1/src/exe/rbdock.cxx#4 $)

>  <Rbt.Library>
libRbt.so (2013.1, Build901 2013/11/27)

>  <Rbt.Parameter_File>
/export/apps/rDock/src/rDock_2013.1_src/data/scripts/dock_solv.prm

>  <Rbt.Receptor>
prm/pocket_docking_8.prm

>  <SCORE>
-14.1993

>  <SCORE.INTER>
-3.06255

>  <SCORE.INTER.CONST>
1

>  <SCORE.INTER.POLAR>
-1.49878

>  <SCORE.INTER.ROT>
9

>  <SCORE.INTER.SOLV>
14.7966

>  <SCORE.INTER.VDW>
-11.578

>  <SCORE.INTER.norm>
-0.0729179

>  <SCORE.INTRA>
-11.1367

>  <SCORE.INTRA.DIHEDRAL>
-23.2994

>  <SCORE.INTRA.DIHEDRAL.0>
27.8999

>  <SCORE.INTRA.POLAR>
0

>  <SCORE.INTRA.POLAR.0>
0

>  <SCORE.INTRA.REPUL>
0

>  <SCORE.INTRA.REPUL.0>
0

>  <SCORE.INTRA.SOLV>
-4.49786

>  <SCORE.INTRA.SOLV.lig_0>
-104.479

>  <SCORE.INTRA.VDW>
2.76193

>  <SCORE.INTRA.VDW.0>
-6.17816

>  <SCORE.INTRA.norm>
-0.26516

>  <SCORE.RESTR>
0

>  <SCORE.RESTR.CAVITY>
0

>  <SCORE.RESTR.norm>
0

>  <SCORE.SYSTEM>
0

>  <SCORE.SYSTEM.CONST>
0

>  <SCORE.SYSTEM.DIHEDRAL>
0

>  <SCORE.SYSTEM.SOLV>
0

>  <SCORE.SYSTEM.norm>
0

>  <SCORE.heavy>
42

>  <SCORE.norm>
-0.338078

>  <RMSD>
6.094

$$$$
2o3w_lig
 OpenBabel11021811463D
libRbt.so/2013.1/901 2013/11/27
 42 45  0  0  0  0  0  0  0  0999 V2000
    9.0102    5.0655    3.4862 C   0  0  2  0  0  0  0  0  0  0  0  0
    9.1190    3.8834    2.6750 O   0  0  0  0  0  0  0  0  0  0  0  0
    6.1099    1.0985    1.2658 C   0  0  2  0  0  0  0  0  0  0  0  0
    4.9996    0.1009    1.2174 N   0  0  0  0  0  0  0  0  0  0  0  0
    5.4268    5.5605    2.6490 C   0  0  1  0  0  0  0  0  0  0  0  0
    3.2471    7.3526    1.4043 C   0  0  1  0  0  0  0  0  0  0  0  0
   10.1951    5.9979    3.0929 C   0  0  2  0  0  0  0  0  0  0  0  0
   10.3047    6.1863    1.6358 N   0  0  0  0  0  0  0  0  0  0  0  0
    7.3881    0.5005    1.9801 C   0  0  0  0  0  0  0  0  0  0  0  0
    4.6587    6.1274    3.8817 C   0  0  2  0  0  0  0  0  0  0  0  0
    3.4196    5.4354    4.1732 O   0  0  0  0  0  0  0  0  0  0  0  0
    3.9753    8.2652    0.3528 C   0  0  2  0  0  0  0  0  0  0  0  0
    3.4338    9.6567    0.3884 N   0  0  0  0  0  0  0  0  0  0  0  0
   11.5523    5.4526    3.5742 C   0  0  1  0  0  0  0  0  0  0  0  0
   12.6028    6.3567    3.2275 O   0  0  0  0  0  0  0  0  0  0  0  0
    8.5283    1.5879    1.9802 C   0  0  2  0  0  0  0  0  0  0  0  0
    9.7535    1.0529    2.6331 N   0  0  0  0  0  0  0  0  0  0  0  0
    4.5193    7.6001    3.4933 C   0  0  2  0  0  0  0  0  0  0  0  0
    3.2836    7.8457    2.7494 O   0  0  0  0  0  0  0  0  0  0  0  0
    3.8151    7.6224   -1.1060 C   0  0  1  0  0  0  0  0  0  0  0  0
    4.6706    6.4614   -1.2015 O   0  0  0  0  0  0  0  0  0  0  0  0
   11.4983    5.2085    5.0995 C   0  0  2  0  0  0  0  0  0  0  0  0
   12.7392    4.7248    5.5587 O   0  0  0  0  0  0  0  0  0  0  0  0
    8.0532    2.8930    2.7331 C   0  0  2  0  0  0  0  0  0  0  0  0
    5.7570    7.9340    2.6436 C   0  0  2  0  0  0  0  0  0  0  0  0
    6.0516    6.6942    2.0045 O   0  0  0  0  0  0  0  0  0  0  0  0
    2.3045    7.2039   -1.4388 C   0  0  2  0  0  0  0  0  0  0  0  0
    1.5463    8.4044   -1.5816 O   0  0  0  0  0  0  0  0  0  0  0  0
   10.3558    4.1856    5.4127 C   0  0  2  0  0  0  0  0  0  0  0  0
    9.0810    4.7056    4.9184 O   0  0  0  0  0  0  0  0  0  0  0  0
    6.7722    3.5033    2.1234 C   0  0  2  0  0  0  0  0  0  0  0  0
    6.3827    4.5653    3.0372 O   0  0  0  0  0  0  0  0  0  0  0  0
    6.9869    8.4564    3.4491 C   0  0  0  0  0  0  0  0  0  0  0  0
    7.3629    7.4823    4.4179 O   0  0  0  0  0  0  0  0  0  0  0  0
    1.7065    6.3154   -0.2834 C   0  0  1  0  0  0  0  0  0  0  0  0
    1.8227    7.1142    0.9490 O   0  0  0  0  0  0  0  0  0  0  0  0
   10.2270    3.8920    6.8895 C   0  0  0  0  0  0  0  0  0  0  0  0
    9.1291    3.0433    7.1211 O   0  0  0  0  0  0  0  0  0  0  0  0
    5.6342    2.4031    2.0224 C   0  0  1  0  0  0  0  0  0  0  0  0
    4.5027    2.9264    1.3213 O   0  0  0  0  0  0  0  0  0  0  0  0
    0.1945    5.8816   -0.5166 C   0  0  0  0  0  0  0  0  0  0  0  0
   -0.3547    4.9113    0.4701 N   0  0  0  0  0  0  0  0  0  0  0  0
  1  2  1  6  0  0  0
  1  7  1  0  0  0  0
  1 30  1  0  0  0  0
  3  4  1  1  0  0  0
  3  9  1  0  0  0  0
  3 39  1  0  0  0  0
  5 10  1  0  0  0  0
  5 26  1  0  0  0  0
  5 32  1  1  0  0  0
  6 12  1  0  0  0  0
  6 36  1  0  0  0  0
  6 19  1  1  0  0  0
  7  8  1  6  0  0  0
  7 14  1  0  0  0  0
  9 16  1  0  0  0  0
 10 11  1  6  0  0  0
 10 18  1  0  0  0  0
 12 13  1  6  0  0  0
 12 20  1  0  0  0  0
 14 15  1  1  0  0  0
 14 22  1  0  0  0  0
 16 17  1  1  0  0  0
 16 24  1  0  0  0  0
 18 19  1  6  0  0  0
 18 25  1  0  0  0  0
 20 21  1  1  0  0  0
 20 27  1  0  0  0  0
 22 23  1  6  0  0  0
 22 29  1  0  0  0  0
 24  2  1  6  0  0  0
 24 31  1  0  0  0  0
 25 26  1  0  0  0  0
 25 33  1  1  0  0  0
 27 28  1  1  0  0  0
 27 35  1  0  0  0  0
 29 30  1  0  0  0  0
 29 37  1  1  0  0  0
 31 32  1  1  0  0  0
 31 39  1  0  0  0  0
 33 34  1  0  0  0  0
 35 36  1  0  0  0  0
 35 41  1  6  0  0  0
 37 38  1  0  0  0  0
 39 40  1  6  0  0  0
 41 42  1  0  0  0  0
M  END
>  <CHROM.1>
-173.60208027,152.21257001,-80.30676982,-72.37030903,-169.40389186,58.18950664
175.88652098,165.08380734,173.05057700,6.38029221,5.29489401,2.40362251,-0.26978338
-0.49217787,0.06296640

>  <Name>
2o3w_lig

>  <RI>
0

>  <Rbt.Current_Directory>
/home/itssahil/PROJECTS/Mol_Feturizer/New_Systems/rnas/2o3w

>  <Rbt.Executable>
rbdock ($Id: //depot/dev/client3/rdock/2013.1/src/exe/rbdock.cxx#4 $)

>  <Rbt.Library>
libRbt.so (2013.1, Build901 2013/11/27)

>  <Rbt.Parameter_File>
/export/apps/rDock/src/rDock_2013.1_src/data/scripts/dock_solv.prm

>  <Rbt.Receptor>
prm/pocket_docking_4.prm

>  <SCORE>
-11.6543

>  <SCORE.INTER>
-1.8816

>  <SCORE.INTER.CONST>
1

>  <SCORE.INTER.POLAR>
0

>  <SCORE.INTER.ROT>
9

>  <SCORE.INTER.SOLV>
12.9268

>  <SCORE.INTER.VDW>
-15.1633

>  <SCORE.INTER.norm>
-0.0447999

>  <SCORE.INTRA>
-9.77542

>  <SCORE.INTRA.DIHEDRAL>
-19.9997

>  <SCORE.INTRA.DIHEDRAL.0>
27.8999

>  <SCORE.INTRA.POLAR>
0

>  <SCORE.INTRA.POLAR.0>
0

>  <SCORE.INTRA.REPUL>
0.00154342

>  <SCORE.INTRA.REPUL.0>
0

>  <SCORE.INTRA.SOLV>
-3.78737

>  <SCORE.INTRA.SOLV.lig_0>
-104.479

>  <SCORE.INTRA.VDW>
2.1104

>  <SCORE.INTRA.VDW.0>
-6.17816

>  <SCORE.INTRA.norm>
-0.232748

>  <SCORE.RESTR>
0.00275454

>  <SCORE.RESTR.CAVITY>
0.00275454

>  <SCORE.RESTR.norm>
6.55842e-05

>  <SCORE.SYSTEM>
0

>  <SCORE.SYSTEM.CONST>
0

>  <SCORE.SYSTEM.DIHEDRAL>
0

>  <SCORE.SYSTEM.SOLV>
0

>  <SCORE.SYSTEM.norm>
0

>  <SCORE.heavy>
42

>  <SCORE.norm>
-0.277482

>  <RMSD>
6.149

$$$$
2o3w_lig
 OpenBabel11021811463D
libRbt.so/2013.1/901 2013/11/27
 42 45  0  0  0  0  0  0  0  0999 V2000
    5.4372    2.5484    1.3694 C   0  0  2  0  0  0  0  0  0  0  0  0
    6.8397    2.8642    1.3895 O   0  0  0  0  0  0  0  0  0  0  0  0
    8.9123    6.5056    2.5030 C   0  0  2  0  0  0  0  0  0  0  0  0
    9.3729    7.9251    2.5604 N   0  0  0  0  0  0  0  0  0  0  0  0
    4.6395    5.4839    1.4565 C   0  0  1  0  0  0  0  0  0  0  0  0
    1.9628    7.8512   -1.1332 C   0  0  1  0  0  0  0  0  0  0  0  0
    5.3172    1.0007    1.5057 C   0  0  2  0  0  0  0  0  0  0  0  0
    6.1131    0.4701    2.6262 N   0  0  0  0  0  0  0  0  0  0  0  0
    9.2979    5.8324    1.1247 C   0  0  0  0  0  0  0  0  0  0  0  0
    3.1241    5.6932    1.7575 C   0  0  2  0  0  0  0  0  0  0  0  0
    2.2909    4.5627    1.4015 O   0  0  0  0  0  0  0  0  0  0  0  0
    1.1860    7.4899   -2.4504 C   0  0  2  0  0  0  0  0  0  0  0  0
    2.0098    6.6082   -3.3307 N   0  0  0  0  0  0  0  0  0  0  0  0
    5.7877    0.2643    0.2379 C   0  0  1  0  0  0  0  0  0  0  0  0
    5.6232   -1.1464    0.3922 O   0  0  0  0  0  0  0  0  0  0  0  0
    8.8073    4.3351    1.1332 C   0  0  2  0  0  0  0  0  0  0  0  0
    9.1671    3.6655   -0.1457 N   0  0  0  0  0  0  0  0  0  0  0  0
    2.8455    6.9881    0.9928 C   0  0  2  0  0  0  0  0  0  0  0  0
    2.4224    6.7206   -0.3821 O   0  0  0  0  0  0  0  0  0  0  0  0
    0.7761    8.8399   -3.2096 C   0  0  1  0  0  0  0  0  0  0  0  0
   -0.3064    9.4708   -2.4891 O   0  0  0  0  0  0  0  0  0  0  0  0
    5.0056    0.7932   -0.9859 C   0  0  2  0  0  0  0  0  0  0  0  0
    5.4130    0.1170   -2.1526 O   0  0  0  0  0  0  0  0  0  0  0  0
    7.2439    4.2625    1.3481 C   0  0  2  0  0  0  0  0  0  0  0  0
    4.1567    7.7913    1.0261 C   0  0  2  0  0  0  0  0  0  0  0  0
    5.1554    6.7744    1.0571 O   0  0  0  0  0  0  0  0  0  0  0  0
    1.9964    9.8685   -3.3521 C   0  0  2  0  0  0  0  0  0  0  0  0
    2.9288    9.3058   -4.2742 O   0  0  0  0  0  0  0  0  0  0  0  0
    5.2533    2.3324   -1.1238 C   0  0  2  0  0  0  0  0  0  0  0  0
    4.8318    3.0103    0.1021 O   0  0  0  0  0  0  0  0  0  0  0  0
    6.7859    4.9522    2.6518 C   0  0  2  0  0  0  0  0  0  0  0  0
    5.3329    4.9532    2.5934 O   0  0  0  0  0  0  0  0  0  0  0  0
    4.3044    8.7601    2.2401 C   0  0  0  0  0  0  0  0  0  0  0  0
    5.5349    9.4689    2.1293 O   0  0  0  0  0  0  0  0  0  0  0  0
    2.6868   10.1086   -1.9564 C   0  0  1  0  0  0  0  0  0  0  0  0
    3.1077    8.7816   -1.4745 O   0  0  0  0  0  0  0  0  0  0  0  0
    4.5173    2.9370   -2.2971 C   0  0  0  0  0  0  0  0  0  0  0  0
    4.8143    4.3082   -2.4013 O   0  0  0  0  0  0  0  0  0  0  0  0
    7.3469    6.4344    2.7151 C   0  0  1  0  0  0  0  0  0  0  0  0
    7.0514    7.0201    3.9860 O   0  0  0  0  0  0  0  0  0  0  0  0
    3.9335   11.0941   -2.0117 C   0  0  0  0  0  0  0  0  0  0  0  0
    4.6920   11.2423   -0.7391 N   0  0  0  0  0  0  0  0  0  0  0  0
  1  2  1  6  0  0  0
  1  7  1  0  0  0  0
  1 30  1  0  0  0  0
  3  4  1  6  0  0  0
  3  9  1  0  0  0  0
  3 39  1  0  0  0  0
  5 10  1  0  0  0  0
  5 26  1  0  0  0  0
  5 32  1  1  0  0  0
  6 12  1  0  0  0  0
  6 36  1  0  0  0  0
  6 19  1  6  0  0  0
  7  8  1  1  0  0  0
  7 14  1  0  0  0  0
  9 16  1  0  0  0  0
 10 11  1  6  0  0  0
 10 18  1  0  0  0  0
 12 13  1  6  0  0  0
 12 20  1  0  0  0  0
 14 15  1  1  0  0  0
 14 22  1  0  0  0  0
 16 17  1  6  0  0  0
 16 24  1  0  0  0  0
 18 19  1  6  0  0  0
 18 25  1  0  0  0  0
 20 21  1  1  0  0  0
 20 27  1  0  0  0  0
 22 23  1  6  0  0  0
 22 29  1  0  0  0  0
 24  2  1  1  0  0  0
 24 31  1  0  0  0  0
 25 26  1  0  0  0  0
 25 33  1  1  0  0  0
 27 28  1  6  0  0  0
 27 35  1  0  0  0  0
 29 30  1  0  0  0  0
 29 37  1  6  0  0  0
 31 32  1  6  0  0  0
 31 39  1  0  0  0  0
 33 34  1  0  0  0  0
 35 36  1  0  0  0  0
 35 41  1  6  0  0  0
 37 38  1  0  0  0  0
 39 40  1  1  0  0  0
 41 42  1  0  0  0  0
M  END
>  <CHROM.1>
-176.80396640,-166.27718176,-165.23361863,171.89080979,-170.48717521,-178.19296715
-177.86119544,-53.13177334,-174.30865360,4.83241672,5.67006451,0.09505501
0.87918380,0.73552375,-3.00956549

>  <Name>
2o3w_lig

>  <RI>
0

>  <Rbt.Current_Directory>
/home/itssahil/PROJECTS/Mol_Feturizer/New_Systems/rnas/2o3w

>  <Rbt.Executable>
rbdock ($Id: //depot/dev/client3/rdock/2013.1/src/exe/rbdock.cxx#4 $)

>  <Rbt.Library>
libRbt.so (2013.1, Build901 2013/11/27)

>  <Rbt.Parameter_File>
/export/apps/rDock/src/rDock_2013.1_src/data/scripts/dock_solv.prm

>  <Rbt.Receptor>
prm/pocket_docking_7.prm

>  <SCORE>
-12.1967

>  <SCORE.INTER>
-0.227382

>  <SCORE.INTER.CONST>
1

>  <SCORE.INTER.POLAR>
0

>  <SCORE.INTER.ROT>
9

>  <SCORE.INTER.SOLV>
15.5911

>  <SCORE.INTER.VDW>
-14.9486

>  <SCORE.INTER.norm>
-0.00541386

>  <SCORE.INTRA>
-11.9694

>  <SCORE.INTRA.DIHEDRAL>
-24.6754

>  <SCORE.INTRA.DIHEDRAL.0>
27.8999

>  <SCORE.INTRA.POLAR>
0

>  <SCORE.INTRA.POLAR.0>
0

>  <SCORE.INTRA.REPUL>
0

>  <SCORE.INTRA.REPUL.0>
0

>  <SCORE.INTRA.SOLV>
-2.83574

>  <SCORE.INTRA.SOLV.lig_0>
-104.479

>  <SCORE.INTRA.VDW>
1.78623

>  <SCORE.INTRA.VDW.0>
-6.17816

>  <SCORE.INTRA.norm>
-0.284985

>  <SCORE.RESTR>
0

>  <SCORE.RESTR.CAVITY>
0

>  <SCORE.RESTR.norm>
0

>  <SCORE.SYSTEM>
0

>  <SCORE.SYSTEM.CONST>
0

>  <SCORE.SYSTEM.DIHEDRAL>
0

>  <SCORE.SYSTEM.SOLV>
0

>  <SCORE.SYSTEM.norm>
0

>  <SCORE.heavy>
42

>  <SCORE.norm>
-0.290399

>  <RMSD>
6.209

$$$$
2o3w_lig
 OpenBabel11021811463D
libRbt.so/2013.1/901 2013/11/27
 42 45  0  0  0  0  0  0  0  0999 V2000
    3.5185    0.6274    4.3099 C   0  0  2  0  0  0  0  0  0  0  0  0
    3.5670    1.3270    3.0548 O   0  0  0  0  0  0  0  0  0  0  0  0
    0.8614    3.3626    0.3470 C   0  0  2  0  0  0  0  0  0  0  0  0
   -0.3008    4.1181   -0.2089 N   0  0  0  0  0  0  0  0  0  0  0  0
    3.9250    5.3964    3.2634 C   0  0  1  0  0  0  0  0  0  0  0  0
    4.9978    8.0628    2.4756 C   0  0  1  0  0  0  0  0  0  0  0  0
    4.8391    0.9595    5.0675 C   0  0  2  0  0  0  0  0  0  0  0  0
    5.1157    2.4060    5.1106 N   0  0  0  0  0  0  0  0  0  0  0  0
    0.4132    1.9559    0.9146 C   0  0  0  0  0  0  0  0  0  0  0  0
    3.3506    6.4203    4.2894 C   0  0  2  0  0  0  0  0  0  0  0  0
    2.2983    7.2614    3.7563 O   0  0  0  0  0  0  0  0  0  0  0  0
    6.4167    7.5846    1.9994 C   0  0  2  0  0  0  0  0  0  0  0  0
    7.4735    8.5558    2.4130 N   0  0  0  0  0  0  0  0  0  0  0  0
    6.0669    0.2910    4.4221 C   0  0  1  0  0  0  0  0  0  0  0  0
    7.2466    0.5895    5.1705 O   0  0  0  0  0  0  0  0  0  0  0  0
    1.6815    1.1999    1.4644 C   0  0  2  0  0  0  0  0  0  0  0  0
    1.2979   -0.1365    1.9942 N   0  0  0  0  0  0  0  0  0  0  0  0
    4.6227    7.1482    4.7265 C   0  0  2  0  0  0  0  0  0  0  0  0
    4.8932    8.3126    3.8828 O   0  0  0  0  0  0  0  0  0  0  0  0
    6.4033    7.3914    0.4090 C   0  0  1  0  0  0  0  0  0  0  0  0
    5.6564    6.1959    0.0899 O   0  0  0  0  0  0  0  0  0  0  0  0
    5.8316   -1.2336    4.3237 C   0  0  2  0  0  0  0  0  0  0  0  0
    6.9540   -1.8627    3.7501 O   0  0  0  0  0  0  0  0  0  0  0  0
    2.3807    2.0412    2.6042 C   0  0  2  0  0  0  0  0  0  0  0  0
    5.7576    6.1146    4.6303 C   0  0  2  0  0  0  0  0  0  0  0  0
    5.3347    5.2722    3.5608 O   0  0  0  0  0  0  0  0  0  0  0  0
    5.7677    8.6427   -0.3643 C   0  0  2  0  0  0  0  0  0  0  0  0
    6.6717    9.7384   -0.2272 O   0  0  0  0  0  0  0  0  0  0  0  0
    4.5502   -1.4980    3.4648 C   0  0  2  0  0  0  0  0  0  0  0  0
    3.4021   -0.8276    4.0749 O   0  0  0  0  0  0  0  0  0  0  0  0
    2.7968    3.4532    2.1368 C   0  0  2  0  0  0  0  0  0  0  0  0
    3.2437    4.1374    3.3395 O   0  0  0  0  0  0  0  0  0  0  0  0
    6.0075    5.2888    5.9302 C   0  0  0  0  0  0  0  0  0  0  0  0
    5.9768    6.1617    7.0554 O   0  0  0  0  0  0  0  0  0  0  0  0
    4.3626    9.0159    0.2427 C   0  0  1  0  0  0  0  0  0  0  0  0
    4.5923    9.2815    1.6734 O   0  0  0  0  0  0  0  0  0  0  0  0
    4.2400   -2.9701    3.3213 C   0  0  0  0  0  0  0  0  0  0  0  0
    4.2034   -3.5835    4.5869 O   0  0  0  0  0  0  0  0  0  0  0  0
    1.5586    4.2043    1.4899 C   0  0  1  0  0  0  0  0  0  0  0  0
    1.9778    5.4483    0.9221 O   0  0  0  0  0  0  0  0  0  0  0  0
    3.6728   10.2725   -0.4457 C   0  0  0  0  0  0  0  0  0  0  0  0
    3.3919   10.1337   -1.9011 N   0  0  0  0  0  0  0  0  0  0  0  0
  1  2  1  6  0  0  0
  1  7  1  0  0  0  0
  1 30  1  0  0  0  0
  3  4  1  1  0  0  0
  3  9  1  0  0  0  0
  3 39  1  0  0  0  0
  5 10  1  0  0  0  0
  5 26  1  0  0  0  0
  5 32  1  1  0  0  0
  6 12  1  0  0  0  0
  6 36  1  0  0  0  0
  6 19  1  1  0  0  0
  7  8  1  6  0  0  0
  7 14  1  0  0  0  0
  9 16  1  0  0  0  0
 10 11  1  6  0  0  0
 10 18  1  0  0  0  0
 12 13  1  6  0  0  0
 12 20  1  0  0  0  0
 14 15  1  1  0  0  0
 14 22  1  0  0  0  0
 16 17  1  1  0  0  0
 16 24  1  0  0  0  0
 18 19  1  6  0  0  0
 18 25  1  0  0  0  0
 20 21  1  1  0  0  0
 20 27  1  0  0  0  0
 22 23  1  6  0  0  0
 22 29  1  0  0  0  0
 24  2  1  6  0  0  0
 24 31  1  0  0  0  0
 25 26  1  0  0  0  0
 25 33  1  1  0  0  0
 27 28  1  1  0  0  0
 27 35  1  0  0  0  0
 29 30  1  0  0  0  0
 29 37  1  1  0  0  0
 31 32  1  1  0  0  0
 31 39  1  0  0  0  0
 33 34  1  0  0  0  0
 35 36  1  0  0  0  0
 35 41  1  6  0  0  0
 37 38  1  0  0  0  0
 39 40  1  6  0  0  0
 41 42  1  0  0  0  0
M  END
>  <CHROM.1>
-135.28827464,133.72208180,-84.07995705,-56.13126690,-103.97857024,-43.91322854
52.18575799,168.99482957,60.47001489,4.23869010,4.19318480,2.71640119,1.64297364
0.70238611,2.81940189

>  <Name>
2o3w_lig

>  <RI>
0

>  <Rbt.Current_Directory>
/home/itssahil/PROJECTS/Mol_Feturizer/New_Systems/rnas/2o3w

>  <Rbt.Executable>
rbdock ($Id: //depot/dev/client3/rdock/2013.1/src/exe/rbdock.cxx#4 $)

>  <Rbt.Library>
libRbt.so (2013.1, Build901 2013/11/27)

>  <Rbt.Parameter_File>
/export/apps/rDock/src/rDock_2013.1_src/data/scripts/dock_solv.prm

>  <Rbt.Receptor>
prm/pocket_docking_5.prm

>  <SCORE>
-17.3745

>  <SCORE.INTER>
-17.0149

>  <SCORE.INTER.CONST>
1

>  <SCORE.INTER.POLAR>
-1.92557

>  <SCORE.INTER.ROT>
9

>  <SCORE.INTER.SOLV>
12.3332

>  <SCORE.INTER.VDW>
-18.6357

>  <SCORE.INTER.norm>
-0.405116

>  <SCORE.INTRA>
-0.359643

>  <SCORE.INTRA.DIHEDRAL>
-5.20621

>  <SCORE.INTRA.DIHEDRAL.0>
27.8999

>  <SCORE.INTRA.POLAR>
0

>  <SCORE.INTRA.POLAR.0>
0

>  <SCORE.INTRA.REPUL>
0.0127566

>  <SCORE.INTRA.REPUL.0>
0

>  <SCORE.INTRA.SOLV>
1.59667

>  <SCORE.INTRA.SOLV.lig_0>
-104.479

>  <SCORE.INTRA.VDW>
1.38135

>  <SCORE.INTRA.VDW.0>
-6.17816

>  <SCORE.INTRA.norm>
-0.00856293

>  <SCORE.RESTR>
0

>  <SCORE.RESTR.CAVITY>
0

>  <SCORE.RESTR.norm>
0

>  <SCORE.SYSTEM>
0

>  <SCORE.SYSTEM.CONST>
0

>  <SCORE.SYSTEM.DIHEDRAL>
0

>  <SCORE.SYSTEM.SOLV>
0

>  <SCORE.SYSTEM.norm>
0

>  <SCORE.heavy>
42

>  <SCORE.norm>
-0.413679

>  <RMSD>
6.217

$$$$
2o3w_lig
 OpenBabel11021811463D
libRbt.so/2013.1/901 2013/11/27
 42 45  0  0  0  0  0  0  0  0999 V2000
   13.3286   -0.2674    5.6212 C   0  0  2  0  0  0  0  0  0  0  0  0
   14.7239   -0.3862    5.9469 O   0  0  0  0  0  0  0  0  0  0  0  0
   17.5973    2.7825    6.6533 C   0  0  2  0  0  0  0  0  0  0  0  0
   18.5133    3.9468    6.4640 N   0  0  0  0  0  0  0  0  0  0  0  0
   12.7955    2.9883    6.5116 C   0  0  1  0  0  0  0  0  0  0  0  0
    9.7173    5.9932    6.8131 C   0  0  1  0  0  0  0  0  0  0  0  0
   12.6181   -1.5296    6.1957 C   0  0  2  0  0  0  0  0  0  0  0  0
   12.9637   -1.7782    7.6062 N   0  0  0  0  0  0  0  0  0  0  0  0
   18.0726    1.5346    5.8054 C   0  0  0  0  0  0  0  0  0  0  0  0
   11.9836    3.9501    5.5915 C   0  0  2  0  0  0  0  0  0  0  0  0
   12.4918    5.3066    5.5624 O   0  0  0  0  0  0  0  0  0  0  0  0
    9.0662    6.8246    7.9766 C   0  0  2  0  0  0  0  0  0  0  0  0
    8.0496    6.0116    8.7090 N   0  0  0  0  0  0  0  0  0  0  0  0
   12.9789   -2.8083    5.4175 C   0  0  1  0  0  0  0  0  0  0  0  0
   12.2760   -3.9312    5.9523 O   0  0  0  0  0  0  0  0  0  0  0  0
   17.0832    0.3358    6.0633 C   0  0  2  0  0  0  0  0  0  0  0  0
   17.5094   -0.8621    5.2907 N   0  0  0  0  0  0  0  0  0  0  0  0
   10.5730    3.7834    6.1588 C   0  0  2  0  0  0  0  0  0  0  0  0
   10.3030    4.7511    7.2225 O   0  0  0  0  0  0  0  0  0  0  0  0
    8.4115    8.1564    7.3726 C   0  0  1  0  0  0  0  0  0  0  0  0
    9.4679    9.0766    7.0173 O   0  0  0  0  0  0  0  0  0  0  0  0
   12.6620   -2.6061    3.9182 C   0  0  2  0  0  0  0  0  0  0  0  0
   12.9712   -3.7742    3.1940 O   0  0  0  0  0  0  0  0  0  0  0  0
   15.6093    0.7326    5.6558 C   0  0  2  0  0  0  0  0  0  0  0  0
   10.4949    2.3404    6.6851 C   0  0  2  0  0  0  0  0  0  0  0  0
   11.8361    2.0725    7.0877 O   0  0  0  0  0  0  0  0  0  0  0  0
    7.4945    7.8720    6.0897 C   0  0  2  0  0  0  0  0  0  0  0  0
    6.3338    7.1722    6.5363 O   0  0  0  0  0  0  0  0  0  0  0  0
   13.4862   -1.3884    3.3819 C   0  0  2  0  0  0  0  0  0  0  0  0
   13.1551   -0.1915    4.1549 O   0  0  0  0  0  0  0  0  0  0  0  0
   15.0964    1.9818    6.4053 C   0  0  2  0  0  0  0  0  0  0  0  0
   13.8233    2.3055    5.7818 O   0  0  0  0  0  0  0  0  0  0  0  0
    9.9997    1.2868    5.6464 C   0  0  0  0  0  0  0  0  0  0  0  0
    8.7014    1.6522    5.1882 O   0  0  0  0  0  0  0  0  0  0  0  0
    8.2761    7.0098    5.0278 C   0  0  1  0  0  0  0  0  0  0  0  0
    8.6878    5.7783    5.7237 O   0  0  0  0  0  0  0  0  0  0  0  0
   13.2316   -1.1134    1.9179 C   0  0  0  0  0  0  0  0  0  0  0  0
   11.8638   -0.8649    1.7019 O   0  0  0  0  0  0  0  0  0  0  0  0
   16.1230    3.1798    6.2421 C   0  0  1  0  0  0  0  0  0  0  0  0
   15.7251    4.2852    7.0579 O   0  0  0  0  0  0  0  0  0  0  0  0
    7.4263    6.6512    3.7325 C   0  0  0  0  0  0  0  0  0  0  0  0
    6.2009    5.8404    3.9725 N   0  0  0  0  0  0  0  0  0  0  0  0
  1  2  1  6  0  0  0
  1  7  1  0  0  0  0
  1 30  1  0  0  0  0
  3  4  1  6  0  0  0
  3  9  1  0  0  0  0
  3 39  1  0  0  0  0
  5 10  1  0  0  0  0
  5 26  1  0  0  0  0
  5 32  1  6  0  0  0
  6 12  1  0  0  0  0
  6 36  1  0  0  0  0
  6 19  1  1  0  0  0
  7  8  1  1  0  0  0
  7 14  1  0  0  0  0
  9 16  1  0  0  0  0
 10 11  1  1  0  0  0
 10 18  1  0  0  0  0
 12 13  1  6  0  0  0
 12 20  1  0  0  0  0
 14 15  1  1  0  0  0
 14 22  1  0  0  0  0
 16 17  1  6  0  0  0
 16 24  1  0  0  0  0
 18 19  1  1  0  0  0
 18 25  1  0  0  0  0
 20 21  1  6  0  0  0
 20 27  1  0  0  0  0
 22 23  1  6  0  0  0
 22 29  1  0  0  0  0
 24  2  1  1  0  0  0
 24 31  1  0  0  0  0
 25 26  1  0  0  0  0
 25 33  1  6  0  0  0
 27 28  1  1  0  0  0
 27 35  1  0  0  0  0
 29 30  1  0  0  0  0
 29 37  1  6  0  0  0
 31 32  1  6  0  0  0
 31 39  1  0  0  0  0
 33 34  1  0  0  0  0
 35 36  1  0  0  0  0
 35 41  1  6  0  0  0
 37 38  1  0  0  0  0
 39 40  1  1  0  0  0
 41 42  1  0  0  0  0
M  END
>  <CHROM.1>
-173.38719153,145.53418611,163.18628981,90.98931830,-178.27231681,-58.76292183
58.35755585,152.73280730,-61.38738793,12.10314422,2.47000683,5.72393719,0.86124535
0.18525730,-2.82596889

>  <Name>
2o3w_lig

>  <RI>
0

>  <Rbt.Current_Directory>
/home/itssahil/PROJECTS/Mol_Feturizer/New_Systems/rnas/2o3w

>  <Rbt.Executable>
rbdock ($Id: //depot/dev/client3/rdock/2013.1/src/exe/rbdock.cxx#4 $)

>  <Rbt.Library>
libRbt.so (2013.1, Build901 2013/11/27)

>  <Rbt.Parameter_File>
/export/apps/rDock/src/rDock_2013.1_src/data/scripts/dock_solv.prm

>  <Rbt.Receptor>
prm/pocket_docking_7.prm

>  <SCORE>
-14.2432

>  <SCORE.INTER>
-6.79098

>  <SCORE.INTER.CONST>
1

>  <SCORE.INTER.POLAR>
-1.91593

>  <SCORE.INTER.ROT>
9

>  <SCORE.INTER.SOLV>
10.8065

>  <SCORE.INTER.VDW>
-11.3431

>  <SCORE.INTER.norm>
-0.16169

>  <SCORE.INTRA>
-7.45223

>  <SCORE.INTRA.DIHEDRAL>
-14.9253

>  <SCORE.INTRA.DIHEDRAL.0>
27.8999

>  <SCORE.INTRA.POLAR>
0

>  <SCORE.INTRA.POLAR.0>
0

>  <SCORE.INTRA.REPUL>
0

>  <SCORE.INTRA.REPUL.0>
0

>  <SCORE.INTRA.SOLV>
-4.01614

>  <SCORE.INTRA.SOLV.lig_0>
-104.479

>  <SCORE.INTRA.VDW>
2.01846

>  <SCORE.INTRA.VDW.0>
-6.17816

>  <SCORE.INTRA.norm>
-0.177434

>  <SCORE.RESTR>
0

>  <SCORE.RESTR.CAVITY>
0

>  <SCORE.RESTR.norm>
0

>  <SCORE.SYSTEM>
0

>  <SCORE.SYSTEM.CONST>
0

>  <SCORE.SYSTEM.DIHEDRAL>
0

>  <SCORE.SYSTEM.SOLV>
0

>  <SCORE.SYSTEM.norm>
0

>  <SCORE.heavy>
42

>  <SCORE.norm>
-0.339124

>  <RMSD>
6.241

$$$$
2o3w_lig
 OpenBabel11021811463D
libRbt.so/2013.1/901 2013/11/27
 42 45  0  0  0  0  0  0  0  0999 V2000
    9.0284    4.9672    7.3961 C   0  0  2  0  0  0  0  0  0  0  0  0
    8.3223    5.7685    6.4334 O   0  0  0  0  0  0  0  0  0  0  0  0
    5.8416    2.6199    4.7816 C   0  0  2  0  0  0  0  0  0  0  0  0
    4.8764    1.8614    3.9310 N   0  0  0  0  0  0  0  0  0  0  0  0
    8.4591    5.7778    2.9519 C   0  0  1  0  0  0  0  0  0  0  0  0
    7.2019    8.0383   -0.3744 C   0  0  1  0  0  0  0  0  0  0  0  0
    9.6676    5.9487    8.4238 C   0  0  2  0  0  0  0  0  0  0  0  0
    8.6997    6.9310    8.9424 N   0  0  0  0  0  0  0  0  0  0  0  0
    5.1203    3.7896    5.5648 C   0  0  0  0  0  0  0  0  0  0  0  0
    9.5734    6.2911    1.9897 C   0  0  2  0  0  0  0  0  0  0  0  0
   10.2804    7.4584    2.4763 O   0  0  0  0  0  0  0  0  0  0  0  0
    7.5966    7.6153   -1.8353 C   0  0  2  0  0  0  0  0  0  0  0  0
    8.8417    8.3134   -2.2747 N   0  0  0  0  0  0  0  0  0  0  0  0
   10.8341    6.7508    7.8182 C   0  0  1  0  0  0  0  0  0  0  0  0
   11.4142    7.6065    8.8042 O   0  0  0  0  0  0  0  0  0  0  0  0
    6.1819    4.5359    6.4583 C   0  0  2  0  0  0  0  0  0  0  0  0
    5.5337    5.6360    7.2220 N   0  0  0  0  0  0  0  0  0  0  0  0
    8.7813    6.4881    0.6962 C   0  0  2  0  0  0  0  0  0  0  0  0
    8.2312    7.8407    0.6029 O   0  0  0  0  0  0  0  0  0  0  0  0
    6.3780    7.9340   -2.8254 C   0  0  1  0  0  0  0  0  0  0  0  0
    5.3274    6.9677   -2.5994 O   0  0  0  0  0  0  0  0  0  0  0  0
   11.8802    5.7760    7.2311 C   0  0  2  0  0  0  0  0  0  0  0  0
   12.9631    6.4944    6.6875 O   0  0  0  0  0  0  0  0  0  0  0  0
    7.3458    5.1240    5.5665 C   0  0  2  0  0  0  0  0  0  0  0  0
    7.6634    5.4321    0.7181 C   0  0  2  0  0  0  0  0  0  0  0  0
    7.3958    5.2766    2.1097 O   0  0  0  0  0  0  0  0  0  0  0  0
    5.7943    9.4143   -2.6370 C   0  0  2  0  0  0  0  0  0  0  0  0
    6.7811   10.3302   -3.1102 O   0  0  0  0  0  0  0  0  0  0  0  0
   11.1963    4.8928    6.1348 C   0  0  2  0  0  0  0  0  0  0  0  0
   10.0707    4.1652    6.7208 O   0  0  0  0  0  0  0  0  0  0  0  0
    8.0616    4.0431    4.7271 C   0  0  2  0  0  0  0  0  0  0  0  0
    8.9580    4.7748    3.8465 O   0  0  0  0  0  0  0  0  0  0  0  0
    8.0352    4.0663    0.0620 C   0  0  0  0  0  0  0  0  0  0  0  0
    8.5002    4.2930   -1.2652 O   0  0  0  0  0  0  0  0  0  0  0  0
    5.4718    9.6958   -1.1207 C   0  0  1  0  0  0  0  0  0  0  0  0
    6.7306    9.4773   -0.3872 O   0  0  0  0  0  0  0  0  0  0  0  0
   12.1495    3.9013    5.5087 C   0  0  0  0  0  0  0  0  0  0  0  0
   12.3396    2.8030    6.3671 O   0  0  0  0  0  0  0  0  0  0  0  0
    7.0043    3.2106    3.8874 C   0  0  1  0  0  0  0  0  0  0  0  0
    7.6483    2.1161    3.2296 O   0  0  0  0  0  0  0  0  0  0  0  0
    4.9174   11.1590   -0.8373 C   0  0  0  0  0  0  0  0  0  0  0  0
    3.6470   11.5098   -1.5299 N   0  0  0  0  0  0  0  0  0  0  0  0
  1  2  1  6  0  0  0
  1  7  1  0  0  0  0
  1 30  1  0  0  0  0
  3  4  1  6  0  0  0
  3  9  1  0  0  0  0
  3 39  1  0  0  0  0
  5 10  1  0  0  0  0
  5 26  1  0  0  0  0
  5 32  1  1  0  0  0
  6 12  1  0  0  0  0
  6 36  1  0  0  0  0
  6 19  1  1  0  0  0
  7  8  1  6  0  0  0
  7 14  1  0  0  0  0
  9 16  1  0  0  0  0
 10 11  1  1  0  0  0
 10 18  1  0  0  0  0
 12 13  1  6  0  0  0
 12 20  1  0  0  0  0
 14 15  1  1  0  0  0
 14 22  1  0  0  0  0
 16 17  1  6  0  0  0
 16 24  1  0  0  0  0
 18 19  1  1  0  0  0
 18 25  1  0  0  0  0
 20 21  1  1  0  0  0
 20 27  1  0  0  0  0
 22 23  1  6  0  0  0
 22 29  1  0  0  0  0
 24  2  1  1  0  0  0
 24 31  1  0  0  0  0
 25 26  1  0  0  0  0
 25 33  1  1  0  0  0
 27 28  1  1  0  0  0
 27 35  1  0  0  0  0
 29 30  1  0  0  0  0
 29 37  1  1  0  0  0
 31 32  1  6  0  0  0
 31 39  1  0  0  0  0
 33 34  1  0  0  0  0
 35 36  1  0  0  0  0
 35 41  1  6  0  0  0
 37 38  1  0  0  0  0
 39 40  1  1  0  0  0
 41 42  1  0  0  0  0
M  END
>  <CHROM.1>
-164.02057044,-172.80918563,-55.02531952,-164.51218150,62.82836322,-54.32445634
78.10719772,-57.26399505,60.43493614,8.15117602,6.12308569,2.99960038,-1.07515096
-0.76035914,-0.80716241

>  <Name>
2o3w_lig

>  <RI>
0

>  <Rbt.Current_Directory>
/home/itssahil/PROJECTS/Mol_Feturizer/New_Systems/rnas/2o3w

>  <Rbt.Executable>
rbdock ($Id: //depot/dev/client3/rdock/2013.1/src/exe/rbdock.cxx#4 $)

>  <Rbt.Library>
libRbt.so (2013.1, Build901 2013/11/27)

>  <Rbt.Parameter_File>
/export/apps/rDock/src/rDock_2013.1_src/data/scripts/dock_solv.prm

>  <Rbt.Receptor>
prm/pocket_docking_8.prm

>  <SCORE>
-28.4786

>  <SCORE.INTER>
-18.2084

>  <SCORE.INTER.CONST>
1

>  <SCORE.INTER.POLAR>
-4.35523

>  <SCORE.INTER.ROT>
9

>  <SCORE.INTER.SOLV>
20.5829

>  <SCORE.INTER.VDW>
-14.0825

>  <SCORE.INTER.norm>
-0.433533

>  <SCORE.INTRA>
-10.3149

>  <SCORE.INTRA.DIHEDRAL>
-23.7821

>  <SCORE.INTRA.DIHEDRAL.0>
27.8999

>  <SCORE.INTRA.POLAR>
0

>  <SCORE.INTRA.POLAR.0>
0

>  <SCORE.INTRA.REPUL>
0

>  <SCORE.INTRA.REPUL.0>
0

>  <SCORE.INTRA.SOLV>
-3.15586

>  <SCORE.INTRA.SOLV.lig_0>
-104.479

>  <SCORE.INTRA.VDW>
3.15409

>  <SCORE.INTRA.VDW.0>
-6.17816

>  <SCORE.INTRA.norm>
-0.245592

>  <SCORE.RESTR>
0.044675

>  <SCORE.RESTR.CAVITY>
0.044675

>  <SCORE.RESTR.norm>
0.00106369

>  <SCORE.SYSTEM>
0

>  <SCORE.SYSTEM.CONST>
0

>  <SCORE.SYSTEM.DIHEDRAL>
0

>  <SCORE.SYSTEM.SOLV>
0

>  <SCORE.SYSTEM.norm>
0

>  <SCORE.heavy>
42

>  <SCORE.norm>
-0.678061

>  <RMSD>
6.254

$$$$
2o3w_lig
 OpenBabel11021811463D
libRbt.so/2013.1/901 2013/11/27
 42 45  0  0  0  0  0  0  0  0999 V2000
    8.8876    6.3340    7.2926 C   0  0  2  0  0  0  0  0  0  0  0  0
    8.3509    6.5092    5.9703 O   0  0  0  0  0  0  0  0  0  0  0  0
    6.4848    2.6175    5.5595 C   0  0  2  0  0  0  0  0  0  0  0  0
    5.6810    1.4668    5.0494 N   0  0  0  0  0  0  0  0  0  0  0  0
    8.6334    5.8182    2.9535 C   0  0  1  0  0  0  0  0  0  0  0  0
    7.2212    8.0347   -0.3926 C   0  0  1  0  0  0  0  0  0  0  0  0
    9.8368    7.5400    7.5619 C   0  0  2  0  0  0  0  0  0  0  0  0
    9.2041    8.8348    7.2558 N   0  0  0  0  0  0  0  0  0  0  0  0
    5.5578    3.8407    5.9417 C   0  0  0  0  0  0  0  0  0  0  0  0
    9.6831    6.3217    1.9164 C   0  0  2  0  0  0  0  0  0  0  0  0
   10.4099    7.5016    2.3389 O   0  0  0  0  0  0  0  0  0  0  0  0
    7.6225    7.6151   -1.8527 C   0  0  2  0  0  0  0  0  0  0  0  0
    8.8673    8.3175   -2.2864 N   0  0  0  0  0  0  0  0  0  0  0  0
   11.1270    7.4664    6.7246 C   0  0  1  0  0  0  0  0  0  0  0  0
   11.9830    8.5680    7.0322 O   0  0  0  0  0  0  0  0  0  0  0  0
    6.4580    5.0108    6.4923 C   0  0  2  0  0  0  0  0  0  0  0  0
    5.6153    6.1753    6.8761 N   0  0  0  0  0  0  0  0  0  0  0  0
    8.8120    6.4912    0.6707 C   0  0  2  0  0  0  0  0  0  0  0  0
    8.2474    7.8384    0.5882 O   0  0  0  0  0  0  0  0  0  0  0  0
    6.4067    7.9320   -2.8469 C   0  0  1  0  0  0  0  0  0  0  0  0
    5.3580    6.9623   -2.6263 O   0  0  0  0  0  0  0  0  0  0  0  0
   11.8319    6.1150    6.9813 C   0  0  2  0  0  0  0  0  0  0  0  0
   13.0240    6.0389    6.2346 O   0  0  0  0  0  0  0  0  0  0  0  0
    7.5164    5.4569    5.4076 C   0  0  2  0  0  0  0  0  0  0  0  0
    7.7052    5.4288    0.7788 C   0  0  2  0  0  0  0  0  0  0  0  0
    7.5243    5.2959    2.1867 O   0  0  0  0  0  0  0  0  0  0  0  0
    5.8181    9.4103   -2.6582 C   0  0  2  0  0  0  0  0  0  0  0  0
    6.8039   10.3297   -3.1263 O   0  0  0  0  0  0  0  0  0  0  0  0
   10.8607    4.9507    6.5930 C   0  0  2  0  0  0  0  0  0  0  0  0
    9.6283    5.0571    7.3738 O   0  0  0  0  0  0  0  0  0  0  0  0
    8.4235    4.2964    4.9432 C   0  0  2  0  0  0  0  0  0  0  0  0
    9.1933    4.8341    3.8329 O   0  0  0  0  0  0  0  0  0  0  0  0
    8.0463    4.0541    0.1245 C   0  0  0  0  0  0  0  0  0  0  0  0
    9.2313    3.5318    0.7177 O   0  0  0  0  0  0  0  0  0  0  0  0
    5.4891    9.6884   -1.1427 C   0  0  1  0  0  0  0  0  0  0  0  0
    6.7458    9.4723   -0.4049 O   0  0  0  0  0  0  0  0  0  0  0  0
   11.4692    3.5860    6.8193 C   0  0  0  0  0  0  0  0  0  0  0  0
   11.7164    3.3866    8.1898 O   0  0  0  0  0  0  0  0  0  0  0  0
    7.5417    3.0652    4.4718 C   0  0  1  0  0  0  0  0  0  0  0  0
    8.3775    1.9403    4.1861 O   0  0  0  0  0  0  0  0  0  0  0  0
    4.9295   11.1496   -0.8590 C   0  0  0  0  0  0  0  0  0  0  0  0
    3.6491   11.4899   -1.5381 N   0  0  0  0  0  0  0  0  0  0  0  0
  1  2  1  6  0  0  0
  1  7  1  0  0  0  0
  1 30  1  0  0  0  0
  3  4  1  6  0  0  0
  3  9  1  0  0  0  0
  3 39  1  0  0  0  0
  5 10  1  0  0  0  0
  5 26  1  0  0  0  0
  5 32  1  6  0  0  0
  6 12  1  0  0  0  0
  6 36  1  0  0  0  0
  6 19  1  1  0  0  0
  7  8  1  6  0  0  0
  7 14  1  0  0  0  0
  9 16  1  0  0  0  0
 10 11  1  1  0  0  0
 10 18  1  0  0  0  0
 12 13  1  6  0  0  0
 12 20  1  0  0  0  0
 14 15  1  1  0  0  0
 14 22  1  0  0  0  0
 16 17  1  6  0  0  0
 16 24  1  0  0  0  0
 18 19  1  1  0  0  0
 18 25  1  0  0  0  0
 20 21  1  1  0  0  0
 20 27  1  0  0  0  0
 22 23  1  6  0  0  0
 22 29  1  0  0  0  0
 24  2  1  1  0  0  0
 24 31  1  0  0  0  0
 25 26  1  0  0  0  0
 25 33  1  1  0  0  0
 27 28  1  1  0  0  0
 27 35  1  0  0  0  0
 29 30  1  0  0  0  0
 29 37  1  1  0  0  0
 31 32  1  6  0  0  0
 31 39  1  0  0  0  0
 33 34  1  0  0  0  0
 35 36  1  0  0  0  0
 35 41  1  6  0  0  0
 37 38  1  0  0  0  0
 39 40  1  1  0  0  0
 41 42  1  0  0  0  0
M  END
>  <CHROM.1>
174.62214852,175.43159262,-54.33518166,-168.64436636,46.49978400,57.84424182
64.14291214,-32.65551644,61.39478601,8.27519901,6.32450263,3.07567173,-0.96838051
-0.91628216,-0.64366929

>  <Name>
2o3w_lig

>  <RI>
0

>  <Rbt.Current_Directory>
/home/itssahil/PROJECTS/Mol_Feturizer/New_Systems/rnas/2o3w

>  <Rbt.Executable>
rbdock ($Id: //depot/dev/client3/rdock/2013.1/src/exe/rbdock.cxx#4 $)

>  <Rbt.Library>
libRbt.so (2013.1, Build901 2013/11/27)

>  <Rbt.Parameter_File>
/export/apps/rDock/src/rDock_2013.1_src/data/scripts/dock_solv.prm

>  <Rbt.Receptor>
prm/pocket_docking_5.prm

>  <SCORE>
-24.1533

>  <SCORE.INTER>
-15.3094

>  <SCORE.INTER.CONST>
1

>  <SCORE.INTER.POLAR>
-3.99944

>  <SCORE.INTER.ROT>
9

>  <SCORE.INTER.SOLV>
22.9098

>  <SCORE.INTER.VDW>
-14.1114

>  <SCORE.INTER.norm>
-0.364509

>  <SCORE.INTRA>
-9.20573

>  <SCORE.INTRA.DIHEDRAL>
-22.6908

>  <SCORE.INTRA.DIHEDRAL.0>
27.8999

>  <SCORE.INTRA.POLAR>
0

>  <SCORE.INTRA.POLAR.0>
0

>  <SCORE.INTRA.REPUL>
0

>  <SCORE.INTRA.REPUL.0>
0

>  <SCORE.INTRA.SOLV>
-3.77141

>  <SCORE.INTRA.SOLV.lig_0>
-104.479

>  <SCORE.INTRA.VDW>
4.02539

>  <SCORE.INTRA.VDW.0>
-6.17816

>  <SCORE.INTRA.norm>
-0.219184

>  <SCORE.RESTR>
0.361857

>  <SCORE.RESTR.CAVITY>
0.361857

>  <SCORE.RESTR.norm>
0.00861565

>  <SCORE.SYSTEM>
0

>  <SCORE.SYSTEM.CONST>
0

>  <SCORE.SYSTEM.DIHEDRAL>
0

>  <SCORE.SYSTEM.SOLV>
0

>  <SCORE.SYSTEM.norm>
0

>  <SCORE.heavy>
42

>  <SCORE.norm>
-0.575078

>  <RMSD>
6.377

$$$$
2o3w_lig
 OpenBabel11021811463D
libRbt.so/2013.1/901 2013/11/27
 42 45  0  0  0  0  0  0  0  0999 V2000
   11.2328    5.7668    5.2709 C   0  0  2  0  0  0  0  0  0  0  0  0
   10.1778    5.9640    6.2276 O   0  0  0  0  0  0  0  0  0  0  0  0
    9.2026    9.0158    9.1485 C   0  0  2  0  0  0  0  0  0  0  0  0
    8.9453   10.3318    9.8060 N   0  0  0  0  0  0  0  0  0  0  0  0
    6.4061    7.0740    5.7794 C   0  0  1  0  0  0  0  0  0  0  0  0
    2.9682    5.6490    3.5638 C   0  0  1  0  0  0  0  0  0  0  0  0
   10.8287    6.5429    3.9815 C   0  0  2  0  0  0  0  0  0  0  0  0
   10.4228    7.9309    4.2628 N   0  0  0  0  0  0  0  0  0  0  0  0
   10.7133    8.8845    8.6988 C   0  0  0  0  0  0  0  0  0  0  0  0
    6.0692    6.4518    4.3901 C   0  0  2  0  0  0  0  0  0  0  0  0
    5.5857    7.4099    3.4169 O   0  0  0  0  0  0  0  0  0  0  0  0
    3.0475    4.1925    2.9797 C   0  0  2  0  0  0  0  0  0  0  0  0
    4.4675    3.7751    2.7783 N   0  0  0  0  0  0  0  0  0  0  0  0
    9.6533    5.8768    3.2427 C   0  0  1  0  0  0  0  0  0  0  0  0
    9.3435    6.5978    2.0489 O   0  0  0  0  0  0  0  0  0  0  0  0
   10.9272    7.4718    8.0348 C   0  0  2  0  0  0  0  0  0  0  0  0
   12.3442    7.3080    7.6118 N   0  0  0  0  0  0  0  0  0  0  0  0
    5.0799    5.3552    4.7879 C   0  0  2  0  0  0  0  0  0  0  0  0
    3.7013    5.8454    4.7794 O   0  0  0  0  0  0  0  0  0  0  0  0
    2.2284    4.1291    1.6043 C   0  0  1  0  0  0  0  0  0  0  0  0
    0.8143    4.1639    1.9006 O   0  0  0  0  0  0  0  0  0  0  0  0
   10.0052    4.4031    2.9369 C   0  0  2  0  0  0  0  0  0  0  0  0
    8.9455    3.7836    2.2456 O   0  0  0  0  0  0  0  0  0  0  0  0
    9.9770    7.2941    6.7852 C   0  0  2  0  0  0  0  0  0  0  0  0
    5.4991    4.8951    6.1943 C   0  0  2  0  0  0  0  0  0  0  0  0
    6.0556    6.0765    6.7660 O   0  0  0  0  0  0  0  0  0  0  0  0
    2.5964    5.3268    0.6054 C   0  0  2  0  0  0  0  0  0  0  0  0
    3.9288    5.1086    0.1433 O   0  0  0  0  0  0  0  0  0  0  0  0
   10.2983    3.6585    4.2819 C   0  0  2  0  0  0  0  0  0  0  0  0
   11.3943    4.3253    4.9846 O   0  0  0  0  0  0  0  0  0  0  0  0
    8.4836    7.4658    7.1392 C   0  0  2  0  0  0  0  0  0  0  0  0
    7.7851    7.4563    5.8638 O   0  0  0  0  0  0  0  0  0  0  0  0
    6.5252    3.7201    6.2238 C   0  0  0  0  0  0  0  0  0  0  0  0
    6.8723    3.4325    7.5749 O   0  0  0  0  0  0  0  0  0  0  0  0
    2.4954    6.7158    1.3421 C   0  0  1  0  0  0  0  0  0  0  0  0
    3.4044    6.6327    2.4985 O   0  0  0  0  0  0  0  0  0  0  0  0
   10.6592    2.2056    4.0755 C   0  0  0  0  0  0  0  0  0  0  0  0
   10.8112    1.5625    5.3176 O   0  0  0  0  0  0  0  0  0  0  0  0
    8.2533    8.8404    7.8961 C   0  0  1  0  0  0  0  0  0  0  0  0
    6.9021    8.9299    8.3565 O   0  0  0  0  0  0  0  0  0  0  0  0
    2.8778    7.9615    0.4308 C   0  0  0  0  0  0  0  0  0  0  0  0
    4.2429    7.9281   -0.1627 N   0  0  0  0  0  0  0  0  0  0  0  0
  1  2  1  1  0  0  0
  1  7  1  0  0  0  0
  1 30  1  0  0  0  0
  3  4  1  6  0  0  0
  3  9  1  0  0  0  0
  3 39  1  0  0  0  0
  5 10  1  0  0  0  0
  5 26  1  0  0  0  0
  5 32  1  6  0  0  0
  6 12  1  0  0  0  0
  6 36  1  0  0  0  0
  6 19  1  1  0  0  0
  7  8  1  1  0  0  0
  7 14  1  0  0  0  0
  9 16  1  0  0  0  0
 10 11  1  6  0  0  0
 10 18  1  0  0  0  0
 12 13  1  6  0  0  0
 12 20  1  0  0  0  0
 14 15  1  6  0  0  0
 14 22  1  0  0  0  0
 16 17  1  6  0  0  0
 16 24  1  0  0  0  0
 18 19  1  1  0  0  0
 18 25  1  0  0  0  0
 20 21  1  1  0  0  0
 20 27  1  0  0  0  0
 22 23  1  1  0  0  0
 22 29  1  0  0  0  0
 24  2  1  1  0  0  0
 24 31  1  0  0  0  0
 25 26  1  0  0  0  0
 25 33  1  6  0  0  0
 27 28  1  1  0  0  0
 27 35  1  0  0  0  0
 29 30  1  0  0  0  0
 29 37  1  6  0  0  0
 31 32  1  6  0  0  0
 31 39  1  0  0  0  0
 33 34  1  0  0  0  0
 35 36  1  0  0  0  0
 35 41  1  6  0  0  0
 37 38  1  0  0  0  0
 39 40  1  1  0  0  0
 41 42  1  0  0  0  0
M  END
>  <CHROM.1>
-67.97593750,-151.24204665,48.59360705,93.18840049,-86.20981940,177.45260149
-175.50601168,155.39031645,-57.67178996,7.18034795,6.00828673,4.64947926
-0.55782227,0.33318300,-2.31311270

>  <Name>
2o3w_lig

>  <RI>
0

>  <Rbt.Current_Directory>
/home/itssahil/PROJECTS/Mol_Feturizer/New_Systems/rnas/2o3w

>  <Rbt.Executable>
rbdock ($Id: //depot/dev/client3/rdock/2013.1/src/exe/rbdock.cxx#4 $)

>  <Rbt.Library>
libRbt.so (2013.1, Build901 2013/11/27)

>  <Rbt.Parameter_File>
/export/apps/rDock/src/rDock_2013.1_src/data/scripts/dock_solv.prm

>  <Rbt.Receptor>
prm/pocket_docking_8.prm

>  <SCORE>
-15.3141

>  <SCORE.INTER>
-12.7244

>  <SCORE.INTER.CONST>
1

>  <SCORE.INTER.POLAR>
-1.83239

>  <SCORE.INTER.ROT>
9

>  <SCORE.INTER.SOLV>
11.3595

>  <SCORE.INTER.VDW>
-15.7614

>  <SCORE.INTER.norm>
-0.302961

>  <SCORE.INTRA>
-2.58975

>  <SCORE.INTRA.DIHEDRAL>
-13.6991

>  <SCORE.INTRA.DIHEDRAL.0>
27.8999

>  <SCORE.INTRA.POLAR>
0

>  <SCORE.INTRA.POLAR.0>
0

>  <SCORE.INTRA.REPUL>
0

>  <SCORE.INTRA.REPUL.0>
0

>  <SCORE.INTRA.SOLV>
3.28192

>  <SCORE.INTRA.SOLV.lig_0>
-104.479

>  <SCORE.INTRA.VDW>
2.61885

>  <SCORE.INTRA.VDW.0>
-6.17816

>  <SCORE.INTRA.norm>
-0.0616608

>  <SCORE.RESTR>
0

>  <SCORE.RESTR.CAVITY>
0

>  <SCORE.RESTR.norm>
0

>  <SCORE.SYSTEM>
0

>  <SCORE.SYSTEM.CONST>
0

>  <SCORE.SYSTEM.DIHEDRAL>
0

>  <SCORE.SYSTEM.SOLV>
0

>  <SCORE.SYSTEM.norm>
0

>  <SCORE.heavy>
42

>  <SCORE.norm>
-0.364622

>  <RMSD>
6.437

$$$$
2o3w_lig
 OpenBabel11021811463D
libRbt.so/2013.1/901 2013/11/27
 42 45  0  0  0  0  0  0  0  0999 V2000
    8.4090    3.9899    5.6209 C   0  0  2  0  0  0  0  0  0  0  0  0
    7.9226    3.9538    4.2684 O   0  0  0  0  0  0  0  0  0  0  0  0
    6.9518    0.5557    1.7572 C   0  0  2  0  0  0  0  0  0  0  0  0
    6.2871   -0.6544    1.1876 N   0  0  0  0  0  0  0  0  0  0  0  0
    4.8045    4.7002    1.6817 C   0  0  1  0  0  0  0  0  0  0  0  0
    2.6850    7.6397   -0.7847 C   0  0  1  0  0  0  0  0  0  0  0  0
    7.1808    4.2667    6.5390 C   0  0  2  0  0  0  0  0  0  0  0  0
    6.0486    3.3687    6.2520 N   0  0  0  0  0  0  0  0  0  0  0  0
    7.5435    0.2625    3.1945 C   0  0  0  0  0  0  0  0  0  0  0  0
    3.6153    5.5424    2.2362 C   0  0  2  0  0  0  0  0  0  0  0  0
    2.3598    4.8218    2.2952 O   0  0  0  0  0  0  0  0  0  0  0  0
    1.8334    7.3454   -2.0720 C   0  0  2  0  0  0  0  0  0  0  0  0
    2.3636    6.1550   -2.8018 N   0  0  0  0  0  0  0  0  0  0  0  0
    6.6546    5.7064    6.3927 C   0  0  1  0  0  0  0  0  0  0  0  0
    5.5565    5.9271    7.2794 O   0  0  0  0  0  0  0  0  0  0  0  0
    8.2488    1.5651    3.7313 C   0  0  2  0  0  0  0  0  0  0  0  0
    8.8309    1.3205    5.0786 N   0  0  0  0  0  0  0  0  0  0  0  0
    3.6427    6.7492    1.2970 C   0  0  2  0  0  0  0  0  0  0  0  0
    2.7988    6.5351    0.1211 O   0  0  0  0  0  0  0  0  0  0  0  0
    1.8308    8.6427   -3.0121 C   0  0  1  0  0  0  0  0  0  0  0  0
    0.9798    9.6486   -2.4180 O   0  0  0  0  0  0  0  0  0  0  0  0
    7.8041    6.7050    6.6584 C   0  0  2  0  0  0  0  0  0  0  0  0
    7.3346    8.0283    6.5448 O   0  0  0  0  0  0  0  0  0  0  0  0
    7.2222    2.7635    3.8070 C   0  0  2  0  0  0  0  0  0  0  0  0
    5.1153    6.9434    0.8981 C   0  0  2  0  0  0  0  0  0  0  0  0
    5.6346    5.6161    0.9313 O   0  0  0  0  0  0  0  0  0  0  0  0
    3.2966    9.2480   -3.2410 C   0  0  2  0  0  0  0  0  0  0  0  0
    4.0234    8.3232   -4.0491 O   0  0  0  0  0  0  0  0  0  0  0  0
    8.9588    6.4381    5.6361 C   0  0  2  0  0  0  0  0  0  0  0  0
    9.4220    5.0568    5.7668 O   0  0  0  0  0  0  0  0  0  0  0  0
    6.5596    3.0713    2.4463 C   0  0  2  0  0  0  0  0  0  0  0  0
    5.5291    4.0551    2.7371 O   0  0  0  0  0  0  0  0  0  0  0  0
    5.9313    7.8888    1.8333 C   0  0  0  0  0  0  0  0  0  0  0  0
    5.8504    7.4104    3.1725 O   0  0  0  0  0  0  0  0  0  0  0  0
    4.0307    9.4626   -1.8636 C   0  0  1  0  0  0  0  0  0  0  0  0
    4.0497    8.1471   -1.2008 O   0  0  0  0  0  0  0  0  0  0  0  0
   10.1327    7.3701    5.8285 C   0  0  0  0  0  0  0  0  0  0  0  0
   10.6697    7.2135    7.1194 O   0  0  0  0  0  0  0  0  0  0  0  0
    5.9224    1.7535    1.8354 C   0  0  1  0  0  0  0  0  0  0  0  0
    5.4436    2.0049    0.5114 O   0  0  0  0  0  0  0  0  0  0  0  0
    5.5095   10.0310   -1.9995 C   0  0  0  0  0  0  0  0  0  0  0  0
    6.2469   10.2154   -0.7193 N   0  0  0  0  0  0  0  0  0  0  0  0
  1  2  1  6  0  0  0
  1  7  1  0  0  0  0
  1 30  1  0  0  0  0
  3  4  1  1  0  0  0
  3  9  1  0  0  0  0
  3 39  1  0  0  0  0
  5 10  1  0  0  0  0
  5 26  1  0  0  0  0
  5 32  1  1  0  0  0
  6 12  1  0  0  0  0
  6 36  1  0  0  0  0
  6 19  1  6  0  0  0
  7  8  1  6  0  0  0
  7 14  1  0  0  0  0
  9 16  1  0  0  0  0
 10 11  1  6  0  0  0
 10 18  1  0  0  0  0
 12 13  1  6  0  0  0
 12 20  1  0  0  0  0
 14 15  1  1  0  0  0
 14 22  1  0  0  0  0
 16 17  1  1  0  0  0
 16 24  1  0  0  0  0
 18 19  1  6  0  0  0
 18 25  1  0  0  0  0
 20 21  1  1  0  0  0
 20 27  1  0  0  0  0
 22 23  1  6  0  0  0
 22 29  1  0  0  0  0
 24  2  1  6  0  0  0
 24 31  1  0  0  0  0
 25 26  1  0  0  0  0
 25 33  1  1  0  0  0
 27 28  1  6  0  0  0
 27 35  1  0  0  0  0
 29 30  1  0  0  0  0
 29 37  1  1  0  0  0
 31 32  1  1  0  0  0
 31 39  1  0  0  0  0
 33 34  1  0  0  0  0
 35 36  1  0  0  0  0
 35 41  1  6  0  0  0
 37 38  1  0  0  0  0
 39 40  1  6  0  0  0
 41 42  1  0  0  0  0
M  END
>  <CHROM.1>
-77.05585542,171.31904294,176.89472962,176.18460007,-67.98001878,55.88642413
60.13857790,172.50821652,-178.56409347,5.74165342,5.64718741,2.16670595,-0.40457235
-0.99490091,0.04644168

>  <Name>
2o3w_lig

>  <RI>
0

>  <Rbt.Current_Directory>
/home/itssahil/PROJECTS/Mol_Feturizer/New_Systems/rnas/2o3w

>  <Rbt.Executable>
rbdock ($Id: //depot/dev/client3/rdock/2013.1/src/exe/rbdock.cxx#4 $)

>  <Rbt.Library>
libRbt.so (2013.1, Build901 2013/11/27)

>  <Rbt.Parameter_File>
/export/apps/rDock/src/rDock_2013.1_src/data/scripts/dock_solv.prm

>  <Rbt.Receptor>
prm/pocket_docking_8.prm

>  <SCORE>
-14.2377

>  <SCORE.INTER>
-4.78517

>  <SCORE.INTER.CONST>
1

>  <SCORE.INTER.POLAR>
-1.93808

>  <SCORE.INTER.ROT>
9

>  <SCORE.INTER.SOLV>
11.1383

>  <SCORE.INTER.VDW>
-10.0426

>  <SCORE.INTER.norm>
-0.113933

>  <SCORE.INTRA>
-9.45251

>  <SCORE.INTRA.DIHEDRAL>
-25.2706

>  <SCORE.INTRA.DIHEDRAL.0>
27.8999

>  <SCORE.INTRA.POLAR>
0

>  <SCORE.INTRA.POLAR.0>
0

>  <SCORE.INTRA.REPUL>
0

>  <SCORE.INTRA.REPUL.0>
0

>  <SCORE.INTRA.SOLV>
0.594882

>  <SCORE.INTRA.SOLV.lig_0>
-104.479

>  <SCORE.INTRA.VDW>
2.88535

>  <SCORE.INTRA.VDW.0>
-6.17816

>  <SCORE.INTRA.norm>
-0.22506

>  <SCORE.RESTR>
0

>  <SCORE.RESTR.CAVITY>
0

>  <SCORE.RESTR.norm>
0

>  <SCORE.SYSTEM>
0

>  <SCORE.SYSTEM.CONST>
0

>  <SCORE.SYSTEM.DIHEDRAL>
0

>  <SCORE.SYSTEM.SOLV>
0

>  <SCORE.SYSTEM.norm>
0

>  <SCORE.heavy>
42

>  <SCORE.norm>
-0.338992

>  <RMSD>
6.481

$$$$
2o3w_lig
 OpenBabel11021811463D
libRbt.so/2013.1/901 2013/11/27
 42 45  0  0  0  0  0  0  0  0999 V2000
   12.6914    4.1600    5.4406 C   0  0  2  0  0  0  0  0  0  0  0  0
   11.4298    3.7240    5.9750 O   0  0  0  0  0  0  0  0  0  0  0  0
   10.9568    0.1629    3.5478 C   0  0  2  0  0  0  0  0  0  0  0  0
   10.3802   -1.0385    2.8735 N   0  0  0  0  0  0  0  0  0  0  0  0
    9.4640    4.4129    2.3967 C   0  0  1  0  0  0  0  0  0  0  0  0
    7.2763    6.1284   -1.1109 C   0  0  1  0  0  0  0  0  0  0  0  0
   13.7259    4.0933    6.6041 C   0  0  2  0  0  0  0  0  0  0  0  0
   13.7012    2.7987    7.3069 N   0  0  0  0  0  0  0  0  0  0  0  0
   10.9783   -0.0159    5.1193 C   0  0  0  0  0  0  0  0  0  0  0  0
    8.0601    3.9756    1.8785 C   0  0  2  0  0  0  0  0  0  0  0  0
    8.0779    2.7712    1.0735 O   0  0  0  0  0  0  0  0  0  0  0  0
    8.0221    6.4950   -2.4444 C   0  0  2  0  0  0  0  0  0  0  0  0
    9.3726    7.0664   -2.1605 N   0  0  0  0  0  0  0  0  0  0  0  0
   13.4814    5.1808    7.6664 C   0  0  1  0  0  0  0  0  0  0  0  0
   14.4742    5.1074    8.6910 O   0  0  0  0  0  0  0  0  0  0  0  0
   11.6157    1.2695    5.7704 C   0  0  2  0  0  0  0  0  0  0  0  0
   11.6652    1.1293    7.2508 N   0  0  0  0  0  0  0  0  0  0  0  0
    7.5999    5.2453    1.1605 C   0  0  2  0  0  0  0  0  0  0  0  0
    7.9986    5.2418   -0.2473 O   0  0  0  0  0  0  0  0  0  0  0  0
    7.1269    7.5240   -3.2851 C   0  0  1  0  0  0  0  0  0  0  0  0
    6.0068    6.8108   -3.8557 O   0  0  0  0  0  0  0  0  0  0  0  0
   13.4709    6.5701    6.9892 C   0  0  2  0  0  0  0  0  0  0  0  0
   13.2648    7.5784    7.9511 O   0  0  0  0  0  0  0  0  0  0  0  0
   10.7854    2.5579    5.3875 C   0  0  2  0  0  0  0  0  0  0  0  0
    8.2428    6.4186    1.9189 C   0  0  2  0  0  0  0  0  0  0  0  0
    9.4615    5.8589    2.4026 O   0  0  0  0  0  0  0  0  0  0  0  0
    6.5892    8.7472   -2.4008 C   0  0  2  0  0  0  0  0  0  0  0  0
    7.7107    9.5647   -2.0688 O   0  0  0  0  0  0  0  0  0  0  0  0
   12.3425    6.6011    5.9050 C   0  0  2  0  0  0  0  0  0  0  0  0
   12.5732    5.5404    4.9245 O   0  0  0  0  0  0  0  0  0  0  0  0
   10.6735    2.7665    3.8613 C   0  0  2  0  0  0  0  0  0  0  0  0
    9.7389    3.8678    3.6938 O   0  0  0  0  0  0  0  0  0  0  0  0
    7.3862    6.9943    3.0890 C   0  0  0  0  0  0  0  0  0  0  0  0
    7.9528    8.2264    3.5249 O   0  0  0  0  0  0  0  0  0  0  0  0
    5.8911    8.2209   -1.0901 C   0  0  1  0  0  0  0  0  0  0  0  0
    6.8980    7.4049   -0.3896 O   0  0  0  0  0  0  0  0  0  0  0  0
   12.2646    7.9273    5.1846 C   0  0  0  0  0  0  0  0  0  0  0  0
   10.9531    8.1555    4.7295 O   0  0  0  0  0  0  0  0  0  0  0  0
   10.1231    1.4513    3.1663 C   0  0  1  0  0  0  0  0  0  0  0  0
   10.1627    1.5915    1.7435 O   0  0  0  0  0  0  0  0  0  0  0  0
    5.3556    9.3732   -0.1341 C   0  0  0  0  0  0  0  0  0  0  0  0
    6.3467   10.4264    0.2198 N   0  0  0  0  0  0  0  0  0  0  0  0
  1  2  1  1  0  0  0
  1  7  1  0  0  0  0
  1 30  1  0  0  0  0
  3  4  1  6  0  0  0
  3  9  1  0  0  0  0
  3 39  1  0  0  0  0
  5 10  1  0  0  0  0
  5 26  1  0  0  0  0
  5 32  1  1  0  0  0
  6 12  1  0  0  0  0
  6 36  1  0  0  0  0
  6 19  1  1  0  0  0
  7  8  1  1  0  0  0
  7 14  1  0  0  0  0
  9 16  1  0  0  0  0
 10 11  1  6  0  0  0
 10 18  1  0  0  0  0
 12 13  1  1  0  0  0
 12 20  1  0  0  0  0
 14 15  1  1  0  0  0
 14 22  1  0  0  0  0
 16 17  1  1  0  0  0
 16 24  1  0  0  0  0
 18 19  1  6  0  0  0
 18 25  1  0  0  0  0
 20 21  1  1  0  0  0
 20 27  1  0  0  0  0
 22 23  1  1  0  0  0
 22 29  1  0  0  0  0
 24  2  1  1  0  0  0
 24 31  1  0  0  0  0
 25 26  1  0  0  0  0
 25 33  1  1  0  0  0
 27 28  1  1  0  0  0
 27 35  1  0  0  0  0
 29 30  1  0  0  0  0
 29 37  1  6  0  0  0
 31 32  1  1  0  0  0
 31 39  1  0  0  0  0
 33 34  1  0  0  0  0
 35 36  1  0  0  0  0
 35 41  1  1  0  0  0
 37 38  1  0  0  0  0
 39 40  1  6  0  0  0
 41 42  1  0  0  0  0
M  END
>  <CHROM.1>
-120.08119542,105.69383301,158.98681030,160.33760139,70.34863877,-168.21333059
-152.24580243,175.21900722,-51.83063971,9.81126168,5.23285841,2.81504859
-0.34725507,-0.96342092,0.07284893

>  <Name>
2o3w_lig

>  <RI>
0

>  <Rbt.Current_Directory>
/home/itssahil/PROJECTS/Mol_Feturizer/New_Systems/rnas/2o3w

>  <Rbt.Executable>
rbdock ($Id: //depot/dev/client3/rdock/2013.1/src/exe/rbdock.cxx#4 $)

>  <Rbt.Library>
libRbt.so (2013.1, Build901 2013/11/27)

>  <Rbt.Parameter_File>
/export/apps/rDock/src/rDock_2013.1_src/data/scripts/dock_solv.prm

>  <Rbt.Receptor>
prm/pocket_docking_6.prm

>  <SCORE>
-18.4375

>  <SCORE.INTER>
-18.0938

>  <SCORE.INTER.CONST>
1

>  <SCORE.INTER.POLAR>
-3.45183

>  <SCORE.INTER.ROT>
9

>  <SCORE.INTER.SOLV>
19.8887

>  <SCORE.INTER.VDW>
-16.786

>  <SCORE.INTER.norm>
-0.430805

>  <SCORE.INTRA>
-0.343654

>  <SCORE.INTRA.DIHEDRAL>
-6.97701

>  <SCORE.INTRA.DIHEDRAL.0>
27.8999

>  <SCORE.INTRA.POLAR>
0

>  <SCORE.INTRA.POLAR.0>
0

>  <SCORE.INTRA.REPUL>
0.0442831

>  <SCORE.INTRA.REPUL.0>
0

>  <SCORE.INTRA.SOLV>
0.787033

>  <SCORE.INTRA.SOLV.lig_0>
-104.479

>  <SCORE.INTRA.VDW>
2.52992

>  <SCORE.INTRA.VDW.0>
-6.17816

>  <SCORE.INTRA.norm>
-0.00818225

>  <SCORE.RESTR>
0

>  <SCORE.RESTR.CAVITY>
0

>  <SCORE.RESTR.norm>
0

>  <SCORE.SYSTEM>
0

>  <SCORE.SYSTEM.CONST>
0

>  <SCORE.SYSTEM.DIHEDRAL>
0

>  <SCORE.SYSTEM.SOLV>
0

>  <SCORE.SYSTEM.norm>
0

>  <SCORE.heavy>
42

>  <SCORE.norm>
-0.438987

>  <RMSD>
6.537

$$$$
2o3w_lig
 OpenBabel11021811463D
libRbt.so/2013.1/901 2013/11/27
 42 45  0  0  0  0  0  0  0  0999 V2000
    6.2238    4.1044    5.8052 C   0  0  2  0  0  0  0  0  0  0  0  0
    6.1199    4.6041    4.4611 O   0  0  0  0  0  0  0  0  0  0  0  0
    2.8191    6.8081    2.7166 C   0  0  2  0  0  0  0  0  0  0  0  0
    1.8602    7.8954    2.3576 N   0  0  0  0  0  0  0  0  0  0  0  0
    7.2393    7.0936    1.3348 C   0  0  1  0  0  0  0  0  0  0  0  0
    7.7317    8.2910   -1.3679 C   0  0  1  0  0  0  0  0  0  0  0  0
    6.9796    5.1851    6.6353 C   0  0  2  0  0  0  0  0  0  0  0  0
    6.4105    6.5324    6.4577 N   0  0  0  0  0  0  0  0  0  0  0  0
    2.7343    6.4530    4.2556 C   0  0  0  0  0  0  0  0  0  0  0  0
    8.4711    8.0332    1.5095 C   0  0  2  0  0  0  0  0  0  0  0  0
    8.1373    9.4427    1.5414 O   0  0  0  0  0  0  0  0  0  0  0  0
    7.5896    7.5902   -2.7670 C   0  0  2  0  0  0  0  0  0  0  0  0
    8.4659    8.2458   -3.7834 N   0  0  0  0  0  0  0  0  0  0  0  0
    8.4689    5.2778    6.2556 C   0  0  1  0  0  0  0  0  0  0  0  0
    9.1294    6.2506    7.0670 O   0  0  0  0  0  0  0  0  0  0  0  0
    3.7490    5.2887    4.5673 C   0  0  2  0  0  0  0  0  0  0  0  0
    3.6852    4.9183    6.0069 N   0  0  0  0  0  0  0  0  0  0  0  0
    9.3525    7.5876    0.3415 C   0  0  2  0  0  0  0  0  0  0  0  0
    9.0732    8.3609   -0.8688 O   0  0  0  0  0  0  0  0  0  0  0  0
    6.0540    7.6256   -3.2225 C   0  0  1  0  0  0  0  0  0  0  0  0
    5.3095    6.6735   -2.4299 O   0  0  0  0  0  0  0  0  0  0  0  0
    9.1248    3.8854    6.3973 C   0  0  2  0  0  0  0  0  0  0  0  0
   10.4929    3.9567    6.0693 O   0  0  0  0  0  0  0  0  0  0  0  0
    5.2227    5.7199    4.1957 C   0  0  2  0  0  0  0  0  0  0  0  0
    9.0535    6.0939    0.1299 C   0  0  2  0  0  0  0  0  0  0  0  0
    7.6902    5.9794    0.5308 O   0  0  0  0  0  0  0  0  0  0  0  0
    5.3945    9.0784   -3.0742 C   0  0  2  0  0  0  0  0  0  0  0  0
    5.9926    9.9253   -4.0547 O   0  0  0  0  0  0  0  0  0  0  0  0
    8.3835    2.8741    5.4607 C   0  0  2  0  0  0  0  0  0  0  0  0
    6.9649    2.8251    5.8143 O   0  0  0  0  0  0  0  0  0  0  0  0
    5.3697    6.1363    2.7157 C   0  0  2  0  0  0  0  0  0  0  0  0
    6.7176    6.6698    2.6011 O   0  0  0  0  0  0  0  0  0  0  0  0
    9.9613    5.1194    0.9426 C   0  0  0  0  0  0  0  0  0  0  0  0
   11.2869    5.6387    0.9877 O   0  0  0  0  0  0  0  0  0  0  0  0
    5.6427    9.6567   -1.6298 C   0  0  1  0  0  0  0  0  0  0  0  0
    7.1033    9.6669   -1.4386 O   0  0  0  0  0  0  0  0  0  0  0  0
    8.9581    1.4787    5.5408 C   0  0  0  0  0  0  0  0  0  0  0  0
    8.2691    0.6196    4.6654 O   0  0  0  0  0  0  0  0  0  0  0  0
    4.2941    7.2422    2.3472 C   0  0  1  0  0  0  0  0  0  0  0  0
    4.3299    7.5170    0.9440 O   0  0  0  0  0  0  0  0  0  0  0  0
    5.0487   11.1145   -1.4050 C   0  0  0  0  0  0  0  0  0  0  0  0
    3.5668   11.2252   -1.4959 N   0  0  0  0  0  0  0  0  0  0  0  0
  1  2  1  6  0  0  0
  1  7  1  0  0  0  0
  1 30  1  0  0  0  0
  3  4  1  1  0  0  0
  3  9  1  0  0  0  0
  3 39  1  0  0  0  0
  5 10  1  0  0  0  0
  5 26  1  0  0  0  0
  5 32  1  1  0  0  0
  6 12  1  0  0  0  0
  6 36  1  0  0  0  0
  6 19  1  6  0  0  0
  7  8  1  6  0  0  0
  7 14  1  0  0  0  0
  9 16  1  0  0  0  0
 10 11  1  6  0  0  0
 10 18  1  0  0  0  0
 12 13  1  6  0  0  0
 12 20  1  0  0  0  0
 14 15  1  1  0  0  0
 14 22  1  0  0  0  0
 16 17  1  1  0  0  0
 16 24  1  0  0  0  0
 18 19  1  6  0  0  0
 18 25  1  0  0  0  0
 20 21  1  1  0  0  0
 20 27  1  0  0  0  0
 22 23  1  6  0  0  0
 22 29  1  0  0  0  0
 24  2  1  6  0  0  0
 24 31  1  0  0  0  0
 25 26  1  0  0  0  0
 25 33  1  1  0  0  0
 27 28  1  6  0  0  0
 27 35  1  0  0  0  0
 29 30  1  0  0  0  0
 29 37  1  1  0  0  0
 31 32  1  1  0  0  0
 31 39  1  0  0  0  0
 33 34  1  0  0  0  0
 35 36  1  0  0  0  0
 35 41  1  6  0  0  0
 37 38  1  0  0  0  0
 39 40  1  6  0  0  0
 41 42  1  0  0  0  0
M  END
>  <CHROM.1>
-70.77145900,161.40402755,-114.19809063,-59.67284813,-60.96958999,-37.53215128
-179.07294044,176.54934194,64.00702607,6.81497205,6.52975740,1.97174315,1.42811386
-0.32144833,2.09971335

>  <Name>
2o3w_lig

>  <RI>
0

>  <Rbt.Current_Directory>
/home/itssahil/PROJECTS/Mol_Feturizer/New_Systems/rnas/2o3w

>  <Rbt.Executable>
rbdock ($Id: //depot/dev/client3/rdock/2013.1/src/exe/rbdock.cxx#4 $)

>  <Rbt.Library>
libRbt.so (2013.1, Build901 2013/11/27)

>  <Rbt.Parameter_File>
/export/apps/rDock/src/rDock_2013.1_src/data/scripts/dock_solv.prm

>  <Rbt.Receptor>
prm/pocket_docking_6.prm

>  <SCORE>
-21.6443

>  <SCORE.INTER>
-16.9991

>  <SCORE.INTER.CONST>
1

>  <SCORE.INTER.POLAR>
-3.66296

>  <SCORE.INTER.ROT>
9

>  <SCORE.INTER.SOLV>
24.9511

>  <SCORE.INTER.VDW>
-17.0399

>  <SCORE.INTER.norm>
-0.404742

>  <SCORE.INTRA>
-4.64517

>  <SCORE.INTRA.DIHEDRAL>
-16.9808

>  <SCORE.INTRA.DIHEDRAL.0>
27.8999

>  <SCORE.INTRA.POLAR>
0

>  <SCORE.INTRA.POLAR.0>
0

>  <SCORE.INTRA.REPUL>
0

>  <SCORE.INTRA.REPUL.0>
0

>  <SCORE.INTRA.SOLV>
0.0918386

>  <SCORE.INTRA.SOLV.lig_0>
-104.479

>  <SCORE.INTRA.VDW>
3.79932

>  <SCORE.INTRA.VDW.0>
-6.17816

>  <SCORE.INTRA.norm>
-0.110599

>  <SCORE.RESTR>
0

>  <SCORE.RESTR.CAVITY>
0

>  <SCORE.RESTR.norm>
0

>  <SCORE.SYSTEM>
0

>  <SCORE.SYSTEM.CONST>
0

>  <SCORE.SYSTEM.DIHEDRAL>
0

>  <SCORE.SYSTEM.SOLV>
0

>  <SCORE.SYSTEM.norm>
0

>  <SCORE.heavy>
42

>  <SCORE.norm>
-0.515341

>  <RMSD>
6.544

$$$$
2o3w_lig
 OpenBabel11021811463D
libRbt.so/2013.1/901 2013/11/27
 42 45  0  0  0  0  0  0  0  0999 V2000
   10.7482    5.9180    5.0607 C   0  0  2  0  0  0  0  0  0  0  0  0
   10.5542    4.9062    6.0636 O   0  0  0  0  0  0  0  0  0  0  0  0
    9.4557    0.7338    5.6390 C   0  0  2  0  0  0  0  0  0  0  0  0
    8.7123   -0.5206    5.3162 N   0  0  0  0  0  0  0  0  0  0  0  0
    9.1936    3.8793    2.6184 C   0  0  1  0  0  0  0  0  0  0  0  0
    5.5066    5.7607    1.3461 C   0  0  1  0  0  0  0  0  0  0  0  0
   11.8705    6.8654    5.5812 C   0  0  2  0  0  0  0  0  0  0  0  0
   13.0625    6.1297    6.0379 N   0  0  0  0  0  0  0  0  0  0  0  0
    8.6948    1.5868    6.7323 C   0  0  0  0  0  0  0  0  0  0  0  0
    8.4290    5.2259    2.7993 C   0  0  2  0  0  0  0  0  0  0  0  0
    7.3927    5.1838    3.8109 O   0  0  0  0  0  0  0  0  0  0  0  0
    4.1236    5.0194    1.4285 C   0  0  2  0  0  0  0  0  0  0  0  0
    3.8890    4.1907    0.2082 N   0  0  0  0  0  0  0  0  0  0  0  0
   11.4018    7.7314    6.7650 C   0  0  1  0  0  0  0  0  0  0  0  0
   12.4475    8.6105    7.1829 O   0  0  0  0  0  0  0  0  0  0  0  0
    9.5362    2.8815    7.0459 C   0  0  2  0  0  0  0  0  0  0  0  0
    8.8554    3.7022    8.0835 N   0  0  0  0  0  0  0  0  0  0  0  0
    7.9498    5.4896    1.3709 C   0  0  2  0  0  0  0  0  0  0  0  0
    6.6324    4.9012    1.1281 O   0  0  0  0  0  0  0  0  0  0  0  0
    2.9560    6.0989    1.6241 C   0  0  1  0  0  0  0  0  0  0  0  0
    3.0088    6.6041    2.9773 O   0  0  0  0  0  0  0  0  0  0  0  0
   10.1333    8.5160    6.3594 C   0  0  2  0  0  0  0  0  0  0  0  0
    9.7009    9.3268    7.4271 O   0  0  0  0  0  0  0  0  0  0  0  0
    9.7403    3.7436    5.7379 C   0  0  2  0  0  0  0  0  0  0  0  0
    9.0137    4.8747    0.4460 C   0  0  2  0  0  0  0  0  0  0  0  0
    9.5090    3.7782    1.2107 O   0  0  0  0  0  0  0  0  0  0  0  0
    3.0584    7.3201    0.5917 C   0  0  2  0  0  0  0  0  0  0  0  0
    2.7511    6.8137   -0.7065 O   0  0  0  0  0  0  0  0  0  0  0  0
    9.0152    7.5012    5.9476 C   0  0  2  0  0  0  0  0  0  0  0  0
    9.4910    6.6656    4.8452 O   0  0  0  0  0  0  0  0  0  0  0  0
   10.4295    2.9552    4.6026 C   0  0  2  0  0  0  0  0  0  0  0  0
   10.3671    3.8265    3.4401 O   0  0  0  0  0  0  0  0  0  0  0  0
   10.1685    5.8411    0.0374 C   0  0  0  0  0  0  0  0  0  0  0  0
    9.6198    6.9756   -0.6264 O   0  0  0  0  0  0  0  0  0  0  0  0
    4.5066    7.9403    0.6063 C   0  0  1  0  0  0  0  0  0  0  0  0
    5.4276    6.8367    0.2836 O   0  0  0  0  0  0  0  0  0  0  0  0
    7.7348    8.1854    5.5279 C   0  0  0  0  0  0  0  0  0  0  0  0
    6.6643    7.7430    6.3265 O   0  0  0  0  0  0  0  0  0  0  0  0
    9.6567    1.5973    4.3296 C   0  0  1  0  0  0  0  0  0  0  0  0
   10.3785    0.7996    3.3871 O   0  0  0  0  0  0  0  0  0  0  0  0
    4.7074    9.1408   -0.4169 C   0  0  0  0  0  0  0  0  0  0  0  0
    3.8508   10.3355   -0.1813 N   0  0  0  0  0  0  0  0  0  0  0  0
  1  2  1  1  0  0  0
  1  7  1  0  0  0  0
  1 30  1  0  0  0  0
  3  4  1  6  0  0  0
  3  9  1  0  0  0  0
  3 39  1  0  0  0  0
  5 10  1  0  0  0  0
  5 26  1  0  0  0  0
  5 32  1  1  0  0  0
  6 12  1  0  0  0  0
  6 36  1  0  0  0  0
  6 19  1  6  0  0  0
  7  8  1  1  0  0  0
  7 14  1  0  0  0  0
  9 16  1  0  0  0  0
 10 11  1  1  0  0  0
 10 18  1  0  0  0  0
 12 13  1  6  0  0  0
 12 20  1  0  0  0  0
 14 15  1  6  0  0  0
 14 22  1  0  0  0  0
 16 17  1  1  0  0  0
 16 24  1  0  0  0  0
 18 19  1  1  0  0  0
 18 25  1  0  0  0  0
 20 21  1  1  0  0  0
 20 27  1  0  0  0  0
 22 23  1  1  0  0  0
 22 29  1  0  0  0  0
 24  2  1  1  0  0  0
 24 31  1  0  0  0  0
 25 26  1  0  0  0  0
 25 33  1  1  0  0  0
 27 28  1  6  0  0  0
 27 35  1  0  0  0  0
 29 30  1  0  0  0  0
 29 37  1  6  0  0  0
 31 32  1  6  0  0  0
 31 39  1  0  0  0  0
 33 34  1  0  0  0  0
 35 36  1  0  0  0  0
 35 41  1  6  0  0  0
 37 38  1  0  0  0  0
 39 40  1  6  0  0  0
 41 42  1  0  0  0  0
M  END
>  <CHROM.1>
-168.73750903,108.78761628,-165.46834235,93.11194344,-173.10544156,-58.75580020
-122.49621203,-83.18340067,61.97410042,8.10051285,5.54179228,3.51013217,-0.14033775
-0.76822482,0.19683149

>  <Name>
2o3w_lig

>  <RI>
0

>  <Rbt.Current_Directory>
/home/itssahil/PROJECTS/Mol_Feturizer/New_Systems/rnas/2o3w

>  <Rbt.Executable>
rbdock ($Id: //depot/dev/client3/rdock/2013.1/src/exe/rbdock.cxx#4 $)

>  <Rbt.Library>
libRbt.so (2013.1, Build901 2013/11/27)

>  <Rbt.Parameter_File>
/export/apps/rDock/src/rDock_2013.1_src/data/scripts/dock_solv.prm

>  <Rbt.Receptor>
prm/pocket_docking_8.prm

>  <SCORE>
-13.1228

>  <SCORE.INTER>
-9.16002

>  <SCORE.INTER.CONST>
1

>  <SCORE.INTER.POLAR>
-2.03505

>  <SCORE.INTER.ROT>
9

>  <SCORE.INTER.SOLV>
10.4255

>  <SCORE.INTER.VDW>
-12.3984

>  <SCORE.INTER.norm>
-0.218096

>  <SCORE.INTRA>
-3.9628

>  <SCORE.INTRA.DIHEDRAL>
-7.57092

>  <SCORE.INTRA.DIHEDRAL.0>
27.8999

>  <SCORE.INTRA.POLAR>
0

>  <SCORE.INTRA.POLAR.0>
0

>  <SCORE.INTRA.REPUL>
0

>  <SCORE.INTRA.REPUL.0>
0

>  <SCORE.INTRA.SOLV>
-4.99612

>  <SCORE.INTRA.SOLV.lig_0>
-104.479

>  <SCORE.INTRA.VDW>
2.32072

>  <SCORE.INTRA.VDW.0>
-6.17816

>  <SCORE.INTRA.norm>
-0.0943523

>  <SCORE.RESTR>
0

>  <SCORE.RESTR.CAVITY>
0

>  <SCORE.RESTR.norm>
0

>  <SCORE.SYSTEM>
0

>  <SCORE.SYSTEM.CONST>
0

>  <SCORE.SYSTEM.DIHEDRAL>
0

>  <SCORE.SYSTEM.SOLV>
0

>  <SCORE.SYSTEM.norm>
0

>  <SCORE.heavy>
42

>  <SCORE.norm>
-0.312448

>  <RMSD>
6.561

$$$$
2o3w_lig
 OpenBabel11021811463D
libRbt.so/2013.1/901 2013/11/27
 42 45  0  0  0  0  0  0  0  0999 V2000
    8.0351    6.9103    7.6674 C   0  0  2  0  0  0  0  0  0  0  0  0
    8.3945    6.3977    6.3730 O   0  0  0  0  0  0  0  0  0  0  0  0
    6.2734    2.7027    5.5702 C   0  0  2  0  0  0  0  0  0  0  0  0
    5.3925    1.6686    4.9497 N   0  0  0  0  0  0  0  0  0  0  0  0
    8.4915    5.5108    2.9129 C   0  0  1  0  0  0  0  0  0  0  0  0
    7.5021    6.8001   -1.1245 C   0  0  1  0  0  0  0  0  0  0  0  0
    9.0928    7.9931    8.0376 C   0  0  2  0  0  0  0  0  0  0  0  0
    9.2990    8.9726    6.9566 N   0  0  0  0  0  0  0  0  0  0  0  0
    5.4312    3.9352    6.0933 C   0  0  0  0  0  0  0  0  0  0  0  0
    9.5242    6.2940    2.0462 C   0  0  2  0  0  0  0  0  0  0  0  0
    9.6346    7.6980    2.3863 O   0  0  0  0  0  0  0  0  0  0  0  0
    8.5378    6.9627   -2.2949 C   0  0  2  0  0  0  0  0  0  0  0  0
    9.2150    8.2923   -2.2271 N   0  0  0  0  0  0  0  0  0  0  0  0
   10.4703    7.3811    8.3520 C   0  0  1  0  0  0  0  0  0  0  0  0
   11.3958    8.4038    8.7239 O   0  0  0  0  0  0  0  0  0  0  0  0
    6.4097    4.9779    6.7549 C   0  0  2  0  0  0  0  0  0  0  0  0
    5.6478    6.1465    7.2721 N   0  0  0  0  0  0  0  0  0  0  0  0
    9.0170    5.9924    0.6351 C   0  0  2  0  0  0  0  0  0  0  0  0
    8.0478    6.9925    0.1865 O   0  0  0  0  0  0  0  0  0  0  0  0
    7.7860    6.7705   -3.6966 C   0  0  1  0  0  0  0  0  0  0  0  0
    7.4804    5.3692   -3.8746 O   0  0  0  0  0  0  0  0  0  0  0  0
   10.3213    6.3217    9.4677 C   0  0  2  0  0  0  0  0  0  0  0  0
   11.5768    5.7636    9.7789 O   0  0  0  0  0  0  0  0  0  0  0  0
    7.4892    5.4688    5.7111 C   0  0  2  0  0  0  0  0  0  0  0  0
    8.3830    4.5928    0.7020 C   0  0  2  0  0  0  0  0  0  0  0  0
    7.8938    4.5255    2.0394 O   0  0  0  0  0  0  0  0  0  0  0  0
    6.4383    7.6307   -3.8027 C   0  0  2  0  0  0  0  0  0  0  0  0
    6.8098    9.0066   -3.8753 O   0  0  0  0  0  0  0  0  0  0  0  0
    9.3263    5.2125    8.9889 C   0  0  2  0  0  0  0  0  0  0  0  0
    8.0350    5.8174    8.6631 O   0  0  0  0  0  0  0  0  0  0  0  0
    8.3152    4.3087    5.1134 C   0  0  2  0  0  0  0  0  0  0  0  0
    9.1127    4.9120    4.0577 O   0  0  0  0  0  0  0  0  0  0  0  0
    9.3589    3.4131    0.4014 C   0  0  0  0  0  0  0  0  0  0  0  0
    9.8916    3.5660   -0.9108 O   0  0  0  0  0  0  0  0  0  0  0  0
    5.5186    7.3797   -2.5484 C   0  0  1  0  0  0  0  0  0  0  0  0
    6.3305    7.7277   -1.3694 O   0  0  0  0  0  0  0  0  0  0  0  0
    9.1155    4.1336   10.0259 C   0  0  0  0  0  0  0  0  0  0  0  0
    8.2706    3.1304    9.5170 O   0  0  0  0  0  0  0  0  0  0  0  0
    7.3514    3.1956    4.5237 C   0  0  1  0  0  0  0  0  0  0  0  0
    8.1096    2.0562    4.1083 O   0  0  0  0  0  0  0  0  0  0  0  0
    4.1700    8.2224   -2.5551 C   0  0  0  0  0  0  0  0  0  0  0  0
    3.2757    8.0125   -1.3836 N   0  0  0  0  0  0  0  0  0  0  0  0
  1  2  1  6  0  0  0
  1  7  1  0  0  0  0
  1 30  1  0  0  0  0
  3  4  1  6  0  0  0
  3  9  1  0  0  0  0
  3 39  1  0  0  0  0
  5 10  1  0  0  0  0
  5 26  1  0  0  0  0
  5 32  1  1  0  0  0
  6 12  1  0  0  0  0
  6 36  1  0  0  0  0
  6 19  1  1  0  0  0
  7  8  1  6  0  0  0
  7 14  1  0  0  0  0
  9 16  1  0  0  0  0
 10 11  1  1  0  0  0
 10 18  1  0  0  0  0
 12 13  1  6  0  0  0
 12 20  1  0  0  0  0
 14 15  1  1  0  0  0
 14 22  1  0  0  0  0
 16 17  1  6  0  0  0
 16 24  1  0  0  0  0
 18 19  1  1  0  0  0
 18 25  1  0  0  0  0
 20 21  1  1  0  0  0
 20 27  1  0  0  0  0
 22 23  1  6  0  0  0
 22 29  1  0  0  0  0
 24  2  1  1  0  0  0
 24 31  1  0  0  0  0
 25 26  1  0  0  0  0
 25 33  1  1  0  0  0
 27 28  1  1  0  0  0
 27 35  1  0  0  0  0
 29 30  1  0  0  0  0
 29 37  1  1  0  0  0
 31 32  1  6  0  0  0
 31 39  1  0  0  0  0
 33 34  1  0  0  0  0
 35 36  1  0  0  0  0
 35 41  1  6  0  0  0
 37 38  1  0  0  0  0
 39 40  1  1  0  0  0
 41 42  1  0  0  0  0
M  END
>  <CHROM.1>
-173.31676340,170.45670269,-66.81517016,-179.67623687,-12.48285143,-59.74618873
-176.91015260,-63.27755176,-179.91986894,8.03009946,5.86640638,3.29239763
-1.22083034,-1.04823716,-1.12927146

>  <Name>
2o3w_lig

>  <RI>
0

>  <Rbt.Current_Directory>
/home/itssahil/PROJECTS/Mol_Feturizer/New_Systems/rnas/2o3w

>  <Rbt.Executable>
rbdock ($Id: //depot/dev/client3/rdock/2013.1/src/exe/rbdock.cxx#4 $)

>  <Rbt.Library>
libRbt.so (2013.1, Build901 2013/11/27)

>  <Rbt.Parameter_File>
/export/apps/rDock/src/rDock_2013.1_src/data/scripts/dock_solv.prm

>  <Rbt.Receptor>
prm/pocket_docking_7.prm

>  <SCORE>
-26.1177

>  <SCORE.INTER>
-21.0347

>  <SCORE.INTER.CONST>
1

>  <SCORE.INTER.POLAR>
-4.03575

>  <SCORE.INTER.ROT>
9

>  <SCORE.INTER.SOLV>
24.8882

>  <SCORE.INTER.VDW>
-18.4667

>  <SCORE.INTER.norm>
-0.500825

>  <SCORE.INTRA>
-5.083

>  <SCORE.INTRA.DIHEDRAL>
-20.3845

>  <SCORE.INTRA.DIHEDRAL.0>
27.8999

>  <SCORE.INTRA.POLAR>
0

>  <SCORE.INTRA.POLAR.0>
0

>  <SCORE.INTRA.REPUL>
0

>  <SCORE.INTRA.REPUL.0>
0

>  <SCORE.INTRA.SOLV>
-3.50663

>  <SCORE.INTRA.SOLV.lig_0>
-104.479

>  <SCORE.INTRA.VDW>
6.86257

>  <SCORE.INTRA.VDW.0>
-6.17816

>  <SCORE.INTRA.norm>
-0.121024

>  <SCORE.RESTR>
0

>  <SCORE.RESTR.CAVITY>
0

>  <SCORE.RESTR.norm>
0

>  <SCORE.SYSTEM>
0

>  <SCORE.SYSTEM.CONST>
0

>  <SCORE.SYSTEM.DIHEDRAL>
0

>  <SCORE.SYSTEM.SOLV>
0

>  <SCORE.SYSTEM.norm>
0

>  <SCORE.heavy>
42

>  <SCORE.norm>
-0.621849

>  <RMSD>
6.693

$$$$
2o3w_lig
 OpenBabel11021811463D
libRbt.so/2013.1/901 2013/11/27
 42 45  0  0  0  0  0  0  0  0999 V2000
    5.0809    0.9272    3.0485 C   0  0  2  0  0  0  0  0  0  0  0  0
    5.3543    0.5302    1.6939 O   0  0  0  0  0  0  0  0  0  0  0  0
    5.8416    3.0360   -1.8103 C   0  0  2  0  0  0  0  0  0  0  0  0
    5.5795    3.9806   -2.9371 N   0  0  0  0  0  0  0  0  0  0  0  0
    5.9079    4.2996    2.8022 C   0  0  1  0  0  0  0  0  0  0  0  0
    7.2153    7.0383    5.9634 C   0  0  1  0  0  0  0  0  0  0  0  0
    5.7313   -0.1427    3.9762 C   0  0  2  0  0  0  0  0  0  0  0  0
    7.1350   -0.4170    3.6229 N   0  0  0  0  0  0  0  0  0  0  0  0
    5.0002    1.7061   -1.9687 C   0  0  0  0  0  0  0  0  0  0  0  0
    4.9805    5.4229    3.3582 C   0  0  2  0  0  0  0  0  0  0  0  0
    4.8943    6.5914    2.5060 O   0  0  0  0  0  0  0  0  0  0  0  0
    8.0623    8.3616    5.9433 C   0  0  2  0  0  0  0  0  0  0  0  0
    9.1291    8.2963    4.9000 N   0  0  0  0  0  0  0  0  0  0  0  0
    4.9881   -1.4903    3.9245 C   0  0  1  0  0  0  0  0  0  0  0  0
    5.5932   -2.4266    4.8178 O   0  0  0  0  0  0  0  0  0  0  0  0
    5.3352    0.7441   -0.7667 C   0  0  2  0  0  0  0  0  0  0  0  0
    4.5703   -0.5259   -0.8917 N   0  0  0  0  0  0  0  0  0  0  0  0
    5.5916    5.6552    4.7409 C   0  0  2  0  0  0  0  0  0  0  0  0
    6.6311    6.6842    4.7037 O   0  0  0  0  0  0  0  0  0  0  0  0
    8.6920    8.6084    7.3957 C   0  0  1  0  0  0  0  0  0  0  0  0
    7.6436    9.0391    8.2924 O   0  0  0  0  0  0  0  0  0  0  0  0
    3.4963   -1.2698    4.2635 C   0  0  2  0  0  0  0  0  0  0  0  0
    2.8051   -2.4970    4.2368 O   0  0  0  0  0  0  0  0  0  0  0  0
    4.9931    1.4354    0.6120 C   0  0  2  0  0  0  0  0  0  0  0  0
    6.1656    4.2991    5.1847 C   0  0  2  0  0  0  0  0  0  0  0  0
    6.5392    3.6895    3.9513 O   0  0  0  0  0  0  0  0  0  0  0  0
    9.4066    7.3048    7.9935 C   0  0  2  0  0  0  0  0  0  0  0  0
   10.5819    7.0649    7.2205 O   0  0  0  0  0  0  0  0  0  0  0  0
    2.8813   -0.2661    3.2321 C   0  0  2  0  0  0  0  0  0  0  0  0
    3.6211    0.9952    3.2719 O   0  0  0  0  0  0  0  0  0  0  0  0
    5.7381    2.7734    0.8121 C   0  0  2  0  0  0  0  0  0  0  0  0
    5.1720    3.3486    2.0217 O   0  0  0  0  0  0  0  0  0  0  0  0
    5.1750    3.3940    5.9807 C   0  0  0  0  0  0  0  0  0  0  0  0
    4.5379    4.1694    6.9916 O   0  0  0  0  0  0  0  0  0  0  0  0
    8.4431    6.0603    7.9214 C   0  0  1  0  0  0  0  0  0  0  0  0
    8.0715    5.9121    6.5036 O   0  0  0  0  0  0  0  0  0  0  0  0
    1.4194    0.0136    3.4936 C   0  0  0  0  0  0  0  0  0  0  0  0
    0.8983    0.8494    2.4890 O   0  0  0  0  0  0  0  0  0  0  0  0
    5.4958    3.7280   -0.4311 C   0  0  1  0  0  0  0  0  0  0  0  0
    6.3046    4.9020   -0.3168 O   0  0  0  0  0  0  0  0  0  0  0  0
    9.0859    4.7113    8.4650 C   0  0  0  0  0  0  0  0  0  0  0  0
    8.2583    3.4870    8.2840 N   0  0  0  0  0  0  0  0  0  0  0  0
  1  2  1  6  0  0  0
  1  7  1  0  0  0  0
  1 30  1  0  0  0  0
  3  4  1  6  0  0  0
  3  9  1  0  0  0  0
  3 39  1  0  0  0  0
  5 10  1  0  0  0  0
  5 26  1  0  0  0  0
  5 32  1  1  0  0  0
  6 12  1  0  0  0  0
  6 36  1  0  0  0  0
  6 19  1  6  0  0  0
  7  8  1  6  0  0  0
  7 14  1  0  0  0  0
  9 16  1  0  0  0  0
 10 11  1  6  0  0  0
 10 18  1  0  0  0  0
 12 13  1  6  0  0  0
 12 20  1  0  0  0  0
 14 15  1  1  0  0  0
 14 22  1  0  0  0  0
 16 17  1  6  0  0  0
 16 24  1  0  0  0  0
 18 19  1  6  0  0  0
 18 25  1  0  0  0  0
 20 21  1  1  0  0  0
 20 27  1  0  0  0  0
 22 23  1  6  0  0  0
 22 29  1  0  0  0  0
 24  2  1  1  0  0  0
 24 31  1  0  0  0  0
 25 26  1  0  0  0  0
 25 33  1  6  0  0  0
 27 28  1  6  0  0  0
 27 35  1  0  0  0  0
 29 30  1  0  0  0  0
 29 37  1  1  0  0  0
 31 32  1  1  0  0  0
 31 39  1  0  0  0  0
 33 34  1  0  0  0  0
 35 36  1  0  0  0  0
 35 41  1  6  0  0  0
 37 38  1  0  0  0  0
 39 40  1  1  0  0  0
 41 42  1  0  0  0  0
M  END
>  <CHROM.1>
-172.99849267,141.52949790,-166.05240041,176.39182432,-177.49821028,-47.20275462
-176.14903423,156.36687415,-173.94462905,5.88930042,3.33577880,3.72779098
2.85539919,-1.11547452,-1.20830546

>  <Name>
2o3w_lig

>  <RI>
0

>  <Rbt.Current_Directory>
/home/itssahil/PROJECTS/Mol_Feturizer/New_Systems/rnas/2o3w

>  <Rbt.Executable>
rbdock ($Id: //depot/dev/client3/rdock/2013.1/src/exe/rbdock.cxx#4 $)

>  <Rbt.Library>
libRbt.so (2013.1, Build901 2013/11/27)

>  <Rbt.Parameter_File>
/export/apps/rDock/src/rDock_2013.1_src/data/scripts/dock_solv.prm

>  <Rbt.Receptor>
prm/pocket_docking_6.prm

>  <SCORE>
-15.8581

>  <SCORE.INTER>
-6.44233

>  <SCORE.INTER.CONST>
1

>  <SCORE.INTER.POLAR>
-0.487216

>  <SCORE.INTER.ROT>
9

>  <SCORE.INTER.SOLV>
14.4963

>  <SCORE.INTER.VDW>
-17.1029

>  <SCORE.INTER.norm>
-0.153389

>  <SCORE.INTRA>
-9.41604

>  <SCORE.INTRA.DIHEDRAL>
-18.2121

>  <SCORE.INTRA.DIHEDRAL.0>
27.8999

>  <SCORE.INTRA.POLAR>
0

>  <SCORE.INTRA.POLAR.0>
0

>  <SCORE.INTRA.REPUL>
0

>  <SCORE.INTRA.REPUL.0>
0

>  <SCORE.INTRA.SOLV>
-4.53718

>  <SCORE.INTRA.SOLV.lig_0>
-104.479

>  <SCORE.INTRA.VDW>
1.9586

>  <SCORE.INTRA.VDW.0>
-6.17816

>  <SCORE.INTRA.norm>
-0.224191

>  <SCORE.RESTR>
0.000262694

>  <SCORE.RESTR.CAVITY>
0.000262694

>  <SCORE.RESTR.norm>
6.25462e-06

>  <SCORE.SYSTEM>
0

>  <SCORE.SYSTEM.CONST>
0

>  <SCORE.SYSTEM.DIHEDRAL>
0

>  <SCORE.SYSTEM.SOLV>
0

>  <SCORE.SYSTEM.norm>
0

>  <SCORE.heavy>
42

>  <SCORE.norm>
-0.377574

>  <RMSD>
6.701

$$$$
2o3w_lig
 OpenBabel11021811463D
libRbt.so/2013.1/901 2013/11/27
 42 45  0  0  0  0  0  0  0  0999 V2000
    6.3107   -1.1749    3.8923 C   0  0  2  0  0  0  0  0  0  0  0  0
    5.3257   -0.5829    4.7564 O   0  0  0  0  0  0  0  0  0  0  0  0
    3.5271    2.0917    1.8569 C   0  0  2  0  0  0  0  0  0  0  0  0
    2.6261    3.0823    1.1956 N   0  0  0  0  0  0  0  0  0  0  0  0
    6.1655    3.4343    5.4204 C   0  0  1  0  0  0  0  0  0  0  0  0
    8.5337    6.7154    6.9694 C   0  0  1  0  0  0  0  0  0  0  0  0
    7.1261   -2.1837    4.7558 C   0  0  2  0  0  0  0  0  0  0  0  0
    6.2613   -3.0988    5.5209 N   0  0  0  0  0  0  0  0  0  0  0  0
    2.7556    0.7545    2.2013 C   0  0  0  0  0  0  0  0  0  0  0  0
    5.6781    4.2360    6.6657 C   0  0  2  0  0  0  0  0  0  0  0  0
    4.6448    5.2084    6.3730 O   0  0  0  0  0  0  0  0  0  0  0  0
    8.5635    8.2827    6.8619 C   0  0  2  0  0  0  0  0  0  0  0  0
    8.1875    8.7304    5.4875 N   0  0  0  0  0  0  0  0  0  0  0  0
    8.0377   -1.4766    5.7756 C   0  0  1  0  0  0  0  0  0  0  0  0
    8.7939   -2.4362    6.5160 O   0  0  0  0  0  0  0  0  0  0  0  0
    3.7605   -0.2556    2.8740 C   0  0  2  0  0  0  0  0  0  0  0  0
    3.0703   -1.5330    3.1988 N   0  0  0  0  0  0  0  0  0  0  0  0
    6.9978    4.8081    7.1857 C   0  0  2  0  0  0  0  0  0  0  0  0
    7.2875    6.1150    6.5952 O   0  0  0  0  0  0  0  0  0  0  0  0
   10.0220    8.8123    7.2608 C   0  0  1  0  0  0  0  0  0  0  0  0
   10.1873    8.6929    8.6917 O   0  0  0  0  0  0  0  0  0  0  0  0
    8.9596   -0.4789    5.0381 C   0  0  2  0  0  0  0  0  0  0  0  0
    9.8124    0.1649    5.9561 O   0  0  0  0  0  0  0  0  0  0  0  0
    4.3756    0.3643    4.1905 C   0  0  2  0  0  0  0  0  0  0  0  0
    8.0803    3.7788    6.8194 C   0  0  2  0  0  0  0  0  0  0  0  0
    7.5787    3.1992    5.6174 O   0  0  0  0  0  0  0  0  0  0  0  0
   11.1976    8.0168    6.5173 C   0  0  2  0  0  0  0  0  0  0  0  0
   11.1462    8.3655    5.1345 O   0  0  0  0  0  0  0  0  0  0  0  0
    8.0766    0.5657    4.2773 C   0  0  2  0  0  0  0  0  0  0  0  0
    7.1943   -0.1270    3.3384 O   0  0  0  0  0  0  0  0  0  0  0  0
    5.0988    1.7057    3.9396 C   0  0  2  0  0  0  0  0  0  0  0  0
    5.4317    2.2131    5.2611 O   0  0  0  0  0  0  0  0  0  0  0  0
    8.3432    2.6866    7.9021 C   0  0  0  0  0  0  0  0  0  0  0  0
    8.7286    3.3153    9.1207 O   0  0  0  0  0  0  0  0  0  0  0  0
   11.0153    6.4620    6.6948 C   0  0  1  0  0  0  0  0  0  0  0  0
    9.6795    6.1431    6.1615 O   0  0  0  0  0  0  0  0  0  0  0  0
    8.9001    1.5811    3.5194 C   0  0  0  0  0  0  0  0  0  0  0  0
    8.0571    2.4958    2.8621 O   0  0  0  0  0  0  0  0  0  0  0  0
    4.1397    2.7121    3.1762 C   0  0  1  0  0  0  0  0  0  0  0  0
    4.8558    3.8950    2.8107 O   0  0  0  0  0  0  0  0  0  0  0  0
   12.1234    5.5917    5.9577 C   0  0  0  0  0  0  0  0  0  0  0  0
   12.0130    4.1189    6.1451 N   0  0  0  0  0  0  0  0  0  0  0  0
  1  2  1  1  0  0  0
  1  7  1  0  0  0  0
  1 30  1  0  0  0  0
  3  4  1  1  0  0  0
  3  9  1  0  0  0  0
  3 39  1  0  0  0  0
  5 10  1  0  0  0  0
  5 26  1  0  0  0  0
  5 32  1  1  0  0  0
  6 12  1  0  0  0  0
  6 36  1  0  0  0  0
  6 19  1  6  0  0  0
  7  8  1  1  0  0  0
  7 14  1  0  0  0  0
  9 16  1  0  0  0  0
 10 11  1  6  0  0  0
 10 18  1  0  0  0  0
 12 13  1  6  0  0  0
 12 20  1  0  0  0  0
 14 15  1  6  0  0  0
 14 22  1  0  0  0  0
 16 17  1  1  0  0  0
 16 24  1  0  0  0  0
 18 19  1  6  0  0  0
 18 25  1  0  0  0  0
 20 21  1  1  0  0  0
 20 27  1  0  0  0  0
 22 23  1  1  0  0  0
 22 29  1  0  0  0  0
 24  2  1  6  0  0  0
 24 31  1  0  0  0  0
 25 26  1  0  0  0  0
 25 33  1  1  0  0  0
 27 28  1  6  0  0  0
 27 35  1  0  0  0  0
 29 30  1  0  0  0  0
 29 37  1  6  0  0  0
 31 32  1  1  0  0  0
 31 39  1  0  0  0  0
 33 34  1  0  0  0  0
 35 36  1  0  0  0  0
 35 41  1  6  0  0  0
 37 38  1  0  0  0  0
 39 40  1  6  0  0  0
 41 42  1  0  0  0  0
M  END
>  <CHROM.1>
-177.27527151,143.96013017,-154.86339859,-177.29385919,48.38934110,-58.43140905
-179.71708619,177.57933278,177.81533439,7.37541199,2.99284379,5.26813445
-2.16328309,-0.50465398,0.06357711

>  <Name>
2o3w_lig

>  <RI>
0

>  <Rbt.Current_Directory>
/home/itssahil/PROJECTS/Mol_Feturizer/New_Systems/rnas/2o3w

>  <Rbt.Executable>
rbdock ($Id: //depot/dev/client3/rdock/2013.1/src/exe/rbdock.cxx#4 $)

>  <Rbt.Library>
libRbt.so (2013.1, Build901 2013/11/27)

>  <Rbt.Parameter_File>
/export/apps/rDock/src/rDock_2013.1_src/data/scripts/dock_solv.prm

>  <Rbt.Receptor>
prm/pocket_docking_7.prm

>  <SCORE>
-19.3968

>  <SCORE.INTER>
-8.38119

>  <SCORE.INTER.CONST>
1

>  <SCORE.INTER.POLAR>
-0.894427

>  <SCORE.INTER.ROT>
9

>  <SCORE.INTER.SOLV>
10.4416

>  <SCORE.INTER.VDW>
-15.6866

>  <SCORE.INTER.norm>
-0.199552

>  <SCORE.INTRA>
-11.0156

>  <SCORE.INTRA.DIHEDRAL>
-19.6188

>  <SCORE.INTRA.DIHEDRAL.0>
27.8999

>  <SCORE.INTRA.POLAR>
0

>  <SCORE.INTRA.POLAR.0>
0

>  <SCORE.INTRA.REPUL>
0

>  <SCORE.INTRA.REPUL.0>
0

>  <SCORE.INTRA.SOLV>
-3.19767

>  <SCORE.INTRA.SOLV.lig_0>
-104.479

>  <SCORE.INTRA.VDW>
0.392596

>  <SCORE.INTRA.VDW.0>
-6.17816

>  <SCORE.INTRA.norm>
-0.262277

>  <SCORE.RESTR>
0

>  <SCORE.RESTR.CAVITY>
0

>  <SCORE.RESTR.norm>
0

>  <SCORE.SYSTEM>
0

>  <SCORE.SYSTEM.CONST>
0

>  <SCORE.SYSTEM.DIHEDRAL>
0

>  <SCORE.SYSTEM.SOLV>
0

>  <SCORE.SYSTEM.norm>
0

>  <SCORE.heavy>
42

>  <SCORE.norm>
-0.461829

>  <RMSD>
6.701

$$$$
2o3w_lig
 OpenBabel11021811463D
libRbt.so/2013.1/901 2013/11/27
 42 45  0  0  0  0  0  0  0  0999 V2000
    8.4198    7.2771    7.5064 C   0  0  2  0  0  0  0  0  0  0  0  0
    8.7203    6.8471    6.1677 O   0  0  0  0  0  0  0  0  0  0  0  0
    6.8352    2.9568    5.8388 C   0  0  2  0  0  0  0  0  0  0  0  0
    6.0782    1.7765    5.3245 N   0  0  0  0  0  0  0  0  0  0  0  0
    9.3099    5.5427    3.0752 C   0  0  1  0  0  0  0  0  0  0  0  0
    8.2578    6.2957   -0.9886 C   0  0  1  0  0  0  0  0  0  0  0  0
    9.5411    8.2744    7.9264 C   0  0  2  0  0  0  0  0  0  0  0  0
    9.7715    9.3217    6.9162 N   0  0  0  0  0  0  0  0  0  0  0  0
    5.8945    4.2188    5.9939 C   0  0  0  0  0  0  0  0  0  0  0  0
   10.4601    5.7273    2.0390 C   0  0  2  0  0  0  0  0  0  0  0  0
   11.0810    7.0358    2.0746 O   0  0  0  0  0  0  0  0  0  0  0  0
    8.7982    6.7710   -2.3854 C   0  0  2  0  0  0  0  0  0  0  0  0
    9.1553    8.2210   -2.3538 N   0  0  0  0  0  0  0  0  0  0  0  0
   10.8921    7.5721    8.1550 C   0  0  1  0  0  0  0  0  0  0  0  0
   11.8784    8.5160    8.5760 O   0  0  0  0  0  0  0  0  0  0  0  0
    6.7421    5.4207    6.5592 C   0  0  2  0  0  0  0  0  0  0  0  0
    5.8834    6.6234    6.7318 N   0  0  0  0  0  0  0  0  0  0  0  0
    9.7455    5.3686    0.7351 C   0  0  2  0  0  0  0  0  0  0  0  0
    9.1426    6.5464    0.1105 O   0  0  0  0  0  0  0  0  0  0  0  0
    7.6944    6.4745   -3.5081 C   0  0  1  0  0  0  0  0  0  0  0  0
    7.6595    5.0526   -3.7649 O   0  0  0  0  0  0  0  0  0  0  0  0
   10.7156    6.4397    9.1922 C   0  0  2  0  0  0  0  0  0  0  0  0
   11.9476    5.7975    9.4253 O   0  0  0  0  0  0  0  0  0  0  0  0
    7.9420    5.7607    5.5894 C   0  0  2  0  0  0  0  0  0  0  0  0
    8.6769    4.3277    1.1091 C   0  0  2  0  0  0  0  0  0  0  0  0
    8.3269    4.6917    2.4424 O   0  0  0  0  0  0  0  0  0  0  0  0
    6.2320    6.9799   -3.0914 C   0  0  2  0  0  0  0  0  0  0  0  0
    6.2521    8.4068   -3.0945 O   0  0  0  0  0  0  0  0  0  0  0  0
    9.6529    5.4213    8.6604 C   0  0  2  0  0  0  0  0  0  0  0  0
    8.3871    6.1131    8.4173 O   0  0  0  0  0  0  0  0  0  0  0  0
    8.8750    4.5545    5.3452 C   0  0  2  0  0  0  0  0  0  0  0  0
    9.7942    4.9870    4.3048 O   0  0  0  0  0  0  0  0  0  0  0  0
    9.1514    2.8430    1.0389 C   0  0  0  0  0  0  0  0  0  0  0  0
    8.0729    1.9867    1.4028 O   0  0  0  0  0  0  0  0  0  0  0  0
    5.8448    6.4431   -1.6617 C   0  0  1  0  0  0  0  0  0  0  0  0
    6.8982    6.9172   -0.7475 O   0  0  0  0  0  0  0  0  0  0  0  0
    9.4117    4.2785    9.6194 C   0  0  0  0  0  0  0  0  0  0  0  0
    8.2997    4.5566   10.4351 O   0  0  0  0  0  0  0  0  0  0  0  0
    8.0339    3.2982    4.8656 C   0  0  1  0  0  0  0  0  0  0  0  0
    8.8740    2.1433    4.7858 O   0  0  0  0  0  0  0  0  0  0  0  0
    4.4176    6.9260   -1.1533 C   0  0  0  0  0  0  0  0  0  0  0  0
    4.2484    8.3991   -1.0187 N   0  0  0  0  0  0  0  0  0  0  0  0
  1  2  1  6  0  0  0
  1  7  1  0  0  0  0
  1 30  1  0  0  0  0
  3  4  1  6  0  0  0
  3  9  1  0  0  0  0
  3 39  1  0  0  0  0
  5 10  1  0  0  0  0
  5 26  1  0  0  0  0
  5 32  1  1  0  0  0
  6 12  1  0  0  0  0
  6 36  1  0  0  0  0
  6 19  1  1  0  0  0
  7  8  1  6  0  0  0
  7 14  1  0  0  0  0
  9 16  1  0  0  0  0
 10 11  1  6  0  0  0
 10 18  1  0  0  0  0
 12 13  1  1  0  0  0
 12 20  1  0  0  0  0
 14 15  1  1  0  0  0
 14 22  1  0  0  0  0
 16 17  1  6  0  0  0
 16 24  1  0  0  0  0
 18 19  1  1  0  0  0
 18 25  1  0  0  0  0
 20 21  1  1  0  0  0
 20 27  1  0  0  0  0
 22 23  1  6  0  0  0
 22 29  1  0  0  0  0
 24  2  1  1  0  0  0
 24 31  1  0  0  0  0
 25 26  1  0  0  0  0
 25 33  1  1  0  0  0
 27 28  1  1  0  0  0
 27 35  1  0  0  0  0
 29 30  1  0  0  0  0
 29 37  1  1  0  0  0
 31 32  1  6  0  0  0
 31 39  1  0  0  0  0
 33 34  1  0  0  0  0
 35 36  1  0  0  0  0
 35 41  1  1  0  0  0
 37 38  1  0  0  0  0
 39 40  1  1  0  0  0
 41 42  1  0  0  0  0
M  END
>  <CHROM.1>
171.23015166,-171.31088229,-111.39229728,-169.68402608,8.21134797,-179.83496639
95.19303737,-52.21039338,-60.73343797,8.40217761,5.78187899,3.49824292,-1.13829044
-1.06446177,-1.12499607

>  <Name>
2o3w_lig

>  <RI>
0

>  <Rbt.Current_Directory>
/home/itssahil/PROJECTS/Mol_Feturizer/New_Systems/rnas/2o3w

>  <Rbt.Executable>
rbdock ($Id: //depot/dev/client3/rdock/2013.1/src/exe/rbdock.cxx#4 $)

>  <Rbt.Library>
libRbt.so (2013.1, Build901 2013/11/27)

>  <Rbt.Parameter_File>
/export/apps/rDock/src/rDock_2013.1_src/data/scripts/dock_solv.prm

>  <Rbt.Receptor>
prm/pocket_docking_8.prm

>  <SCORE>
-20.7614

>  <SCORE.INTER>
-21.4178

>  <SCORE.INTER.CONST>
1

>  <SCORE.INTER.POLAR>
-4.59845

>  <SCORE.INTER.ROT>
9

>  <SCORE.INTER.SOLV>
23.2124

>  <SCORE.INTER.VDW>
-16.2879

>  <SCORE.INTER.norm>
-0.509949

>  <SCORE.INTRA>
0.656448

>  <SCORE.INTRA.DIHEDRAL>
-9.31697

>  <SCORE.INTRA.DIHEDRAL.0>
27.8999

>  <SCORE.INTRA.POLAR>
0

>  <SCORE.INTRA.POLAR.0>
0

>  <SCORE.INTRA.REPUL>
0

>  <SCORE.INTRA.REPUL.0>
0

>  <SCORE.INTRA.SOLV>
-2.24482

>  <SCORE.INTRA.SOLV.lig_0>
-104.479

>  <SCORE.INTRA.VDW>
6.43735

>  <SCORE.INTRA.VDW.0>
-6.17816

>  <SCORE.INTRA.norm>
0.0156297

>  <SCORE.RESTR>
0

>  <SCORE.RESTR.CAVITY>
0

>  <SCORE.RESTR.norm>
0

>  <SCORE.SYSTEM>
0

>  <SCORE.SYSTEM.CONST>
0

>  <SCORE.SYSTEM.DIHEDRAL>
0

>  <SCORE.SYSTEM.SOLV>
0

>  <SCORE.SYSTEM.norm>
0

>  <SCORE.heavy>
42

>  <SCORE.norm>
-0.494319

>  <RMSD>
6.726

$$$$
2o3w_lig
 OpenBabel11021811463D
libRbt.so/2013.1/901 2013/11/27
 42 45  0  0  0  0  0  0  0  0999 V2000
    9.1995    5.7099    7.2118 C   0  0  2  0  0  0  0  0  0  0  0  0
    7.8568    5.2316    7.4005 O   0  0  0  0  0  0  0  0  0  0  0  0
    7.9987    1.8960    4.6347 C   0  0  2  0  0  0  0  0  0  0  0  0
    7.6594    0.6539    3.8782 N   0  0  0  0  0  0  0  0  0  0  0  0
    5.1821    5.3939    4.1069 C   0  0  1  0  0  0  0  0  0  0  0  0
    2.9313    7.2777    0.8701 C   0  0  1  0  0  0  0  0  0  0  0  0
    9.3236    7.0435    8.0082 C   0  0  2  0  0  0  0  0  0  0  0  0
    8.8391    6.9198    9.3940 N   0  0  0  0  0  0  0  0  0  0  0  0
    8.2280    1.5889    6.1693 C   0  0  0  0  0  0  0  0  0  0  0  0
    3.9639    6.3235    4.3943 C   0  0  2  0  0  0  0  0  0  0  0  0
    2.7434    5.6127    4.7169 O   0  0  0  0  0  0  0  0  0  0  0  0
    1.9943    6.5961   -0.1912 C   0  0  2  0  0  0  0  0  0  0  0  0
    2.4484    5.2045   -0.4882 N   0  0  0  0  0  0  0  0  0  0  0  0
    8.5251    8.1886    7.3584 C   0  0  1  0  0  0  0  0  0  0  0  0
    8.6993    9.3985    8.0978 O   0  0  0  0  0  0  0  0  0  0  0  0
    8.6033    2.9293    6.9074 C   0  0  2  0  0  0  0  0  0  0  0  0
    8.8407    2.6745    8.3539 N   0  0  0  0  0  0  0  0  0  0  0  0
    3.9233    7.1633    3.1166 C   0  0  2  0  0  0  0  0  0  0  0  0
    3.0734    6.5492    2.0960 O   0  0  0  0  0  0  0  0  0  0  0  0
    1.9657    7.4884   -1.5216 C   0  0  1  0  0  0  0  0  0  0  0  0
    1.1786    8.6746   -1.2718 O   0  0  0  0  0  0  0  0  0  0  0  0
    8.9693    8.3570    5.8876 C   0  0  2  0  0  0  0  0  0  0  0  0
    8.2592    9.4129    5.2831 O   0  0  0  0  0  0  0  0  0  0  0  0
    7.4527    3.9987    6.7394 C   0  0  2  0  0  0  0  0  0  0  0  0
    5.3798    7.2749    2.6355 C   0  0  2  0  0  0  0  0  0  0  0  0
    5.9592    6.0501    3.0790 O   0  0  0  0  0  0  0  0  0  0  0  0
    3.4292    7.9112   -2.0186 C   0  0  2  0  0  0  0  0  0  0  0  0
    4.0810    6.7328   -2.4908 O   0  0  0  0  0  0  0  0  0  0  0  0
    8.7214    7.0144    5.1224 C   0  0  2  0  0  0  0  0  0  0  0  0
    9.4605    5.9332    5.7739 O   0  0  0  0  0  0  0  0  0  0  0  0
    7.1339    4.3080    5.2602 C   0  0  2  0  0  0  0  0  0  0  0  0
    5.9500    5.1518    5.2930 O   0  0  0  0  0  0  0  0  0  0  0  0
    6.1652    8.5019    3.1939 C   0  0  0  0  0  0  0  0  0  0  0  0
    5.4943    9.7008    2.8174 O   0  0  0  0  0  0  0  0  0  0  0  0
    4.2524    8.5544   -0.8393 C   0  0  1  0  0  0  0  0  0  0  0  0
    4.2798    7.5486    0.2368 O   0  0  0  0  0  0  0  0  0  0  0  0
    9.1355    7.0873    3.6709 C   0  0  0  0  0  0  0  0  0  0  0  0
    8.9103    5.8504    3.0397 O   0  0  0  0  0  0  0  0  0  0  0  0
    6.8449    2.9645    4.4684 C   0  0  1  0  0  0  0  0  0  0  0  0
    6.6995    3.2363    3.0718 O   0  0  0  0  0  0  0  0  0  0  0  0
    5.7337    8.9741   -1.2371 C   0  0  0  0  0  0  0  0  0  0  0  0
    6.4659    9.7831   -0.2242 N   0  0  0  0  0  0  0  0  0  0  0  0
  1  2  1  6  0  0  0
  1  7  1  0  0  0  0
  1 30  1  0  0  0  0
  3  4  1  6  0  0  0
  3  9  1  0  0  0  0
  3 39  1  0  0  0  0
  5 10  1  0  0  0  0
  5 26  1  0  0  0  0
  5 32  1  1  0  0  0
  6 12  1  0  0  0  0
  6 36  1  0  0  0  0
  6 19  1  1  0  0  0
  7  8  1  1  0  0  0
  7 14  1  0  0  0  0
  9 16  1  0  0  0  0
 10 11  1  6  0  0  0
 10 18  1  0  0  0  0
 12 13  1  6  0  0  0
 12 20  1  0  0  0  0
 14 15  1  1  0  0  0
 14 22  1  0  0  0  0
 16 17  1  1  0  0  0
 16 24  1  0  0  0  0
 18 19  1  6  0  0  0
 18 25  1  0  0  0  0
 20 21  1  1  0  0  0
 20 27  1  0  0  0  0
 22 23  1  6  0  0  0
 22 29  1  0  0  0  0
 24  2  1  1  0  0  0
 24 31  1  0  0  0  0
 25 26  1  0  0  0  0
 25 33  1  1  0  0  0
 27 28  1  1  0  0  0
 27 35  1  0  0  0  0
 29 30  1  0  0  0  0
 29 37  1  6  0  0  0
 31 32  1  1  0  0  0
 31 39  1  0  0  0  0
 33 34  1  0  0  0  0
 35 36  1  0  0  0  0
 35 41  1  6  0  0  0
 37 38  1  0  0  0  0
 39 40  1  6  0  0  0
 41 42  1  0  0  0  0
M  END
>  <CHROM.1>
178.88687649,179.91236599,-179.12571062,178.10183500,44.04988695,-58.93670896
179.08269485,-165.75241067,170.38073211,6.22608152,6.28778344,3.60171803
-0.41168886,-0.91863675,-0.17632167

>  <Name>
2o3w_lig

>  <RI>
0

>  <Rbt.Current_Directory>
/home/itssahil/PROJECTS/Mol_Feturizer/New_Systems/rnas/2o3w

>  <Rbt.Executable>
rbdock ($Id: //depot/dev/client3/rdock/2013.1/src/exe/rbdock.cxx#4 $)

>  <Rbt.Library>
libRbt.so (2013.1, Build901 2013/11/27)

>  <Rbt.Parameter_File>
/export/apps/rDock/src/rDock_2013.1_src/data/scripts/dock_solv.prm

>  <Rbt.Receptor>
prm/pocket_docking_7.prm

>  <SCORE>
-20.5645

>  <SCORE.INTER>
-8.48945

>  <SCORE.INTER.CONST>
1

>  <SCORE.INTER.POLAR>
-1.94765

>  <SCORE.INTER.ROT>
9

>  <SCORE.INTER.SOLV>
14.9263

>  <SCORE.INTER.VDW>
-13.7429

>  <SCORE.INTER.norm>
-0.20213

>  <SCORE.INTRA>
-12.075

>  <SCORE.INTRA.DIHEDRAL>
-25.2632

>  <SCORE.INTRA.DIHEDRAL.0>
27.8999

>  <SCORE.INTRA.POLAR>
0

>  <SCORE.INTRA.POLAR.0>
0

>  <SCORE.INTRA.REPUL>
0

>  <SCORE.INTRA.REPUL.0>
0

>  <SCORE.INTRA.SOLV>
-1.44758

>  <SCORE.INTRA.SOLV.lig_0>
-104.479

>  <SCORE.INTRA.VDW>
1.28037

>  <SCORE.INTRA.VDW.0>
-6.17816

>  <SCORE.INTRA.norm>
-0.287501

>  <SCORE.RESTR>
0

>  <SCORE.RESTR.CAVITY>
0

>  <SCORE.RESTR.norm>
0

>  <SCORE.SYSTEM>
0

>  <SCORE.SYSTEM.CONST>
0

>  <SCORE.SYSTEM.DIHEDRAL>
0

>  <SCORE.SYSTEM.SOLV>
0

>  <SCORE.SYSTEM.norm>
0

>  <SCORE.heavy>
42

>  <SCORE.norm>
-0.489631

>  <RMSD>
6.742

$$$$
2o3w_lig
 OpenBabel11021811463D
libRbt.so/2013.1/901 2013/11/27
 42 45  0  0  0  0  0  0  0  0999 V2000
   10.2882    4.9733    7.3114 C   0  0  2  0  0  0  0  0  0  0  0  0
    9.0815    4.3724    6.8112 O   0  0  0  0  0  0  0  0  0  0  0  0
   10.5811    0.3342    6.3208 C   0  0  2  0  0  0  0  0  0  0  0  0
   10.7234   -1.0959    5.9147 N   0  0  0  0  0  0  0  0  0  0  0  0
    8.9019    3.0882    3.3209 C   0  0  1  0  0  0  0  0  0  0  0  0
    6.0399    2.6856    0.0996 C   0  0  1  0  0  0  0  0  0  0  0  0
    9.8697    6.2626    8.0799 C   0  0  2  0  0  0  0  0  0  0  0  0
    8.7866    6.0156    9.0477 N   0  0  0  0  0  0  0  0  0  0  0  0
    9.3231    0.5427    7.2567 C   0  0  0  0  0  0  0  0  0  0  0  0
    7.7601    4.1366    3.1537 C   0  0  2  0  0  0  0  0  0  0  0  0
    6.6541    3.9548    4.0717 O   0  0  0  0  0  0  0  0  0  0  0  0
    5.3935    3.8885   -0.6777 C   0  0  2  0  0  0  0  0  0  0  0  0
    4.1890    4.4022    0.0407 N   0  0  0  0  0  0  0  0  0  0  0  0
    9.3760    7.3726    7.1338 C   0  0  1  0  0  0  0  0  0  0  0  0
    9.0416    8.5465    7.8760 O   0  0  0  0  0  0  0  0  0  0  0  0
    9.2395    2.0613    7.6684 C   0  0  2  0  0  0  0  0  0  0  0  0
    8.0731    2.2914    8.5629 N   0  0  0  0  0  0  0  0  0  0  0  0
    7.4232    3.9748    1.6706 C   0  0  2  0  0  0  0  0  0  0  0  0
    6.3807    2.9695    1.4622 O   0  0  0  0  0  0  0  0  0  0  0  0
    5.0208    3.4188   -2.1634 C   0  0  1  0  0  0  0  0  0  0  0  0
    6.2376    3.2957   -2.9335 O   0  0  0  0  0  0  0  0  0  0  0  0
   10.4610    7.6658    6.0726 C   0  0  2  0  0  0  0  0  0  0  0  0
   10.0311    8.6919    5.2084 O   0  0  0  0  0  0  0  0  0  0  0  0
    9.1154    2.9793    6.3887 C   0  0  2  0  0  0  0  0  0  0  0  0
    8.7355    3.5683    0.9791 C   0  0  2  0  0  0  0  0  0  0  0  0
    9.4209    2.8391    1.9944 O   0  0  0  0  0  0  0  0  0  0  0  0
    4.2236    2.0292   -2.1948 C   0  0  2  0  0  0  0  0  0  0  0  0
    2.9272    2.2636   -1.6463 O   0  0  0  0  0  0  0  0  0  0  0  0
   10.7578    6.3552    5.2703 C   0  0  2  0  0  0  0  0  0  0  0  0
   11.1926    5.3036    6.1895 O   0  0  0  0  0  0  0  0  0  0  0  0
   10.2849    2.7874    5.3983 C   0  0  2  0  0  0  0  0  0  0  0  0
    9.9169    3.5549    4.2193 O   0  0  0  0  0  0  0  0  0  0  0  0
    9.6019    4.7577    0.4603 C   0  0  0  0  0  0  0  0  0  0  0  0
   10.5758    4.2659   -0.4553 O   0  0  0  0  0  0  0  0  0  0  0  0
    4.9819    0.9342   -1.3534 C   0  0  1  0  0  0  0  0  0  0  0  0
    5.1207    1.4859    0.0056 O   0  0  0  0  0  0  0  0  0  0  0  0
   11.8172    6.5496    4.2102 C   0  0  0  0  0  0  0  0  0  0  0  0
   12.8825    7.3118    4.7234 O   0  0  0  0  0  0  0  0  0  0  0  0
   10.4538    1.2517    5.0392 C   0  0  1  0  0  0  0  0  0  0  0  0
   11.6269    1.0570    4.2445 O   0  0  0  0  0  0  0  0  0  0  0  0
    4.2409   -0.4718   -1.3027 C   0  0  0  0  0  0  0  0  0  0  0  0
    4.8939   -1.5120   -0.4611 N   0  0  0  0  0  0  0  0  0  0  0  0
  1  2  1  6  0  0  0
  1  7  1  0  0  0  0
  1 30  1  0  0  0  0
  3  4  1  6  0  0  0
  3  9  1  0  0  0  0
  3 39  1  0  0  0  0
  5 10  1  0  0  0  0
  5 26  1  0  0  0  0
  5 32  1  1  0  0  0
  6 12  1  0  0  0  0
  6 36  1  0  0  0  0
  6 19  1  1  0  0  0
  7  8  1  1  0  0  0
  7 14  1  0  0  0  0
  9 16  1  0  0  0  0
 10 11  1  1  0  0  0
 10 18  1  0  0  0  0
 12 13  1  1  0  0  0
 12 20  1  0  0  0  0
 14 15  1  1  0  0  0
 14 22  1  0  0  0  0
 16 17  1  1  0  0  0
 16 24  1  0  0  0  0
 18 19  1  1  0  0  0
 18 25  1  0  0  0  0
 20 21  1  6  0  0  0
 20 27  1  0  0  0  0
 22 23  1  6  0  0  0
 22 29  1  0  0  0  0
 24  2  1  1  0  0  0
 24 31  1  0  0  0  0
 25 26  1  0  0  0  0
 25 33  1  1  0  0  0
 27 28  1  1  0  0  0
 27 35  1  0  0  0  0
 29 30  1  0  0  0  0
 29 37  1  6  0  0  0
 31 32  1  6  0  0  0
 31 39  1  0  0  0  0
 33 34  1  0  0  0  0
 35 36  1  0  0  0  0
 35 41  1  1  0  0  0
 37 38  1  0  0  0  0
 39 40  1  6  0  0  0
 41 42  1  0  0  0  0
M  END
>  <CHROM.1>
-162.69441164,123.34443343,-64.89817865,-176.70075297,71.72685023,-164.42864674
43.39131548,-73.90884058,-177.10342136,8.38581300,3.62842220,3.38075678,-0.05600465
1.03438968,2.81436184

>  <Name>
2o3w_lig

>  <RI>
0

>  <Rbt.Current_Directory>
/home/itssahil/PROJECTS/Mol_Feturizer/New_Systems/rnas/2o3w

>  <Rbt.Executable>
rbdock ($Id: //depot/dev/client3/rdock/2013.1/src/exe/rbdock.cxx#4 $)

>  <Rbt.Library>
libRbt.so (2013.1, Build901 2013/11/27)

>  <Rbt.Parameter_File>
/export/apps/rDock/src/rDock_2013.1_src/data/scripts/dock_solv.prm

>  <Rbt.Receptor>
prm/pocket_docking_8.prm

>  <SCORE>
-19.1752

>  <SCORE.INTER>
-11.8855

>  <SCORE.INTER.CONST>
1

>  <SCORE.INTER.POLAR>
-1.66037

>  <SCORE.INTER.ROT>
9

>  <SCORE.INTER.SOLV>
15.4206

>  <SCORE.INTER.VDW>
-17.1293

>  <SCORE.INTER.norm>
-0.282989

>  <SCORE.INTRA>
-7.28963

>  <SCORE.INTRA.DIHEDRAL>
-15.7381

>  <SCORE.INTRA.DIHEDRAL.0>
27.8999

>  <SCORE.INTRA.POLAR>
0

>  <SCORE.INTRA.POLAR.0>
0

>  <SCORE.INTRA.REPUL>
0

>  <SCORE.INTRA.REPUL.0>
0

>  <SCORE.INTRA.SOLV>
-4.30289

>  <SCORE.INTRA.SOLV.lig_0>
-104.479

>  <SCORE.INTRA.VDW>
2.73089

>  <SCORE.INTRA.VDW.0>
-6.17816

>  <SCORE.INTRA.norm>
-0.173563

>  <SCORE.RESTR>
0

>  <SCORE.RESTR.CAVITY>
0

>  <SCORE.RESTR.norm>
0

>  <SCORE.SYSTEM>
0

>  <SCORE.SYSTEM.CONST>
0

>  <SCORE.SYSTEM.DIHEDRAL>
0

>  <SCORE.SYSTEM.SOLV>
0

>  <SCORE.SYSTEM.norm>
0

>  <SCORE.heavy>
42

>  <SCORE.norm>
-0.456552

>  <RMSD>
6.749

$$$$
2o3w_lig
 OpenBabel11021811463D
libRbt.so/2013.1/901 2013/11/27
 42 45  0  0  0  0  0  0  0  0999 V2000
   10.8739    5.8438    6.9986 C   0  0  2  0  0  0  0  0  0  0  0  0
   10.8978    5.4181    5.6255 O   0  0  0  0  0  0  0  0  0  0  0  0
   10.8077    1.4759    3.8234 C   0  0  2  0  0  0  0  0  0  0  0  0
   10.3811    0.1070    3.4057 N   0  0  0  0  0  0  0  0  0  0  0  0
    8.7828    5.5278    2.2767 C   0  0  1  0  0  0  0  0  0  0  0  0
    6.7392    7.1822   -1.3363 C   0  0  1  0  0  0  0  0  0  0  0  0
   10.1216    7.2078    7.0391 C   0  0  2  0  0  0  0  0  0  0  0  0
    8.8347    7.1634    6.3232 N   0  0  0  0  0  0  0  0  0  0  0  0
   11.0011    1.5636    5.3908 C   0  0  0  0  0  0  0  0  0  0  0  0
    7.5367    4.9142    1.5686 C   0  0  2  0  0  0  0  0  0  0  0  0
    7.8443    3.7997    0.6955 O   0  0  0  0  0  0  0  0  0  0  0  0
    7.5405    7.7086   -2.5812 C   0  0  2  0  0  0  0  0  0  0  0  0
    8.7924    8.4028   -2.1550 N   0  0  0  0  0  0  0  0  0  0  0  0
   10.9428    8.3470    6.4075 C   0  0  1  0  0  0  0  0  0  0  0  0
   10.2331    9.5832    6.5021 O   0  0  0  0  0  0  0  0  0  0  0  0
   11.4713    3.0197    5.7664 C   0  0  2  0  0  0  0  0  0  0  0  0
   11.6774    3.1342    7.2354 N   0  0  0  0  0  0  0  0  0  0  0  0
    6.9463    6.1481    0.8844 C   0  0  2  0  0  0  0  0  0  0  0  0
    7.4870    6.3264   -0.4634 O   0  0  0  0  0  0  0  0  0  0  0  0
    6.6038    8.6858   -3.4382 C   0  0  1  0  0  0  0  0  0  0  0  0
    5.6182    7.8933   -4.1379 O   0  0  0  0  0  0  0  0  0  0  0  0
   12.3220    8.4335    7.0998 C   0  0  2  0  0  0  0  0  0  0  0  0
   13.0800    9.4829    6.5441 O   0  0  0  0  0  0  0  0  0  0  0  0
   10.4064    4.0876    5.2956 C   0  0  2  0  0  0  0  0  0  0  0  0
    7.2962    7.3426    1.7877 C   0  0  2  0  0  0  0  0  0  0  0  0
    8.5340    6.9489    2.3755 O   0  0  0  0  0  0  0  0  0  0  0  0
    5.8656    9.7871   -2.5385 C   0  0  2  0  0  0  0  0  0  0  0  0
    6.8594   10.6980   -2.0706 O   0  0  0  0  0  0  0  0  0  0  0  0
   13.0644    7.0659    6.9317 C   0  0  2  0  0  0  0  0  0  0  0  0
   12.2542    5.9925    7.5071 O   0  0  0  0  0  0  0  0  0  0  0  0
   10.1236    4.0229    3.7787 C   0  0  2  0  0  0  0  0  0  0  0  0
    9.0069    4.9282    3.5594 O   0  0  0  0  0  0  0  0  0  0  0  0
    6.2349    7.6729    2.8826 C   0  0  0  0  0  0  0  0  0  0  0  0
    6.0154    6.5190    3.6883 O   0  0  0  0  0  0  0  0  0  0  0  0
    5.1312    9.1087   -1.3208 C   0  0  1  0  0  0  0  0  0  0  0  0
    6.1656    8.3636   -0.5826 O   0  0  0  0  0  0  0  0  0  0  0  0
   14.4259    7.0589    7.5874 C   0  0  0  0  0  0  0  0  0  0  0  0
   15.2640    8.0085    6.9748 O   0  0  0  0  0  0  0  0  0  0  0  0
    9.7396    2.5435    3.3546 C   0  0  1  0  0  0  0  0  0  0  0  0
    9.6262    2.4519    1.9318 O   0  0  0  0  0  0  0  0  0  0  0  0
    4.3976   10.1355   -0.3533 C   0  0  0  0  0  0  0  0  0  0  0  0
    3.6398    9.5263    0.7742 N   0  0  0  0  0  0  0  0  0  0  0  0
  1  2  1  6  0  0  0
  1  7  1  0  0  0  0
  1 30  1  0  0  0  0
  3  4  1  1  0  0  0
  3  9  1  0  0  0  0
  3 39  1  0  0  0  0
  5 10  1  0  0  0  0
  5 26  1  0  0  0  0
  5 32  1  1  0  0  0
  6 12  1  0  0  0  0
  6 36  1  0  0  0  0
  6 19  1  1  0  0  0
  7  8  1  6  0  0  0
  7 14  1  0  0  0  0
  9 16  1  0  0  0  0
 10 11  1  6  0  0  0
 10 18  1  0  0  0  0
 12 13  1  1  0  0  0
 12 20  1  0  0  0  0
 14 15  1  1  0  0  0
 14 22  1  0  0  0  0
 16 17  1  1  0  0  0
 16 24  1  0  0  0  0
 18 19  1  6  0  0  0
 18 25  1  0  0  0  0
 20 21  1  1  0  0  0
 20 27  1  0  0  0  0
 22 23  1  6  0  0  0
 22 29  1  0  0  0  0
 24  2  1  6  0  0  0
 24 31  1  0  0  0  0
 25 26  1  0  0  0  0
 25 33  1  1  0  0  0
 27 28  1  1  0  0  0
 27 35  1  0  0  0  0
 29 30  1  0  0  0  0
 29 37  1  1  0  0  0
 31 32  1  1  0  0  0
 31 39  1  0  0  0  0
 33 34  1  0  0  0  0
 35 36  1  0  0  0  0
 35 41  1  1  0  0  0
 37 38  1  0  0  0  0
 39 40  1  6  0  0  0
 41 42  1  0  0  0  0
M  END
>  <CHROM.1>
-126.80382700,108.13714744,161.86764363,161.95193749,-74.01234805,56.58046729
-63.01691227,155.86060567,177.30120078,9.06808614,6.44745732,2.87956542,-0.18075609
-0.95116096,0.11623270

>  <Name>
2o3w_lig

>  <RI>
0

>  <Rbt.Current_Directory>
/home/itssahil/PROJECTS/Mol_Feturizer/New_Systems/rnas/2o3w

>  <Rbt.Executable>
rbdock ($Id: //depot/dev/client3/rdock/2013.1/src/exe/rbdock.cxx#4 $)

>  <Rbt.Library>
libRbt.so (2013.1, Build901 2013/11/27)

>  <Rbt.Parameter_File>
/export/apps/rDock/src/rDock_2013.1_src/data/scripts/dock_solv.prm

>  <Rbt.Receptor>
prm/pocket_docking_7.prm

>  <SCORE>
-16.0882

>  <SCORE.INTER>
-14.0213

>  <SCORE.INTER.CONST>
1

>  <SCORE.INTER.POLAR>
-2.92272

>  <SCORE.INTER.ROT>
9

>  <SCORE.INTER.SOLV>
15.9856

>  <SCORE.INTER.VDW>
-14.5337

>  <SCORE.INTER.norm>
-0.333841

>  <SCORE.INTRA>
-2.06684

>  <SCORE.INTRA.DIHEDRAL>
-7.75659

>  <SCORE.INTRA.DIHEDRAL.0>
27.8999

>  <SCORE.INTRA.POLAR>
0

>  <SCORE.INTRA.POLAR.0>
0

>  <SCORE.INTRA.REPUL>
0.00211095

>  <SCORE.INTRA.REPUL.0>
0

>  <SCORE.INTRA.SOLV>
-0.596665

>  <SCORE.INTRA.SOLV.lig_0>
-104.479

>  <SCORE.INTRA.VDW>
2.09923

>  <SCORE.INTRA.VDW.0>
-6.17816

>  <SCORE.INTRA.norm>
-0.0492104

>  <SCORE.RESTR>
0

>  <SCORE.RESTR.CAVITY>
0

>  <SCORE.RESTR.norm>
0

>  <SCORE.SYSTEM>
0

>  <SCORE.SYSTEM.CONST>
0

>  <SCORE.SYSTEM.DIHEDRAL>
0

>  <SCORE.SYSTEM.SOLV>
0

>  <SCORE.SYSTEM.norm>
0

>  <SCORE.heavy>
42

>  <SCORE.norm>
-0.383051

>  <RMSD>
6.757

$$$$
2o3w_lig
 OpenBabel11021811463D
libRbt.so/2013.1/901 2013/11/27
 42 45  0  0  0  0  0  0  0  0999 V2000
    6.8213   -1.4241    3.1097 C   0  0  2  0  0  0  0  0  0  0  0  0
    6.5816   -1.3543    1.6937 O   0  0  0  0  0  0  0  0  0  0  0  0
    5.4049    2.0593   -0.7060 C   0  0  2  0  0  0  0  0  0  0  0  0
    4.6327    3.1998   -1.2835 N   0  0  0  0  0  0  0  0  0  0  0  0
    7.0167    2.1806    3.7017 C   0  0  1  0  0  0  0  0  0  0  0  0
    9.2920    4.4117    6.6020 C   0  0  1  0  0  0  0  0  0  0  0  0
    7.7261   -2.6684    3.3572 C   0  0  2  0  0  0  0  0  0  0  0  0
    8.9026   -2.6953    2.4707 N   0  0  0  0  0  0  0  0  0  0  0  0
    4.6882    0.6783   -0.9908 C   0  0  0  0  0  0  0  0  0  0  0  0
    6.4522    2.3649    5.1433 C   0  0  2  0  0  0  0  0  0  0  0  0
    5.4278    3.3840    5.2492 O   0  0  0  0  0  0  0  0  0  0  0  0
    9.2792    4.3908    8.1731 C   0  0  2  0  0  0  0  0  0  0  0  0
    8.1958    5.2681    8.7094 N   0  0  0  0  0  0  0  0  0  0  0  0
    6.9721   -3.9925    3.1358 C   0  0  1  0  0  0  0  0  0  0  0  0
    7.8266   -5.1037    3.4117 O   0  0  0  0  0  0  0  0  0  0  0  0
    5.5586   -0.4840   -0.3792 C   0  0  2  0  0  0  0  0  0  0  0  0
    4.9199   -1.8019   -0.6418 N   0  0  0  0  0  0  0  0  0  0  0  0
    7.7349    2.6309    5.9328 C   0  0  2  0  0  0  0  0  0  0  0  0
    8.0449    4.0596    5.9902 O   0  0  0  0  0  0  0  0  0  0  0  0
   10.7140    4.8487    8.7196 C   0  0  1  0  0  0  0  0  0  0  0  0
   11.6609    3.7792    8.4993 O   0  0  0  0  0  0  0  0  0  0  0  0
    5.7066   -4.0198    4.0229 C   0  0  2  0  0  0  0  0  0  0  0  0
    5.0137   -5.2332    3.8442 O   0  0  0  0  0  0  0  0  0  0  0  0
    5.7404   -0.2838    1.1773 C   0  0  2  0  0  0  0  0  0  0  0  0
    8.8462    1.8480    5.2133 C   0  0  2  0  0  0  0  0  0  0  0  0
    8.4187    1.8603    3.8534 O   0  0  0  0  0  0  0  0  0  0  0  0
   11.2469    6.1888    8.0213 C   0  0  2  0  0  0  0  0  0  0  0  0
   10.4244    7.2651    8.4703 O   0  0  0  0  0  0  0  0  0  0  0  0
    4.7957   -2.8028    3.6504 C   0  0  2  0  0  0  0  0  0  0  0  0
    5.5398   -1.5569    3.8347 O   0  0  0  0  0  0  0  0  0  0  0  0
    6.3852    1.0732    1.5353 C   0  0  2  0  0  0  0  0  0  0  0  0
    6.3048    1.1639    2.9844 O   0  0  0  0  0  0  0  0  0  0  0  0
    9.0580    0.3883    5.7219 C   0  0  0  0  0  0  0  0  0  0  0  0
    7.8321   -0.3292    5.6163 O   0  0  0  0  0  0  0  0  0  0  0  0
   11.1742    6.0648    6.4524 C   0  0  1  0  0  0  0  0  0  0  0  0
    9.7673    5.7697    6.1300 O   0  0  0  0  0  0  0  0  0  0  0  0
    3.5324   -2.7473    4.4779 C   0  0  0  0  0  0  0  0  0  0  0  0
    2.7078   -3.8470    4.1781 O   0  0  0  0  0  0  0  0  0  0  0  0
    5.5835    2.2591    0.8524 C   0  0  1  0  0  0  0  0  0  0  0  0
    6.2661    3.4990    1.0581 O   0  0  0  0  0  0  0  0  0  0  0  0
   11.6543    7.3673    5.6768 C   0  0  0  0  0  0  0  0  0  0  0  0
   10.8154    8.5806    5.8786 N   0  0  0  0  0  0  0  0  0  0  0  0
  1  2  1  6  0  0  0
  1  7  1  0  0  0  0
  1 30  1  0  0  0  0
  3  4  1  1  0  0  0
  3  9  1  0  0  0  0
  3 39  1  0  0  0  0
  5 10  1  0  0  0  0
  5 26  1  0  0  0  0
  5 32  1  1  0  0  0
  6 12  1  0  0  0  0
  6 36  1  0  0  0  0
  6 19  1  6  0  0  0
  7  8  1  6  0  0  0
  7 14  1  0  0  0  0
  9 16  1  0  0  0  0
 10 11  1  6  0  0  0
 10 18  1  0  0  0  0
 12 13  1  1  0  0  0
 12 20  1  0  0  0  0
 14 15  1  1  0  0  0
 14 22  1  0  0  0  0
 16 17  1  1  0  0  0
 16 24  1  0  0  0  0
 18 19  1  6  0  0  0
 18 25  1  0  0  0  0
 20 21  1  6  0  0  0
 20 27  1  0  0  0  0
 22 23  1  6  0  0  0
 22 29  1  0  0  0  0
 24  2  1  6  0  0  0
 24 31  1  0  0  0  0
 25 26  1  0  0  0  0
 25 33  1  1  0  0  0
 27 28  1  1  0  0  0
 27 35  1  0  0  0  0
 29 30  1  0  0  0  0
 29 37  1  1  0  0  0
 31 32  1  1  0  0  0
 31 39  1  0  0  0  0
 33 34  1  0  0  0  0
 35 36  1  0  0  0  0
 35 41  1  6  0  0  0
 37 38  1  0  0  0  0
 39 40  1  6  0  0  0
 41 42  1  0  0  0  0
M  END
>  <CHROM.1>
179.20543511,162.36934705,-78.75192793,-174.49714916,-176.35324672,56.67839827
-66.27418118,168.78588049,-64.95778930,7.38783463,1.32238768,4.13314087,-2.64794611
-1.04028740,-0.46248978

>  <Name>
2o3w_lig

>  <RI>
0

>  <Rbt.Current_Directory>
/home/itssahil/PROJECTS/Mol_Feturizer/New_Systems/rnas/2o3w

>  <Rbt.Executable>
rbdock ($Id: //depot/dev/client3/rdock/2013.1/src/exe/rbdock.cxx#4 $)

>  <Rbt.Library>
libRbt.so (2013.1, Build901 2013/11/27)

>  <Rbt.Parameter_File>
/export/apps/rDock/src/rDock_2013.1_src/data/scripts/dock_solv.prm

>  <Rbt.Receptor>
prm/pocket_docking_5.prm

>  <SCORE>
-17.0116

>  <SCORE.INTER>
-5.81321

>  <SCORE.INTER.CONST>
1

>  <SCORE.INTER.POLAR>
-1.71905

>  <SCORE.INTER.ROT>
9

>  <SCORE.INTER.SOLV>
8.35555

>  <SCORE.INTER.VDW>
-10.5305

>  <SCORE.INTER.norm>
-0.13841

>  <SCORE.INTRA>
-11.1984

>  <SCORE.INTRA.DIHEDRAL>
-23.6619

>  <SCORE.INTRA.DIHEDRAL.0>
27.8999

>  <SCORE.INTRA.POLAR>
0

>  <SCORE.INTRA.POLAR.0>
0

>  <SCORE.INTRA.REPUL>
0

>  <SCORE.INTRA.REPUL.0>
0

>  <SCORE.INTRA.SOLV>
-3.14622

>  <SCORE.INTRA.SOLV.lig_0>
-104.479

>  <SCORE.INTRA.VDW>
2.20564

>  <SCORE.INTRA.VDW.0>
-6.17816

>  <SCORE.INTRA.norm>
-0.266629

>  <SCORE.RESTR>
0

>  <SCORE.RESTR.CAVITY>
0

>  <SCORE.RESTR.norm>
0

>  <SCORE.SYSTEM>
0

>  <SCORE.SYSTEM.CONST>
0

>  <SCORE.SYSTEM.DIHEDRAL>
0

>  <SCORE.SYSTEM.SOLV>
0

>  <SCORE.SYSTEM.norm>
0

>  <SCORE.heavy>
42

>  <SCORE.norm>
-0.405038

>  <RMSD>
6.880

$$$$
2o3w_lig
 OpenBabel11021811463D
libRbt.so/2013.1/901 2013/11/27
 42 45  0  0  0  0  0  0  0  0999 V2000
   10.1105   -1.7974    4.8457 C   0  0  2  0  0  0  0  0  0  0  0  0
    9.2565   -1.8337    3.6895 O   0  0  0  0  0  0  0  0  0  0  0  0
    6.9451    1.0076    1.3699 C   0  0  2  0  0  0  0  0  0  0  0  0
    6.1039    2.1754    0.9710 N   0  0  0  0  0  0  0  0  0  0  0  0
   10.0669    1.9138    4.2752 C   0  0  1  0  0  0  0  0  0  0  0  0
    9.8491    4.5485    7.6318 C   0  0  1  0  0  0  0  0  0  0  0  0
   11.0044   -3.0726    4.7913 C   0  0  2  0  0  0  0  0  0  0  0  0
   11.6506   -3.2526    3.4796 N   0  0  0  0  0  0  0  0  0  0  0  0
    6.1581    0.0384    2.3411 C   0  0  0  0  0  0  0  0  0  0  0  0
    9.1194    1.5361    5.4544 C   0  0  2  0  0  0  0  0  0  0  0  0
    7.7212    1.8187    5.2006 O   0  0  0  0  0  0  0  0  0  0  0  0
    9.4977    4.3216    9.1464 C   0  0  2  0  0  0  0  0  0  0  0  0
    8.0224    4.3933    9.3683 N   0  0  0  0  0  0  0  0  0  0  0  0
   10.2058   -4.3585    5.0739 C   0  0  1  0  0  0  0  0  0  0  0  0
   11.0704   -5.4956    5.0531 O   0  0  0  0  0  0  0  0  0  0  0  0
    7.0862   -1.1810    2.7073 C   0  0  2  0  0  0  0  0  0  0  0  0
    6.3710   -2.1227    3.6103 N   0  0  0  0  0  0  0  0  0  0  0  0
    9.7540    2.3160    6.6069 C   0  0  2  0  0  0  0  0  0  0  0  0
    9.1854    3.6589    6.7253 O   0  0  0  0  0  0  0  0  0  0  0  0
   10.2671    5.4092   10.0363 C   0  0  1  0  0  0  0  0  0  0  0  0
   11.6694    5.0632   10.0880 O   0  0  0  0  0  0  0  0  0  0  0  0
    9.4794   -4.2264    6.4319 C   0  0  2  0  0  0  0  0  0  0  0  0
    8.7569   -5.4026    6.7132 O   0  0  0  0  0  0  0  0  0  0  0  0
    8.4126   -0.6816    3.4052 C   0  0  2  0  0  0  0  0  0  0  0  0
   11.2604    2.3735    6.3017 C   0  0  2  0  0  0  0  0  0  0  0  0
   11.2995    2.3721    4.8766 O   0  0  0  0  0  0  0  0  0  0  0  0
   10.1035    6.9009    9.4745 C   0  0  2  0  0  0  0  0  0  0  0  0
    8.7455    7.2906    9.6757 O   0  0  0  0  0  0  0  0  0  0  0  0
    8.5230   -2.9886    6.3810 C   0  0  2  0  0  0  0  0  0  0  0  0
    9.2942   -1.7831    6.0783 O   0  0  0  0  0  0  0  0  0  0  0  0
    9.2081    0.3160    2.5351 C   0  0  2  0  0  0  0  0  0  0  0  0
   10.2763    0.8037    3.3927 O   0  0  0  0  0  0  0  0  0  0  0  0
   12.0961    1.1934    6.8874 C   0  0  0  0  0  0  0  0  0  0  0  0
   13.4585    1.3439    6.4999 O   0  0  0  0  0  0  0  0  0  0  0  0
   10.4667    6.9609    7.9427 C   0  0  1  0  0  0  0  0  0  0  0  0
    9.5786    5.9946    7.2734 O   0  0  0  0  0  0  0  0  0  0  0  0
    7.7731   -2.7795    7.6763 C   0  0  0  0  0  0  0  0  0  0  0  0
    8.6545   -2.8796    8.7683 O   0  0  0  0  0  0  0  0  0  0  0  0
    8.2709    1.5086    2.0712 C   0  0  1  0  0  0  0  0  0  0  0  0
    8.9641    2.3492    1.1446 O   0  0  0  0  0  0  0  0  0  0  0  0
   10.2990    8.4027    7.2933 C   0  0  0  0  0  0  0  0  0  0  0  0
   10.6363    8.4986    5.8464 N   0  0  0  0  0  0  0  0  0  0  0  0
  1  2  1  6  0  0  0
  1  7  1  0  0  0  0
  1 30  1  0  0  0  0
  3  4  1  1  0  0  0
  3  9  1  0  0  0  0
  3 39  1  0  0  0  0
  5 10  1  0  0  0  0
  5 26  1  0  0  0  0
  5 32  1  6  0  0  0
  6 12  1  0  0  0  0
  6 36  1  0  0  0  0
  6 19  1  6  0  0  0
  7  8  1  6  0  0  0
  7 14  1  0  0  0  0
  9 16  1  0  0  0  0
 10 11  1  6  0  0  0
 10 18  1  0  0  0  0
 12 13  1  6  0  0  0
 12 20  1  0  0  0  0
 14 15  1  1  0  0  0
 14 22  1  0  0  0  0
 16 17  1  1  0  0  0
 16 24  1  0  0  0  0
 18 19  1  6  0  0  0
 18 25  1  0  0  0  0
 20 21  1  6  0  0  0
 20 27  1  0  0  0  0
 22 23  1  6  0  0  0
 22 29  1  0  0  0  0
 24  2  1  6  0  0  0
 24 31  1  0  0  0  0
 25 26  1  0  0  0  0
 25 33  1  1  0  0  0
 27 28  1  6  0  0  0
 27 35  1  0  0  0  0
 29 30  1  0  0  0  0
 29 37  1  1  0  0  0
 31 32  1  1  0  0  0
 31 39  1  0  0  0  0
 33 34  1  0  0  0  0
 35 36  1  0  0  0  0
 35 41  1  6  0  0  0
 37 38  1  0  0  0  0
 39 40  1  6  0  0  0
 41 42  1  0  0  0  0
M  END
>  <CHROM.1>
-173.27020254,70.15462126,-79.31315038,-170.51326370,-148.38712979,178.20481512
46.45522436,-86.02859479,179.87432267,9.46326471,1.19764364,5.71479458,-1.84869926
-1.19985614,0.11635304

>  <Name>
2o3w_lig

>  <RI>
0

>  <Rbt.Current_Directory>
/home/itssahil/PROJECTS/Mol_Feturizer/New_Systems/rnas/2o3w

>  <Rbt.Executable>
rbdock ($Id: //depot/dev/client3/rdock/2013.1/src/exe/rbdock.cxx#4 $)

>  <Rbt.Library>
libRbt.so (2013.1, Build901 2013/11/27)

>  <Rbt.Parameter_File>
/export/apps/rDock/src/rDock_2013.1_src/data/scripts/dock_solv.prm

>  <Rbt.Receptor>
prm/pocket_docking_7.prm

>  <SCORE>
-18.243

>  <SCORE.INTER>
-9.17794

>  <SCORE.INTER.CONST>
1

>  <SCORE.INTER.POLAR>
-2.07727

>  <SCORE.INTER.ROT>
9

>  <SCORE.INTER.SOLV>
13.6098

>  <SCORE.INTER.VDW>
-13.331

>  <SCORE.INTER.norm>
-0.218522

>  <SCORE.INTRA>
-9.06507

>  <SCORE.INTRA.DIHEDRAL>
-17.5754

>  <SCORE.INTRA.DIHEDRAL.0>
27.8999

>  <SCORE.INTRA.POLAR>
0

>  <SCORE.INTRA.POLAR.0>
0

>  <SCORE.INTRA.REPUL>
0

>  <SCORE.INTRA.REPUL.0>
0

>  <SCORE.INTRA.SOLV>
-4.08265

>  <SCORE.INTRA.SOLV.lig_0>
-104.479

>  <SCORE.INTRA.VDW>
1.76396

>  <SCORE.INTRA.VDW.0>
-6.17816

>  <SCORE.INTRA.norm>
-0.215835

>  <SCORE.RESTR>
0

>  <SCORE.RESTR.CAVITY>
0

>  <SCORE.RESTR.norm>
0

>  <SCORE.SYSTEM>
0

>  <SCORE.SYSTEM.CONST>
0

>  <SCORE.SYSTEM.DIHEDRAL>
0

>  <SCORE.SYSTEM.SOLV>
0

>  <SCORE.SYSTEM.norm>
0

>  <SCORE.heavy>
42

>  <SCORE.norm>
-0.434357

>  <RMSD>
6.913

$$$$
2o3w_lig
 OpenBabel11021811463D
libRbt.so/2013.1/901 2013/11/27
 42 45  0  0  0  0  0  0  0  0999 V2000
    7.6390    1.2306    4.3886 C   0  0  2  0  0  0  0  0  0  0  0  0
    6.7737    1.1631    3.2423 O   0  0  0  0  0  0  0  0  0  0  0  0
    3.2699    3.5296    2.2839 C   0  0  2  0  0  0  0  0  0  0  0  0
    1.9121    4.1504    2.3243 N   0  0  0  0  0  0  0  0  0  0  0  0
    6.9464    4.3871    5.3354 C   0  0  1  0  0  0  0  0  0  0  0  0
    9.8049    6.9923    7.4744 C   0  0  1  0  0  0  0  0  0  0  0  0
    9.1024    1.1489    3.8596 C   0  0  2  0  0  0  0  0  0  0  0  0
    9.3592    2.0983    2.7626 N   0  0  0  0  0  0  0  0  0  0  0  0
    3.1794    1.9643    2.0754 C   0  0  0  0  0  0  0  0  0  0  0  0
    6.8065    4.7650    6.8415 C   0  0  2  0  0  0  0  0  0  0  0  0
    5.8356    5.8090    7.0994 O   0  0  0  0  0  0  0  0  0  0  0  0
   10.2053    8.4295    6.9815 C   0  0  2  0  0  0  0  0  0  0  0  0
   10.1924    8.5047    5.4898 N   0  0  0  0  0  0  0  0  0  0  0  0
    9.4536   -0.2523    3.3264 C   0  0  1  0  0  0  0  0  0  0  0  0
   10.8132   -0.2919    2.8896 O   0  0  0  0  0  0  0  0  0  0  0  0
    4.6383    1.3719    2.0188 C   0  0  2  0  0  0  0  0  0  0  0  0
    4.5911   -0.1002    1.8085 N   0  0  0  0  0  0  0  0  0  0  0  0
    8.2546    5.1045    7.1982 C   0  0  2  0  0  0  0  0  0  0  0  0
    8.5434    6.5226    6.9829 O   0  0  0  0  0  0  0  0  0  0  0  0
   11.6498    8.8050    7.5642 C   0  0  1  0  0  0  0  0  0  0  0  0
   11.5245    9.0901    8.9755 O   0  0  0  0  0  0  0  0  0  0  0  0
    9.1829   -1.3049    4.4254 C   0  0  2  0  0  0  0  0  0  0  0  0
    9.5153   -2.5918    3.9585 O   0  0  0  0  0  0  0  0  0  0  0  0
    5.4215    1.6920    3.3529 C   0  0  2  0  0  0  0  0  0  0  0  0
    9.1323    4.2147    6.3020 C   0  0  2  0  0  0  0  0  0  0  0  0
    8.3398    4.0616    5.1269 O   0  0  0  0  0  0  0  0  0  0  0  0
   12.7300    7.6417    7.3462 C   0  0  2  0  0  0  0  0  0  0  0  0
   13.0072    7.5675    5.9483 O   0  0  0  0  0  0  0  0  0  0  0  0
    7.6740   -1.2382    4.8358 C   0  0  2  0  0  0  0  0  0  0  0  0
    7.3516    0.1085    5.3073 O   0  0  0  0  0  0  0  0  0  0  0  0
    5.5013    3.2051    3.6522 C   0  0  2  0  0  0  0  0  0  0  0  0
    6.0793    3.3013    4.9830 O   0  0  0  0  0  0  0  0  0  0  0  0
    9.5037    2.8280    6.9131 C   0  0  0  0  0  0  0  0  0  0  0  0
    8.3099    2.1135    7.2183 O   0  0  0  0  0  0  0  0  0  0  0  0
   12.1738    6.2622    7.8657 C   0  0  1  0  0  0  0  0  0  0  0  0
   10.9184    6.0248    7.1322 O   0  0  0  0  0  0  0  0  0  0  0  0
    7.3205   -2.2344    5.9157 C   0  0  0  0  0  0  0  0  0  0  0  0
    8.0546   -1.9631    7.0848 O   0  0  0  0  0  0  0  0  0  0  0  0
    4.0517    3.8480    3.6210 C   0  0  1  0  0  0  0  0  0  0  0  0
    4.1398    5.2700    3.7472 O   0  0  0  0  0  0  0  0  0  0  0  0
   13.1715    5.0417    7.6570 C   0  0  0  0  0  0  0  0  0  0  0  0
   13.5056    4.7200    6.2423 N   0  0  0  0  0  0  0  0  0  0  0  0
  1  2  1  6  0  0  0
  1  7  1  0  0  0  0
  1 30  1  0  0  0  0
  3  4  1  1  0  0  0
  3  9  1  0  0  0  0
  3 39  1  0  0  0  0
  5 10  1  0  0  0  0
  5 26  1  0  0  0  0
  5 32  1  1  0  0  0
  6 12  1  0  0  0  0
  6 36  1  0  0  0  0
  6 19  1  6  0  0  0
  7  8  1  6  0  0  0
  7 14  1  0  0  0  0
  9 16  1  0  0  0  0
 10 11  1  6  0  0  0
 10 18  1  0  0  0  0
 12 13  1  6  0  0  0
 12 20  1  0  0  0  0
 14 15  1  1  0  0  0
 14 22  1  0  0  0  0
 16 17  1  1  0  0  0
 16 24  1  0  0  0  0
 18 19  1  6  0  0  0
 18 25  1  0  0  0  0
 20 21  1  1  0  0  0
 20 27  1  0  0  0  0
 22 23  1  6  0  0  0
 22 29  1  0  0  0  0
 24  2  1  6  0  0  0
 24 31  1  0  0  0  0
 25 26  1  0  0  0  0
 25 33  1  1  0  0  0
 27 28  1  6  0  0  0
 27 35  1  0  0  0  0
 29 30  1  0  0  0  0
 29 37  1  1  0  0  0
 31 32  1  1  0  0  0
 31 39  1  0  0  0  0
 33 34  1  0  0  0  0
 35 36  1  0  0  0  0
 35 41  1  6  0  0  0
 37 38  1  0  0  0  0
 39 40  1  6  0  0  0
 41 42  1  0  0  0  0
M  END
>  <CHROM.1>
-157.82848180,147.91934121,168.40922273,170.85052762,-174.48922891,58.09684528
61.78988922,146.00934178,-62.61049552,8.24595631,3.39089488,5.25042972,-2.23418143
-0.38599800,0.23360420

>  <Name>
2o3w_lig

>  <RI>
0

>  <Rbt.Current_Directory>
/home/itssahil/PROJECTS/Mol_Feturizer/New_Systems/rnas/2o3w

>  <Rbt.Executable>
rbdock ($Id: //depot/dev/client3/rdock/2013.1/src/exe/rbdock.cxx#4 $)

>  <Rbt.Library>
libRbt.so (2013.1, Build901 2013/11/27)

>  <Rbt.Parameter_File>
/export/apps/rDock/src/rDock_2013.1_src/data/scripts/dock_solv.prm

>  <Rbt.Receptor>
prm/pocket_docking_6.prm

>  <SCORE>
-14.1213

>  <SCORE.INTER>
-6.92056

>  <SCORE.INTER.CONST>
1

>  <SCORE.INTER.POLAR>
-1.82444

>  <SCORE.INTER.ROT>
9

>  <SCORE.INTER.SOLV>
11.7944

>  <SCORE.INTER.VDW>
-12.0637

>  <SCORE.INTER.norm>
-0.164775

>  <SCORE.INTRA>
-7.21167

>  <SCORE.INTRA.DIHEDRAL>
-16.0164

>  <SCORE.INTRA.DIHEDRAL.0>
27.8999

>  <SCORE.INTRA.POLAR>
0

>  <SCORE.INTRA.POLAR.0>
0

>  <SCORE.INTRA.REPUL>
0

>  <SCORE.INTRA.REPUL.0>
0

>  <SCORE.INTRA.SOLV>
-0.833349

>  <SCORE.INTRA.SOLV.lig_0>
-104.479

>  <SCORE.INTRA.VDW>
1.21321

>  <SCORE.INTRA.VDW.0>
-6.17816

>  <SCORE.INTRA.norm>
-0.171706

>  <SCORE.RESTR>
0.0109655

>  <SCORE.RESTR.CAVITY>
0.0109655

>  <SCORE.RESTR.norm>
0.000261084

>  <SCORE.SYSTEM>
0

>  <SCORE.SYSTEM.CONST>
0

>  <SCORE.SYSTEM.DIHEDRAL>
0

>  <SCORE.SYSTEM.SOLV>
0

>  <SCORE.SYSTEM.norm>
0

>  <SCORE.heavy>
42

>  <SCORE.norm>
-0.336221

>  <RMSD>
6.972

$$$$
2o3w_lig
 OpenBabel11021811463D
libRbt.so/2013.1/901 2013/11/27
 42 45  0  0  0  0  0  0  0  0999 V2000
    8.1279    3.8983    1.6619 C   0  0  2  0  0  0  0  0  0  0  0  0
    6.8786    3.9168    2.3735 O   0  0  0  0  0  0  0  0  0  0  0  0
    3.7033    6.8667    2.2690 C   0  0  2  0  0  0  0  0  0  0  0  0
    2.9311    8.1378    2.4046 N   0  0  0  0  0  0  0  0  0  0  0  0
    7.2108    6.8741   -0.6296 C   0  0  1  0  0  0  0  0  0  0  0  0
    7.0035    8.4632   -3.8992 C   0  0  1  0  0  0  0  0  0  0  0  0
    8.6849    2.4461    1.7581 C   0  0  2  0  0  0  0  0  0  0  0  0
    7.6820    1.4320    1.3888 N   0  0  0  0  0  0  0  0  0  0  0  0
    4.1411    6.3075    3.6823 C   0  0  0  0  0  0  0  0  0  0  0  0
    8.6707    6.9508   -1.1713 C   0  0  2  0  0  0  0  0  0  0  0  0
    9.4106    8.1076   -0.7096 O   0  0  0  0  0  0  0  0  0  0  0  0
    6.7818    7.6894   -5.2487 C   0  0  2  0  0  0  0  0  0  0  0  0
    7.8905    7.9661   -6.2106 N   0  0  0  0  0  0  0  0  0  0  0  0
    9.1671    2.0982    3.1784 C   0  0  1  0  0  0  0  0  0  0  0  0
    9.7048    0.7750    3.2109 O   0  0  0  0  0  0  0  0  0  0  0  0
    4.9293    4.9590    3.4756 C   0  0  2  0  0  0  0  0  0  0  0  0
    5.3448    4.3961    4.7887 N   0  0  0  0  0  0  0  0  0  0  0  0
    8.4319    6.8765   -2.6802 C   0  0  2  0  0  0  0  0  0  0  0  0
    8.2625    8.2072   -3.2643 O   0  0  0  0  0  0  0  0  0  0  0  0
    5.3643    8.1045   -5.8694 C   0  0  1  0  0  0  0  0  0  0  0  0
    4.3147    7.4848   -5.0927 O   0  0  0  0  0  0  0  0  0  0  0  0
   10.2093    3.1424    3.6394 C   0  0  2  0  0  0  0  0  0  0  0  0
   10.6733    2.8285    4.9319 O   0  0  0  0  0  0  0  0  0  0  0  0
    6.2038    5.1918    2.5715 C   0  0  2  0  0  0  0  0  0  0  0  0
    7.1681    6.0204   -2.8683 C   0  0  2  0  0  0  0  0  0  0  0  0
    6.4148    6.2967   -1.6899 O   0  0  0  0  0  0  0  0  0  0  0  0
    5.1407    9.6908   -5.9035 C   0  0  2  0  0  0  0  0  0  0  0  0
    6.0359   10.2314   -6.8744 O   0  0  0  0  0  0  0  0  0  0  0  0
    9.5528    4.5630    3.6173 C   0  0  2  0  0  0  0  0  0  0  0  0
    9.0711    4.8615    2.2687 O   0  0  0  0  0  0  0  0  0  0  0  0
    5.8573    5.7918    1.1912 C   0  0  2  0  0  0  0  0  0  0  0  0
    7.1382    6.1071    0.5794 O   0  0  0  0  0  0  0  0  0  0  0  0
    7.4271    4.4896   -3.0229 C   0  0  0  0  0  0  0  0  0  0  0  0
    6.6243    3.9814   -4.0841 O   0  0  0  0  0  0  0  0  0  0  0  0
    5.4247   10.3226   -4.4884 C   0  0  1  0  0  0  0  0  0  0  0  0
    6.8056    9.9448   -4.1412 O   0  0  0  0  0  0  0  0  0  0  0  0
   10.5076    5.6516    4.0498 C   0  0  0  0  0  0  0  0  0  0  0  0
    9.8754    6.9065    3.9813 O   0  0  0  0  0  0  0  0  0  0  0  0
    4.9803    7.1017    1.3665 C   0  0  1  0  0  0  0  0  0  0  0  0
    4.5335    7.5706    0.0913 O   0  0  0  0  0  0  0  0  0  0  0  0
    5.2586   11.9034   -4.4399 C   0  0  0  0  0  0  0  0  0  0  0  0
    5.3367   12.5161   -3.0853 N   0  0  0  0  0  0  0  0  0  0  0  0
  1  2  1  1  0  0  0
  1  7  1  0  0  0  0
  1 30  1  0  0  0  0
  3  4  1  1  0  0  0
  3  9  1  0  0  0  0
  3 39  1  0  0  0  0
  5 10  1  0  0  0  0
  5 26  1  0  0  0  0
  5 32  1  1  0  0  0
  6 12  1  0  0  0  0
  6 36  1  0  0  0  0
  6 19  1  6  0  0  0
  7  8  1  1  0  0  0
  7 14  1  0  0  0  0
  9 16  1  0  0  0  0
 10 11  1  6  0  0  0
 10 18  1  0  0  0  0
 12 13  1  6  0  0  0
 12 20  1  0  0  0  0
 14 15  1  6  0  0  0
 14 22  1  0  0  0  0
 16 17  1  1  0  0  0
 16 24  1  0  0  0  0
 18 19  1  1  0  0  0
 18 25  1  0  0  0  0
 20 21  1  1  0  0  0
 20 27  1  0  0  0  0
 22 23  1  1  0  0  0
 22 29  1  0  0  0  0
 24  2  1  6  0  0  0
 24 31  1  0  0  0  0
 25 26  1  0  0  0  0
 25 33  1  1  0  0  0
 27 28  1  6  0  0  0
 27 35  1  0  0  0  0
 29 30  1  0  0  0  0
 29 37  1  6  0  0  0
 31 32  1  1  0  0  0
 31 39  1  0  0  0  0
 33 34  1  0  0  0  0
 35 36  1  0  0  0  0
 35 41  1  6  0  0  0
 37 38  1  0  0  0  0
 39 40  1  6  0  0  0
 41 42  1  0  0  0  0
M  END
>  <CHROM.1>
173.34048066,-173.88478859,-70.49665598,-118.90723955,-175.34123119,-135.79811522
178.64445834,-170.21393000,172.04234093,7.04696755,6.35914985,-0.41082313
-1.25299302,0.73419826,-1.19722145

>  <Name>
2o3w_lig

>  <RI>
0

>  <Rbt.Current_Directory>
/home/itssahil/PROJECTS/Mol_Feturizer/New_Systems/rnas/2o3w

>  <Rbt.Executable>
rbdock ($Id: //depot/dev/client3/rdock/2013.1/src/exe/rbdock.cxx#4 $)

>  <Rbt.Library>
libRbt.so (2013.1, Build901 2013/11/27)

>  <Rbt.Parameter_File>
/export/apps/rDock/src/rDock_2013.1_src/data/scripts/dock_solv.prm

>  <Rbt.Receptor>
prm/pocket_docking_7.prm

>  <SCORE>
-18.6368

>  <SCORE.INTER>
-14.2585

>  <SCORE.INTER.CONST>
1

>  <SCORE.INTER.POLAR>
-2.83792

>  <SCORE.INTER.ROT>
9

>  <SCORE.INTER.SOLV>
18.8548

>  <SCORE.INTER.VDW>
-15.9309

>  <SCORE.INTER.norm>
-0.339488

>  <SCORE.INTRA>
-4.37833

>  <SCORE.INTRA.DIHEDRAL>
-14.4996

>  <SCORE.INTRA.DIHEDRAL.0>
27.8999

>  <SCORE.INTRA.POLAR>
0

>  <SCORE.INTRA.POLAR.0>
0

>  <SCORE.INTRA.REPUL>
0

>  <SCORE.INTRA.REPUL.0>
0

>  <SCORE.INTRA.SOLV>
-5.71252

>  <SCORE.INTRA.SOLV.lig_0>
-104.479

>  <SCORE.INTRA.VDW>
5.72773

>  <SCORE.INTRA.VDW.0>
-6.17816

>  <SCORE.INTRA.norm>
-0.104246

>  <SCORE.RESTR>
0

>  <SCORE.RESTR.CAVITY>
0

>  <SCORE.RESTR.norm>
0

>  <SCORE.SYSTEM>
0

>  <SCORE.SYSTEM.CONST>
0

>  <SCORE.SYSTEM.DIHEDRAL>
0

>  <SCORE.SYSTEM.SOLV>
0

>  <SCORE.SYSTEM.norm>
0

>  <SCORE.heavy>
42

>  <SCORE.norm>
-0.443734

>  <RMSD>
7.052

$$$$
2o3w_lig
 OpenBabel11021811463D
libRbt.so/2013.1/901 2013/11/27
 42 45  0  0  0  0  0  0  0  0999 V2000
    7.3763   -2.1282    2.0174 C   0  0  2  0  0  0  0  0  0  0  0  0
    6.7265   -2.0533    0.7370 O   0  0  0  0  0  0  0  0  0  0  0  0
    4.8999    1.3838   -1.1723 C   0  0  2  0  0  0  0  0  0  0  0  0
    3.9902    2.5255   -1.4874 N   0  0  0  0  0  0  0  0  0  0  0  0
    7.6498    1.4922    2.6059 C   0  0  1  0  0  0  0  0  0  0  0  0
   10.7669    3.7316    4.7729 C   0  0  1  0  0  0  0  0  0  0  0  0
    8.2081   -3.4458    2.0292 C   0  0  2  0  0  0  0  0  0  0  0  0
    9.0553   -3.5884    0.8324 N   0  0  0  0  0  0  0  0  0  0  0  0
    4.1381    0.0007   -1.2641 C   0  0  0  0  0  0  0  0  0  0  0  0
    7.9141    1.3190    4.1327 C   0  0  2  0  0  0  0  0  0  0  0  0
    6.9698    2.0214    4.9776 O   0  0  0  0  0  0  0  0  0  0  0  0
   11.3625    3.2918    6.1587 C   0  0  2  0  0  0  0  0  0  0  0  0
   10.4395    3.6549    7.2755 N   0  0  0  0  0  0  0  0  0  0  0  0
    7.3162   -4.6993    2.0947 C   0  0  1  0  0  0  0  0  0  0  0  0
    8.1197   -5.8795    2.1436 O   0  0  0  0  0  0  0  0  0  0  0  0
    5.1519   -1.1624   -0.9445 C   0  0  2  0  0  0  0  0  0  0  0  0
    4.4709   -2.4820   -1.0362 N   0  0  0  0  0  0  0  0  0  0  0  0
    9.3680    1.7824    4.2368 C   0  0  2  0  0  0  0  0  0  0  0  0
    9.4573    3.2196    4.4965 O   0  0  0  0  0  0  0  0  0  0  0  0
   12.7999    3.9715    6.3561 C   0  0  1  0  0  0  0  0  0  0  0  0
   13.7522    3.3090    5.4941 O   0  0  0  0  0  0  0  0  0  0  0  0
    6.3801   -4.6026    3.3209 C   0  0  2  0  0  0  0  0  0  0  0  0
    5.5683   -5.7508    3.4046 O   0  0  0  0  0  0  0  0  0  0  0  0
    5.7683   -0.9830    0.4990 C   0  0  2  0  0  0  0  0  0  0  0  0
   10.0272    1.4163    2.8964 C   0  0  2  0  0  0  0  0  0  0  0  0
    8.9483    1.5164    1.9700 O   0  0  0  0  0  0  0  0  0  0  0  0
   12.7937    5.5425    6.0406 C   0  0  2  0  0  0  0  0  0  0  0  0
   12.0411    6.1855    7.0685 O   0  0  0  0  0  0  0  0  0  0  0  0
    5.5026   -3.3130    3.1929 C   0  0  2  0  0  0  0  0  0  0  0  0
    6.3673   -2.1370    3.0980 O   0  0  0  0  0  0  0  0  0  0  0  0
    6.4822    0.3744    0.6809 C   0  0  2  0  0  0  0  0  0  0  0  0
    6.8171    0.4434    2.0942 O   0  0  0  0  0  0  0  0  0  0  0  0
   10.6784   -0.0007    2.8486 C   0  0  0  0  0  0  0  0  0  0  0  0
   11.3523   -0.1671    1.6048 O   0  0  0  0  0  0  0  0  0  0  0  0
   12.1452    5.8241    4.6326 C   0  0  1  0  0  0  0  0  0  0  0  0
   10.7924    5.2429    4.6816 O   0  0  0  0  0  0  0  0  0  0  0  0
    4.5574   -3.1348    4.3585 C   0  0  0  0  0  0  0  0  0  0  0  0
    3.7867   -1.9708    4.1842 O   0  0  0  0  0  0  0  0  0  0  0  0
    5.5138    1.5628    0.2739 C   0  0  1  0  0  0  0  0  0  0  0  0
    6.2211    2.8057    0.2973 O   0  0  0  0  0  0  0  0  0  0  0  0
   12.0675    7.3661    4.2521 C   0  0  0  0  0  0  0  0  0  0  0  0
   11.1514    8.1887    5.0891 N   0  0  0  0  0  0  0  0  0  0  0  0
  1  2  1  6  0  0  0
  1  7  1  0  0  0  0
  1 30  1  0  0  0  0
  3  4  1  1  0  0  0
  3  9  1  0  0  0  0
  3 39  1  0  0  0  0
  5 10  1  0  0  0  0
  5 26  1  0  0  0  0
  5 32  1  6  0  0  0
  6 12  1  0  0  0  0
  6 36  1  0  0  0  0
  6 19  1  1  0  0  0
  7  8  1  6  0  0  0
  7 14  1  0  0  0  0
  9 16  1  0  0  0  0
 10 11  1  1  0  0  0
 10 18  1  0  0  0  0
 12 13  1  1  0  0  0
 12 20  1  0  0  0  0
 14 15  1  1  0  0  0
 14 22  1  0  0  0  0
 16 17  1  1  0  0  0
 16 24  1  0  0  0  0
 18 19  1  6  0  0  0
 18 25  1  0  0  0  0
 20 21  1  6  0  0  0
 20 27  1  0  0  0  0
 22 23  1  6  0  0  0
 22 29  1  0  0  0  0
 24  2  1  6  0  0  0
 24 31  1  0  0  0  0
 25 26  1  0  0  0  0
 25 33  1  1  0  0  0
 27 28  1  1  0  0  0
 27 35  1  0  0  0  0
 29 30  1  0  0  0  0
 29 37  1  1  0  0  0
 31 32  1  1  0  0  0
 31 39  1  0  0  0  0
 33 34  1  0  0  0  0
 35 36  1  0  0  0  0
 35 41  1  1  0  0  0
 37 38  1  0  0  0  0
 39 40  1  6  0  0  0
 41 42  1  0  0  0  0
M  END
>  <CHROM.1>
173.80794061,-177.61055681,-70.00720104,172.72050621,-177.37610588,-174.84627729
-179.40610592,171.67746827,-66.69246703,8.21594593,0.72306169,2.90087436
-2.44370383,-0.75847901,-0.21036399

>  <Name>
2o3w_lig

>  <RI>
0

>  <Rbt.Current_Directory>
/home/itssahil/PROJECTS/Mol_Feturizer/New_Systems/rnas/2o3w

>  <Rbt.Executable>
rbdock ($Id: //depot/dev/client3/rdock/2013.1/src/exe/rbdock.cxx#4 $)

>  <Rbt.Library>
libRbt.so (2013.1, Build901 2013/11/27)

>  <Rbt.Parameter_File>
/export/apps/rDock/src/rDock_2013.1_src/data/scripts/dock_solv.prm

>  <Rbt.Receptor>
prm/pocket_docking_5.prm

>  <SCORE>
-20.4305

>  <SCORE.INTER>
-7.52227

>  <SCORE.INTER.CONST>
1

>  <SCORE.INTER.POLAR>
-0.894427

>  <SCORE.INTER.ROT>
9

>  <SCORE.INTER.SOLV>
10.9452

>  <SCORE.INTER.VDW>
-15.2818

>  <SCORE.INTER.norm>
-0.179102

>  <SCORE.INTRA>
-12.9082

>  <SCORE.INTRA.DIHEDRAL>
-26.1821

>  <SCORE.INTRA.DIHEDRAL.0>
27.8999

>  <SCORE.INTRA.POLAR>
0

>  <SCORE.INTRA.POLAR.0>
0

>  <SCORE.INTRA.REPUL>
0

>  <SCORE.INTRA.REPUL.0>
0

>  <SCORE.INTRA.SOLV>
-4.56301

>  <SCORE.INTRA.SOLV.lig_0>
-104.479

>  <SCORE.INTRA.VDW>
2.46435

>  <SCORE.INTRA.VDW.0>
-6.17816

>  <SCORE.INTRA.norm>
-0.307338

>  <SCORE.RESTR>
0

>  <SCORE.RESTR.CAVITY>
0

>  <SCORE.RESTR.norm>
0

>  <SCORE.SYSTEM>
0

>  <SCORE.SYSTEM.CONST>
0

>  <SCORE.SYSTEM.DIHEDRAL>
0

>  <SCORE.SYSTEM.SOLV>
0

>  <SCORE.SYSTEM.norm>
0

>  <SCORE.heavy>
42

>  <SCORE.norm>
-0.48644

>  <RMSD>
7.112

$$$$
2o3w_lig
 OpenBabel11021811463D
libRbt.so/2013.1/901 2013/11/27
 42 45  0  0  0  0  0  0  0  0999 V2000
    9.7416    7.4751    7.3427 C   0  0  2  0  0  0  0  0  0  0  0  0
   10.3589    6.2960    6.7987 O   0  0  0  0  0  0  0  0  0  0  0  0
    8.9397    2.2597    6.0987 C   0  0  2  0  0  0  0  0  0  0  0  0
    8.1466    1.0889    5.6185 N   0  0  0  0  0  0  0  0  0  0  0  0
    9.4910    5.9376    3.5249 C   0  0  1  0  0  0  0  0  0  0  0  0
    7.2435    8.5020    0.6028 C   0  0  1  0  0  0  0  0  0  0  0  0
   10.7585    8.6429    7.1681 C   0  0  2  0  0  0  0  0  0  0  0  0
   11.2875    8.7293    5.7958 N   0  0  0  0  0  0  0  0  0  0  0  0
    8.0764    3.1891    7.0437 C   0  0  0  0  0  0  0  0  0  0  0  0
    9.9956    7.2335    2.8200 C   0  0  2  0  0  0  0  0  0  0  0  0
    9.9195    8.4214    3.6459 O   0  0  0  0  0  0  0  0  0  0  0  0
    6.0209    9.4472    0.8866 C   0  0  2  0  0  0  0  0  0  0  0  0
    5.0046    8.7629    1.7409 N   0  0  0  0  0  0  0  0  0  0  0  0
   11.9727    8.5054    8.1050 C   0  0  1  0  0  0  0  0  0  0  0  0
   12.8567    9.6154    7.9396 O   0  0  0  0  0  0  0  0  0  0  0  0
    8.9710    4.3898    7.5341 C   0  0  2  0  0  0  0  0  0  0  0  0
    8.1932    5.2786    8.4389 N   0  0  0  0  0  0  0  0  0  0  0  0
    9.1261    7.2449    1.5617 C   0  0  2  0  0  0  0  0  0  0  0  0
    7.8790    7.9793    1.7762 O   0  0  0  0  0  0  0  0  0  0  0  0
    5.3810    9.9162   -0.5053 C   0  0  1  0  0  0  0  0  0  0  0  0
    6.2605   10.8834   -1.1215 O   0  0  0  0  0  0  0  0  0  0  0  0
   11.4850    8.3852    9.5668 C   0  0  2  0  0  0  0  0  0  0  0  0
   12.5857    8.2754   10.4391 O   0  0  0  0  0  0  0  0  0  0  0  0
    9.5070    5.2237    6.3040 C   0  0  2  0  0  0  0  0  0  0  0  0
    8.8529    5.7702    1.2211 C   0  0  2  0  0  0  0  0  0  0  0  0
    8.8562    5.1395    2.4996 O   0  0  0  0  0  0  0  0  0  0  0  0
    5.1307    8.6986   -1.5164 C   0  0  2  0  0  0  0  0  0  0  0  0
    4.0734    7.9039   -0.9807 O   0  0  0  0  0  0  0  0  0  0  0  0
   10.5526    7.1345    9.6927 C   0  0  2  0  0  0  0  0  0  0  0  0
    9.4240    7.2675    8.7716 O   0  0  0  0  0  0  0  0  0  0  0  0
   10.3147    4.3661    5.3054 C   0  0  2  0  0  0  0  0  0  0  0  0
   10.5638    5.2372    4.1680 O   0  0  0  0  0  0  0  0  0  0  0  0
    9.8968    5.1108    0.2673 C   0  0  0  0  0  0  0  0  0  0  0  0
   11.2080    5.5037    0.6611 O   0  0  0  0  0  0  0  0  0  0  0  0
    6.4366    7.8321   -1.6771 C   0  0  1  0  0  0  0  0  0  0  0  0
    6.8015    7.3866   -0.3211 O   0  0  0  0  0  0  0  0  0  0  0  0
   10.0222    6.9433   11.0948 C   0  0  0  0  0  0  0  0  0  0  0  0
    8.7987    6.2498   11.0601 O   0  0  0  0  0  0  0  0  0  0  0  0
    9.4729    3.0954    4.8667 C   0  0  1  0  0  0  0  0  0  0  0  0
   10.2750    2.2255    4.0634 O   0  0  0  0  0  0  0  0  0  0  0  0
    6.2676    6.5784   -2.6406 C   0  0  0  0  0  0  0  0  0  0  0  0
    7.4945    5.7626   -2.8542 N   0  0  0  0  0  0  0  0  0  0  0  0
  1  2  1  1  0  0  0
  1  7  1  0  0  0  0
  1 30  1  0  0  0  0
  3  4  1  6  0  0  0
  3  9  1  0  0  0  0
  3 39  1  0  0  0  0
  5 10  1  0  0  0  0
  5 26  1  0  0  0  0
  5 32  1  6  0  0  0
  6 12  1  0  0  0  0
  6 36  1  0  0  0  0
  6 19  1  1  0  0  0
  7  8  1  6  0  0  0
  7 14  1  0  0  0  0
  9 16  1  0  0  0  0
 10 11  1  1  0  0  0
 10 18  1  0  0  0  0
 12 13  1  1  0  0  0
 12 20  1  0  0  0  0
 14 15  1  1  0  0  0
 14 22  1  0  0  0  0
 16 17  1  1  0  0  0
 16 24  1  0  0  0  0
 18 19  1  1  0  0  0
 18 25  1  0  0  0  0
 20 21  1  6  0  0  0
 20 27  1  0  0  0  0
 22 23  1  1  0  0  0
 22 29  1  0  0  0  0
 24  2  1  1  0  0  0
 24 31  1  0  0  0  0
 25 26  1  0  0  0  0
 25 33  1  6  0  0  0
 27 28  1  1  0  0  0
 27 35  1  0  0  0  0
 29 30  1  0  0  0  0
 29 37  1  1  0  0  0
 31 32  1  6  0  0  0
 31 39  1  0  0  0  0
 33 34  1  0  0  0  0
 35 36  1  0  0  0  0
 35 41  1  6  0  0  0
 37 38  1  0  0  0  0
 39 40  1  6  0  0  0
 41 42  1  0  0  0  0
M  END
>  <CHROM.1>
-154.23855004,154.23017485,-172.00243870,156.63922425,-78.69253606,42.73279745
153.80267813,-52.08369102,177.95640629,8.91336255,6.67513602,4.11923305,-0.01254766
-1.18527827,0.11548408

>  <Name>
2o3w_lig

>  <RI>
0

>  <Rbt.Current_Directory>
/home/itssahil/PROJECTS/Mol_Feturizer/New_Systems/rnas/2o3w

>  <Rbt.Executable>
rbdock ($Id: //depot/dev/client3/rdock/2013.1/src/exe/rbdock.cxx#4 $)

>  <Rbt.Library>
libRbt.so (2013.1, Build901 2013/11/27)

>  <Rbt.Parameter_File>
/export/apps/rDock/src/rDock_2013.1_src/data/scripts/dock_solv.prm

>  <Rbt.Receptor>
prm/pocket_docking_8.prm

>  <SCORE>
-20.8851

>  <SCORE.INTER>
-17.8283

>  <SCORE.INTER.CONST>
1

>  <SCORE.INTER.POLAR>
-3.61214

>  <SCORE.INTER.ROT>
9

>  <SCORE.INTER.SOLV>
14.4898

>  <SCORE.INTER.VDW>
-14.275

>  <SCORE.INTER.norm>
-0.424483

>  <SCORE.INTRA>
-3.05685

>  <SCORE.INTRA.DIHEDRAL>
-14.4562

>  <SCORE.INTRA.DIHEDRAL.0>
27.8999

>  <SCORE.INTRA.POLAR>
0

>  <SCORE.INTRA.POLAR.0>
0

>  <SCORE.INTRA.REPUL>
0.0199312

>  <SCORE.INTRA.REPUL.0>
0

>  <SCORE.INTRA.SOLV>
1.64397

>  <SCORE.INTRA.SOLV.lig_0>
-104.479

>  <SCORE.INTRA.VDW>
3.24963

>  <SCORE.INTRA.VDW.0>
-6.17816

>  <SCORE.INTRA.norm>
-0.0727822

>  <SCORE.RESTR>
0

>  <SCORE.RESTR.CAVITY>
0

>  <SCORE.RESTR.norm>
0

>  <SCORE.SYSTEM>
0

>  <SCORE.SYSTEM.CONST>
0

>  <SCORE.SYSTEM.DIHEDRAL>
0

>  <SCORE.SYSTEM.SOLV>
0

>  <SCORE.SYSTEM.norm>
0

>  <SCORE.heavy>
42

>  <SCORE.norm>
-0.497265

>  <RMSD>
7.114

$$$$
2o3w_lig
 OpenBabel11021811463D
libRbt.so/2013.1/901 2013/11/27
 42 45  0  0  0  0  0  0  0  0999 V2000
   10.1988    7.1410    7.7559 C   0  0  2  0  0  0  0  0  0  0  0  0
    9.4857    7.3533    6.5256 O   0  0  0  0  0  0  0  0  0  0  0  0
    7.4486    3.5291    6.3777 C   0  0  2  0  0  0  0  0  0  0  0  0
    6.5772    2.3915    5.9569 N   0  0  0  0  0  0  0  0  0  0  0  0
    9.5177    6.2923    3.3926 C   0  0  1  0  0  0  0  0  0  0  0  0
    7.7647    7.5169   -0.4468 C   0  0  1  0  0  0  0  0  0  0  0  0
   10.8526    8.5014    8.1434 C   0  0  2  0  0  0  0  0  0  0  0  0
    9.8941    9.6195    8.1024 N   0  0  0  0  0  0  0  0  0  0  0  0
    6.5893    4.8062    6.7416 C   0  0  0  0  0  0  0  0  0  0  0  0
   10.2906    6.1751    2.0436 C   0  0  2  0  0  0  0  0  0  0  0  0
   11.2602    7.2295    1.8265 O   0  0  0  0  0  0  0  0  0  0  0  0
    8.1085    6.6850   -1.7346 C   0  0  2  0  0  0  0  0  0  0  0  0
    9.4321    7.0916   -2.2948 N   0  0  0  0  0  0  0  0  0  0  0  0
   12.0158    8.8782    7.2075 C   0  0  1  0  0  0  0  0  0  0  0  0
   12.6095   10.1094    7.6229 O   0  0  0  0  0  0  0  0  0  0  0  0
    7.5594    5.9609    7.1978 C   0  0  2  0  0  0  0  0  0  0  0  0
    6.7821    7.1760    7.5624 N   0  0  0  0  0  0  0  0  0  0  0  0
    9.1351    6.1217    1.0429 C   0  0  2  0  0  0  0  0  0  0  0  0
    8.7584    7.4590    0.5841 O   0  0  0  0  0  0  0  0  0  0  0  0
    6.9421    6.8781   -2.8159 C   0  0  1  0  0  0  0  0  0  0  0  0
    5.7789    6.1358   -2.3859 O   0  0  0  0  0  0  0  0  0  0  0  0
   13.0518    7.7313    7.1851 C   0  0  2  0  0  0  0  0  0  0  0  0
   14.1317    8.0680    6.3455 O   0  0  0  0  0  0  0  0  0  0  0  0
    8.5853    6.3128    6.0490 C   0  0  2  0  0  0  0  0  0  0  0  0
    7.9702    5.4354    1.7759 C   0  0  2  0  0  0  0  0  0  0  0  0
    8.1772    5.8154    3.1343 O   0  0  0  0  0  0  0  0  0  0  0  0
    6.5460    8.4151   -3.0356 C   0  0  2  0  0  0  0  0  0  0  0  0
    7.6403    9.0523   -3.6936 O   0  0  0  0  0  0  0  0  0  0  0  0
   12.3529    6.4217    6.6891 C   0  0  2  0  0  0  0  0  0  0  0  0
   11.2308    6.0989    7.5702 O   0  0  0  0  0  0  0  0  0  0  0  0
    9.4235    5.0955    5.6010 C   0  0  2  0  0  0  0  0  0  0  0  0
   10.1638    5.5498    4.4348 O   0  0  0  0  0  0  0  0  0  0  0  0
    7.9230    3.8829    1.6284 C   0  0  0  0  0  0  0  0  0  0  0  0
    9.1320    3.3253    2.1347 O   0  0  0  0  0  0  0  0  0  0  0  0
    6.2561    9.1172   -1.6554 C   0  0  1  0  0  0  0  0  0  0  0  0
    7.4756    8.9486   -0.8464 O   0  0  0  0  0  0  0  0  0  0  0  0
   13.2957    5.2415    6.6420 C   0  0  0  0  0  0  0  0  0  0  0  0
   12.6541    4.1312    6.0633 O   0  0  0  0  0  0  0  0  0  0  0  0
    8.4728    3.8825    5.2260 C   0  0  1  0  0  0  0  0  0  0  0  0
    9.2493    2.7117    4.9577 O   0  0  0  0  0  0  0  0  0  0  0  0
    5.8867   10.6590   -1.7780 C   0  0  0  0  0  0  0  0  0  0  0  0
    4.6312   10.9617   -2.5189 N   0  0  0  0  0  0  0  0  0  0  0  0
  1  2  1  6  0  0  0
  1  7  1  0  0  0  0
  1 30  1  0  0  0  0
  3  4  1  6  0  0  0
  3  9  1  0  0  0  0
  3 39  1  0  0  0  0
  5 10  1  0  0  0  0
  5 26  1  0  0  0  0
  5 32  1  1  0  0  0
  6 12  1  0  0  0  0
  6 36  1  0  0  0  0
  6 19  1  1  0  0  0
  7  8  1  6  0  0  0
  7 14  1  0  0  0  0
  9 16  1  0  0  0  0
 10 11  1  6  0  0  0
 10 18  1  0  0  0  0
 12 13  1  6  0  0  0
 12 20  1  0  0  0  0
 14 15  1  1  0  0  0
 14 22  1  0  0  0  0
 16 17  1  6  0  0  0
 16 24  1  0  0  0  0
 18 19  1  1  0  0  0
 18 25  1  0  0  0  0
 20 21  1  1  0  0  0
 20 27  1  0  0  0  0
 22 23  1  6  0  0  0
 22 29  1  0  0  0  0
 24  2  1  1  0  0  0
 24 31  1  0  0  0  0
 25 26  1  0  0  0  0
 25 33  1  1  0  0  0
 27 28  1  1  0  0  0
 27 35  1  0  0  0  0
 29 30  1  0  0  0  0
 29 37  1  1  0  0  0
 31 32  1  6  0  0  0
 31 39  1  0  0  0  0
 33 34  1  0  0  0  0
 35 36  1  0  0  0  0
 35 41  1  6  0  0  0
 37 38  1  0  0  0  0
 39 40  1  1  0  0  0
 41 42  1  0  0  0  0
M  END
>  <CHROM.1>
-169.40174943,-156.98658393,-55.08940135,174.62193073,53.94430066,59.20889429
-174.02813225,-45.71345600,63.63922231,9.11286189,6.66094690,3.32832791,-0.88074738
-0.91439222,-0.82222073

>  <Name>
2o3w_lig

>  <RI>
0

>  <Rbt.Current_Directory>
/home/itssahil/PROJECTS/Mol_Feturizer/New_Systems/rnas/2o3w

>  <Rbt.Executable>
rbdock ($Id: //depot/dev/client3/rdock/2013.1/src/exe/rbdock.cxx#4 $)

>  <Rbt.Library>
libRbt.so (2013.1, Build901 2013/11/27)

>  <Rbt.Parameter_File>
/export/apps/rDock/src/rDock_2013.1_src/data/scripts/dock_solv.prm

>  <Rbt.Receptor>
prm/pocket_docking_8.prm

>  <SCORE>
-25.3639

>  <SCORE.INTER>
-14.4572

>  <SCORE.INTER.CONST>
1

>  <SCORE.INTER.POLAR>
-3.67545

>  <SCORE.INTER.ROT>
9

>  <SCORE.INTER.SOLV>
20.2753

>  <SCORE.INTER.VDW>
-13.7451

>  <SCORE.INTER.norm>
-0.344218

>  <SCORE.INTRA>
-10.9068

>  <SCORE.INTRA.DIHEDRAL>
-23.3198

>  <SCORE.INTRA.DIHEDRAL.0>
27.8999

>  <SCORE.INTRA.POLAR>
0

>  <SCORE.INTRA.POLAR.0>
0

>  <SCORE.INTRA.REPUL>
0

>  <SCORE.INTRA.REPUL.0>
0

>  <SCORE.INTRA.SOLV>
-2.67668

>  <SCORE.INTRA.SOLV.lig_0>
-104.479

>  <SCORE.INTRA.VDW>
2.09147

>  <SCORE.INTRA.VDW.0>
-6.17816

>  <SCORE.INTRA.norm>
-0.259685

>  <SCORE.RESTR>
0

>  <SCORE.RESTR.CAVITY>
0

>  <SCORE.RESTR.norm>
0

>  <SCORE.SYSTEM>
0

>  <SCORE.SYSTEM.CONST>
0

>  <SCORE.SYSTEM.DIHEDRAL>
0

>  <SCORE.SYSTEM.SOLV>
0

>  <SCORE.SYSTEM.norm>
0

>  <SCORE.heavy>
42

>  <SCORE.norm>
-0.603903

>  <RMSD>
7.123

$$$$
2o3w_lig
 OpenBabel11021811463D
libRbt.so/2013.1/901 2013/11/27
 42 45  0  0  0  0  0  0  0  0999 V2000
    7.2142    5.0541    5.3186 C   0  0  2  0  0  0  0  0  0  0  0  0
    8.2825    5.8698    4.8080 O   0  0  0  0  0  0  0  0  0  0  0  0
    9.4839    7.1647    0.8487 C   0  0  2  0  0  0  0  0  0  0  0  0
    9.8239    7.1814   -0.6054 N   0  0  0  0  0  0  0  0  0  0  0  0
    6.2764    4.4348    2.6130 C   0  0  1  0  0  0  0  0  0  0  0  0
    4.1443    1.0272    2.8345 C   0  0  1  0  0  0  0  0  0  0  0  0
    7.0632    5.3965    6.8312 C   0  0  2  0  0  0  0  0  0  0  0  0
    6.9814    6.8471    7.0754 N   0  0  0  0  0  0  0  0  0  0  0  0
   10.4927    6.2592    1.6638 C   0  0  0  0  0  0  0  0  0  0  0  0
    4.8194    3.9366    2.3686 C   0  0  2  0  0  0  0  0  0  0  0  0
    4.1057    3.5858    3.5796 O   0  0  0  0  0  0  0  0  0  0  0  0
    4.3761   -0.3727    3.5094 C   0  0  2  0  0  0  0  0  0  0  0  0
    4.7804   -1.3929    2.4962 N   0  0  0  0  0  0  0  0  0  0  0  0
    8.2423    4.8701    7.6700 C   0  0  1  0  0  0  0  0  0  0  0  0
    8.0429    5.1711    9.0522 O   0  0  0  0  0  0  0  0  0  0  0  0
   10.0971    6.2995    3.1884 C   0  0  2  0  0  0  0  0  0  0  0  0
   11.0362    5.4680    3.9887 N   0  0  0  0  0  0  0  0  0  0  0  0
    5.0587    2.7899    1.3852 C   0  0  2  0  0  0  0  0  0  0  0  0
    5.2595    1.5181    2.0802 O   0  0  0  0  0  0  0  0  0  0  0  0
    3.0406   -0.8186    4.2740 C   0  0  1  0  0  0  0  0  0  0  0  0
    2.9011   -0.0236    5.4729 O   0  0  0  0  0  0  0  0  0  0  0  0
    8.4000    3.3496    7.4406 C   0  0  2  0  0  0  0  0  0  0  0  0
    9.4652    2.8491    8.2147 O   0  0  0  0  0  0  0  0  0  0  0  0
    8.6201    5.7782    3.3945 C   0  0  2  0  0  0  0  0  0  0  0  0
    6.3027    3.1821    0.5703 C   0  0  2  0  0  0  0  0  0  0  0  0
    7.0604    3.9589    1.4950 O   0  0  0  0  0  0  0  0  0  0  0  0
    1.7257   -0.6628    3.3716 C   0  0  2  0  0  0  0  0  0  0  0  0
    1.7932   -1.6450    2.3386 O   0  0  0  0  0  0  0  0  0  0  0  0
    8.6512    3.0864    5.9183 C   0  0  2  0  0  0  0  0  0  0  0  0
    7.5377    3.6230    5.1361 O   0  0  0  0  0  0  0  0  0  0  0  0
    7.5822    6.5825    2.5813 C   0  0  2  0  0  0  0  0  0  0  0  0
    6.3296    5.8616    2.7417 O   0  0  0  0  0  0  0  0  0  0  0  0
    6.0088    3.9893   -0.7321 C   0  0  0  0  0  0  0  0  0  0  0  0
    7.2389    4.3093   -1.3750 O   0  0  0  0  0  0  0  0  0  0  0  0
    1.6484    0.7814    2.7466 C   0  0  1  0  0  0  0  0  0  0  0  0
    2.8944    0.9636    1.9820 O   0  0  0  0  0  0  0  0  0  0  0  0
    8.8114    1.6176    5.6009 C   0  0  0  0  0  0  0  0  0  0  0  0
    9.0685    1.4433    4.2288 O   0  0  0  0  0  0  0  0  0  0  0  0
    8.0064    6.6398    1.0541 C   0  0  1  0  0  0  0  0  0  0  0  0
    7.1300    7.5084    0.3309 O   0  0  0  0  0  0  0  0  0  0  0  0
    0.3875    1.0133    1.8059 C   0  0  0  0  0  0  0  0  0  0  0  0
    0.4882    0.4275    0.4409 N   0  0  0  0  0  0  0  0  0  0  0  0
  1  2  1  1  0  0  0
  1  7  1  0  0  0  0
  1 30  1  0  0  0  0
  3  4  1  6  0  0  0
  3  9  1  0  0  0  0
  3 39  1  0  0  0  0
  5 10  1  0  0  0  0
  5 26  1  0  0  0  0
  5 32  1  6  0  0  0
  6 12  1  0  0  0  0
  6 36  1  0  0  0  0
  6 19  1  6  0  0  0
  7  8  1  6  0  0  0
  7 14  1  0  0  0  0
  9 16  1  0  0  0  0
 10 11  1  1  0  0  0
 10 18  1  0  0  0  0
 12 13  1  6  0  0  0
 12 20  1  0  0  0  0
 14 15  1  1  0  0  0
 14 22  1  0  0  0  0
 16 17  1  1  0  0  0
 16 24  1  0  0  0  0
 18 19  1  1  0  0  0
 18 25  1  0  0  0  0
 20 21  1  1  0  0  0
 20 27  1  0  0  0  0
 22 23  1  1  0  0  0
 22 29  1  0  0  0  0
 24  2  1  1  0  0  0
 24 31  1  0  0  0  0
 25 26  1  0  0  0  0
 25 33  1  6  0  0  0
 27 28  1  6  0  0  0
 27 35  1  0  0  0  0
 29 30  1  0  0  0  0
 29 37  1  1  0  0  0
 31 32  1  6  0  0  0
 31 39  1  0  0  0  0
 33 34  1  0  0  0  0
 35 36  1  0  0  0  0
 35 41  1  6  0  0  0
 37 38  1  0  0  0  0
 39 40  1  6  0  0  0
 41 42  1  0  0  0  0
M  END
>  <CHROM.1>
-178.43358528,-161.75178798,177.22824777,64.02830250,-158.67567219,178.89962418
-178.48377580,-45.30712069,-77.67083431,6.34323461,3.43457414,3.33087373
-0.07088664,0.73656201,1.92489040

>  <Name>
2o3w_lig

>  <RI>
0

>  <Rbt.Current_Directory>
/home/itssahil/PROJECTS/Mol_Feturizer/New_Systems/rnas/2o3w

>  <Rbt.Executable>
rbdock ($Id: //depot/dev/client3/rdock/2013.1/src/exe/rbdock.cxx#4 $)

>  <Rbt.Library>
libRbt.so (2013.1, Build901 2013/11/27)

>  <Rbt.Parameter_File>
/export/apps/rDock/src/rDock_2013.1_src/data/scripts/dock_solv.prm

>  <Rbt.Receptor>
prm/pocket_docking_5.prm

>  <SCORE>
-21.675

>  <SCORE.INTER>
-11.9729

>  <SCORE.INTER.CONST>
1

>  <SCORE.INTER.POLAR>
-2.73342

>  <SCORE.INTER.ROT>
9

>  <SCORE.INTER.SOLV>
14.2515

>  <SCORE.INTER.VDW>
-13.2211

>  <SCORE.INTER.norm>
-0.28507

>  <SCORE.INTRA>
-9.71458

>  <SCORE.INTRA.DIHEDRAL>
-22.0242

>  <SCORE.INTRA.DIHEDRAL.0>
27.8999

>  <SCORE.INTRA.POLAR>
0

>  <SCORE.INTRA.POLAR.0>
0

>  <SCORE.INTRA.REPUL>
0

>  <SCORE.INTRA.REPUL.0>
0

>  <SCORE.INTRA.SOLV>
-2.78764

>  <SCORE.INTRA.SOLV.lig_0>
-104.479

>  <SCORE.INTRA.VDW>
2.69132

>  <SCORE.INTRA.VDW.0>
-6.17816

>  <SCORE.INTRA.norm>
-0.2313

>  <SCORE.RESTR>
0.0125005

>  <SCORE.RESTR.CAVITY>
0.0125005

>  <SCORE.RESTR.norm>
0.00029763

>  <SCORE.SYSTEM>
0

>  <SCORE.SYSTEM.CONST>
0

>  <SCORE.SYSTEM.DIHEDRAL>
0

>  <SCORE.SYSTEM.SOLV>
0

>  <SCORE.SYSTEM.norm>
0

>  <SCORE.heavy>
42

>  <SCORE.norm>
-0.516072

>  <RMSD>
7.209

$$$$
2o3w_lig
 OpenBabel11021811463D
libRbt.so/2013.1/901 2013/11/27
 42 45  0  0  0  0  0  0  0  0999 V2000
    4.7035    2.4225    0.2522 C   0  0  2  0  0  0  0  0  0  0  0  0
    5.7622    2.7375   -0.6683 O   0  0  0  0  0  0  0  0  0  0  0  0
    8.8775    5.7459   -0.4671 C   0  0  2  0  0  0  0  0  0  0  0  0
    9.5971    7.0517   -0.3809 N   0  0  0  0  0  0  0  0  0  0  0  0
    6.3718    4.1715    3.1444 C   0  0  1  0  0  0  0  0  0  0  0  0
    7.4216    4.5874    5.9392 C   0  0  1  0  0  0  0  0  0  0  0  0
    4.1267    1.0391   -0.1740 C   0  0  2  0  0  0  0  0  0  0  0  0
    5.1780    0.0251   -0.3670 N   0  0  0  0  0  0  0  0  0  0  0  0
    8.0479    5.6353   -1.8092 C   0  0  0  0  0  0  0  0  0  0  0  0
    5.1055    4.4019    4.0243 C   0  0  2  0  0  0  0  0  0  0  0  0
    4.8831    5.7872    4.3858 O   0  0  0  0  0  0  0  0  0  0  0  0
    8.4651    4.4904    7.1099 C   0  0  2  0  0  0  0  0  0  0  0  0
    7.9682    5.1985    8.3275 N   0  0  0  0  0  0  0  0  0  0  0  0
    3.3362    1.1169   -1.4931 C   0  0  1  0  0  0  0  0  0  0  0  0
    2.7935   -0.1625   -1.8240 O   0  0  0  0  0  0  0  0  0  0  0  0
    7.3319    4.2324   -1.8524 C   0  0  2  0  0  0  0  0  0  0  0  0
    6.5521    4.0880   -3.1112 N   0  0  0  0  0  0  0  0  0  0  0  0
    5.3759    3.4487    5.1894 C   0  0  2  0  0  0  0  0  0  0  0  0
    6.1104    4.1114    6.2674 O   0  0  0  0  0  0  0  0  0  0  0  0
    9.8650    5.0978    6.6220 C   0  0  1  0  0  0  0  0  0  0  0  0
   10.4843    4.1671    5.7059 O   0  0  0  0  0  0  0  0  0  0  0  0
    2.2264    2.1853   -1.3670 C   0  0  2  0  0  0  0  0  0  0  0  0
    1.4826    2.2570   -2.5612 O   0  0  0  0  0  0  0  0  0  0  0  0
    6.3708    4.0591   -0.6106 C   0  0  2  0  0  0  0  0  0  0  0  0
    6.1834    2.2789    4.6021 C   0  0  2  0  0  0  0  0  0  0  0  0
    6.9169    2.8936    3.5454 O   0  0  0  0  0  0  0  0  0  0  0  0
    9.7098    6.5258    5.9118 C   0  0  2  0  0  0  0  0  0  0  0  0
    9.3353    7.4680    6.9160 O   0  0  0  0  0  0  0  0  0  0  0  0
    2.8833    3.5678   -1.0406 C   0  0  2  0  0  0  0  0  0  0  0  0
    3.6568    3.4651    0.1967 O   0  0  0  0  0  0  0  0  0  0  0  0
    7.1041    4.2114    0.7401 C   0  0  2  0  0  0  0  0  0  0  0  0
    6.0548    4.2091    1.7468 O   0  0  0  0  0  0  0  0  0  0  0  0
    5.3260    1.0882    4.0716 C   0  0  0  0  0  0  0  0  0  0  0  0
    4.4710    0.6239    5.1119 O   0  0  0  0  0  0  0  0  0  0  0  0
    8.6133    6.4684    4.7820 C   0  0  1  0  0  0  0  0  0  0  0  0
    7.3741    6.0152    5.4370 O   0  0  0  0  0  0  0  0  0  0  0  0
    1.8654    4.6749   -0.8930 C   0  0  0  0  0  0  0  0  0  0  0  0
    1.0062    4.4027    0.1874 O   0  0  0  0  0  0  0  0  0  0  0  0
    7.9135    5.5750    0.7747 C   0  0  1  0  0  0  0  0  0  0  0  0
    8.7112    5.6454    1.9597 O   0  0  0  0  0  0  0  0  0  0  0  0
    8.3695    7.8563    4.0450 C   0  0  0  0  0  0  0  0  0  0  0  0
    7.9077    8.9729    4.9148 N   0  0  0  0  0  0  0  0  0  0  0  0
  1  2  1  6  0  0  0
  1  7  1  0  0  0  0
  1 30  1  0  0  0  0
  3  4  1  1  0  0  0
  3  9  1  0  0  0  0
  3 39  1  0  0  0  0
  5 10  1  0  0  0  0
  5 26  1  0  0  0  0
  5 32  1  6  0  0  0
  6 12  1  0  0  0  0
  6 36  1  0  0  0  0
  6 19  1  1  0  0  0
  7  8  1  6  0  0  0
  7 14  1  0  0  0  0
  9 16  1  0  0  0  0
 10 11  1  1  0  0  0
 10 18  1  0  0  0  0
 12 13  1  1  0  0  0
 12 20  1  0  0  0  0
 14 15  1  1  0  0  0
 14 22  1  0  0  0  0
 16 17  1  6  0  0  0
 16 24  1  0  0  0  0
 18 19  1  1  0  0  0
 18 25  1  0  0  0  0
 20 21  1  6  0  0  0
 20 27  1  0  0  0  0
 22 23  1  6  0  0  0
 22 29  1  0  0  0  0
 24  2  1  1  0  0  0
 24 31  1  0  0  0  0
 25 26  1  0  0  0  0
 25 33  1  6  0  0  0
 27 28  1  1  0  0  0
 27 35  1  0  0  0  0
 29 30  1  0  0  0  0
 29 37  1  1  0  0  0
 31 32  1  1  0  0  0
 31 39  1  0  0  0  0
 33 34  1  0  0  0  0
 35 36  1  0  0  0  0
 35 41  1  1  0  0  0
 37 38  1  0  0  0  0
 39 40  1  1  0  0  0
 41 42  1  0  0  0  0
M  END
>  <CHROM.1>
172.28329129,171.05668841,-145.28183646,-62.77366810,-171.18798215,-55.44312640
62.52493524,172.41120502,-60.47044146,6.20091322,4.12964511,2.23900929,2.35578384
-0.72816770,-1.42379049

>  <Name>
2o3w_lig

>  <RI>
0

>  <Rbt.Current_Directory>
/home/itssahil/PROJECTS/Mol_Feturizer/New_Systems/rnas/2o3w

>  <Rbt.Executable>
rbdock ($Id: //depot/dev/client3/rdock/2013.1/src/exe/rbdock.cxx#4 $)

>  <Rbt.Library>
libRbt.so (2013.1, Build901 2013/11/27)

>  <Rbt.Parameter_File>
/export/apps/rDock/src/rDock_2013.1_src/data/scripts/dock_solv.prm

>  <Rbt.Receptor>
prm/pocket_docking_6.prm

>  <SCORE>
-14.932

>  <SCORE.INTER>
-4.2196

>  <SCORE.INTER.CONST>
1

>  <SCORE.INTER.POLAR>
-1.69373

>  <SCORE.INTER.ROT>
9

>  <SCORE.INTER.SOLV>
18.3376

>  <SCORE.INTER.VDW>
-12.8798

>  <SCORE.INTER.norm>
-0.100467

>  <SCORE.INTRA>
-10.7124

>  <SCORE.INTRA.DIHEDRAL>
-21.878

>  <SCORE.INTRA.DIHEDRAL.0>
27.8999

>  <SCORE.INTRA.POLAR>
0

>  <SCORE.INTRA.POLAR.0>
0

>  <SCORE.INTRA.REPUL>
0

>  <SCORE.INTRA.REPUL.0>
0

>  <SCORE.INTRA.SOLV>
-2.99705

>  <SCORE.INTRA.SOLV.lig_0>
-104.479

>  <SCORE.INTRA.VDW>
1.72515

>  <SCORE.INTRA.VDW.0>
-6.17816

>  <SCORE.INTRA.norm>
-0.255057

>  <SCORE.RESTR>
0

>  <SCORE.RESTR.CAVITY>
0

>  <SCORE.RESTR.norm>
0

>  <SCORE.SYSTEM>
0

>  <SCORE.SYSTEM.CONST>
0

>  <SCORE.SYSTEM.DIHEDRAL>
0

>  <SCORE.SYSTEM.SOLV>
0

>  <SCORE.SYSTEM.norm>
0

>  <SCORE.heavy>
42

>  <SCORE.norm>
-0.355523

>  <RMSD>
7.209

$$$$
2o3w_lig
 OpenBabel11021811463D
libRbt.so/2013.1/901 2013/11/27
 42 45  0  0  0  0  0  0  0  0999 V2000
    5.2334    2.6669    0.5313 C   0  0  2  0  0  0  0  0  0  0  0  0
    6.5201    2.7909   -0.0983 O   0  0  0  0  0  0  0  0  0  0  0  0
    8.6801    6.0711   -1.9343 C   0  0  2  0  0  0  0  0  0  0  0  0
    9.3332    7.3923   -2.1755 N   0  0  0  0  0  0  0  0  0  0  0  0
    9.1453    4.4153    2.0988 C   0  0  1  0  0  0  0  0  0  0  0  0
    8.3438    6.5417    5.9171 C   0  0  1  0  0  0  0  0  0  0  0  0
    5.1626    1.2359    1.1440 C   0  0  2  0  0  0  0  0  0  0  0  0
    6.3470    0.9120    1.9582 N   0  0  0  0  0  0  0  0  0  0  0  0
    7.1159    6.2276   -1.7588 C   0  0  0  0  0  0  0  0  0  0  0  0
    7.7416    4.9168    2.5556 C   0  0  2  0  0  0  0  0  0  0  0  0
    7.3258    6.1554    1.9295 O   0  0  0  0  0  0  0  0  0  0  0  0
    8.6216    8.0352    6.3186 C   0  0  2  0  0  0  0  0  0  0  0  0
    9.9415    8.4930    5.7900 N   0  0  0  0  0  0  0  0  0  0  0  0
    5.0523    0.1430    0.0649 C   0  0  1  0  0  0  0  0  0  0  0  0
    4.9503   -1.1464    0.6715 O   0  0  0  0  0  0  0  0  0  0  0  0
    6.4830    4.8028   -1.5306 C   0  0  2  0  0  0  0  0  0  0  0  0
    5.0072    4.9111   -1.3757 N   0  0  0  0  0  0  0  0  0  0  0  0
    7.9248    4.9708    4.0731 C   0  0  2  0  0  0  0  0  0  0  0  0
    8.4124    6.2793    4.5099 O   0  0  0  0  0  0  0  0  0  0  0  0
    8.5609    8.1739    7.9136 C   0  0  1  0  0  0  0  0  0  0  0  0
    7.1817    8.0915    8.3375 O   0  0  0  0  0  0  0  0  0  0  0  0
    3.8373    0.4369   -0.8442 C   0  0  2  0  0  0  0  0  0  0  0  0
    3.7125   -0.5641   -1.8275 O   0  0  0  0  0  0  0  0  0  0  0  0
    7.1017    4.1173   -0.2487 C   0  0  2  0  0  0  0  0  0  0  0  0
    8.9285    3.8580    4.4193 C   0  0  2  0  0  0  0  0  0  0  0  0
    9.7496    3.7930    3.2557 O   0  0  0  0  0  0  0  0  0  0  0  0
    9.4216    7.0529    8.6686 C   0  0  2  0  0  0  0  0  0  0  0  0
   10.7997    7.3277    8.4201 O   0  0  0  0  0  0  0  0  0  0  0  0
    4.0233    1.8427   -1.5065 C   0  0  2  0  0  0  0  0  0  0  0  0
    4.1601    2.8622   -0.4665 O   0  0  0  0  0  0  0  0  0  0  0  0
    8.6383    3.9819   -0.3248 C   0  0  2  0  0  0  0  0  0  0  0  0
    9.0458    3.5124    0.9898 O   0  0  0  0  0  0  0  0  0  0  0  0
    8.2895    2.4698    4.7337 C   0  0  0  0  0  0  0  0  0  0  0  0
    9.3172    1.5467    5.0809 O   0  0  0  0  0  0  0  0  0  0  0  0
    9.0483    5.6162    8.1408 C   0  0  1  0  0  0  0  0  0  0  0  0
    9.2856    5.6400    6.6870 O   0  0  0  0  0  0  0  0  0  0  0  0
    2.8723    2.2159   -2.4117 C   0  0  0  0  0  0  0  0  0  0  0  0
    1.6705    2.2453   -1.6809 O   0  0  0  0  0  0  0  0  0  0  0  0
    9.2979    5.3874   -0.6492 C   0  0  1  0  0  0  0  0  0  0  0  0
   10.7028    5.2341   -0.8690 O   0  0  0  0  0  0  0  0  0  0  0  0
    9.8821    4.4418    8.8146 C   0  0  0  0  0  0  0  0  0  0  0  0
    9.7299    4.3106   10.2898 N   0  0  0  0  0  0  0  0  0  0  0  0
  1  2  1  6  0  0  0
  1  7  1  0  0  0  0
  1 30  1  0  0  0  0
  3  4  1  1  0  0  0
  3  9  1  0  0  0  0
  3 39  1  0  0  0  0
  5 10  1  0  0  0  0
  5 26  1  0  0  0  0
  5 32  1  6  0  0  0
  6 12  1  0  0  0  0
  6 36  1  0  0  0  0
  6 19  1  6  0  0  0
  7  8  1  6  0  0  0
  7 14  1  0  0  0  0
  9 16  1  0  0  0  0
 10 11  1  6  0  0  0
 10 18  1  0  0  0  0
 12 13  1  1  0  0  0
 12 20  1  0  0  0  0
 14 15  1  1  0  0  0
 14 22  1  0  0  0  0
 16 17  1  1  0  0  0
 16 24  1  0  0  0  0
 18 19  1  6  0  0  0
 18 25  1  0  0  0  0
 20 21  1  1  0  0  0
 20 27  1  0  0  0  0
 22 23  1  6  0  0  0
 22 29  1  0  0  0  0
 24  2  1  6  0  0  0
 24 31  1  0  0  0  0
 25 26  1  0  0  0  0
 25 33  1  6  0  0  0
 27 28  1  6  0  0  0
 27 35  1  0  0  0  0
 29 30  1  0  0  0  0
 29 37  1  1  0  0  0
 31 32  1  1  0  0  0
 31 39  1  0  0  0  0
 33 34  1  0  0  0  0
 35 36  1  0  0  0  0
 35 41  1  1  0  0  0
 37 38  1  0  0  0  0
 39 40  1  6  0  0  0
 41 42  1  0  0  0  0
M  END
>  <CHROM.1>
-154.19485715,69.40945628,-169.22781040,166.86475012,-82.16884123,-178.02725642
59.84747592,-78.86677222,60.71142391,7.43849693,4.24632209,2.47168444,2.39104776
-0.96532190,-1.30051500

>  <Name>
2o3w_lig

>  <RI>
0

>  <Rbt.Current_Directory>
/home/itssahil/PROJECTS/Mol_Feturizer/New_Systems/rnas/2o3w

>  <Rbt.Executable>
rbdock ($Id: //depot/dev/client3/rdock/2013.1/src/exe/rbdock.cxx#4 $)

>  <Rbt.Library>
libRbt.so (2013.1, Build901 2013/11/27)

>  <Rbt.Parameter_File>
/export/apps/rDock/src/rDock_2013.1_src/data/scripts/dock_solv.prm

>  <Rbt.Receptor>
prm/pocket_docking_8.prm

>  <SCORE>
-16.5424

>  <SCORE.INTER>
-9.07227

>  <SCORE.INTER.CONST>
1

>  <SCORE.INTER.POLAR>
-2.03436

>  <SCORE.INTER.ROT>
9

>  <SCORE.INTER.SOLV>
17.5005

>  <SCORE.INTER.VDW>
-14.7005

>  <SCORE.INTER.norm>
-0.216006

>  <SCORE.INTRA>
-7.47015

>  <SCORE.INTRA.DIHEDRAL>
-19.3673

>  <SCORE.INTRA.DIHEDRAL.0>
27.8999

>  <SCORE.INTRA.POLAR>
0

>  <SCORE.INTRA.POLAR.0>
0

>  <SCORE.INTRA.REPUL>
0

>  <SCORE.INTRA.REPUL.0>
0

>  <SCORE.INTRA.SOLV>
-0.702389

>  <SCORE.INTRA.SOLV.lig_0>
-104.479

>  <SCORE.INTRA.VDW>
2.56468

>  <SCORE.INTRA.VDW.0>
-6.17816

>  <SCORE.INTRA.norm>
-0.177861

>  <SCORE.RESTR>
0

>  <SCORE.RESTR.CAVITY>
0

>  <SCORE.RESTR.norm>
0

>  <SCORE.SYSTEM>
0

>  <SCORE.SYSTEM.CONST>
0

>  <SCORE.SYSTEM.DIHEDRAL>
0

>  <SCORE.SYSTEM.SOLV>
0

>  <SCORE.SYSTEM.norm>
0

>  <SCORE.heavy>
42

>  <SCORE.norm>
-0.393867

>  <RMSD>
7.275

$$$$
2o3w_lig
 OpenBabel11021811463D
libRbt.so/2013.1/901 2013/11/27
 42 45  0  0  0  0  0  0  0  0999 V2000
    7.7100    5.6373    4.8221 C   0  0  2  0  0  0  0  0  0  0  0  0
    6.7469    6.3881    4.0633 O   0  0  0  0  0  0  0  0  0  0  0  0
    5.1022    3.1276    1.7267 C   0  0  2  0  0  0  0  0  0  0  0  0
    4.3996    2.3432    0.6676 N   0  0  0  0  0  0  0  0  0  0  0  0
    7.2791    6.9251    0.6839 C   0  0  1  0  0  0  0  0  0  0  0  0
    6.6123    9.9160   -2.5161 C   0  0  1  0  0  0  0  0  0  0  0  0
    8.0755    6.4960    6.0700 C   0  0  2  0  0  0  0  0  0  0  0  0
    6.8845    6.9855    6.7860 N   0  0  0  0  0  0  0  0  0  0  0  0
    4.0905    4.0373    2.5334 C   0  0  0  0  0  0  0  0  0  0  0  0
    8.3653    7.9267    0.1861 C   0  0  2  0  0  0  0  0  0  0  0  0
    8.5513    9.0729    1.0526 O   0  0  0  0  0  0  0  0  0  0  0  0
    5.5905   11.1091   -2.4830 C   0  0  2  0  0  0  0  0  0  0  0  0
    4.3442   10.7241   -1.7554 N   0  0  0  0  0  0  0  0  0  0  0  0
    8.9134    7.7343    5.7021 C   0  0  1  0  0  0  0  0  0  0  0  0
    9.2583    8.4687    6.8780 O   0  0  0  0  0  0  0  0  0  0  0  0
    4.8845    4.8201    3.6467 C   0  0  2  0  0  0  0  0  0  0  0  0
    3.9592    5.6770    4.4362 N   0  0  0  0  0  0  0  0  0  0  0  0
    7.8592    8.2373   -1.2234 C   0  0  2  0  0  0  0  0  0  0  0  0
    6.9541    9.3870   -1.2289 O   0  0  0  0  0  0  0  0  0  0  0  0
    5.2631   11.5666   -3.9831 C   0  0  1  0  0  0  0  0  0  0  0  0
    6.4041   12.2770   -4.5145 O   0  0  0  0  0  0  0  0  0  0  0  0
   10.1731    7.2917    4.9234 C   0  0  2  0  0  0  0  0  0  0  0  0
   10.9597    8.4128    4.5936 O   0  0  0  0  0  0  0  0  0  0  0  0
    6.0141    5.7154    2.9999 C   0  0  2  0  0  0  0  0  0  0  0  0
    7.1458    6.9641   -1.7085 C   0  0  2  0  0  0  0  0  0  0  0  0
    6.6370    6.4015   -0.5014 O   0  0  0  0  0  0  0  0  0  0  0  0
    4.9027   10.3361   -4.9441 C   0  0  2  0  0  0  0  0  0  0  0  0
    3.6374    9.8222   -4.5301 O   0  0  0  0  0  0  0  0  0  0  0  0
    9.7319    6.5264    3.6314 C   0  0  2  0  0  0  0  0  0  0  0  0
    8.9096    5.3738    3.9991 O   0  0  0  0  0  0  0  0  0  0  0  0
    7.0104    4.8992    2.1475 C   0  0  2  0  0  0  0  0  0  0  0  0
    7.8510    5.8879    1.4914 O   0  0  0  0  0  0  0  0  0  0  0  0
    8.0565    5.9459   -2.4621 C   0  0  0  0  0  0  0  0  0  0  0  0
    8.5969    6.5682   -3.6238 O   0  0  0  0  0  0  0  0  0  0  0  0
    6.0048    9.2143   -4.8477 C   0  0  1  0  0  0  0  0  0  0  0  0
    6.0760    8.8316   -3.4269 O   0  0  0  0  0  0  0  0  0  0  0  0
   10.9062    6.0493    2.8086 C   0  0  0  0  0  0  0  0  0  0  0  0
   10.4563    5.5029    1.5927 O   0  0  0  0  0  0  0  0  0  0  0  0
    6.2305    4.0256    1.0778 C   0  0  1  0  0  0  0  0  0  0  0  0
    7.1383    3.1586    0.3924 O   0  0  0  0  0  0  0  0  0  0  0  0
    5.7088    7.9367   -5.7469 C   0  0  0  0  0  0  0  0  0  0  0  0
    6.8537    7.0035   -5.9337 N   0  0  0  0  0  0  0  0  0  0  0  0
  1  2  1  6  0  0  0
  1  7  1  0  0  0  0
  1 30  1  0  0  0  0
  3  4  1  6  0  0  0
  3  9  1  0  0  0  0
  3 39  1  0  0  0  0
  5 10  1  0  0  0  0
  5 26  1  0  0  0  0
  5 32  1  6  0  0  0
  6 12  1  0  0  0  0
  6 36  1  0  0  0  0
  6 19  1  1  0  0  0
  7  8  1  6  0  0  0
  7 14  1  0  0  0  0
  9 16  1  0  0  0  0
 10 11  1  1  0  0  0
 10 18  1  0  0  0  0
 12 13  1  6  0  0  0
 12 20  1  0  0  0  0
 14 15  1  1  0  0  0
 14 22  1  0  0  0  0
 16 17  1  6  0  0  0
 16 24  1  0  0  0  0
 18 19  1  1  0  0  0
 18 25  1  0  0  0  0
 20 21  1  6  0  0  0
 20 27  1  0  0  0  0
 22 23  1  6  0  0  0
 22 29  1  0  0  0  0
 24  2  1  1  0  0  0
 24 31  1  0  0  0  0
 25 26  1  0  0  0  0
 25 33  1  1  0  0  0
 27 28  1  1  0  0  0
 27 35  1  0  0  0  0
 29 30  1  0  0  0  0
 29 37  1  1  0  0  0
 31 32  1  6  0  0  0
 31 39  1  0  0  0  0
 33 34  1  0  0  0  0
 35 36  1  0  0  0  0
 35 41  1  6  0  0  0
 37 38  1  0  0  0  0
 39 40  1  1  0  0  0
 41 42  1  0  0  0  0
M  END
>  <CHROM.1>
-167.00837042,175.30015953,177.47368885,169.08075224,76.88081157,-60.62529323
-173.47551556,-55.84915979,166.40072923,7.08689728,7.17365800,0.54488589
1.15700571,0.97295651,2.29087966

>  <Name>
2o3w_lig

>  <RI>
0

>  <Rbt.Current_Directory>
/home/itssahil/PROJECTS/Mol_Feturizer/New_Systems/rnas/2o3w

>  <Rbt.Executable>
rbdock ($Id: //depot/dev/client3/rdock/2013.1/src/exe/rbdock.cxx#4 $)

>  <Rbt.Library>
libRbt.so (2013.1, Build901 2013/11/27)

>  <Rbt.Parameter_File>
/export/apps/rDock/src/rDock_2013.1_src/data/scripts/dock_solv.prm

>  <Rbt.Receptor>
prm/pocket_docking_8.prm

>  <SCORE>
-29.2206

>  <SCORE.INTER>
-18.4001

>  <SCORE.INTER.CONST>
1

>  <SCORE.INTER.POLAR>
-3.88235

>  <SCORE.INTER.ROT>
9

>  <SCORE.INTER.SOLV>
16.7922

>  <SCORE.INTER.VDW>
-14.523

>  <SCORE.INTER.norm>
-0.438099

>  <SCORE.INTRA>
-10.8205

>  <SCORE.INTRA.DIHEDRAL>
-24.0533

>  <SCORE.INTRA.DIHEDRAL.0>
27.8999

>  <SCORE.INTRA.POLAR>
0

>  <SCORE.INTRA.POLAR.0>
0

>  <SCORE.INTRA.REPUL>
0

>  <SCORE.INTRA.REPUL.0>
0

>  <SCORE.INTRA.SOLV>
-1.90178

>  <SCORE.INTRA.SOLV.lig_0>
-104.479

>  <SCORE.INTRA.VDW>
2.15707

>  <SCORE.INTRA.VDW.0>
-6.17816

>  <SCORE.INTRA.norm>
-0.25763

>  <SCORE.RESTR>
0

>  <SCORE.RESTR.CAVITY>
0

>  <SCORE.RESTR.norm>
0

>  <SCORE.SYSTEM>
0

>  <SCORE.SYSTEM.CONST>
0

>  <SCORE.SYSTEM.DIHEDRAL>
0

>  <SCORE.SYSTEM.SOLV>
0

>  <SCORE.SYSTEM.norm>
0

>  <SCORE.heavy>
42

>  <SCORE.norm>
-0.695729

>  <RMSD>
7.314

$$$$
2o3w_lig
 OpenBabel11021811463D
libRbt.so/2013.1/901 2013/11/27
 42 45  0  0  0  0  0  0  0  0999 V2000
    5.5929    5.6873    3.5699 C   0  0  2  0  0  0  0  0  0  0  0  0
    6.9878    5.9437    3.3338 O   0  0  0  0  0  0  0  0  0  0  0  0
    9.1263    6.7943   -0.3404 C   0  0  2  0  0  0  0  0  0  0  0  0
    9.6973    6.6895   -1.7164 N   0  0  0  0  0  0  0  0  0  0  0  0
    4.5970    6.9839    0.0021 C   0  0  1  0  0  0  0  0  0  0  0  0
    0.6812    7.5278   -1.8659 C   0  0  1  0  0  0  0  0  0  0  0  0
    5.2527    6.2771    4.9715 C   0  0  2  0  0  0  0  0  0  0  0  0
    5.7201    7.6656    5.1274 N   0  0  0  0  0  0  0  0  0  0  0  0
    9.7171    5.6788    0.6127 C   0  0  0  0  0  0  0  0  0  0  0  0
    3.1157    6.5554    0.2323 C   0  0  2  0  0  0  0  0  0  0  0  0
    2.7174    5.3837   -0.5211 O   0  0  0  0  0  0  0  0  0  0  0  0
    0.4118    7.3588   -3.4047 C   0  0  2  0  0  0  0  0  0  0  0  0
    0.7818    8.5989   -4.1503 N   0  0  0  0  0  0  0  0  0  0  0  0
    5.8841    5.4641    6.1166 C   0  0  1  0  0  0  0  0  0  0  0  0
    5.5142    6.0160    7.3812 O   0  0  0  0  0  0  0  0  0  0  0  0
    9.0962    5.8546    2.0501 C   0  0  2  0  0  0  0  0  0  0  0  0
    9.6421    4.8283    2.9786 N   0  0  0  0  0  0  0  0  0  0  0  0
    2.3754    7.8483   -0.1136 C   0  0  2  0  0  0  0  0  0  0  0  0
    2.0233    7.9036   -1.5326 O   0  0  0  0  0  0  0  0  0  0  0  0
   -1.1299    6.9878   -3.6339 C   0  0  1  0  0  0  0  0  0  0  0  0
   -1.3462    5.6178   -3.2272 O   0  0  0  0  0  0  0  0  0  0  0  0
    5.4517    3.9848    5.9980 C   0  0  2  0  0  0  0  0  0  0  0  0
    6.0081    3.2299    7.0492 O   0  0  0  0  0  0  0  0  0  0  0  0
    7.5218    5.7359    1.9951 C   0  0  2  0  0  0  0  0  0  0  0  0
    3.3240    8.9964    0.2704 C   0  0  2  0  0  0  0  0  0  0  0  0
    4.6153    8.4286    0.0639 O   0  0  0  0  0  0  0  0  0  0  0  0
   -2.1274    7.9496   -2.8293 C   0  0  2  0  0  0  0  0  0  0  0  0
   -2.0617    9.2408   -3.4333 O   0  0  0  0  0  0  0  0  0  0  0  0
    5.9150    3.4271    4.6110 C   0  0  2  0  0  0  0  0  0  0  0  0
    5.3326    4.2323    3.5376 O   0  0  0  0  0  0  0  0  0  0  0  0
    6.8770    6.7611    1.0368 C   0  0  2  0  0  0  0  0  0  0  0  0
    5.4724    6.3906    0.9700 O   0  0  0  0  0  0  0  0  0  0  0  0
    3.1676    9.5184    1.7323 C   0  0  0  0  0  0  0  0  0  0  0  0
    3.4925    8.4721    2.6427 O   0  0  0  0  0  0  0  0  0  0  0  0
   -1.7131    8.0358   -1.3117 C   0  0  1  0  0  0  0  0  0  0  0  0
   -0.3187    8.5110   -1.2945 O   0  0  0  0  0  0  0  0  0  0  0  0
    5.5262    1.9811    4.4065 C   0  0  0  0  0  0  0  0  0  0  0  0
    4.1254    1.8504    4.4105 O   0  0  0  0  0  0  0  0  0  0  0  0
    7.5507    6.6721   -0.3964 C   0  0  1  0  0  0  0  0  0  0  0  0
    7.0611    7.7201   -1.2376 O   0  0  0  0  0  0  0  0  0  0  0  0
   -2.6328    8.9992   -0.4430 C   0  0  0  0  0  0  0  0  0  0  0  0
   -4.0764    8.6383   -0.3956 N   0  0  0  0  0  0  0  0  0  0  0  0
  1  2  1  1  0  0  0
  1  7  1  0  0  0  0
  1 30  1  0  0  0  0
  3  4  1  6  0  0  0
  3  9  1  0  0  0  0
  3 39  1  0  0  0  0
  5 10  1  0  0  0  0
  5 26  1  0  0  0  0
  5 32  1  1  0  0  0
  6 12  1  0  0  0  0
  6 36  1  0  0  0  0
  6 19  1  6  0  0  0
  7  8  1  6  0  0  0
  7 14  1  0  0  0  0
  9 16  1  0  0  0  0
 10 11  1  6  0  0  0
 10 18  1  0  0  0  0
 12 13  1  6  0  0  0
 12 20  1  0  0  0  0
 14 15  1  1  0  0  0
 14 22  1  0  0  0  0
 16 17  1  1  0  0  0
 16 24  1  0  0  0  0
 18 19  1  6  0  0  0
 18 25  1  0  0  0  0
 20 21  1  1  0  0  0
 20 27  1  0  0  0  0
 22 23  1  1  0  0  0
 22 29  1  0  0  0  0
 24  2  1  1  0  0  0
 24 31  1  0  0  0  0
 25 26  1  0  0  0  0
 25 33  1  1  0  0  0
 27 28  1  6  0  0  0
 27 35  1  0  0  0  0
 29 30  1  0  0  0  0
 29 37  1  6  0  0  0
 31 32  1  6  0  0  0
 31 39  1  0  0  0  0
 33 34  1  0  0  0  0
 35 36  1  0  0  0  0
 35 41  1  1  0  0  0
 37 38  1  0  0  0  0
 39 40  1  6  0  0  0
 41 42  1  0  0  0  0
M  END
>  <CHROM.1>
-168.13768601,-173.37821228,-169.90520915,98.41016090,-170.89158883,63.08236698
62.74638261,-169.58614498,59.89758923,3.90470623,6.57147713,1.04663786,0.70878753
-0.06552066,1.95875065

>  <Name>
2o3w_lig

>  <RI>
0

>  <Rbt.Current_Directory>
/home/itssahil/PROJECTS/Mol_Feturizer/New_Systems/rnas/2o3w

>  <Rbt.Executable>
rbdock ($Id: //depot/dev/client3/rdock/2013.1/src/exe/rbdock.cxx#4 $)

>  <Rbt.Library>
libRbt.so (2013.1, Build901 2013/11/27)

>  <Rbt.Parameter_File>
/export/apps/rDock/src/rDock_2013.1_src/data/scripts/dock_solv.prm

>  <Rbt.Receptor>
prm/pocket_docking_8.prm

>  <SCORE>
-18.368

>  <SCORE.INTER>
-8.41263

>  <SCORE.INTER.CONST>
1

>  <SCORE.INTER.POLAR>
-1.16771

>  <SCORE.INTER.ROT>
9

>  <SCORE.INTER.SOLV>
17.1401

>  <SCORE.INTER.VDW>
-17.0294

>  <SCORE.INTER.norm>
-0.200301

>  <SCORE.INTRA>
-9.95534

>  <SCORE.INTRA.DIHEDRAL>
-20.2819

>  <SCORE.INTRA.DIHEDRAL.0>
27.8999

>  <SCORE.INTRA.POLAR>
0

>  <SCORE.INTRA.POLAR.0>
0

>  <SCORE.INTRA.REPUL>
0

>  <SCORE.INTRA.REPUL.0>
0

>  <SCORE.INTRA.SOLV>
-4.17844

>  <SCORE.INTRA.SOLV.lig_0>
-104.479

>  <SCORE.INTRA.VDW>
2.27482

>  <SCORE.INTRA.VDW.0>
-6.17816

>  <SCORE.INTRA.norm>
-0.237032

>  <SCORE.RESTR>
0

>  <SCORE.RESTR.CAVITY>
0

>  <SCORE.RESTR.norm>
0

>  <SCORE.SYSTEM>
0

>  <SCORE.SYSTEM.CONST>
0

>  <SCORE.SYSTEM.DIHEDRAL>
0

>  <SCORE.SYSTEM.SOLV>
0

>  <SCORE.SYSTEM.norm>
0

>  <SCORE.heavy>
42

>  <SCORE.norm>
-0.437333

>  <RMSD>
7.338

$$$$
2o3w_lig
 OpenBabel11021811463D
libRbt.so/2013.1/901 2013/11/27
 42 45  0  0  0  0  0  0  0  0999 V2000
   10.9688    5.0616    5.8735 C   0  0  2  0  0  0  0  0  0  0  0  0
   10.5453    5.2434    4.5116 O   0  0  0  0  0  0  0  0  0  0  0  0
    6.6927    7.0914    5.2452 C   0  0  2  0  0  0  0  0  0  0  0  0
    5.4126    7.8406    5.0701 N   0  0  0  0  0  0  0  0  0  0  0  0
    7.3924    3.0415    3.0324 C   0  0  1  0  0  0  0  0  0  0  0  0
    5.5189   -0.2760    0.7272 C   0  0  1  0  0  0  0  0  0  0  0  0
   12.1374    4.0311    5.8530 C   0  0  2  0  0  0  0  0  0  0  0  0
   13.1737    4.3734    4.8632 N   0  0  0  0  0  0  0  0  0  0  0  0
    7.9435    8.0436    5.0705 C   0  0  0  0  0  0  0  0  0  0  0  0
    7.4344    2.4929    1.5736 C   0  0  2  0  0  0  0  0  0  0  0  0
    6.4278    3.0622    0.7008 O   0  0  0  0  0  0  0  0  0  0  0  0
    5.4918    0.4575   -0.6620 C   0  0  2  0  0  0  0  0  0  0  0  0
    4.6329    1.6781   -0.6042 N   0  0  0  0  0  0  0  0  0  0  0  0
   11.6553    2.6076    5.5179 C   0  0  1  0  0  0  0  0  0  0  0  0
   12.7508    1.6912    5.5492 O   0  0  0  0  0  0  0  0  0  0  0  0
    9.2586    7.2036    5.2881 C   0  0  2  0  0  0  0  0  0  0  0  0
   10.4575    8.0730    5.1450 N   0  0  0  0  0  0  0  0  0  0  0  0
    7.3232    0.9874    1.8191 C   0  0  2  0  0  0  0  0  0  0  0  0
    5.9285    0.5452    1.8279 O   0  0  0  0  0  0  0  0  0  0  0  0
    4.9726   -0.5589   -1.7865 C   0  0  1  0  0  0  0  0  0  0  0  0
    6.0181   -1.5156   -2.0701 O   0  0  0  0  0  0  0  0  0  0  0  0
   10.5441    2.1929    6.5090 C   0  0  2  0  0  0  0  0  0  0  0  0
   10.1035    0.8851    6.2261 O   0  0  0  0  0  0  0  0  0  0  0  0
    9.3386    6.0153    4.2500 C   0  0  2  0  0  0  0  0  0  0  0  0
    7.9987    0.7276    3.1762 C   0  0  2  0  0  0  0  0  0  0  0  0
    7.7581    1.9372    3.8914 O   0  0  0  0  0  0  0  0  0  0  0  0
    3.6386   -1.3347   -1.3554 C   0  0  2  0  0  0  0  0  0  0  0  0
    2.5753   -0.3833   -1.3315 O   0  0  0  0  0  0  0  0  0  0  0  0
    9.3597    3.2106    6.4032 C   0  0  2  0  0  0  0  0  0  0  0  0
    9.8439    4.5605    6.6915 O   0  0  0  0  0  0  0  0  0  0  0  0
    8.1179    5.0721    4.3242 C   0  0  2  0  0  0  0  0  0  0  0  0
    8.2662    4.1660    3.1966 O   0  0  0  0  0  0  0  0  0  0  0  0
    9.5252    0.4134    3.1021 C   0  0  0  0  0  0  0  0  0  0  0  0
   10.2062    1.5228    2.5239 O   0  0  0  0  0  0  0  0  0  0  0  0
    3.8130   -1.9933    0.0652 C   0  0  1  0  0  0  0  0  0  0  0  0
    4.1618   -0.8964    0.9847 O   0  0  0  0  0  0  0  0  0  0  0  0
    8.2259    2.8835    7.3472 C   0  0  0  0  0  0  0  0  0  0  0  0
    8.6527    3.0142    8.6814 O   0  0  0  0  0  0  0  0  0  0  0  0
    6.7730    5.9043    4.2036 C   0  0  1  0  0  0  0  0  0  0  0  0
    5.6448    5.0533    4.4236 O   0  0  0  0  0  0  0  0  0  0  0  0
    2.5205   -2.7583    0.5875 C   0  0  0  0  0  0  0  0  0  0  0  0
    1.2858   -1.9333    0.6957 N   0  0  0  0  0  0  0  0  0  0  0  0
  1  2  1  6  0  0  0
  1  7  1  0  0  0  0
  1 30  1  0  0  0  0
  3  4  1  6  0  0  0
  3  9  1  0  0  0  0
  3 39  1  0  0  0  0
  5 10  1  0  0  0  0
  5 26  1  0  0  0  0
  5 32  1  6  0  0  0
  6 12  1  0  0  0  0
  6 36  1  0  0  0  0
  6 19  1  1  0  0  0
  7  8  1  6  0  0  0
  7 14  1  0  0  0  0
  9 16  1  0  0  0  0
 10 11  1  6  0  0  0
 10 18  1  0  0  0  0
 12 13  1  1  0  0  0
 12 20  1  0  0  0  0
 14 15  1  1  0  0  0
 14 22  1  0  0  0  0
 16 17  1  6  0  0  0
 16 24  1  0  0  0  0
 18 19  1  1  0  0  0
 18 25  1  0  0  0  0
 20 21  1  1  0  0  0
 20 27  1  0  0  0  0
 22 23  1  6  0  0  0
 22 29  1  0  0  0  0
 24  2  1  1  0  0  0
 24 31  1  0  0  0  0
 25 26  1  0  0  0  0
 25 33  1  6  0  0  0
 27 28  1  1  0  0  0
 27 35  1  0  0  0  0
 29 30  1  0  0  0  0
 29 37  1  1  0  0  0
 31 32  1  6  0  0  0
 31 39  1  0  0  0  0
 33 34  1  0  0  0  0
 35 36  1  0  0  0  0
 35 41  1  1  0  0  0
 37 38  1  0  0  0  0
 39 40  1  1  0  0  0
 41 42  1  0  0  0  0
M  END
>  <CHROM.1>
171.50219835,162.07360348,-67.39251652,111.02231145,36.41246464,60.68259747
65.02162922,172.59934076,-58.25316884,7.63179054,2.57617875,3.26896753,-0.83715064
0.54138399,-2.76937263

>  <Name>
2o3w_lig

>  <RI>
0

>  <Rbt.Current_Directory>
/home/itssahil/PROJECTS/Mol_Feturizer/New_Systems/rnas/2o3w

>  <Rbt.Executable>
rbdock ($Id: //depot/dev/client3/rdock/2013.1/src/exe/rbdock.cxx#4 $)

>  <Rbt.Library>
libRbt.so (2013.1, Build901 2013/11/27)

>  <Rbt.Parameter_File>
/export/apps/rDock/src/rDock_2013.1_src/data/scripts/dock_solv.prm

>  <Rbt.Receptor>
prm/pocket_docking_6.prm

>  <SCORE>
-11.3219

>  <SCORE.INTER>
-3.99413

>  <SCORE.INTER.CONST>
1

>  <SCORE.INTER.POLAR>
-0.894427

>  <SCORE.INTER.ROT>
9

>  <SCORE.INTER.SOLV>
16.4315

>  <SCORE.INTER.VDW>
-14.7585

>  <SCORE.INTER.norm>
-0.0950983

>  <SCORE.INTRA>
-7.32832

>  <SCORE.INTRA.DIHEDRAL>
-16.1138

>  <SCORE.INTRA.DIHEDRAL.0>
27.8999

>  <SCORE.INTRA.POLAR>
0

>  <SCORE.INTRA.POLAR.0>
0

>  <SCORE.INTRA.REPUL>
0.00539299

>  <SCORE.INTRA.REPUL.0>
0

>  <SCORE.INTRA.SOLV>
0.243179

>  <SCORE.INTRA.SOLV.lig_0>
-104.479

>  <SCORE.INTRA.VDW>
0.58003

>  <SCORE.INTRA.VDW.0>
-6.17816

>  <SCORE.INTRA.norm>
-0.174484

>  <SCORE.RESTR>
0.000558414

>  <SCORE.RESTR.CAVITY>
0.000558414

>  <SCORE.RESTR.norm>
1.32956e-05

>  <SCORE.SYSTEM>
0

>  <SCORE.SYSTEM.CONST>
0

>  <SCORE.SYSTEM.DIHEDRAL>
0

>  <SCORE.SYSTEM.SOLV>
0

>  <SCORE.SYSTEM.norm>
0

>  <SCORE.heavy>
42

>  <SCORE.norm>
-0.269569

>  <RMSD>
7.373

$$$$
2o3w_lig
 OpenBabel11021811463D
libRbt.so/2013.1/901 2013/11/27
 42 45  0  0  0  0  0  0  0  0999 V2000
    6.8399    5.8760    5.7404 C   0  0  2  0  0  0  0  0  0  0  0  0
    6.6242    5.4975    4.3702 O   0  0  0  0  0  0  0  0  0  0  0  0
    3.0417    4.7586    2.0430 C   0  0  2  0  0  0  0  0  0  0  0  0
    1.7207    4.9222    1.3657 N   0  0  0  0  0  0  0  0  0  0  0  0
    6.9948    7.0642    0.7147 C   0  0  1  0  0  0  0  0  0  0  0  0
    7.9210    7.3364   -2.1389 C   0  0  1  0  0  0  0  0  0  0  0  0
    6.8005    7.4329    5.7940 C   0  0  2  0  0  0  0  0  0  0  0  0
    5.6164    7.9905    5.1176 N   0  0  0  0  0  0  0  0  0  0  0  0
    2.8938    4.8356    3.6159 C   0  0  0  0  0  0  0  0  0  0  0  0
    7.8845    8.3444    0.6950 C   0  0  2  0  0  0  0  0  0  0  0  0
    7.2357    9.5042    0.1181 O   0  0  0  0  0  0  0  0  0  0  0  0
    8.1441    7.0606   -3.6696 C   0  0  2  0  0  0  0  0  0  0  0  0
    8.4242    8.3301   -4.4051 N   0  0  0  0  0  0  0  0  0  0  0  0
    8.0341    8.0718    5.1300 C   0  0  1  0  0  0  0  0  0  0  0  0
    7.9755    9.4952    5.2373 O   0  0  0  0  0  0  0  0  0  0  0  0
    4.3119    4.6345    4.2723 C   0  0  2  0  0  0  0  0  0  0  0  0
    4.2077    4.6868    5.7555 N   0  0  0  0  0  0  0  0  0  0  0  0
    9.1192    7.8365   -0.0514 C   0  0  2  0  0  0  0  0  0  0  0  0
    8.9942    8.0349   -1.4956 O   0  0  0  0  0  0  0  0  0  0  0  0
    6.8542    6.3217   -4.2673 C   0  0  1  0  0  0  0  0  0  0  0  0
    6.8427    4.9531   -3.8028 O   0  0  0  0  0  0  0  0  0  0  0  0
    9.3188    7.5093    5.7798 C   0  0  2  0  0  0  0  0  0  0  0  0
   10.4573    8.0970    5.1942 O   0  0  0  0  0  0  0  0  0  0  0  0
    5.3195    5.7438    3.7722 C   0  0  2  0  0  0  0  0  0  0  0  0
    9.2419    6.3437    0.2975 C   0  0  2  0  0  0  0  0  0  0  0  0
    7.8866    5.9474    0.4940 O   0  0  0  0  0  0  0  0  0  0  0  0
    5.4811    7.0385   -3.8572 C   0  0  2  0  0  0  0  0  0  0  0  0
    5.4257    8.2884   -4.5435 O   0  0  0  0  0  0  0  0  0  0  0  0
    9.3439    5.9548    5.5990 C   0  0  2  0  0  0  0  0  0  0  0  0
    8.1485    5.3697    6.2060 O   0  0  0  0  0  0  0  0  0  0  0  0
    5.4719    5.7655    2.2355 C   0  0  2  0  0  0  0  0  0  0  0  0
    6.2735    6.9441    1.9478 O   0  0  0  0  0  0  0  0  0  0  0  0
   10.1064    6.0313    1.5581 C   0  0  0  0  0  0  0  0  0  0  0  0
    9.5873    6.7484    2.6740 O   0  0  0  0  0  0  0  0  0  0  0  0
    5.4175    7.2683   -2.2998 C   0  0  1  0  0  0  0  0  0  0  0  0
    6.6070    8.0662   -1.9551 O   0  0  0  0  0  0  0  0  0  0  0  0
   10.5687    5.3177    6.2134 C   0  0  0  0  0  0  0  0  0  0  0  0
   10.4778    3.9160    6.1337 O   0  0  0  0  0  0  0  0  0  0  0  0
    4.0484    5.8713    1.5441 C   0  0  1  0  0  0  0  0  0  0  0  0
    4.1776    5.7390    0.1258 O   0  0  0  0  0  0  0  0  0  0  0  0
    4.0984    8.0073   -1.8075 C   0  0  0  0  0  0  0  0  0  0  0  0
    3.8473    9.3442   -2.4127 N   0  0  0  0  0  0  0  0  0  0  0  0
  1  2  1  6  0  0  0
  1  7  1  0  0  0  0
  1 30  1  0  0  0  0
  3  4  1  6  0  0  0
  3  9  1  0  0  0  0
  3 39  1  0  0  0  0
  5 10  1  0  0  0  0
  5 26  1  0  0  0  0
  5 32  1  1  0  0  0
  6 12  1  0  0  0  0
  6 36  1  0  0  0  0
  6 19  1  6  0  0  0
  7  8  1  6  0  0  0
  7 14  1  0  0  0  0
  9 16  1  0  0  0  0
 10 11  1  6  0  0  0
 10 18  1  0  0  0  0
 12 13  1  6  0  0  0
 12 20  1  0  0  0  0
 14 15  1  1  0  0  0
 14 22  1  0  0  0  0
 16 17  1  1  0  0  0
 16 24  1  0  0  0  0
 18 19  1  6  0  0  0
 18 25  1  0  0  0  0
 20 21  1  1  0  0  0
 20 27  1  0  0  0  0
 22 23  1  6  0  0  0
 22 29  1  0  0  0  0
 24  2  1  1  0  0  0
 24 31  1  0  0  0  0
 25 26  1  0  0  0  0
 25 33  1  1  0  0  0
 27 28  1  6  0  0  0
 27 35  1  0  0  0  0
 29 30  1  0  0  0  0
 29 37  1  1  0  0  0
 31 32  1  1  0  0  0
 31 39  1  0  0  0  0
 33 34  1  0  0  0  0
 35 36  1  0  0  0  0
 35 41  1  6  0  0  0
 37 38  1  0  0  0  0
 39 40  1  6  0  0  0
 41 42  1  0  0  0  0
M  END
>  <CHROM.1>
-67.70733806,-174.51239742,-155.41165501,-62.47208736,-77.72480347,55.93232318
174.44909481,158.87977896,-57.74461550,6.88902015,6.73211300,1.50195868,1.37839211
0.25054271,1.76507505

>  <Name>
2o3w_lig

>  <RI>
0

>  <Rbt.Current_Directory>
/home/itssahil/PROJECTS/Mol_Feturizer/New_Systems/rnas/2o3w

>  <Rbt.Executable>
rbdock ($Id: //depot/dev/client3/rdock/2013.1/src/exe/rbdock.cxx#4 $)

>  <Rbt.Library>
libRbt.so (2013.1, Build901 2013/11/27)

>  <Rbt.Parameter_File>
/export/apps/rDock/src/rDock_2013.1_src/data/scripts/dock_solv.prm

>  <Rbt.Receptor>
prm/pocket_docking_8.prm

>  <SCORE>
-18.89

>  <SCORE.INTER>
-11.1388

>  <SCORE.INTER.CONST>
1

>  <SCORE.INTER.POLAR>
-3.0376

>  <SCORE.INTER.ROT>
9

>  <SCORE.INTER.SOLV>
19.2707

>  <SCORE.INTER.VDW>
-13.3241

>  <SCORE.INTER.norm>
-0.265209

>  <SCORE.INTRA>
-7.75124

>  <SCORE.INTRA.DIHEDRAL>
-21.1282

>  <SCORE.INTRA.DIHEDRAL.0>
27.8999

>  <SCORE.INTRA.POLAR>
0

>  <SCORE.INTRA.POLAR.0>
0

>  <SCORE.INTRA.REPUL>
0

>  <SCORE.INTRA.REPUL.0>
0

>  <SCORE.INTRA.SOLV>
3.01561

>  <SCORE.INTRA.SOLV.lig_0>
-104.479

>  <SCORE.INTRA.VDW>
1.30506

>  <SCORE.INTRA.VDW.0>
-6.17816

>  <SCORE.INTRA.norm>
-0.184553

>  <SCORE.RESTR>
0

>  <SCORE.RESTR.CAVITY>
0

>  <SCORE.RESTR.norm>
0

>  <SCORE.SYSTEM>
0

>  <SCORE.SYSTEM.CONST>
0

>  <SCORE.SYSTEM.DIHEDRAL>
0

>  <SCORE.SYSTEM.SOLV>
0

>  <SCORE.SYSTEM.norm>
0

>  <SCORE.heavy>
42

>  <SCORE.norm>
-0.449762

>  <RMSD>
7.374

$$$$
2o3w_lig
 OpenBabel11021811463D
libRbt.so/2013.1/901 2013/11/27
 42 45  0  0  0  0  0  0  0  0999 V2000
    3.8659    5.1305    0.9221 C   0  0  2  0  0  0  0  0  0  0  0  0
    3.7385    5.9850    2.0715 O   0  0  0  0  0  0  0  0  0  0  0  0
    6.4500    7.6793    4.9995 C   0  0  2  0  0  0  0  0  0  0  0  0
    7.5694    7.8603    5.9713 N   0  0  0  0  0  0  0  0  0  0  0  0
    7.1753    5.2432    1.3455 C   0  0  1  0  0  0  0  0  0  0  0  0
    8.1791    2.4246    1.6730 C   0  0  1  0  0  0  0  0  0  0  0  0
    2.5630    5.2981    0.0840 C   0  0  2  0  0  0  0  0  0  0  0  0
    2.2269    6.7118   -0.1592 N   0  0  0  0  0  0  0  0  0  0  0  0
    5.4362    6.5695    5.4919 C   0  0  0  0  0  0  0  0  0  0  0  0
    7.6986    4.8284   -0.0634 C   0  0  2  0  0  0  0  0  0  0  0  0
    6.8092    3.9407   -0.7845 O   0  0  0  0  0  0  0  0  0  0  0  0
    8.8726    2.5690    3.0755 C   0  0  2  0  0  0  0  0  0  0  0  0
   10.1610    1.8145    3.1137 N   0  0  0  0  0  0  0  0  0  0  0  0
    1.3404    4.6622    0.7709 C   0  0  1  0  0  0  0  0  0  0  0  0
    0.1793    4.8043   -0.0491 O   0  0  0  0  0  0  0  0  0  0  0  0
    4.2701    6.4408    4.4401 C   0  0  2  0  0  0  0  0  0  0  0  0
    3.2880    5.4132    4.8796 N   0  0  0  0  0  0  0  0  0  0  0  0
    9.0702    4.2498    0.2878 C   0  0  2  0  0  0  0  0  0  0  0  0
    8.9946    2.8143    0.5609 O   0  0  0  0  0  0  0  0  0  0  0  0
    7.8710    2.0558    4.2158 C   0  0  1  0  0  0  0  0  0  0  0  0
    6.8236    3.0357    4.3932 O   0  0  0  0  0  0  0  0  0  0  0  0
    1.6362    3.1764    1.0777 C   0  0  2  0  0  0  0  0  0  0  0  0
    0.5201    2.5752    1.6919 O   0  0  0  0  0  0  0  0  0  0  0  0
    4.8420    6.0540    3.0191 C   0  0  2  0  0  0  0  0  0  0  0  0
    9.5553    5.0272    1.5229 C   0  0  2  0  0  0  0  0  0  0  0  0
    8.3407    5.3533    2.1945 O   0  0  0  0  0  0  0  0  0  0  0  0
    7.2205    0.6312    3.8772 C   0  0  2  0  0  0  0  0  0  0  0  0
    8.2568   -0.3464    3.9599 O   0  0  0  0  0  0  0  0  0  0  0  0
    2.8931    3.0872    2.0061 C   0  0  2  0  0  0  0  0  0  0  0  0
    4.0347    3.7258    1.3512 O   0  0  0  0  0  0  0  0  0  0  0  0
    5.8844    7.0669    2.4971 C   0  0  2  0  0  0  0  0  0  0  0  0
    6.4296    6.4663    1.2902 O   0  0  0  0  0  0  0  0  0  0  0  0
   10.3850    6.3106    1.2087 C   0  0  0  0  0  0  0  0  0  0  0  0
   10.8439    6.8846    2.4289 O   0  0  0  0  0  0  0  0  0  0  0  0
    6.5904    0.6370    2.4332 C   0  0  1  0  0  0  0  0  0  0  0  0
    7.6804    1.0039    1.5126 O   0  0  0  0  0  0  0  0  0  0  0  0
    3.2598    1.6628    2.3531 C   0  0  0  0  0  0  0  0  0  0  0  0
    2.2156    1.0552    3.0739 O   0  0  0  0  0  0  0  0  0  0  0  0
    7.0233    7.2891    3.5784 C   0  0  1  0  0  0  0  0  0  0  0  0
    7.9033    8.3361    3.1601 O   0  0  0  0  0  0  0  0  0  0  0  0
    5.9499   -0.7527    2.0005 C   0  0  0  0  0  0  0  0  0  0  0  0
    6.8831   -1.9125    1.9837 N   0  0  0  0  0  0  0  0  0  0  0  0
  1  2  1  1  0  0  0
  1  7  1  0  0  0  0
  1 30  1  0  0  0  0
  3  4  1  1  0  0  0
  3  9  1  0  0  0  0
  3 39  1  0  0  0  0
  5 10  1  0  0  0  0
  5 26  1  0  0  0  0
  5 32  1  6  0  0  0
  6 12  1  0  0  0  0
  6 36  1  0  0  0  0
  6 19  1  6  0  0  0
  7  8  1  1  0  0  0
  7 14  1  0  0  0  0
  9 16  1  0  0  0  0
 10 11  1  1  0  0  0
 10 18  1  0  0  0  0
 12 13  1  6  0  0  0
 12 20  1  0  0  0  0
 14 15  1  6  0  0  0
 14 22  1  0  0  0  0
 16 17  1  1  0  0  0
 16 24  1  0  0  0  0
 18 19  1  1  0  0  0
 18 25  1  0  0  0  0
 20 21  1  6  0  0  0
 20 27  1  0  0  0  0
 22 23  1  1  0  0  0
 22 29  1  0  0  0  0
 24  2  1  6  0  0  0
 24 31  1  0  0  0  0
 25 26  1  0  0  0  0
 25 33  1  6  0  0  0
 27 28  1  6  0  0  0
 27 35  1  0  0  0  0
 29 30  1  0  0  0  0
 29 37  1  6  0  0  0
 31 32  1  6  0  0  0
 31 39  1  0  0  0  0
 33 34  1  0  0  0  0
 35 36  1  0  0  0  0
 35 41  1  6  0  0  0
 37 38  1  0  0  0  0
 39 40  1  6  0  0  0
 41 42  1  0  0  0  0
M  END
>  <CHROM.1>
-178.35114799,-177.88575653,-80.82872982,-62.02991449,-153.30801081,-176.24731081
-62.49004215,-64.42650486,-59.43958001,5.97252413,4.10020423,2.25874251,3.11643476
0.14748588,-3.05817936

>  <Name>
2o3w_lig

>  <RI>
0

>  <Rbt.Current_Directory>
/home/itssahil/PROJECTS/Mol_Feturizer/New_Systems/rnas/2o3w

>  <Rbt.Executable>
rbdock ($Id: //depot/dev/client3/rdock/2013.1/src/exe/rbdock.cxx#4 $)

>  <Rbt.Library>
libRbt.so (2013.1, Build901 2013/11/27)

>  <Rbt.Parameter_File>
/export/apps/rDock/src/rDock_2013.1_src/data/scripts/dock_solv.prm

>  <Rbt.Receptor>
prm/pocket_docking_6.prm

>  <SCORE>
-13.1265

>  <SCORE.INTER>
-2.48724

>  <SCORE.INTER.CONST>
1

>  <SCORE.INTER.POLAR>
0

>  <SCORE.INTER.ROT>
9

>  <SCORE.INTER.SOLV>
13.0007

>  <SCORE.INTER.VDW>
-15.5917

>  <SCORE.INTER.norm>
-0.0592201

>  <SCORE.INTRA>
-10.6392

>  <SCORE.INTRA.DIHEDRAL>
-22.6731

>  <SCORE.INTRA.DIHEDRAL.0>
27.8999

>  <SCORE.INTRA.POLAR>
0

>  <SCORE.INTRA.POLAR.0>
0

>  <SCORE.INTRA.REPUL>
0.000314685

>  <SCORE.INTRA.REPUL.0>
0

>  <SCORE.INTRA.SOLV>
-0.782263

>  <SCORE.INTRA.SOLV.lig_0>
-104.479

>  <SCORE.INTRA.VDW>
1.08688

>  <SCORE.INTRA.VDW.0>
-6.17816

>  <SCORE.INTRA.norm>
-0.253315

>  <SCORE.RESTR>
0

>  <SCORE.RESTR.CAVITY>
0

>  <SCORE.RESTR.norm>
0

>  <SCORE.SYSTEM>
0

>  <SCORE.SYSTEM.CONST>
0

>  <SCORE.SYSTEM.DIHEDRAL>
0

>  <SCORE.SYSTEM.SOLV>
0

>  <SCORE.SYSTEM.norm>
0

>  <SCORE.heavy>
42

>  <SCORE.norm>
-0.312535

>  <RMSD>
7.379

$$$$
2o3w_lig
 OpenBabel11021811463D
libRbt.so/2013.1/901 2013/11/27
 42 45  0  0  0  0  0  0  0  0999 V2000
   12.3626    0.1851    6.9115 C   0  0  2  0  0  0  0  0  0  0  0  0
   13.4416    0.4156    5.9896 O   0  0  0  0  0  0  0  0  0  0  0  0
   14.7507   -1.3838    2.2688 C   0  0  2  0  0  0  0  0  0  0  0  0
   15.0995   -2.3759    1.2083 N   0  0  0  0  0  0  0  0  0  0  0  0
   10.3528   -1.0116    3.5349 C   0  0  1  0  0  0  0  0  0  0  0  0
    6.6516   -0.3029    1.4170 C   0  0  1  0  0  0  0  0  0  0  0  0
   12.1511    1.5095    7.7048 C   0  0  2  0  0  0  0  0  0  0  0  0
   12.0463    2.6847    6.8224 N   0  0  0  0  0  0  0  0  0  0  0  0
   15.6911   -1.5384    3.5311 C   0  0  0  0  0  0  0  0  0  0  0  0
    9.0336   -0.7746    4.3314 C   0  0  2  0  0  0  0  0  0  0  0  0
    8.4318   -1.9866    4.8489 O   0  0  0  0  0  0  0  0  0  0  0  0
    5.5928    0.7547    1.8956 C   0  0  2  0  0  0  0  0  0  0  0  0
    4.6576    0.1583    2.8959 N   0  0  0  0  0  0  0  0  0  0  0  0
   13.3025    1.7924    8.6873 C   0  0  1  0  0  0  0  0  0  0  0  0
   13.0481    2.9923    9.4196 O   0  0  0  0  0  0  0  0  0  0  0  0
   15.2905   -0.4542    4.6018 C   0  0  2  0  0  0  0  0  0  0  0  0
   16.1665   -0.5614    5.7996 N   0  0  0  0  0  0  0  0  0  0  0  0
    8.1999   -0.0077    3.3037 C   0  0  2  0  0  0  0  0  0  0  0  0
    7.4055   -0.9125    2.4723 O   0  0  0  0  0  0  0  0  0  0  0  0
    4.7947    1.3162    0.6249 C   0  0  1  0  0  0  0  0  0  0  0  0
    5.6621    2.2026   -0.1172 O   0  0  0  0  0  0  0  0  0  0  0  0
   13.4834    0.5823    9.6318 C   0  0  2  0  0  0  0  0  0  0  0  0
   14.5232    0.8324   10.5487 O   0  0  0  0  0  0  0  0  0  0  0  0
   13.7804   -0.6280    5.0322 C   0  0  2  0  0  0  0  0  0  0  0  0
    9.2026    0.7925    2.4555 C   0  0  2  0  0  0  0  0  0  0  0  0
   10.3663   -0.0310    2.4721 O   0  0  0  0  0  0  0  0  0  0  0  0
    4.2648    0.1524   -0.3407 C   0  0  2  0  0  0  0  0  0  0  0  0
    3.2281   -0.5428    0.3510 O   0  0  0  0  0  0  0  0  0  0  0  0
   13.7945   -0.6910    8.7765 C   0  0  2  0  0  0  0  0  0  0  0  0
   12.7064   -0.9237    7.8270 O   0  0  0  0  0  0  0  0  0  0  0  0
   12.8040   -0.5449    3.8384 C   0  0  2  0  0  0  0  0  0  0  0  0
   11.5046   -0.9061    4.3819 O   0  0  0  0  0  0  0  0  0  0  0  0
    9.5205    2.2240    2.9884 C   0  0  0  0  0  0  0  0  0  0  0  0
    8.3309    3.0072    2.9713 O   0  0  0  0  0  0  0  0  0  0  0  0
    5.4329   -0.8381   -0.7104 C   0  0  1  0  0  0  0  0  0  0  0  0
    5.9575   -1.3475    0.5684 O   0  0  0  0  0  0  0  0  0  0  0  0
   13.9807   -1.9289    9.6231 C   0  0  0  0  0  0  0  0  0  0  0  0
   12.8311   -2.1627   10.3996 O   0  0  0  0  0  0  0  0  0  0  0  0
   13.2399   -1.5608    2.7011 C   0  0  1  0  0  0  0  0  0  0  0  0
   12.4285   -1.3768    1.5377 O   0  0  0  0  0  0  0  0  0  0  0  0
    4.9864   -2.0470   -1.6420 C   0  0  0  0  0  0  0  0  0  0  0  0
    4.3505   -1.6627   -2.9322 N   0  0  0  0  0  0  0  0  0  0  0  0
  1  2  1  6  0  0  0
  1  7  1  0  0  0  0
  1 30  1  0  0  0  0
  3  4  1  6  0  0  0
  3  9  1  0  0  0  0
  3 39  1  0  0  0  0
  5 10  1  0  0  0  0
  5 26  1  0  0  0  0
  5 32  1  1  0  0  0
  6 12  1  0  0  0  0
  6 36  1  0  0  0  0
  6 19  1  1  0  0  0
  7  8  1  6  0  0  0
  7 14  1  0  0  0  0
  9 16  1  0  0  0  0
 10 11  1  6  0  0  0
 10 18  1  0  0  0  0
 12 13  1  1  0  0  0
 12 20  1  0  0  0  0
 14 15  1  1  0  0  0
 14 22  1  0  0  0  0
 16 17  1  1  0  0  0
 16 24  1  0  0  0  0
 18 19  1  6  0  0  0
 18 25  1  0  0  0  0
 20 21  1  6  0  0  0
 20 27  1  0  0  0  0
 22 23  1  1  0  0  0
 22 29  1  0  0  0  0
 24  2  1  1  0  0  0
 24 31  1  0  0  0  0
 25 26  1  0  0  0  0
 25 33  1  1  0  0  0
 27 28  1  1  0  0  0
 27 35  1  0  0  0  0
 29 30  1  0  0  0  0
 29 37  1  1  0  0  0
 31 32  1  1  0  0  0
 31 39  1  0  0  0  0
 33 34  1  0  0  0  0
 35 36  1  0  0  0  0
 35 41  1  6  0  0  0
 37 38  1  0  0  0  0
 39 40  1  6  0  0  0
 41 42  1  0  0  0  0
M  END
>  <CHROM.1>
-174.76739242,-154.61551001,-60.06374859,-176.09662289,-155.39612487,-62.80245251
57.82240414,-176.44486545,56.79411124,10.33378272,-0.16247812,4.03924781
0.67777614,-0.26611708,1.23354252

>  <Name>
2o3w_lig

>  <RI>
0

>  <Rbt.Current_Directory>
/home/itssahil/PROJECTS/Mol_Feturizer/New_Systems/rnas/2o3w

>  <Rbt.Executable>
rbdock ($Id: //depot/dev/client3/rdock/2013.1/src/exe/rbdock.cxx#4 $)

>  <Rbt.Library>
libRbt.so (2013.1, Build901 2013/11/27)

>  <Rbt.Parameter_File>
/export/apps/rDock/src/rDock_2013.1_src/data/scripts/dock_solv.prm

>  <Rbt.Receptor>
prm/pocket_docking_7.prm

>  <SCORE>
-15.8288

>  <SCORE.INTER>
-5.10902

>  <SCORE.INTER.CONST>
1

>  <SCORE.INTER.POLAR>
0

>  <SCORE.INTER.ROT>
9

>  <SCORE.INTER.SOLV>
8.52829

>  <SCORE.INTER.VDW>
-15.8488

>  <SCORE.INTER.norm>
-0.121643

>  <SCORE.INTRA>
-10.7198

>  <SCORE.INTRA.DIHEDRAL>
-22.0881

>  <SCORE.INTRA.DIHEDRAL.0>
27.8999

>  <SCORE.INTRA.POLAR>
0

>  <SCORE.INTRA.POLAR.0>
0

>  <SCORE.INTRA.REPUL>
0

>  <SCORE.INTRA.REPUL.0>
0

>  <SCORE.INTRA.SOLV>
-4.40071

>  <SCORE.INTRA.SOLV.lig_0>
-104.479

>  <SCORE.INTRA.VDW>
2.52458

>  <SCORE.INTRA.VDW.0>
-6.17816

>  <SCORE.INTRA.norm>
-0.255234

>  <SCORE.RESTR>
0

>  <SCORE.RESTR.CAVITY>
0

>  <SCORE.RESTR.norm>
0

>  <SCORE.SYSTEM>
0

>  <SCORE.SYSTEM.CONST>
0

>  <SCORE.SYSTEM.DIHEDRAL>
0

>  <SCORE.SYSTEM.SOLV>
0

>  <SCORE.SYSTEM.norm>
0

>  <SCORE.heavy>
42

>  <SCORE.norm>
-0.376877

>  <RMSD>
7.449

$$$$
2o3w_lig
 OpenBabel11021811463D
libRbt.so/2013.1/901 2013/11/27
 42 45  0  0  0  0  0  0  0  0999 V2000
   10.3252    5.9570    3.0093 C   0  0  2  0  0  0  0  0  0  0  0  0
    9.2549    5.2918    3.7016 O   0  0  0  0  0  0  0  0  0  0  0  0
   11.1362    1.4015    4.0516 C   0  0  2  0  0  0  0  0  0  0  0  0
   11.3971   -0.0343    4.3692 N   0  0  0  0  0  0  0  0  0  0  0  0
    7.1134    2.2419    2.6015 C   0  0  1  0  0  0  0  0  0  0  0  0
    3.4080    0.5612    4.2113 C   0  0  1  0  0  0  0  0  0  0  0  0
    9.9248    7.4580    2.8874 C   0  0  2  0  0  0  0  0  0  0  0  0
    9.4921    8.0323    4.1733 N   0  0  0  0  0  0  0  0  0  0  0  0
   10.9730    2.2605    5.3697 C   0  0  0  0  0  0  0  0  0  0  0  0
    6.6645    2.5027    4.0716 C   0  0  2  0  0  0  0  0  0  0  0  0
    7.3566    1.6909    5.0519 O   0  0  0  0  0  0  0  0  0  0  0  0
    3.0621   -0.9043    4.6601 C   0  0  2  0  0  0  0  0  0  0  0  0
    3.8051   -1.9040    3.8359 N   0  0  0  0  0  0  0  0  0  0  0  0
    8.7702    7.6757    1.8922 C   0  0  1  0  0  0  0  0  0  0  0  0
    8.4637    9.0667    1.7826 O   0  0  0  0  0  0  0  0  0  0  0  0
   10.7232    3.7642    4.9711 C   0  0  2  0  0  0  0  0  0  0  0  0
   10.5792    4.6055    6.1897 N   0  0  0  0  0  0  0  0  0  0  0  0
    5.1561    2.2723    3.9669 C   0  0  2  0  0  0  0  0  0  0  0  0
    4.8061    0.8752    4.2245 O   0  0  0  0  0  0  0  0  0  0  0  0
    1.4798   -1.1310    4.5514 C   0  0  1  0  0  0  0  0  0  0  0  0
    0.8307   -0.4187    5.6286 O   0  0  0  0  0  0  0  0  0  0  0  0
    9.1506    7.0719    0.5211 C   0  0  2  0  0  0  0  0  0  0  0  0
    8.1104    7.2778   -0.4063 O   0  0  0  0  0  0  0  0  0  0  0  0
    9.4256    3.8960    4.0796 C   0  0  2  0  0  0  0  0  0  0  0  0
    4.7605    2.6923    2.5413 C   0  0  2  0  0  0  0  0  0  0  0  0
    5.9313    2.3974    1.7832 O   0  0  0  0  0  0  0  0  0  0  0  0
    0.8769   -0.6461    3.1483 C   0  0  2  0  0  0  0  0  0  0  0  0
    1.3532   -1.5396    2.1427 O   0  0  0  0  0  0  0  0  0  0  0  0
    9.4389    5.5438    0.6985 C   0  0  2  0  0  0  0  0  0  0  0  0
   10.5145    5.3560    1.6719 O   0  0  0  0  0  0  0  0  0  0  0  0
    9.4899    3.0369    2.7978 C   0  0  2  0  0  0  0  0  0  0  0  0
    8.1647    3.1329    2.2068 O   0  0  0  0  0  0  0  0  0  0  0  0
    4.3535    4.1904    2.3855 C   0  0  0  0  0  0  0  0  0  0  0  0
    3.2502    4.4697    3.2421 O   0  0  0  0  0  0  0  0  0  0  0  0
    1.3314    0.8279    2.8276 C   0  0  1  0  0  0  0  0  0  0  0  0
    2.8045    0.8150    2.8459 O   0  0  0  0  0  0  0  0  0  0  0  0
    9.8267    4.8709   -0.5979 C   0  0  0  0  0  0  0  0  0  0  0  0
   10.1075    3.5108   -0.3731 O   0  0  0  0  0  0  0  0  0  0  0  0
    9.8354    1.5324    3.1620 C   0  0  1  0  0  0  0  0  0  0  0  0
   10.0439    0.7713    1.9691 O   0  0  0  0  0  0  0  0  0  0  0  0
    0.8039    1.3793    1.4325 C   0  0  0  0  0  0  0  0  0  0  0  0
   -0.6731    1.5267    1.3172 N   0  0  0  0  0  0  0  0  0  0  0  0
  1  2  1  6  0  0  0
  1  7  1  0  0  0  0
  1 30  1  0  0  0  0
  3  4  1  1  0  0  0
  3  9  1  0  0  0  0
  3 39  1  0  0  0  0
  5 10  1  0  0  0  0
  5 26  1  0  0  0  0
  5 32  1  6  0  0  0
  6 12  1  0  0  0  0
  6 36  1  0  0  0  0
  6 19  1  6  0  0  0
  7  8  1  1  0  0  0
  7 14  1  0  0  0  0
  9 16  1  0  0  0  0
 10 11  1  1  0  0  0
 10 18  1  0  0  0  0
 12 13  1  6  0  0  0
 12 20  1  0  0  0  0
 14 15  1  6  0  0  0
 14 22  1  0  0  0  0
 16 17  1  1  0  0  0
 16 24  1  0  0  0  0
 18 19  1  6  0  0  0
 18 25  1  0  0  0  0
 20 21  1  1  0  0  0
 20 27  1  0  0  0  0
 22 23  1  6  0  0  0
 22 29  1  0  0  0  0
 24  2  1  6  0  0  0
 24 31  1  0  0  0  0
 25 26  1  0  0  0  0
 25 33  1  1  0  0  0
 27 28  1  6  0  0  0
 27 35  1  0  0  0  0
 29 30  1  0  0  0  0
 29 37  1  6  0  0  0
 31 32  1  1  0  0  0
 31 39  1  0  0  0  0
 33 34  1  0  0  0  0
 35 36  1  0  0  0  0
 35 41  1  6  0  0  0
 37 38  1  0  0  0  0
 39 40  1  6  0  0  0
 41 42  1  0  0  0  0
M  END
>  <CHROM.1>
-173.65096245,67.98296694,-173.00634358,177.27425509,56.62079274,-58.74641554
178.46276855,-86.62201510,64.58966379,6.73481462,2.94296076,2.93918487,0.56076610
-0.19966295,-0.47221963

>  <Name>
2o3w_lig

>  <RI>
0

>  <Rbt.Current_Directory>
/home/itssahil/PROJECTS/Mol_Feturizer/New_Systems/rnas/2o3w

>  <Rbt.Executable>
rbdock ($Id: //depot/dev/client3/rdock/2013.1/src/exe/rbdock.cxx#4 $)

>  <Rbt.Library>
libRbt.so (2013.1, Build901 2013/11/27)

>  <Rbt.Parameter_File>
/export/apps/rDock/src/rDock_2013.1_src/data/scripts/dock_solv.prm

>  <Rbt.Receptor>
prm/pocket_docking_6.prm

>  <SCORE>
-21.7532

>  <SCORE.INTER>
-10.2506

>  <SCORE.INTER.CONST>
1

>  <SCORE.INTER.POLAR>
-0.422725

>  <SCORE.INTER.ROT>
9

>  <SCORE.INTER.SOLV>
13.8173

>  <SCORE.INTER.VDW>
-19.6304

>  <SCORE.INTER.norm>
-0.244062

>  <SCORE.INTRA>
-11.5026

>  <SCORE.INTRA.DIHEDRAL>
-23.8623

>  <SCORE.INTRA.DIHEDRAL.0>
27.8999

>  <SCORE.INTRA.POLAR>
0

>  <SCORE.INTRA.POLAR.0>
0

>  <SCORE.INTRA.REPUL>
0

>  <SCORE.INTRA.REPUL.0>
0

>  <SCORE.INTRA.SOLV>
-3.64093

>  <SCORE.INTRA.SOLV.lig_0>
-104.479

>  <SCORE.INTRA.VDW>
2.24899

>  <SCORE.INTRA.VDW.0>
-6.17816

>  <SCORE.INTRA.norm>
-0.273871

>  <SCORE.RESTR>
0

>  <SCORE.RESTR.CAVITY>
0

>  <SCORE.RESTR.norm>
0

>  <SCORE.SYSTEM>
0

>  <SCORE.SYSTEM.CONST>
0

>  <SCORE.SYSTEM.DIHEDRAL>
0

>  <SCORE.SYSTEM.SOLV>
0

>  <SCORE.SYSTEM.norm>
0

>  <SCORE.heavy>
42

>  <SCORE.norm>
-0.517933

>  <RMSD>
7.512

$$$$
2o3w_lig
 OpenBabel11021811463D
libRbt.so/2013.1/901 2013/11/27
 42 45  0  0  0  0  0  0  0  0999 V2000
    8.1063    7.3168    2.3102 C   0  0  2  0  0  0  0  0  0  0  0  0
    6.8292    6.7166    2.5859 O   0  0  0  0  0  0  0  0  0  0  0  0
    8.1273    3.8616    5.5792 C   0  0  2  0  0  0  0  0  0  0  0  0
    8.1350    2.8311    6.6601 N   0  0  0  0  0  0  0  0  0  0  0  0
    4.9088    3.8929    2.4097 C   0  0  1  0  0  0  0  0  0  0  0  0
    0.7180    2.9277    1.3999 C   0  0  1  0  0  0  0  0  0  0  0  0
    7.8533    8.4871    1.3130 C   0  0  2  0  0  0  0  0  0  0  0  0
    6.7686    9.3804    1.7556 N   0  0  0  0  0  0  0  0  0  0  0  0
    7.4915    5.2188    6.0846 C   0  0  0  0  0  0  0  0  0  0  0  0
    4.1152    3.2593    1.2267 C   0  0  2  0  0  0  0  0  0  0  0  0
    3.6046    4.2252    0.2752 O   0  0  0  0  0  0  0  0  0  0  0  0
    0.8473    3.4000   -0.0931 C   0  0  2  0  0  0  0  0  0  0  0  0
    1.1340    4.8640   -0.1665 N   0  0  0  0  0  0  0  0  0  0  0  0
    7.4711    7.9856   -0.0918 C   0  0  1  0  0  0  0  0  0  0  0  0
    7.2879    9.0886   -0.9809 O   0  0  0  0  0  0  0  0  0  0  0  0
    7.5320    6.2695    4.9112 C   0  0  2  0  0  0  0  0  0  0  0  0
    6.9535    7.5657    5.3570 N   0  0  0  0  0  0  0  0  0  0  0  0
    3.0587    2.4481    1.9785 C   0  0  2  0  0  0  0  0  0  0  0  0
    1.8498    3.2351    2.2233 O   0  0  0  0  0  0  0  0  0  0  0  0
   -0.4997    3.0372   -0.8810 C   0  0  1  0  0  0  0  0  0  0  0  0
   -0.5369    1.6107   -1.1105 O   0  0  0  0  0  0  0  0  0  0  0  0
    8.5612    7.0191   -0.6085 C   0  0  2  0  0  0  0  0  0  0  0  0
    8.2343    6.5639   -1.9009 O   0  0  0  0  0  0  0  0  0  0  0  0
    6.7326    5.7355    3.6575 C   0  0  2  0  0  0  0  0  0  0  0  0
    3.7174    2.0133    3.2986 C   0  0  2  0  0  0  0  0  0  0  0  0
    4.6254    3.0783    3.5703 O   0  0  0  0  0  0  0  0  0  0  0  0
   -1.8210    3.4881   -0.0946 C   0  0  2  0  0  0  0  0  0  0  0  0
   -1.8671    4.9143   -0.1119 O   0  0  0  0  0  0  0  0  0  0  0  0
    8.6902    5.8168    0.3852 C   0  0  2  0  0  0  0  0  0  0  0  0
    9.0201    6.3154    1.7203 O   0  0  0  0  0  0  0  0  0  0  0  0
    7.2637    4.3801    3.1415 C   0  0  2  0  0  0  0  0  0  0  0  0
    6.3124    3.9589    2.1256 O   0  0  0  0  0  0  0  0  0  0  0  0
    4.4605    0.6426    3.2431 C   0  0  0  0  0  0  0  0  0  0  0  0
    4.9218    0.3044    4.5476 O   0  0  0  0  0  0  0  0  0  0  0  0
   -1.7913    2.9615    1.3899 C   0  0  1  0  0  0  0  0  0  0  0  0
   -0.5560    3.4958    1.9890 O   0  0  0  0  0  0  0  0  0  0  0  0
    9.7435    4.8206   -0.0411 C   0  0  0  0  0  0  0  0  0  0  0  0
    9.3336    4.1512   -1.2086 O   0  0  0  0  0  0  0  0  0  0  0  0
    7.3242    3.3272    4.3262 C   0  0  1  0  0  0  0  0  0  0  0  0
    7.9560    2.1227    3.8840 O   0  0  0  0  0  0  0  0  0  0  0  0
   -3.0533    3.3932    2.2556 C   0  0  0  0  0  0  0  0  0  0  0  0
   -3.2050    2.6955    3.5621 N   0  0  0  0  0  0  0  0  0  0  0  0
  1  2  1  6  0  0  0
  1  7  1  0  0  0  0
  1 30  1  0  0  0  0
  3  4  1  1  0  0  0
  3  9  1  0  0  0  0
  3 39  1  0  0  0  0
  5 10  1  0  0  0  0
  5 26  1  0  0  0  0
  5 32  1  6  0  0  0
  6 12  1  0  0  0  0
  6 36  1  0  0  0  0
  6 19  1  1  0  0  0
  7  8  1  1  0  0  0
  7 14  1  0  0  0  0
  9 16  1  0  0  0  0
 10 11  1  6  0  0  0
 10 18  1  0  0  0  0
 12 13  1  1  0  0  0
 12 20  1  0  0  0  0
 14 15  1  6  0  0  0
 14 22  1  0  0  0  0
 16 17  1  1  0  0  0
 16 24  1  0  0  0  0
 18 19  1  1  0  0  0
 18 25  1  0  0  0  0
 20 21  1  1  0  0  0
 20 27  1  0  0  0  0
 22 23  1  6  0  0  0
 22 29  1  0  0  0  0
 24  2  1  6  0  0  0
 24 31  1  0  0  0  0
 25 26  1  0  0  0  0
 25 33  1  6  0  0  0
 27 28  1  1  0  0  0
 27 35  1  0  0  0  0
 29 30  1  0  0  0  0
 29 37  1  6  0  0  0
 31 32  1  6  0  0  0
 31 39  1  0  0  0  0
 33 34  1  0  0  0  0
 35 36  1  0  0  0  0
 35 41  1  1  0  0  0
 37 38  1  0  0  0  0
 39 40  1  6  0  0  0
 41 42  1  0  0  0  0
M  END
>  <CHROM.1>
-170.03757293,-173.32051394,-72.23407048,104.90425528,44.30770956,-175.00670218
-68.46784624,-52.97155689,167.98351489,4.67695861,4.48139981,1.91973921,0.11143205
-0.32119278,-0.92623106

>  <Name>
2o3w_lig

>  <RI>
0

>  <Rbt.Current_Directory>
/home/itssahil/PROJECTS/Mol_Feturizer/New_Systems/rnas/2o3w

>  <Rbt.Executable>
rbdock ($Id: //depot/dev/client3/rdock/2013.1/src/exe/rbdock.cxx#4 $)

>  <Rbt.Library>
libRbt.so (2013.1, Build901 2013/11/27)

>  <Rbt.Parameter_File>
/export/apps/rDock/src/rDock_2013.1_src/data/scripts/dock_solv.prm

>  <Rbt.Receptor>
prm/pocket_docking_8.prm

>  <SCORE>
-11.8881

>  <SCORE.INTER>
-4.28155

>  <SCORE.INTER.CONST>
1

>  <SCORE.INTER.POLAR>
-0.81264

>  <SCORE.INTER.ROT>
9

>  <SCORE.INTER.SOLV>
13.6244

>  <SCORE.INTER.VDW>
-14.287

>  <SCORE.INTER.norm>
-0.101942

>  <SCORE.INTRA>
-7.60655

>  <SCORE.INTRA.DIHEDRAL>
-18.0238

>  <SCORE.INTRA.DIHEDRAL.0>
27.8999

>  <SCORE.INTRA.POLAR>
0

>  <SCORE.INTRA.POLAR.0>
0

>  <SCORE.INTRA.REPUL>
0

>  <SCORE.INTRA.REPUL.0>
0

>  <SCORE.INTRA.SOLV>
-2.66764

>  <SCORE.INTRA.SOLV.lig_0>
-104.479

>  <SCORE.INTRA.VDW>
2.73918

>  <SCORE.INTRA.VDW.0>
-6.17816

>  <SCORE.INTRA.norm>
-0.181108

>  <SCORE.RESTR>
0

>  <SCORE.RESTR.CAVITY>
0

>  <SCORE.RESTR.norm>
0

>  <SCORE.SYSTEM>
0

>  <SCORE.SYSTEM.CONST>
0

>  <SCORE.SYSTEM.DIHEDRAL>
0

>  <SCORE.SYSTEM.SOLV>
0

>  <SCORE.SYSTEM.norm>
0

>  <SCORE.heavy>
42

>  <SCORE.norm>
-0.28305

>  <RMSD>
7.529

$$$$
2o3w_lig
 OpenBabel11021811463D
libRbt.so/2013.1/901 2013/11/27
 42 45  0  0  0  0  0  0  0  0999 V2000
    2.9689    0.7840    3.5650 C   0  0  2  0  0  0  0  0  0  0  0  0
    2.4020    0.6009    2.2564 O   0  0  0  0  0  0  0  0  0  0  0  0
    0.2701    3.3194   -0.3628 C   0  0  2  0  0  0  0  0  0  0  0  0
   -0.7268    4.2890   -0.9075 N   0  0  0  0  0  0  0  0  0  0  0  0
    3.5726    4.1379    3.1172 C   0  0  1  0  0  0  0  0  0  0  0  0
    7.0872    5.9917    4.6729 C   0  0  1  0  0  0  0  0  0  0  0  0
    4.1617   -0.2112    3.6876 C   0  0  2  0  0  0  0  0  0  0  0  0
    5.0792   -0.1358    2.5373 N   0  0  0  0  0  0  0  0  0  0  0  0
   -0.4001    1.9208   -0.0520 C   0  0  0  0  0  0  0  0  0  0  0  0
    3.4165    5.1355    4.3052 C   0  0  2  0  0  0  0  0  0  0  0  0
    2.9507    6.4503    3.9133 O   0  0  0  0  0  0  0  0  0  0  0  0
    7.4222    6.3291    6.1705 C   0  0  2  0  0  0  0  0  0  0  0  0
    6.9181    7.6864    6.5371 N   0  0  0  0  0  0  0  0  0  0  0  0
    3.6936   -1.6747    3.7880 C   0  0  1  0  0  0  0  0  0  0  0  0
    4.8154   -2.5464    3.9384 O   0  0  0  0  0  0  0  0  0  0  0  0
    0.7020    0.9374    0.4964 C   0  0  2  0  0  0  0  0  0  0  0  0
    0.1081   -0.3955    0.7864 N   0  0  0  0  0  0  0  0  0  0  0  0
    4.8156    5.0851    4.9211 C   0  0  2  0  0  0  0  0  0  0  0  0
    5.6985    6.0935    4.3343 O   0  0  0  0  0  0  0  0  0  0  0  0
    9.0049    6.2229    6.3951 C   0  0  1  0  0  0  0  0  0  0  0  0
    9.3836    4.8281    6.4003 O   0  0  0  0  0  0  0  0  0  0  0  0
    2.7040   -1.8198    4.9665 C   0  0  2  0  0  0  0  0  0  0  0  0
    2.2789   -3.1578    5.0824 O   0  0  0  0  0  0  0  0  0  0  0  0
    1.3648    1.5190    1.8073 C   0  0  2  0  0  0  0  0  0  0  0  0
    5.3428    3.6638    4.6613 C   0  0  2  0  0  0  0  0  0  0  0  0
    4.7140    3.3078    3.4324 O   0  0  0  0  0  0  0  0  0  0  0  0
    9.8457    7.0023    5.2757 C   0  0  2  0  0  0  0  0  0  0  0  0
    9.6324    8.3997    5.4716 O   0  0  0  0  0  0  0  0  0  0  0  0
    1.4830   -0.8703    4.7277 C   0  0  2  0  0  0  0  0  0  0  0  0
    1.9506    0.5100    4.6013 O   0  0  0  0  0  0  0  0  0  0  0  0
    1.9928    2.9136    1.5928 C   0  0  2  0  0  0  0  0  0  0  0  0
    2.3811    3.3657    2.9192 O   0  0  0  0  0  0  0  0  0  0  0  0
    5.0166    2.6262    5.7799 C   0  0  0  0  0  0  0  0  0  0  0  0
    5.5685    3.0754    7.0137 O   0  0  0  0  0  0  0  0  0  0  0  0
    9.3784    6.5765    3.8326 C   0  0  1  0  0  0  0  0  0  0  0  0
    7.9346    6.8623    3.7691 O   0  0  0  0  0  0  0  0  0  0  0  0
    0.4633   -0.9433    5.8406 C   0  0  0  0  0  0  0  0  0  0  0  0
   -0.1018   -2.2305    5.8968 O   0  0  0  0  0  0  0  0  0  0  0  0
    0.9305    3.9011    0.9509 C   0  0  1  0  0  0  0  0  0  0  0  0
    1.5530    5.1438    0.6133 O   0  0  0  0  0  0  0  0  0  0  0  0
   10.1399    7.3291    2.6569 C   0  0  0  0  0  0  0  0  0  0  0  0
    9.6826    6.9970    1.2795 N   0  0  0  0  0  0  0  0  0  0  0  0
  1  2  1  6  0  0  0
  1  7  1  0  0  0  0
  1 30  1  0  0  0  0
  3  4  1  1  0  0  0
  3  9  1  0  0  0  0
  3 39  1  0  0  0  0
  5 10  1  0  0  0  0
  5 26  1  0  0  0  0
  5 32  1  1  0  0  0
  6 12  1  0  0  0  0
  6 36  1  0  0  0  0
  6 19  1  1  0  0  0
  7  8  1  6  0  0  0
  7 14  1  0  0  0  0
  9 16  1  0  0  0  0
 10 11  1  6  0  0  0
 10 18  1  0  0  0  0
 12 13  1  6  0  0  0
 12 20  1  0  0  0  0
 14 15  1  1  0  0  0
 14 22  1  0  0  0  0
 16 17  1  1  0  0  0
 16 24  1  0  0  0  0
 18 19  1  6  0  0  0
 18 25  1  0  0  0  0
 20 21  1  6  0  0  0
 20 27  1  0  0  0  0
 22 23  1  6  0  0  0
 22 29  1  0  0  0  0
 24  2  1  6  0  0  0
 24 31  1  0  0  0  0
 25 26  1  0  0  0  0
 25 33  1  1  0  0  0
 27 28  1  1  0  0  0
 27 35  1  0  0  0  0
 29 30  1  0  0  0  0
 29 37  1  1  0  0  0
 31 32  1  1  0  0  0
 31 39  1  0  0  0  0
 33 34  1  0  0  0  0
 35 36  1  0  0  0  0
 35 41  1  6  0  0  0
 37 38  1  0  0  0  0
 39 40  1  6  0  0  0
 41 42  1  0  0  0  0
M  END
>  <CHROM.1>
-172.71402408,148.28335475,-69.23311395,-169.93546220,-168.21002133,-58.72423670
-63.95281419,144.10176991,-177.38315581,4.23534610,3.06321329,3.66504626
-2.63065034,-0.62108490,-0.53619679

>  <Name>
2o3w_lig

>  <RI>
0

>  <Rbt.Current_Directory>
/home/itssahil/PROJECTS/Mol_Feturizer/New_Systems/rnas/2o3w

>  <Rbt.Executable>
rbdock ($Id: //depot/dev/client3/rdock/2013.1/src/exe/rbdock.cxx#4 $)

>  <Rbt.Library>
libRbt.so (2013.1, Build901 2013/11/27)

>  <Rbt.Parameter_File>
/export/apps/rDock/src/rDock_2013.1_src/data/scripts/dock_solv.prm

>  <Rbt.Receptor>
prm/pocket_docking_8.prm

>  <SCORE>
-18.546

>  <SCORE.INTER>
-9.31836

>  <SCORE.INTER.CONST>
1

>  <SCORE.INTER.POLAR>
-1.17943

>  <SCORE.INTER.ROT>
9

>  <SCORE.INTER.SOLV>
12.4201

>  <SCORE.INTER.VDW>
-16.0209

>  <SCORE.INTER.norm>
-0.221866

>  <SCORE.INTRA>
-9.22768

>  <SCORE.INTRA.DIHEDRAL>
-17.2454

>  <SCORE.INTRA.DIHEDRAL.0>
27.8999

>  <SCORE.INTRA.POLAR>
0

>  <SCORE.INTRA.POLAR.0>
0

>  <SCORE.INTRA.REPUL>
0

>  <SCORE.INTRA.REPUL.0>
0

>  <SCORE.INTRA.SOLV>
-4.56237

>  <SCORE.INTRA.SOLV.lig_0>
-104.479

>  <SCORE.INTRA.VDW>
1.67619

>  <SCORE.INTRA.VDW.0>
-6.17816

>  <SCORE.INTRA.norm>
-0.219707

>  <SCORE.RESTR>
0

>  <SCORE.RESTR.CAVITY>
0

>  <SCORE.RESTR.norm>
0

>  <SCORE.SYSTEM>
0

>  <SCORE.SYSTEM.CONST>
0

>  <SCORE.SYSTEM.DIHEDRAL>
0

>  <SCORE.SYSTEM.SOLV>
0

>  <SCORE.SYSTEM.norm>
0

>  <SCORE.heavy>
42

>  <SCORE.norm>
-0.441572

>  <RMSD>
7.536

$$$$
2o3w_lig
 OpenBabel11021811463D
libRbt.so/2013.1/901 2013/11/27
 42 45  0  0  0  0  0  0  0  0999 V2000
    5.0349    6.3747    4.3078 C   0  0  2  0  0  0  0  0  0  0  0  0
    6.4123    6.5409    3.9306 O   0  0  0  0  0  0  0  0  0  0  0  0
    8.5351    7.9984    0.4427 C   0  0  2  0  0  0  0  0  0  0  0  0
    8.9348    8.2890   -0.9667 N   0  0  0  0  0  0  0  0  0  0  0  0
    4.2047    7.9326    1.4198 C   0  0  1  0  0  0  0  0  0  0  0  0
    0.9444    7.3438   -1.4755 C   0  0  1  0  0  0  0  0  0  0  0  0
    5.0262    5.7250    5.7241 C   0  0  2  0  0  0  0  0  0  0  0  0
    5.9061    6.4294    6.6729 N   0  0  0  0  0  0  0  0  0  0  0  0
    8.6040    6.4485    0.7508 C   0  0  0  0  0  0  0  0  0  0  0  0
    2.7791    8.5299    1.6236 C   0  0  2  0  0  0  0  0  0  0  0  0
    1.9547    7.7836    2.5522 O   0  0  0  0  0  0  0  0  0  0  0  0
    0.0282    6.0966   -1.7473 C   0  0  2  0  0  0  0  0  0  0  0  0
    0.7896    4.8250   -1.5629 N   0  0  0  0  0  0  0  0  0  0  0  0
    5.4875    4.2562    5.6961 C   0  0  1  0  0  0  0  0  0  0  0  0
    5.4260    3.6905    7.0064 O   0  0  0  0  0  0  0  0  0  0  0  0
    8.1947    6.2082    2.2532 C   0  0  2  0  0  0  0  0  0  0  0  0
    8.2625    4.7589    2.5825 N   0  0  0  0  0  0  0  0  0  0  0  0
    2.2707    8.5836    0.1821 C   0  0  2  0  0  0  0  0  0  0  0  0
    1.5799    7.3490   -0.1910 O   0  0  0  0  0  0  0  0  0  0  0  0
   -0.5751    6.1966   -3.2282 C   0  0  1  0  0  0  0  0  0  0  0  0
   -1.5953    7.2201   -3.2490 O   0  0  0  0  0  0  0  0  0  0  0  0
    4.6168    3.4612    4.6966 C   0  0  2  0  0  0  0  0  0  0  0  0
    5.0157    2.1104    4.6716 O   0  0  0  0  0  0  0  0  0  0  0  0
    6.7343    6.7459    2.5253 C   0  0  2  0  0  0  0  0  0  0  0  0
    3.5110    8.8158   -0.6971 C   0  0  2  0  0  0  0  0  0  0  0  0
    4.5494    8.1697    0.0355 O   0  0  0  0  0  0  0  0  0  0  0  0
    0.5381    6.5269   -4.3324 C   0  0  2  0  0  0  0  0  0  0  0  0
    1.3784    5.3800   -4.4537 O   0  0  0  0  0  0  0  0  0  0  0  0
    4.7533    4.1046    3.2764 C   0  0  2  0  0  0  0  0  0  0  0  0
    4.3429    5.5076    3.3304 O   0  0  0  0  0  0  0  0  0  0  0  0
    6.5764    8.2456    2.1917 C   0  0  2  0  0  0  0  0  0  0  0  0
    5.1538    8.5179    2.3207 O   0  0  0  0  0  0  0  0  0  0  0  0
    3.8591   10.3134   -0.9619 C   0  0  0  0  0  0  0  0  0  0  0  0
    2.8079   10.9153   -1.7112 O   0  0  0  0  0  0  0  0  0  0  0  0
    1.3882    7.7830   -3.9061 C   0  0  1  0  0  0  0  0  0  0  0  0
    1.9639    7.4597   -2.5891 O   0  0  0  0  0  0  0  0  0  0  0  0
    3.9258    3.3907    2.2327 C   0  0  0  0  0  0  0  0  0  0  0  0
    2.5613    3.4533    2.5696 O   0  0  0  0  0  0  0  0  0  0  0  0
    7.0721    8.5341    0.7129 C   0  0  1  0  0  0  0  0  0  0  0  0
    7.0682    9.9413    0.4570 O   0  0  0  0  0  0  0  0  0  0  0  0
    2.5422    8.1626   -4.9322 C   0  0  0  0  0  0  0  0  0  0  0  0
    3.5753    7.1136   -5.1536 N   0  0  0  0  0  0  0  0  0  0  0  0
  1  2  1  6  0  0  0
  1  7  1  0  0  0  0
  1 30  1  0  0  0  0
  3  4  1  6  0  0  0
  3  9  1  0  0  0  0
  3 39  1  0  0  0  0
  5 10  1  0  0  0  0
  5 26  1  0  0  0  0
  5 32  1  1  0  0  0
  6 12  1  0  0  0  0
  6 36  1  0  0  0  0
  6 19  1  1  0  0  0
  7  8  1  1  0  0  0
  7 14  1  0  0  0  0
  9 16  1  0  0  0  0
 10 11  1  1  0  0  0
 10 18  1  0  0  0  0
 12 13  1  6  0  0  0
 12 20  1  0  0  0  0
 14 15  1  1  0  0  0
 14 22  1  0  0  0  0
 16 17  1  6  0  0  0
 16 24  1  0  0  0  0
 18 19  1  6  0  0  0
 18 25  1  0  0  0  0
 20 21  1  1  0  0  0
 20 27  1  0  0  0  0
 22 23  1  6  0  0  0
 22 29  1  0  0  0  0
 24  2  1  1  0  0  0
 24 31  1  0  0  0  0
 25 26  1  0  0  0  0
 25 33  1  1  0  0  0
 27 28  1  1  0  0  0
 27 35  1  0  0  0  0
 29 30  1  0  0  0  0
 29 37  1  6  0  0  0
 31 32  1  6  0  0  0
 31 39  1  0  0  0  0
 33 34  1  0  0  0  0
 35 36  1  0  0  0  0
 35 41  1  6  0  0  0
 37 38  1  0  0  0  0
 39 40  1  1  0  0  0
 41 42  1  0  0  0  0
M  END
>  <CHROM.1>
161.82607402,-171.69277861,-170.83575716,173.87718705,-152.52936406,-64.38796332
61.28645349,-66.59828528,-60.69796256,4.07064972,6.74023835,0.79012358,0.93740039
0.48832823,2.18495912

>  <Name>
2o3w_lig

>  <RI>
0

>  <Rbt.Current_Directory>
/home/itssahil/PROJECTS/Mol_Feturizer/New_Systems/rnas/2o3w

>  <Rbt.Executable>
rbdock ($Id: //depot/dev/client3/rdock/2013.1/src/exe/rbdock.cxx#4 $)

>  <Rbt.Library>
libRbt.so (2013.1, Build901 2013/11/27)

>  <Rbt.Parameter_File>
/export/apps/rDock/src/rDock_2013.1_src/data/scripts/dock_solv.prm

>  <Rbt.Receptor>
prm/pocket_docking_6.prm

>  <SCORE>
-23.1127

>  <SCORE.INTER>
-12.8337

>  <SCORE.INTER.CONST>
1

>  <SCORE.INTER.POLAR>
-2.40642

>  <SCORE.INTER.ROT>
9

>  <SCORE.INTER.SOLV>
16.4717

>  <SCORE.INTER.VDW>
-15.625

>  <SCORE.INTER.norm>
-0.305564

>  <SCORE.INTRA>
-10.2791

>  <SCORE.INTRA.DIHEDRAL>
-21.9328

>  <SCORE.INTRA.DIHEDRAL.0>
27.8999

>  <SCORE.INTRA.POLAR>
0

>  <SCORE.INTRA.POLAR.0>
0

>  <SCORE.INTRA.REPUL>
0

>  <SCORE.INTRA.REPUL.0>
0

>  <SCORE.INTRA.SOLV>
-2.30714

>  <SCORE.INTRA.SOLV.lig_0>
-104.479

>  <SCORE.INTRA.VDW>
1.84089

>  <SCORE.INTRA.VDW.0>
-6.17816

>  <SCORE.INTRA.norm>
-0.24474

>  <SCORE.RESTR>
0

>  <SCORE.RESTR.CAVITY>
0

>  <SCORE.RESTR.norm>
0

>  <SCORE.SYSTEM>
0

>  <SCORE.SYSTEM.CONST>
0

>  <SCORE.SYSTEM.DIHEDRAL>
0

>  <SCORE.SYSTEM.SOLV>
0

>  <SCORE.SYSTEM.norm>
0

>  <SCORE.heavy>
42

>  <SCORE.norm>
-0.550304

>  <RMSD>
7.548

$$$$
2o3w_lig
 OpenBabel11021811463D
libRbt.so/2013.1/901 2013/11/27
 42 45  0  0  0  0  0  0  0  0999 V2000
   10.0672    4.2258    3.7373 C   0  0  2  0  0  0  0  0  0  0  0  0
   11.0434    3.7425    4.6758 O   0  0  0  0  0  0  0  0  0  0  0  0
   12.1427   -0.2398    5.9906 C   0  0  2  0  0  0  0  0  0  0  0  0
   12.0829   -1.6373    6.5140 N   0  0  0  0  0  0  0  0  0  0  0  0
    8.7864    1.3234    3.4732 C   0  0  1  0  0  0  0  0  0  0  0  0
    4.4720    0.1213    3.1949 C   0  0  1  0  0  0  0  0  0  0  0  0
   10.4840    5.6776    3.3543 C   0  0  2  0  0  0  0  0  0  0  0  0
   11.9014    5.7728    2.9638 N   0  0  0  0  0  0  0  0  0  0  0  0
   11.7098    0.8059    7.0956 C   0  0  0  0  0  0  0  0  0  0  0  0
    7.8638    1.4109    2.2194 C   0  0  2  0  0  0  0  0  0  0  0  0
    7.3293    2.7346    1.9723 O   0  0  0  0  0  0  0  0  0  0  0  0
    3.2751    0.7309    4.0102 C   0  0  2  0  0  0  0  0  0  0  0  0
    3.6492    0.9235    5.4434 N   0  0  0  0  0  0  0  0  0  0  0  0
   10.2740    6.6705    4.5123 C   0  0  1  0  0  0  0  0  0  0  0  0
   10.6307    7.9925    4.1047 O   0  0  0  0  0  0  0  0  0  0  0  0
   11.8147    2.2579    6.4930 C   0  0  2  0  0  0  0  0  0  0  0  0
   11.4277    3.2703    7.5122 N   0  0  0  0  0  0  0  0  0  0  0  0
    6.8310    0.3277    2.5344 C   0  0  2  0  0  0  0  0  0  0  0  0
    5.6912    0.8701    3.2744 O   0  0  0  0  0  0  0  0  0  0  0  0
    1.9988   -0.2277    3.8724 C   0  0  1  0  0  0  0  0  0  0  0  0
    1.4479   -0.0840    2.5440 O   0  0  0  0  0  0  0  0  0  0  0  0
    8.8051    6.6038    4.9888 C   0  0  2  0  0  0  0  0  0  0  0  0
    8.5923    7.5194    6.0379 O   0  0  0  0  0  0  0  0  0  0  0  0
   10.8860    2.4023    5.2231 C   0  0  2  0  0  0  0  0  0  0  0  0
    7.5724   -0.7395    3.3570 C   0  0  2  0  0  0  0  0  0  0  0  0
    8.5565    0.0198    4.0553 O   0  0  0  0  0  0  0  0  0  0  0  0
    2.3456   -1.7681    4.1451 C   0  0  2  0  0  0  0  0  0  0  0  0
    2.6435   -1.9035    5.5341 O   0  0  0  0  0  0  0  0  0  0  0  0
    8.4854    5.1444    5.4549 C   0  0  2  0  0  0  0  0  0  0  0  0
    8.7230    4.2127    4.3526 O   0  0  0  0  0  0  0  0  0  0  0  0
   11.2148    1.3721    4.1205 C   0  0  2  0  0  0  0  0  0  0  0  0
   10.1630    1.5259    3.1282 O   0  0  0  0  0  0  0  0  0  0  0  0
    8.2327   -1.8766    2.5171 C   0  0  0  0  0  0  0  0  0  0  0  0
    8.8327   -2.8231    3.3963 O   0  0  0  0  0  0  0  0  0  0  0  0
    3.5788   -2.2225    3.2762 C   0  0  1  0  0  0  0  0  0  0  0  0
    4.6840   -1.3142    3.6279 O   0  0  0  0  0  0  0  0  0  0  0  0
    7.0608    4.9858    5.9336 C   0  0  0  0  0  0  0  0  0  0  0  0
    6.8391    3.6660    6.3674 O   0  0  0  0  0  0  0  0  0  0  0  0
   11.2104   -0.0957    4.7216 C   0  0  1  0  0  0  0  0  0  0  0  0
   11.6617   -1.0324    3.7395 O   0  0  0  0  0  0  0  0  0  0  0  0
    4.0140   -3.7340    3.5099 C   0  0  0  0  0  0  0  0  0  0  0  0
    3.0144   -4.7601    3.1043 N   0  0  0  0  0  0  0  0  0  0  0  0
  1  2  1  1  0  0  0
  1  7  1  0  0  0  0
  1 30  1  0  0  0  0
  3  4  1  1  0  0  0
  3  9  1  0  0  0  0
  3 39  1  0  0  0  0
  5 10  1  0  0  0  0
  5 26  1  0  0  0  0
  5 32  1  6  0  0  0
  6 12  1  0  0  0  0
  6 36  1  0  0  0  0
  6 19  1  1  0  0  0
  7  8  1  1  0  0  0
  7 14  1  0  0  0  0
  9 16  1  0  0  0  0
 10 11  1  1  0  0  0
 10 18  1  0  0  0  0
 12 13  1  1  0  0  0
 12 20  1  0  0  0  0
 14 15  1  6  0  0  0
 14 22  1  0  0  0  0
 16 17  1  1  0  0  0
 16 24  1  0  0  0  0
 18 19  1  1  0  0  0
 18 25  1  0  0  0  0
 20 21  1  6  0  0  0
 20 27  1  0  0  0  0
 22 23  1  1  0  0  0
 22 29  1  0  0  0  0
 24  2  1  6  0  0  0
 24 31  1  0  0  0  0
 25 26  1  0  0  0  0
 25 33  1  6  0  0  0
 27 28  1  1  0  0  0
 27 35  1  0  0  0  0
 29 30  1  0  0  0  0
 29 37  1  6  0  0  0
 31 32  1  6  0  0  0
 31 39  1  0  0  0  0
 33 34  1  0  0  0  0
 35 36  1  0  0  0  0
 35 41  1  1  0  0  0
 37 38  1  0  0  0  0
 39 40  1  6  0  0  0
 41 42  1  0  0  0  0
M  END
>  <CHROM.1>
179.03933236,-174.58029445,179.61152743,157.49094546,-164.42024208,-177.52402859
-178.67111400,-59.67944485,64.69897932,7.88972499,1.47925395,4.28164115,0.74003300
-0.13240128,0.06279648

>  <Name>
2o3w_lig

>  <RI>
0

>  <Rbt.Current_Directory>
/home/itssahil/PROJECTS/Mol_Feturizer/New_Systems/rnas/2o3w

>  <Rbt.Executable>
rbdock ($Id: //depot/dev/client3/rdock/2013.1/src/exe/rbdock.cxx#4 $)

>  <Rbt.Library>
libRbt.so (2013.1, Build901 2013/11/27)

>  <Rbt.Parameter_File>
/export/apps/rDock/src/rDock_2013.1_src/data/scripts/dock_solv.prm

>  <Rbt.Receptor>
prm/pocket_docking_5.prm

>  <SCORE>
-17.2645

>  <SCORE.INTER>
-4.28328

>  <SCORE.INTER.CONST>
1

>  <SCORE.INTER.POLAR>
-0.894427

>  <SCORE.INTER.ROT>
9

>  <SCORE.INTER.SOLV>
13.5975

>  <SCORE.INTER.VDW>
-14.0066

>  <SCORE.INTER.norm>
-0.101983

>  <SCORE.INTRA>
-12.9812

>  <SCORE.INTRA.DIHEDRAL>
-24.154

>  <SCORE.INTRA.DIHEDRAL.0>
27.8999

>  <SCORE.INTRA.POLAR>
0

>  <SCORE.INTRA.POLAR.0>
0

>  <SCORE.INTRA.REPUL>
0

>  <SCORE.INTRA.REPUL.0>
0

>  <SCORE.INTRA.SOLV>
-4.91652

>  <SCORE.INTRA.SOLV.lig_0>
-104.479

>  <SCORE.INTRA.VDW>
1.55405

>  <SCORE.INTRA.VDW.0>
-6.17816

>  <SCORE.INTRA.norm>
-0.309076

>  <SCORE.RESTR>
0

>  <SCORE.RESTR.CAVITY>
0

>  <SCORE.RESTR.norm>
0

>  <SCORE.SYSTEM>
0

>  <SCORE.SYSTEM.CONST>
0

>  <SCORE.SYSTEM.DIHEDRAL>
0

>  <SCORE.SYSTEM.SOLV>
0

>  <SCORE.SYSTEM.norm>
0

>  <SCORE.heavy>
42

>  <SCORE.norm>
-0.411059

>  <RMSD>
7.599

$$$$
2o3w_lig
 OpenBabel11021811463D
libRbt.so/2013.1/901 2013/11/27
 42 45  0  0  0  0  0  0  0  0999 V2000
    5.3082    3.7092    2.3143 C   0  0  2  0  0  0  0  0  0  0  0  0
    3.9900    3.3126    1.8991 O   0  0  0  0  0  0  0  0  0  0  0  0
    1.2725    5.4525   -0.7147 C   0  0  2  0  0  0  0  0  0  0  0  0
    0.3261    6.4670   -1.2674 N   0  0  0  0  0  0  0  0  0  0  0  0
    5.5658    6.7852    0.1082 C   0  0  1  0  0  0  0  0  0  0  0  0
    6.7062    8.5216   -2.0253 C   0  0  1  0  0  0  0  0  0  0  0  0
    5.9761    2.4598    2.9631 C   0  0  2  0  0  0  0  0  0  0  0  0
    5.8673    1.2589    2.1166 N   0  0  0  0  0  0  0  0  0  0  0  0
    0.6570    4.7196    0.5447 C   0  0  0  0  0  0  0  0  0  0  0  0
    5.1698    8.2487    0.4719 C   0  0  2  0  0  0  0  0  0  0  0  0
    4.1233    8.8010   -0.3641 O   0  0  0  0  0  0  0  0  0  0  0  0
    7.9484    7.5660   -2.1376 C   0  0  2  0  0  0  0  0  0  0  0  0
    9.2151    8.3491   -2.2525 N   0  0  0  0  0  0  0  0  0  0  0  0
    5.3500    2.1030    4.3239 C   0  0  1  0  0  0  0  0  0  0  0  0
    6.0178    0.9787    4.8991 O   0  0  0  0  0  0  0  0  0  0  0  0
    1.6889    3.6497    1.0672 C   0  0  2  0  0  0  0  0  0  0  0  0
    1.1354    2.9294    2.2455 N   0  0  0  0  0  0  0  0  0  0  0  0
    6.5250    8.9527    0.3883 C   0  0  2  0  0  0  0  0  0  0  0  0
    6.7793    9.4724   -0.9556 O   0  0  0  0  0  0  0  0  0  0  0  0
    7.7561    6.5946   -3.3970 C   0  0  1  0  0  0  0  0  0  0  0  0
    6.7533    5.6048   -3.0747 O   0  0  0  0  0  0  0  0  0  0  0  0
    5.4099    3.3334    5.2575 C   0  0  2  0  0  0  0  0  0  0  0  0
    4.8555    3.0181    6.5136 O   0  0  0  0  0  0  0  0  0  0  0  0
    3.0548    4.3391    1.4609 C   0  0  2  0  0  0  0  0  0  0  0  0
    7.5747    7.9016    0.7870 C   0  0  2  0  0  0  0  0  0  0  0  0
    6.9881    6.6791    0.3469 O   0  0  0  0  0  0  0  0  0  0  0  0
    7.3275    7.3783   -4.7273 C   0  0  2  0  0  0  0  0  0  0  0  0
    8.4468    8.1570   -5.1481 O   0  0  0  0  0  0  0  0  0  0  0  0
    4.6330    4.5178    4.5917 C   0  0  2  0  0  0  0  0  0  0  0  0
    5.2206    4.8196    3.2865 O   0  0  0  0  0  0  0  0  0  0  0  0
    3.6884    5.1238    0.2913 C   0  0  2  0  0  0  0  0  0  0  0  0
    4.8170    5.8322    0.8737 O   0  0  0  0  0  0  0  0  0  0  0  0
    7.9067    7.8483    2.3106 C   0  0  0  0  0  0  0  0  0  0  0  0
    8.8759    6.8312    2.5455 O   0  0  0  0  0  0  0  0  0  0  0  0
    6.0885    8.3106   -4.4484 C   0  0  1  0  0  0  0  0  0  0  0  0
    6.4926    9.2123   -3.3558 O   0  0  0  0  0  0  0  0  0  0  0  0
    4.6459    5.7701    5.4374 C   0  0  0  0  0  0  0  0  0  0  0  0
    3.8822    6.7787    4.8220 O   0  0  0  0  0  0  0  0  0  0  0  0
    2.6380    6.1441   -0.3181 C   0  0  1  0  0  0  0  0  0  0  0  0
    3.1729    6.7601   -1.4929 O   0  0  0  0  0  0  0  0  0  0  0  0
    5.6156    9.1541   -5.7107 C   0  0  0  0  0  0  0  0  0  0  0  0
    4.4505   10.0526   -5.4829 N   0  0  0  0  0  0  0  0  0  0  0  0
  1  2  1  1  0  0  0
  1  7  1  0  0  0  0
  1 30  1  0  0  0  0
  3  4  1  1  0  0  0
  3  9  1  0  0  0  0
  3 39  1  0  0  0  0
  5 10  1  0  0  0  0
  5 26  1  0  0  0  0
  5 32  1  1  0  0  0
  6 12  1  0  0  0  0
  6 36  1  0  0  0  0
  6 19  1  1  0  0  0
  7  8  1  6  0  0  0
  7 14  1  0  0  0  0
  9 16  1  0  0  0  0
 10 11  1  6  0  0  0
 10 18  1  0  0  0  0
 12 13  1  6  0  0  0
 12 20  1  0  0  0  0
 14 15  1  1  0  0  0
 14 22  1  0  0  0  0
 16 17  1  1  0  0  0
 16 24  1  0  0  0  0
 18 19  1  6  0  0  0
 18 25  1  0  0  0  0
 20 21  1  1  0  0  0
 20 27  1  0  0  0  0
 22 23  1  1  0  0  0
 22 29  1  0  0  0  0
 24  2  1  6  0  0  0
 24 31  1  0  0  0  0
 25 26  1  0  0  0  0
 25 33  1  1  0  0  0
 27 28  1  1  0  0  0
 27 35  1  0  0  0  0
 29 30  1  0  0  0  0
 29 37  1  1  0  0  0
 31 32  1  1  0  0  0
 31 39  1  0  0  0  0
 33 34  1  0  0  0  0
 35 36  1  0  0  0  0
 35 41  1  6  0  0  0
 37 38  1  0  0  0  0
 39 40  1  6  0  0  0
 41 42  1  0  0  0  0
M  END
>  <CHROM.1>
169.86626485,101.90721333,-76.04915798,-55.56570518,-179.78572288,179.42361622
-177.22563627,-173.25664729,-179.69637311,5.25942779,6.05696590,0.37722947
-1.81183896,-0.28520121,-1.04479125

>  <Name>
2o3w_lig

>  <RI>
0

>  <Rbt.Current_Directory>
/home/itssahil/PROJECTS/Mol_Feturizer/New_Systems/rnas/2o3w

>  <Rbt.Executable>
rbdock ($Id: //depot/dev/client3/rdock/2013.1/src/exe/rbdock.cxx#4 $)

>  <Rbt.Library>
libRbt.so (2013.1, Build901 2013/11/27)

>  <Rbt.Parameter_File>
/export/apps/rDock/src/rDock_2013.1_src/data/scripts/dock_solv.prm

>  <Rbt.Receptor>
prm/pocket_docking_8.prm

>  <SCORE>
-21.9492

>  <SCORE.INTER>
-14.1415

>  <SCORE.INTER.CONST>
1

>  <SCORE.INTER.POLAR>
-2.5937

>  <SCORE.INTER.ROT>
9

>  <SCORE.INTER.SOLV>
15.281

>  <SCORE.INTER.VDW>
-15.4757

>  <SCORE.INTER.norm>
-0.336703

>  <SCORE.INTRA>
-7.80765

>  <SCORE.INTRA.DIHEDRAL>
-20.0279

>  <SCORE.INTRA.DIHEDRAL.0>
27.8999

>  <SCORE.INTRA.POLAR>
0

>  <SCORE.INTRA.POLAR.0>
0

>  <SCORE.INTRA.REPUL>
5.58689e-05

>  <SCORE.INTRA.REPUL.0>
0

>  <SCORE.INTRA.SOLV>
-3.84564

>  <SCORE.INTRA.SOLV.lig_0>
-104.479

>  <SCORE.INTRA.VDW>
4.12884

>  <SCORE.INTRA.VDW.0>
-6.17816

>  <SCORE.INTRA.norm>
-0.185896

>  <SCORE.RESTR>
0

>  <SCORE.RESTR.CAVITY>
0

>  <SCORE.RESTR.norm>
0

>  <SCORE.SYSTEM>
0

>  <SCORE.SYSTEM.CONST>
0

>  <SCORE.SYSTEM.DIHEDRAL>
0

>  <SCORE.SYSTEM.SOLV>
0

>  <SCORE.SYSTEM.norm>
0

>  <SCORE.heavy>
42

>  <SCORE.norm>
-0.522599

>  <RMSD>
7.644

$$$$
2o3w_lig
 OpenBabel11021811463D
libRbt.so/2013.1/901 2013/11/27
 42 45  0  0  0  0  0  0  0  0999 V2000
    2.8305    4.6534    0.4388 C   0  0  2  0  0  0  0  0  0  0  0  0
    2.8158    5.5715    1.5452 O   0  0  0  0  0  0  0  0  0  0  0  0
    6.0725    8.1357    0.2743 C   0  0  2  0  0  0  0  0  0  0  0  0
    7.0348    9.2725    0.1654 N   0  0  0  0  0  0  0  0  0  0  0  0
    6.1570    5.5852    4.0874 C   0  0  1  0  0  0  0  0  0  0  0  0
    9.0740    4.5392    5.4844 C   0  0  1  0  0  0  0  0  0  0  0  0
    1.7239    3.5914    0.7140 C   0  0  2  0  0  0  0  0  0  0  0  0
    0.4309    4.2030    1.0670 N   0  0  0  0  0  0  0  0  0  0  0  0
    4.5980    8.5973   -0.0645 C   0  0  0  0  0  0  0  0  0  0  0  0
    5.8432    5.5287    5.6136 C   0  0  2  0  0  0  0  0  0  0  0  0
    6.1054    6.7688    6.3154 O   0  0  0  0  0  0  0  0  0  0  0  0
   10.2804    3.6699    5.9921 C   0  0  2  0  0  0  0  0  0  0  0  0
   10.8652    4.2462    7.2398 N   0  0  0  0  0  0  0  0  0  0  0  0
    2.0976    2.6438    1.8686 C   0  0  1  0  0  0  0  0  0  0  0  0
    1.0751    1.6645    2.0593 O   0  0  0  0  0  0  0  0  0  0  0  0
    3.6362    7.3542    0.0453 C   0  0  2  0  0  0  0  0  0  0  0  0
    2.2398    7.7500   -0.2819 N   0  0  0  0  0  0  0  0  0  0  0  0
    6.6898    4.3308    6.0467 C   0  0  2  0  0  0  0  0  0  0  0  0
    8.0351    4.7407    6.4506 O   0  0  0  0  0  0  0  0  0  0  0  0
   11.3826    3.5674    4.8338 C   0  0  1  0  0  0  0  0  0  0  0  0
   10.8965    2.6777    3.8038 O   0  0  0  0  0  0  0  0  0  0  0  0
    3.4633    1.9833    1.5721 C   0  0  2  0  0  0  0  0  0  0  0  0
    3.8121    1.0997    2.6123 O   0  0  0  0  0  0  0  0  0  0  0  0
    3.6858    6.7383    1.4992 C   0  0  2  0  0  0  0  0  0  0  0  0
    6.7359    3.3836    4.8360 C   0  0  2  0  0  0  0  0  0  0  0  0
    6.6535    4.2757    3.7270 O   0  0  0  0  0  0  0  0  0  0  0  0
   11.7408    4.9896    4.1884 C   0  0  2  0  0  0  0  0  0  0  0  0
   12.4451    5.7447    5.1734 O   0  0  0  0  0  0  0  0  0  0  0  0
    4.5465    3.1013    1.4096 C   0  0  2  0  0  0  0  0  0  0  0  0
    4.1574    4.0103    0.3316 O   0  0  0  0  0  0  0  0  0  0  0  0
    5.1096    6.3150    1.9220 C   0  0  2  0  0  0  0  0  0  0  0  0
    4.9993    5.9524    3.3259 O   0  0  0  0  0  0  0  0  0  0  0  0
    5.5942    2.3213    4.7877 C   0  0  0  0  0  0  0  0  0  0  0  0
    4.3565    2.9728    4.5188 O   0  0  0  0  0  0  0  0  0  0  0  0
   10.4304    5.7486    3.7537 C   0  0  1  0  0  0  0  0  0  0  0  0
    9.6011    5.8608    4.9661 O   0  0  0  0  0  0  0  0  0  0  0  0
    5.9183    2.5427    1.1098 C   0  0  0  0  0  0  0  0  0  0  0  0
    6.8442    3.5899    0.9508 O   0  0  0  0  0  0  0  0  0  0  0  0
    6.1207    7.5220    1.7309 C   0  0  1  0  0  0  0  0  0  0  0  0
    7.4607    7.0869    1.9772 O   0  0  0  0  0  0  0  0  0  0  0  0
   10.6920    7.1885    3.1317 C   0  0  0  0  0  0  0  0  0  0  0  0
   11.2877    8.1899    4.0585 N   0  0  0  0  0  0  0  0  0  0  0  0
  1  2  1  1  0  0  0
  1  7  1  0  0  0  0
  1 30  1  0  0  0  0
  3  4  1  1  0  0  0
  3  9  1  0  0  0  0
  3 39  1  0  0  0  0
  5 10  1  0  0  0  0
  5 26  1  0  0  0  0
  5 32  1  6  0  0  0
  6 12  1  0  0  0  0
  6 36  1  0  0  0  0
  6 19  1  1  0  0  0
  7  8  1  1  0  0  0
  7 14  1  0  0  0  0
  9 16  1  0  0  0  0
 10 11  1  1  0  0  0
 10 18  1  0  0  0  0
 12 13  1  1  0  0  0
 12 20  1  0  0  0  0
 14 15  1  6  0  0  0
 14 22  1  0  0  0  0
 16 17  1  1  0  0  0
 16 24  1  0  0  0  0
 18 19  1  6  0  0  0
 18 25  1  0  0  0  0
 20 21  1  6  0  0  0
 20 27  1  0  0  0  0
 22 23  1  1  0  0  0
 22 29  1  0  0  0  0
 24  2  1  6  0  0  0
 24 31  1  0  0  0  0
 25 26  1  0  0  0  0
 25 33  1  1  0  0  0
 27 28  1  1  0  0  0
 27 35  1  0  0  0  0
 29 30  1  0  0  0  0
 29 37  1  6  0  0  0
 31 32  1  1  0  0  0
 31 39  1  0  0  0  0
 33 34  1  0  0  0  0
 35 36  1  0  0  0  0
 35 41  1  1  0  0  0
 37 38  1  0  0  0  0
 39 40  1  6  0  0  0
 41 42  1  0  0  0  0
M  END
>  <CHROM.1>
-175.19503615,168.17946535,-124.01636256,-100.93420592,42.24672445,69.58663298
178.96125587,-175.94866197,-64.38691490,6.32904220,4.96924829,3.00341563
-2.97498340,0.45351374,2.60048743

>  <Name>
2o3w_lig

>  <RI>
0

>  <Rbt.Current_Directory>
/home/itssahil/PROJECTS/Mol_Feturizer/New_Systems/rnas/2o3w

>  <Rbt.Executable>
rbdock ($Id: //depot/dev/client3/rdock/2013.1/src/exe/rbdock.cxx#4 $)

>  <Rbt.Library>
libRbt.so (2013.1, Build901 2013/11/27)

>  <Rbt.Parameter_File>
/export/apps/rDock/src/rDock_2013.1_src/data/scripts/dock_solv.prm

>  <Rbt.Receptor>
prm/pocket_docking_5.prm

>  <SCORE>
-12.3955

>  <SCORE.INTER>
-6.94893

>  <SCORE.INTER.CONST>
1

>  <SCORE.INTER.POLAR>
-2.17166

>  <SCORE.INTER.ROT>
9

>  <SCORE.INTER.SOLV>
14.1621

>  <SCORE.INTER.VDW>
-11.7144

>  <SCORE.INTER.norm>
-0.165451

>  <SCORE.INTRA>
-5.4466

>  <SCORE.INTRA.DIHEDRAL>
-12.5317

>  <SCORE.INTRA.DIHEDRAL.0>
27.8999

>  <SCORE.INTRA.POLAR>
0

>  <SCORE.INTRA.POLAR.0>
0

>  <SCORE.INTRA.REPUL>
0

>  <SCORE.INTRA.REPUL.0>
0

>  <SCORE.INTRA.SOLV>
-0.307186

>  <SCORE.INTRA.SOLV.lig_0>
-104.479

>  <SCORE.INTRA.VDW>
0.972842

>  <SCORE.INTRA.VDW.0>
-6.17816

>  <SCORE.INTRA.norm>
-0.129681

>  <SCORE.RESTR>
0

>  <SCORE.RESTR.CAVITY>
0

>  <SCORE.RESTR.norm>
0

>  <SCORE.SYSTEM>
0

>  <SCORE.SYSTEM.CONST>
0

>  <SCORE.SYSTEM.DIHEDRAL>
0

>  <SCORE.SYSTEM.SOLV>
0

>  <SCORE.SYSTEM.norm>
0

>  <SCORE.heavy>
42

>  <SCORE.norm>
-0.295132

>  <RMSD>
7.669

$$$$
2o3w_lig
 OpenBabel11021811463D
libRbt.so/2013.1/901 2013/11/27
 42 45  0  0  0  0  0  0  0  0999 V2000
    7.1502    4.9779    5.4246 C   0  0  2  0  0  0  0  0  0  0  0  0
    8.2374    5.7737    4.9227 O   0  0  0  0  0  0  0  0  0  0  0  0
    9.2247    7.0099    0.8862 C   0  0  2  0  0  0  0  0  0  0  0  0
    9.5728    6.9952   -0.5660 N   0  0  0  0  0  0  0  0  0  0  0  0
    6.4581    3.8926    2.4817 C   0  0  1  0  0  0  0  0  0  0  0  0
    5.7996   -0.0453    0.7304 C   0  0  1  0  0  0  0  0  0  0  0  0
    6.9939    5.3225    6.9362 C   0  0  2  0  0  0  0  0  0  0  0  0
    6.9373    6.7743    7.1805 N   0  0  0  0  0  0  0  0  0  0  0  0
   10.3740    6.3617    1.7585 C   0  0  0  0  0  0  0  0  0  0  0  0
    5.1174    3.1267    2.6980 C   0  0  2  0  0  0  0  0  0  0  0  0
    5.0088    2.4825    3.9912 O   0  0  0  0  0  0  0  0  0  0  0  0
    4.4107   -0.3229    0.0501 C   0  0  2  0  0  0  0  0  0  0  0  0
    3.3947   -0.7398    1.0624 N   0  0  0  0  0  0  0  0  0  0  0  0
    8.1565    4.7739    7.7838 C   0  0  1  0  0  0  0  0  0  0  0  0
    7.9521    5.0781    9.1646 O   0  0  0  0  0  0  0  0  0  0  0  0
    9.9600    6.4266    3.2774 C   0  0  2  0  0  0  0  0  0  0  0  0
   11.0273    5.8372    4.1301 N   0  0  0  0  0  0  0  0  0  0  0  0
    5.1122    2.1899    1.4890 C   0  0  2  0  0  0  0  0  0  0  0  0
    5.7621    0.9148    1.7936 O   0  0  0  0  0  0  0  0  0  0  0  0
    4.5904   -1.4440   -1.0803 C   0  0  1  0  0  0  0  0  0  0  0  0
    5.2707   -0.8598   -2.2138 O   0  0  0  0  0  0  0  0  0  0  0  0
    8.2876    3.2509    7.5548 C   0  0  2  0  0  0  0  0  0  0  0  0
    9.3373    2.7303    8.3368 O   0  0  0  0  0  0  0  0  0  0  0  0
    8.6026    5.6551    3.5181 C   0  0  2  0  0  0  0  0  0  0  0  0
    5.8526    2.9390    0.3683 C   0  0  2  0  0  0  0  0  0  0  0  0
    6.7912    3.7395    1.0829 O   0  0  0  0  0  0  0  0  0  0  0  0
    5.4083   -2.7218   -0.5646 C   0  0  2  0  0  0  0  0  0  0  0  0
    4.5851   -3.4090    0.3769 O   0  0  0  0  0  0  0  0  0  0  0  0
    8.5455    2.9836    6.0344 C   0  0  2  0  0  0  0  0  0  0  0  0
    7.4483    3.5411    5.2439 O   0  0  0  0  0  0  0  0  0  0  0  0
    7.4434    6.1987    2.6543 C   0  0  2  0  0  0  0  0  0  0  0  0
    6.3440    5.2700    2.8623 O   0  0  0  0  0  0  0  0  0  0  0  0
    4.9452    3.8195   -0.5458 C   0  0  0  0  0  0  0  0  0  0  0  0
    4.2743    4.7901    0.2521 O   0  0  0  0  0  0  0  0  0  0  0  0
    6.7601   -2.2800    0.1132 C   0  0  1  0  0  0  0  0  0  0  0  0
    6.3902   -1.3578    1.2008 O   0  0  0  0  0  0  0  0  0  0  0  0
    8.6808    1.5122    5.7175 C   0  0  0  0  0  0  0  0  0  0  0  0
    8.9431    1.3335    4.3469 O   0  0  0  0  0  0  0  0  0  0  0  0
    7.8675    6.2347    1.1264 C   0  0  1  0  0  0  0  0  0  0  0  0
    6.8541    6.8771    0.3480 O   0  0  0  0  0  0  0  0  0  0  0  0
    7.6224   -3.4873    0.6856 C   0  0  0  0  0  0  0  0  0  0  0  0
    8.1427   -4.4432   -0.3302 N   0  0  0  0  0  0  0  0  0  0  0  0
  1  2  1  1  0  0  0
  1  7  1  0  0  0  0
  1 30  1  0  0  0  0
  3  4  1  6  0  0  0
  3  9  1  0  0  0  0
  3 39  1  0  0  0  0
  5 10  1  0  0  0  0
  5 26  1  0  0  0  0
  5 32  1  6  0  0  0
  6 12  1  0  0  0  0
  6 36  1  0  0  0  0
  6 19  1  1  0  0  0
  7  8  1  6  0  0  0
  7 14  1  0  0  0  0
  9 16  1  0  0  0  0
 10 11  1  1  0  0  0
 10 18  1  0  0  0  0
 12 13  1  1  0  0  0
 12 20  1  0  0  0  0
 14 15  1  1  0  0  0
 14 22  1  0  0  0  0
 16 17  1  1  0  0  0
 16 24  1  0  0  0  0
 18 19  1  1  0  0  0
 18 25  1  0  0  0  0
 20 21  1  6  0  0  0
 20 27  1  0  0  0  0
 22 23  1  1  0  0  0
 22 29  1  0  0  0  0
 24  2  1  1  0  0  0
 24 31  1  0  0  0  0
 25 26  1  0  0  0  0
 25 33  1  1  0  0  0
 27 28  1  1  0  0  0
 27 35  1  0  0  0  0
 29 30  1  0  0  0  0
 29 37  1  1  0  0  0
 31 32  1  6  0  0  0
 31 39  1  0  0  0  0
 33 34  1  0  0  0  0
 35 36  1  0  0  0  0
 35 41  1  1  0  0  0
 37 38  1  0  0  0  0
 39 40  1  6  0  0  0
 41 42  1  0  0  0  0
M  END
>  <CHROM.1>
-179.73415943,-175.45856404,-51.09520909,179.35643326,-170.33981996,58.87818880
-178.56973215,-62.25983492,64.91110856,7.02457048,2.78641639,2.68646306,-0.24966470
1.25458590,2.48329692

>  <Name>
2o3w_lig

>  <RI>
0

>  <Rbt.Current_Directory>
/home/itssahil/PROJECTS/Mol_Feturizer/New_Systems/rnas/2o3w

>  <Rbt.Executable>
rbdock ($Id: //depot/dev/client3/rdock/2013.1/src/exe/rbdock.cxx#4 $)

>  <Rbt.Library>
libRbt.so (2013.1, Build901 2013/11/27)

>  <Rbt.Parameter_File>
/export/apps/rDock/src/rDock_2013.1_src/data/scripts/dock_solv.prm

>  <Rbt.Receptor>
prm/pocket_docking_8.prm

>  <SCORE>
-24.4338

>  <SCORE.INTER>
-11.4856

>  <SCORE.INTER.CONST>
1

>  <SCORE.INTER.POLAR>
-2.7425

>  <SCORE.INTER.ROT>
9

>  <SCORE.INTER.SOLV>
12.4184

>  <SCORE.INTER.VDW>
-12.2549

>  <SCORE.INTER.norm>
-0.273466

>  <SCORE.INTRA>
-12.9482

>  <SCORE.INTRA.DIHEDRAL>
-26.694

>  <SCORE.INTRA.DIHEDRAL.0>
27.8999

>  <SCORE.INTRA.POLAR>
0

>  <SCORE.INTRA.POLAR.0>
0

>  <SCORE.INTRA.REPUL>
0

>  <SCORE.INTRA.REPUL.0>
0

>  <SCORE.INTRA.SOLV>
-3.71939

>  <SCORE.INTRA.SOLV.lig_0>
-104.479

>  <SCORE.INTRA.VDW>
2.25847

>  <SCORE.INTRA.VDW.0>
-6.17816

>  <SCORE.INTRA.norm>
-0.308291

>  <SCORE.RESTR>
0

>  <SCORE.RESTR.CAVITY>
0

>  <SCORE.RESTR.norm>
0

>  <SCORE.SYSTEM>
0

>  <SCORE.SYSTEM.CONST>
0

>  <SCORE.SYSTEM.DIHEDRAL>
0

>  <SCORE.SYSTEM.SOLV>
0

>  <SCORE.SYSTEM.norm>
0

>  <SCORE.heavy>
42

>  <SCORE.norm>
-0.581757

>  <RMSD>
7.684

$$$$
2o3w_lig
 OpenBabel11021811463D
libRbt.so/2013.1/901 2013/11/27
 42 45  0  0  0  0  0  0  0  0999 V2000
    6.3637    3.4832    2.7041 C   0  0  2  0  0  0  0  0  0  0  0  0
    6.7504    3.3603    1.3247 O   0  0  0  0  0  0  0  0  0  0  0  0
    8.9867    6.0884   -1.1957 C   0  0  2  0  0  0  0  0  0  0  0  0
    9.4094    7.2907   -1.9741 N   0  0  0  0  0  0  0  0  0  0  0  0
    8.7692    6.3252    3.4261 C   0  0  1  0  0  0  0  0  0  0  0  0
   10.4253    8.8241    6.7155 C   0  0  1  0  0  0  0  0  0  0  0  0
    6.1619    2.0379    3.2506 C   0  0  2  0  0  0  0  0  0  0  0  0
    7.3011    1.1552    2.9445 N   0  0  0  0  0  0  0  0  0  0  0  0
    7.6636    5.4565   -1.7889 C   0  0  0  0  0  0  0  0  0  0  0  0
    8.3338    7.7883    3.7430 C   0  0  2  0  0  0  0  0  0  0  0  0
    8.9287    8.7819    2.8723 O   0  0  0  0  0  0  0  0  0  0  0  0
   11.8401    9.4987    6.8257 C   0  0  2  0  0  0  0  0  0  0  0  0
   12.9060    8.5907    6.3058 N   0  0  0  0  0  0  0  0  0  0  0  0
    4.9069    1.3627    2.6676 C   0  0  1  0  0  0  0  0  0  0  0  0
    4.7397    0.0580    3.2250 O   0  0  0  0  0  0  0  0  0  0  0  0
    7.2820    4.1835   -0.9425 C   0  0  2  0  0  0  0  0  0  0  0  0
    6.0470    3.5540   -1.4830 N   0  0  0  0  0  0  0  0  0  0  0  0
    8.7071    7.8955    5.2224 C   0  0  2  0  0  0  0  0  0  0  0  0
   10.0759    8.3818    5.3980 O   0  0  0  0  0  0  0  0  0  0  0  0
   12.1181    9.8977    8.3522 C   0  0  1  0  0  0  0  0  0  0  0  0
   11.3071   11.0453    8.6903 O   0  0  0  0  0  0  0  0  0  0  0  0
    3.6716    2.2529    2.9341 C   0  0  2  0  0  0  0  0  0  0  0  0
    2.5113    1.6406    2.4210 O   0  0  0  0  0  0  0  0  0  0  0  0
    7.0609    4.5685    0.5736 C   0  0  2  0  0  0  0  0  0  0  0  0
    8.5385    6.4827    5.8062 C   0  0  2  0  0  0  0  0  0  0  0  0
    8.8395    5.6390    4.6971 O   0  0  0  0  0  0  0  0  0  0  0  0
   11.8083    8.7028    9.3738 C   0  0  2  0  0  0  0  0  0  0  0  0
   12.7958    7.6933    9.1684 O   0  0  0  0  0  0  0  0  0  0  0  0
    3.8980    3.6522    2.2706 C   0  0  2  0  0  0  0  0  0  0  0  0
    5.1121    4.2626    2.8120 O   0  0  0  0  0  0  0  0  0  0  0  0
    8.2970    5.2446    1.2063 C   0  0  2  0  0  0  0  0  0  0  0  0
    7.8585    5.6904    2.5191 O   0  0  0  0  0  0  0  0  0  0  0  0
    7.1209    6.1722    6.3791 C   0  0  0  0  0  0  0  0  0  0  0  0
    6.7536    7.1916    7.3037 O   0  0  0  0  0  0  0  0  0  0  0  0
   10.3680    8.1159    9.1223 C   0  0  1  0  0  0  0  0  0  0  0  0
   10.3409    7.6879    7.7129 O   0  0  0  0  0  0  0  0  0  0  0  0
    2.7361    4.5936    2.4880 C   0  0  0  0  0  0  0  0  0  0  0  0
    1.5826    4.0943    1.8560 O   0  0  0  0  0  0  0  0  0  0  0  0
    8.7626    6.4755    0.3210 C   0  0  1  0  0  0  0  0  0  0  0  0
    9.9924    7.0066    0.8224 O   0  0  0  0  0  0  0  0  0  0  0  0
    9.9893    6.8991   10.0735 C   0  0  0  0  0  0  0  0  0  0  0  0
   10.8334    5.6816    9.9259 N   0  0  0  0  0  0  0  0  0  0  0  0
  1  2  1  6  0  0  0
  1  7  1  0  0  0  0
  1 30  1  0  0  0  0
  3  4  1  6  0  0  0
  3  9  1  0  0  0  0
  3 39  1  0  0  0  0
  5 10  1  0  0  0  0
  5 26  1  0  0  0  0
  5 32  1  6  0  0  0
  6 12  1  0  0  0  0
  6 36  1  0  0  0  0
  6 19  1  6  0  0  0
  7  8  1  6  0  0  0
  7 14  1  0  0  0  0
  9 16  1  0  0  0  0
 10 11  1  6  0  0  0
 10 18  1  0  0  0  0
 12 13  1  1  0  0  0
 12 20  1  0  0  0  0
 14 15  1  1  0  0  0
 14 22  1  0  0  0  0
 16 17  1  6  0  0  0
 16 24  1  0  0  0  0
 18 19  1  6  0  0  0
 18 25  1  0  0  0  0
 20 21  1  1  0  0  0
 20 27  1  0  0  0  0
 22 23  1  6  0  0  0
 22 29  1  0  0  0  0
 24  2  1  1  0  0  0
 24 31  1  0  0  0  0
 25 26  1  0  0  0  0
 25 33  1  6  0  0  0
 27 28  1  6  0  0  0
 27 35  1  0  0  0  0
 29 30  1  0  0  0  0
 29 37  1  1  0  0  0
 31 32  1  1  0  0  0
 31 39  1  0  0  0  0
 33 34  1  0  0  0  0
 35 36  1  0  0  0  0
 35 41  1  1  0  0  0
 37 38  1  0  0  0  0
 39 40  1  1  0  0  0
 41 42  1  0  0  0  0
M  END
>  <CHROM.1>
-177.47777122,117.36007471,-172.93274628,165.55190941,-173.21598161,-52.41278421
-64.12260254,177.54407374,-63.04526802,8.02244109,5.82832476,3.97689327,2.43543504
-0.73771996,-1.55671046

>  <Name>
2o3w_lig

>  <RI>
0

>  <Rbt.Current_Directory>
/home/itssahil/PROJECTS/Mol_Feturizer/New_Systems/rnas/2o3w

>  <Rbt.Executable>
rbdock ($Id: //depot/dev/client3/rdock/2013.1/src/exe/rbdock.cxx#4 $)

>  <Rbt.Library>
libRbt.so (2013.1, Build901 2013/11/27)

>  <Rbt.Parameter_File>
/export/apps/rDock/src/rDock_2013.1_src/data/scripts/dock_solv.prm

>  <Rbt.Receptor>
prm/pocket_docking_8.prm

>  <SCORE>
-23.8221

>  <SCORE.INTER>
-14.6914

>  <SCORE.INTER.CONST>
1

>  <SCORE.INTER.POLAR>
-2.79987

>  <SCORE.INTER.ROT>
9

>  <SCORE.INTER.SOLV>
14.9531

>  <SCORE.INTER.VDW>
-15.0457

>  <SCORE.INTER.norm>
-0.349795

>  <SCORE.INTRA>
-9.14761

>  <SCORE.INTRA.DIHEDRAL>
-18.8013

>  <SCORE.INTRA.DIHEDRAL.0>
27.8999

>  <SCORE.INTRA.POLAR>
0

>  <SCORE.INTRA.POLAR.0>
0

>  <SCORE.INTRA.REPUL>
0

>  <SCORE.INTRA.REPUL.0>
0

>  <SCORE.INTRA.SOLV>
-3.87399

>  <SCORE.INTRA.SOLV.lig_0>
-104.479

>  <SCORE.INTRA.VDW>
2.19005

>  <SCORE.INTRA.VDW.0>
-6.17816

>  <SCORE.INTRA.norm>
-0.2178

>  <SCORE.RESTR>
0.0168663

>  <SCORE.RESTR.CAVITY>
0.0168663

>  <SCORE.RESTR.norm>
0.000401577

>  <SCORE.SYSTEM>
0

>  <SCORE.SYSTEM.CONST>
0

>  <SCORE.SYSTEM.DIHEDRAL>
0

>  <SCORE.SYSTEM.SOLV>
0

>  <SCORE.SYSTEM.norm>
0

>  <SCORE.heavy>
42

>  <SCORE.norm>
-0.567194

>  <RMSD>
7.686

$$$$
2o3w_lig
 OpenBabel11021811463D
libRbt.so/2013.1/901 2013/11/27
 42 45  0  0  0  0  0  0  0  0999 V2000
    7.4662    3.5223    1.4594 C   0  0  2  0  0  0  0  0  0  0  0  0
    7.8093    3.5709    0.0640 O   0  0  0  0  0  0  0  0  0  0  0  0
    8.6162    6.9446   -2.5366 C   0  0  2  0  0  0  0  0  0  0  0  0
    8.4802    8.2148   -3.3102 N   0  0  0  0  0  0  0  0  0  0  0  0
    8.8192    6.8852    2.1775 C   0  0  1  0  0  0  0  0  0  0  0  0
   10.7873    8.1826    5.9727 C   0  0  1  0  0  0  0  0  0  0  0  0
    7.9338    2.1357    1.9950 C   0  0  2  0  0  0  0  0  0  0  0  0
    9.3289    1.8322    1.6315 N   0  0  0  0  0  0  0  0  0  0  0  0
    7.5971    5.8487   -3.0488 C   0  0  0  0  0  0  0  0  0  0  0  0
    8.1533    6.9212    3.5868 C   0  0  2  0  0  0  0  0  0  0  0  0
    7.3073    8.0761    3.8095 O   0  0  0  0  0  0  0  0  0  0  0  0
   12.3186    8.1465    5.6224 C   0  0  2  0  0  0  0  0  0  0  0  0
   12.6484    6.9475    4.7950 N   0  0  0  0  0  0  0  0  0  0  0  0
    7.0719    0.9798    1.4549 C   0  0  1  0  0  0  0  0  0  0  0  0
    7.5102   -0.2651    2.0017 O   0  0  0  0  0  0  0  0  0  0  0  0
    7.8034    4.5295   -2.2124 C   0  0  2  0  0  0  0  0  0  0  0  0
    6.8686    3.4699   -2.6784 N   0  0  0  0  0  0  0  0  0  0  0  0
    9.3779    6.8120    4.4967 C   0  0  2  0  0  0  0  0  0  0  0  0
    9.9140    8.1300    4.8378 O   0  0  0  0  0  0  0  0  0  0  0  0
   13.1717    8.1622    6.9785 C   0  0  1  0  0  0  0  0  0  0  0  0
   13.1145    9.4880    7.5510 O   0  0  0  0  0  0  0  0  0  0  0  0
    5.5854    1.2481    1.7828 C   0  0  2  0  0  0  0  0  0  0  0  0
    4.7844    0.1904    1.3094 O   0  0  0  0  0  0  0  0  0  0  0  0
    7.5701    4.8031   -0.6740 C   0  0  2  0  0  0  0  0  0  0  0  0
   10.4091    5.9744    3.7218 C   0  0  2  0  0  0  0  0  0  0  0  0
   10.1264    6.2950    2.3618 O   0  0  0  0  0  0  0  0  0  0  0  0
   12.6529    7.0919    8.0522 C   0  0  2  0  0  0  0  0  0  0  0  0
   12.9598    5.7925    7.5483 O   0  0  0  0  0  0  0  0  0  0  0  0
    5.1549    2.6033    1.1288 C   0  0  2  0  0  0  0  0  0  0  0  0
    6.0063    3.6829    1.6282 O   0  0  0  0  0  0  0  0  0  0  0  0
    8.4951    5.9063   -0.1150 C   0  0  2  0  0  0  0  0  0  0  0  0
    8.0226    6.1515    1.2382 O   0  0  0  0  0  0  0  0  0  0  0  0
   10.3238    4.4357    3.9652 C   0  0  0  0  0  0  0  0  0  0  0  0
   10.6073    4.1594    5.3335 O   0  0  0  0  0  0  0  0  0  0  0  0
   11.1002    7.2371    8.2761 C   0  0  1  0  0  0  0  0  0  0  0  0
   10.4782    7.0692    6.9513 O   0  0  0  0  0  0  0  0  0  0  0  0
    3.7101    2.9494    1.4053 C   0  0  0  0  0  0  0  0  0  0  0  0
    2.8629    1.9720    0.8520 O   0  0  0  0  0  0  0  0  0  0  0  0
    8.3793    7.2191   -0.9974 C   0  0  1  0  0  0  0  0  0  0  0  0
    9.3441    8.1858   -0.5728 O   0  0  0  0  0  0  0  0  0  0  0  0
   10.4934    6.1876    9.3052 C   0  0  0  0  0  0  0  0  0  0  0  0
    9.0266    6.2914    9.5386 N   0  0  0  0  0  0  0  0  0  0  0  0
  1  2  1  6  0  0  0
  1  7  1  0  0  0  0
  1 30  1  0  0  0  0
  3  4  1  6  0  0  0
  3  9  1  0  0  0  0
  3 39  1  0  0  0  0
  5 10  1  0  0  0  0
  5 26  1  0  0  0  0
  5 32  1  6  0  0  0
  6 12  1  0  0  0  0
  6 36  1  0  0  0  0
  6 19  1  6  0  0  0
  7  8  1  6  0  0  0
  7 14  1  0  0  0  0
  9 16  1  0  0  0  0
 10 11  1  1  0  0  0
 10 18  1  0  0  0  0
 12 13  1  1  0  0  0
 12 20  1  0  0  0  0
 14 15  1  1  0  0  0
 14 22  1  0  0  0  0
 16 17  1  6  0  0  0
 16 24  1  0  0  0  0
 18 19  1  6  0  0  0
 18 25  1  0  0  0  0
 20 21  1  1  0  0  0
 20 27  1  0  0  0  0
 22 23  1  6  0  0  0
 22 29  1  0  0  0  0
 24  2  1  1  0  0  0
 24 31  1  0  0  0  0
 25 26  1  0  0  0  0
 25 33  1  6  0  0  0
 27 28  1  6  0  0  0
 27 35  1  0  0  0  0
 29 30  1  0  0  0  0
 29 37  1  1  0  0  0
 31 32  1  1  0  0  0
 31 39  1  0  0  0  0
 33 34  1  0  0  0  0
 35 36  1  0  0  0  0
 35 41  1  1  0  0  0
 37 38  1  0  0  0  0
 39 40  1  1  0  0  0
 41 42  1  0  0  0  0
M  END
>  <CHROM.1>
-175.68353754,-175.54348052,97.08981485,162.11583819,-170.85695145,-63.32423028
-62.19111279,165.41732410,-179.79159198,8.79983693,5.31901986,2.80268940
2.62461294,-0.92565028,-1.11719123

>  <Name>
2o3w_lig

>  <RI>
0

>  <Rbt.Current_Directory>
/home/itssahil/PROJECTS/Mol_Feturizer/New_Systems/rnas/2o3w

>  <Rbt.Executable>
rbdock ($Id: //depot/dev/client3/rdock/2013.1/src/exe/rbdock.cxx#4 $)

>  <Rbt.Library>
libRbt.so (2013.1, Build901 2013/11/27)

>  <Rbt.Parameter_File>
/export/apps/rDock/src/rDock_2013.1_src/data/scripts/dock_solv.prm

>  <Rbt.Receptor>
prm/pocket_docking_8.prm

>  <SCORE>
-26.8525

>  <SCORE.INTER>
-18.3226

>  <SCORE.INTER.CONST>
1

>  <SCORE.INTER.POLAR>
-3.51822

>  <SCORE.INTER.ROT>
9

>  <SCORE.INTER.SOLV>
21.4665

>  <SCORE.INTER.VDW>
-17.2432

>  <SCORE.INTER.norm>
-0.436253

>  <SCORE.INTRA>
-8.5299

>  <SCORE.INTRA.DIHEDRAL>
-19.8112

>  <SCORE.INTRA.DIHEDRAL.0>
27.8999

>  <SCORE.INTRA.POLAR>
0

>  <SCORE.INTRA.POLAR.0>
0

>  <SCORE.INTRA.REPUL>
0

>  <SCORE.INTRA.REPUL.0>
0

>  <SCORE.INTRA.SOLV>
-1.87731

>  <SCORE.INTRA.SOLV.lig_0>
-104.479

>  <SCORE.INTRA.VDW>
2.31435

>  <SCORE.INTRA.VDW.0>
-6.17816

>  <SCORE.INTRA.norm>
-0.203093

>  <SCORE.RESTR>
0

>  <SCORE.RESTR.CAVITY>
0

>  <SCORE.RESTR.norm>
0

>  <SCORE.SYSTEM>
0

>  <SCORE.SYSTEM.CONST>
0

>  <SCORE.SYSTEM.DIHEDRAL>
0

>  <SCORE.SYSTEM.SOLV>
0

>  <SCORE.SYSTEM.norm>
0

>  <SCORE.heavy>
42

>  <SCORE.norm>
-0.639346

>  <RMSD>
7.712

$$$$
2o3w_lig
 OpenBabel11021811463D
libRbt.so/2013.1/901 2013/11/27
 42 45  0  0  0  0  0  0  0  0999 V2000
    3.7936    0.5991    4.2219 C   0  0  2  0  0  0  0  0  0  0  0  0
    3.3887    0.8476    2.8648 O   0  0  0  0  0  0  0  0  0  0  0  0
    1.5295    4.1197    0.7124 C   0  0  2  0  0  0  0  0  0  0  0  0
    0.6598    5.2787    0.3508 N   0  0  0  0  0  0  0  0  0  0  0  0
    5.2140    3.2141    4.0939 C   0  0  1  0  0  0  0  0  0  0  0  0
    9.5157    3.6892    5.1008 C   0  0  1  0  0  0  0  0  0  0  0  0
    4.8072   -0.5839    4.1849 C   0  0  2  0  0  0  0  0  0  0  0  0
    5.8731   -0.3821    3.1881 N   0  0  0  0  0  0  0  0  0  0  0  0
    0.6739    2.8090    0.9398 C   0  0  0  0  0  0  0  0  0  0  0  0
    6.1687    4.2550    3.4336 C   0  0  2  0  0  0  0  0  0  0  0  0
    6.6522    3.8640    2.1250 O   0  0  0  0  0  0  0  0  0  0  0  0
   10.7338    2.7691    4.7286 C   0  0  2  0  0  0  0  0  0  0  0  0
   10.3604    1.3259    4.8224 N   0  0  0  0  0  0  0  0  0  0  0  0
    4.1289   -1.9240    3.8457 C   0  0  1  0  0  0  0  0  0  0  0  0
    5.0864   -2.9842    3.8619 O   0  0  0  0  0  0  0  0  0  0  0  0
    1.6455    1.6205    1.2949 C   0  0  2  0  0  0  0  0  0  0  0  0
    0.8737    0.3654    1.5017 N   0  0  0  0  0  0  0  0  0  0  0  0
    7.2379    4.4063    4.5168 C   0  0  2  0  0  0  0  0  0  0  0  0
    8.3306    3.4510    4.3313 O   0  0  0  0  0  0  0  0  0  0  0  0
   11.9670    3.1083    5.6934 C   0  0  1  0  0  0  0  0  0  0  0  0
   12.5314    4.3796    5.3007 O   0  0  0  0  0  0  0  0  0  0  0  0
    2.9787   -2.1871    4.8442 C   0  0  2  0  0  0  0  0  0  0  0  0
    2.3580   -3.4187    4.5574 O   0  0  0  0  0  0  0  0  0  0  0  0
    2.4779    1.9515    2.5963 C   0  0  2  0  0  0  0  0  0  0  0  0
    6.5195    4.1778    5.8573 C   0  0  2  0  0  0  0  0  0  0  0  0
    5.4831    3.2611    5.5140 O   0  0  0  0  0  0  0  0  0  0  0  0
   11.5506    3.1615    7.2398 C   0  0  2  0  0  0  0  0  0  0  0  0
   11.2390    1.8302    7.6482 O   0  0  0  0  0  0  0  0  0  0  0  0
    1.9467   -1.0137    4.7548 C   0  0  2  0  0  0  0  0  0  0  0  0
    2.6164    0.2536    5.0468 O   0  0  0  0  0  0  0  0  0  0  0  0
    3.2978    3.2540    2.4676 C   0  0  2  0  0  0  0  0  0  0  0  0
    3.8408    3.4962    3.7946 O   0  0  0  0  0  0  0  0  0  0  0  0
    5.9346    5.4644    6.5182 C   0  0  0  0  0  0  0  0  0  0  0  0
    4.9714    6.0458    5.6446 O   0  0  0  0  0  0  0  0  0  0  0  0
   10.3034    4.1016    7.4476 C   0  0  1  0  0  0  0  0  0  0  0  0
    9.2376    3.5642    6.5841 O   0  0  0  0  0  0  0  0  0  0  0  0
    0.7859   -1.1865    5.7068 C   0  0  0  0  0  0  0  0  0  0  0  0
    0.0716   -2.3572    5.3930 O   0  0  0  0  0  0  0  0  0  0  0  0
    2.3598    4.4509    2.0168 C   0  0  1  0  0  0  0  0  0  0  0  0
    3.1425    5.6182    1.7515 O   0  0  0  0  0  0  0  0  0  0  0  0
    9.8002    4.1865    8.9536 C   0  0  0  0  0  0  0  0  0  0  0  0
    8.6846    5.1397    9.2052 N   0  0  0  0  0  0  0  0  0  0  0  0
  1  2  1  6  0  0  0
  1  7  1  0  0  0  0
  1 30  1  0  0  0  0
  3  4  1  1  0  0  0
  3  9  1  0  0  0  0
  3 39  1  0  0  0  0
  5 10  1  0  0  0  0
  5 26  1  0  0  0  0
  5 32  1  1  0  0  0
  6 12  1  0  0  0  0
  6 36  1  0  0  0  0
  6 19  1  6  0  0  0
  7  8  1  6  0  0  0
  7 14  1  0  0  0  0
  9 16  1  0  0  0  0
 10 11  1  6  0  0  0
 10 18  1  0  0  0  0
 12 13  1  1  0  0  0
 12 20  1  0  0  0  0
 14 15  1  1  0  0  0
 14 22  1  0  0  0  0
 16 17  1  1  0  0  0
 16 24  1  0  0  0  0
 18 19  1  6  0  0  0
 18 25  1  0  0  0  0
 20 21  1  6  0  0  0
 20 27  1  0  0  0  0
 22 23  1  6  0  0  0
 22 29  1  0  0  0  0
 24  2  1  6  0  0  0
 24 31  1  0  0  0  0
 25 26  1  0  0  0  0
 25 33  1  6  0  0  0
 27 28  1  6  0  0  0
 27 35  1  0  0  0  0
 29 30  1  0  0  0  0
 29 37  1  1  0  0  0
 31 32  1  1  0  0  0
 31 39  1  0  0  0  0
 33 34  1  0  0  0  0
 35 36  1  0  0  0  0
 35 41  1  1  0  0  0
 37 38  1  0  0  0  0
 39 40  1  6  0  0  0
 41 42  1  0  0  0  0
M  END
>  <CHROM.1>
-177.37745914,72.80431770,-171.78468074,166.84886942,-152.25872622,60.71168026
-61.83617749,103.27263174,175.83229081,5.49492240,2.22600952,4.41369983,-2.94079042
-0.47030339,-0.31837689

>  <Name>
2o3w_lig

>  <RI>
0

>  <Rbt.Current_Directory>
/home/itssahil/PROJECTS/Mol_Feturizer/New_Systems/rnas/2o3w

>  <Rbt.Executable>
rbdock ($Id: //depot/dev/client3/rdock/2013.1/src/exe/rbdock.cxx#4 $)

>  <Rbt.Library>
libRbt.so (2013.1, Build901 2013/11/27)

>  <Rbt.Parameter_File>
/export/apps/rDock/src/rDock_2013.1_src/data/scripts/dock_solv.prm

>  <Rbt.Receptor>
prm/pocket_docking_5.prm

>  <SCORE>
-16.3059

>  <SCORE.INTER>
-7.67331

>  <SCORE.INTER.CONST>
1

>  <SCORE.INTER.POLAR>
-0.812497

>  <SCORE.INTER.ROT>
9

>  <SCORE.INTER.SOLV>
10.62

>  <SCORE.INTER.VDW>
-15.5472

>  <SCORE.INTER.norm>
-0.182698

>  <SCORE.INTRA>
-8.63263

>  <SCORE.INTRA.DIHEDRAL>
-16.6778

>  <SCORE.INTRA.DIHEDRAL.0>
27.8999

>  <SCORE.INTRA.POLAR>
0

>  <SCORE.INTRA.POLAR.0>
0

>  <SCORE.INTRA.REPUL>
0

>  <SCORE.INTRA.REPUL.0>
0

>  <SCORE.INTRA.SOLV>
-3.13798

>  <SCORE.INTRA.SOLV.lig_0>
-104.479

>  <SCORE.INTRA.VDW>
1.27528

>  <SCORE.INTRA.VDW.0>
-6.17816

>  <SCORE.INTRA.norm>
-0.205539

>  <SCORE.RESTR>
0

>  <SCORE.RESTR.CAVITY>
0

>  <SCORE.RESTR.norm>
0

>  <SCORE.SYSTEM>
0

>  <SCORE.SYSTEM.CONST>
0

>  <SCORE.SYSTEM.DIHEDRAL>
0

>  <SCORE.SYSTEM.SOLV>
0

>  <SCORE.SYSTEM.norm>
0

>  <SCORE.heavy>
42

>  <SCORE.norm>
-0.388237

>  <RMSD>
7.791

$$$$
2o3w_lig
 OpenBabel11021811463D
libRbt.so/2013.1/901 2013/11/27
 42 45  0  0  0  0  0  0  0  0999 V2000
    4.1649    3.8236    2.1463 C   0  0  2  0  0  0  0  0  0  0  0  0
    4.2876    4.5922    0.9373 O   0  0  0  0  0  0  0  0  0  0  0  0
    2.2746    1.8121   -1.7113 C   0  0  2  0  0  0  0  0  0  0  0  0
    1.7179    1.1487   -2.9280 N   0  0  0  0  0  0  0  0  0  0  0  0
    6.2089    3.7701   -2.1145 C   0  0  1  0  0  0  0  0  0  0  0  0
    5.6827    6.9488   -4.7200 C   0  0  1  0  0  0  0  0  0  0  0  0
    4.6928    4.7168    3.3089 C   0  0  2  0  0  0  0  0  0  0  0  0
    4.0955    6.0636    3.3010 N   0  0  0  0  0  0  0  0  0  0  0  0
    1.5870    3.2135   -1.4562 C   0  0  0  0  0  0  0  0  0  0  0  0
    5.7412    5.2573   -2.0986 C   0  0  2  0  0  0  0  0  0  0  0  0
    4.4245    5.4671   -2.6654 O   0  0  0  0  0  0  0  0  0  0  0  0
    5.5134    7.0350   -6.2798 C   0  0  2  0  0  0  0  0  0  0  0  0
    6.8221    7.3129   -6.9439 N   0  0  0  0  0  0  0  0  0  0  0  0
    6.2197    4.9071    3.2525 C   0  0  1  0  0  0  0  0  0  0  0  0
    6.6636    5.6974    4.3567 O   0  0  0  0  0  0  0  0  0  0  0  0
    2.1979    3.8518   -0.1516 C   0  0  2  0  0  0  0  0  0  0  0  0
    1.5621    5.1677    0.1273 N   0  0  0  0  0  0  0  0  0  0  0  0
    6.8954    5.9395   -2.8347 C   0  0  2  0  0  0  0  0  0  0  0  0
    6.6559    5.9947   -4.2771 O   0  0  0  0  0  0  0  0  0  0  0  0
    4.4368    8.1677   -6.6329 C   0  0  1  0  0  0  0  0  0  0  0  0
    3.1179    7.6784   -6.3013 O   0  0  0  0  0  0  0  0  0  0  0  0
    6.9113    3.5249    3.2336 C   0  0  2  0  0  0  0  0  0  0  0  0
    8.3108    3.6818    3.1989 O   0  0  0  0  0  0  0  0  0  0  0  0
    3.7595    4.0387   -0.3016 C   0  0  2  0  0  0  0  0  0  0  0  0
    8.1524    5.1151   -2.5098 C   0  0  2  0  0  0  0  0  0  0  0  0
    7.6369    3.7967   -2.3408 O   0  0  0  0  0  0  0  0  0  0  0  0
    4.7072    9.5453   -5.8605 C   0  0  2  0  0  0  0  0  0  0  0  0
    5.8970   10.1170   -6.4028 O   0  0  0  0  0  0  0  0  0  0  0  0
    6.4136    2.7221    1.9856 C   0  0  2  0  0  0  0  0  0  0  0  0
    4.9587    2.5810    2.0396 O   0  0  0  0  0  0  0  0  0  0  0  0
    4.4942    2.7155   -0.6092 C   0  0  2  0  0  0  0  0  0  0  0  0
    5.8675    3.0986   -0.8948 O   0  0  0  0  0  0  0  0  0  0  0  0
    8.9340    5.5789   -1.2416 C   0  0  0  0  0  0  0  0  0  0  0  0
    9.4538    6.8868   -1.4615 O   0  0  0  0  0  0  0  0  0  0  0  0
    4.8794    9.2916   -4.3152 C   0  0  1  0  0  0  0  0  0  0  0  0
    5.9873    8.3301   -4.1793 O   0  0  0  0  0  0  0  0  0  0  0  0
    7.0371    1.3487    1.8912 C   0  0  0  0  0  0  0  0  0  0  0  0
    6.5449    0.6694    0.7618 O   0  0  0  0  0  0  0  0  0  0  0  0
    3.8371    2.0015   -1.8639 C   0  0  1  0  0  0  0  0  0  0  0  0
    4.4171    0.7083   -2.0555 O   0  0  0  0  0  0  0  0  0  0  0  0
    5.1856   10.6054   -3.4733 C   0  0  0  0  0  0  0  0  0  0  0  0
    5.2891   10.4148   -2.0004 N   0  0  0  0  0  0  0  0  0  0  0  0
  1  2  1  6  0  0  0
  1  7  1  0  0  0  0
  1 30  1  0  0  0  0
  3  4  1  6  0  0  0
  3  9  1  0  0  0  0
  3 39  1  0  0  0  0
  5 10  1  0  0  0  0
  5 26  1  0  0  0  0
  5 32  1  1  0  0  0
  6 12  1  0  0  0  0
  6 36  1  0  0  0  0
  6 19  1  6  0  0  0
  7  8  1  6  0  0  0
  7 14  1  0  0  0  0
  9 16  1  0  0  0  0
 10 11  1  6  0  0  0
 10 18  1  0  0  0  0
 12 13  1  6  0  0  0
 12 20  1  0  0  0  0
 14 15  1  1  0  0  0
 14 22  1  0  0  0  0
 16 17  1  6  0  0  0
 16 24  1  0  0  0  0
 18 19  1  6  0  0  0
 18 25  1  0  0  0  0
 20 21  1  1  0  0  0
 20 27  1  0  0  0  0
 22 23  1  6  0  0  0
 22 29  1  0  0  0  0
 24  2  1  1  0  0  0
 24 31  1  0  0  0  0
 25 26  1  0  0  0  0
 25 33  1  1  0  0  0
 27 28  1  6  0  0  0
 27 35  1  0  0  0  0
 29 30  1  0  0  0  0
 29 37  1  1  0  0  0
 31 32  1  6  0  0  0
 31 39  1  0  0  0  0
 33 34  1  0  0  0  0
 35 36  1  0  0  0  0
 35 41  1  1  0  0  0
 37 38  1  0  0  0  0
 39 40  1  1  0  0  0
 41 42  1  0  0  0  0
M  END
>  <CHROM.1>
-174.90062679,73.75577797,176.68262916,74.08422571,62.52616567,-64.69017189
179.40945947,-72.10822739,177.15242876,5.36360723,5.12252226,-1.42658449
1.57224748,0.82339234,2.21168936

>  <Name>
2o3w_lig

>  <RI>
0

>  <Rbt.Current_Directory>
/home/itssahil/PROJECTS/Mol_Feturizer/New_Systems/rnas/2o3w

>  <Rbt.Executable>
rbdock ($Id: //depot/dev/client3/rdock/2013.1/src/exe/rbdock.cxx#4 $)

>  <Rbt.Library>
libRbt.so (2013.1, Build901 2013/11/27)

>  <Rbt.Parameter_File>
/export/apps/rDock/src/rDock_2013.1_src/data/scripts/dock_solv.prm

>  <Rbt.Receptor>
prm/pocket_docking_8.prm

>  <SCORE>
-21.0502

>  <SCORE.INTER>
-9.2808

>  <SCORE.INTER.CONST>
1

>  <SCORE.INTER.POLAR>
-1.91788

>  <SCORE.INTER.ROT>
9

>  <SCORE.INTER.SOLV>
12.121

>  <SCORE.INTER.VDW>
-13.4346

>  <SCORE.INTER.norm>
-0.220971

>  <SCORE.INTRA>
-11.7694

>  <SCORE.INTRA.DIHEDRAL>
-24.8993

>  <SCORE.INTRA.DIHEDRAL.0>
27.8999

>  <SCORE.INTRA.POLAR>
0

>  <SCORE.INTRA.POLAR.0>
0

>  <SCORE.INTRA.REPUL>
0

>  <SCORE.INTRA.REPUL.0>
0

>  <SCORE.INTRA.SOLV>
-4.00133

>  <SCORE.INTRA.SOLV.lig_0>
-104.479

>  <SCORE.INTRA.VDW>
2.68089

>  <SCORE.INTRA.VDW.0>
-6.17816

>  <SCORE.INTRA.norm>
-0.280224

>  <SCORE.RESTR>
0

>  <SCORE.RESTR.CAVITY>
0

>  <SCORE.RESTR.norm>
0

>  <SCORE.SYSTEM>
0

>  <SCORE.SYSTEM.CONST>
0

>  <SCORE.SYSTEM.DIHEDRAL>
0

>  <SCORE.SYSTEM.SOLV>
0

>  <SCORE.SYSTEM.norm>
0

>  <SCORE.heavy>
42

>  <SCORE.norm>
-0.501195

>  <RMSD>
7.829

$$$$
2o3w_lig
 OpenBabel11021811463D
libRbt.so/2013.1/901 2013/11/27
 42 45  0  0  0  0  0  0  0  0999 V2000
    5.5902    3.9267    1.5349 C   0  0  2  0  0  0  0  0  0  0  0  0
    5.4571    4.7183    0.3420 O   0  0  0  0  0  0  0  0  0  0  0  0
    8.1816    7.3094   -1.8166 C   0  0  2  0  0  0  0  0  0  0  0  0
    9.1749    8.3727   -2.1531 N   0  0  0  0  0  0  0  0  0  0  0  0
    8.9353    5.1876    1.9253 C   0  0  1  0  0  0  0  0  0  0  0  0
    9.7491    7.4805    5.6909 C   0  0  1  0  0  0  0  0  0  0  0  0
    4.6352    2.7053    1.3794 C   0  0  2  0  0  0  0  0  0  0  0  0
    4.8070    2.0160    0.0887 N   0  0  0  0  0  0  0  0  0  0  0  0
    6.8221    7.9351   -1.3047 C   0  0  0  0  0  0  0  0  0  0  0  0
    8.0632    6.3284    2.5325 C   0  0  2  0  0  0  0  0  0  0  0  0
    8.2616    7.6193    1.9053 O   0  0  0  0  0  0  0  0  0  0  0  0
   11.0138    8.3644    5.9875 C   0  0  2  0  0  0  0  0  0  0  0  0
   12.2589    7.6911    5.5106 N   0  0  0  0  0  0  0  0  0  0  0  0
    3.1519    3.1075    1.4749 C   0  0  1  0  0  0  0  0  0  0  0  0
    2.3159    1.9541    1.3670 O   0  0  0  0  0  0  0  0  0  0  0  0
    5.8108    6.7691   -0.9884 C   0  0  2  0  0  0  0  0  0  0  0  0
    4.5130    7.3234   -0.5170 N   0  0  0  0  0  0  0  0  0  0  0  0
    8.4499    6.2436    4.0099 C   0  0  2  0  0  0  0  0  0  0  0  0
    9.5929    7.1038    4.3171 O   0  0  0  0  0  0  0  0  0  0  0  0
   11.0897    8.6687    7.5586 C   0  0  1  0  0  0  0  0  0  0  0  0
   10.0694    9.6347    7.8972 O   0  0  0  0  0  0  0  0  0  0  0  0
    2.9063    3.8605    2.8021 C   0  0  2  0  0  0  0  0  0  0  0  0
    1.5490    4.2211    2.9126 O   0  0  0  0  0  0  0  0  0  0  0  0
    6.4036    5.8002    0.1096 C   0  0  2  0  0  0  0  0  0  0  0  0
    8.7771    4.7650    4.2788 C   0  0  2  0  0  0  0  0  0  0  0  0
    9.2840    4.3151    3.0245 O   0  0  0  0  0  0  0  0  0  0  0  0
   10.9026    7.3547    8.4564 C   0  0  2  0  0  0  0  0  0  0  0  0
   12.0614    6.5415    8.2767 O   0  0  0  0  0  0  0  0  0  0  0  0
    3.8210    5.1297    2.8459 C   0  0  2  0  0  0  0  0  0  0  0  0
    5.2226    4.7305    2.7200 O   0  0  0  0  0  0  0  0  0  0  0  0
    7.7638    5.1932   -0.2987 C   0  0  2  0  0  0  0  0  0  0  0  0
    8.2392    4.4917    0.8830 O   0  0  0  0  0  0  0  0  0  0  0  0
    7.5657    3.8961    4.7389 C   0  0  0  0  0  0  0  0  0  0  0  0
    7.0507    4.4163    5.9608 O   0  0  0  0  0  0  0  0  0  0  0  0
    9.6099    6.5650    8.0234 C   0  0  1  0  0  0  0  0  0  0  0  0
    9.7754    6.2630    6.5910 O   0  0  0  0  0  0  0  0  0  0  0  0
    3.6497    5.9264    4.1186 C   0  0  0  0  0  0  0  0  0  0  0  0
    2.3556    6.4751    4.1767 O   0  0  0  0  0  0  0  0  0  0  0  0
    8.7748    6.3421   -0.7152 C   0  0  1  0  0  0  0  0  0  0  0  0
    9.9797    5.7742   -1.2361 O   0  0  0  0  0  0  0  0  0  0  0  0
    9.3649    5.2246    8.8430 C   0  0  0  0  0  0  0  0  0  0  0  0
    8.5623    5.3709   10.0884 N   0  0  0  0  0  0  0  0  0  0  0  0
  1  2  1  6  0  0  0
  1  7  1  0  0  0  0
  1 30  1  0  0  0  0
  3  4  1  1  0  0  0
  3  9  1  0  0  0  0
  3 39  1  0  0  0  0
  5 10  1  0  0  0  0
  5 26  1  0  0  0  0
  5 32  1  6  0  0  0
  6 12  1  0  0  0  0
  6 36  1  0  0  0  0
  6 19  1  6  0  0  0
  7  8  1  6  0  0  0
  7 14  1  0  0  0  0
  9 16  1  0  0  0  0
 10 11  1  6  0  0  0
 10 18  1  0  0  0  0
 12 13  1  1  0  0  0
 12 20  1  0  0  0  0
 14 15  1  1  0  0  0
 14 22  1  0  0  0  0
 16 17  1  1  0  0  0
 16 24  1  0  0  0  0
 18 19  1  6  0  0  0
 18 25  1  0  0  0  0
 20 21  1  1  0  0  0
 20 27  1  0  0  0  0
 22 23  1  6  0  0  0
 22 29  1  0  0  0  0
 24  2  1  6  0  0  0
 24 31  1  0  0  0  0
 25 26  1  0  0  0  0
 25 33  1  6  0  0  0
 27 28  1  6  0  0  0
 27 35  1  0  0  0  0
 29 30  1  0  0  0  0
 29 37  1  1  0  0  0
 31 32  1  1  0  0  0
 31 39  1  0  0  0  0
 33 34  1  0  0  0  0
 35 36  1  0  0  0  0
 35 41  1  1  0  0  0
 37 38  1  0  0  0  0
 39 40  1  6  0  0  0
 41 42  1  0  0  0  0
M  END
>  <CHROM.1>
-169.49451060,59.18834150,178.07056716,158.54542834,-163.06876396,-60.81182075
-65.97239481,-83.69986351,89.13098180,7.40484624,5.77735201,3.19973558,2.32602200
-0.48356460,-1.48226678

>  <Name>
2o3w_lig

>  <RI>
0

>  <Rbt.Current_Directory>
/home/itssahil/PROJECTS/Mol_Feturizer/New_Systems/rnas/2o3w

>  <Rbt.Executable>
rbdock ($Id: //depot/dev/client3/rdock/2013.1/src/exe/rbdock.cxx#4 $)

>  <Rbt.Library>
libRbt.so (2013.1, Build901 2013/11/27)

>  <Rbt.Parameter_File>
/export/apps/rDock/src/rDock_2013.1_src/data/scripts/dock_solv.prm

>  <Rbt.Receptor>
prm/pocket_docking_7.prm

>  <SCORE>
-21.6333

>  <SCORE.INTER>
-11.2104

>  <SCORE.INTER.CONST>
1

>  <SCORE.INTER.POLAR>
-3.36206

>  <SCORE.INTER.ROT>
9

>  <SCORE.INTER.SOLV>
19.5163

>  <SCORE.INTER.VDW>
-12.3722

>  <SCORE.INTER.norm>
-0.266914

>  <SCORE.INTRA>
-10.4541

>  <SCORE.INTRA.DIHEDRAL>
-18.7668

>  <SCORE.INTRA.DIHEDRAL.0>
27.8999

>  <SCORE.INTRA.POLAR>
0

>  <SCORE.INTRA.POLAR.0>
0

>  <SCORE.INTRA.REPUL>
0

>  <SCORE.INTRA.REPUL.0>
0

>  <SCORE.INTRA.SOLV>
-4.08373

>  <SCORE.INTRA.SOLV.lig_0>
-104.479

>  <SCORE.INTRA.VDW>
0.97113

>  <SCORE.INTRA.VDW.0>
-6.17816

>  <SCORE.INTRA.norm>
-0.248908

>  <SCORE.RESTR>
0.0312253

>  <SCORE.RESTR.CAVITY>
0.0312253

>  <SCORE.RESTR.norm>
0.000743461

>  <SCORE.SYSTEM>
0

>  <SCORE.SYSTEM.CONST>
0

>  <SCORE.SYSTEM.DIHEDRAL>
0

>  <SCORE.SYSTEM.SOLV>
0

>  <SCORE.SYSTEM.norm>
0

>  <SCORE.heavy>
42

>  <SCORE.norm>
-0.515078

>  <RMSD>
7.865

$$$$
2o3w_lig
 OpenBabel11021811463D
libRbt.so/2013.1/901 2013/11/27
 42 45  0  0  0  0  0  0  0  0999 V2000
    6.2327    1.8667    0.7087 C   0  0  2  0  0  0  0  0  0  0  0  0
    5.0765    1.9764    1.5563 O   0  0  0  0  0  0  0  0  0  0  0  0
    2.1779    3.2853   -1.3900 C   0  0  2  0  0  0  0  0  0  0  0  0
    0.8965    3.5938   -2.0925 N   0  0  0  0  0  0  0  0  0  0  0  0
    4.5914    4.7546    2.8647 C   0  0  1  0  0  0  0  0  0  0  0  0
    7.6304    5.7145    5.6197 C   0  0  1  0  0  0  0  0  0  0  0  0
    7.4690    1.7077    1.6437 C   0  0  2  0  0  0  0  0  0  0  0  0
    7.2754    0.6597    2.6610 N   0  0  0  0  0  0  0  0  0  0  0  0
    2.3522    1.7285   -1.1712 C   0  0  0  0  0  0  0  0  0  0  0  0
    4.1706    5.5931    4.1100 C   0  0  2  0  0  0  0  0  0  0  0  0
    4.0104    7.0077    3.8411 O   0  0  0  0  0  0  0  0  0  0  0  0
    7.5921    5.6764    7.1900 C   0  0  2  0  0  0  0  0  0  0  0  0
    7.1967    7.0049    7.7464 N   0  0  0  0  0  0  0  0  0  0  0  0
    7.7999    3.0069    2.4009 C   0  0  1  0  0  0  0  0  0  0  0  0
    8.9609    2.8270    3.2137 O   0  0  0  0  0  0  0  0  0  0  0  0
    3.7274    1.4656   -0.4486 C   0  0  2  0  0  0  0  0  0  0  0  0
    3.9313    0.0068   -0.2394 N   0  0  0  0  0  0  0  0  0  0  0  0
    5.2769    5.2285    5.1012 C   0  0  2  0  0  0  0  0  0  0  0  0
    6.4113    6.1474    5.0032 O   0  0  0  0  0  0  0  0  0  0  0  0
    9.0263    5.2246    7.7430 C   0  0  1  0  0  0  0  0  0  0  0  0
    9.1968    3.8103    7.4989 O   0  0  0  0  0  0  0  0  0  0  0  0
    7.9926    4.1589    1.3886 C   0  0  2  0  0  0  0  0  0  0  0  0
    8.3128    5.3523    2.0652 O   0  0  0  0  0  0  0  0  0  0  0  0
    3.7774    2.2127    0.9425 C   0  0  2  0  0  0  0  0  0  0  0  0
    5.6952    3.7884    4.7596 C   0  0  2  0  0  0  0  0  0  0  0  0
    5.4656    3.7121    3.3547 O   0  0  0  0  0  0  0  0  0  0  0  0
   10.2351    6.0341    7.0714 C   0  0  2  0  0  0  0  0  0  0  0  0
   10.1684    7.3789    7.5440 O   0  0  0  0  0  0  0  0  0  0  0  0
    6.6792    4.3311    0.5549 C   0  0  2  0  0  0  0  0  0  0  0  0
    6.3632    3.0775   -0.1296 O   0  0  0  0  0  0  0  0  0  0  0  0
    3.5574    3.7359    0.8125 C   0  0  2  0  0  0  0  0  0  0  0  0
    3.4503    4.2243    2.1779 O   0  0  0  0  0  0  0  0  0  0  0  0
    4.9066    2.6765    5.5185 C   0  0  0  0  0  0  0  0  0  0  0  0
    4.9083    2.9669    6.9130 O   0  0  0  0  0  0  0  0  0  0  0  0
   10.1205    6.0019    5.5004 C   0  0  1  0  0  0  0  0  0  0  0  0
    8.7998    6.5675    5.1748 O   0  0  0  0  0  0  0  0  0  0  0  0
    6.7814    5.4376   -0.4692 C   0  0  0  0  0  0  0  0  0  0  0  0
    6.8773    6.6856    0.1732 O   0  0  0  0  0  0  0  0  0  0  0  0
    2.2254    4.0311    0.0036 C   0  0  1  0  0  0  0  0  0  0  0  0
    2.1011    5.4337   -0.2473 O   0  0  0  0  0  0  0  0  0  0  0  0
   11.2653    6.8121    4.7509 C   0  0  0  0  0  0  0  0  0  0  0  0
   11.3462    8.2620    5.0792 N   0  0  0  0  0  0  0  0  0  0  0  0
  1  2  1  1  0  0  0
  1  7  1  0  0  0  0
  1 30  1  0  0  0  0
  3  4  1  1  0  0  0
  3  9  1  0  0  0  0
  3 39  1  0  0  0  0
  5 10  1  0  0  0  0
  5 26  1  0  0  0  0
  5 32  1  1  0  0  0
  6 12  1  0  0  0  0
  6 36  1  0  0  0  0
  6 19  1  1  0  0  0
  7  8  1  1  0  0  0
  7 14  1  0  0  0  0
  9 16  1  0  0  0  0
 10 11  1  6  0  0  0
 10 18  1  0  0  0  0
 12 13  1  1  0  0  0
 12 20  1  0  0  0  0
 14 15  1  6  0  0  0
 14 22  1  0  0  0  0
 16 17  1  1  0  0  0
 16 24  1  0  0  0  0
 18 19  1  6  0  0  0
 18 25  1  0  0  0  0
 20 21  1  6  0  0  0
 20 27  1  0  0  0  0
 22 23  1  1  0  0  0
 22 29  1  0  0  0  0
 24  2  1  6  0  0  0
 24 31  1  0  0  0  0
 25 26  1  0  0  0  0
 25 33  1  1  0  0  0
 27 28  1  1  0  0  0
 27 35  1  0  0  0  0
 29 30  1  0  0  0  0
 29 37  1  6  0  0  0
 31 32  1  1  0  0  0
 31 39  1  0  0  0  0
 33 34  1  0  0  0  0
 35 36  1  0  0  0  0
 35 41  1  6  0  0  0
 37 38  1  0  0  0  0
 39 40  1  6  0  0  0
 41 42  1  0  0  0  0
M  END
>  <CHROM.1>
176.54040009,162.78038585,-69.57383601,-164.42247752,34.34078016,-50.24460499
-67.22227302,95.25488242,-59.40428973,6.25230288,4.34294113,3.03278067,-2.23928821
0.08916494,1.19048174

>  <Name>
2o3w_lig

>  <RI>
0

>  <Rbt.Current_Directory>
/home/itssahil/PROJECTS/Mol_Feturizer/New_Systems/rnas/2o3w

>  <Rbt.Executable>
rbdock ($Id: //depot/dev/client3/rdock/2013.1/src/exe/rbdock.cxx#4 $)

>  <Rbt.Library>
libRbt.so (2013.1, Build901 2013/11/27)

>  <Rbt.Parameter_File>
/export/apps/rDock/src/rDock_2013.1_src/data/scripts/dock_solv.prm

>  <Rbt.Receptor>
prm/pocket_docking_5.prm

>  <SCORE>
-12.0244

>  <SCORE.INTER>
-6.44615

>  <SCORE.INTER.CONST>
1

>  <SCORE.INTER.POLAR>
-1.85354

>  <SCORE.INTER.ROT>
9

>  <SCORE.INTER.SOLV>
10.8353

>  <SCORE.INTER.VDW>
-11.3307

>  <SCORE.INTER.norm>
-0.15348

>  <SCORE.INTRA>
-5.94527

>  <SCORE.INTRA.DIHEDRAL>
-16.9185

>  <SCORE.INTRA.DIHEDRAL.0>
27.8999

>  <SCORE.INTRA.POLAR>
0

>  <SCORE.INTRA.POLAR.0>
0

>  <SCORE.INTRA.REPUL>
0.334492

>  <SCORE.INTRA.REPUL.0>
0

>  <SCORE.INTRA.SOLV>
-0.059407

>  <SCORE.INTRA.SOLV.lig_0>
-104.479

>  <SCORE.INTRA.VDW>
0.871237

>  <SCORE.INTRA.VDW.0>
-6.17816

>  <SCORE.INTRA.norm>
-0.141554

>  <SCORE.RESTR>
0.36697

>  <SCORE.RESTR.CAVITY>
0.36697

>  <SCORE.RESTR.norm>
0.00873738

>  <SCORE.SYSTEM>
0

>  <SCORE.SYSTEM.CONST>
0

>  <SCORE.SYSTEM.DIHEDRAL>
0

>  <SCORE.SYSTEM.SOLV>
0

>  <SCORE.SYSTEM.norm>
0

>  <SCORE.heavy>
42

>  <SCORE.norm>
-0.286296

>  <RMSD>
7.879

$$$$
2o3w_lig
 OpenBabel11021811463D
libRbt.so/2013.1/901 2013/11/27
 42 45  0  0  0  0  0  0  0  0999 V2000
    8.3251    5.2176    0.1425 C   0  0  2  0  0  0  0  0  0  0  0  0
    7.1475    5.6579    0.8401 O   0  0  0  0  0  0  0  0  0  0  0  0
    6.5123    6.1420    5.1014 C   0  0  2  0  0  0  0  0  0  0  0  0
    6.5706    6.6506    6.5043 N   0  0  0  0  0  0  0  0  0  0  0  0
    4.6717    7.9527    0.7675 C   0  0  1  0  0  0  0  0  0  0  0  0
    1.9252    9.0250   -2.4574 C   0  0  1  0  0  0  0  0  0  0  0  0
    9.0675    6.4963   -0.3492 C   0  0  2  0  0  0  0  0  0  0  0  0
    9.2496    7.4899    0.7233 N   0  0  0  0  0  0  0  0  0  0  0  0
    7.9238    5.6113    4.6241 C   0  0  0  0  0  0  0  0  0  0  0  0
    3.8817    9.2968    0.7821 C   0  0  2  0  0  0  0  0  0  0  0  0
    2.7238    9.2904    1.6530 O   0  0  0  0  0  0  0  0  0  0  0  0
    0.4820    8.4992   -2.7884 C   0  0  2  0  0  0  0  0  0  0  0  0
    0.3299    7.0690   -2.3856 N   0  0  0  0  0  0  0  0  0  0  0  0
    8.3157    7.2062   -1.4901 C   0  0  1  0  0  0  0  0  0  0  0  0
    9.0503    8.3477   -1.9353 O   0  0  0  0  0  0  0  0  0  0  0  0
    7.7935    5.0694    3.1504 C   0  0  2  0  0  0  0  0  0  0  0  0
    9.1026    4.5477    2.6733 N   0  0  0  0  0  0  0  0  0  0  0  0
    3.5890    9.4855   -0.7072 C   0  0  2  0  0  0  0  0  0  0  0  0
    2.3176    8.8696   -1.0879 O   0  0  0  0  0  0  0  0  0  0  0  0
    0.1957    8.6900   -4.3532 C   0  0  1  0  0  0  0  0  0  0  0  0
   -0.0215   10.0936   -4.6207 O   0  0  0  0  0  0  0  0  0  0  0  0
    8.0692    6.2082   -2.6445 C   0  0  2  0  0  0  0  0  0  0  0  0
    7.3963    6.8473   -3.7043 O   0  0  0  0  0  0  0  0  0  0  0  0
    7.2920    6.2104    2.1796 C   0  0  2  0  0  0  0  0  0  0  0  0
    4.7671    8.8403   -1.4564 C   0  0  2  0  0  0  0  0  0  0  0  0
    5.1665    7.7881   -0.5812 O   0  0  0  0  0  0  0  0  0  0  0  0
    1.3890    8.1472   -5.2745 C   0  0  2  0  0  0  0  0  0  0  0  0
    1.4026    6.7242   -5.1681 O   0  0  0  0  0  0  0  0  0  0  0  0
    7.2317    5.0009   -2.1056 C   0  0  2  0  0  0  0  0  0  0  0  0
    7.9459    4.3607   -1.0011 O   0  0  0  0  0  0  0  0  0  0  0  0
    5.9408    6.8174    2.6166 C   0  0  2  0  0  0  0  0  0  0  0  0
    5.7297    7.9543    1.7348 O   0  0  0  0  0  0  0  0  0  0  0  0
    5.9588    9.8004   -1.7602 C   0  0  0  0  0  0  0  0  0  0  0  0
    6.5309   10.2432   -0.5332 O   0  0  0  0  0  0  0  0  0  0  0  0
    2.7697    8.7423   -4.8036 C   0  0  1  0  0  0  0  0  0  0  0  0
    2.9181    8.3613   -3.3883 O   0  0  0  0  0  0  0  0  0  0  0  0
    6.9483    3.9679   -3.1715 C   0  0  0  0  0  0  0  0  0  0  0  0
    6.0428    3.0066   -2.6866 O   0  0  0  0  0  0  0  0  0  0  0  0
    6.0132    7.2858    4.1302 C   0  0  1  0  0  0  0  0  0  0  0  0
    4.7221    7.7070    4.5788 O   0  0  0  0  0  0  0  0  0  0  0  0
    4.0173    8.2282   -5.6449 C   0  0  0  0  0  0  0  0  0  0  0  0
    4.0914    8.7188   -7.0487 N   0  0  0  0  0  0  0  0  0  0  0  0
  1  2  1  6  0  0  0
  1  7  1  0  0  0  0
  1 30  1  0  0  0  0
  3  4  1  1  0  0  0
  3  9  1  0  0  0  0
  3 39  1  0  0  0  0
  5 10  1  0  0  0  0
  5 26  1  0  0  0  0
  5 32  1  1  0  0  0
  6 12  1  0  0  0  0
  6 36  1  0  0  0  0
  6 19  1  1  0  0  0
  7  8  1  1  0  0  0
  7 14  1  0  0  0  0
  9 16  1  0  0  0  0
 10 11  1  1  0  0  0
 10 18  1  0  0  0  0
 12 13  1  6  0  0  0
 12 20  1  0  0  0  0
 14 15  1  6  0  0  0
 14 22  1  0  0  0  0
 16 17  1  6  0  0  0
 16 24  1  0  0  0  0
 18 19  1  6  0  0  0
 18 25  1  0  0  0  0
 20 21  1  1  0  0  0
 20 27  1  0  0  0  0
 22 23  1  6  0  0  0
 22 29  1  0  0  0  0
 24  2  1  6  0  0  0
 24 31  1  0  0  0  0
 25 26  1  0  0  0  0
 25 33  1  1  0  0  0
 27 28  1  1  0  0  0
 27 35  1  0  0  0  0
 29 30  1  0  0  0  0
 29 37  1  6  0  0  0
 31 32  1  6  0  0  0
 31 39  1  0  0  0  0
 33 34  1  0  0  0  0
 35 36  1  0  0  0  0
 35 41  1  6  0  0  0
 37 38  1  0  0  0  0
 39 40  1  1  0  0  0
 41 42  1  0  0  0  0
M  END
>  <CHROM.1>
-75.56687195,133.89893039,-173.15861878,178.08036359,-65.93575562,63.51284799
-171.80888432,112.69500481,69.43811484,5.26124481,7.33248638,-0.76288072
-0.83642271,0.49516207,-1.66271133

>  <Name>
2o3w_lig

>  <RI>
0

>  <Rbt.Current_Directory>
/home/itssahil/PROJECTS/Mol_Feturizer/New_Systems/rnas/2o3w

>  <Rbt.Executable>
rbdock ($Id: //depot/dev/client3/rdock/2013.1/src/exe/rbdock.cxx#4 $)

>  <Rbt.Library>
libRbt.so (2013.1, Build901 2013/11/27)

>  <Rbt.Parameter_File>
/export/apps/rDock/src/rDock_2013.1_src/data/scripts/dock_solv.prm

>  <Rbt.Receptor>
prm/pocket_docking_7.prm

>  <SCORE>
-22.8622

>  <SCORE.INTER>
-19.0459

>  <SCORE.INTER.CONST>
1

>  <SCORE.INTER.POLAR>
-3.1353

>  <SCORE.INTER.ROT>
9

>  <SCORE.INTER.SOLV>
14.3739

>  <SCORE.INTER.VDW>
-16.6376

>  <SCORE.INTER.norm>
-0.453474

>  <SCORE.INTRA>
-3.81633

>  <SCORE.INTRA.DIHEDRAL>
-12.3854

>  <SCORE.INTRA.DIHEDRAL.0>
27.8999

>  <SCORE.INTRA.POLAR>
0

>  <SCORE.INTRA.POLAR.0>
0

>  <SCORE.INTRA.REPUL>
0.243266

>  <SCORE.INTRA.REPUL.0>
0

>  <SCORE.INTRA.SOLV>
0.0534947

>  <SCORE.INTRA.SOLV.lig_0>
-104.479

>  <SCORE.INTRA.VDW>
1.13329

>  <SCORE.INTRA.VDW.0>
-6.17816

>  <SCORE.INTRA.norm>
-0.090865

>  <SCORE.RESTR>
0

>  <SCORE.RESTR.CAVITY>
0

>  <SCORE.RESTR.norm>
0

>  <SCORE.SYSTEM>
0

>  <SCORE.SYSTEM.CONST>
0

>  <SCORE.SYSTEM.DIHEDRAL>
0

>  <SCORE.SYSTEM.SOLV>
0

>  <SCORE.SYSTEM.norm>
0

>  <SCORE.heavy>
42

>  <SCORE.norm>
-0.544339

>  <RMSD>
7.925

$$$$
2o3w_lig
 OpenBabel11021811463D
libRbt.so/2013.1/901 2013/11/27
 42 45  0  0  0  0  0  0  0  0999 V2000
    5.4288    3.5420   -0.8283 C   0  0  2  0  0  0  0  0  0  0  0  0
    4.4999    4.3786   -0.1179 O   0  0  0  0  0  0  0  0  0  0  0  0
    6.3515    8.2095   -0.9495 C   0  0  2  0  0  0  0  0  0  0  0  0
    6.6054    9.6766   -1.0664 N   0  0  0  0  0  0  0  0  0  0  0  0
    6.0736    6.1301    3.2393 C   0  0  1  0  0  0  0  0  0  0  0  0
    7.7134    5.8073    7.3045 C   0  0  1  0  0  0  0  0  0  0  0  0
    5.0155    2.0654   -0.5509 C   0  0  2  0  0  0  0  0  0  0  0  0
    3.5799    1.8289   -0.7824 N   0  0  0  0  0  0  0  0  0  0  0  0
    5.1458    7.7606   -1.8695 C   0  0  0  0  0  0  0  0  0  0  0  0
    5.2548    6.5218    4.5069 C   0  0  2  0  0  0  0  0  0  0  0  0
    5.1923    7.9486    4.7504 O   0  0  0  0  0  0  0  0  0  0  0  0
    8.8829    6.6420    7.9405 C   0  0  2  0  0  0  0  0  0  0  0  0
    9.8972    7.0116    6.9083 N   0  0  0  0  0  0  0  0  0  0  0  0
    5.3082    1.6393    0.8996 C   0  0  1  0  0  0  0  0  0  0  0  0
    4.9512    0.2703    1.0974 O   0  0  0  0  0  0  0  0  0  0  0  0
    4.9418    6.2053   -1.7206 C   0  0  2  0  0  0  0  0  0  0  0  0
    3.8220    5.7452   -2.5854 N   0  0  0  0  0  0  0  0  0  0  0  0
    5.9613    5.6966    5.5836 C   0  0  2  0  0  0  0  0  0  0  0  0
    7.0602    6.4419    6.1981 O   0  0  0  0  0  0  0  0  0  0  0  0
    9.5507    5.7974    9.1270 C   0  0  1  0  0  0  0  0  0  0  0  0
    8.6522    5.7911   10.2591 O   0  0  0  0  0  0  0  0  0  0  0  0
    6.8006    1.8852    1.2180 C   0  0  2  0  0  0  0  0  0  0  0  0
    7.0887    1.4844    2.5374 O   0  0  0  0  0  0  0  0  0  0  0  0
    4.6415    5.8244   -0.2171 C   0  0  2  0  0  0  0  0  0  0  0  0
    6.4732    4.4289    4.8791 C   0  0  2  0  0  0  0  0  0  0  0  0
    6.7325    4.8815    3.5523 O   0  0  0  0  0  0  0  0  0  0  0  0
    9.8895    4.2898    8.7031 C   0  0  2  0  0  0  0  0  0  0  0  0
   10.9607    4.3372    7.7615 O   0  0  0  0  0  0  0  0  0  0  0  0
    7.1217    3.4040    1.0187 C   0  0  2  0  0  0  0  0  0  0  0  0
    6.8057    3.7976   -0.3543 O   0  0  0  0  0  0  0  0  0  0  0  0
    5.7540    6.2836    0.7508 C   0  0  2  0  0  0  0  0  0  0  0  0
    5.2331    6.0224    2.0830 O   0  0  0  0  0  0  0  0  0  0  0  0
    5.4764    3.2286    4.8779 C   0  0  0  0  0  0  0  0  0  0  0  0
    5.1595    2.8790    6.2218 O   0  0  0  0  0  0  0  0  0  0  0  0
    8.6290    3.5965    8.0606 C   0  0  1  0  0  0  0  0  0  0  0  0
    8.2362    4.4396    6.9182 O   0  0  0  0  0  0  0  0  0  0  0  0
    8.5685    3.7347    1.3037 C   0  0  0  0  0  0  0  0  0  0  0  0
    8.7908    5.1148    1.1449 O   0  0  0  0  0  0  0  0  0  0  0  0
    6.0479    7.8299    0.5552 C   0  0  1  0  0  0  0  0  0  0  0  0
    7.1776    8.2206    1.3406 O   0  0  0  0  0  0  0  0  0  0  0  0
    8.8866    2.1031    7.5786 C   0  0  0  0  0  0  0  0  0  0  0  0
    9.9399    1.9362    6.5398 N   0  0  0  0  0  0  0  0  0  0  0  0
  1  2  1  1  0  0  0
  1  7  1  0  0  0  0
  1 30  1  0  0  0  0
  3  4  1  1  0  0  0
  3  9  1  0  0  0  0
  3 39  1  0  0  0  0
  5 10  1  0  0  0  0
  5 26  1  0  0  0  0
  5 32  1  6  0  0  0
  6 12  1  0  0  0  0
  6 36  1  0  0  0  0
  6 19  1  6  0  0  0
  7  8  1  1  0  0  0
  7 14  1  0  0  0  0
  9 16  1  0  0  0  0
 10 11  1  1  0  0  0
 10 18  1  0  0  0  0
 12 13  1  6  0  0  0
 12 20  1  0  0  0  0
 14 15  1  6  0  0  0
 14 22  1  0  0  0  0
 16 17  1  6  0  0  0
 16 24  1  0  0  0  0
 18 19  1  6  0  0  0
 18 25  1  0  0  0  0
 20 21  1  1  0  0  0
 20 27  1  0  0  0  0
 22 23  1  1  0  0  0
 22 29  1  0  0  0  0
 24  2  1  6  0  0  0
 24 31  1  0  0  0  0
 25 26  1  0  0  0  0
 25 33  1  6  0  0  0
 27 28  1  6  0  0  0
 27 35  1  0  0  0  0
 29 30  1  0  0  0  0
 29 37  1  6  0  0  0
 31 32  1  1  0  0  0
 31 39  1  0  0  0  0
 33 34  1  0  0  0  0
 35 36  1  0  0  0  0
 35 41  1  6  0  0  0
 37 38  1  0  0  0  0
 39 40  1  1  0  0  0
 41 42  1  0  0  0  0
M  END
>  <CHROM.1>
-179.14400478,151.24040381,-179.73248064,174.52872237,42.87736922,-58.80350185
-178.38163063,170.19408305,-60.33818609,6.77963421,4.86410796,3.21708910
2.98139812,-1.17988975,-0.13346660

>  <Name>
2o3w_lig

>  <RI>
0

>  <Rbt.Current_Directory>
/home/itssahil/PROJECTS/Mol_Feturizer/New_Systems/rnas/2o3w

>  <Rbt.Executable>
rbdock ($Id: //depot/dev/client3/rdock/2013.1/src/exe/rbdock.cxx#4 $)

>  <Rbt.Library>
libRbt.so (2013.1, Build901 2013/11/27)

>  <Rbt.Parameter_File>
/export/apps/rDock/src/rDock_2013.1_src/data/scripts/dock_solv.prm

>  <Rbt.Receptor>
prm/pocket_docking_7.prm

>  <SCORE>
-21.9534

>  <SCORE.INTER>
-10.2345

>  <SCORE.INTER.CONST>
1

>  <SCORE.INTER.POLAR>
-1.81808

>  <SCORE.INTER.ROT>
9

>  <SCORE.INTER.SOLV>
8.69101

>  <SCORE.INTER.VDW>
-13.2598

>  <SCORE.INTER.norm>
-0.243679

>  <SCORE.INTRA>
-11.7188

>  <SCORE.INTRA.DIHEDRAL>
-22.418

>  <SCORE.INTRA.DIHEDRAL.0>
27.8999

>  <SCORE.INTRA.POLAR>
0

>  <SCORE.INTRA.POLAR.0>
0

>  <SCORE.INTRA.REPUL>
0

>  <SCORE.INTRA.REPUL.0>
0

>  <SCORE.INTRA.SOLV>
-1.91248

>  <SCORE.INTRA.SOLV.lig_0>
-104.479

>  <SCORE.INTRA.VDW>
0.446416

>  <SCORE.INTRA.VDW.0>
-6.17816

>  <SCORE.INTRA.norm>
-0.27902

>  <SCORE.RESTR>
0

>  <SCORE.RESTR.CAVITY>
0

>  <SCORE.RESTR.norm>
0

>  <SCORE.SYSTEM>
0

>  <SCORE.SYSTEM.CONST>
0

>  <SCORE.SYSTEM.DIHEDRAL>
0

>  <SCORE.SYSTEM.SOLV>
0

>  <SCORE.SYSTEM.norm>
0

>  <SCORE.heavy>
42

>  <SCORE.norm>
-0.522699

>  <RMSD>
7.943

$$$$
2o3w_lig
 OpenBabel11021811463D
libRbt.so/2013.1/901 2013/11/27
 42 45  0  0  0  0  0  0  0  0999 V2000
    2.7029    3.7948   -0.0681 C   0  0  2  0  0  0  0  0  0  0  0  0
    3.4476    4.6102    0.8527 O   0  0  0  0  0  0  0  0  0  0  0  0
    5.1165    7.3645   -2.0498 C   0  0  2  0  0  0  0  0  0  0  0  0
    5.9023    8.4627   -2.6876 N   0  0  0  0  0  0  0  0  0  0  0  0
    6.6957    4.9556    1.4801 C   0  0  1  0  0  0  0  0  0  0  0  0
    9.4054    5.6795    5.0211 C   0  0  1  0  0  0  0  0  0  0  0  0
    1.7446    2.9076    0.7820 C   0  0  2  0  0  0  0  0  0  0  0  0
    0.9759    3.6901    1.7656 N   0  0  0  0  0  0  0  0  0  0  0  0
    4.0699    7.9363   -1.0108 C   0  0  0  0  0  0  0  0  0  0  0  0
    7.7040    3.9949    2.1809 C   0  0  2  0  0  0  0  0  0  0  0  0
    7.0915    3.0887    3.1310 O   0  0  0  0  0  0  0  0  0  0  0  0
    9.5909    7.1998    5.3719 C   0  0  2  0  0  0  0  0  0  0  0  0
    9.7547    8.0171    4.1325 N   0  0  0  0  0  0  0  0  0  0  0  0
    2.4994    1.8212    1.5701 C   0  0  1  0  0  0  0  0  0  0  0  0
    1.5802    1.0086    2.3020 O   0  0  0  0  0  0  0  0  0  0  0  0
    3.2591    6.7362   -0.3903 C   0  0  2  0  0  0  0  0  0  0  0  0
    2.2530    7.2400    0.5832 N   0  0  0  0  0  0  0  0  0  0  0  0
    8.7053    4.9914    2.7671 C   0  0  2  0  0  0  0  0  0  0  0  0
    8.3266    5.4022    4.1194 O   0  0  0  0  0  0  0  0  0  0  0  0
   10.8538    7.3680    6.3433 C   0  0  1  0  0  0  0  0  0  0  0  0
   10.4985    6.8868    7.6590 O   0  0  0  0  0  0  0  0  0  0  0  0
    3.3495    0.9743    0.5958 C   0  0  2  0  0  0  0  0  0  0  0  0
    4.0340   -0.0358    1.2997 O   0  0  0  0  0  0  0  0  0  0  0  0
    4.2314    5.7205    0.3299 C   0  0  2  0  0  0  0  0  0  0  0  0
    8.7232    6.1910    1.8048 C   0  0  2  0  0  0  0  0  0  0  0  0
    7.3955    6.2060    1.2857 O   0  0  0  0  0  0  0  0  0  0  0  0
   12.1505    6.5864    5.8187 C   0  0  2  0  0  0  0  0  0  0  0  0
   12.6128    7.2565    4.6468 O   0  0  0  0  0  0  0  0  0  0  0  0
    4.3588    1.9112   -0.1480 C   0  0  2  0  0  0  0  0  0  0  0  0
    3.6253    2.9559   -0.8625 O   0  0  0  0  0  0  0  0  0  0  0  0
    5.3194    5.1618   -0.6131 C   0  0  2  0  0  0  0  0  0  0  0  0
    6.2177    4.4064    0.2453 O   0  0  0  0  0  0  0  0  0  0  0  0
    9.7742    6.0972    0.6555 C   0  0  0  0  0  0  0  0  0  0  0  0
    9.6542    7.2400   -0.1862 O   0  0  0  0  0  0  0  0  0  0  0  0
   11.7991    5.0869    5.4867 C   0  0  1  0  0  0  0  0  0  0  0  0
   10.7139    5.1317    4.4913 O   0  0  0  0  0  0  0  0  0  0  0  0
    5.2305    1.1637   -1.1303 C   0  0  0  0  0  0  0  0  0  0  0  0
    4.4324    0.5075   -2.0851 O   0  0  0  0  0  0  0  0  0  0  0  0
    6.0904    6.3502   -1.3265 C   0  0  1  0  0  0  0  0  0  0  0  0
    6.9916    5.8338   -2.3098 O   0  0  0  0  0  0  0  0  0  0  0  0
   13.0249    4.2434    4.9258 C   0  0  0  0  0  0  0  0  0  0  0  0
   14.0897    3.9220    5.9154 N   0  0  0  0  0  0  0  0  0  0  0  0
  1  2  1  1  0  0  0
  1  7  1  0  0  0  0
  1 30  1  0  0  0  0
  3  4  1  1  0  0  0
  3  9  1  0  0  0  0
  3 39  1  0  0  0  0
  5 10  1  0  0  0  0
  5 26  1  0  0  0  0
  5 32  1  6  0  0  0
  6 12  1  0  0  0  0
  6 36  1  0  0  0  0
  6 19  1  6  0  0  0
  7  8  1  1  0  0  0
  7 14  1  0  0  0  0
  9 16  1  0  0  0  0
 10 11  1  1  0  0  0
 10 18  1  0  0  0  0
 12 13  1  6  0  0  0
 12 20  1  0  0  0  0
 14 15  1  6  0  0  0
 14 22  1  0  0  0  0
 16 17  1  1  0  0  0
 16 24  1  0  0  0  0
 18 19  1  1  0  0  0
 18 25  1  0  0  0  0
 20 21  1  1  0  0  0
 20 27  1  0  0  0  0
 22 23  1  1  0  0  0
 22 29  1  0  0  0  0
 24  2  1  6  0  0  0
 24 31  1  0  0  0  0
 25 26  1  0  0  0  0
 25 33  1  6  0  0  0
 27 28  1  6  0  0  0
 27 35  1  0  0  0  0
 29 30  1  0  0  0  0
 29 37  1  6  0  0  0
 31 32  1  1  0  0  0
 31 39  1  0  0  0  0
 33 34  1  0  0  0  0
 35 36  1  0  0  0  0
 35 41  1  6  0  0  0
 37 38  1  0  0  0  0
 39 40  1  6  0  0  0
 41 42  1  0  0  0  0
M  END
>  <CHROM.1>
-168.13853258,-176.77617531,108.85827627,146.73604605,61.06430942,177.91065605
58.31038047,-46.89009899,70.88528206,6.82231301,4.87640765,1.72849525,3.04966912
-0.62673044,-0.62939161

>  <Name>
2o3w_lig

>  <RI>
0

>  <Rbt.Current_Directory>
/home/itssahil/PROJECTS/Mol_Feturizer/New_Systems/rnas/2o3w

>  <Rbt.Executable>
rbdock ($Id: //depot/dev/client3/rdock/2013.1/src/exe/rbdock.cxx#4 $)

>  <Rbt.Library>
libRbt.so (2013.1, Build901 2013/11/27)

>  <Rbt.Parameter_File>
/export/apps/rDock/src/rDock_2013.1_src/data/scripts/dock_solv.prm

>  <Rbt.Receptor>
prm/pocket_docking_7.prm

>  <SCORE>
-9.30725

>  <SCORE.INTER>
-3.01994

>  <SCORE.INTER.CONST>
1

>  <SCORE.INTER.POLAR>
-1.59169

>  <SCORE.INTER.ROT>
9

>  <SCORE.INTER.SOLV>
11.3876

>  <SCORE.INTER.VDW>
-10.1035

>  <SCORE.INTER.norm>
-0.0719034

>  <SCORE.INTRA>
-6.28731

>  <SCORE.INTRA.DIHEDRAL>
-15.0591

>  <SCORE.INTRA.DIHEDRAL.0>
27.8999

>  <SCORE.INTRA.POLAR>
0

>  <SCORE.INTRA.POLAR.0>
0

>  <SCORE.INTRA.REPUL>
0

>  <SCORE.INTRA.REPUL.0>
0

>  <SCORE.INTRA.SOLV>
-2.50212

>  <SCORE.INTRA.SOLV.lig_0>
-104.479

>  <SCORE.INTRA.VDW>
2.49329

>  <SCORE.INTRA.VDW.0>
-6.17816

>  <SCORE.INTRA.norm>
-0.149698

>  <SCORE.RESTR>
0

>  <SCORE.RESTR.CAVITY>
0

>  <SCORE.RESTR.norm>
0

>  <SCORE.SYSTEM>
0

>  <SCORE.SYSTEM.CONST>
0

>  <SCORE.SYSTEM.DIHEDRAL>
0

>  <SCORE.SYSTEM.SOLV>
0

>  <SCORE.SYSTEM.norm>
0

>  <SCORE.heavy>
42

>  <SCORE.norm>
-0.221601

>  <RMSD>
7.951

$$$$
2o3w_lig
 OpenBabel11021811463D
libRbt.so/2013.1/901 2013/11/27
 42 45  0  0  0  0  0  0  0  0999 V2000
    5.2883    6.7719    2.8613 C   0  0  2  0  0  0  0  0  0  0  0  0
    5.4791    5.6242    2.0166 O   0  0  0  0  0  0  0  0  0  0  0  0
    4.8014    1.4507    2.9750 C   0  0  2  0  0  0  0  0  0  0  0  0
    4.1439    0.1421    3.2677 N   0  0  0  0  0  0  0  0  0  0  0  0
    5.0528    4.8857   -0.8249 C   0  0  1  0  0  0  0  0  0  0  0  0
    6.7442    7.0072   -4.2688 C   0  0  1  0  0  0  0  0  0  0  0  0
    4.2397    7.6852    2.1581 C   0  0  2  0  0  0  0  0  0  0  0  0
    3.0357    6.9448    1.7424 N   0  0  0  0  0  0  0  0  0  0  0  0
    4.4624    2.5245    4.0858 C   0  0  0  0  0  0  0  0  0  0  0  0
    5.9154    4.1607   -1.9023 C   0  0  2  0  0  0  0  0  0  0  0  0
    7.2845    3.9177   -1.4954 O   0  0  0  0  0  0  0  0  0  0  0  0
    8.0299    7.8950   -4.4351 C   0  0  2  0  0  0  0  0  0  0  0  0
    8.2945    8.6879   -3.1973 N   0  0  0  0  0  0  0  0  0  0  0  0
    4.8057    8.3591    0.8946 C   0  0  1  0  0  0  0  0  0  0  0  0
    3.8255    9.2157    0.3061 O   0  0  0  0  0  0  0  0  0  0  0  0
    5.1999    3.8719    3.7349 C   0  0  2  0  0  0  0  0  0  0  0  0
    4.9143    4.9027    4.7691 N   0  0  0  0  0  0  0  0  0  0  0  0
    5.7366    5.0921   -3.1022 C   0  0  2  0  0  0  0  0  0  0  0  0
    6.7667    6.1307   -3.1352 O   0  0  0  0  0  0  0  0  0  0  0  0
    7.8491    8.8544   -5.7054 C   0  0  1  0  0  0  0  0  0  0  0  0
    7.9772    8.0649   -6.9092 O   0  0  0  0  0  0  0  0  0  0  0  0
    6.0909    9.1376    1.2571 C   0  0  2  0  0  0  0  0  0  0  0  0
    6.6125    9.7744    0.1139 O   0  0  0  0  0  0  0  0  0  0  0  0
    4.7459    4.4027    2.3178 C   0  0  2  0  0  0  0  0  0  0  0  0
    4.3328    5.7040   -2.9590 C   0  0  2  0  0  0  0  0  0  0  0  0
    4.1449    5.7495   -1.5466 O   0  0  0  0  0  0  0  0  0  0  0  0
    6.4405    9.6181   -5.7127 C   0  0  2  0  0  0  0  0  0  0  0  0
    6.4605   10.5694   -4.6492 O   0  0  0  0  0  0  0  0  0  0  0  0
    7.1370    8.1428    1.8617 C   0  0  2  0  0  0  0  0  0  0  0  0
    6.5692    7.4881    3.0402 O   0  0  0  0  0  0  0  0  0  0  0  0
    4.9952    3.3804    1.1874 C   0  0  2  0  0  0  0  0  0  0  0  0
    4.3589    3.9497    0.0103 O   0  0  0  0  0  0  0  0  0  0  0  0
    3.1901    4.8985   -3.6516 C   0  0  0  0  0  0  0  0  0  0  0  0
    1.9597    5.5991   -3.4960 O   0  0  0  0  0  0  0  0  0  0  0  0
    5.2552    8.5999   -5.5112 C   0  0  1  0  0  0  0  0  0  0  0  0
    5.5247    7.9044   -4.2408 O   0  0  0  0  0  0  0  0  0  0  0  0
    8.4284    8.8234    2.2525 C   0  0  0  0  0  0  0  0  0  0  0  0
    9.3134    7.8919    2.8256 O   0  0  0  0  0  0  0  0  0  0  0  0
    4.3438    1.9825    1.5579 C   0  0  1  0  0  0  0  0  0  0  0  0
    4.7029    0.9974    0.5851 O   0  0  0  0  0  0  0  0  0  0  0  0
    3.8178    9.2789   -5.4719 C   0  0  0  0  0  0  0  0  0  0  0  0
    2.6635    8.3386   -5.4599 N   0  0  0  0  0  0  0  0  0  0  0  0
  1  2  1  6  0  0  0
  1  7  1  0  0  0  0
  1 30  1  0  0  0  0
  3  4  1  1  0  0  0
  3  9  1  0  0  0  0
  3 39  1  0  0  0  0
  5 10  1  0  0  0  0
  5 26  1  0  0  0  0
  5 32  1  6  0  0  0
  6 12  1  0  0  0  0
  6 36  1  0  0  0  0
  6 19  1  1  0  0  0
  7  8  1  6  0  0  0
  7 14  1  0  0  0  0
  9 16  1  0  0  0  0
 10 11  1  1  0  0  0
 10 18  1  0  0  0  0
 12 13  1  1  0  0  0
 12 20  1  0  0  0  0
 14 15  1  1  0  0  0
 14 22  1  0  0  0  0
 16 17  1  1  0  0  0
 16 24  1  0  0  0  0
 18 19  1  1  0  0  0
 18 25  1  0  0  0  0
 20 21  1  6  0  0  0
 20 27  1  0  0  0  0
 22 23  1  6  0  0  0
 22 29  1  0  0  0  0
 24  2  1  6  0  0  0
 24 31  1  0  0  0  0
 25 26  1  0  0  0  0
 25 33  1  6  0  0  0
 27 28  1  1  0  0  0
 27 35  1  0  0  0  0
 29 30  1  0  0  0  0
 29 37  1  1  0  0  0
 31 32  1  6  0  0  0
 31 39  1  0  0  0  0
 33 34  1  0  0  0  0
 35 36  1  0  0  0  0
 35 41  1  1  0  0  0
 37 38  1  0  0  0  0
 39 40  1  6  0  0  0
 41 42  1  0  0  0  0
M  END
>  <CHROM.1>
-97.24088253,86.12597605,-167.25506981,176.09076470,-63.05670061,-177.42508765
178.21959213,85.62782607,172.41814454,5.50752877,6.31586071,-0.77959423,-1.85362733
-1.12927859,-1.27723414

>  <Name>
2o3w_lig

>  <RI>
0

>  <Rbt.Current_Directory>
/home/itssahil/PROJECTS/Mol_Feturizer/New_Systems/rnas/2o3w

>  <Rbt.Executable>
rbdock ($Id: //depot/dev/client3/rdock/2013.1/src/exe/rbdock.cxx#4 $)

>  <Rbt.Library>
libRbt.so (2013.1, Build901 2013/11/27)

>  <Rbt.Parameter_File>
/export/apps/rDock/src/rDock_2013.1_src/data/scripts/dock_solv.prm

>  <Rbt.Receptor>
prm/pocket_docking_8.prm

>  <SCORE>
-16.8818

>  <SCORE.INTER>
-11.863

>  <SCORE.INTER.CONST>
1

>  <SCORE.INTER.POLAR>
-2.81671

>  <SCORE.INTER.ROT>
9

>  <SCORE.INTER.SOLV>
12.5284

>  <SCORE.INTER.VDW>
-12.2958

>  <SCORE.INTER.norm>
-0.282453

>  <SCORE.INTRA>
-5.01879

>  <SCORE.INTRA.DIHEDRAL>
-16.049

>  <SCORE.INTRA.DIHEDRAL.0>
27.8999

>  <SCORE.INTRA.POLAR>
0

>  <SCORE.INTRA.POLAR.0>
0

>  <SCORE.INTRA.REPUL>
0.271684

>  <SCORE.INTRA.REPUL.0>
0

>  <SCORE.INTRA.SOLV>
-0.606286

>  <SCORE.INTRA.SOLV.lig_0>
-104.479

>  <SCORE.INTRA.VDW>
1.95042

>  <SCORE.INTRA.VDW.0>
-6.17816

>  <SCORE.INTRA.norm>
-0.119495

>  <SCORE.RESTR>
0

>  <SCORE.RESTR.CAVITY>
0

>  <SCORE.RESTR.norm>
0

>  <SCORE.SYSTEM>
0

>  <SCORE.SYSTEM.CONST>
0

>  <SCORE.SYSTEM.DIHEDRAL>
0

>  <SCORE.SYSTEM.SOLV>
0

>  <SCORE.SYSTEM.norm>
0

>  <SCORE.heavy>
42

>  <SCORE.norm>
-0.401949

>  <RMSD>
7.971

$$$$
2o3w_lig
 OpenBabel11021811463D
libRbt.so/2013.1/901 2013/11/27
 42 45  0  0  0  0  0  0  0  0999 V2000
    6.2959    6.5154    2.8155 C   0  0  2  0  0  0  0  0  0  0  0  0
    6.8129    7.3727    3.8475 O   0  0  0  0  0  0  0  0  0  0  0  0
   10.5297    7.7810    6.0417 C   0  0  2  0  0  0  0  0  0  0  0  0
   11.8081    7.4791    6.7524 N   0  0  0  0  0  0  0  0  0  0  0  0
    9.7034    5.3877    2.4560 C   0  0  1  0  0  0  0  0  0  0  0  0
    9.5782    0.8717    2.4612 C   0  0  1  0  0  0  0  0  0  0  0  0
    5.0105    7.1979    2.2585 C   0  0  2  0  0  0  0  0  0  0  0  0
    5.2280    8.6138    1.9144 N   0  0  0  0  0  0  0  0  0  0  0  0
    9.2891    7.1648    6.8052 C   0  0  0  0  0  0  0  0  0  0  0  0
    8.6989    4.4138    3.1439 C   0  0  2  0  0  0  0  0  0  0  0  0
    8.9769    4.1734    4.5453 O   0  0  0  0  0  0  0  0  0  0  0  0
    8.4580    0.2598    3.3774 C   0  0  2  0  0  0  0  0  0  0  0  0
    8.7663    0.4871    4.8210 N   0  0  0  0  0  0  0  0  0  0  0  0
    3.8454    7.1586    3.2644 C   0  0  1  0  0  0  0  0  0  0  0  0
    2.6790    7.7584    2.6981 O   0  0  0  0  0  0  0  0  0  0  0  0
    7.9729    7.5347    6.0221 C   0  0  2  0  0  0  0  0  0  0  0  0
    6.7819    6.9820    6.7219 N   0  0  0  0  0  0  0  0  0  0  0  0
    8.7974    3.1913    2.2300 C   0  0  2  0  0  0  0  0  0  0  0  0
    9.8352    2.2641    2.6817 O   0  0  0  0  0  0  0  0  0  0  0  0
    8.3105   -1.3036    3.0596 C   0  0  1  0  0  0  0  0  0  0  0  0
    7.6520   -1.4608    1.7827 O   0  0  0  0  0  0  0  0  0  0  0  0
    3.5789    5.6961    3.6879 C   0  0  2  0  0  0  0  0  0  0  0  0
    2.5036    5.6412    4.5962 O   0  0  0  0  0  0  0  0  0  0  0  0
    8.0273    6.9752    4.5457 C   0  0  2  0  0  0  0  0  0  0  0  0
    9.1090    3.7352    0.8256 C   0  0  2  0  0  0  0  0  0  0  0  0
    9.8596    4.9163    1.0979 O   0  0  0  0  0  0  0  0  0  0  0  0
    9.7182   -2.0687    3.0344 C   0  0  2  0  0  0  0  0  0  0  0  0
   10.2131   -2.1047    4.3724 O   0  0  0  0  0  0  0  0  0  0  0  0
    4.8777    5.1064    4.3320 C   0  0  2  0  0  0  0  0  0  0  0  0
    5.9805    5.1834    3.3741 O   0  0  0  0  0  0  0  0  0  0  0  0
    9.2488    7.4917    3.7542 C   0  0  2  0  0  0  0  0  0  0  0  0
    9.2402    6.7434    2.5074 O   0  0  0  0  0  0  0  0  0  0  0  0
    7.8572    4.0549   -0.0491 C   0  0  0  0  0  0  0  0  0  0  0  0
    7.1421    5.1410    0.5323 O   0  0  0  0  0  0  0  0  0  0  0  0
   10.7396   -1.3226    2.0951 C   0  0  1  0  0  0  0  0  0  0  0  0
   10.8427    0.0526    2.6133 O   0  0  0  0  0  0  0  0  0  0  0  0
    4.7084    3.6705    4.7717 C   0  0  0  0  0  0  0  0  0  0  0  0
    5.8532    3.2377    5.4655 O   0  0  0  0  0  0  0  0  0  0  0  0
   10.5841    7.2177    4.5651 C   0  0  1  0  0  0  0  0  0  0  0  0
   11.6962    7.8289    3.9053 O   0  0  0  0  0  0  0  0  0  0  0  0
   12.1783   -1.9975    2.0373 C   0  0  0  0  0  0  0  0  0  0  0  0
   13.1618   -1.3369    1.1356 N   0  0  0  0  0  0  0  0  0  0  0  0
  1  2  1  1  0  0  0
  1  7  1  0  0  0  0
  1 30  1  0  0  0  0
  3  4  1  1  0  0  0
  3  9  1  0  0  0  0
  3 39  1  0  0  0  0
  5 10  1  0  0  0  0
  5 26  1  0  0  0  0
  5 32  1  6  0  0  0
  6 12  1  0  0  0  0
  6 36  1  0  0  0  0
  6 19  1  1  0  0  0
  7  8  1  1  0  0  0
  7 14  1  0  0  0  0
  9 16  1  0  0  0  0
 10 11  1  1  0  0  0
 10 18  1  0  0  0  0
 12 13  1  1  0  0  0
 12 20  1  0  0  0  0
 14 15  1  6  0  0  0
 14 22  1  0  0  0  0
 16 17  1  1  0  0  0
 16 24  1  0  0  0  0
 18 19  1  1  0  0  0
 18 25  1  0  0  0  0
 20 21  1  6  0  0  0
 20 27  1  0  0  0  0
 22 23  1  1  0  0  0
 22 29  1  0  0  0  0
 24  2  1  6  0  0  0
 24 31  1  0  0  0  0
 25 26  1  0  0  0  0
 25 33  1  1  0  0  0
 27 28  1  1  0  0  0
 27 35  1  0  0  0  0
 29 30  1  0  0  0  0
 29 37  1  6  0  0  0
 31 32  1  6  0  0  0
 31 39  1  0  0  0  0
 33 34  1  0  0  0  0
 35 36  1  0  0  0  0
 35 41  1  1  0  0  0
 37 38  1  0  0  0  0
 39 40  1  6  0  0  0
 41 42  1  0  0  0  0
M  END
>  <CHROM.1>
-179.85874816,72.32489049,-71.22496292,146.36262628,-149.41636706,66.29238465
-173.89291286,-77.58909500,178.69725353,8.13341732,4.12645880,3.39145164
2.04427066,-0.11827422,0.24171035

>  <Name>
2o3w_lig

>  <RI>
0

>  <Rbt.Current_Directory>
/home/itssahil/PROJECTS/Mol_Feturizer/New_Systems/rnas/2o3w

>  <Rbt.Executable>
rbdock ($Id: //depot/dev/client3/rdock/2013.1/src/exe/rbdock.cxx#4 $)

>  <Rbt.Library>
libRbt.so (2013.1, Build901 2013/11/27)

>  <Rbt.Parameter_File>
/export/apps/rDock/src/rDock_2013.1_src/data/scripts/dock_solv.prm

>  <Rbt.Receptor>
prm/pocket_docking_6.prm

>  <SCORE>
-17.4525

>  <SCORE.INTER>
-8.60686

>  <SCORE.INTER.CONST>
1

>  <SCORE.INTER.POLAR>
-0.910276

>  <SCORE.INTER.ROT>
9

>  <SCORE.INTER.SOLV>
14.4297

>  <SCORE.INTER.VDW>
-17.1136

>  <SCORE.INTER.norm>
-0.204925

>  <SCORE.INTRA>
-8.84559

>  <SCORE.INTRA.DIHEDRAL>
-16.7927

>  <SCORE.INTRA.DIHEDRAL.0>
27.8999

>  <SCORE.INTRA.POLAR>
0

>  <SCORE.INTRA.POLAR.0>
0

>  <SCORE.INTRA.REPUL>
0

>  <SCORE.INTRA.REPUL.0>
0

>  <SCORE.INTRA.SOLV>
-1.51475

>  <SCORE.INTRA.SOLV.lig_0>
-104.479

>  <SCORE.INTRA.VDW>
0.308134

>  <SCORE.INTRA.VDW.0>
-6.17816

>  <SCORE.INTRA.norm>
-0.210609

>  <SCORE.RESTR>
0

>  <SCORE.RESTR.CAVITY>
0

>  <SCORE.RESTR.norm>
0

>  <SCORE.SYSTEM>
0

>  <SCORE.SYSTEM.CONST>
0

>  <SCORE.SYSTEM.DIHEDRAL>
0

>  <SCORE.SYSTEM.SOLV>
0

>  <SCORE.SYSTEM.norm>
0

>  <SCORE.heavy>
42

>  <SCORE.norm>
-0.415535

>  <RMSD>
8.035

$$$$
2o3w_lig
 OpenBabel11021811463D
libRbt.so/2013.1/901 2013/11/27
 42 45  0  0  0  0  0  0  0  0999 V2000
   10.2453    7.1955    4.9974 C   0  0  2  0  0  0  0  0  0  0  0  0
   10.3580    5.8273    4.5699 O   0  0  0  0  0  0  0  0  0  0  0  0
   13.4297    3.0082    5.7587 C   0  0  2  0  0  0  0  0  0  0  0  0
   14.2326    2.0142    6.5319 N   0  0  0  0  0  0  0  0  0  0  0  0
    9.1788    1.9284    4.1088 C   0  0  1  0  0  0  0  0  0  0  0  0
    6.3364   -0.9888    2.1639 C   0  0  1  0  0  0  0  0  0  0  0  0
    9.2322    7.2204    6.1811 C   0  0  2  0  0  0  0  0  0  0  0  0
    9.5440    6.2143    7.2112 N   0  0  0  0  0  0  0  0  0  0  0  0
   13.3983    4.4119    6.4871 C   0  0  0  0  0  0  0  0  0  0  0  0
    7.7036    1.5864    4.4799 C   0  0  2  0  0  0  0  0  0  0  0  0
    7.5742    0.6424    5.5712 O   0  0  0  0  0  0  0  0  0  0  0  0
    6.6258   -2.5083    1.8881 C   0  0  2  0  0  0  0  0  0  0  0  0
    7.9657   -2.6896    1.2535 N   0  0  0  0  0  0  0  0  0  0  0  0
    7.7879    6.9518    5.7198 C   0  0  1  0  0  0  0  0  0  0  0  0
    6.8902    7.0234    6.8288 O   0  0  0  0  0  0  0  0  0  0  0  0
   12.5585    5.4205    5.6153 C   0  0  2  0  0  0  0  0  0  0  0  0
   12.5202    6.7584    6.2650 N   0  0  0  0  0  0  0  0  0  0  0  0
    7.1590    1.1169    3.1300 C   0  0  2  0  0  0  0  0  0  0  0  0
    7.3324   -0.3250    2.9519 O   0  0  0  0  0  0  0  0  0  0  0  0
    5.4643   -3.1080    0.9616 C   0  0  1  0  0  0  0  0  0  0  0  0
    4.2654   -3.2590    1.7544 O   0  0  0  0  0  0  0  0  0  0  0  0
    7.4028    7.9628    4.6158 C   0  0  2  0  0  0  0  0  0  0  0  0
    6.0771    7.7410    4.1944 O   0  0  0  0  0  0  0  0  0  0  0  0
   11.0852    4.8877    5.4116 C   0  0  2  0  0  0  0  0  0  0  0  0
    7.9332    1.9074    2.0617 C   0  0  2  0  0  0  0  0  0  0  0  0
    9.2026    2.1182    2.6754 O   0  0  0  0  0  0  0  0  0  0  0  0
    5.1510   -2.1911   -0.3146 C   0  0  2  0  0  0  0  0  0  0  0  0
    6.2738   -2.2745   -1.1913 O   0  0  0  0  0  0  0  0  0  0  0  0
    8.3970    7.8123    3.4164 C   0  0  2  0  0  0  0  0  0  0  0  0
    9.7657    8.0374    3.8808 O   0  0  0  0  0  0  0  0  0  0  0  0
   11.0390    3.4909    4.7543 C   0  0  2  0  0  0  0  0  0  0  0  0
    9.6437    3.0862    4.8148 O   0  0  0  0  0  0  0  0  0  0  0  0
    7.2805    3.2612    1.6430 C   0  0  0  0  0  0  0  0  0  0  0  0
    6.0478    3.0033    0.9776 O   0  0  0  0  0  0  0  0  0  0  0  0
    4.9090   -0.6964    0.1208 C   0  0  1  0  0  0  0  0  0  0  0  0
    6.1230   -0.2790    0.8434 O   0  0  0  0  0  0  0  0  0  0  0  0
    8.0969    8.7721    2.2884 C   0  0  0  0  0  0  0  0  0  0  0  0
    8.7814    8.3804    1.1234 O   0  0  0  0  0  0  0  0  0  0  0  0
   11.9544    2.4753    5.5582 C   0  0  1  0  0  0  0  0  0  0  0  0
   12.0317    1.2263    4.8657 O   0  0  0  0  0  0  0  0  0  0  0  0
    4.6232    0.2929   -1.0909 C   0  0  0  0  0  0  0  0  0  0  0  0
    5.7050    0.3906   -2.1091 N   0  0  0  0  0  0  0  0  0  0  0  0
  1  2  1  6  0  0  0
  1  7  1  0  0  0  0
  1 30  1  0  0  0  0
  3  4  1  1  0  0  0
  3  9  1  0  0  0  0
  3 39  1  0  0  0  0
  5 10  1  0  0  0  0
  5 26  1  0  0  0  0
  5 32  1  1  0  0  0
  6 12  1  0  0  0  0
  6 36  1  0  0  0  0
  6 19  1  6  0  0  0
  7  8  1  1  0  0  0
  7 14  1  0  0  0  0
  9 16  1  0  0  0  0
 10 11  1  1  0  0  0
 10 18  1  0  0  0  0
 12 13  1  6  0  0  0
 12 20  1  0  0  0  0
 14 15  1  1  0  0  0
 14 22  1  0  0  0  0
 16 17  1  1  0  0  0
 16 24  1  0  0  0  0
 18 19  1  6  0  0  0
 18 25  1  0  0  0  0
 20 21  1  1  0  0  0
 20 27  1  0  0  0  0
 22 23  1  6  0  0  0
 22 29  1  0  0  0  0
 24  2  1  6  0  0  0
 24 31  1  0  0  0  0
 25 26  1  0  0  0  0
 25 33  1  1  0  0  0
 27 28  1  6  0  0  0
 27 35  1  0  0  0  0
 29 30  1  0  0  0  0
 29 37  1  6  0  0  0
 31 32  1  1  0  0  0
 31 39  1  0  0  0  0
 33 34  1  0  0  0  0
 35 36  1  0  0  0  0
 35 41  1  6  0  0  0
 37 38  1  0  0  0  0
 39 40  1  6  0  0  0
 41 42  1  0  0  0  0
M  END
>  <CHROM.1>
-73.03366769,172.20939924,174.76353610,148.65979969,-57.85310200,-66.33016872
-165.22730504,170.03596030,-59.83546173,8.47537517,2.95199297,3.38137939
0.99348999,-0.64678186,0.16055520

>  <Name>
2o3w_lig

>  <RI>
0

>  <Rbt.Current_Directory>
/home/itssahil/PROJECTS/Mol_Feturizer/New_Systems/rnas/2o3w

>  <Rbt.Executable>
rbdock ($Id: //depot/dev/client3/rdock/2013.1/src/exe/rbdock.cxx#4 $)

>  <Rbt.Library>
libRbt.so (2013.1, Build901 2013/11/27)

>  <Rbt.Parameter_File>
/export/apps/rDock/src/rDock_2013.1_src/data/scripts/dock_solv.prm

>  <Rbt.Receptor>
prm/pocket_docking_7.prm

>  <SCORE>
-14.6814

>  <SCORE.INTER>
-7.6428

>  <SCORE.INTER.CONST>
1

>  <SCORE.INTER.POLAR>
-1.55241

>  <SCORE.INTER.ROT>
9

>  <SCORE.INTER.SOLV>
15.2812

>  <SCORE.INTER.VDW>
-14.6142

>  <SCORE.INTER.norm>
-0.181972

>  <SCORE.INTRA>
-7.03858

>  <SCORE.INTRA.DIHEDRAL>
-21.2676

>  <SCORE.INTRA.DIHEDRAL.0>
27.8999

>  <SCORE.INTRA.POLAR>
0

>  <SCORE.INTRA.POLAR.0>
0

>  <SCORE.INTRA.REPUL>
0

>  <SCORE.INTRA.REPUL.0>
0

>  <SCORE.INTRA.SOLV>
0.717419

>  <SCORE.INTRA.SOLV.lig_0>
-104.479

>  <SCORE.INTRA.VDW>
3.23649

>  <SCORE.INTRA.VDW.0>
-6.17816

>  <SCORE.INTRA.norm>
-0.167585

>  <SCORE.RESTR>
0

>  <SCORE.RESTR.CAVITY>
0

>  <SCORE.RESTR.norm>
0

>  <SCORE.SYSTEM>
0

>  <SCORE.SYSTEM.CONST>
0

>  <SCORE.SYSTEM.DIHEDRAL>
0

>  <SCORE.SYSTEM.SOLV>
0

>  <SCORE.SYSTEM.norm>
0

>  <SCORE.heavy>
42

>  <SCORE.norm>
-0.349557

>  <RMSD>
8.045

$$$$
2o3w_lig
 OpenBabel11021811463D
libRbt.so/2013.1/901 2013/11/27
 42 45  0  0  0  0  0  0  0  0999 V2000
    4.4667    6.8662   -0.3117 C   0  0  2  0  0  0  0  0  0  0  0  0
    4.9259    7.4925    0.8983 O   0  0  0  0  0  0  0  0  0  0  0  0
    8.9939    5.9965    0.8027 C   0  0  2  0  0  0  0  0  0  0  0  0
   10.4163    5.7060    1.1531 N   0  0  0  0  0  0  0  0  0  0  0  0
    6.2500    5.7414    4.1641 C   0  0  1  0  0  0  0  0  0  0  0  0
    7.9094    5.9913    6.9453 C   0  0  1  0  0  0  0  0  0  0  0  0
    2.9894    7.3144   -0.5237 C   0  0  2  0  0  0  0  0  0  0  0  0
    2.8215    8.7738   -0.4128 N   0  0  0  0  0  0  0  0  0  0  0  0
    8.7718    7.5400    0.5379 C   0  0  0  0  0  0  0  0  0  0  0  0
    5.2154    6.3757    5.1429 C   0  0  2  0  0  0  0  0  0  0  0  0
    5.2880    7.8205    5.2219 O   0  0  0  0  0  0  0  0  0  0  0  0
    8.4070    4.6510    7.5972 C   0  0  2  0  0  0  0  0  0  0  0  0
    8.1960    4.6665    9.0758 N   0  0  0  0  0  0  0  0  0  0  0  0
    2.0328    6.6775    0.5011 C   0  0  1  0  0  0  0  0  0  0  0  0
    0.6873    7.0839    0.2451 O   0  0  0  0  0  0  0  0  0  0  0  0
    7.2630    7.7796    0.1524 C   0  0  2  0  0  0  0  0  0  0  0  0
    7.0210    9.2225   -0.1183 N   0  0  0  0  0  0  0  0  0  0  0  0
    5.5321    5.6249    6.4373 C   0  0  2  0  0  0  0  0  0  0  0  0
    6.5446    6.3228    7.2301 O   0  0  0  0  0  0  0  0  0  0  0  0
    9.9530    4.4309    7.2388 C   0  0  1  0  0  0  0  0  0  0  0  0
   10.0603    4.0459    5.8499 O   0  0  0  0  0  0  0  0  0  0  0  0
    2.1764    5.1392    0.4540 C   0  0  2  0  0  0  0  0  0  0  0  0
    1.2948    4.5401    1.3750 O   0  0  0  0  0  0  0  0  0  0  0  0
    6.3075    7.2902    1.3114 C   0  0  2  0  0  0  0  0  0  0  0  0
    6.0219    4.2309    6.0104 C   0  0  2  0  0  0  0  0  0  0  0  0
    6.6443    4.4806    4.7524 O   0  0  0  0  0  0  0  0  0  0  0  0
   10.8448    5.7355    7.5038 C   0  0  2  0  0  0  0  0  0  0  0  0
   10.9141    5.9306    8.9157 O   0  0  0  0  0  0  0  0  0  0  0  0
    3.6588    4.7547    0.7769 C   0  0  2  0  0  0  0  0  0  0  0  0
    4.5542    5.3958   -0.1860 O   0  0  0  0  0  0  0  0  0  0  0  0
    6.5088    5.8002    1.6645 C   0  0  2  0  0  0  0  0  0  0  0  0
    5.6988    5.5760    2.8511 O   0  0  0  0  0  0  0  0  0  0  0  0
    4.9027    3.1519    5.8786 C   0  0  0  0  0  0  0  0  0  0  0  0
    5.4876    1.9123    5.4909 O   0  0  0  0  0  0  0  0  0  0  0  0
   10.2047    6.9968    6.8099 C   0  0  1  0  0  0  0  0  0  0  0  0
    8.8402    7.1140    7.3527 O   0  0  0  0  0  0  0  0  0  0  0  0
    3.8922    3.2620    0.7462 C   0  0  0  0  0  0  0  0  0  0  0  0
    3.1461    2.6336    1.7600 O   0  0  0  0  0  0  0  0  0  0  0  0
    8.0387    5.5091    1.9649 C   0  0  1  0  0  0  0  0  0  0  0  0
    8.2483    4.1055    2.1425 O   0  0  0  0  0  0  0  0  0  0  0  0
   11.0098    8.3467    7.0504 C   0  0  0  0  0  0  0  0  0  0  0  0
   10.4157    9.5667    6.4378 N   0  0  0  0  0  0  0  0  0  0  0  0
  1  2  1  1  0  0  0
  1  7  1  0  0  0  0
  1 30  1  0  0  0  0
  3  4  1  1  0  0  0
  3  9  1  0  0  0  0
  3 39  1  0  0  0  0
  5 10  1  0  0  0  0
  5 26  1  0  0  0  0
  5 32  1  6  0  0  0
  6 12  1  0  0  0  0
  6 36  1  0  0  0  0
  6 19  1  1  0  0  0
  7  8  1  1  0  0  0
  7 14  1  0  0  0  0
  9 16  1  0  0  0  0
 10 11  1  1  0  0  0
 10 18  1  0  0  0  0
 12 13  1  1  0  0  0
 12 20  1  0  0  0  0
 14 15  1  6  0  0  0
 14 22  1  0  0  0  0
 16 17  1  1  0  0  0
 16 24  1  0  0  0  0
 18 19  1  6  0  0  0
 18 25  1  0  0  0  0
 20 21  1  6  0  0  0
 20 27  1  0  0  0  0
 22 23  1  1  0  0  0
 22 29  1  0  0  0  0
 24  2  1  6  0  0  0
 24 31  1  0  0  0  0
 25 26  1  0  0  0  0
 25 33  1  6  0  0  0
 27 28  1  1  0  0  0
 27 35  1  0  0  0  0
 29 30  1  0  0  0  0
 29 37  1  6  0  0  0
 31 32  1  1  0  0  0
 31 39  1  0  0  0  0
 33 34  1  0  0  0  0
 35 36  1  0  0  0  0
 35 41  1  1  0  0  0
 37 38  1  0  0  0  0
 39 40  1  6  0  0  0
 41 42  1  0  0  0  0
M  END
>  <CHROM.1>
-177.41424331,142.23254077,-79.65307291,-88.65705084,57.60021688,-179.52389991
-64.24432611,-90.88952144,-178.52609780,6.46196608,5.86667760,3.56374808
-2.40525902,0.48425529,2.07570474

>  <Name>
2o3w_lig

>  <RI>
0

>  <Rbt.Current_Directory>
/home/itssahil/PROJECTS/Mol_Feturizer/New_Systems/rnas/2o3w

>  <Rbt.Executable>
rbdock ($Id: //depot/dev/client3/rdock/2013.1/src/exe/rbdock.cxx#4 $)

>  <Rbt.Library>
libRbt.so (2013.1, Build901 2013/11/27)

>  <Rbt.Parameter_File>
/export/apps/rDock/src/rDock_2013.1_src/data/scripts/dock_solv.prm

>  <Rbt.Receptor>
prm/pocket_docking_7.prm

>  <SCORE>
-19.9961

>  <SCORE.INTER>
-15.5268

>  <SCORE.INTER.CONST>
1

>  <SCORE.INTER.POLAR>
-3.77156

>  <SCORE.INTER.ROT>
9

>  <SCORE.INTER.SOLV>
20.4193

>  <SCORE.INTER.VDW>
-14.1857

>  <SCORE.INTER.norm>
-0.369685

>  <SCORE.INTRA>
-4.4693

>  <SCORE.INTRA.DIHEDRAL>
-13.7797

>  <SCORE.INTRA.DIHEDRAL.0>
27.8999

>  <SCORE.INTRA.POLAR>
0

>  <SCORE.INTRA.POLAR.0>
0

>  <SCORE.INTRA.REPUL>
0

>  <SCORE.INTRA.REPUL.0>
0

>  <SCORE.INTRA.SOLV>
-4.08543

>  <SCORE.INTRA.SOLV.lig_0>
-104.479

>  <SCORE.INTRA.VDW>
4.46326

>  <SCORE.INTRA.VDW.0>
-6.17816

>  <SCORE.INTRA.norm>
-0.106412

>  <SCORE.RESTR>
0

>  <SCORE.RESTR.CAVITY>
0

>  <SCORE.RESTR.norm>
0

>  <SCORE.SYSTEM>
0

>  <SCORE.SYSTEM.CONST>
0

>  <SCORE.SYSTEM.DIHEDRAL>
0

>  <SCORE.SYSTEM.SOLV>
0

>  <SCORE.SYSTEM.norm>
0

>  <SCORE.heavy>
42

>  <SCORE.norm>
-0.476097

>  <RMSD>
8.136

$$$$
2o3w_lig
 OpenBabel11021811463D
libRbt.so/2013.1/901 2013/11/27
 42 45  0  0  0  0  0  0  0  0999 V2000
    9.8557    4.3298    5.6160 C   0  0  2  0  0  0  0  0  0  0  0  0
    9.1091    5.1840    4.7327 O   0  0  0  0  0  0  0  0  0  0  0  0
    9.2338    6.3995    0.5730 C   0  0  2  0  0  0  0  0  0  0  0  0
    9.7092    6.7310   -0.8034 N   0  0  0  0  0  0  0  0  0  0  0  0
    8.9706    2.2281    3.4702 C   0  0  1  0  0  0  0  0  0  0  0  0
    5.6129   -0.2707    3.6890 C   0  0  1  0  0  0  0  0  0  0  0  0
    8.9592    4.0708    6.8640 C   0  0  2  0  0  0  0  0  0  0  0  0
    7.5974    3.6418    6.5006 N   0  0  0  0  0  0  0  0  0  0  0  0
    9.8491    7.3855    1.6458 C   0  0  0  0  0  0  0  0  0  0  0  0
    7.9145    1.5664    2.5333 C   0  0  2  0  0  0  0  0  0  0  0  0
    6.6163    2.2090    2.5621 O   0  0  0  0  0  0  0  0  0  0  0  0
    4.7109    0.9978    3.9036 C   0  0  2  0  0  0  0  0  0  0  0  0
    4.7563    1.4500    5.3264 N   0  0  0  0  0  0  0  0  0  0  0  0
    8.8101    5.3237    7.7465 C   0  0  1  0  0  0  0  0  0  0  0  0
    8.0151    5.0302    8.8966 O   0  0  0  0  0  0  0  0  0  0  0  0
    9.2948    7.0008    3.0697 C   0  0  2  0  0  0  0  0  0  0  0  0
    9.8431    7.9192    4.1038 N   0  0  0  0  0  0  0  0  0  0  0  0
    7.9476    0.1183    3.0245 C   0  0  2  0  0  0  0  0  0  0  0  0
    6.9774   -0.1087    4.0959 O   0  0  0  0  0  0  0  0  0  0  0  0
    3.2103    0.6617    3.4542 C   0  0  1  0  0  0  0  0  0  0  0  0
    3.1569    0.6031    2.0111 O   0  0  0  0  0  0  0  0  0  0  0  0
   10.2102    5.8428    8.1458 C   0  0  2  0  0  0  0  0  0  0  0  0
   10.0908    6.9803    8.9681 O   0  0  0  0  0  0  0  0  0  0  0  0
    9.6732    5.5100    3.4305 C   0  0  2  0  0  0  0  0  0  0  0  0
    9.3847   -0.1319    3.5120 C   0  0  2  0  0  0  0  0  0  0  0  0
    9.7947    1.1526    3.9753 O   0  0  0  0  0  0  0  0  0  0  0  0
    2.6715   -0.7173    4.0670 C   0  0  2  0  0  0  0  0  0  0  0  0
    2.5030   -0.5282    5.4713 O   0  0  0  0  0  0  0  0  0  0  0  0
   11.0185    6.1804    6.8487 C   0  0  2  0  0  0  0  0  0  0  0  0
   11.1204    4.9876    6.0081 O   0  0  0  0  0  0  0  0  0  0  0  0
    9.1519    4.4919    2.3927 C   0  0  2  0  0  0  0  0  0  0  0  0
    9.7406    3.2190    2.7772 O   0  0  0  0  0  0  0  0  0  0  0  0
   10.3632   -0.6751    2.4249 C   0  0  0  0  0  0  0  0  0  0  0  0
   11.6609   -0.8252    2.9928 O   0  0  0  0  0  0  0  0  0  0  0  0
    3.6938   -1.8844    3.7928 C   0  0  1  0  0  0  0  0  0  0  0  0
    4.9733   -1.4547    4.3832 O   0  0  0  0  0  0  0  0  0  0  0  0
   12.4091    6.6915    7.1467 C   0  0  0  0  0  0  0  0  0  0  0  0
   12.9944    7.2136    5.9787 O   0  0  0  0  0  0  0  0  0  0  0  0
    9.6158    4.9082    0.9342 C   0  0  1  0  0  0  0  0  0  0  0  0
    9.0089    4.0539   -0.0392 O   0  0  0  0  0  0  0  0  0  0  0  0
    3.2527   -3.2872    4.3980 C   0  0  0  0  0  0  0  0  0  0  0  0
    1.9516   -3.8182    3.9063 N   0  0  0  0  0  0  0  0  0  0  0  0
  1  2  1  6  0  0  0
  1  7  1  0  0  0  0
  1 30  1  0  0  0  0
  3  4  1  6  0  0  0
  3  9  1  0  0  0  0
  3 39  1  0  0  0  0
  5 10  1  0  0  0  0
  5 26  1  0  0  0  0
  5 32  1  6  0  0  0
  6 12  1  0  0  0  0
  6 36  1  0  0  0  0
  6 19  1  1  0  0  0
  7  8  1  6  0  0  0
  7 14  1  0  0  0  0
  9 16  1  0  0  0  0
 10 11  1  1  0  0  0
 10 18  1  0  0  0  0
 12 13  1  1  0  0  0
 12 20  1  0  0  0  0
 14 15  1  1  0  0  0
 14 22  1  0  0  0  0
 16 17  1  1  0  0  0
 16 24  1  0  0  0  0
 18 19  1  1  0  0  0
 18 25  1  0  0  0  0
 20 21  1  6  0  0  0
 20 27  1  0  0  0  0
 22 23  1  1  0  0  0
 22 29  1  0  0  0  0
 24  2  1  1  0  0  0
 24 31  1  0  0  0  0
 25 26  1  0  0  0  0
 25 33  1  6  0  0  0
 27 28  1  1  0  0  0
 27 35  1  0  0  0  0
 29 30  1  0  0  0  0
 29 37  1  1  0  0  0
 31 32  1  1  0  0  0
 31 39  1  0  0  0  0
 33 34  1  0  0  0  0
 35 36  1  0  0  0  0
 35 41  1  1  0  0  0
 37 38  1  0  0  0  0
 39 40  1  6  0  0  0
 41 42  1  0  0  0  0
M  END
>  <CHROM.1>
-175.48990457,71.67544266,-102.15175344,78.46017020,-143.85411641,178.31482248
-168.90817423,102.34763737,59.26877777,8.00280019,2.85453800,4.17404949,0.28009198
0.82894420,1.36570161

>  <Name>
2o3w_lig

>  <RI>
0

>  <Rbt.Current_Directory>
/home/itssahil/PROJECTS/Mol_Feturizer/New_Systems/rnas/2o3w

>  <Rbt.Executable>
rbdock ($Id: //depot/dev/client3/rdock/2013.1/src/exe/rbdock.cxx#4 $)

>  <Rbt.Library>
libRbt.so (2013.1, Build901 2013/11/27)

>  <Rbt.Parameter_File>
/export/apps/rDock/src/rDock_2013.1_src/data/scripts/dock_solv.prm

>  <Rbt.Receptor>
prm/pocket_docking_5.prm

>  <SCORE>
-14.3609

>  <SCORE.INTER>
-10.7776

>  <SCORE.INTER.CONST>
1

>  <SCORE.INTER.POLAR>
-2.54051

>  <SCORE.INTER.ROT>
9

>  <SCORE.INTER.SOLV>
16.3623

>  <SCORE.INTER.VDW>
-13.7708

>  <SCORE.INTER.norm>
-0.256608

>  <SCORE.INTRA>
-3.58336

>  <SCORE.INTRA.DIHEDRAL>
-8.89141

>  <SCORE.INTRA.DIHEDRAL.0>
27.8999

>  <SCORE.INTRA.POLAR>
0

>  <SCORE.INTRA.POLAR.0>
0

>  <SCORE.INTRA.REPUL>
0

>  <SCORE.INTRA.REPUL.0>
0

>  <SCORE.INTRA.SOLV>
-1.6082

>  <SCORE.INTRA.SOLV.lig_0>
-104.479

>  <SCORE.INTRA.VDW>
1.66645

>  <SCORE.INTRA.VDW.0>
-6.17816

>  <SCORE.INTRA.norm>
-0.0853182

>  <SCORE.RESTR>
0

>  <SCORE.RESTR.CAVITY>
0

>  <SCORE.RESTR.norm>
0

>  <SCORE.SYSTEM>
0

>  <SCORE.SYSTEM.CONST>
0

>  <SCORE.SYSTEM.DIHEDRAL>
0

>  <SCORE.SYSTEM.SOLV>
0

>  <SCORE.SYSTEM.norm>
0

>  <SCORE.heavy>
42

>  <SCORE.norm>
-0.341927

>  <RMSD>
8.139

$$$$
2o3w_lig
 OpenBabel11021811463D
libRbt.so/2013.1/901 2013/11/27
 42 45  0  0  0  0  0  0  0  0999 V2000
    4.5308    4.2567    0.7022 C   0  0  2  0  0  0  0  0  0  0  0  0
    5.9029    4.6549    0.8637 O   0  0  0  0  0  0  0  0  0  0  0  0
    8.4241    6.9961   -1.7741 C   0  0  2  0  0  0  0  0  0  0  0  0
    9.0158    8.1253   -2.5520 N   0  0  0  0  0  0  0  0  0  0  0  0
    8.4133    6.2157    3.0903 C   0  0  1  0  0  0  0  0  0  0  0  0
   10.1533    5.3985    6.9696 C   0  0  1  0  0  0  0  0  0  0  0  0
    4.0405    3.7409    2.0885 C   0  0  2  0  0  0  0  0  0  0  0  0
    4.3469    4.6812    3.1805 N   0  0  0  0  0  0  0  0  0  0  0  0
    6.9525    6.6754   -2.2570 C   0  0  0  0  0  0  0  0  0  0  0  0
    8.7616    7.3895    4.0555 C   0  0  2  0  0  0  0  0  0  0  0  0
    9.9907    8.0808    3.7232 O   0  0  0  0  0  0  0  0  0  0  0  0
    9.6767    6.1751    8.2497 C   0  0  2  0  0  0  0  0  0  0  0  0
   10.4223    7.4603    8.4023 N   0  0  0  0  0  0  0  0  0  0  0  0
    4.6798    2.3929    2.4698 C   0  0  1  0  0  0  0  0  0  0  0  0
    4.1728    1.9398    3.7262 O   0  0  0  0  0  0  0  0  0  0  0  0
    6.3923    5.4654   -1.4176 C   0  0  2  0  0  0  0  0  0  0  0  0
    5.0117    5.1264   -1.8564 N   0  0  0  0  0  0  0  0  0  0  0  0
    8.7482    6.6757    5.4081 C   0  0  2  0  0  0  0  0  0  0  0  0
   10.0690    6.1478    5.7510 O   0  0  0  0  0  0  0  0  0  0  0  0
    9.8700    5.2413    9.5371 C   0  0  1  0  0  0  0  0  0  0  0  0
    8.8571    4.2105    9.5229 O   0  0  0  0  0  0  0  0  0  0  0  0
    4.4153    1.3615    1.3493 C   0  0  2  0  0  0  0  0  0  0  0  0
    4.9799    0.1170    1.6909 O   0  0  0  0  0  0  0  0  0  0  0  0
    6.3887    5.8112    0.1239 C   0  0  2  0  0  0  0  0  0  0  0  0
    7.7122    5.5461    5.2818 C   0  0  2  0  0  0  0  0  0  0  0  0
    7.7848    5.1968    3.9015 O   0  0  0  0  0  0  0  0  0  0  0  0
   11.3215    4.5656    9.6032 C   0  0  2  0  0  0  0  0  0  0  0  0
   12.2670    5.6008    9.8689 O   0  0  0  0  0  0  0  0  0  0  0  0
    5.0233    1.8958    0.0098 C   0  0  2  0  0  0  0  0  0  0  0  0
    4.4290    3.1916   -0.3180 O   0  0  0  0  0  0  0  0  0  0  0  0
    7.7881    6.1909    0.6557 C   0  0  2  0  0  0  0  0  0  0  0  0
    7.5674    6.6503    2.0176 O   0  0  0  0  0  0  0  0  0  0  0  0
    6.2573    5.9391    5.6856 C   0  0  0  0  0  0  0  0  0  0  0  0
    6.2682    6.5030    6.9935 O   0  0  0  0  0  0  0  0  0  0  0  0
   11.6641    3.8504    8.2419 C   0  0  1  0  0  0  0  0  0  0  0  0
   11.5594    4.8851    7.1984 O   0  0  0  0  0  0  0  0  0  0  0  0
    4.8041    0.9483   -1.1470 C   0  0  0  0  0  0  0  0  0  0  0  0
    5.4680    1.4213   -2.2937 O   0  0  0  0  0  0  0  0  0  0  0  0
    8.4182    7.3447   -0.2317 C   0  0  1  0  0  0  0  0  0  0  0  0
    9.7700    7.5904    0.1657 O   0  0  0  0  0  0  0  0  0  0  0  0
   13.1053    3.1793    8.2077 C   0  0  0  0  0  0  0  0  0  0  0  0
   13.3189    2.0672    9.1742 N   0  0  0  0  0  0  0  0  0  0  0  0
  1  2  1  1  0  0  0
  1  7  1  0  0  0  0
  1 30  1  0  0  0  0
  3  4  1  6  0  0  0
  3  9  1  0  0  0  0
  3 39  1  0  0  0  0
  5 10  1  0  0  0  0
  5 26  1  0  0  0  0
  5 32  1  6  0  0  0
  6 12  1  0  0  0  0
  6 36  1  0  0  0  0
  6 19  1  6  0  0  0
  7  8  1  1  0  0  0
  7 14  1  0  0  0  0
  9 16  1  0  0  0  0
 10 11  1  6  0  0  0
 10 18  1  0  0  0  0
 12 13  1  1  0  0  0
 12 20  1  0  0  0  0
 14 15  1  1  0  0  0
 14 22  1  0  0  0  0
 16 17  1  6  0  0  0
 16 24  1  0  0  0  0
 18 19  1  6  0  0  0
 18 25  1  0  0  0  0
 20 21  1  6  0  0  0
 20 27  1  0  0  0  0
 22 23  1  1  0  0  0
 22 29  1  0  0  0  0
 24  2  1  1  0  0  0
 24 31  1  0  0  0  0
 25 26  1  0  0  0  0
 25 33  1  6  0  0  0
 27 28  1  6  0  0  0
 27 35  1  0  0  0  0
 29 30  1  0  0  0  0
 29 37  1  6  0  0  0
 31 32  1  1  0  0  0
 31 39  1  0  0  0  0
 33 34  1  0  0  0  0
 35 36  1  0  0  0  0
 35 41  1  1  0  0  0
 37 38  1  0  0  0  0
 39 40  1  1  0  0  0
 41 42  1  0  0  0  0
M  END
>  <CHROM.1>
-144.12155278,138.24818469,-56.95323703,-176.89491998,-67.06215457,-53.36315477
-174.92538041,134.77637271,63.60333744,7.82935475,4.91216325,3.44719613,2.37887325
-0.80683064,-1.03792906

>  <Name>
2o3w_lig

>  <RI>
0

>  <Rbt.Current_Directory>
/home/itssahil/PROJECTS/Mol_Feturizer/New_Systems/rnas/2o3w

>  <Rbt.Executable>
rbdock ($Id: //depot/dev/client3/rdock/2013.1/src/exe/rbdock.cxx#4 $)

>  <Rbt.Library>
libRbt.so (2013.1, Build901 2013/11/27)

>  <Rbt.Parameter_File>
/export/apps/rDock/src/rDock_2013.1_src/data/scripts/dock_solv.prm

>  <Rbt.Receptor>
prm/pocket_docking_5.prm

>  <SCORE>
-15.3884

>  <SCORE.INTER>
-12.8324

>  <SCORE.INTER.CONST>
1

>  <SCORE.INTER.POLAR>
-3.1379

>  <SCORE.INTER.ROT>
9

>  <SCORE.INTER.SOLV>
15.8013

>  <SCORE.INTER.VDW>
-12.9624

>  <SCORE.INTER.norm>
-0.305534

>  <SCORE.INTRA>
-2.58359

>  <SCORE.INTRA.DIHEDRAL>
-10.59

>  <SCORE.INTRA.DIHEDRAL.0>
27.8999

>  <SCORE.INTRA.POLAR>
0

>  <SCORE.INTRA.POLAR.0>
0

>  <SCORE.INTRA.REPUL>
0.151502

>  <SCORE.INTRA.REPUL.0>
0

>  <SCORE.INTRA.SOLV>
-0.587424

>  <SCORE.INTRA.SOLV.lig_0>
-104.479

>  <SCORE.INTRA.VDW>
2.2476

>  <SCORE.INTRA.VDW.0>
-6.17816

>  <SCORE.INTRA.norm>
-0.061514

>  <SCORE.RESTR>
0.0275789

>  <SCORE.RESTR.CAVITY>
0.0275789

>  <SCORE.RESTR.norm>
0.00065664

>  <SCORE.SYSTEM>
0

>  <SCORE.SYSTEM.CONST>
0

>  <SCORE.SYSTEM.DIHEDRAL>
0

>  <SCORE.SYSTEM.SOLV>
0

>  <SCORE.SYSTEM.norm>
0

>  <SCORE.heavy>
42

>  <SCORE.norm>
-0.366391

>  <RMSD>
8.141

$$$$
2o3w_lig
 OpenBabel11021811463D
libRbt.so/2013.1/901 2013/11/27
 42 45  0  0  0  0  0  0  0  0999 V2000
    6.3722    7.3042   -1.2775 C   0  0  2  0  0  0  0  0  0  0  0  0
    6.8059    7.4393    0.0866 O   0  0  0  0  0  0  0  0  0  0  0  0
    8.6360    3.5320    0.5112 C   0  0  2  0  0  0  0  0  0  0  0  0
    9.3847    2.3577    1.0504 N   0  0  0  0  0  0  0  0  0  0  0  0
    6.2515    6.0730    3.3086 C   0  0  1  0  0  0  0  0  0  0  0  0
    7.8275    6.8057    6.1462 C   0  0  1  0  0  0  0  0  0  0  0  0
    5.7447    8.6688   -1.6927 C   0  0  2  0  0  0  0  0  0  0  0  0
    6.6172    9.8116   -1.3712 N   0  0  0  0  0  0  0  0  0  0  0  0
    9.5930    4.7724    0.2939 C   0  0  0  0  0  0  0  0  0  0  0  0
    5.1445    6.7436    4.1779 C   0  0  2  0  0  0  0  0  0  0  0  0
    5.0785    8.1843    4.0394 O   0  0  0  0  0  0  0  0  0  0  0  0
    8.7511    7.5299    7.1909 C   0  0  2  0  0  0  0  0  0  0  0  0
    8.5784    9.0117    7.1187 N   0  0  0  0  0  0  0  0  0  0  0  0
    4.3968    8.9285   -0.9951 C   0  0  1  0  0  0  0  0  0  0  0  0
    3.8402   10.1687   -1.4343 O   0  0  0  0  0  0  0  0  0  0  0  0
    8.7529    5.9681   -0.2952 C   0  0  2  0  0  0  0  0  0  0  0  0
    9.6267    7.1500   -0.5262 N   0  0  0  0  0  0  0  0  0  0  0  0
    5.5081    6.2282    5.5712 C   0  0  2  0  0  0  0  0  0  0  0  0
    6.4359    7.1306    6.2535 O   0  0  0  0  0  0  0  0  0  0  0  0
   10.2757    7.1146    6.9261 C   0  0  1  0  0  0  0  0  0  0  0  0
   10.4737    5.7543    7.3724 O   0  0  0  0  0  0  0  0  0  0  0  0
    3.4369    7.7492   -1.2729 C   0  0  2  0  0  0  0  0  0  0  0  0
    2.1921    7.9795   -0.6548 O   0  0  0  0  0  0  0  0  0  0  0  0
    7.5788    6.3606    0.6863 C   0  0  2  0  0  0  0  0  0  0  0  0
    6.1352    4.8398    5.3600 C   0  0  2  0  0  0  0  0  0  0  0  0
    6.7531    4.9579    4.0806 O   0  0  0  0  0  0  0  0  0  0  0  0
   10.6956    7.2395    5.3848 C   0  0  2  0  0  0  0  0  0  0  0  0
   10.7273    8.6282    5.0579 O   0  0  0  0  0  0  0  0  0  0  0  0
    4.0835    6.4278   -0.7388 C   0  0  2  0  0  0  0  0  0  0  0  0
    5.3774    6.2161   -1.3876 O   0  0  0  0  0  0  0  0  0  0  0  0
    6.6321    5.1788    0.9904 C   0  0  2  0  0  0  0  0  0  0  0  0
    5.7415    5.6615    2.0336 O   0  0  0  0  0  0  0  0  0  0  0  0
    5.1257    3.6505    5.3880 C   0  0  0  0  0  0  0  0  0  0  0  0
    5.8445    2.4219    5.3370 O   0  0  0  0  0  0  0  0  0  0  0  0
    9.6624    6.4861    4.4644 C   0  0  1  0  0  0  0  0  0  0  0  0
    8.3469    7.0840    4.7513 O   0  0  0  0  0  0  0  0  0  0  0  0
    3.2114    5.2166   -0.9756 C   0  0  0  0  0  0  0  0  0  0  0  0
    2.0499    5.2934   -0.1855 O   0  0  0  0  0  0  0  0  0  0  0  0
    7.4630    3.9259    1.4959 C   0  0  1  0  0  0  0  0  0  0  0  0
    6.6068    2.7884    1.6322 O   0  0  0  0  0  0  0  0  0  0  0  0
    9.9851    6.5875    2.9106 C   0  0  0  0  0  0  0  0  0  0  0  0
   11.3506    6.1515    2.5084 N   0  0  0  0  0  0  0  0  0  0  0  0
  1  2  1  1  0  0  0
  1  7  1  0  0  0  0
  1 30  1  0  0  0  0
  3  4  1  1  0  0  0
  3  9  1  0  0  0  0
  3 39  1  0  0  0  0
  5 10  1  0  0  0  0
  5 26  1  0  0  0  0
  5 32  1  6  0  0  0
  6 12  1  0  0  0  0
  6 36  1  0  0  0  0
  6 19  1  6  0  0  0
  7  8  1  1  0  0  0
  7 14  1  0  0  0  0
  9 16  1  0  0  0  0
 10 11  1  1  0  0  0
 10 18  1  0  0  0  0
 12 13  1  6  0  0  0
 12 20  1  0  0  0  0
 14 15  1  6  0  0  0
 14 22  1  0  0  0  0
 16 17  1  1  0  0  0
 16 24  1  0  0  0  0
 18 19  1  6  0  0  0
 18 25  1  0  0  0  0
 20 21  1  6  0  0  0
 20 27  1  0  0  0  0
 22 23  1  1  0  0  0
 22 29  1  0  0  0  0
 24  2  1  6  0  0  0
 24 31  1  0  0  0  0
 25 26  1  0  0  0  0
 25 33  1  6  0  0  0
 27 28  1  6  0  0  0
 27 35  1  0  0  0  0
 29 30  1  0  0  0  0
 29 37  1  6  0  0  0
 31 32  1  1  0  0  0
 31 39  1  0  0  0  0
 33 34  1  0  0  0  0
 35 36  1  0  0  0  0
 35 41  1  6  0  0  0
 37 38  1  0  0  0  0
 39 40  1  6  0  0  0
 41 42  1  0  0  0  0
M  END
>  <CHROM.1>
-172.70625318,171.57760677,-163.75669826,-95.28778826,49.04575796,-173.33748892
-67.74111893,-61.22891257,54.42944883,6.93909881,6.36773469,2.37597417,-2.14765584
0.07002906,1.73349099

>  <Name>
2o3w_lig

>  <RI>
0

>  <Rbt.Current_Directory>
/home/itssahil/PROJECTS/Mol_Feturizer/New_Systems/rnas/2o3w

>  <Rbt.Executable>
rbdock ($Id: //depot/dev/client3/rdock/2013.1/src/exe/rbdock.cxx#4 $)

>  <Rbt.Library>
libRbt.so (2013.1, Build901 2013/11/27)

>  <Rbt.Parameter_File>
/export/apps/rDock/src/rDock_2013.1_src/data/scripts/dock_solv.prm

>  <Rbt.Receptor>
prm/pocket_docking_5.prm

>  <SCORE>
-23.1806

>  <SCORE.INTER>
-16.0641

>  <SCORE.INTER.CONST>
1

>  <SCORE.INTER.POLAR>
-3.91009

>  <SCORE.INTER.ROT>
9

>  <SCORE.INTER.SOLV>
21.9275

>  <SCORE.INTER.VDW>
-14.5849

>  <SCORE.INTER.norm>
-0.382479

>  <SCORE.INTRA>
-7.21192

>  <SCORE.INTRA.DIHEDRAL>
-20.3238

>  <SCORE.INTRA.DIHEDRAL.0>
27.8999

>  <SCORE.INTRA.POLAR>
0

>  <SCORE.INTRA.POLAR.0>
0

>  <SCORE.INTRA.REPUL>
0

>  <SCORE.INTRA.REPUL.0>
0

>  <SCORE.INTRA.SOLV>
0.360941

>  <SCORE.INTRA.SOLV.lig_0>
-104.479

>  <SCORE.INTRA.VDW>
2.76948

>  <SCORE.INTRA.VDW.0>
-6.17816

>  <SCORE.INTRA.norm>
-0.171712

>  <SCORE.RESTR>
0.0954153

>  <SCORE.RESTR.CAVITY>
0.0954153

>  <SCORE.RESTR.norm>
0.00227179

>  <SCORE.SYSTEM>
0

>  <SCORE.SYSTEM.CONST>
0

>  <SCORE.SYSTEM.DIHEDRAL>
0

>  <SCORE.SYSTEM.SOLV>
0

>  <SCORE.SYSTEM.norm>
0

>  <SCORE.heavy>
42

>  <SCORE.norm>
-0.551919

>  <RMSD>
8.177

$$$$
2o3w_lig
 OpenBabel11021811463D
libRbt.so/2013.1/901 2013/11/27
 42 45  0  0  0  0  0  0  0  0999 V2000
    2.5603    5.1000   -0.6829 C   0  0  2  0  0  0  0  0  0  0  0  0
    3.7003    4.4738   -1.2958 O   0  0  0  0  0  0  0  0  0  0  0  0
    6.3254    5.8822   -4.4457 C   0  0  2  0  0  0  0  0  0  0  0  0
    7.3397    6.6620   -5.2161 N   0  0  0  0  0  0  0  0  0  0  0  0
    6.9598    5.2311   -0.0775 C   0  0  1  0  0  0  0  0  0  0  0  0
    8.1154    6.5867    3.7244 C   0  0  1  0  0  0  0  0  0  0  0  0
    3.0316    5.6537    0.6953 C   0  0  2  0  0  0  0  0  0  0  0  0
    4.2655    6.4518    0.5902 N   0  0  0  0  0  0  0  0  0  0  0  0
    5.0725    6.7751   -4.0786 C   0  0  0  0  0  0  0  0  0  0  0  0
    7.4961    4.6712    1.2752 C   0  0  2  0  0  0  0  0  0  0  0  0
    6.4982    4.6074    2.3236 O   0  0  0  0  0  0  0  0  0  0  0  0
    6.6485    6.7682    4.2576 C   0  0  2  0  0  0  0  0  0  0  0  0
    6.1054    8.1072    3.8793 N   0  0  0  0  0  0  0  0  0  0  0  0
    3.3134    4.5309    1.7107 C   0  0  1  0  0  0  0  0  0  0  0  0
    3.7033    5.0843    2.9687 O   0  0  0  0  0  0  0  0  0  0  0  0
    4.0317    5.8942   -3.2892 C   0  0  2  0  0  0  0  0  0  0  0  0
    2.8311    6.7004   -2.9398 N   0  0  0  0  0  0  0  0  0  0  0  0
    8.6746    5.6098    1.5388 C   0  0  2  0  0  0  0  0  0  0  0  0
    8.2659    6.7823    2.3128 O   0  0  0  0  0  0  0  0  0  0  0  0
    6.6355    6.5701    5.8474 C   0  0  1  0  0  0  0  0  0  0  0  0
    6.7986    5.1651    6.1444 O   0  0  0  0  0  0  0  0  0  0  0  0
    2.0605    3.6367    1.8515 C   0  0  2  0  0  0  0  0  0  0  0  0
    2.2965    2.6133    2.7904 O   0  0  0  0  0  0  0  0  0  0  0  0
    4.6808    5.3115   -1.9720 C   0  0  2  0  0  0  0  0  0  0  0  0
    9.2124    6.0146    0.1560 C   0  0  2  0  0  0  0  0  0  0  0  0
    8.0462    5.9844   -0.6635 O   0  0  0  0  0  0  0  0  0  0  0  0
    7.7806    7.4111    6.5884 C   0  0  2  0  0  0  0  0  0  0  0  0
    7.4394    8.7925    6.4798 O   0  0  0  0  0  0  0  0  0  0  0  0
    1.7048    3.0322    0.4523 C   0  0  2  0  0  0  0  0  0  0  0  0
    1.4740    4.1129   -0.5062 O   0  0  0  0  0  0  0  0  0  0  0  0
    5.9470    4.4718   -2.2491 C   0  0  2  0  0  0  0  0  0  0  0  0
    6.5055    4.1791   -0.9388 O   0  0  0  0  0  0  0  0  0  0  0  0
   10.3248    5.0823   -0.4163 C   0  0  0  0  0  0  0  0  0  0  0  0
    9.8412    3.7432   -0.4575 O   0  0  0  0  0  0  0  0  0  0  0  0
    9.1845    7.1425    5.9257 C   0  0  1  0  0  0  0  0  0  0  0  0
    9.0403    7.4981    4.5034 O   0  0  0  0  0  0  0  0  0  0  0  0
    0.4822    2.1450    0.4959 C   0  0  0  0  0  0  0  0  0  0  0  0
    0.7797    0.9420    1.1618 O   0  0  0  0  0  0  0  0  0  0  0  0
    6.9753    5.3022   -3.1259 C   0  0  1  0  0  0  0  0  0  0  0  0
    8.0775    4.4751   -3.5090 O   0  0  0  0  0  0  0  0  0  0  0  0
   10.3775    7.9656    6.5798 C   0  0  0  0  0  0  0  0  0  0  0  0
   10.2845    9.4457    6.4482 N   0  0  0  0  0  0  0  0  0  0  0  0
  1  2  1  1  0  0  0
  1  7  1  0  0  0  0
  1 30  1  0  0  0  0
  3  4  1  1  0  0  0
  3  9  1  0  0  0  0
  3 39  1  0  0  0  0
  5 10  1  0  0  0  0
  5 26  1  0  0  0  0
  5 32  1  6  0  0  0
  6 12  1  0  0  0  0
  6 36  1  0  0  0  0
  6 19  1  6  0  0  0
  7  8  1  6  0  0  0
  7 14  1  0  0  0  0
  9 16  1  0  0  0  0
 10 11  1  1  0  0  0
 10 18  1  0  0  0  0
 12 13  1  1  0  0  0
 12 20  1  0  0  0  0
 14 15  1  1  0  0  0
 14 22  1  0  0  0  0
 16 17  1  1  0  0  0
 16 24  1  0  0  0  0
 18 19  1  6  0  0  0
 18 25  1  0  0  0  0
 20 21  1  6  0  0  0
 20 27  1  0  0  0  0
 22 23  1  1  0  0  0
 22 29  1  0  0  0  0
 24  2  1  6  0  0  0
 24 31  1  0  0  0  0
 25 26  1  0  0  0  0
 25 33  1  6  0  0  0
 27 28  1  6  0  0  0
 27 35  1  0  0  0  0
 29 30  1  0  0  0  0
 29 37  1  1  0  0  0
 31 32  1  1  0  0  0
 31 39  1  0  0  0  0
 33 34  1  0  0  0  0
 35 36  1  0  0  0  0
 35 41  1  1  0  0  0
 37 38  1  0  0  0  0
 39 40  1  6  0  0  0
 41 42  1  0  0  0  0
M  END
>  <CHROM.1>
-80.53243134,179.19621403,-115.33662081,79.15176321,-69.82121639,55.91771212
-71.59476187,-62.45279112,-63.81075495,5.97329565,5.50868657,1.09222391,2.18027679
-0.40445092,-1.68530409

>  <Name>
2o3w_lig

>  <RI>
0

>  <Rbt.Current_Directory>
/home/itssahil/PROJECTS/Mol_Feturizer/New_Systems/rnas/2o3w

>  <Rbt.Executable>
rbdock ($Id: //depot/dev/client3/rdock/2013.1/src/exe/rbdock.cxx#4 $)

>  <Rbt.Library>
libRbt.so (2013.1, Build901 2013/11/27)

>  <Rbt.Parameter_File>
/export/apps/rDock/src/rDock_2013.1_src/data/scripts/dock_solv.prm

>  <Rbt.Receptor>
prm/pocket_docking_6.prm

>  <SCORE>
-12.8057

>  <SCORE.INTER>
-8.47261

>  <SCORE.INTER.CONST>
1

>  <SCORE.INTER.POLAR>
-1.76968

>  <SCORE.INTER.ROT>
9

>  <SCORE.INTER.SOLV>
15.8855

>  <SCORE.INTER.VDW>
-14.6446

>  <SCORE.INTER.norm>
-0.201729

>  <SCORE.INTRA>
-4.45142

>  <SCORE.INTRA.DIHEDRAL>
-16.1499

>  <SCORE.INTRA.DIHEDRAL.0>
27.8999

>  <SCORE.INTRA.POLAR>
0

>  <SCORE.INTRA.POLAR.0>
0

>  <SCORE.INTRA.REPUL>
0

>  <SCORE.INTRA.REPUL.0>
0

>  <SCORE.INTRA.SOLV>
4.39733

>  <SCORE.INTRA.SOLV.lig_0>
-104.479

>  <SCORE.INTRA.VDW>
1.42486

>  <SCORE.INTRA.VDW.0>
-6.17816

>  <SCORE.INTRA.norm>
-0.105986

>  <SCORE.RESTR>
0.118327

>  <SCORE.RESTR.CAVITY>
0.118327

>  <SCORE.RESTR.norm>
0.00281732

>  <SCORE.SYSTEM>
0

>  <SCORE.SYSTEM.CONST>
0

>  <SCORE.SYSTEM.DIHEDRAL>
0

>  <SCORE.SYSTEM.SOLV>
0

>  <SCORE.SYSTEM.norm>
0

>  <SCORE.heavy>
42

>  <SCORE.norm>
-0.304898

>  <RMSD>
8.198

$$$$
2o3w_lig
 OpenBabel11021811463D
libRbt.so/2013.1/901 2013/11/27
 42 45  0  0  0  0  0  0  0  0999 V2000
    5.8815    3.8926    0.2265 C   0  0  2  0  0  0  0  0  0  0  0  0
    5.1156    4.4521    1.3071 O   0  0  0  0  0  0  0  0  0  0  0  0
    4.8112    8.5019   -0.2101 C   0  0  2  0  0  0  0  0  0  0  0  0
    4.4317    9.9357   -0.3850 N   0  0  0  0  0  0  0  0  0  0  0  0
    7.5144    6.8136    3.3722 C   0  0  1  0  0  0  0  0  0  0  0  0
   10.9474    7.7616    5.9132 C   0  0  1  0  0  0  0  0  0  0  0  0
    6.1325    2.3946    0.5745 C   0  0  2  0  0  0  0  0  0  0  0  0
    4.8973    1.6912    0.9620 N   0  0  0  0  0  0  0  0  0  0  0  0
    3.5617    7.5504   -0.3983 C   0  0  0  0  0  0  0  0  0  0  0  0
    7.5693    8.1186    4.2234 C   0  0  2  0  0  0  0  0  0  0  0  0
    7.9139    9.3034    3.4640 O   0  0  0  0  0  0  0  0  0  0  0  0
   12.4228    7.9079    5.3928 C   0  0  2  0  0  0  0  0  0  0  0  0
   12.6497    7.0571    4.1864 N   0  0  0  0  0  0  0  0  0  0  0  0
    7.1255    2.2236    1.7388 C   0  0  1  0  0  0  0  0  0  0  0  0
    7.3557    0.8375    1.9966 O   0  0  0  0  0  0  0  0  0  0  0  0
    4.0281    6.0555   -0.2249 C   0  0  2  0  0  0  0  0  0  0  0  0
    2.8780    5.1299   -0.4102 N   0  0  0  0  0  0  0  0  0  0  0  0
    8.5632    7.7195    5.3152 C   0  0  2  0  0  0  0  0  0  0  0  0
    9.9388    8.0413    4.9344 O   0  0  0  0  0  0  0  0  0  0  0  0
   13.4391    7.5209    6.5694 C   0  0  1  0  0  0  0  0  0  0  0  0
   13.4503    8.5860    7.5462 O   0  0  0  0  0  0  0  0  0  0  0  0
    8.4421    2.9621    1.4062 C   0  0  2  0  0  0  0  0  0  0  0  0
    9.3683    2.8011    2.4553 O   0  0  0  0  0  0  0  0  0  0  0  0
    4.6632    5.8323    1.2043 C   0  0  2  0  0  0  0  0  0  0  0  0
    8.3817    6.2063    5.5220 C   0  0  2  0  0  0  0  0  0  0  0  0
    7.9900    5.7504    4.2292 O   0  0  0  0  0  0  0  0  0  0  0  0
   13.0622    6.1390    7.2875 C   0  0  2  0  0  0  0  0  0  0  0  0
   13.3073    5.0875    6.3543 O   0  0  0  0  0  0  0  0  0  0  0  0
    8.1317    4.4778    1.1702 C   0  0  2  0  0  0  0  0  0  0  0  0
    7.1618    4.6180    0.0841 O   0  0  0  0  0  0  0  0  0  0  0  0
    5.8583    6.7704    1.4817 C   0  0  2  0  0  0  0  0  0  0  0  0
    6.1913    6.5611    2.8816 O   0  0  0  0  0  0  0  0  0  0  0  0
    7.3254    5.8114    6.6002 C   0  0  0  0  0  0  0  0  0  0  0  0
    6.3143    6.8131    6.6573 O   0  0  0  0  0  0  0  0  0  0  0  0
   11.5494    6.1358    7.7275 C   0  0  1  0  0  0  0  0  0  0  0  0
   10.7667    6.3789    6.5034 O   0  0  0  0  0  0  0  0  0  0  0  0
    9.3676    5.2786    0.8312 C   0  0  0  0  0  0  0  0  0  0  0  0
    9.9461    4.7976   -0.3576 O   0  0  0  0  0  0  0  0  0  0  0  0
    5.4438    8.2791    1.2219 C   0  0  1  0  0  0  0  0  0  0  0  0
    6.5875    9.1309    1.3313 O   0  0  0  0  0  0  0  0  0  0  0  0
   11.0795    4.7841    8.4210 C   0  0  0  0  0  0  0  0  0  0  0  0
   11.7682    4.4434    9.6962 N   0  0  0  0  0  0  0  0  0  0  0  0
  1  2  1  1  0  0  0
  1  7  1  0  0  0  0
  1 30  1  0  0  0  0
  3  4  1  1  0  0  0
  3  9  1  0  0  0  0
  3 39  1  0  0  0  0
  5 10  1  0  0  0  0
  5 26  1  0  0  0  0
  5 32  1  1  0  0  0
  6 12  1  0  0  0  0
  6 36  1  0  0  0  0
  6 19  1  6  0  0  0
  7  8  1  1  0  0  0
  7 14  1  0  0  0  0
  9 16  1  0  0  0  0
 10 11  1  6  0  0  0
 10 18  1  0  0  0  0
 12 13  1  6  0  0  0
 12 20  1  0  0  0  0
 14 15  1  6  0  0  0
 14 22  1  0  0  0  0
 16 17  1  1  0  0  0
 16 24  1  0  0  0  0
 18 19  1  6  0  0  0
 18 25  1  0  0  0  0
 20 21  1  1  0  0  0
 20 27  1  0  0  0  0
 22 23  1  1  0  0  0
 22 29  1  0  0  0  0
 24  2  1  6  0  0  0
 24 31  1  0  0  0  0
 25 26  1  0  0  0  0
 25 33  1  1  0  0  0
 27 28  1  6  0  0  0
 27 35  1  0  0  0  0
 29 30  1  0  0  0  0
 29 37  1  6  0  0  0
 31 32  1  1  0  0  0
 31 39  1  0  0  0  0
 33 34  1  0  0  0  0
 35 36  1  0  0  0  0
 35 41  1  6  0  0  0
 37 38  1  0  0  0  0
 39 40  1  6  0  0  0
 41 42  1  0  0  0  0
M  END
>  <CHROM.1>
-176.18630741,106.33023359,170.93652380,177.35302094,46.97108329,29.87927720
61.16761650,154.66035001,62.52709627,8.20003377,5.96044676,3.32007425,-2.85663308
-0.74326091,0.24772590

>  <Name>
2o3w_lig

>  <RI>
0

>  <Rbt.Current_Directory>
/home/itssahil/PROJECTS/Mol_Feturizer/New_Systems/rnas/2o3w

>  <Rbt.Executable>
rbdock ($Id: //depot/dev/client3/rdock/2013.1/src/exe/rbdock.cxx#4 $)

>  <Rbt.Library>
libRbt.so (2013.1, Build901 2013/11/27)

>  <Rbt.Parameter_File>
/export/apps/rDock/src/rDock_2013.1_src/data/scripts/dock_solv.prm

>  <Rbt.Receptor>
prm/pocket_docking_6.prm

>  <SCORE>
-16.2969

>  <SCORE.INTER>
-10.0512

>  <SCORE.INTER.CONST>
1

>  <SCORE.INTER.POLAR>
-2.10839

>  <SCORE.INTER.ROT>
9

>  <SCORE.INTER.SOLV>
12.6264

>  <SCORE.INTER.VDW>
-13.4816

>  <SCORE.INTER.norm>
-0.239314

>  <SCORE.INTRA>
-6.2954

>  <SCORE.INTRA.DIHEDRAL>
-14.7372

>  <SCORE.INTRA.DIHEDRAL.0>
27.8999

>  <SCORE.INTRA.POLAR>
0

>  <SCORE.INTRA.POLAR.0>
0

>  <SCORE.INTRA.REPUL>
0

>  <SCORE.INTRA.REPUL.0>
0

>  <SCORE.INTRA.SOLV>
-3.36493

>  <SCORE.INTRA.SOLV.lig_0>
-104.479

>  <SCORE.INTRA.VDW>
2.75567

>  <SCORE.INTRA.VDW.0>
-6.17816

>  <SCORE.INTRA.norm>
-0.149891

>  <SCORE.RESTR>
0.0496867

>  <SCORE.RESTR.CAVITY>
0.0496867

>  <SCORE.RESTR.norm>
0.00118302

>  <SCORE.SYSTEM>
0

>  <SCORE.SYSTEM.CONST>
0

>  <SCORE.SYSTEM.DIHEDRAL>
0

>  <SCORE.SYSTEM.SOLV>
0

>  <SCORE.SYSTEM.norm>
0

>  <SCORE.heavy>
42

>  <SCORE.norm>
-0.388021

>  <RMSD>
8.230

$$$$
2o3w_lig
 OpenBabel11021811463D
libRbt.so/2013.1/901 2013/11/27
 42 45  0  0  0  0  0  0  0  0999 V2000
    4.3990    5.0355    2.6895 C   0  0  2  0  0  0  0  0  0  0  0  0
    5.6621    4.5994    2.1588 O   0  0  0  0  0  0  0  0  0  0  0  0
    5.6331    0.5373    3.6737 C   0  0  2  0  0  0  0  0  0  0  0  0
    5.9534   -0.9037    3.9004 N   0  0  0  0  0  0  0  0  0  0  0  0
    8.6596    3.9149    4.8645 C   0  0  1  0  0  0  0  0  0  0  0  0
   11.5483    5.5230    7.8321 C   0  0  1  0  0  0  0  0  0  0  0  0
    4.3807    6.5911    2.6003 C   0  0  2  0  0  0  0  0  0  0  0  0
    4.7583    7.0837    1.2641 N   0  0  0  0  0  0  0  0  0  0  0  0
    5.0850    0.7800    2.2100 C   0  0  0  0  0  0  0  0  0  0  0  0
   10.1477    4.2607    4.5535 C   0  0  2  0  0  0  0  0  0  0  0  0
   11.0253    3.1084    4.5170 O   0  0  0  0  0  0  0  0  0  0  0  0
   12.1428    4.7945    9.0909 C   0  0  2  0  0  0  0  0  0  0  0  0
   11.1122    3.9341    9.7455 N   0  0  0  0  0  0  0  0  0  0  0  0
    5.3469    7.2454    3.6049 C   0  0  1  0  0  0  0  0  0  0  0  0
    5.2682    8.6690    3.5159 O   0  0  0  0  0  0  0  0  0  0  0  0
    4.7450    2.3090    2.0394 C   0  0  2  0  0  0  0  0  0  0  0  0
    4.2119    2.5715    0.6754 N   0  0  0  0  0  0  0  0  0  0  0  0
   10.4486    5.2879    5.6460 C   0  0  2  0  0  0  0  0  0  0  0  0
   10.9651    4.6497    6.8570 O   0  0  0  0  0  0  0  0  0  0  0  0
   12.7140    5.8875   10.1136 C   0  0  1  0  0  0  0  0  0  0  0  0
   13.9430    6.4294    9.5799 O   0  0  0  0  0  0  0  0  0  0  0  0
    5.0199    6.7502    5.0322 C   0  0  2  0  0  0  0  0  0  0  0  0
    5.8851    7.3530    5.9662 O   0  0  0  0  0  0  0  0  0  0  0  0
    6.0288    3.1960    2.2865 C   0  0  2  0  0  0  0  0  0  0  0  0
    9.1218    6.0151    5.9219 C   0  0  2  0  0  0  0  0  0  0  0  0
    8.1443    5.0133    5.6514 O   0  0  0  0  0  0  0  0  0  0  0  0
   11.6795    7.0789   10.3926 C   0  0  2  0  0  0  0  0  0  0  0  0
   10.5931    6.5391   11.1441 O   0  0  0  0  0  0  0  0  0  0  0  0
    5.1578    5.1918    5.0761 C   0  0  2  0  0  0  0  0  0  0  0  0
    4.2578    4.5904    4.0922 O   0  0  0  0  0  0  0  0  0  0  0  0
    6.6541    2.9693    3.6803 C   0  0  2  0  0  0  0  0  0  0  0  0
    7.9051    3.7104    3.6629 O   0  0  0  0  0  0  0  0  0  0  0  0
    8.8760    7.2880    5.0537 C   0  0  0  0  0  0  0  0  0  0  0  0
    9.9641    8.1912    5.2245 O   0  0  0  0  0  0  0  0  0  0  0  0
   11.1554    7.6886    9.0377 C   0  0  1  0  0  0  0  0  0  0  0  0
   10.5549    6.5699    8.2907 O   0  0  0  0  0  0  0  0  0  0  0  0
    4.8482    4.6188    6.4397 C   0  0  0  0  0  0  0  0  0  0  0  0
    5.0605    3.2280    6.4408 O   0  0  0  0  0  0  0  0  0  0  0  0
    6.9196    1.4238    3.9182 C   0  0  1  0  0  0  0  0  0  0  0  0
    7.3558    1.1990    5.2616 O   0  0  0  0  0  0  0  0  0  0  0  0
   10.0947    8.8589    9.2215 C   0  0  0  0  0  0  0  0  0  0  0  0
    9.6620    9.5363    7.9683 N   0  0  0  0  0  0  0  0  0  0  0  0
  1  2  1  1  0  0  0
  1  7  1  0  0  0  0
  1 30  1  0  0  0  0
  3  4  1  6  0  0  0
  3  9  1  0  0  0  0
  3 39  1  0  0  0  0
  5 10  1  0  0  0  0
  5 26  1  0  0  0  0
  5 32  1  6  0  0  0
  6 12  1  0  0  0  0
  6 36  1  0  0  0  0
  6 19  1  6  0  0  0
  7  8  1  6  0  0  0
  7 14  1  0  0  0  0
  9 16  1  0  0  0  0
 10 11  1  1  0  0  0
 10 18  1  0  0  0  0
 12 13  1  1  0  0  0
 12 20  1  0  0  0  0
 14 15  1  1  0  0  0
 14 22  1  0  0  0  0
 16 17  1  6  0  0  0
 16 24  1  0  0  0  0
 18 19  1  1  0  0  0
 18 25  1  0  0  0  0
 20 21  1  6  0  0  0
 20 27  1  0  0  0  0
 22 23  1  1  0  0  0
 22 29  1  0  0  0  0
 24  2  1  1  0  0  0
 24 31  1  0  0  0  0
 25 26  1  0  0  0  0
 25 33  1  6  0  0  0
 27 28  1  6  0  0  0
 27 35  1  0  0  0  0
 29 30  1  0  0  0  0
 29 37  1  1  0  0  0
 31 32  1  6  0  0  0
 31 39  1  0  0  0  0
 33 34  1  0  0  0  0
 35 36  1  0  0  0  0
 35 41  1  1  0  0  0
 37 38  1  0  0  0  0
 39 40  1  1  0  0  0
 41 42  1  0  0  0  0
M  END
>  <CHROM.1>
171.69052461,159.65936528,-177.65490166,166.99768658,39.39777596,-56.12894258
-176.70351205,169.61368499,175.10608506,7.94710393,5.00236633,5.51950755
2.65999048,0.69763974,-2.93441216

>  <Name>
2o3w_lig

>  <RI>
0

>  <Rbt.Current_Directory>
/home/itssahil/PROJECTS/Mol_Feturizer/New_Systems/rnas/2o3w

>  <Rbt.Executable>
rbdock ($Id: //depot/dev/client3/rdock/2013.1/src/exe/rbdock.cxx#4 $)

>  <Rbt.Library>
libRbt.so (2013.1, Build901 2013/11/27)

>  <Rbt.Parameter_File>
/export/apps/rDock/src/rDock_2013.1_src/data/scripts/dock_solv.prm

>  <Rbt.Receptor>
prm/pocket_docking_7.prm

>  <SCORE>
-21.0931

>  <SCORE.INTER>
-9.31582

>  <SCORE.INTER.CONST>
1

>  <SCORE.INTER.POLAR>
-2.12184

>  <SCORE.INTER.ROT>
9

>  <SCORE.INTER.SOLV>
10.5723

>  <SCORE.INTER.VDW>
-12.2618

>  <SCORE.INTER.norm>
-0.221805

>  <SCORE.INTRA>
-11.7772

>  <SCORE.INTRA.DIHEDRAL>
-22.1584

>  <SCORE.INTRA.DIHEDRAL.0>
27.8999

>  <SCORE.INTRA.POLAR>
0

>  <SCORE.INTRA.POLAR.0>
0

>  <SCORE.INTRA.REPUL>
0

>  <SCORE.INTRA.REPUL.0>
0

>  <SCORE.INTRA.SOLV>
-1.43204

>  <SCORE.INTRA.SOLV.lig_0>
-104.479

>  <SCORE.INTRA.VDW>
0.0179734

>  <SCORE.INTRA.VDW.0>
-6.17816

>  <SCORE.INTRA.norm>
-0.280411

>  <SCORE.RESTR>
0

>  <SCORE.RESTR.CAVITY>
0

>  <SCORE.RESTR.norm>
0

>  <SCORE.SYSTEM>
0

>  <SCORE.SYSTEM.CONST>
0

>  <SCORE.SYSTEM.DIHEDRAL>
0

>  <SCORE.SYSTEM.SOLV>
0

>  <SCORE.SYSTEM.norm>
0

>  <SCORE.heavy>
42

>  <SCORE.norm>
-0.502216

>  <RMSD>
8.239

$$$$
2o3w_lig
 OpenBabel11021811463D
libRbt.so/2013.1/901 2013/11/27
 42 45  0  0  0  0  0  0  0  0999 V2000
    6.3862    6.1721    2.3258 C   0  0  2  0  0  0  0  0  0  0  0  0
    6.9199    6.6203    3.5834 O   0  0  0  0  0  0  0  0  0  0  0  0
    9.9813    4.9519    6.1603 C   0  0  2  0  0  0  0  0  0  0  0  0
   10.7636    4.0257    7.0325 N   0  0  0  0  0  0  0  0  0  0  0  0
    7.7632    3.2638    2.6834 C   0  0  1  0  0  0  0  0  0  0  0  0
    6.3367   -0.8324    2.2347 C   0  0  1  0  0  0  0  0  0  0  0  0
    5.9243    7.4417    1.5492 C   0  0  2  0  0  0  0  0  0  0  0  0
    6.9622    8.4865    1.5086 N   0  0  0  0  0  0  0  0  0  0  0  0
    8.5884    5.3172    6.8147 C   0  0  0  0  0  0  0  0  0  0  0  0
    7.4316    2.6728    1.2793 C   0  0  2  0  0  0  0  0  0  0  0  0
    6.1496    3.0929    0.7509 O   0  0  0  0  0  0  0  0  0  0  0  0
    6.5878   -1.7285    0.9687 C   0  0  2  0  0  0  0  0  0  0  0  0
    5.5857   -1.4356   -0.0994 N   0  0  0  0  0  0  0  0  0  0  0  0
    4.6710    8.0838    2.1719 C   0  0  1  0  0  0  0  0  0  0  0  0
    4.2608    9.2182    1.4065 O   0  0  0  0  0  0  0  0  0  0  0  0
    7.8219    6.3108    5.8619 C   0  0  2  0  0  0  0  0  0  0  0  0
    6.5104    6.6878    6.4545 N   0  0  0  0  0  0  0  0  0  0  0  0
    7.5791    1.1739    1.5455 C   0  0  2  0  0  0  0  0  0  0  0  0
    6.3140    0.5765    1.9738 O   0  0  0  0  0  0  0  0  0  0  0  0
    6.5396   -3.2720    1.3955 C   0  0  1  0  0  0  0  0  0  0  0  0
    7.7444   -3.5925    2.1267 O   0  0  0  0  0  0  0  0  0  0  0  0
    3.5445    7.0297    2.2667 C   0  0  2  0  0  0  0  0  0  0  0  0
    2.3842    7.6064    2.8195 O   0  0  0  0  0  0  0  0  0  0  0  0
    7.5937    5.6565    4.4422 C   0  0  2  0  0  0  0  0  0  0  0  0
    8.6557    1.0403    2.6356 C   0  0  2  0  0  0  0  0  0  0  0  0
    8.4981    2.2390    3.3912 O   0  0  0  0  0  0  0  0  0  0  0  0
    5.2588   -3.6305    2.2893 C   0  0  2  0  0  0  0  0  0  0  0  0
    4.1085   -3.5404    1.4496 O   0  0  0  0  0  0  0  0  0  0  0  0
    4.0387    5.8318    3.1443 C   0  0  2  0  0  0  0  0  0  0  0  0
    5.2482    5.2568    2.5557 O   0  0  0  0  0  0  0  0  0  0  0  0
    8.9114    5.2211    3.7645 C   0  0  2  0  0  0  0  0  0  0  0  0
    8.5057    4.4855    2.5776 O   0  0  0  0  0  0  0  0  0  0  0  0
   10.1160    0.8995    2.1046 C   0  0  0  0  0  0  0  0  0  0  0  0
   11.0135    0.8319    3.2086 O   0  0  0  0  0  0  0  0  0  0  0  0
    5.1292   -2.6316    3.5007 C   0  0  1  0  0  0  0  0  0  0  0  0
    5.0599   -1.2825    2.9130 O   0  0  0  0  0  0  0  0  0  0  0  0
    2.9973    4.7459    3.2856 C   0  0  0  0  0  0  0  0  0  0  0  0
    2.6377    4.2511    2.0187 O   0  0  0  0  0  0  0  0  0  0  0  0
    9.7507    4.2946    4.7407 C   0  0  1  0  0  0  0  0  0  0  0  0
   11.0344    4.0164    4.1747 O   0  0  0  0  0  0  0  0  0  0  0  0
    3.8617   -2.8946    4.4242 C   0  0  0  0  0  0  0  0  0  0  0  0
    2.5427   -2.8364    3.7363 N   0  0  0  0  0  0  0  0  0  0  0  0
  1  2  1  1  0  0  0
  1  7  1  0  0  0  0
  1 30  1  0  0  0  0
  3  4  1  1  0  0  0
  3  9  1  0  0  0  0
  3 39  1  0  0  0  0
  5 10  1  0  0  0  0
  5 26  1  0  0  0  0
  5 32  1  6  0  0  0
  6 12  1  0  0  0  0
  6 36  1  0  0  0  0
  6 19  1  6  0  0  0
  7  8  1  1  0  0  0
  7 14  1  0  0  0  0
  9 16  1  0  0  0  0
 10 11  1  1  0  0  0
 10 18  1  0  0  0  0
 12 13  1  6  0  0  0
 12 20  1  0  0  0  0
 14 15  1  6  0  0  0
 14 22  1  0  0  0  0
 16 17  1  1  0  0  0
 16 24  1  0  0  0  0
 18 19  1  1  0  0  0
 18 25  1  0  0  0  0
 20 21  1  1  0  0  0
 20 27  1  0  0  0  0
 22 23  1  1  0  0  0
 22 29  1  0  0  0  0
 24  2  1  6  0  0  0
 24 31  1  0  0  0  0
 25 26  1  0  0  0  0
 25 33  1  6  0  0  0
 27 28  1  6  0  0  0
 27 35  1  0  0  0  0
 29 30  1  0  0  0  0
 29 37  1  6  0  0  0
 31 32  1  6  0  0  0
 31 39  1  0  0  0  0
 33 34  1  0  0  0  0
 35 36  1  0  0  0  0
 35 41  1  6  0  0  0
 37 38  1  0  0  0  0
 39 40  1  6  0  0  0
 41 42  1  0  0  0  0
M  END
>  <CHROM.1>
-171.79968697,179.30272186,-66.53643943,179.25540670,-168.65002770,177.98049591
58.77769050,-63.45841719,-58.27456278,6.59612613,2.84762801,2.96059045,1.52070352
-0.36039183,0.10951526

>  <Name>
2o3w_lig

>  <RI>
0

>  <Rbt.Current_Directory>
/home/itssahil/PROJECTS/Mol_Feturizer/New_Systems/rnas/2o3w

>  <Rbt.Executable>
rbdock ($Id: //depot/dev/client3/rdock/2013.1/src/exe/rbdock.cxx#4 $)

>  <Rbt.Library>
libRbt.so (2013.1, Build901 2013/11/27)

>  <Rbt.Parameter_File>
/export/apps/rDock/src/rDock_2013.1_src/data/scripts/dock_solv.prm

>  <Rbt.Receptor>
prm/pocket_docking_4.prm

>  <SCORE>
-14.9872

>  <SCORE.INTER>
-2.8664

>  <SCORE.INTER.CONST>
1

>  <SCORE.INTER.POLAR>
-0.919125

>  <SCORE.INTER.ROT>
9

>  <SCORE.INTER.SOLV>
10.0816

>  <SCORE.INTER.VDW>
-11.8077

>  <SCORE.INTER.norm>
-0.0682477

>  <SCORE.INTRA>
-12.5613

>  <SCORE.INTRA.DIHEDRAL>
-26.5093

>  <SCORE.INTRA.DIHEDRAL.0>
27.8999

>  <SCORE.INTRA.POLAR>
0

>  <SCORE.INTRA.POLAR.0>
0

>  <SCORE.INTRA.REPUL>
0

>  <SCORE.INTRA.REPUL.0>
0

>  <SCORE.INTRA.SOLV>
-2.94692

>  <SCORE.INTRA.SOLV.lig_0>
-104.479

>  <SCORE.INTRA.VDW>
2.1668

>  <SCORE.INTRA.VDW.0>
-6.17816

>  <SCORE.INTRA.norm>
-0.299079

>  <SCORE.RESTR>
0.440528

>  <SCORE.RESTR.CAVITY>
0.440528

>  <SCORE.RESTR.norm>
0.0104888

>  <SCORE.SYSTEM>
0

>  <SCORE.SYSTEM.CONST>
0

>  <SCORE.SYSTEM.DIHEDRAL>
0

>  <SCORE.SYSTEM.SOLV>
0

>  <SCORE.SYSTEM.norm>
0

>  <SCORE.heavy>
42

>  <SCORE.norm>
-0.356838

>  <RMSD>
8.262

$$$$
2o3w_lig
 OpenBabel11021811463D
libRbt.so/2013.1/901 2013/11/27
 42 45  0  0  0  0  0  0  0  0999 V2000
    3.9372    5.2400   -0.1857 C   0  0  2  0  0  0  0  0  0  0  0  0
    4.0598    6.5943    0.2812 O   0  0  0  0  0  0  0  0  0  0  0  0
    7.8181    7.5804   -1.6420 C   0  0  2  0  0  0  0  0  0  0  0  0
    8.9943    8.3294   -2.1769 N   0  0  0  0  0  0  0  0  0  0  0  0
    7.1472    7.2620    2.9515 C   0  0  1  0  0  0  0  0  0  0  0  0
    9.0559    6.4652    6.7692 C   0  0  1  0  0  0  0  0  0  0  0  0
    2.6657    4.6403    0.4864 C   0  0  2  0  0  0  0  0  0  0  0  0
    1.4875    5.5133    0.3435 N   0  0  0  0  0  0  0  0  0  0  0  0
    6.4831    8.0102   -2.3733 C   0  0  0  0  0  0  0  0  0  0  0  0
    6.9601    8.2402    4.1511 C   0  0  2  0  0  0  0  0  0  0  0  0
    7.7782    9.4333    4.0717 O   0  0  0  0  0  0  0  0  0  0  0  0
    9.7366    7.1987    7.9807 C   0  0  2  0  0  0  0  0  0  0  0  0
   10.9180    7.9926    7.5280 N   0  0  0  0  0  0  0  0  0  0  0  0
    2.8604    4.3995    1.9947 C   0  0  1  0  0  0  0  0  0  0  0  0
    1.6866    3.8137    2.5605 O   0  0  0  0  0  0  0  0  0  0  0  0
    5.2859    7.1726   -1.7836 C   0  0  2  0  0  0  0  0  0  0  0  0
    4.0133    7.5417   -2.4603 N   0  0  0  0  0  0  0  0  0  0  0  0
    7.2494    7.3165    5.3354 C   0  0  2  0  0  0  0  0  0  0  0  0
    8.6686    7.3264    5.6913 O   0  0  0  0  0  0  0  0  0  0  0  0
   10.1590    6.1166    9.0842 C   0  0  1  0  0  0  0  0  0  0  0  0
    8.9695    5.6484    9.7586 O   0  0  0  0  0  0  0  0  0  0  0  0
    4.1013    3.5054    2.2182 C   0  0  2  0  0  0  0  0  0  0  0  0
    4.2836    3.2616    3.5936 O   0  0  0  0  0  0  0  0  0  0  0  0
    5.1490    7.4154   -0.2285 C   0  0  2  0  0  0  0  0  0  0  0  0
    6.7938    5.9134    4.9006 C   0  0  2  0  0  0  0  0  0  0  0  0
    7.0110    5.9275    3.4916 O   0  0  0  0  0  0  0  0  0  0  0  0
   10.9484    4.8689    8.4616 C   0  0  2  0  0  0  0  0  0  0  0  0
   12.2259    5.3380    8.0322 O   0  0  0  0  0  0  0  0  0  0  0  0
    5.3574    4.2144    1.6108 C   0  0  2  0  0  0  0  0  0  0  0  0
    5.1401    4.4650    0.1861 O   0  0  0  0  0  0  0  0  0  0  0  0
    6.4388    7.0695    0.5474 C   0  0  2  0  0  0  0  0  0  0  0  0
    6.1989    7.5220    1.9083 O   0  0  0  0  0  0  0  0  0  0  0  0
    5.3093    5.5701    5.2362 C   0  0  0  0  0  0  0  0  0  0  0  0
    5.0313    5.9487    6.5809 O   0  0  0  0  0  0  0  0  0  0  0  0
   10.1541    4.2595    7.2451 C   0  0  1  0  0  0  0  0  0  0  0  0
    9.9705    5.3605    6.2836 O   0  0  0  0  0  0  0  0  0  0  0  0
    6.6213    3.4033    1.7796 C   0  0  0  0  0  0  0  0  0  0  0  0
    6.5180    2.1917    1.0721 O   0  0  0  0  0  0  0  0  0  0  0  0
    7.6803    7.8266   -0.0861 C   0  0  1  0  0  0  0  0  0  0  0  0
    8.8931    7.3906    0.5341 O   0  0  0  0  0  0  0  0  0  0  0  0
   10.8844    3.0334    6.5438 C   0  0  0  0  0  0  0  0  0  0  0  0
   10.1582    2.4248    5.3954 N   0  0  0  0  0  0  0  0  0  0  0  0
  1  2  1  1  0  0  0
  1  7  1  0  0  0  0
  1 30  1  0  0  0  0
  3  4  1  6  0  0  0
  3  9  1  0  0  0  0
  3 39  1  0  0  0  0
  5 10  1  0  0  0  0
  5 26  1  0  0  0  0
  5 32  1  6  0  0  0
  6 12  1  0  0  0  0
  6 36  1  0  0  0  0
  6 19  1  6  0  0  0
  7  8  1  1  0  0  0
  7 14  1  0  0  0  0
  9 16  1  0  0  0  0
 10 11  1  6  0  0  0
 10 18  1  0  0  0  0
 12 13  1  6  0  0  0
 12 20  1  0  0  0  0
 14 15  1  6  0  0  0
 14 22  1  0  0  0  0
 16 17  1  6  0  0  0
 16 24  1  0  0  0  0
 18 19  1  6  0  0  0
 18 25  1  0  0  0  0
 20 21  1  6  0  0  0
 20 27  1  0  0  0  0
 22 23  1  1  0  0  0
 22 29  1  0  0  0  0
 24  2  1  1  0  0  0
 24 31  1  0  0  0  0
 25 26  1  0  0  0  0
 25 33  1  6  0  0  0
 27 28  1  6  0  0  0
 27 35  1  0  0  0  0
 29 30  1  0  0  0  0
 29 37  1  6  0  0  0
 31 32  1  1  0  0  0
 31 39  1  0  0  0  0
 33 34  1  0  0  0  0
 35 36  1  0  0  0  0
 35 41  1  6  0  0  0
 37 38  1  0  0  0  0
 39 40  1  1  0  0  0
 41 42  1  0  0  0  0
M  END
>  <CHROM.1>
-177.92625376,159.37088778,-121.57360066,-178.40819009,42.44340091,-46.33452795
63.50296959,174.66019569,179.56975704,6.92566433,5.90649922,3.21536775,2.28732995
-0.56455719,-1.08486101

>  <Name>
2o3w_lig

>  <RI>
0

>  <Rbt.Current_Directory>
/home/itssahil/PROJECTS/Mol_Feturizer/New_Systems/rnas/2o3w

>  <Rbt.Executable>
rbdock ($Id: //depot/dev/client3/rdock/2013.1/src/exe/rbdock.cxx#4 $)

>  <Rbt.Library>
libRbt.so (2013.1, Build901 2013/11/27)

>  <Rbt.Parameter_File>
/export/apps/rDock/src/rDock_2013.1_src/data/scripts/dock_solv.prm

>  <Rbt.Receptor>
prm/pocket_docking_5.prm

>  <SCORE>
-18.5046

>  <SCORE.INTER>
-9.25297

>  <SCORE.INTER.CONST>
1

>  <SCORE.INTER.POLAR>
-3.16299

>  <SCORE.INTER.ROT>
9

>  <SCORE.INTER.SOLV>
13.8088

>  <SCORE.INTER.VDW>
-9.82826

>  <SCORE.INTER.norm>
-0.220309

>  <SCORE.INTRA>
-9.27137

>  <SCORE.INTRA.DIHEDRAL>
-16.5245

>  <SCORE.INTRA.DIHEDRAL.0>
27.8999

>  <SCORE.INTRA.POLAR>
0

>  <SCORE.INTRA.POLAR.0>
0

>  <SCORE.INTRA.REPUL>
0

>  <SCORE.INTRA.REPUL.0>
0

>  <SCORE.INTRA.SOLV>
-4.60632

>  <SCORE.INTRA.SOLV.lig_0>
-104.479

>  <SCORE.INTRA.VDW>
1.29403

>  <SCORE.INTRA.VDW.0>
-6.17816

>  <SCORE.INTRA.norm>
-0.220747

>  <SCORE.RESTR>
0.0197067

>  <SCORE.RESTR.CAVITY>
0.0197067

>  <SCORE.RESTR.norm>
0.000469207

>  <SCORE.SYSTEM>
0

>  <SCORE.SYSTEM.CONST>
0

>  <SCORE.SYSTEM.DIHEDRAL>
0

>  <SCORE.SYSTEM.SOLV>
0

>  <SCORE.SYSTEM.norm>
0

>  <SCORE.heavy>
42

>  <SCORE.norm>
-0.440587

>  <RMSD>
8.267

$$$$
2o3w_lig
 OpenBabel11021811463D
libRbt.so/2013.1/901 2013/11/27
 42 45  0  0  0  0  0  0  0  0999 V2000
    7.9631    6.4943    0.6383 C   0  0  2  0  0  0  0  0  0  0  0  0
    8.9020    7.1164    1.5320 O   0  0  0  0  0  0  0  0  0  0  0  0
   10.8635    6.1886    5.2853 C   0  0  2  0  0  0  0  0  0  0  0  0
   11.1709    5.6259    6.6341 N   0  0  0  0  0  0  0  0  0  0  0  0
    8.7838    3.5629    2.3908 C   0  0  1  0  0  0  0  0  0  0  0  0
    5.5767    0.7712    1.6127 C   0  0  1  0  0  0  0  0  0  0  0  0
    8.4085    6.8526   -0.8113 C   0  0  2  0  0  0  0  0  0  0  0  0
    9.8392    6.5878   -1.0432 N   0  0  0  0  0  0  0  0  0  0  0  0
    9.5945    7.1316    5.3324 C   0  0  0  0  0  0  0  0  0  0  0  0
    8.1794    2.7551    1.2021 C   0  0  2  0  0  0  0  0  0  0  0  0
    7.0150    3.3732    0.6012 O   0  0  0  0  0  0  0  0  0  0  0  0
    5.5597   -0.7971    1.5187 C   0  0  2  0  0  0  0  0  0  0  0  0
    6.8865   -1.3192    1.0736 N   0  0  0  0  0  0  0  0  0  0  0  0
    8.1712    8.3369   -1.1454 C   0  0  1  0  0  0  0  0  0  0  0  0
    8.5560    8.6109   -2.4937 O   0  0  0  0  0  0  0  0  0  0  0  0
    9.3351    7.7103    3.8901 C   0  0  2  0  0  0  0  0  0  0  0  0
    8.1542    8.6154    3.9004 N   0  0  0  0  0  0  0  0  0  0  0  0
    7.9422    1.3939    1.8581 C   0  0  2  0  0  0  0  0  0  0  0  0
    6.6075    1.3078    2.4513 O   0  0  0  0  0  0  0  0  0  0  0  0
    4.3959   -1.2542    0.5170 C   0  0  1  0  0  0  0  0  0  0  0  0
    3.1190   -1.0650    1.1670 O   0  0  0  0  0  0  0  0  0  0  0  0
    6.6865    8.6897   -0.8994 C   0  0  2  0  0  0  0  0  0  0  0  0
    6.4490   10.0415   -1.2168 O   0  0  0  0  0  0  0  0  0  0  0  0
    9.0973    6.5406    2.8551 C   0  0  2  0  0  0  0  0  0  0  0  0
    9.0378    1.2411    2.9267 C   0  0  2  0  0  0  0  0  0  0  0  0
    9.2773    2.5856    3.3355 O   0  0  0  0  0  0  0  0  0  0  0  0
    4.4163   -0.4496   -0.8686 C   0  0  2  0  0  0  0  0  0  0  0  0
    5.5775   -0.8612   -1.5888 O   0  0  0  0  0  0  0  0  0  0  0  0
    6.3352    8.4034    0.5987 C   0  0  2  0  0  0  0  0  0  0  0  0
    6.5990    6.9977    0.9058 O   0  0  0  0  0  0  0  0  0  0  0  0
   10.2762    5.5446    2.7959 C   0  0  2  0  0  0  0  0  0  0  0  0
    9.8144    4.4561    1.9494 O   0  0  0  0  0  0  0  0  0  0  0  0
   10.3521    0.5630    2.4294 C   0  0  0  0  0  0  0  0  0  0  0  0
   11.2477    0.4119    3.5267 O   0  0  0  0  0  0  0  0  0  0  0  0
    4.4579    1.1037   -0.6089 C   0  0  1  0  0  0  0  0  0  0  0  0
    5.6542    1.3489    0.2151 O   0  0  0  0  0  0  0  0  0  0  0  0
    4.8937    8.7158    0.9278 C   0  0  0  0  0  0  0  0  0  0  0  0
    4.6753    8.5944    2.3123 O   0  0  0  0  0  0  0  0  0  0  0  0
   10.6227    5.0170    4.2510 C   0  0  1  0  0  0  0  0  0  0  0  0
   11.8064    4.2151    4.2162 O   0  0  0  0  0  0  0  0  0  0  0  0
    4.5142    1.9807   -1.9342 C   0  0  0  0  0  0  0  0  0  0  0  0
    4.4966    3.4553   -1.7297 N   0  0  0  0  0  0  0  0  0  0  0  0
  1  2  1  1  0  0  0
  1  7  1  0  0  0  0
  1 30  1  0  0  0  0
  3  4  1  1  0  0  0
  3  9  1  0  0  0  0
  3 39  1  0  0  0  0
  5 10  1  0  0  0  0
  5 26  1  0  0  0  0
  5 32  1  6  0  0  0
  6 12  1  0  0  0  0
  6 36  1  0  0  0  0
  6 19  1  1  0  0  0
  7  8  1  1  0  0  0
  7 14  1  0  0  0  0
  9 16  1  0  0  0  0
 10 11  1  1  0  0  0
 10 18  1  0  0  0  0
 12 13  1  6  0  0  0
 12 20  1  0  0  0  0
 14 15  1  6  0  0  0
 14 22  1  0  0  0  0
 16 17  1  1  0  0  0
 16 24  1  0  0  0  0
 18 19  1  1  0  0  0
 18 25  1  0  0  0  0
 20 21  1  1  0  0  0
 20 27  1  0  0  0  0
 22 23  1  1  0  0  0
 22 29  1  0  0  0  0
 24  2  1  6  0  0  0
 24 31  1  0  0  0  0
 25 26  1  0  0  0  0
 25 33  1  6  0  0  0
 27 28  1  6  0  0  0
 27 35  1  0  0  0  0
 29 30  1  0  0  0  0
 29 37  1  6  0  0  0
 31 32  1  6  0  0  0
 31 39  1  0  0  0  0
 33 34  1  0  0  0  0
 35 36  1  0  0  0  0
 35 41  1  6  0  0  0
 37 38  1  0  0  0  0
 39 40  1  6  0  0  0
 41 42  1  0  0  0  0
M  END
>  <CHROM.1>
-154.60145264,163.83912603,80.16879078,92.17157757,-143.91680957,-176.62389525
-172.97601128,-69.16335959,177.52542352,7.64296318,4.20186313,1.42885883
1.09805733,-0.76338410,-0.17945613

>  <Name>
2o3w_lig

>  <RI>
0

>  <Rbt.Current_Directory>
/home/itssahil/PROJECTS/Mol_Feturizer/New_Systems/rnas/2o3w

>  <Rbt.Executable>
rbdock ($Id: //depot/dev/client3/rdock/2013.1/src/exe/rbdock.cxx#4 $)

>  <Rbt.Library>
libRbt.so (2013.1, Build901 2013/11/27)

>  <Rbt.Parameter_File>
/export/apps/rDock/src/rDock_2013.1_src/data/scripts/dock_solv.prm

>  <Rbt.Receptor>
prm/pocket_docking_6.prm

>  <SCORE>
-16.6723

>  <SCORE.INTER>
-11.3352

>  <SCORE.INTER.CONST>
1

>  <SCORE.INTER.POLAR>
-1.41889

>  <SCORE.INTER.ROT>
9

>  <SCORE.INTER.SOLV>
18.9487

>  <SCORE.INTER.VDW>
-18.7434

>  <SCORE.INTER.norm>
-0.269886

>  <SCORE.INTRA>
-5.33709

>  <SCORE.INTRA.DIHEDRAL>
-12.6756

>  <SCORE.INTRA.DIHEDRAL.0>
27.8999

>  <SCORE.INTRA.POLAR>
0

>  <SCORE.INTRA.POLAR.0>
0

>  <SCORE.INTRA.REPUL>
0

>  <SCORE.INTRA.REPUL.0>
0

>  <SCORE.INTRA.SOLV>
-1.01016

>  <SCORE.INTRA.SOLV.lig_0>
-104.479

>  <SCORE.INTRA.VDW>
1.50582

>  <SCORE.INTRA.VDW.0>
-6.17816

>  <SCORE.INTRA.norm>
-0.127073

>  <SCORE.RESTR>
0

>  <SCORE.RESTR.CAVITY>
0

>  <SCORE.RESTR.norm>
0

>  <SCORE.SYSTEM>
0

>  <SCORE.SYSTEM.CONST>
0

>  <SCORE.SYSTEM.DIHEDRAL>
0

>  <SCORE.SYSTEM.SOLV>
0

>  <SCORE.SYSTEM.norm>
0

>  <SCORE.heavy>
42

>  <SCORE.norm>
-0.39696

>  <RMSD>
8.273

$$$$
2o3w_lig
 OpenBabel11021811463D
libRbt.so/2013.1/901 2013/11/27
 42 45  0  0  0  0  0  0  0  0999 V2000
   10.4954    4.9509    4.7256 C   0  0  2  0  0  0  0  0  0  0  0  0
   11.7587    4.4995    5.2428 O   0  0  0  0  0  0  0  0  0  0  0  0
   13.0197    0.4295    6.0434 C   0  0  2  0  0  0  0  0  0  0  0  0
   13.1419   -0.9368    6.6340 N   0  0  0  0  0  0  0  0  0  0  0  0
    9.1320    1.6027    3.8208 C   0  0  1  0  0  0  0  0  0  0  0  0
    7.5500   -0.5249    2.4190 C   0  0  1  0  0  0  0  0  0  0  0  0
   10.6546    6.4649    4.3929 C   0  0  2  0  0  0  0  0  0  0  0  0
   11.8538    6.7410    3.5827 N   0  0  0  0  0  0  0  0  0  0  0  0
   13.4291    1.5449    7.0875 C   0  0  0  0  0  0  0  0  0  0  0  0
    7.7025    2.1971    3.6369 C   0  0  2  0  0  0  0  0  0  0  0  0
    6.7174    1.6568    4.5516 O   0  0  0  0  0  0  0  0  0  0  0  0
    7.2035   -1.8709    1.6863 C   0  0  2  0  0  0  0  0  0  0  0  0
    5.7390   -2.1557    1.7583 N   0  0  0  0  0  0  0  0  0  0  0  0
   10.7643    7.3331    5.6599 C   0  0  1  0  0  0  0  0  0  0  0  0
   10.8686    8.7140    5.3090 O   0  0  0  0  0  0  0  0  0  0  0  0
   13.3017    2.9575    6.4014 C   0  0  2  0  0  0  0  0  0  0  0  0
   13.6940    4.0320    7.3527 N   0  0  0  0  0  0  0  0  0  0  0  0
    7.4530    1.9173    2.1541 C   0  0  2  0  0  0  0  0  0  0  0  0
    6.8177    0.6148    1.9518 O   0  0  0  0  0  0  0  0  0  0  0  0
    8.0541   -3.0619    2.3380 C   0  0  1  0  0  0  0  0  0  0  0  0
    9.4310   -2.9375    1.9167 O   0  0  0  0  0  0  0  0  0  0  0  0
    9.5429    7.0728    6.5706 C   0  0  2  0  0  0  0  0  0  0  0  0
    9.6197    7.8729    7.7275 O   0  0  0  0  0  0  0  0  0  0  0  0
   11.8225    3.2038    5.9042 C   0  0  2  0  0  0  0  0  0  0  0  0
    8.8307    1.9770    1.4731 C   0  0  2  0  0  0  0  0  0  0  0  0
    9.7156    1.5342    2.4995 O   0  0  0  0  0  0  0  0  0  0  0  0
    7.9824   -3.0740    3.9387 C   0  0  2  0  0  0  0  0  0  0  0  0
    6.6558   -3.4485    4.3078 O   0  0  0  0  0  0  0  0  0  0  0  0
    9.5028    5.5548    6.9496 C   0  0  2  0  0  0  0  0  0  0  0  0
    9.4329    4.7457    5.7330 O   0  0  0  0  0  0  0  0  0  0  0  0
   11.3326    2.1180    4.9212 C   0  0  2  0  0  0  0  0  0  0  0  0
    9.9196    2.3955    4.7188 O   0  0  0  0  0  0  0  0  0  0  0  0
    9.2436    3.3861    0.9455 C   0  0  0  0  0  0  0  0  0  0  0  0
    8.2590    3.8517    0.0275 O   0  0  0  0  0  0  0  0  0  0  0  0
    8.3296   -1.6520    4.5214 C   0  0  1  0  0  0  0  0  0  0  0  0
    7.3712   -0.7144    3.9107 O   0  0  0  0  0  0  0  0  0  0  0  0
    8.3306    5.2080    7.8381 C   0  0  0  0  0  0  0  0  0  0  0  0
    8.4155    5.9156    9.0511 O   0  0  0  0  0  0  0  0  0  0  0  0
   11.5381    0.6760    5.5490 C   0  0  1  0  0  0  0  0  0  0  0  0
   11.2268   -0.3317    4.5829 O   0  0  0  0  0  0  0  0  0  0  0  0
    8.2495   -1.5646    6.1071 C   0  0  0  0  0  0  0  0  0  0  0  0
    9.1499   -2.4906    6.8476 N   0  0  0  0  0  0  0  0  0  0  0  0
  1  2  1  1  0  0  0
  1  7  1  0  0  0  0
  1 30  1  0  0  0  0
  3  4  1  1  0  0  0
  3  9  1  0  0  0  0
  3 39  1  0  0  0  0
  5 10  1  0  0  0  0
  5 26  1  0  0  0  0
  5 32  1  1  0  0  0
  6 12  1  0  0  0  0
  6 36  1  0  0  0  0
  6 19  1  6  0  0  0
  7  8  1  6  0  0  0
  7 14  1  0  0  0  0
  9 16  1  0  0  0  0
 10 11  1  1  0  0  0
 10 18  1  0  0  0  0
 12 13  1  1  0  0  0
 12 20  1  0  0  0  0
 14 15  1  6  0  0  0
 14 22  1  0  0  0  0
 16 17  1  1  0  0  0
 16 24  1  0  0  0  0
 18 19  1  1  0  0  0
 18 25  1  0  0  0  0
 20 21  1  1  0  0  0
 20 27  1  0  0  0  0
 22 23  1  1  0  0  0
 22 29  1  0  0  0  0
 24  2  1  6  0  0  0
 24 31  1  0  0  0  0
 25 26  1  0  0  0  0
 25 33  1  1  0  0  0
 27 28  1  6  0  0  0
 27 35  1  0  0  0  0
 29 30  1  0  0  0  0
 29 37  1  1  0  0  0
 31 32  1  1  0  0  0
 31 39  1  0  0  0  0
 33 34  1  0  0  0  0
 35 36  1  0  0  0  0
 35 41  1  1  0  0  0
 37 38  1  0  0  0  0
 39 40  1  6  0  0  0
 41 42  1  0  0  0  0
M  END
>  <CHROM.1>
166.88001423,-172.90031612,-154.93534560,-60.09506862,-178.90933105,-57.44778999
-61.52288505,178.07655276,59.36803289,9.57096618,2.07717602,4.58804590,1.08811225
-0.82332382,0.00528277

>  <Name>
2o3w_lig

>  <RI>
0

>  <Rbt.Current_Directory>
/home/itssahil/PROJECTS/Mol_Feturizer/New_Systems/rnas/2o3w

>  <Rbt.Executable>
rbdock ($Id: //depot/dev/client3/rdock/2013.1/src/exe/rbdock.cxx#4 $)

>  <Rbt.Library>
libRbt.so (2013.1, Build901 2013/11/27)

>  <Rbt.Parameter_File>
/export/apps/rDock/src/rDock_2013.1_src/data/scripts/dock_solv.prm

>  <Rbt.Receptor>
prm/pocket_docking_7.prm

>  <SCORE>
-20.6772

>  <SCORE.INTER>
-10.084

>  <SCORE.INTER.CONST>
1

>  <SCORE.INTER.POLAR>
-1.70752

>  <SCORE.INTER.ROT>
9

>  <SCORE.INTER.SOLV>
8.2136

>  <SCORE.INTER.VDW>
-13.3688

>  <SCORE.INTER.norm>
-0.240095

>  <SCORE.INTRA>
-10.5931

>  <SCORE.INTRA.DIHEDRAL>
-23.9964

>  <SCORE.INTRA.DIHEDRAL.0>
27.8999

>  <SCORE.INTRA.POLAR>
0

>  <SCORE.INTRA.POLAR.0>
0

>  <SCORE.INTRA.REPUL>
0.0252892

>  <SCORE.INTRA.REPUL.0>
0

>  <SCORE.INTRA.SOLV>
-3.38061

>  <SCORE.INTRA.SOLV.lig_0>
-104.479

>  <SCORE.INTRA.VDW>
2.96889

>  <SCORE.INTRA.VDW.0>
-6.17816

>  <SCORE.INTRA.norm>
-0.252218

>  <SCORE.RESTR>
0

>  <SCORE.RESTR.CAVITY>
0

>  <SCORE.RESTR.norm>
0

>  <SCORE.SYSTEM>
0

>  <SCORE.SYSTEM.CONST>
0

>  <SCORE.SYSTEM.DIHEDRAL>
0

>  <SCORE.SYSTEM.SOLV>
0

>  <SCORE.SYSTEM.norm>
0

>  <SCORE.heavy>
42

>  <SCORE.norm>
-0.492313

>  <RMSD>
8.273

$$$$
2o3w_lig
 OpenBabel11021811463D
libRbt.so/2013.1/901 2013/11/27
 42 45  0  0  0  0  0  0  0  0999 V2000
    4.3301    5.2496    1.7159 C   0  0  2  0  0  0  0  0  0  0  0  0
    5.7178    5.1746    1.3473 O   0  0  0  0  0  0  0  0  0  0  0  0
    8.2019    7.2230   -1.5561 C   0  0  2  0  0  0  0  0  0  0  0  0
    8.8802    8.2850   -2.3577 N   0  0  0  0  0  0  0  0  0  0  0  0
    9.1727    6.5444    3.0033 C   0  0  1  0  0  0  0  0  0  0  0  0
   11.9158    6.2286    6.5809 C   0  0  1  0  0  0  0  0  0  0  0  0
    4.1601    4.4147    3.0206 C   0  0  2  0  0  0  0  0  0  0  0  0
    5.1526    4.7693    4.0501 N   0  0  0  0  0  0  0  0  0  0  0  0
    6.6365    7.2452   -1.7819 C   0  0  0  0  0  0  0  0  0  0  0  0
    9.0153    6.8932    4.5147 C   0  0  2  0  0  0  0  0  0  0  0  0
    9.2985    8.2781    4.8325 O   0  0  0  0  0  0  0  0  0  0  0  0
   12.7355    4.9011    6.7668 C   0  0  2  0  0  0  0  0  0  0  0  0
   11.8895    3.7061    6.4715 N   0  0  0  0  0  0  0  0  0  0  0  0
    4.3012    2.9022    2.7690 C   0  0  1  0  0  0  0  0  0  0  0  0
    4.0992    2.1752    3.9821 O   0  0  0  0  0  0  0  0  0  0  0  0
    5.9818    6.0923   -0.9307 C   0  0  2  0  0  0  0  0  0  0  0  0
    4.5076    6.0745   -1.1309 N   0  0  0  0  0  0  0  0  0  0  0  0
    9.9462    5.8629    5.1559 C   0  0  2  0  0  0  0  0  0  0  0  0
   11.3083    6.3796    5.2918 O   0  0  0  0  0  0  0  0  0  0  0  0
   13.3144    4.8417    8.2595 C   0  0  1  0  0  0  0  0  0  0  0  0
   14.4041    5.7840    8.3758 O   0  0  0  0  0  0  0  0  0  0  0  0
    3.2994    2.4657    1.6759 C   0  0  2  0  0  0  0  0  0  0  0  0
    3.4044    1.0799    1.4456 O   0  0  0  0  0  0  0  0  0  0  0  0
    6.3061    6.2800    0.6040 C   0  0  2  0  0  0  0  0  0  0  0  0
    9.9075    4.6279    4.2401 C   0  0  2  0  0  0  0  0  0  0  0  0
    9.6807    5.1915    2.9504 O   0  0  0  0  0  0  0  0  0  0  0  0
   12.2055    5.1651    9.3700 C   0  0  2  0  0  0  0  0  0  0  0  0
   11.2835    4.0761    9.3883 O   0  0  0  0  0  0  0  0  0  0  0  0
    3.5930    3.2680    0.3645 C   0  0  2  0  0  0  0  0  0  0  0  0
    3.4874    4.7024    0.6314 O   0  0  0  0  0  0  0  0  0  0  0  0
    7.8223    6.3247    0.8946 C   0  0  2  0  0  0  0  0  0  0  0  0
    7.9315    6.6834    2.2996 O   0  0  0  0  0  0  0  0  0  0  0  0
    8.8083    3.5792    4.5956 C   0  0  0  0  0  0  0  0  0  0  0  0
    9.0005    3.1314    5.9340 O   0  0  0  0  0  0  0  0  0  0  0  0
   11.4555    6.5088    9.0319 C   0  0  1  0  0  0  0  0  0  0  0  0
   10.8849    6.3313    7.6854 O   0  0  0  0  0  0  0  0  0  0  0  0
    2.6513    2.9072   -0.7610 C   0  0  0  0  0  0  0  0  0  0  0  0
    2.8552    1.5721   -1.1547 O   0  0  0  0  0  0  0  0  0  0  0  0
    8.5246    7.4138   -0.0199 C   0  0  1  0  0  0  0  0  0  0  0  0
    9.9446    7.3502    0.1391 O   0  0  0  0  0  0  0  0  0  0  0  0
   10.3110    6.8901   10.0679 C   0  0  0  0  0  0  0  0  0  0  0  0
    9.1087    6.0123   10.0484 N   0  0  0  0  0  0  0  0  0  0  0  0
  1  2  1  6  0  0  0
  1  7  1  0  0  0  0
  1 30  1  0  0  0  0
  3  4  1  6  0  0  0
  3  9  1  0  0  0  0
  3 39  1  0  0  0  0
  5 10  1  0  0  0  0
  5 26  1  0  0  0  0
  5 32  1  6  0  0  0
  6 12  1  0  0  0  0
  6 36  1  0  0  0  0
  6 19  1  6  0  0  0
  7  8  1  1  0  0  0
  7 14  1  0  0  0  0
  9 16  1  0  0  0  0
 10 11  1  6  0  0  0
 10 18  1  0  0  0  0
 12 13  1  1  0  0  0
 12 20  1  0  0  0  0
 14 15  1  1  0  0  0
 14 22  1  0  0  0  0
 16 17  1  1  0  0  0
 16 24  1  0  0  0  0
 18 19  1  6  0  0  0
 18 25  1  0  0  0  0
 20 21  1  6  0  0  0
 20 27  1  0  0  0  0
 22 23  1  6  0  0  0
 22 29  1  0  0  0  0
 24  2  1  1  0  0  0
 24 31  1  0  0  0  0
 25 26  1  0  0  0  0
 25 33  1  1  0  0  0
 27 28  1  6  0  0  0
 27 35  1  0  0  0  0
 29 30  1  0  0  0  0
 29 37  1  6  0  0  0
 31 32  1  1  0  0  0
 31 39  1  0  0  0  0
 33 34  1  0  0  0  0
 35 36  1  0  0  0  0
 35 41  1  1  0  0  0
 37 38  1  0  0  0  0
 39 40  1  6  0  0  0
 41 42  1  0  0  0  0
M  END
>  <CHROM.1>
-151.61757259,-175.91150731,91.02438765,130.66872847,-83.20428964,-58.29457147
-65.63479609,166.54312081,-69.29726908,8.03093066,5.22764233,3.53452140,2.48274814
-0.57738051,-1.10757430

>  <Name>
2o3w_lig

>  <RI>
0

>  <Rbt.Current_Directory>
/home/itssahil/PROJECTS/Mol_Feturizer/New_Systems/rnas/2o3w

>  <Rbt.Executable>
rbdock ($Id: //depot/dev/client3/rdock/2013.1/src/exe/rbdock.cxx#4 $)

>  <Rbt.Library>
libRbt.so (2013.1, Build901 2013/11/27)

>  <Rbt.Parameter_File>
/export/apps/rDock/src/rDock_2013.1_src/data/scripts/dock_solv.prm

>  <Rbt.Receptor>
prm/pocket_docking_6.prm

>  <SCORE>
-9.51877

>  <SCORE.INTER>
-7.41022

>  <SCORE.INTER.CONST>
1

>  <SCORE.INTER.POLAR>
-2.93438

>  <SCORE.INTER.ROT>
9

>  <SCORE.INTER.SOLV>
12.0716

>  <SCORE.INTER.VDW>
-8.78274

>  <SCORE.INTER.norm>
-0.176434

>  <SCORE.INTRA>
-2.10855

>  <SCORE.INTRA.DIHEDRAL>
-10.4043

>  <SCORE.INTRA.DIHEDRAL.0>
27.8999

>  <SCORE.INTRA.POLAR>
0

>  <SCORE.INTRA.POLAR.0>
0

>  <SCORE.INTRA.REPUL>
0.00176961

>  <SCORE.INTRA.REPUL.0>
0

>  <SCORE.INTRA.SOLV>
2.42783

>  <SCORE.INTRA.SOLV.lig_0>
-104.479

>  <SCORE.INTRA.VDW>
1.87084

>  <SCORE.INTRA.VDW.0>
-6.17816

>  <SCORE.INTRA.norm>
-0.0502035

>  <SCORE.RESTR>
0

>  <SCORE.RESTR.CAVITY>
0

>  <SCORE.RESTR.norm>
0

>  <SCORE.SYSTEM>
0

>  <SCORE.SYSTEM.CONST>
0

>  <SCORE.SYSTEM.DIHEDRAL>
0

>  <SCORE.SYSTEM.SOLV>
0

>  <SCORE.SYSTEM.norm>
0

>  <SCORE.heavy>
42

>  <SCORE.norm>
-0.226637

>  <RMSD>
8.303

$$$$
2o3w_lig
 OpenBabel11021811463D
libRbt.so/2013.1/901 2013/11/27
 42 45  0  0  0  0  0  0  0  0999 V2000
   10.5859    4.8978    3.7526 C   0  0  2  0  0  0  0  0  0  0  0  0
    9.6121    4.1827    4.5319 O   0  0  0  0  0  0  0  0  0  0  0  0
   12.0687    0.8060    5.6979 C   0  0  2  0  0  0  0  0  0  0  0  0
   12.5149   -0.5408    6.1641 N   0  0  0  0  0  0  0  0  0  0  0  0
    8.5017    0.9416    3.1092 C   0  0  1  0  0  0  0  0  0  0  0  0
    6.7772   -1.3890    3.8225 C   0  0  1  0  0  0  0  0  0  0  0  0
   10.4894    6.3966    4.1678 C   0  0  2  0  0  0  0  0  0  0  0  0
   10.5267    6.5803    5.6291 N   0  0  0  0  0  0  0  0  0  0  0  0
   11.2948    1.5811    6.8391 C   0  0  0  0  0  0  0  0  0  0  0  0
    7.5400    1.4432    4.2291 C   0  0  2  0  0  0  0  0  0  0  0  0
    7.8735    0.9585    5.5531 O   0  0  0  0  0  0  0  0  0  0  0  0
    6.6728   -1.9394    2.3545 C   0  0  2  0  0  0  0  0  0  0  0  0
    5.2875   -2.4138    2.0599 N   0  0  0  0  0  0  0  0  0  0  0  0
    9.1917    7.0587    3.6694 C   0  0  1  0  0  0  0  0  0  0  0  0
    9.1641    8.4387    4.0376 O   0  0  0  0  0  0  0  0  0  0  0  0
   10.8709    2.9982    6.2964 C   0  0  2  0  0  0  0  0  0  0  0  0
   10.1515    3.7622    7.3511 N   0  0  0  0  0  0  0  0  0  0  0  0
    6.1851    0.9928    3.6808 C   0  0  2  0  0  0  0  0  0  0  0  0
    5.8394   -0.3529    4.1396 O   0  0  0  0  0  0  0  0  0  0  0  0
    7.7394   -3.1181    2.1547 C   0  0  1  0  0  0  0  0  0  0  0  0
    9.0625   -2.5421    2.0735 O   0  0  0  0  0  0  0  0  0  0  0  0
    9.0772    6.8807    2.1382 C   0  0  2  0  0  0  0  0  0  0  0  0
    7.9022    7.4961    1.6637 O   0  0  0  0  0  0  0  0  0  0  0  0
    9.9468    2.8534    5.0232 C   0  0  2  0  0  0  0  0  0  0  0  0
    6.3087    1.0445    2.1487 C   0  0  2  0  0  0  0  0  0  0  0  0
    7.6878    0.7585    1.9280 O   0  0  0  0  0  0  0  0  0  0  0  0
    7.6979   -4.2013    3.3347 C   0  0  2  0  0  0  0  0  0  0  0  0
    6.4695   -4.9182    3.2185 O   0  0  0  0  0  0  0  0  0  0  0  0
    9.0763    5.3524    1.8005 C   0  0  2  0  0  0  0  0  0  0  0  0
   10.3001    4.7350    2.3112 O   0  0  0  0  0  0  0  0  0  0  0  0
   10.6178    2.0555    3.8838 C   0  0  2  0  0  0  0  0  0  0  0  0
    9.5765    1.8638    2.8871 O   0  0  0  0  0  0  0  0  0  0  0  0
    5.9074    2.4063    1.5016 C   0  0  0  0  0  0  0  0  0  0  0  0
    5.9833    2.2940    0.0837 O   0  0  0  0  0  0  0  0  0  0  0  0
    7.7863   -3.4954    4.7405 C   0  0  1  0  0  0  0  0  0  0  0  0
    6.6614   -2.5457    4.7930 O   0  0  0  0  0  0  0  0  0  0  0  0
    8.9734    5.0848    0.3168 C   0  0  0  0  0  0  0  0  0  0  0  0
    9.0150    3.7004    0.0697 O   0  0  0  0  0  0  0  0  0  0  0  0
   11.1412    0.6597    4.4255 C   0  0  1  0  0  0  0  0  0  0  0  0
   11.8938   -0.0123    3.4117 O   0  0  0  0  0  0  0  0  0  0  0  0
    7.7179   -4.4971    5.9736 C   0  0  0  0  0  0  0  0  0  0  0  0
    8.8858   -5.4076    6.1269 N   0  0  0  0  0  0  0  0  0  0  0  0
  1  2  1  1  0  0  0
  1  7  1  0  0  0  0
  1 30  1  0  0  0  0
  3  4  1  1  0  0  0
  3  9  1  0  0  0  0
  3 39  1  0  0  0  0
  5 10  1  0  0  0  0
  5 26  1  0  0  0  0
  5 32  1  6  0  0  0
  6 12  1  0  0  0  0
  6 36  1  0  0  0  0
  6 19  1  1  0  0  0
  7  8  1  1  0  0  0
  7 14  1  0  0  0  0
  9 16  1  0  0  0  0
 10 11  1  1  0  0  0
 10 18  1  0  0  0  0
 12 13  1  1  0  0  0
 12 20  1  0  0  0  0
 14 15  1  6  0  0  0
 14 22  1  0  0  0  0
 16 17  1  1  0  0  0
 16 24  1  0  0  0  0
 18 19  1  6  0  0  0
 18 25  1  0  0  0  0
 20 21  1  1  0  0  0
 20 27  1  0  0  0  0
 22 23  1  1  0  0  0
 22 29  1  0  0  0  0
 24  2  1  6  0  0  0
 24 31  1  0  0  0  0
 25 26  1  0  0  0  0
 25 33  1  1  0  0  0
 27 28  1  1  0  0  0
 27 35  1  0  0  0  0
 29 30  1  0  0  0  0
 29 37  1  6  0  0  0
 31 32  1  6  0  0  0
 31 39  1  0  0  0  0
 33 34  1  0  0  0  0
 35 36  1  0  0  0  0
 35 41  1  1  0  0  0
 37 38  1  0  0  0  0
 39 40  1  6  0  0  0
 41 42  1  0  0  0  0
M  END
>  <CHROM.1>
-142.13052225,69.27632464,-80.20330098,-57.40616442,78.86293845,-176.26660043
178.34344910,-72.90575194,67.61934494,8.70675040,1.45687215,3.60871929,-1.25912583
0.78671675,2.84547253

>  <Name>
2o3w_lig

>  <RI>
0

>  <Rbt.Current_Directory>
/home/itssahil/PROJECTS/Mol_Feturizer/New_Systems/rnas/2o3w

>  <Rbt.Executable>
rbdock ($Id: //depot/dev/client3/rdock/2013.1/src/exe/rbdock.cxx#4 $)

>  <Rbt.Library>
libRbt.so (2013.1, Build901 2013/11/27)

>  <Rbt.Parameter_File>
/export/apps/rDock/src/rDock_2013.1_src/data/scripts/dock_solv.prm

>  <Rbt.Receptor>
prm/pocket_docking_3.prm

>  <SCORE>
-7.66402

>  <SCORE.INTER>
-1.23384

>  <SCORE.INTER.CONST>
1

>  <SCORE.INTER.POLAR>
-0.369137

>  <SCORE.INTER.ROT>
9

>  <SCORE.INTER.SOLV>
5.21795

>  <SCORE.INTER.VDW>
-10.9314

>  <SCORE.INTER.norm>
-0.0293772

>  <SCORE.INTRA>
-6.5367

>  <SCORE.INTRA.DIHEDRAL>
-17.7991

>  <SCORE.INTRA.DIHEDRAL.0>
27.8999

>  <SCORE.INTRA.POLAR>
0

>  <SCORE.INTRA.POLAR.0>
0

>  <SCORE.INTRA.REPUL>
0

>  <SCORE.INTRA.REPUL.0>
0

>  <SCORE.INTRA.SOLV>
-0.472123

>  <SCORE.INTRA.SOLV.lig_0>
-104.479

>  <SCORE.INTRA.VDW>
2.59893

>  <SCORE.INTRA.VDW.0>
-6.17816

>  <SCORE.INTRA.norm>
-0.155636

>  <SCORE.RESTR>
0.106526

>  <SCORE.RESTR.CAVITY>
0.106526

>  <SCORE.RESTR.norm>
0.00253634

>  <SCORE.SYSTEM>
0

>  <SCORE.SYSTEM.CONST>
0

>  <SCORE.SYSTEM.DIHEDRAL>
0

>  <SCORE.SYSTEM.SOLV>
0

>  <SCORE.SYSTEM.norm>
0

>  <SCORE.heavy>
42

>  <SCORE.norm>
-0.182477

>  <RMSD>
8.327

$$$$
2o3w_lig
 OpenBabel11021811463D
libRbt.so/2013.1/901 2013/11/27
 42 45  0  0  0  0  0  0  0  0999 V2000
    3.7246    5.5323   -1.4275 C   0  0  2  0  0  0  0  0  0  0  0  0
    4.3508    5.7688   -0.1550 O   0  0  0  0  0  0  0  0  0  0  0  0
    8.3431    6.6094   -1.6217 C   0  0  2  0  0  0  0  0  0  0  0  0
    9.8114    6.8730   -1.6928 N   0  0  0  0  0  0  0  0  0  0  0  0
    6.6375    3.7945    1.4667 C   0  0  1  0  0  0  0  0  0  0  0  0
    7.9977    2.7732    5.5426 C   0  0  1  0  0  0  0  0  0  0  0  0
    2.1849    5.5835   -1.1934 C   0  0  2  0  0  0  0  0  0  0  0  0
    1.7676    6.7838   -0.4478 N   0  0  0  0  0  0  0  0  0  0  0  0
    7.5909    7.7586   -0.8372 C   0  0  0  0  0  0  0  0  0  0  0  0
    6.2262    2.4847    2.2056 C   0  0  2  0  0  0  0  0  0  0  0  0
    4.8962    2.5242    2.7787 O   0  0  0  0  0  0  0  0  0  0  0  0
    7.5233    3.3095    6.9412 C   0  0  2  0  0  0  0  0  0  0  0  0
    7.2019    4.7665    6.8726 N   0  0  0  0  0  0  0  0  0  0  0  0
    1.6737    4.3670   -0.3999 C   0  0  1  0  0  0  0  0  0  0  0  0
    0.2554    4.4354   -0.2435 O   0  0  0  0  0  0  0  0  0  0  0  0
    6.0487    7.4367   -0.8154 C   0  0  2  0  0  0  0  0  0  0  0  0
    5.3069    8.5071   -0.0961 N   0  0  0  0  0  0  0  0  0  0  0  0
    7.3740    2.3348    3.2054 C   0  0  2  0  0  0  0  0  0  0  0  0
    7.0782    3.0100    4.4693 O   0  0  0  0  0  0  0  0  0  0  0  0
    8.6615    3.0220    8.0315 C   0  0  1  0  0  0  0  0  0  0  0  0
    8.6704    1.6091    8.3360 O   0  0  0  0  0  0  0  0  0  0  0  0
    2.1003    3.0666   -1.1183 C   0  0  2  0  0  0  0  0  0  0  0  0
    1.6254    1.9433   -0.4131 O   0  0  0  0  0  0  0  0  0  0  0  0
    5.7801    6.0449   -0.1178 C   0  0  2  0  0  0  0  0  0  0  0  0
    8.6118    2.9432    2.5249 C   0  0  2  0  0  0  0  0  0  0  0  0
    8.0551    3.9621    1.6976 O   0  0  0  0  0  0  0  0  0  0  0  0
   10.1191    3.4742    7.5431 C   0  0  2  0  0  0  0  0  0  0  0  0
   10.1350    4.9004    7.4974 O   0  0  0  0  0  0  0  0  0  0  0  0
    3.6612    3.0319   -1.2272 C   0  0  2  0  0  0  0  0  0  0  0  0
    4.1299    4.2116   -1.9541 O   0  0  0  0  0  0  0  0  0  0  0  0
    6.5305    4.8792   -0.7984 C   0  0  2  0  0  0  0  0  0  0  0  0
    6.3214    3.7316    0.0698 O   0  0  0  0  0  0  0  0  0  0  0  0
    9.4610    1.9396    1.6847 C   0  0  0  0  0  0  0  0  0  0  0  0
    9.9676    0.9201    2.5408 O   0  0  0  0  0  0  0  0  0  0  0  0
   10.4377    2.8794    6.1194 C   0  0  1  0  0  0  0  0  0  0  0  0
    9.3623    3.3500    5.2294 O   0  0  0  0  0  0  0  0  0  0  0  0
    4.1680    1.7913   -1.9257 C   0  0  0  0  0  0  0  0  0  0  0  0
    5.5647    1.8584   -2.0806 O   0  0  0  0  0  0  0  0  0  0  0  0
    8.0753    5.2176   -0.9205 C   0  0  1  0  0  0  0  0  0  0  0  0
    8.7426    4.2087   -1.6836 O   0  0  0  0  0  0  0  0  0  0  0  0
   11.8561    3.3070    5.5416 C   0  0  0  0  0  0  0  0  0  0  0  0
   12.0634    4.7709    5.3663 N   0  0  0  0  0  0  0  0  0  0  0  0
  1  2  1  1  0  0  0
  1  7  1  0  0  0  0
  1 30  1  0  0  0  0
  3  4  1  1  0  0  0
  3  9  1  0  0  0  0
  3 39  1  0  0  0  0
  5 10  1  0  0  0  0
  5 26  1  0  0  0  0
  5 32  1  6  0  0  0
  6 12  1  0  0  0  0
  6 36  1  0  0  0  0
  6 19  1  6  0  0  0
  7  8  1  1  0  0  0
  7 14  1  0  0  0  0
  9 16  1  0  0  0  0
 10 11  1  1  0  0  0
 10 18  1  0  0  0  0
 12 13  1  6  0  0  0
 12 20  1  0  0  0  0
 14 15  1  6  0  0  0
 14 22  1  0  0  0  0
 16 17  1  1  0  0  0
 16 24  1  0  0  0  0
 18 19  1  1  0  0  0
 18 25  1  0  0  0  0
 20 21  1  6  0  0  0
 20 27  1  0  0  0  0
 22 23  1  1  0  0  0
 22 29  1  0  0  0  0
 24  2  1  6  0  0  0
 24 31  1  0  0  0  0
 25 26  1  0  0  0  0
 25 33  1  6  0  0  0
 27 28  1  6  0  0  0
 27 35  1  0  0  0  0
 29 30  1  0  0  0  0
 29 37  1  6  0  0  0
 31 32  1  1  0  0  0
 31 39  1  0  0  0  0
 33 34  1  0  0  0  0
 35 36  1  0  0  0  0
 35 41  1  6  0  0  0
 37 38  1  0  0  0  0
 39 40  1  6  0  0  0
 41 42  1  0  0  0  0
M  END
>  <CHROM.1>
-167.74194786,175.61955682,-170.09333179,171.34624254,66.78089165,-61.97382778
175.78761484,-53.59128019,-59.97228281,6.66333473,4.05056810,1.77740359,-2.26915312
0.29129513,2.01169084

>  <Name>
2o3w_lig

>  <RI>
0

>  <Rbt.Current_Directory>
/home/itssahil/PROJECTS/Mol_Feturizer/New_Systems/rnas/2o3w

>  <Rbt.Executable>
rbdock ($Id: //depot/dev/client3/rdock/2013.1/src/exe/rbdock.cxx#4 $)

>  <Rbt.Library>
libRbt.so (2013.1, Build901 2013/11/27)

>  <Rbt.Parameter_File>
/export/apps/rDock/src/rDock_2013.1_src/data/scripts/dock_solv.prm

>  <Rbt.Receptor>
prm/pocket_docking_5.prm

>  <SCORE>
-17.0598

>  <SCORE.INTER>
-4.75057

>  <SCORE.INTER.CONST>
1

>  <SCORE.INTER.POLAR>
-0.979796

>  <SCORE.INTER.ROT>
9

>  <SCORE.INTER.SOLV>
14.7608

>  <SCORE.INTER.VDW>
-14.4213

>  <SCORE.INTER.norm>
-0.113109

>  <SCORE.INTRA>
-12.3093

>  <SCORE.INTRA.DIHEDRAL>
-25.6103

>  <SCORE.INTRA.DIHEDRAL.0>
27.8999

>  <SCORE.INTRA.POLAR>
0

>  <SCORE.INTRA.POLAR.0>
0

>  <SCORE.INTRA.REPUL>
0

>  <SCORE.INTRA.REPUL.0>
0

>  <SCORE.INTRA.SOLV>
-2.58059

>  <SCORE.INTRA.SOLV.lig_0>
-104.479

>  <SCORE.INTRA.VDW>
1.78615

>  <SCORE.INTRA.VDW.0>
-6.17816

>  <SCORE.INTRA.norm>
-0.293078

>  <SCORE.RESTR>
0

>  <SCORE.RESTR.CAVITY>
0

>  <SCORE.RESTR.norm>
0

>  <SCORE.SYSTEM>
0

>  <SCORE.SYSTEM.CONST>
0

>  <SCORE.SYSTEM.DIHEDRAL>
0

>  <SCORE.SYSTEM.SOLV>
0

>  <SCORE.SYSTEM.norm>
0

>  <SCORE.heavy>
42

>  <SCORE.norm>
-0.406187

>  <RMSD>
8.330

$$$$
2o3w_lig
 OpenBabel11021811463D
libRbt.so/2013.1/901 2013/11/27
 42 45  0  0  0  0  0  0  0  0999 V2000
    8.7149    5.9003   -1.5515 C   0  0  2  0  0  0  0  0  0  0  0  0
    7.9750    6.4833   -0.4653 O   0  0  0  0  0  0  0  0  0  0  0  0
    9.3807    7.5709    3.4891 C   0  0  2  0  0  0  0  0  0  0  0  0
   10.0619    8.2701    4.6194 N   0  0  0  0  0  0  0  0  0  0  0  0
    5.8339    8.5975   -0.0567 C   0  0  1  0  0  0  0  0  0  0  0  0
    1.7466    9.0055   -1.8831 C   0  0  1  0  0  0  0  0  0  0  0  0
    8.7597    6.9606   -2.6925 C   0  0  2  0  0  0  0  0  0  0  0  0
    9.1926    8.2852   -2.2144 N   0  0  0  0  0  0  0  0  0  0  0  0
   10.4306    6.9544    2.4794 C   0  0  0  0  0  0  0  0  0  0  0  0
    4.5875    9.3151    0.5453 C   0  0  2  0  0  0  0  0  0  0  0  0
    3.8673    8.5245    1.5227 O   0  0  0  0  0  0  0  0  0  0  0  0
    0.7264    7.8515   -2.1936 C   0  0  2  0  0  0  0  0  0  0  0  0
    1.4097    6.6985   -2.8529 N   0  0  0  0  0  0  0  0  0  0  0  0
    7.3872    7.1563   -3.3624 C   0  0  1  0  0  0  0  0  0  0  0  0
    7.4836    8.1054   -4.4259 O   0  0  0  0  0  0  0  0  0  0  0  0
    9.6546    6.2135    1.3255 C   0  0  2  0  0  0  0  0  0  0  0  0
   10.6137    5.6077    0.3629 N   0  0  0  0  0  0  0  0  0  0  0  0
    3.8088    9.6712   -0.7221 C   0  0  2  0  0  0  0  0  0  0  0  0
    2.8774    8.6072   -1.0980 O   0  0  0  0  0  0  0  0  0  0  0  0
   -0.4545    8.4231   -3.1132 C   0  0  1  0  0  0  0  0  0  0  0  0
   -1.3145    9.2570   -2.3045 O   0  0  0  0  0  0  0  0  0  0  0  0
    6.8612    5.7937   -3.8680 C   0  0  2  0  0  0  0  0  0  0  0  0
    5.6126    5.9583   -4.4991 O   0  0  0  0  0  0  0  0  0  0  0  0
    8.7003    7.2156    0.5633 C   0  0  2  0  0  0  0  0  0  0  0  0
    4.8634    9.9013   -1.8176 C   0  0  2  0  0  0  0  0  0  0  0  0
    5.9197    9.0232   -1.4361 O   0  0  0  0  0  0  0  0  0  0  0  0
    0.0844    9.2646   -4.3658 C   0  0  2  0  0  0  0  0  0  0  0  0
    0.7131    8.3490   -5.2618 O   0  0  0  0  0  0  0  0  0  0  0  0
    6.7430    4.8105   -2.6561 C   0  0  2  0  0  0  0  0  0  0  0  0
    8.0484    4.6637   -2.0125 O   0  0  0  0  0  0  0  0  0  0  0  0
    7.6809    7.9010    1.4995 C   0  0  2  0  0  0  0  0  0  0  0  0
    7.0248    8.9064    0.6791 O   0  0  0  0  0  0  0  0  0  0  0  0
    5.3726   11.3708   -1.9426 C   0  0  0  0  0  0  0  0  0  0  0  0
    6.3364   11.4473   -2.9886 O   0  0  0  0  0  0  0  0  0  0  0  0
    1.1131   10.3620   -3.8970 C   0  0  1  0  0  0  0  0  0  0  0  0
    2.1836    9.6421   -3.1856 O   0  0  0  0  0  0  0  0  0  0  0  0
    6.2394    3.4447   -3.0622 C   0  0  0  0  0  0  0  0  0  0  0  0
    5.9228    2.6856   -1.9208 O   0  0  0  0  0  0  0  0  0  0  0  0
    8.4283    8.5757    2.7250 C   0  0  1  0  0  0  0  0  0  0  0  0
    7.4768    9.0776    3.6676 O   0  0  0  0  0  0  0  0  0  0  0  0
    1.7257   11.2246   -5.0841 C   0  0  0  0  0  0  0  0  0  0  0  0
    2.7676   12.2121   -4.6892 N   0  0  0  0  0  0  0  0  0  0  0  0
  1  2  1  1  0  0  0
  1  7  1  0  0  0  0
  1 30  1  0  0  0  0
  3  4  1  1  0  0  0
  3  9  1  0  0  0  0
  3 39  1  0  0  0  0
  5 10  1  0  0  0  0
  5 26  1  0  0  0  0
  5 32  1  1  0  0  0
  6 12  1  0  0  0  0
  6 36  1  0  0  0  0
  6 19  1  6  0  0  0
  7  8  1  1  0  0  0
  7 14  1  0  0  0  0
  9 16  1  0  0  0  0
 10 11  1  1  0  0  0
 10 18  1  0  0  0  0
 12 13  1  6  0  0  0
 12 20  1  0  0  0  0
 14 15  1  6  0  0  0
 14 22  1  0  0  0  0
 16 17  1  6  0  0  0
 16 24  1  0  0  0  0
 18 19  1  6  0  0  0
 18 25  1  0  0  0  0
 20 21  1  1  0  0  0
 20 27  1  0  0  0  0
 22 23  1  1  0  0  0
 22 29  1  0  0  0  0
 24  2  1  6  0  0  0
 24 31  1  0  0  0  0
 25 26  1  0  0  0  0
 25 33  1  1  0  0  0
 27 28  1  6  0  0  0
 27 35  1  0  0  0  0
 29 30  1  0  0  0  0
 29 37  1  6  0  0  0
 31 32  1  6  0  0  0
 31 39  1  0  0  0  0
 33 34  1  0  0  0  0
 35 36  1  0  0  0  0
 35 41  1  6  0  0  0
 37 38  1  0  0  0  0
 39 40  1  1  0  0  0
 41 42  1  0  0  0  0
M  END
>  <CHROM.1>
-91.37905961,109.95274235,-176.52939521,155.29175895,-64.36912589,-179.86292034
-169.37600534,90.42867558,-176.19116574,5.51352517,7.98162518,-1.40602024
-0.21918927,0.55442782,-2.25982860

>  <Name>
2o3w_lig

>  <RI>
0

>  <Rbt.Current_Directory>
/home/itssahil/PROJECTS/Mol_Feturizer/New_Systems/rnas/2o3w

>  <Rbt.Executable>
rbdock ($Id: //depot/dev/client3/rdock/2013.1/src/exe/rbdock.cxx#4 $)

>  <Rbt.Library>
libRbt.so (2013.1, Build901 2013/11/27)

>  <Rbt.Parameter_File>
/export/apps/rDock/src/rDock_2013.1_src/data/scripts/dock_solv.prm

>  <Rbt.Receptor>
prm/pocket_docking_7.prm

>  <SCORE>
-23.9914

>  <SCORE.INTER>
-19.4082

>  <SCORE.INTER.CONST>
1

>  <SCORE.INTER.POLAR>
-2.80932

>  <SCORE.INTER.ROT>
9

>  <SCORE.INTER.SOLV>
21.6283

>  <SCORE.INTER.VDW>
-20.3838

>  <SCORE.INTER.norm>
-0.462099

>  <SCORE.INTRA>
-4.58325

>  <SCORE.INTRA.DIHEDRAL>
-10.2894

>  <SCORE.INTRA.DIHEDRAL.0>
27.8999

>  <SCORE.INTRA.POLAR>
0

>  <SCORE.INTRA.POLAR.0>
0

>  <SCORE.INTRA.REPUL>
0

>  <SCORE.INTRA.REPUL.0>
0

>  <SCORE.INTRA.SOLV>
-0.772854

>  <SCORE.INTRA.SOLV.lig_0>
-104.479

>  <SCORE.INTRA.VDW>
0.947854

>  <SCORE.INTRA.VDW.0>
-6.17816

>  <SCORE.INTRA.norm>
-0.109125

>  <SCORE.RESTR>
0

>  <SCORE.RESTR.CAVITY>
0

>  <SCORE.RESTR.norm>
0

>  <SCORE.SYSTEM>
0

>  <SCORE.SYSTEM.CONST>
0

>  <SCORE.SYSTEM.DIHEDRAL>
0

>  <SCORE.SYSTEM.SOLV>
0

>  <SCORE.SYSTEM.norm>
0

>  <SCORE.heavy>
42

>  <SCORE.norm>
-0.571224

>  <RMSD>
8.358

$$$$
2o3w_lig
 OpenBabel11021811463D
libRbt.so/2013.1/901 2013/11/27
 42 45  0  0  0  0  0  0  0  0999 V2000
    9.5866    4.9061    7.7656 C   0  0  2  0  0  0  0  0  0  0  0  0
   10.3047    3.9814    6.9310 O   0  0  0  0  0  0  0  0  0  0  0  0
   13.3780    1.0149    7.6731 C   0  0  2  0  0  0  0  0  0  0  0  0
   14.1375   -0.1453    8.2275 N   0  0  0  0  0  0  0  0  0  0  0  0
    9.4836    0.2809    5.2517 C   0  0  1  0  0  0  0  0  0  0  0  0
    7.6765   -1.9794    1.9175 C   0  0  1  0  0  0  0  0  0  0  0  0
    8.1804    4.2871    8.0256 C   0  0  2  0  0  0  0  0  0  0  0  0
    8.2557    2.8870    8.4779 N   0  0  0  0  0  0  0  0  0  0  0  0
   13.1532    2.1312    8.7710 C   0  0  0  0  0  0  0  0  0  0  0  0
    7.9587   -0.0288    5.1539 C   0  0  2  0  0  0  0  0  0  0  0  0
    7.5262   -1.1299    5.9904 O   0  0  0  0  0  0  0  0  0  0  0  0
    6.1450   -1.9351    1.5689 C   0  0  2  0  0  0  0  0  0  0  0  0
    5.3615   -2.8053    2.4962 N   0  0  0  0  0  0  0  0  0  0  0  0
    7.2942    4.3007    6.7665 C   0  0  1  0  0  0  0  0  0  0  0  0
    6.0042    3.7617    7.0604 O   0  0  0  0  0  0  0  0  0  0  0  0
   12.3693    3.3342    8.1224 C   0  0  2  0  0  0  0  0  0  0  0  0
   12.1525    4.4114    9.1255 N   0  0  0  0  0  0  0  0  0  0  0  0
    7.7939   -0.2368    3.6477 C   0  0  2  0  0  0  0  0  0  0  0  0
    7.9901   -1.6376    3.2734 O   0  0  0  0  0  0  0  0  0  0  0  0
    5.9365   -2.3835    0.0450 C   0  0  1  0  0  0  0  0  0  0  0  0
    6.3840   -1.3167   -0.8213 O   0  0  0  0  0  0  0  0  0  0  0  0
    7.1923    5.7442    6.2232 C   0  0  2  0  0  0  0  0  0  0  0  0
    6.3703    5.7765    5.0797 O   0  0  0  0  0  0  0  0  0  0  0  0
   10.9765    2.8502    7.5550 C   0  0  2  0  0  0  0  0  0  0  0  0
    8.8387    0.6708    2.9769 C   0  0  2  0  0  0  0  0  0  0  0  0
    9.8972    0.7018    3.9315 O   0  0  0  0  0  0  0  0  0  0  0  0
    6.7194   -3.7334   -0.3189 C   0  0  2  0  0  0  0  0  0  0  0  0
    6.0780   -4.8036    0.3737 O   0  0  0  0  0  0  0  0  0  0  0  0
    8.6291    6.2655    5.8864 C   0  0  2  0  0  0  0  0  0  0  0  0
    9.4650    6.2133    7.0857 O   0  0  0  0  0  0  0  0  0  0  0  0
   11.1148    1.7171    6.5147 C   0  0  2  0  0  0  0  0  0  0  0  0
    9.7551    1.2772    6.2462 O   0  0  0  0  0  0  0  0  0  0  0  0
    8.3417    2.1115    2.6431 C   0  0  0  0  0  0  0  0  0  0  0  0
    9.3795    2.8248    1.9774 O   0  0  0  0  0  0  0  0  0  0  0  0
    8.2312   -3.6329    0.1131 C   0  0  1  0  0  0  0  0  0  0  0  0
    8.2257   -3.3439    1.5576 O   0  0  0  0  0  0  0  0  0  0  0  0
    8.6244    7.6792    5.3523 C   0  0  0  0  0  0  0  0  0  0  0  0
    9.9377    8.0926    5.0630 O   0  0  0  0  0  0  0  0  0  0  0  0
   11.9829    0.5298    7.1084 C   0  0  1  0  0  0  0  0  0  0  0  0
   12.2377   -0.4487    6.0969 O   0  0  0  0  0  0  0  0  0  0  0  0
    9.0776   -4.9464   -0.1814 C   0  0  0  0  0  0  0  0  0  0  0  0
    8.6997   -6.1460    0.6152 N   0  0  0  0  0  0  0  0  0  0  0  0
  1  2  1  6  0  0  0
  1  7  1  0  0  0  0
  1 30  1  0  0  0  0
  3  4  1  1  0  0  0
  3  9  1  0  0  0  0
  3 39  1  0  0  0  0
  5 10  1  0  0  0  0
  5 26  1  0  0  0  0
  5 32  1  1  0  0  0
  6 12  1  0  0  0  0
  6 36  1  0  0  0  0
  6 19  1  1  0  0  0
  7  8  1  6  0  0  0
  7 14  1  0  0  0  0
  9 16  1  0  0  0  0
 10 11  1  1  0  0  0
 10 18  1  0  0  0  0
 12 13  1  1  0  0  0
 12 20  1  0  0  0  0
 14 15  1  1  0  0  0
 14 22  1  0  0  0  0
 16 17  1  1  0  0  0
 16 24  1  0  0  0  0
 18 19  1  1  0  0  0
 18 25  1  0  0  0  0
 20 21  1  6  0  0  0
 20 27  1  0  0  0  0
 22 23  1  6  0  0  0
 22 29  1  0  0  0  0
 24  2  1  6  0  0  0
 24 31  1  0  0  0  0
 25 26  1  0  0  0  0
 25 33  1  1  0  0  0
 27 28  1  1  0  0  0
 27 35  1  0  0  0  0
 29 30  1  0  0  0  0
 29 37  1  1  0  0  0
 31 32  1  1  0  0  0
 31 39  1  0  0  0  0
 33 34  1  0  0  0  0
 35 36  1  0  0  0  0
 35 41  1  1  0  0  0
 37 38  1  0  0  0  0
 39 40  1  6  0  0  0
 41 42  1  0  0  0  0
M  END
>  <CHROM.1>
-82.85612406,179.63877718,-69.58420340,171.59791328,-81.64514724,-177.50422574
-179.78758884,175.94961173,-66.84461723,8.95407657,1.13454037,4.67489052
1.23851706,-0.68257713,0.45934003

>  <Name>
2o3w_lig

>  <RI>
0

>  <Rbt.Current_Directory>
/home/itssahil/PROJECTS/Mol_Feturizer/New_Systems/rnas/2o3w

>  <Rbt.Executable>
rbdock ($Id: //depot/dev/client3/rdock/2013.1/src/exe/rbdock.cxx#4 $)

>  <Rbt.Library>
libRbt.so (2013.1, Build901 2013/11/27)

>  <Rbt.Parameter_File>
/export/apps/rDock/src/rDock_2013.1_src/data/scripts/dock_solv.prm

>  <Rbt.Receptor>
prm/pocket_docking_7.prm

>  <SCORE>
-16.448

>  <SCORE.INTER>
-6.62709

>  <SCORE.INTER.CONST>
1

>  <SCORE.INTER.POLAR>
-0.894427

>  <SCORE.INTER.ROT>
9

>  <SCORE.INTER.SOLV>
8.48547

>  <SCORE.INTER.VDW>
-13.8651

>  <SCORE.INTER.norm>
-0.157788

>  <SCORE.INTRA>
-9.82094

>  <SCORE.INTRA.DIHEDRAL>
-22.3652

>  <SCORE.INTRA.DIHEDRAL.0>
27.8999

>  <SCORE.INTRA.POLAR>
0

>  <SCORE.INTRA.POLAR.0>
0

>  <SCORE.INTRA.REPUL>
0

>  <SCORE.INTRA.REPUL.0>
0

>  <SCORE.INTRA.SOLV>
-1.23075

>  <SCORE.INTRA.SOLV.lig_0>
-104.479

>  <SCORE.INTRA.VDW>
1.97702

>  <SCORE.INTRA.VDW.0>
-6.17816

>  <SCORE.INTRA.norm>
-0.233832

>  <SCORE.RESTR>
0

>  <SCORE.RESTR.CAVITY>
0

>  <SCORE.RESTR.norm>
0

>  <SCORE.SYSTEM>
0

>  <SCORE.SYSTEM.CONST>
0

>  <SCORE.SYSTEM.DIHEDRAL>
0

>  <SCORE.SYSTEM.SOLV>
0

>  <SCORE.SYSTEM.norm>
0

>  <SCORE.heavy>
42

>  <SCORE.norm>
-0.39162

>  <RMSD>
8.375

$$$$
2o3w_lig
 OpenBabel11021811463D
libRbt.so/2013.1/901 2013/11/27
 42 45  0  0  0  0  0  0  0  0999 V2000
    7.1134    6.7740    2.0854 C   0  0  2  0  0  0  0  0  0  0  0  0
    7.5487    7.2372    3.3750 O   0  0  0  0  0  0  0  0  0  0  0  0
    9.4414    5.5171    6.8757 C   0  0  2  0  0  0  0  0  0  0  0  0
    9.8513    4.5726    7.9575 N   0  0  0  0  0  0  0  0  0  0  0  0
    8.5697    4.0158    2.7158 C   0  0  1  0  0  0  0  0  0  0  0  0
    7.0154    0.0862    1.6677 C   0  0  1  0  0  0  0  0  0  0  0  0
    7.3232    7.9501    1.0848 C   0  0  2  0  0  0  0  0  0  0  0  0
    8.6741    8.5312    1.1732 N   0  0  0  0  0  0  0  0  0  0  0  0
    7.9002    5.8608    6.9674 C   0  0  0  0  0  0  0  0  0  0  0  0
    8.9212    3.3519    1.3496 C   0  0  2  0  0  0  0  0  0  0  0  0
    8.1592    3.8676    0.2305 O   0  0  0  0  0  0  0  0  0  0  0  0
    5.6473   -0.4036    1.0701 C   0  0  2  0  0  0  0  0  0  0  0  0
    4.5227    0.4649    1.5302 N   0  0  0  0  0  0  0  0  0  0  0  0
    6.3277    9.1012    1.3191 C   0  0  1  0  0  0  0  0  0  0  0  0
    6.5301   10.1374    0.3567 O   0  0  0  0  0  0  0  0  0  0  0  0
    7.5343    6.8748    5.8182 C   0  0  2  0  0  0  0  0  0  0  0  0
    6.0914    7.2320    5.8835 N   0  0  0  0  0  0  0  0  0  0  0  0
    8.7039    1.8730    1.6734 C   0  0  2  0  0  0  0  0  0  0  0  0
    7.3286    1.4579    1.3959 O   0  0  0  0  0  0  0  0  0  0  0  0
    5.4037   -1.9307    1.4892 C   0  0  1  0  0  0  0  0  0  0  0  0
    6.2883   -2.7738    0.7174 O   0  0  0  0  0  0  0  0  0  0  0  0
    4.8834    8.5533    1.2632 C   0  0  2  0  0  0  0  0  0  0  0  0
    3.9591    9.5981    1.4592 O   0  0  0  0  0  0  0  0  0  0  0  0
    7.8635    6.2550    4.4029 C   0  0  2  0  0  0  0  0  0  0  0  0
    9.0451    1.7102    3.1642 C   0  0  2  0  0  0  0  0  0  0  0  0
    8.6921    2.9771    3.7145 O   0  0  0  0  0  0  0  0  0  0  0  0
    5.6420   -2.1924    3.0519 C   0  0  2  0  0  0  0  0  0  0  0  0
    4.5908   -1.5401    3.7633 O   0  0  0  0  0  0  0  0  0  0  0  0
    4.7129    7.4507    2.3609 C   0  0  2  0  0  0  0  0  0  0  0  0
    5.6886    6.3832    2.1417 O   0  0  0  0  0  0  0  0  0  0  0  0
    9.3447    5.8416    4.2599 C   0  0  2  0  0  0  0  0  0  0  0  0
    9.4231    5.1340    2.9920 O   0  0  0  0  0  0  0  0  0  0  0  0
   10.5366    1.3640    3.4640 C   0  0  0  0  0  0  0  0  0  0  0  0
   10.7057    1.1878    4.8673 O   0  0  0  0  0  0  0  0  0  0  0  0
    7.0404   -1.6244    3.5037 C   0  0  1  0  0  0  0  0  0  0  0  0
    7.0323   -0.1929    3.1560 O   0  0  0  0  0  0  0  0  0  0  0  0
    3.3251    6.8526    2.3735 C   0  0  0  0  0  0  0  0  0  0  0  0
    3.0824    6.1652    1.1703 O   0  0  0  0  0  0  0  0  0  0  0  0
    9.7684    4.8944    5.4595 C   0  0  1  0  0  0  0  0  0  0  0  0
   11.1741    4.6351    5.4106 O   0  0  0  0  0  0  0  0  0  0  0  0
    7.3456   -1.8120    5.0530 C   0  0  0  0  0  0  0  0  0  0  0  0
    8.6765   -1.3245    5.5090 N   0  0  0  0  0  0  0  0  0  0  0  0
  1  2  1  1  0  0  0
  1  7  1  0  0  0  0
  1 30  1  0  0  0  0
  3  4  1  1  0  0  0
  3  9  1  0  0  0  0
  3 39  1  0  0  0  0
  5 10  1  0  0  0  0
  5 26  1  0  0  0  0
  5 32  1  1  0  0  0
  6 12  1  0  0  0  0
  6 36  1  0  0  0  0
  6 19  1  1  0  0  0
  7  8  1  1  0  0  0
  7 14  1  0  0  0  0
  9 16  1  0  0  0  0
 10 11  1  6  0  0  0
 10 18  1  0  0  0  0
 12 13  1  1  0  0  0
 12 20  1  0  0  0  0
 14 15  1  6  0  0  0
 14 22  1  0  0  0  0
 16 17  1  6  0  0  0
 16 24  1  0  0  0  0
 18 19  1  1  0  0  0
 18 25  1  0  0  0  0
 20 21  1  6  0  0  0
 20 27  1  0  0  0  0
 22 23  1  1  0  0  0
 22 29  1  0  0  0  0
 24  2  1  6  0  0  0
 24 31  1  0  0  0  0
 25 26  1  0  0  0  0
 25 33  1  6  0  0  0
 27 28  1  1  0  0  0
 27 35  1  0  0  0  0
 29 30  1  0  0  0  0
 29 37  1  6  0  0  0
 31 32  1  6  0  0  0
 31 39  1  0  0  0  0
 33 34  1  0  0  0  0
 35 36  1  0  0  0  0
 35 41  1  1  0  0  0
 37 38  1  0  0  0  0
 39 40  1  1  0  0  0
 41 42  1  0  0  0  0
M  END
>  <CHROM.1>
-160.99509603,-175.18199257,-167.09185510,-179.88394652,-149.05813370,-177.65248648
64.75862038,-54.53898379,178.20355938,7.31010061,3.81238233,3.05677775,1.67053000
-0.74762972,0.01096204

>  <Name>
2o3w_lig

>  <RI>
0

>  <Rbt.Current_Directory>
/home/itssahil/PROJECTS/Mol_Feturizer/New_Systems/rnas/2o3w

>  <Rbt.Executable>
rbdock ($Id: //depot/dev/client3/rdock/2013.1/src/exe/rbdock.cxx#4 $)

>  <Rbt.Library>
libRbt.so (2013.1, Build901 2013/11/27)

>  <Rbt.Parameter_File>
/export/apps/rDock/src/rDock_2013.1_src/data/scripts/dock_solv.prm

>  <Rbt.Receptor>
prm/pocket_docking_4.prm

>  <SCORE>
-15.4228

>  <SCORE.INTER>
-5.68285

>  <SCORE.INTER.CONST>
1

>  <SCORE.INTER.POLAR>
-1.08966

>  <SCORE.INTER.ROT>
9

>  <SCORE.INTER.SOLV>
12.731

>  <SCORE.INTER.VDW>
-14

>  <SCORE.INTER.norm>
-0.135306

>  <SCORE.INTRA>
-10.0234

>  <SCORE.INTRA.DIHEDRAL>
-21.2181

>  <SCORE.INTRA.DIHEDRAL.0>
27.8999

>  <SCORE.INTRA.POLAR>
0

>  <SCORE.INTRA.POLAR.0>
0

>  <SCORE.INTRA.REPUL>
0

>  <SCORE.INTRA.REPUL.0>
0

>  <SCORE.INTRA.SOLV>
-2.12114

>  <SCORE.INTRA.SOLV.lig_0>
-104.479

>  <SCORE.INTRA.VDW>
1.6462

>  <SCORE.INTRA.VDW.0>
-6.17816

>  <SCORE.INTRA.norm>
-0.238653

>  <SCORE.RESTR>
0.283461

>  <SCORE.RESTR.CAVITY>
0.283461

>  <SCORE.RESTR.norm>
0.00674908

>  <SCORE.SYSTEM>
0

>  <SCORE.SYSTEM.CONST>
0

>  <SCORE.SYSTEM.DIHEDRAL>
0

>  <SCORE.SYSTEM.SOLV>
0

>  <SCORE.SYSTEM.norm>
0

>  <SCORE.heavy>
42

>  <SCORE.norm>
-0.36721

>  <RMSD>
8.403

$$$$
2o3w_lig
 OpenBabel11021811463D
libRbt.so/2013.1/901 2013/11/27
 42 45  0  0  0  0  0  0  0  0999 V2000
    7.4563    3.7820   -0.2477 C   0  0  2  0  0  0  0  0  0  0  0  0
    6.3351    4.4060    0.4011 O   0  0  0  0  0  0  0  0  0  0  0  0
    2.1295    4.2627   -0.6423 C   0  0  2  0  0  0  0  0  0  0  0  0
    0.7289    3.7936   -0.8624 N   0  0  0  0  0  0  0  0  0  0  0  0
    5.4691    4.7846    3.2145 C   0  0  1  0  0  0  0  0  0  0  0  0
    7.8213    6.8108    6.1501 C   0  0  1  0  0  0  0  0  0  0  0  0
    8.7008    4.0289    0.6570 C   0  0  2  0  0  0  0  0  0  0  0  0
    8.4528    3.6754    2.0656 N   0  0  0  0  0  0  0  0  0  0  0  0
    3.1461    3.4944   -1.5794 C   0  0  0  0  0  0  0  0  0  0  0  0
    4.9630    6.1579    3.7518 C   0  0  2  0  0  0  0  0  0  0  0  0
    5.2094    7.2686    2.8548 O   0  0  0  0  0  0  0  0  0  0  0  0
    8.8582    7.9848    6.2752 C   0  0  2  0  0  0  0  0  0  0  0  0
    9.7055    8.0810    5.0489 N   0  0  0  0  0  0  0  0  0  0  0  0
    9.1521    5.5010    0.6407 C   0  0  1  0  0  0  0  0  0  0  0  0
   10.3167    5.6731    1.4501 O   0  0  0  0  0  0  0  0  0  0  0  0
    4.5984    4.0468   -1.3181 C   0  0  2  0  0  0  0  0  0  0  0  0
    5.5808    3.3547   -2.1954 N   0  0  0  0  0  0  0  0  0  0  0  0
    5.6742    6.2282    5.1040 C   0  0  2  0  0  0  0  0  0  0  0  0
    6.9803    6.8782    4.9917 O   0  0  0  0  0  0  0  0  0  0  0  0
    9.7587    7.7579    7.5807 C   0  0  1  0  0  0  0  0  0  0  0  0
    8.9643    8.0485    8.7525 O   0  0  0  0  0  0  0  0  0  0  0  0
    9.4074    5.9459   -0.8174 C   0  0  2  0  0  0  0  0  0  0  0  0
    9.8377    7.2869   -0.8482 O   0  0  0  0  0  0  0  0  0  0  0  0
    5.0063    3.8473    0.1951 C   0  0  2  0  0  0  0  0  0  0  0  0
    5.8148    4.7744    5.5858 C   0  0  2  0  0  0  0  0  0  0  0  0
    5.9269    4.0420    4.3678 O   0  0  0  0  0  0  0  0  0  0  0  0
   10.3409    6.2687    7.6836 C   0  0  2  0  0  0  0  0  0  0  0  0
   11.3111    6.1128    6.6488 O   0  0  0  0  0  0  0  0  0  0  0  0
    8.0899    5.7687   -1.6433 C   0  0  2  0  0  0  0  0  0  0  0  0
    7.6588    4.3719   -1.5881 O   0  0  0  0  0  0  0  0  0  0  0  0
    4.0234    4.5253    1.1746 C   0  0  2  0  0  0  0  0  0  0  0  0
    4.4408    4.0892    2.4975 O   0  0  0  0  0  0  0  0  0  0  0  0
    4.6261    4.2494    6.4492 C   0  0  0  0  0  0  0  0  0  0  0  0
    4.8666    2.8911    6.8045 O   0  0  0  0  0  0  0  0  0  0  0  0
    9.1881    5.2083    7.5144 C   0  0  1  0  0  0  0  0  0  0  0  0
    8.5603    5.4906    6.2119 O   0  0  0  0  0  0  0  0  0  0  0  0
    8.2511    6.1760   -3.0897 C   0  0  0  0  0  0  0  0  0  0  0  0
    7.0177    6.0827   -3.7601 O   0  0  0  0  0  0  0  0  0  0  0  0
    2.5378    4.0596    0.8718 C   0  0  1  0  0  0  0  0  0  0  0  0
    1.6151    4.7998    1.6758 O   0  0  0  0  0  0  0  0  0  0  0  0
    9.6837    3.6983    7.5699 C   0  0  0  0  0  0  0  0  0  0  0  0
    8.6381    2.6694    7.3159 N   0  0  0  0  0  0  0  0  0  0  0  0
  1  2  1  1  0  0  0
  1  7  1  0  0  0  0
  1 30  1  0  0  0  0
  3  4  1  1  0  0  0
  3  9  1  0  0  0  0
  3 39  1  0  0  0  0
  5 10  1  0  0  0  0
  5 26  1  0  0  0  0
  5 32  1  1  0  0  0
  6 12  1  0  0  0  0
  6 36  1  0  0  0  0
  6 19  1  6  0  0  0
  7  8  1  1  0  0  0
  7 14  1  0  0  0  0
  9 16  1  0  0  0  0
 10 11  1  6  0  0  0
 10 18  1  0  0  0  0
 12 13  1  6  0  0  0
 12 20  1  0  0  0  0
 14 15  1  1  0  0  0
 14 22  1  0  0  0  0
 16 17  1  6  0  0  0
 16 24  1  0  0  0  0
 18 19  1  6  0  0  0
 18 25  1  0  0  0  0
 20 21  1  1  0  0  0
 20 27  1  0  0  0  0
 22 23  1  1  0  0  0
 22 29  1  0  0  0  0
 24  2  1  6  0  0  0
 24 31  1  0  0  0  0
 25 26  1  0  0  0  0
 25 33  1  6  0  0  0
 27 28  1  6  0  0  0
 27 35  1  0  0  0  0
 29 30  1  0  0  0  0
 29 37  1  6  0  0  0
 31 32  1  1  0  0  0
 31 39  1  0  0  0  0
 33 34  1  0  0  0  0
 35 36  1  0  0  0  0
 35 41  1  6  0  0  0
 37 38  1  0  0  0  0
 39 40  1  1  0  0  0
 41 42  1  0  0  0  0
M  END
>  <CHROM.1>
-150.71286655,73.01272870,-153.64083275,-170.51678493,-66.46067774,178.79447203
-176.01874529,85.72086308,-175.77461288,6.84228189,5.20997541,2.69670154
-2.01779043,0.31897786,1.54274175

>  <Name>
2o3w_lig

>  <RI>
0

>  <Rbt.Current_Directory>
/home/itssahil/PROJECTS/Mol_Feturizer/New_Systems/rnas/2o3w

>  <Rbt.Executable>
rbdock ($Id: //depot/dev/client3/rdock/2013.1/src/exe/rbdock.cxx#4 $)

>  <Rbt.Library>
libRbt.so (2013.1, Build901 2013/11/27)

>  <Rbt.Parameter_File>
/export/apps/rDock/src/rDock_2013.1_src/data/scripts/dock_solv.prm

>  <Rbt.Receptor>
prm/pocket_docking_6.prm

>  <SCORE>
-18.1809

>  <SCORE.INTER>
-12.4954

>  <SCORE.INTER.CONST>
1

>  <SCORE.INTER.POLAR>
-1.77779

>  <SCORE.INTER.ROT>
9

>  <SCORE.INTER.SOLV>
10.9591

>  <SCORE.INTER.VDW>
-15.6574

>  <SCORE.INTER.norm>
-0.29751

>  <SCORE.INTRA>
-5.68797

>  <SCORE.INTRA.DIHEDRAL>
-17.0441

>  <SCORE.INTRA.DIHEDRAL.0>
27.8999

>  <SCORE.INTRA.POLAR>
0

>  <SCORE.INTRA.POLAR.0>
0

>  <SCORE.INTRA.REPUL>
0

>  <SCORE.INTRA.REPUL.0>
0

>  <SCORE.INTRA.SOLV>
-0.248722

>  <SCORE.INTRA.SOLV.lig_0>
-104.479

>  <SCORE.INTRA.VDW>
2.95844

>  <SCORE.INTRA.VDW.0>
-6.17816

>  <SCORE.INTRA.norm>
-0.135428

>  <SCORE.RESTR>
0.00251608

>  <SCORE.RESTR.CAVITY>
0.00251608

>  <SCORE.RESTR.norm>
5.99066e-05

>  <SCORE.SYSTEM>
0

>  <SCORE.SYSTEM.CONST>
0

>  <SCORE.SYSTEM.DIHEDRAL>
0

>  <SCORE.SYSTEM.SOLV>
0

>  <SCORE.SYSTEM.norm>
0

>  <SCORE.heavy>
42

>  <SCORE.norm>
-0.432878

>  <RMSD>
8.468

$$$$
2o3w_lig
 OpenBabel11021811463D
libRbt.so/2013.1/901 2013/11/27
 42 45  0  0  0  0  0  0  0  0999 V2000
    7.2567    4.6442    5.3498 C   0  0  2  0  0  0  0  0  0  0  0  0
    6.9541    3.6561    6.3495 O   0  0  0  0  0  0  0  0  0  0  0  0
   10.5739    1.3057    5.9385 C   0  0  2  0  0  0  0  0  0  0  0  0
   11.6196    0.2535    6.1108 N   0  0  0  0  0  0  0  0  0  0  0  0
    6.4808    0.0882    4.2159 C   0  0  1  0  0  0  0  0  0  0  0  0
    4.8710   -3.2998    1.8982 C   0  0  1  0  0  0  0  0  0  0  0  0
    6.0998    5.6878    5.3767 C   0  0  2  0  0  0  0  0  0  0  0  0
    5.8080    6.1710    6.7375 N   0  0  0  0  0  0  0  0  0  0  0  0
   10.3996    2.1630    7.2563 C   0  0  0  0  0  0  0  0  0  0  0  0
    6.3941   -1.3632    4.7786 C   0  0  2  0  0  0  0  0  0  0  0  0
    7.6523   -2.0811    4.7536 O   0  0  0  0  0  0  0  0  0  0  0  0
    4.2074   -4.5270    2.6210 C   0  0  2  0  0  0  0  0  0  0  0  0
    5.2465   -5.4631    3.1452 N   0  0  0  0  0  0  0  0  0  0  0  0
    4.7844    5.1165    4.8160 C   0  0  1  0  0  0  0  0  0  0  0  0
    3.7647    6.1170    4.8230 O   0  0  0  0  0  0  0  0  0  0  0  0
    9.3032    3.2665    7.0058 C   0  0  2  0  0  0  0  0  0  0  0  0
    9.1233    4.1028    8.2232 N   0  0  0  0  0  0  0  0  0  0  0  0
    5.2788   -1.9513    3.9130 C   0  0  2  0  0  0  0  0  0  0  0  0
    5.8102   -2.5717    2.6991 O   0  0  0  0  0  0  0  0  0  0  0  0
    3.2231   -5.2728    1.6003 C   0  0  1  0  0  0  0  0  0  0  0  0
    2.0384   -4.4650    1.4191 O   0  0  0  0  0  0  0  0  0  0  0  0
    5.0265    4.5673    3.3916 C   0  0  2  0  0  0  0  0  0  0  0  0
    3.8276    4.0556    2.8575 O   0  0  0  0  0  0  0  0  0  0  0  0
    7.9252    2.6028    6.6102 C   0  0  2  0  0  0  0  0  0  0  0  0
    4.3410   -0.7800    3.5754 C   0  0  2  0  0  0  0  0  0  0  0  0
    5.2229    0.3398    3.5483 O   0  0  0  0  0  0  0  0  0  0  0  0
    3.9017   -5.5560    0.1766 C   0  0  2  0  0  0  0  0  0  0  0  0
    4.9061   -6.5513    0.3682 O   0  0  0  0  0  0  0  0  0  0  0  0
    6.1241    3.4533    3.4537 C   0  0  2  0  0  0  0  0  0  0  0  0
    7.3545    4.0060    4.0198 O   0  0  0  0  0  0  0  0  0  0  0  0
    8.0313    1.7023    5.3600 C   0  0  2  0  0  0  0  0  0  0  0  0
    6.7407    1.0405    5.2554 O   0  0  0  0  0  0  0  0  0  0  0  0
    3.1782   -0.5542    4.5909 C   0  0  0  0  0  0  0  0  0  0  0  0
    2.3713    0.5329    4.1480 O   0  0  0  0  0  0  0  0  0  0  0  0
    4.5425   -4.2396   -0.4054 C   0  0  1  0  0  0  0  0  0  0  0  0
    5.5053   -3.7713    0.6065 O   0  0  0  0  0  0  0  0  0  0  0  0
    6.4301    2.8622    2.0969 C   0  0  0  0  0  0  0  0  0  0  0  0
    6.9567    3.8503    1.2451 O   0  0  0  0  0  0  0  0  0  0  0  0
    9.1944    0.6401    5.5457 C   0  0  1  0  0  0  0  0  0  0  0  0
    9.3924   -0.0918    4.3329 O   0  0  0  0  0  0  0  0  0  0  0  0
    5.2696   -4.4375   -1.8057 C   0  0  0  0  0  0  0  0  0  0  0  0
    5.9021   -3.2178   -2.3790 N   0  0  0  0  0  0  0  0  0  0  0  0
  1  2  1  1  0  0  0
  1  7  1  0  0  0  0
  1 30  1  0  0  0  0
  3  4  1  1  0  0  0
  3  9  1  0  0  0  0
  3 39  1  0  0  0  0
  5 10  1  0  0  0  0
  5 26  1  0  0  0  0
  5 32  1  1  0  0  0
  6 12  1  0  0  0  0
  6 36  1  0  0  0  0
  6 19  1  1  0  0  0
  7  8  1  1  0  0  0
  7 14  1  0  0  0  0
  9 16  1  0  0  0  0
 10 11  1  6  0  0  0
 10 18  1  0  0  0  0
 12 13  1  6  0  0  0
 12 20  1  0  0  0  0
 14 15  1  6  0  0  0
 14 22  1  0  0  0  0
 16 17  1  1  0  0  0
 16 24  1  0  0  0  0
 18 19  1  6  0  0  0
 18 25  1  0  0  0  0
 20 21  1  6  0  0  0
 20 27  1  0  0  0  0
 22 23  1  1  0  0  0
 22 29  1  0  0  0  0
 24  2  1  6  0  0  0
 24 31  1  0  0  0  0
 25 26  1  0  0  0  0
 25 33  1  1  0  0  0
 27 28  1  1  0  0  0
 27 35  1  0  0  0  0
 29 30  1  0  0  0  0
 29 37  1  6  0  0  0
 31 32  1  1  0  0  0
 31 39  1  0  0  0  0
 33 34  1  0  0  0  0
 35 36  1  0  0  0  0
 35 41  1  6  0  0  0
 37 38  1  0  0  0  0
 39 40  1  6  0  0  0
 41 42  1  0  0  0  0
M  END
>  <CHROM.1>
-175.60210512,108.88137456,-61.63748739,172.48459859,56.87355142,-178.65142488
62.95398198,-178.37308594,-179.27796655,6.14070229,0.28553102,3.67909275
1.23589346,-0.55644221,0.33176866

>  <Name>
2o3w_lig

>  <RI>
0

>  <Rbt.Current_Directory>
/home/itssahil/PROJECTS/Mol_Feturizer/New_Systems/rnas/2o3w

>  <Rbt.Executable>
rbdock ($Id: //depot/dev/client3/rdock/2013.1/src/exe/rbdock.cxx#4 $)

>  <Rbt.Library>
libRbt.so (2013.1, Build901 2013/11/27)

>  <Rbt.Parameter_File>
/export/apps/rDock/src/rDock_2013.1_src/data/scripts/dock_solv.prm

>  <Rbt.Receptor>
prm/pocket_docking_7.prm

>  <SCORE>
-12.2897

>  <SCORE.INTER>
-1.52082

>  <SCORE.INTER.CONST>
1

>  <SCORE.INTER.POLAR>
-0.938083

>  <SCORE.INTER.ROT>
9

>  <SCORE.INTER.SOLV>
9.29903

>  <SCORE.INTER.VDW>
-10.5866

>  <SCORE.INTER.norm>
-0.0362099

>  <SCORE.INTRA>
-10.7688

>  <SCORE.INTRA.DIHEDRAL>
-20.6644

>  <SCORE.INTRA.DIHEDRAL.0>
27.8999

>  <SCORE.INTRA.POLAR>
0

>  <SCORE.INTRA.POLAR.0>
0

>  <SCORE.INTRA.REPUL>
0.000599126

>  <SCORE.INTRA.REPUL.0>
0

>  <SCORE.INTRA.SOLV>
-4.18242

>  <SCORE.INTRA.SOLV.lig_0>
-104.479

>  <SCORE.INTRA.VDW>
1.65159

>  <SCORE.INTRA.VDW.0>
-6.17816

>  <SCORE.INTRA.norm>
-0.256401

>  <SCORE.RESTR>
0

>  <SCORE.RESTR.CAVITY>
0

>  <SCORE.RESTR.norm>
0

>  <SCORE.SYSTEM>
0

>  <SCORE.SYSTEM.CONST>
0

>  <SCORE.SYSTEM.DIHEDRAL>
0

>  <SCORE.SYSTEM.SOLV>
0

>  <SCORE.SYSTEM.norm>
0

>  <SCORE.heavy>
42

>  <SCORE.norm>
-0.292611

>  <RMSD>
8.505

$$$$
2o3w_lig
 OpenBabel11021811463D
libRbt.so/2013.1/901 2013/11/27
 42 45  0  0  0  0  0  0  0  0999 V2000
    9.3705    6.9722    5.5857 C   0  0  2  0  0  0  0  0  0  0  0  0
    8.7180    5.6966    5.7050 O   0  0  0  0  0  0  0  0  0  0  0  0
   11.8500    3.6601    7.9048 C   0  0  2  0  0  0  0  0  0  0  0  0
   12.6407    2.6212    8.6300 N   0  0  0  0  0  0  0  0  0  0  0  0
    9.3402    2.4286    4.4284 C   0  0  1  0  0  0  0  0  0  0  0  0
    7.4391   -1.4097    3.4171 C   0  0  1  0  0  0  0  0  0  0  0  0
    8.4105    7.9011    4.7833 C   0  0  2  0  0  0  0  0  0  0  0  0
    7.0383    7.8918    5.3194 N   0  0  0  0  0  0  0  0  0  0  0  0
   10.5162    4.0107    8.6794 C   0  0  0  0  0  0  0  0  0  0  0  0
    8.6552    2.1631    3.0532 C   0  0  2  0  0  0  0  0  0  0  0  0
    7.3296    2.7356    2.9349 O   0  0  0  0  0  0  0  0  0  0  0  0
    7.2671   -1.9059    1.9362 C   0  0  2  0  0  0  0  0  0  0  0  0
    6.0903   -1.2531    1.2882 N   0  0  0  0  0  0  0  0  0  0  0  0
    8.3114    7.4981    3.3005 C   0  0  1  0  0  0  0  0  0  0  0  0
    7.4542    8.3984    2.5966 O   0  0  0  0  0  0  0  0  0  0  0  0
    9.7394    5.1241    7.8798 C   0  0  2  0  0  0  0  0  0  0  0  0
    8.4836    5.4895    8.5890 N   0  0  0  0  0  0  0  0  0  0  0  0
    8.7269    0.6372    2.9754 C   0  0  2  0  0  0  0  0  0  0  0  0
    7.5412    0.0123    3.5622 O   0  0  0  0  0  0  0  0  0  0  0  0
    7.1178   -3.5011    1.9271 C   0  0  1  0  0  0  0  0  0  0  0  0
    8.4074   -4.0926    2.2024 O   0  0  0  0  0  0  0  0  0  0  0  0
    9.7265    7.4645    2.6796 C   0  0  2  0  0  0  0  0  0  0  0  0
    9.6516    7.1133    1.3175 O   0  0  0  0  0  0  0  0  0  0  0  0
    9.3980    4.6258    6.4200 C   0  0  2  0  0  0  0  0  0  0  0  0
   10.0027    0.2330    3.7333 C   0  0  2  0  0  0  0  0  0  0  0  0
   10.1216    1.2488    4.7265 O   0  0  0  0  0  0  0  0  0  0  0  0
    6.0460   -4.0316    2.9936 C   0  0  2  0  0  0  0  0  0  0  0  0
    4.7533   -3.6309    2.5412 O   0  0  0  0  0  0  0  0  0  0  0  0
   10.6057    6.4373    3.4680 C   0  0  2  0  0  0  0  0  0  0  0  0
   10.6601    6.8177    4.8795 O   0  0  0  0  0  0  0  0  0  0  0  0
   10.6524    4.2108    5.6202 C   0  0  2  0  0  0  0  0  0  0  0  0
   10.1443    3.6149    4.3950 O   0  0  0  0  0  0  0  0  0  0  0  0
   11.2909    0.1514    2.8569 C   0  0  0  0  0  0  0  0  0  0  0  0
   11.1000   -0.8156    1.8287 O   0  0  0  0  0  0  0  0  0  0  0  0
    6.3358   -3.4283    4.4199 C   0  0  1  0  0  0  0  0  0  0  0  0
    6.3086   -1.9643    4.2582 O   0  0  0  0  0  0  0  0  0  0  0  0
   12.0147    6.3442    2.9298 C   0  0  0  0  0  0  0  0  0  0  0  0
   12.7240    5.3311    3.6005 O   0  0  0  0  0  0  0  0  0  0  0  0
   11.5061    3.1589    6.4450 C   0  0  1  0  0  0  0  0  0  0  0  0
   12.7401    2.8901    5.7737 O   0  0  0  0  0  0  0  0  0  0  0  0
    5.2963   -3.8774    5.5363 C   0  0  0  0  0  0  0  0  0  0  0  0
    5.2775   -5.3330    5.8482 N   0  0  0  0  0  0  0  0  0  0  0  0
  1  2  1  6  0  0  0
  1  7  1  0  0  0  0
  1 30  1  0  0  0  0
  3  4  1  1  0  0  0
  3  9  1  0  0  0  0
  3 39  1  0  0  0  0
  5 10  1  0  0  0  0
  5 26  1  0  0  0  0
  5 32  1  6  0  0  0
  6 12  1  0  0  0  0
  6 36  1  0  0  0  0
  6 19  1  6  0  0  0
  7  8  1  1  0  0  0
  7 14  1  0  0  0  0
  9 16  1  0  0  0  0
 10 11  1  1  0  0  0
 10 18  1  0  0  0  0
 12 13  1  1  0  0  0
 12 20  1  0  0  0  0
 14 15  1  6  0  0  0
 14 22  1  0  0  0  0
 16 17  1  1  0  0  0
 16 24  1  0  0  0  0
 18 19  1  1  0  0  0
 18 25  1  0  0  0  0
 20 21  1  1  0  0  0
 20 27  1  0  0  0  0
 22 23  1  6  0  0  0
 22 29  1  0  0  0  0
 24  2  1  6  0  0  0
 24 31  1  0  0  0  0
 25 26  1  0  0  0  0
 25 33  1  6  0  0  0
 27 28  1  6  0  0  0
 27 35  1  0  0  0  0
 29 30  1  0  0  0  0
 29 37  1  6  0  0  0
 31 32  1  6  0  0  0
 31 39  1  0  0  0  0
 33 34  1  0  0  0  0
 35 36  1  0  0  0  0
 35 41  1  1  0  0  0
 37 38  1  0  0  0  0
 39 40  1  6  0  0  0
 41 42  1  0  0  0  0
M  END
>  <CHROM.1>
-179.89296394,167.21788074,-65.52232015,173.69790180,56.61408839,-60.00778691
-175.12466819,-62.58642129,63.88205790,8.97840499,2.32061555,4.32060728,0.98755087
-0.94919595,-0.32384598

>  <Name>
2o3w_lig

>  <RI>
0

>  <Rbt.Current_Directory>
/home/itssahil/PROJECTS/Mol_Feturizer/New_Systems/rnas/2o3w

>  <Rbt.Executable>
rbdock ($Id: //depot/dev/client3/rdock/2013.1/src/exe/rbdock.cxx#4 $)

>  <Rbt.Library>
libRbt.so (2013.1, Build901 2013/11/27)

>  <Rbt.Parameter_File>
/export/apps/rDock/src/rDock_2013.1_src/data/scripts/dock_solv.prm

>  <Rbt.Receptor>
prm/pocket_docking_4.prm

>  <SCORE>
-18.0487

>  <SCORE.INTER>
-4.99257

>  <SCORE.INTER.CONST>
1

>  <SCORE.INTER.POLAR>
-0.786583

>  <SCORE.INTER.ROT>
9

>  <SCORE.INTER.SOLV>
11.7665

>  <SCORE.INTER.VDW>
-14.2286

>  <SCORE.INTER.norm>
-0.118871

>  <SCORE.INTRA>
-13.0598

>  <SCORE.INTRA.DIHEDRAL>
-26.4002

>  <SCORE.INTRA.DIHEDRAL.0>
27.8999

>  <SCORE.INTRA.POLAR>
0

>  <SCORE.INTRA.POLAR.0>
0

>  <SCORE.INTRA.REPUL>
0

>  <SCORE.INTRA.REPUL.0>
0

>  <SCORE.INTRA.SOLV>
-4.28175

>  <SCORE.INTRA.SOLV.lig_0>
-104.479

>  <SCORE.INTRA.VDW>
2.28111

>  <SCORE.INTRA.VDW.0>
-6.17816

>  <SCORE.INTRA.norm>
-0.310949

>  <SCORE.RESTR>
0.00376434

>  <SCORE.RESTR.CAVITY>
0.00376434

>  <SCORE.RESTR.norm>
8.96271e-05

>  <SCORE.SYSTEM>
0

>  <SCORE.SYSTEM.CONST>
0

>  <SCORE.SYSTEM.DIHEDRAL>
0

>  <SCORE.SYSTEM.SOLV>
0

>  <SCORE.SYSTEM.norm>
0

>  <SCORE.heavy>
42

>  <SCORE.norm>
-0.42973

>  <RMSD>
8.510

$$$$
2o3w_lig
 OpenBabel11021811463D
libRbt.so/2013.1/901 2013/11/27
 42 45  0  0  0  0  0  0  0  0999 V2000
    9.1683    6.8341    1.4295 C   0  0  2  0  0  0  0  0  0  0  0  0
    8.3965    6.6332    2.6258 O   0  0  0  0  0  0  0  0  0  0  0  0
   11.2132    4.1610    4.8054 C   0  0  2  0  0  0  0  0  0  0  0  0
   11.9111    3.4118    5.8926 N   0  0  0  0  0  0  0  0  0  0  0  0
    7.0227    2.7945    3.8234 C   0  0  1  0  0  0  0  0  0  0  0  0
    4.7032   -0.9363    3.5735 C   0  0  1  0  0  0  0  0  0  0  0  0
    8.6912    8.1775    0.8005 C   0  0  2  0  0  0  0  0  0  0  0  0
    8.6620    9.2790    1.7784 N   0  0  0  0  0  0  0  0  0  0  0  0
   11.2441    5.7199    5.0712 C   0  0  0  0  0  0  0  0  0  0  0  0
    5.4782    2.7470    4.0313 C   0  0  2  0  0  0  0  0  0  0  0  0
    5.0690    2.7906    5.4205 O   0  0  0  0  0  0  0  0  0  0  0  0
    3.1915   -0.9396    3.1453 C   0  0  2  0  0  0  0  0  0  0  0  0
    2.3110   -0.5692    4.2936 N   0  0  0  0  0  0  0  0  0  0  0  0
    7.2749    8.0737    0.2053 C   0  0  1  0  0  0  0  0  0  0  0  0
    6.8951    9.3135   -0.3941 O   0  0  0  0  0  0  0  0  0  0  0  0
   10.5148    6.4546    3.8835 C   0  0  2  0  0  0  0  0  0  0  0  0
   10.5378    7.9273    4.0940 N   0  0  0  0  0  0  0  0  0  0  0  0
    5.1157    1.4686    3.2739 C   0  0  2  0  0  0  0  0  0  0  0  0
    5.1585    0.2954    4.1472 O   0  0  0  0  0  0  0  0  0  0  0  0
    2.8083   -2.3846    2.5691 C   0  0  1  0  0  0  0  0  0  0  0  0
    3.4017   -2.5380    1.2601 O   0  0  0  0  0  0  0  0  0  0  0  0
    7.2288    6.9151   -0.8169 C   0  0  2  0  0  0  0  0  0  0  0  0
    5.9428    6.8174   -1.3834 O   0  0  0  0  0  0  0  0  0  0  0  0
    9.0196    5.9605    3.7571 C   0  0  2  0  0  0  0  0  0  0  0  0
    6.1365    1.3491    2.1298 C   0  0  2  0  0  0  0  0  0  0  0  0
    7.3027    1.9618    2.6747 O   0  0  0  0  0  0  0  0  0  0  0  0
    3.2904   -3.5812    3.5196 C   0  0  2  0  0  0  0  0  0  0  0  0
    2.4960   -3.5372    4.7043 O   0  0  0  0  0  0  0  0  0  0  0  0
    7.6180    5.5819   -0.0953 C   0  0  2  0  0  0  0  0  0  0  0  0
    8.9514    5.7116    0.4921 O   0  0  0  0  0  0  0  0  0  0  0  0
    8.9087    4.4338    3.5516 C   0  0  2  0  0  0  0  0  0  0  0  0
    7.4878    4.1384    3.6428 O   0  0  0  0  0  0  0  0  0  0  0  0
    5.7126    2.0371    0.7951 C   0  0  0  0  0  0  0  0  0  0  0  0
    4.6070    1.3354    0.2346 O   0  0  0  0  0  0  0  0  0  0  0  0
    4.8161   -3.4245    3.8800 C   0  0  1  0  0  0  0  0  0  0  0  0
    4.9539   -2.0999    4.5097 O   0  0  0  0  0  0  0  0  0  0  0  0
    7.6052    4.3916   -1.0264 C   0  0  0  0  0  0  0  0  0  0  0  0
    8.4910    4.6049   -2.0983 O   0  0  0  0  0  0  0  0  0  0  0  0
    9.7158    3.6678    4.6819 C   0  0  1  0  0  0  0  0  0  0  0  0
    9.7396    2.2646    4.4063 O   0  0  0  0  0  0  0  0  0  0  0  0
    5.3716   -4.5550    4.8506 C   0  0  0  0  0  0  0  0  0  0  0  0
    5.3044   -5.9452    4.3221 N   0  0  0  0  0  0  0  0  0  0  0  0
  1  2  1  1  0  0  0
  1  7  1  0  0  0  0
  1 30  1  0  0  0  0
  3  4  1  1  0  0  0
  3  9  1  0  0  0  0
  3 39  1  0  0  0  0
  5 10  1  0  0  0  0
  5 26  1  0  0  0  0
  5 32  1  6  0  0  0
  6 12  1  0  0  0  0
  6 36  1  0  0  0  0
  6 19  1  1  0  0  0
  7  8  1  1  0  0  0
  7 14  1  0  0  0  0
  9 16  1  0  0  0  0
 10 11  1  1  0  0  0
 10 18  1  0  0  0  0
 12 13  1  1  0  0  0
 12 20  1  0  0  0  0
 14 15  1  6  0  0  0
 14 22  1  0  0  0  0
 16 17  1  1  0  0  0
 16 24  1  0  0  0  0
 18 19  1  1  0  0  0
 18 25  1  0  0  0  0
 20 21  1  6  0  0  0
 20 27  1  0  0  0  0
 22 23  1  1  0  0  0
 22 29  1  0  0  0  0
 24  2  1  6  0  0  0
 24 31  1  0  0  0  0
 25 26  1  0  0  0  0
 25 33  1  6  0  0  0
 27 28  1  1  0  0  0
 27 35  1  0  0  0  0
 29 30  1  0  0  0  0
 29 37  1  6  0  0  0
 31 32  1  1  0  0  0
 31 39  1  0  0  0  0
 33 34  1  0  0  0  0
 35 36  1  0  0  0  0
 35 41  1  1  0  0  0
 37 38  1  0  0  0  0
 39 40  1  6  0  0  0
 41 42  1  0  0  0  0
M  END
>  <CHROM.1>
-146.90153307,174.42742783,-62.81313982,173.83858977,39.47349444,-67.79462196
58.20762305,-164.78224238,61.47592022,6.86525188,2.76786721,2.65135892,0.93747685
-0.73387527,-0.67738483

>  <Name>
2o3w_lig

>  <RI>
0

>  <Rbt.Current_Directory>
/home/itssahil/PROJECTS/Mol_Feturizer/New_Systems/rnas/2o3w

>  <Rbt.Executable>
rbdock ($Id: //depot/dev/client3/rdock/2013.1/src/exe/rbdock.cxx#4 $)

>  <Rbt.Library>
libRbt.so (2013.1, Build901 2013/11/27)

>  <Rbt.Parameter_File>
/export/apps/rDock/src/rDock_2013.1_src/data/scripts/dock_solv.prm

>  <Rbt.Receptor>
prm/pocket_docking_5.prm

>  <SCORE>
-12.194

>  <SCORE.INTER>
-3.6862

>  <SCORE.INTER.CONST>
1

>  <SCORE.INTER.POLAR>
-1.81399

>  <SCORE.INTER.ROT>
9

>  <SCORE.INTER.SOLV>
13.6295

>  <SCORE.INTER.VDW>
-10.554

>  <SCORE.INTER.norm>
-0.0877666

>  <SCORE.INTRA>
-8.50783

>  <SCORE.INTRA.DIHEDRAL>
-20.0001

>  <SCORE.INTRA.DIHEDRAL.0>
27.8999

>  <SCORE.INTRA.POLAR>
0

>  <SCORE.INTRA.POLAR.0>
0

>  <SCORE.INTRA.REPUL>
0

>  <SCORE.INTRA.REPUL.0>
0

>  <SCORE.INTRA.SOLV>
-2.62996

>  <SCORE.INTRA.SOLV.lig_0>
-104.479

>  <SCORE.INTRA.VDW>
2.80721

>  <SCORE.INTRA.VDW.0>
-6.17816

>  <SCORE.INTRA.norm>
-0.202567

>  <SCORE.RESTR>
0

>  <SCORE.RESTR.CAVITY>
0

>  <SCORE.RESTR.norm>
0

>  <SCORE.SYSTEM>
0

>  <SCORE.SYSTEM.CONST>
0

>  <SCORE.SYSTEM.DIHEDRAL>
0

>  <SCORE.SYSTEM.SOLV>
0

>  <SCORE.SYSTEM.norm>
0

>  <SCORE.heavy>
42

>  <SCORE.norm>
-0.290334

>  <RMSD>
8.560

$$$$
2o3w_lig
 OpenBabel11021811463D
libRbt.so/2013.1/901 2013/11/27
 42 45  0  0  0  0  0  0  0  0999 V2000
    5.7309    5.0675    0.0403 C   0  0  2  0  0  0  0  0  0  0  0  0
    5.5668    5.8182    1.2555 O   0  0  0  0  0  0  0  0  0  0  0  0
    4.4014    9.6053   -0.5040 C   0  0  2  0  0  0  0  0  0  0  0  0
    3.9015   11.0008   -0.6860 N   0  0  0  0  0  0  0  0  0  0  0  0
    7.6997    6.9095    2.3571 C   0  0  1  0  0  0  0  0  0  0  0  0
   10.0726    3.9713    4.6832 C   0  0  1  0  0  0  0  0  0  0  0  0
    5.8781    3.5704    0.4468 C   0  0  2  0  0  0  0  0  0  0  0  0
    4.8210    3.1315    1.3744 N   0  0  0  0  0  0  0  0  0  0  0  0
    3.2511    8.6451    0.0027 C   0  0  0  0  0  0  0  0  0  0  0  0
    9.1699    7.1404    2.8222 C   0  0  2  0  0  0  0  0  0  0  0  0
   10.1569    6.9282    1.7830 O   0  0  0  0  0  0  0  0  0  0  0  0
   10.6052    2.5704    4.2114 C   0  0  2  0  0  0  0  0  0  0  0  0
    9.6162    1.8972    3.3172 N   0  0  0  0  0  0  0  0  0  0  0  0
    7.2238    3.2820    1.1374 C   0  0  1  0  0  0  0  0  0  0  0  0
    7.3319    1.8936    1.4559 O   0  0  0  0  0  0  0  0  0  0  0  0
    3.8320    7.1883    0.1535 C   0  0  2  0  0  0  0  0  0  0  0  0
    2.7709    6.2534    0.6158 N   0  0  0  0  0  0  0  0  0  0  0  0
    9.2548    6.1927    4.0197 C   0  0  2  0  0  0  0  0  0  0  0  0
    9.7070    4.8599    3.6200 O   0  0  0  0  0  0  0  0  0  0  0  0
   10.9279    1.6677    5.4951 C   0  0  1  0  0  0  0  0  0  0  0  0
   12.1365    2.1572    6.1185 O   0  0  0  0  0  0  0  0  0  0  0  0
    8.3818    3.7432    0.2234 C   0  0  2  0  0  0  0  0  0  0  0  0
    9.6215    3.4708    0.8343 O   0  0  0  0  0  0  0  0  0  0  0  0
    5.0356    7.1717    1.1767 C   0  0  2  0  0  0  0  0  0  0  0  0
    7.8412    6.1438    4.6235 C   0  0  2  0  0  0  0  0  0  0  0  0
    7.0006    6.3435    3.4894 O   0  0  0  0  0  0  0  0  0  0  0  0
    9.7367    1.6619    6.5668 C   0  0  2  0  0  0  0  0  0  0  0  0
    8.6444    0.9448    5.9930 O   0  0  0  0  0  0  0  0  0  0  0  0
    8.2295    5.2749   -0.0599 C   0  0  2  0  0  0  0  0  0  0  0  0
    6.9323    5.5331   -0.6846 O   0  0  0  0  0  0  0  0  0  0  0  0
    6.1764    8.1321    0.7749 C   0  0  2  0  0  0  0  0  0  0  0  0
    7.0949    8.1270    1.9023 O   0  0  0  0  0  0  0  0  0  0  0  0
    7.5591    7.2110    5.7261 C   0  0  0  0  0  0  0  0  0  0  0  0
    6.4458    6.7939    6.5106 O   0  0  0  0  0  0  0  0  0  0  0  0
    9.2981    3.1337    6.9184 C   0  0  1  0  0  0  0  0  0  0  0  0
    8.9190    3.7637    5.6419 O   0  0  0  0  0  0  0  0  0  0  0  0
    9.3216    5.8119   -0.9558 C   0  0  0  0  0  0  0  0  0  0  0  0
    9.2848    7.2182   -0.9758 O   0  0  0  0  0  0  0  0  0  0  0  0
    5.6039    9.5896    0.5227 C   0  0  1  0  0  0  0  0  0  0  0  0
    6.6307   10.4404    0.0056 O   0  0  0  0  0  0  0  0  0  0  0  0
    8.0940    3.2209    7.9534 C   0  0  0  0  0  0  0  0  0  0  0  0
    8.3999    2.7581    9.3350 N   0  0  0  0  0  0  0  0  0  0  0  0
  1  2  1  1  0  0  0
  1  7  1  0  0  0  0
  1 30  1  0  0  0  0
  3  4  1  1  0  0  0
  3  9  1  0  0  0  0
  3 39  1  0  0  0  0
  5 10  1  0  0  0  0
  5 26  1  0  0  0  0
  5 32  1  1  0  0  0
  6 12  1  0  0  0  0
  6 36  1  0  0  0  0
  6 19  1  6  0  0  0
  7  8  1  1  0  0  0
  7 14  1  0  0  0  0
  9 16  1  0  0  0  0
 10 11  1  6  0  0  0
 10 18  1  0  0  0  0
 12 13  1  6  0  0  0
 12 20  1  0  0  0  0
 14 15  1  6  0  0  0
 14 22  1  0  0  0  0
 16 17  1  1  0  0  0
 16 24  1  0  0  0  0
 18 19  1  6  0  0  0
 18 25  1  0  0  0  0
 20 21  1  1  0  0  0
 20 27  1  0  0  0  0
 22 23  1  1  0  0  0
 22 29  1  0  0  0  0
 24  2  1  6  0  0  0
 24 31  1  0  0  0  0
 25 26  1  0  0  0  0
 25 33  1  1  0  0  0
 27 28  1  6  0  0  0
 27 35  1  0  0  0  0
 29 30  1  0  0  0  0
 29 37  1  6  0  0  0
 31 32  1  1  0  0  0
 31 39  1  0  0  0  0
 33 34  1  0  0  0  0
 35 36  1  0  0  0  0
 35 41  1  1  0  0  0
 37 38  1  0  0  0  0
 39 40  1  6  0  0  0
 41 42  1  0  0  0  0
M  END
>  <CHROM.1>
-162.84555529,143.06660498,-177.74000480,168.23541440,42.64818865,-160.09208080
-169.06882874,58.31123792,67.43973662,7.60811835,5.38355399,2.60915527,-2.54432868
-0.97314155,1.43335009

>  <Name>
2o3w_lig

>  <RI>
0

>  <Rbt.Current_Directory>
/home/itssahil/PROJECTS/Mol_Feturizer/New_Systems/rnas/2o3w

>  <Rbt.Executable>
rbdock ($Id: //depot/dev/client3/rdock/2013.1/src/exe/rbdock.cxx#4 $)

>  <Rbt.Library>
libRbt.so (2013.1, Build901 2013/11/27)

>  <Rbt.Parameter_File>
/export/apps/rDock/src/rDock_2013.1_src/data/scripts/dock_solv.prm

>  <Rbt.Receptor>
prm/pocket_docking_5.prm

>  <SCORE>
-23.7772

>  <SCORE.INTER>
-16.1858

>  <SCORE.INTER.CONST>
1

>  <SCORE.INTER.POLAR>
-2.7468

>  <SCORE.INTER.ROT>
9

>  <SCORE.INTER.SOLV>
15.8854

>  <SCORE.INTER.VDW>
-16.5297

>  <SCORE.INTER.norm>
-0.385377

>  <SCORE.INTRA>
-7.59142

>  <SCORE.INTRA.DIHEDRAL>
-17.5469

>  <SCORE.INTRA.DIHEDRAL.0>
27.8999

>  <SCORE.INTRA.POLAR>
0

>  <SCORE.INTRA.POLAR.0>
0

>  <SCORE.INTRA.REPUL>
0.0969439

>  <SCORE.INTRA.REPUL.0>
0

>  <SCORE.INTRA.SOLV>
0.54704

>  <SCORE.INTRA.SOLV.lig_0>
-104.479

>  <SCORE.INTRA.VDW>
0.423777

>  <SCORE.INTRA.VDW.0>
-6.17816

>  <SCORE.INTRA.norm>
-0.180748

>  <SCORE.RESTR>
0

>  <SCORE.RESTR.CAVITY>
0

>  <SCORE.RESTR.norm>
0

>  <SCORE.SYSTEM>
0

>  <SCORE.SYSTEM.CONST>
0

>  <SCORE.SYSTEM.DIHEDRAL>
0

>  <SCORE.SYSTEM.SOLV>
0

>  <SCORE.SYSTEM.norm>
0

>  <SCORE.heavy>
42

>  <SCORE.norm>
-0.566125

>  <RMSD>
8.585

$$$$
2o3w_lig
 OpenBabel11021811463D
libRbt.so/2013.1/901 2013/11/27
 42 45  0  0  0  0  0  0  0  0999 V2000
    6.2532    6.6156    2.9095 C   0  0  2  0  0  0  0  0  0  0  0  0
    6.6426    7.3732    4.0678 O   0  0  0  0  0  0  0  0  0  0  0  0
   10.4000    7.9631    6.1486 C   0  0  2  0  0  0  0  0  0  0  0  0
   11.7075    7.7232    6.8293 N   0  0  0  0  0  0  0  0  0  0  0  0
    9.6271    5.4916    2.6195 C   0  0  1  0  0  0  0  0  0  0  0  0
   10.0846    1.0537    2.7361 C   0  0  1  0  0  0  0  0  0  0  0  0
    5.9125    7.6422    1.7878 C   0  0  2  0  0  0  0  0  0  0  0  0
    6.9687    8.6538    1.6096 N   0  0  0  0  0  0  0  0  0  0  0  0
    9.2043    7.3184    6.9588 C   0  0  0  0  0  0  0  0  0  0  0  0
    8.9697    4.5378    3.6630 C   0  0  2  0  0  0  0  0  0  0  0  0
    9.6578    4.4943    4.9372 O   0  0  0  0  0  0  0  0  0  0  0  0
    9.2593    0.1582    3.7290 C   0  0  2  0  0  0  0  0  0  0  0  0
    9.7829    0.2844    5.1221 N   0  0  0  0  0  0  0  0  0  0  0  0
    4.6072    8.4076    2.0730 C   0  0  1  0  0  0  0  0  0  0  0  0
    4.3138    9.3068    1.0024 O   0  0  0  0  0  0  0  0  0  0  0  0
    7.8545    7.6234    6.2055 C   0  0  2  0  0  0  0  0  0  0  0  0
    6.7042    7.0426    6.9492 N   0  0  0  0  0  0  0  0  0  0  0  0
    8.9361    3.2224    2.8832 C   0  0  2  0  0  0  0  0  0  0  0  0
   10.1530    2.4387    3.0975 O   0  0  0  0  0  0  0  0  0  0  0  0
    9.3068   -1.3642    3.2320 C   0  0  1  0  0  0  0  0  0  0  0  0
    8.4622   -1.5020    2.0673 O   0  0  0  0  0  0  0  0  0  0  0  0
    3.4565    7.3997    2.2949 C   0  0  2  0  0  0  0  0  0  0  0  0
    2.2505    8.0850    2.5407 O   0  0  0  0  0  0  0  0  0  0  0  0
    7.8894    7.0351    4.7397 C   0  0  2  0  0  0  0  0  0  0  0  0
    8.7764    3.6101    1.4035 C   0  0  2  0  0  0  0  0  0  0  0  0
    9.4417    4.8687    1.3277 O   0  0  0  0  0  0  0  0  0  0  0  0
   10.7901   -1.8576    2.8799 C   0  0  2  0  0  0  0  0  0  0  0  0
   11.5175   -1.9444    4.1045 O   0  0  0  0  0  0  0  0  0  0  0  0
    3.8188    6.4683    3.4994 C   0  0  2  0  0  0  0  0  0  0  0  0
    5.0778    5.7761    3.2247 O   0  0  0  0  0  0  0  0  0  0  0  0
    9.0690    7.5789    3.9041 C   0  0  2  0  0  0  0  0  0  0  0  0
    9.0542    6.8047    2.6734 O   0  0  0  0  0  0  0  0  0  0  0  0
    7.3011    3.7244    0.9087 C   0  0  0  0  0  0  0  0  0  0  0  0
    6.6479    2.4706    1.0832 O   0  0  0  0  0  0  0  0  0  0  0  0
   11.4939   -0.8461    1.8982 C   0  0  1  0  0  0  0  0  0  0  0  0
   11.4694    0.4632    2.5730 O   0  0  0  0  0  0  0  0  0  0  0  0
    2.7463    5.4424    3.7843 C   0  0  0  0  0  0  0  0  0  0  0  0
    2.6076    4.5693    2.6899 O   0  0  0  0  0  0  0  0  0  0  0  0
   10.4351    7.3711    4.6827 C   0  0  1  0  0  0  0  0  0  0  0  0
   11.5055    8.0084    3.9800 O   0  0  0  0  0  0  0  0  0  0  0  0
   12.9871   -1.2422    1.5213 C   0  0  0  0  0  0  0  0  0  0  0  0
   13.9193   -1.4009    2.6713 N   0  0  0  0  0  0  0  0  0  0  0  0
  1  2  1  1  0  0  0
  1  7  1  0  0  0  0
  1 30  1  0  0  0  0
  3  4  1  1  0  0  0
  3  9  1  0  0  0  0
  3 39  1  0  0  0  0
  5 10  1  0  0  0  0
  5 26  1  0  0  0  0
  5 32  1  6  0  0  0
  6 12  1  0  0  0  0
  6 36  1  0  0  0  0
  6 19  1  1  0  0  0
  7  8  1  1  0  0  0
  7 14  1  0  0  0  0
  9 16  1  0  0  0  0
 10 11  1  1  0  0  0
 10 18  1  0  0  0  0
 12 13  1  1  0  0  0
 12 20  1  0  0  0  0
 14 15  1  6  0  0  0
 14 22  1  0  0  0  0
 16 17  1  1  0  0  0
 16 24  1  0  0  0  0
 18 19  1  6  0  0  0
 18 25  1  0  0  0  0
 20 21  1  6  0  0  0
 20 27  1  0  0  0  0
 22 23  1  1  0  0  0
 22 29  1  0  0  0  0
 24  2  1  6  0  0  0
 24 31  1  0  0  0  0
 25 26  1  0  0  0  0
 25 33  1  1  0  0  0
 27 28  1  1  0  0  0
 27 35  1  0  0  0  0
 29 30  1  0  0  0  0
 29 37  1  6  0  0  0
 31 32  1  6  0  0  0
 31 39  1  0  0  0  0
 33 34  1  0  0  0  0
 35 36  1  0  0  0  0
 35 41  1  1  0  0  0
 37 38  1  0  0  0  0
 39 40  1  6  0  0  0
 41 42  1  0  0  0  0
M  END
>  <CHROM.1>
-129.37021187,57.74518505,-74.16204776,163.11757046,-160.55938555,-59.72541059
63.63233692,-80.78479326,-57.25433892,8.24051081,4.43968889,3.28593118,2.21940092
-0.36563137,0.31771158

>  <Name>
2o3w_lig

>  <RI>
0

>  <Rbt.Current_Directory>
/home/itssahil/PROJECTS/Mol_Feturizer/New_Systems/rnas/2o3w

>  <Rbt.Executable>
rbdock ($Id: //depot/dev/client3/rdock/2013.1/src/exe/rbdock.cxx#4 $)

>  <Rbt.Library>
libRbt.so (2013.1, Build901 2013/11/27)

>  <Rbt.Parameter_File>
/export/apps/rDock/src/rDock_2013.1_src/data/scripts/dock_solv.prm

>  <Rbt.Receptor>
prm/pocket_docking_7.prm

>  <SCORE>
-16.9804

>  <SCORE.INTER>
-10.2808

>  <SCORE.INTER.CONST>
1

>  <SCORE.INTER.POLAR>
-0.938083

>  <SCORE.INTER.ROT>
9

>  <SCORE.INTER.SOLV>
14.0511

>  <SCORE.INTER.VDW>
-18.0106

>  <SCORE.INTER.norm>
-0.244782

>  <SCORE.INTRA>
-6.69953

>  <SCORE.INTRA.DIHEDRAL>
-15.0077

>  <SCORE.INTRA.DIHEDRAL.0>
27.8999

>  <SCORE.INTRA.POLAR>
0

>  <SCORE.INTRA.POLAR.0>
0

>  <SCORE.INTRA.REPUL>
0

>  <SCORE.INTRA.REPUL.0>
0

>  <SCORE.INTRA.SOLV>
-1.34135

>  <SCORE.INTRA.SOLV.lig_0>
-104.479

>  <SCORE.INTRA.VDW>
1.47503

>  <SCORE.INTRA.VDW.0>
-6.17816

>  <SCORE.INTRA.norm>
-0.159513

>  <SCORE.RESTR>
0

>  <SCORE.RESTR.CAVITY>
0

>  <SCORE.RESTR.norm>
0

>  <SCORE.SYSTEM>
0

>  <SCORE.SYSTEM.CONST>
0

>  <SCORE.SYSTEM.DIHEDRAL>
0

>  <SCORE.SYSTEM.SOLV>
0

>  <SCORE.SYSTEM.norm>
0

>  <SCORE.heavy>
42

>  <SCORE.norm>
-0.404295

>  <RMSD>
8.586

$$$$
2o3w_lig
 OpenBabel11021811463D
libRbt.so/2013.1/901 2013/11/27
 42 45  0  0  0  0  0  0  0  0999 V2000
    1.9853   -1.3248    3.8930 C   0  0  2  0  0  0  0  0  0  0  0  0
    1.1959   -0.9249    2.7598 O   0  0  0  0  0  0  0  0  0  0  0  0
    0.6252    2.9575    0.9165 C   0  0  2  0  0  0  0  0  0  0  0  0
    0.2875    4.3947    0.6914 N   0  0  0  0  0  0  0  0  0  0  0  0
    4.1168    1.8751    3.7493 C   0  0  1  0  0  0  0  0  0  0  0  0
    7.7419    2.7716    5.9483 C   0  0  1  0  0  0  0  0  0  0  0  0
    2.0834   -2.8794    3.8534 C   0  0  2  0  0  0  0  0  0  0  0  0
    2.4941   -3.3849    2.5319 N   0  0  0  0  0  0  0  0  0  0  0  0
   -0.6655    2.1124    1.2654 C   0  0  0  0  0  0  0  0  0  0  0  0
    4.8755    1.3959    5.0243 C   0  0  2  0  0  0  0  0  0  0  0  0
    4.6374    2.2159    6.1947 O   0  0  0  0  0  0  0  0  0  0  0  0
    8.1010    4.2477    6.3495 C   0  0  2  0  0  0  0  0  0  0  0  0
    8.8259    4.9401    5.2422 N   0  0  0  0  0  0  0  0  0  0  0  0
    0.7436   -3.5583    4.1926 C   0  0  1  0  0  0  0  0  0  0  0  0
    0.8896   -4.9793    4.1833 O   0  0  0  0  0  0  0  0  0  0  0  0
   -0.2497    0.6063    1.4689 C   0  0  2  0  0  0  0  0  0  0  0  0
   -1.4445   -0.2221    1.7850 N   0  0  0  0  0  0  0  0  0  0  0  0
    6.3185    1.3673    4.5181 C   0  0  2  0  0  0  0  0  0  0  0  0
    6.9901    2.6490    4.7345 O   0  0  0  0  0  0  0  0  0  0  0  0
    8.9778    4.2327    7.6904 C   0  0  1  0  0  0  0  0  0  0  0  0
    8.1184    3.9106    8.8069 O   0  0  0  0  0  0  0  0  0  0  0  0
    0.2413   -3.0514    5.5637 C   0  0  2  0  0  0  0  0  0  0  0  0
   -0.9766   -3.6762    5.8966 O   0  0  0  0  0  0  0  0  0  0  0  0
    0.8104    0.4735    2.6327 C   0  0  2  0  0  0  0  0  0  0  0  0
    6.2363    1.0271    3.0204 C   0  0  2  0  0  0  0  0  0  0  0  0
    4.9888    1.5961    2.6299 O   0  0  0  0  0  0  0  0  0  0  0  0
   10.1908    3.1875    7.6288 C   0  0  2  0  0  0  0  0  0  0  0  0
   11.1392    3.6832    6.6847 O   0  0  0  0  0  0  0  0  0  0  0  0
    0.0665   -1.4973    5.5007 C   0  0  2  0  0  0  0  0  0  0  0  0
    1.3406   -0.8731    5.1445 O   0  0  0  0  0  0  0  0  0  0  0  0
    2.0788    1.3196    2.3867 C   0  0  2  0  0  0  0  0  0  0  0  0
    2.8455    1.2257    3.6187 O   0  0  0  0  0  0  0  0  0  0  0  0
    6.2869   -0.4964    2.6878 C   0  0  0  0  0  0  0  0  0  0  0  0
    6.2329   -0.6716    1.2753 O   0  0  0  0  0  0  0  0  0  0  0  0
    9.6766    1.7646    7.1894 C   0  0  1  0  0  0  0  0  0  0  0  0
    9.0144    1.9529    5.8871 O   0  0  0  0  0  0  0  0  0  0  0  0
   -0.4180   -0.9133    6.8076 C   0  0  0  0  0  0  0  0  0  0  0  0
   -1.7461   -1.3078    7.0521 O   0  0  0  0  0  0  0  0  0  0  0  0
    1.6840    2.8256    2.0837 C   0  0  1  0  0  0  0  0  0  0  0  0
    2.8436    3.5737    1.7078 O   0  0  0  0  0  0  0  0  0  0  0  0
   10.8239    0.6701    7.0694 C   0  0  0  0  0  0  0  0  0  0  0  0
   11.8832    0.9577    6.0635 N   0  0  0  0  0  0  0  0  0  0  0  0
  1  2  1  6  0  0  0
  1  7  1  0  0  0  0
  1 30  1  0  0  0  0
  3  4  1  1  0  0  0
  3  9  1  0  0  0  0
  3 39  1  0  0  0  0
  5 10  1  0  0  0  0
  5 26  1  0  0  0  0
  5 32  1  6  0  0  0
  6 12  1  0  0  0  0
  6 36  1  0  0  0  0
  6 19  1  6  0  0  0
  7  8  1  6  0  0  0
  7 14  1  0  0  0  0
  9 16  1  0  0  0  0
 10 11  1  1  0  0  0
 10 18  1  0  0  0  0
 12 13  1  6  0  0  0
 12 20  1  0  0  0  0
 14 15  1  1  0  0  0
 14 22  1  0  0  0  0
 16 17  1  1  0  0  0
 16 24  1  0  0  0  0
 18 19  1  6  0  0  0
 18 25  1  0  0  0  0
 20 21  1  1  0  0  0
 20 27  1  0  0  0  0
 22 23  1  6  0  0  0
 22 29  1  0  0  0  0
 24  2  1  6  0  0  0
 24 31  1  0  0  0  0
 25 26  1  0  0  0  0
 25 33  1  1  0  0  0
 27 28  1  6  0  0  0
 27 35  1  0  0  0  0
 29 30  1  0  0  0  0
 29 37  1  1  0  0  0
 31 32  1  1  0  0  0
 31 39  1  0  0  0  0
 33 34  1  0  0  0  0
 35 36  1  0  0  0  0
 35 41  1  6  0  0  0
 37 38  1  0  0  0  0
 39 40  1  6  0  0  0
 41 42  1  0  0  0  0
M  END
>  <CHROM.1>
172.96307719,-168.15251641,-163.40884508,93.49575083,-170.00923769,-178.71080284
-68.84803978,178.74520578,-61.43769408,4.09576540,0.79974746,4.40558279,-2.99181859
-0.45810927,-0.61633047

>  <Name>
2o3w_lig

>  <RI>
0

>  <Rbt.Current_Directory>
/home/itssahil/PROJECTS/Mol_Feturizer/New_Systems/rnas/2o3w

>  <Rbt.Executable>
rbdock ($Id: //depot/dev/client3/rdock/2013.1/src/exe/rbdock.cxx#4 $)

>  <Rbt.Library>
libRbt.so (2013.1, Build901 2013/11/27)

>  <Rbt.Parameter_File>
/export/apps/rDock/src/rDock_2013.1_src/data/scripts/dock_solv.prm

>  <Rbt.Receptor>
prm/pocket_docking_8.prm

>  <SCORE>
-14.4843

>  <SCORE.INTER>
-4.13205

>  <SCORE.INTER.CONST>
1

>  <SCORE.INTER.POLAR>
0

>  <SCORE.INTER.ROT>
9

>  <SCORE.INTER.SOLV>
8.10306

>  <SCORE.INTER.VDW>
-15.0557

>  <SCORE.INTER.norm>
-0.0983821

>  <SCORE.INTRA>
-10.3523

>  <SCORE.INTRA.DIHEDRAL>
-20.5723

>  <SCORE.INTRA.DIHEDRAL.0>
27.8999

>  <SCORE.INTRA.POLAR>
0

>  <SCORE.INTRA.POLAR.0>
0

>  <SCORE.INTRA.REPUL>
0

>  <SCORE.INTRA.REPUL.0>
0

>  <SCORE.INTRA.SOLV>
-4.57259

>  <SCORE.INTRA.SOLV.lig_0>
-104.479

>  <SCORE.INTRA.VDW>
2.22016

>  <SCORE.INTRA.VDW.0>
-6.17816

>  <SCORE.INTRA.norm>
-0.246483

>  <SCORE.RESTR>
0

>  <SCORE.RESTR.CAVITY>
0

>  <SCORE.RESTR.norm>
0

>  <SCORE.SYSTEM>
0

>  <SCORE.SYSTEM.CONST>
0

>  <SCORE.SYSTEM.DIHEDRAL>
0

>  <SCORE.SYSTEM.SOLV>
0

>  <SCORE.SYSTEM.norm>
0

>  <SCORE.heavy>
42

>  <SCORE.norm>
-0.344865

>  <RMSD>
8.601

$$$$
2o3w_lig
 OpenBabel11021811463D
libRbt.so/2013.1/901 2013/11/27
 42 45  0  0  0  0  0  0  0  0999 V2000
    8.8687    4.1093    5.2303 C   0  0  2  0  0  0  0  0  0  0  0  0
    8.7356    5.3723    4.5562 O   0  0  0  0  0  0  0  0  0  0  0  0
    9.2015    6.4475    0.3821 C   0  0  2  0  0  0  0  0  0  0  0  0
    9.7663    6.6460   -0.9861 N   0  0  0  0  0  0  0  0  0  0  0  0
    8.3151    2.1547    2.0820 C   0  0  1  0  0  0  0  0  0  0  0  0
    6.5245   -1.9920    1.8222 C   0  0  1  0  0  0  0  0  0  0  0  0
    8.0459    4.2090    6.5499 C   0  0  2  0  0  0  0  0  0  0  0  0
    6.6804    4.7146    6.3260 N   0  0  0  0  0  0  0  0  0  0  0  0
    9.9794    7.3110    1.4550 C   0  0  0  0  0  0  0  0  0  0  0  0
    8.6396    0.8381    2.8514 C   0  0  2  0  0  0  0  0  0  0  0  0
    9.7560    0.0950    2.3032 O   0  0  0  0  0  0  0  0  0  0  0  0
    4.9541   -1.9404    1.8248 C   0  0  2  0  0  0  0  0  0  0  0  0
    4.4540   -0.9669    2.8412 N   0  0  0  0  0  0  0  0  0  0  0  0
    8.7039    5.1460    7.5794 C   0  0  1  0  0  0  0  0  0  0  0  0
    7.9384    5.1761    8.7852 O   0  0  0  0  0  0  0  0  0  0  0  0
    9.3255    7.0774    2.8694 C   0  0  2  0  0  0  0  0  0  0  0  0
   10.0248    7.8876    3.9029 N   0  0  0  0  0  0  0  0  0  0  0  0
    7.2859    0.1275    2.8081 C   0  0  2  0  0  0  0  0  0  0  0  0
    7.1630   -0.7243    1.6248 O   0  0  0  0  0  0  0  0  0  0  0  0
    4.3774   -3.4092    2.1022 C   0  0  1  0  0  0  0  0  0  0  0  0
    4.5630   -4.2155    0.9171 O   0  0  0  0  0  0  0  0  0  0  0  0
   10.1552    4.6841    7.8435 C   0  0  2  0  0  0  0  0  0  0  0  0
   10.7663    5.5221    8.7968 O   0  0  0  0  0  0  0  0  0  0  0  0
    9.3844    5.5490    3.2646 C   0  0  2  0  0  0  0  0  0  0  0  0
    6.2229    1.2389    2.8074 C   0  0  2  0  0  0  0  0  0  0  0  0
    6.8782    2.3096    2.1317 O   0  0  0  0  0  0  0  0  0  0  0  0
    5.0767   -4.1261    3.3530 C   0  0  2  0  0  0  0  0  0  0  0  0
    4.6596   -3.4388    4.5321 O   0  0  0  0  0  0  0  0  0  0  0  0
   10.9513    4.7066    6.4962 C   0  0  2  0  0  0  0  0  0  0  0  0
   10.2926    3.8376    5.5211 O   0  0  0  0  0  0  0  0  0  0  0  0
    8.6912    4.6357    2.2298 C   0  0  2  0  0  0  0  0  0  0  0  0
    8.9997    3.2785    2.6509 O   0  0  0  0  0  0  0  0  0  0  0  0
    5.7340    1.6829    4.2210 C   0  0  0  0  0  0  0  0  0  0  0  0
    5.2876    0.5402    4.9447 O   0  0  0  0  0  0  0  0  0  0  0  0
    6.6455   -4.0741    3.2178 C   0  0  1  0  0  0  0  0  0  0  0  0
    6.9992   -2.6488    3.1014 O   0  0  0  0  0  0  0  0  0  0  0  0
   12.3858    4.2609    6.6610 C   0  0  0  0  0  0  0  0  0  0  0  0
   13.0479    4.2890    5.4200 O   0  0  0  0  0  0  0  0  0  0  0  0
    9.2639    4.9178    0.7779 C   0  0  1  0  0  0  0  0  0  0  0  0
    8.5188    4.1837   -0.1976 O   0  0  0  0  0  0  0  0  0  0  0  0
    7.4229   -4.7355    4.4371 C   0  0  0  0  0  0  0  0  0  0  0  0
    7.1914   -6.1933    4.6315 N   0  0  0  0  0  0  0  0  0  0  0  0
  1  2  1  1  0  0  0
  1  7  1  0  0  0  0
  1 30  1  0  0  0  0
  3  4  1  6  0  0  0
  3  9  1  0  0  0  0
  3 39  1  0  0  0  0
  5 10  1  0  0  0  0
  5 26  1  0  0  0  0
  5 32  1  1  0  0  0
  6 12  1  0  0  0  0
  6 36  1  0  0  0  0
  6 19  1  1  0  0  0
  7  8  1  6  0  0  0
  7 14  1  0  0  0  0
  9 16  1  0  0  0  0
 10 11  1  6  0  0  0
 10 18  1  0  0  0  0
 12 13  1  1  0  0  0
 12 20  1  0  0  0  0
 14 15  1  1  0  0  0
 14 22  1  0  0  0  0
 16 17  1  1  0  0  0
 16 24  1  0  0  0  0
 18 19  1  6  0  0  0
 18 25  1  0  0  0  0
 20 21  1  6  0  0  0
 20 27  1  0  0  0  0
 22 23  1  1  0  0  0
 22 29  1  0  0  0  0
 24  2  1  1  0  0  0
 24 31  1  0  0  0  0
 25 26  1  0  0  0  0
 25 33  1  1  0  0  0
 27 28  1  1  0  0  0
 27 35  1  0  0  0  0
 29 30  1  0  0  0  0
 29 37  1  1  0  0  0
 31 32  1  1  0  0  0
 31 39  1  0  0  0  0
 33 34  1  0  0  0  0
 35 36  1  0  0  0  0
 35 41  1  1  0  0  0
 37 38  1  0  0  0  0
 39 40  1  6  0  0  0
 41 42  1  0  0  0  0
M  END
>  <CHROM.1>
-178.50758259,-170.46611952,81.52889393,139.99157715,-169.30943143,-54.02742119
179.46200351,167.85913620,63.00525810,8.05176860,1.99280997,3.70085744,-0.17758376
1.13756987,1.95405122

>  <Name>
2o3w_lig

>  <RI>
0

>  <Rbt.Current_Directory>
/home/itssahil/PROJECTS/Mol_Feturizer/New_Systems/rnas/2o3w

>  <Rbt.Executable>
rbdock ($Id: //depot/dev/client3/rdock/2013.1/src/exe/rbdock.cxx#4 $)

>  <Rbt.Library>
libRbt.so (2013.1, Build901 2013/11/27)

>  <Rbt.Parameter_File>
/export/apps/rDock/src/rDock_2013.1_src/data/scripts/dock_solv.prm

>  <Rbt.Receptor>
prm/pocket_docking_5.prm

>  <SCORE>
-14.0921

>  <SCORE.INTER>
-5.81634

>  <SCORE.INTER.CONST>
1

>  <SCORE.INTER.POLAR>
-2.27981

>  <SCORE.INTER.ROT>
9

>  <SCORE.INTER.SOLV>
13.3438

>  <SCORE.INTER.VDW>
-10.3261

>  <SCORE.INTER.norm>
-0.138484

>  <SCORE.INTRA>
-8.27572

>  <SCORE.INTRA.DIHEDRAL>
-18.4913

>  <SCORE.INTRA.DIHEDRAL.0>
27.8999

>  <SCORE.INTRA.POLAR>
0

>  <SCORE.INTRA.POLAR.0>
0

>  <SCORE.INTRA.REPUL>
0.00800716

>  <SCORE.INTRA.REPUL.0>
0

>  <SCORE.INTRA.SOLV>
-1.82108

>  <SCORE.INTRA.SOLV.lig_0>
-104.479

>  <SCORE.INTRA.VDW>
1.84045

>  <SCORE.INTRA.VDW.0>
-6.17816

>  <SCORE.INTRA.norm>
-0.197041

>  <SCORE.RESTR>
0

>  <SCORE.RESTR.CAVITY>
0

>  <SCORE.RESTR.norm>
0

>  <SCORE.SYSTEM>
0

>  <SCORE.SYSTEM.CONST>
0

>  <SCORE.SYSTEM.DIHEDRAL>
0

>  <SCORE.SYSTEM.SOLV>
0

>  <SCORE.SYSTEM.norm>
0

>  <SCORE.heavy>
42

>  <SCORE.norm>
-0.335525

>  <RMSD>
8.628

$$$$
2o3w_lig
 OpenBabel11021811463D
libRbt.so/2013.1/901 2013/11/27
 42 45  0  0  0  0  0  0  0  0999 V2000
    7.5574    6.2190    1.6909 C   0  0  2  0  0  0  0  0  0  0  0  0
    8.9048    6.5187    2.0932 O   0  0  0  0  0  0  0  0  0  0  0  0
   11.5987    4.2399    4.6123 C   0  0  2  0  0  0  0  0  0  0  0  0
   12.2109    3.5407    5.7814 N   0  0  0  0  0  0  0  0  0  0  0  0
    7.6609    2.5953    2.9348 C   0  0  1  0  0  0  0  0  0  0  0  0
    7.3153   -0.3485    3.2862 C   0  0  1  0  0  0  0  0  0  0  0  0
    7.4920    6.4047    0.1451 C   0  0  2  0  0  0  0  0  0  0  0  0
    8.5790    5.6974   -0.5541 N   0  0  0  0  0  0  0  0  0  0  0  0
   11.4993    5.7984    4.8632 C   0  0  0  0  0  0  0  0  0  0  0  0
    6.1805    2.3832    3.3754 C   0  0  2  0  0  0  0  0  0  0  0  0
    6.0241    2.0581    4.7786 O   0  0  0  0  0  0  0  0  0  0  0  0
    7.7766   -1.8047    2.9178 C   0  0  2  0  0  0  0  0  0  0  0  0
    6.8564   -2.8215    3.5094 N   0  0  0  0  0  0  0  0  0  0  0  0
    7.5851    7.8846   -0.2700 C   0  0  1  0  0  0  0  0  0  0  0  0
    7.4814    8.0105   -1.6893 O   0  0  0  0  0  0  0  0  0  0  0  0
   10.8687    6.4808    3.5908 C   0  0  2  0  0  0  0  0  0  0  0  0
   10.7734    7.9526    3.7867 N   0  0  0  0  0  0  0  0  0  0  0  0
    5.7295    1.3030    2.3910 C   0  0  2  0  0  0  0  0  0  0  0  0
    5.9642   -0.0402    2.9216 O   0  0  0  0  0  0  0  0  0  0  0  0
    9.2807   -2.0265    3.4231 C   0  0  1  0  0  0  0  0  0  0  0  0
   10.1770   -1.2930    2.5585 O   0  0  0  0  0  0  0  0  0  0  0  0
    6.4819    8.6926    0.4505 C   0  0  2  0  0  0  0  0  0  0  0  0
    6.5429   10.0470    0.0681 O   0  0  0  0  0  0  0  0  0  0  0  0
    9.4328    5.8912    3.2965 C   0  0  2  0  0  0  0  0  0  0  0  0
    6.5335    1.5412    1.1017 C   0  0  2  0  0  0  0  0  0  0  0  0
    7.7581    2.0892    1.5837 O   0  0  0  0  0  0  0  0  0  0  0  0
    9.5017   -1.5633    4.9410 C   0  0  2  0  0  0  0  0  0  0  0  0
    8.7922   -2.4760    5.7777 O   0  0  0  0  0  0  0  0  0  0  0  0
    6.6692    8.5456    1.9974 C   0  0  2  0  0  0  0  0  0  0  0  0
    6.6115    7.1317    2.3677 O   0  0  0  0  0  0  0  0  0  0  0  0
    9.4439    4.3599    3.0960 C   0  0  2  0  0  0  0  0  0  0  0  0
    8.0437    3.9739    3.0242 O   0  0  0  0  0  0  0  0  0  0  0  0
    5.8571    2.4983    0.0717 C   0  0  0  0  0  0  0  0  0  0  0  0
    4.6007    1.9544   -0.3212 O   0  0  0  0  0  0  0  0  0  0  0  0
    8.9679   -0.0969    5.1580 C   0  0  1  0  0  0  0  0  0  0  0  0
    7.5484   -0.1158    4.7642 O   0  0  0  0  0  0  0  0  0  0  0  0
    5.6241    9.3023    2.7841 C   0  0  0  0  0  0  0  0  0  0  0  0
    4.3441    8.7858    2.5120 O   0  0  0  0  0  0  0  0  0  0  0  0
   10.1604    3.6510    4.3207 C   0  0  1  0  0  0  0  0  0  0  0  0
   10.3053    2.2513    4.0648 O   0  0  0  0  0  0  0  0  0  0  0  0
    9.1174    0.4326    6.6499 C   0  0  0  0  0  0  0  0  0  0  0  0
    8.5462    1.7821    6.9127 N   0  0  0  0  0  0  0  0  0  0  0  0
  1  2  1  1  0  0  0
  1  7  1  0  0  0  0
  1 30  1  0  0  0  0
  3  4  1  1  0  0  0
  3  9  1  0  0  0  0
  3 39  1  0  0  0  0
  5 10  1  0  0  0  0
  5 26  1  0  0  0  0
  5 32  1  6  0  0  0
  6 12  1  0  0  0  0
  6 36  1  0  0  0  0
  6 19  1  1  0  0  0
  7  8  1  6  0  0  0
  7 14  1  0  0  0  0
  9 16  1  0  0  0  0
 10 11  1  1  0  0  0
 10 18  1  0  0  0  0
 12 13  1  1  0  0  0
 12 20  1  0  0  0  0
 14 15  1  6  0  0  0
 14 22  1  0  0  0  0
 16 17  1  1  0  0  0
 16 24  1  0  0  0  0
 18 19  1  1  0  0  0
 18 25  1  0  0  0  0
 20 21  1  6  0  0  0
 20 27  1  0  0  0  0
 22 23  1  1  0  0  0
 22 29  1  0  0  0  0
 24  2  1  6  0  0  0
 24 31  1  0  0  0  0
 25 26  1  0  0  0  0
 25 33  1  6  0  0  0
 27 28  1  1  0  0  0
 27 35  1  0  0  0  0
 29 30  1  0  0  0  0
 29 37  1  1  0  0  0
 31 32  1  1  0  0  0
 31 39  1  0  0  0  0
 33 34  1  0  0  0  0
 35 36  1  0  0  0  0
 35 41  1  1  0  0  0
 37 38  1  0  0  0  0
 39 40  1  6  0  0  0
 41 42  1  0  0  0  0
M  END
>  <CHROM.1>
-152.81054241,159.64085839,-140.44894172,-57.21158469,-174.85875480,-59.96865667
62.64163404,-175.50903775,-176.31863015,8.01954306,3.51343752,2.85993444
1.73035838,-0.69026339,-0.23617295

>  <Name>
2o3w_lig

>  <RI>
0

>  <Rbt.Current_Directory>
/home/itssahil/PROJECTS/Mol_Feturizer/New_Systems/rnas/2o3w

>  <Rbt.Executable>
rbdock ($Id: //depot/dev/client3/rdock/2013.1/src/exe/rbdock.cxx#4 $)

>  <Rbt.Library>
libRbt.so (2013.1, Build901 2013/11/27)

>  <Rbt.Parameter_File>
/export/apps/rDock/src/rDock_2013.1_src/data/scripts/dock_solv.prm

>  <Rbt.Receptor>
prm/pocket_docking_3.prm

>  <SCORE>
-15.2133

>  <SCORE.INTER>
-8.63613

>  <SCORE.INTER.CONST>
1

>  <SCORE.INTER.POLAR>
-1.67221

>  <SCORE.INTER.ROT>
9

>  <SCORE.INTER.SOLV>
12.2928

>  <SCORE.INTER.VDW>
-13.881

>  <SCORE.INTER.norm>
-0.205622

>  <SCORE.INTRA>
-7.29081

>  <SCORE.INTRA.DIHEDRAL>
-17.2359

>  <SCORE.INTRA.DIHEDRAL.0>
27.8999

>  <SCORE.INTRA.POLAR>
0

>  <SCORE.INTRA.POLAR.0>
0

>  <SCORE.INTRA.REPUL>
0

>  <SCORE.INTRA.REPUL.0>
0

>  <SCORE.INTRA.SOLV>
-0.84564

>  <SCORE.INTRA.SOLV.lig_0>
-104.479

>  <SCORE.INTRA.VDW>
1.74997

>  <SCORE.INTRA.VDW.0>
-6.17816

>  <SCORE.INTRA.norm>
-0.173591

>  <SCORE.RESTR>
0.71365

>  <SCORE.RESTR.CAVITY>
0.71365

>  <SCORE.RESTR.norm>
0.0169917

>  <SCORE.SYSTEM>
0

>  <SCORE.SYSTEM.CONST>
0

>  <SCORE.SYSTEM.DIHEDRAL>
0

>  <SCORE.SYSTEM.SOLV>
0

>  <SCORE.SYSTEM.norm>
0

>  <SCORE.heavy>
42

>  <SCORE.norm>
-0.362221

>  <RMSD>
8.639

$$$$
2o3w_lig
 OpenBabel11021811463D
libRbt.so/2013.1/901 2013/11/27
 42 45  0  0  0  0  0  0  0  0999 V2000
    9.7136    6.5705    2.2536 C   0  0  2  0  0  0  0  0  0  0  0  0
    9.1995    6.2233    3.5507 O   0  0  0  0  0  0  0  0  0  0  0  0
   12.8720    4.6601    5.2434 C   0  0  2  0  0  0  0  0  0  0  0  0
   13.8836    4.1054    6.1917 N   0  0  0  0  0  0  0  0  0  0  0  0
    9.1981    2.0924    4.1281 C   0  0  1  0  0  0  0  0  0  0  0  0
    7.7577   -1.6585    5.1045 C   0  0  1  0  0  0  0  0  0  0  0  0
    8.5925    7.3637    1.5172 C   0  0  2  0  0  0  0  0  0  0  0  0
    8.0408    8.4546    2.3394 N   0  0  0  0  0  0  0  0  0  0  0  0
   12.4326    6.1206    5.6625 C   0  0  0  0  0  0  0  0  0  0  0  0
    7.9605    1.4335    4.8099 C   0  0  2  0  0  0  0  0  0  0  0  0
    8.2241    0.9184    6.1382 O   0  0  0  0  0  0  0  0  0  0  0  0
    8.8861   -2.2383    6.0315 C   0  0  2  0  0  0  0  0  0  0  0  0
    9.8602   -3.0502    5.2423 N   0  0  0  0  0  0  0  0  0  0  0  0
    7.4076    6.4654    1.1170 C   0  0  1  0  0  0  0  0  0  0  0  0
    6.4242    7.2243    0.4115 O   0  0  0  0  0  0  0  0  0  0  0  0
   11.3853    6.6586    4.6154 C   0  0  2  0  0  0  0  0  0  0  0  0
   10.9601    8.0391    4.9715 N   0  0  0  0  0  0  0  0  0  0  0  0
    7.5637    0.3921    3.7624 C   0  0  2  0  0  0  0  0  0  0  0  0
    8.2345   -0.8873    3.9948 O   0  0  0  0  0  0  0  0  0  0  0  0
    8.2169   -3.1134    7.1949 C   0  0  1  0  0  0  0  0  0  0  0  0
    7.5929   -2.2242    8.1482 O   0  0  0  0  0  0  0  0  0  0  0  0
    7.9224    5.2808    0.2680 C   0  0  2  0  0  0  0  0  0  0  0  0
    6.8473    4.4577   -0.1206 O   0  0  0  0  0  0  0  0  0  0  0  0
   10.1209    5.7131    4.5562 C   0  0  2  0  0  0  0  0  0  0  0  0
    7.9574    0.9884    2.4005 C   0  0  2  0  0  0  0  0  0  0  0  0
    9.0917    1.7917    2.7176 O   0  0  0  0  0  0  0  0  0  0  0  0
    7.1315   -4.1552    6.6435 C   0  0  2  0  0  0  0  0  0  0  0  0
    7.8318   -5.1598    5.9109 O   0  0  0  0  0  0  0  0  0  0  0  0
    8.9663    4.4685    1.1048 C   0  0  2  0  0  0  0  0  0  0  0  0
   10.0665    5.3460    1.5041 O   0  0  0  0  0  0  0  0  0  0  0  0
   10.4812    4.2526    4.2066 C   0  0  2  0  0  0  0  0  0  0  0  0
    9.2467    3.5033    4.3775 O   0  0  0  0  0  0  0  0  0  0  0  0
    6.8459    1.8357    1.7070 C   0  0  0  0  0  0  0  0  0  0  0  0
    6.5300    2.9577    2.5257 O   0  0  0  0  0  0  0  0  0  0  0  0
    6.0874   -3.4298    5.7130 C   0  0  1  0  0  0  0  0  0  0  0  0
    6.8695   -2.7931    4.6391 O   0  0  0  0  0  0  0  0  0  0  0  0
    9.5293    3.2894    0.3456 C   0  0  0  0  0  0  0  0  0  0  0  0
   10.2031    3.7321   -0.8074 O   0  0  0  0  0  0  0  0  0  0  0  0
   11.6056    3.7147    5.1873 C   0  0  1  0  0  0  0  0  0  0  0  0
   12.0459    2.4194    4.7701 O   0  0  0  0  0  0  0  0  0  0  0  0
    4.9896   -4.3988    5.0930 C   0  0  0  0  0  0  0  0  0  0  0  0
    5.4978   -5.4088    4.1243 N   0  0  0  0  0  0  0  0  0  0  0  0
  1  2  1  1  0  0  0
  1  7  1  0  0  0  0
  1 30  1  0  0  0  0
  3  4  1  1  0  0  0
  3  9  1  0  0  0  0
  3 39  1  0  0  0  0
  5 10  1  0  0  0  0
  5 26  1  0  0  0  0
  5 32  1  6  0  0  0
  6 12  1  0  0  0  0
  6 36  1  0  0  0  0
  6 19  1  6  0  0  0
  7  8  1  1  0  0  0
  7 14  1  0  0  0  0
  9 16  1  0  0  0  0
 10 11  1  1  0  0  0
 10 18  1  0  0  0  0
 12 13  1  6  0  0  0
 12 20  1  0  0  0  0
 14 15  1  6  0  0  0
 14 22  1  0  0  0  0
 16 17  1  1  0  0  0
 16 24  1  0  0  0  0
 18 19  1  1  0  0  0
 18 25  1  0  0  0  0
 20 21  1  1  0  0  0
 20 27  1  0  0  0  0
 22 23  1  1  0  0  0
 22 29  1  0  0  0  0
 24  2  1  6  0  0  0
 24 31  1  0  0  0  0
 25 26  1  0  0  0  0
 25 33  1  1  0  0  0
 27 28  1  6  0  0  0
 27 35  1  0  0  0  0
 29 30  1  0  0  0  0
 29 37  1  6  0  0  0
 31 32  1  1  0  0  0
 31 39  1  0  0  0  0
 33 34  1  0  0  0  0
 35 36  1  0  0  0  0
 35 41  1  6  0  0  0
 37 38  1  0  0  0  0
 39 40  1  6  0  0  0
 41 42  1  0  0  0  0
M  END
>  <CHROM.1>
-167.77935978,161.04999946,-133.52432017,73.30682821,48.28058119,62.16327820
61.41381581,179.57524804,-66.39555762,8.79543235,2.17249029,3.76858583,1.25814534
-0.74450406,-0.53734868

>  <Name>
2o3w_lig

>  <RI>
0

>  <Rbt.Current_Directory>
/home/itssahil/PROJECTS/Mol_Feturizer/New_Systems/rnas/2o3w

>  <Rbt.Executable>
rbdock ($Id: //depot/dev/client3/rdock/2013.1/src/exe/rbdock.cxx#4 $)

>  <Rbt.Library>
libRbt.so (2013.1, Build901 2013/11/27)

>  <Rbt.Parameter_File>
/export/apps/rDock/src/rDock_2013.1_src/data/scripts/dock_solv.prm

>  <Rbt.Receptor>
prm/pocket_docking_4.prm

>  <SCORE>
-14.1753

>  <SCORE.INTER>
-5.60069

>  <SCORE.INTER.CONST>
1

>  <SCORE.INTER.POLAR>
-0.883042

>  <SCORE.INTER.ROT>
9

>  <SCORE.INTER.SOLV>
13.5549

>  <SCORE.INTER.VDW>
-14.9086

>  <SCORE.INTER.norm>
-0.13335

>  <SCORE.INTRA>
-8.57594

>  <SCORE.INTRA.DIHEDRAL>
-17.5178

>  <SCORE.INTRA.DIHEDRAL.0>
27.8999

>  <SCORE.INTRA.POLAR>
0

>  <SCORE.INTRA.POLAR.0>
0

>  <SCORE.INTRA.REPUL>
0

>  <SCORE.INTRA.REPUL.0>
0

>  <SCORE.INTRA.SOLV>
-1.02328

>  <SCORE.INTRA.SOLV.lig_0>
-104.479

>  <SCORE.INTRA.VDW>
0.694614

>  <SCORE.INTRA.VDW.0>
-6.17816

>  <SCORE.INTRA.norm>
-0.204189

>  <SCORE.RESTR>
0.00137529

>  <SCORE.RESTR.CAVITY>
0.00137529

>  <SCORE.RESTR.norm>
3.27449e-05

>  <SCORE.SYSTEM>
0

>  <SCORE.SYSTEM.CONST>
0

>  <SCORE.SYSTEM.DIHEDRAL>
0

>  <SCORE.SYSTEM.SOLV>
0

>  <SCORE.SYSTEM.norm>
0

>  <SCORE.heavy>
42

>  <SCORE.norm>
-0.337506

>  <RMSD>
8.639

$$$$
2o3w_lig
 OpenBabel11021811463D
libRbt.so/2013.1/901 2013/11/27
 42 45  0  0  0  0  0  0  0  0999 V2000
    6.3332    5.3790   -1.3336 C   0  0  2  0  0  0  0  0  0  0  0  0
    6.4187    5.1597    0.0848 O   0  0  0  0  0  0  0  0  0  0  0  0
    6.5785    1.5257    2.4438 C   0  0  2  0  0  0  0  0  0  0  0  0
    7.0088    0.2186    3.0240 N   0  0  0  0  0  0  0  0  0  0  0  0
    9.0588    5.3873    3.2511 C   0  0  1  0  0  0  0  0  0  0  0  0
   10.8115    7.8914    6.3728 C   0  0  1  0  0  0  0  0  0  0  0  0
    7.7513    5.8114   -1.8134 C   0  0  2  0  0  0  0  0  0  0  0  0
    8.8096    4.9062   -1.3324 N   0  0  0  0  0  0  0  0  0  0  0  0
    6.2464    1.3883    0.9034 C   0  0  0  0  0  0  0  0  0  0  0  0
   10.3150    6.2695    2.9787 C   0  0  2  0  0  0  0  0  0  0  0  0
   11.5636    5.5345    2.9836 O   0  0  0  0  0  0  0  0  0  0  0  0
   11.9599    8.9633    6.3408 C   0  0  2  0  0  0  0  0  0  0  0  0
   13.3012    8.3071    6.3042 N   0  0  0  0  0  0  0  0  0  0  0  0
    8.1243    7.2262   -1.3338 C   0  0  1  0  0  0  0  0  0  0  0  0
    9.4124    7.5958   -1.8288 O   0  0  0  0  0  0  0  0  0  0  0  0
    5.7785    2.7895    0.3553 C   0  0  2  0  0  0  0  0  0  0  0  0
    5.4433    2.6936   -1.0911 N   0  0  0  0  0  0  0  0  0  0  0  0
   10.1702    7.3361    4.0654 C   0  0  2  0  0  0  0  0  0  0  0  0
   10.8505    6.9426    5.2996 O   0  0  0  0  0  0  0  0  0  0  0  0
   11.8232    9.9228    7.6165 C   0  0  1  0  0  0  0  0  0  0  0  0
   10.6986   10.8083    7.4168 O   0  0  0  0  0  0  0  0  0  0  0  0
    7.0372    8.2274   -1.7865 C   0  0  2  0  0  0  0  0  0  0  0  0
    7.3723    9.5306   -1.3695 O   0  0  0  0  0  0  0  0  0  0  0  0
    6.9064    3.8753    0.5672 C   0  0  2  0  0  0  0  0  0  0  0  0
    8.6589    7.5081    4.2926 C   0  0  2  0  0  0  0  0  0  0  0  0
    8.1416    6.2106    4.0075 O   0  0  0  0  0  0  0  0  0  0  0  0
   11.6314    9.1132    8.9860 C   0  0  2  0  0  0  0  0  0  0  0  0
   12.8624    8.4498    9.2705 O   0  0  0  0  0  0  0  0  0  0  0  0
    5.6595    7.7915   -1.1853 C   0  0  2  0  0  0  0  0  0  0  0  0
    5.3387    6.4335   -1.6243 O   0  0  0  0  0  0  0  0  0  0  0  0
    7.3236    4.0245    2.0467 C   0  0  2  0  0  0  0  0  0  0  0  0
    8.4764    4.9107    2.0310 O   0  0  0  0  0  0  0  0  0  0  0  0
    7.9784    8.5921    3.4003 C   0  0  0  0  0  0  0  0  0  0  0  0
    8.1869    8.2708    2.0284 O   0  0  0  0  0  0  0  0  0  0  0  0
   10.4644    8.0633    8.8522 C   0  0  1  0  0  0  0  0  0  0  0  0
   10.8231    7.1951    7.7174 O   0  0  0  0  0  0  0  0  0  0  0  0
    4.5323    8.7157   -1.5842 C   0  0  0  0  0  0  0  0  0  0  0  0
    3.3560    8.3722   -0.8932 O   0  0  0  0  0  0  0  0  0  0  0  0
    7.7094    2.6108    2.6536 C   0  0  1  0  0  0  0  0  0  0  0  0
    7.9487    2.7259    4.0590 O   0  0  0  0  0  0  0  0  0  0  0  0
   10.2265    7.1894   10.1592 C   0  0  0  0  0  0  0  0  0  0  0  0
    9.0962    6.2229   10.0887 N   0  0  0  0  0  0  0  0  0  0  0  0
  1  2  1  1  0  0  0
  1  7  1  0  0  0  0
  1 30  1  0  0  0  0
  3  4  1  6  0  0  0
  3  9  1  0  0  0  0
  3 39  1  0  0  0  0
  5 10  1  0  0  0  0
  5 26  1  0  0  0  0
  5 32  1  6  0  0  0
  6 12  1  0  0  0  0
  6 36  1  0  0  0  0
  6 19  1  6  0  0  0
  7  8  1  1  0  0  0
  7 14  1  0  0  0  0
  9 16  1  0  0  0  0
 10 11  1  1  0  0  0
 10 18  1  0  0  0  0
 12 13  1  1  0  0  0
 12 20  1  0  0  0  0
 14 15  1  6  0  0  0
 14 22  1  0  0  0  0
 16 17  1  6  0  0  0
 16 24  1  0  0  0  0
 18 19  1  1  0  0  0
 18 25  1  0  0  0  0
 20 21  1  6  0  0  0
 20 27  1  0  0  0  0
 22 23  1  1  0  0  0
 22 29  1  0  0  0  0
 24  2  1  1  0  0  0
 24 31  1  0  0  0  0
 25 26  1  0  0  0  0
 25 33  1  6  0  0  0
 27 28  1  6  0  0  0
 27 35  1  0  0  0  0
 29 30  1  0  0  0  0
 29 37  1  6  0  0  0
 31 32  1  6  0  0  0
 31 39  1  0  0  0  0
 33 34  1  0  0  0  0
 35 36  1  0  0  0  0
 35 41  1  1  0  0  0
 37 38  1  0  0  0  0
 39 40  1  1  0  0  0
 41 42  1  0  0  0  0
M  END
>  <CHROM.1>
-83.24751925,177.57607805,-86.86911039,178.17127522,-74.25009736,58.22099610
-173.05557307,173.69574999,177.68661310,8.53155501,6.36808888,2.91282928
-2.98239262,1.06930393,2.65578471

>  <Name>
2o3w_lig

>  <RI>
0

>  <Rbt.Current_Directory>
/home/itssahil/PROJECTS/Mol_Feturizer/New_Systems/rnas/2o3w

>  <Rbt.Executable>
rbdock ($Id: //depot/dev/client3/rdock/2013.1/src/exe/rbdock.cxx#4 $)

>  <Rbt.Library>
libRbt.so (2013.1, Build901 2013/11/27)

>  <Rbt.Parameter_File>
/export/apps/rDock/src/rDock_2013.1_src/data/scripts/dock_solv.prm

>  <Rbt.Receptor>
prm/pocket_docking_8.prm

>  <SCORE>
-27.9643

>  <SCORE.INTER>
-18.5403

>  <SCORE.INTER.CONST>
1

>  <SCORE.INTER.POLAR>
-3.70179

>  <SCORE.INTER.ROT>
9

>  <SCORE.INTER.SOLV>
14.4681

>  <SCORE.INTER.VDW>
-14.4436

>  <SCORE.INTER.norm>
-0.441437

>  <SCORE.INTRA>
-9.42393

>  <SCORE.INTRA.DIHEDRAL>
-21.0362

>  <SCORE.INTRA.DIHEDRAL.0>
27.8999

>  <SCORE.INTRA.POLAR>
0

>  <SCORE.INTRA.POLAR.0>
0

>  <SCORE.INTRA.REPUL>
0.0347148

>  <SCORE.INTRA.REPUL.0>
0

>  <SCORE.INTRA.SOLV>
-1.98684

>  <SCORE.INTRA.SOLV.lig_0>
-104.479

>  <SCORE.INTRA.VDW>
1.91401

>  <SCORE.INTRA.VDW.0>
-6.17816

>  <SCORE.INTRA.norm>
-0.224379

>  <SCORE.RESTR>
0

>  <SCORE.RESTR.CAVITY>
0

>  <SCORE.RESTR.norm>
0

>  <SCORE.SYSTEM>
0

>  <SCORE.SYSTEM.CONST>
0

>  <SCORE.SYSTEM.DIHEDRAL>
0

>  <SCORE.SYSTEM.SOLV>
0

>  <SCORE.SYSTEM.norm>
0

>  <SCORE.heavy>
42

>  <SCORE.norm>
-0.665816

>  <RMSD>
8.641

$$$$
2o3w_lig
 OpenBabel11021811463D
libRbt.so/2013.1/901 2013/11/27
 42 45  0  0  0  0  0  0  0  0999 V2000
    8.4045    8.2744    4.8525 C   0  0  2  0  0  0  0  0  0  0  0  0
    7.7129    7.1439    5.4100 O   0  0  0  0  0  0  0  0  0  0  0  0
    9.7522    5.8800    9.0211 C   0  0  2  0  0  0  0  0  0  0  0  0
   10.0487    5.5062   10.4363 N   0  0  0  0  0  0  0  0  0  0  0  0
    7.0011    3.2585    6.1813 C   0  0  1  0  0  0  0  0  0  0  0  0
    6.7598   -0.4857    4.0427 C   0  0  1  0  0  0  0  0  0  0  0  0
    7.8846    8.4521    3.3943 C   0  0  2  0  0  0  0  0  0  0  0  0
    6.4134    8.4548    3.3167 N   0  0  0  0  0  0  0  0  0  0  0  0
    9.3408    7.4027    8.9037 C   0  0  0  0  0  0  0  0  0  0  0  0
    5.6648    2.8435    5.4936 C   0  0  2  0  0  0  0  0  0  0  0  0
    4.6715    2.3152    6.4065 O   0  0  0  0  0  0  0  0  0  0  0  0
    6.4696   -1.9745    4.4525 C   0  0  2  0  0  0  0  0  0  0  0  0
    6.9356   -2.2448    5.8456 N   0  0  0  0  0  0  0  0  0  0  0  0
    8.3773    7.3335    2.4579 C   0  0  1  0  0  0  0  0  0  0  0  0
    7.9106    7.5578    1.1265 O   0  0  0  0  0  0  0  0  0  0  0  0
    9.0632    7.7411    7.3901 C   0  0  2  0  0  0  0  0  0  0  0  0
    8.6868    9.1727    7.2406 N   0  0  0  0  0  0  0  0  0  0  0  0
    6.1692    1.8695    4.4277 C   0  0  2  0  0  0  0  0  0  0  0  0
    6.2092    0.4958    4.9299 O   0  0  0  0  0  0  0  0  0  0  0  0
    7.1801   -2.9588    3.4069 C   0  0  1  0  0  0  0  0  0  0  0  0
    6.4426   -2.9314    2.1642 O   0  0  0  0  0  0  0  0  0  0  0  0
    9.9203    7.2597    2.5101 C   0  0  2  0  0  0  0  0  0  0  0  0
   10.3884    6.2511    1.6452 O   0  0  0  0  0  0  0  0  0  0  0  0
    7.9090    6.8269    6.8176 C   0  0  2  0  0  0  0  0  0  0  0  0
    7.5727    2.3601    4.0344 C   0  0  2  0  0  0  0  0  0  0  0  0
    8.0539    2.9545    5.2376 O   0  0  0  0  0  0  0  0  0  0  0  0
    8.7105   -2.5729    3.1305 C   0  0  2  0  0  0  0  0  0  0  0  0
    9.4476   -2.8550    4.3194 O   0  0  0  0  0  0  0  0  0  0  0  0
   10.3684    6.9771    3.9829 C   0  0  2  0  0  0  0  0  0  0  0  0
    9.8628    8.0314    4.8618 O   0  0  0  0  0  0  0  0  0  0  0  0
    8.2173    5.3194    6.9506 C   0  0  2  0  0  0  0  0  0  0  0  0
    6.9928    4.6426    6.5541 O   0  0  0  0  0  0  0  0  0  0  0  0
    7.6069    3.3783    2.8527 C   0  0  0  0  0  0  0  0  0  0  0  0
    7.0550    2.7681    1.6900 O   0  0  0  0  0  0  0  0  0  0  0  0
    8.8405   -1.0478    2.7573 C   0  0  1  0  0  0  0  0  0  0  0  0
    8.2540   -0.2997    3.8828 O   0  0  0  0  0  0  0  0  0  0  0  0
   11.8704    6.8949    4.1281 C   0  0  0  0  0  0  0  0  0  0  0  0
   12.2141    6.6252    5.4654 O   0  0  0  0  0  0  0  0  0  0  0  0
    8.5946    4.9664    8.4502 C   0  0  1  0  0  0  0  0  0  0  0  0
    9.0258    3.6059    8.5433 O   0  0  0  0  0  0  0  0  0  0  0  0
   10.3348   -0.5694    2.4987 C   0  0  0  0  0  0  0  0  0  0  0  0
   10.5048    0.8827    2.2178 N   0  0  0  0  0  0  0  0  0  0  0  0
  1  2  1  6  0  0  0
  1  7  1  0  0  0  0
  1 30  1  0  0  0  0
  3  4  1  1  0  0  0
  3  9  1  0  0  0  0
  3 39  1  0  0  0  0
  5 10  1  0  0  0  0
  5 26  1  0  0  0  0
  5 32  1  6  0  0  0
  6 12  1  0  0  0  0
  6 36  1  0  0  0  0
  6 19  1  1  0  0  0
  7  8  1  1  0  0  0
  7 14  1  0  0  0  0
  9 16  1  0  0  0  0
 10 11  1  1  0  0  0
 10 18  1  0  0  0  0
 12 13  1  1  0  0  0
 12 20  1  0  0  0  0
 14 15  1  6  0  0  0
 14 22  1  0  0  0  0
 16 17  1  1  0  0  0
 16 24  1  0  0  0  0
 18 19  1  1  0  0  0
 18 25  1  0  0  0  0
 20 21  1  6  0  0  0
 20 27  1  0  0  0  0
 22 23  1  6  0  0  0
 22 29  1  0  0  0  0
 24  2  1  6  0  0  0
 24 31  1  0  0  0  0
 25 26  1  0  0  0  0
 25 33  1  6  0  0  0
 27 28  1  1  0  0  0
 27 35  1  0  0  0  0
 29 30  1  0  0  0  0
 29 37  1  6  0  0  0
 31 32  1  1  0  0  0
 31 39  1  0  0  0  0
 33 34  1  0  0  0  0
 35 36  1  0  0  0  0
 35 41  1  1  0  0  0
 37 38  1  0  0  0  0
 39 40  1  6  0  0  0
 41 42  1  0  0  0  0
M  END
>  <CHROM.1>
-174.01666182,-167.00934830,-165.62644449,-175.61087494,-8.18467167,-60.54814985
-179.34193504,161.87906611,-176.73847256,8.30737100,3.68419812,4.82212206
-0.64908727,-1.36239513,-2.01855293

>  <Name>
2o3w_lig

>  <RI>
0

>  <Rbt.Current_Directory>
/home/itssahil/PROJECTS/Mol_Feturizer/New_Systems/rnas/2o3w

>  <Rbt.Executable>
rbdock ($Id: //depot/dev/client3/rdock/2013.1/src/exe/rbdock.cxx#4 $)

>  <Rbt.Library>
libRbt.so (2013.1, Build901 2013/11/27)

>  <Rbt.Parameter_File>
/export/apps/rDock/src/rDock_2013.1_src/data/scripts/dock_solv.prm

>  <Rbt.Receptor>
prm/pocket_docking_7.prm

>  <SCORE>
-13.7596

>  <SCORE.INTER>
-9.46561

>  <SCORE.INTER.CONST>
1

>  <SCORE.INTER.POLAR>
-1.27776

>  <SCORE.INTER.ROT>
9

>  <SCORE.INTER.SOLV>
19.5895

>  <SCORE.INTER.VDW>
-18.1811

>  <SCORE.INTER.norm>
-0.225372

>  <SCORE.INTRA>
-4.29402

>  <SCORE.INTRA.DIHEDRAL>
-17.3717

>  <SCORE.INTRA.DIHEDRAL.0>
27.8999

>  <SCORE.INTRA.POLAR>
0

>  <SCORE.INTRA.POLAR.0>
0

>  <SCORE.INTRA.REPUL>
0

>  <SCORE.INTRA.REPUL.0>
0

>  <SCORE.INTRA.SOLV>
-2.41588

>  <SCORE.INTRA.SOLV.lig_0>
-104.479

>  <SCORE.INTRA.VDW>
5.59977

>  <SCORE.INTRA.VDW.0>
-6.17816

>  <SCORE.INTRA.norm>
-0.102238

>  <SCORE.RESTR>
0

>  <SCORE.RESTR.CAVITY>
0

>  <SCORE.RESTR.norm>
0

>  <SCORE.SYSTEM>
0

>  <SCORE.SYSTEM.CONST>
0

>  <SCORE.SYSTEM.DIHEDRAL>
0

>  <SCORE.SYSTEM.SOLV>
0

>  <SCORE.SYSTEM.norm>
0

>  <SCORE.heavy>
42

>  <SCORE.norm>
-0.32761

>  <RMSD>
8.642

$$$$
2o3w_lig
 OpenBabel11021811463D
libRbt.so/2013.1/901 2013/11/27
 42 45  0  0  0  0  0  0  0  0999 V2000
    3.0832    5.1819   -1.5011 C   0  0  2  0  0  0  0  0  0  0  0  0
    3.3786    6.5891   -1.4955 O   0  0  0  0  0  0  0  0  0  0  0  0
    6.0650    6.7113   -4.8962 C   0  0  2  0  0  0  0  0  0  0  0  0
    6.9066    7.1890   -6.0337 N   0  0  0  0  0  0  0  0  0  0  0  0
    6.5130    7.2866    0.0353 C   0  0  1  0  0  0  0  0  0  0  0  0
    7.8704    6.6585    4.1176 C   0  0  1  0  0  0  0  0  0  0  0  0
    2.2905    4.8782   -0.1944 C   0  0  2  0  0  0  0  0  0  0  0  0
    1.1629    5.8043    0.0091 N   0  0  0  0  0  0  0  0  0  0  0  0
    4.5306    6.9897   -5.1609 C   0  0  0  0  0  0  0  0  0  0  0  0
    7.4069    8.3451    0.7504 C   0  0  2  0  0  0  0  0  0  0  0  0
    8.8009    8.3009    0.3581 O   0  0  0  0  0  0  0  0  0  0  0  0
    8.3650    7.7168    5.1684 C   0  0  2  0  0  0  0  0  0  0  0  0
    9.8007    8.0617    4.9429 N   0  0  0  0  0  0  0  0  0  0  0  0
    3.1761    4.9729    1.0617 C   0  0  1  0  0  0  0  0  0  0  0  0
    2.4194    4.6487    2.2293 O   0  0  0  0  0  0  0  0  0  0  0  0
    3.6953    6.4453   -3.9408 C   0  0  2  0  0  0  0  0  0  0  0  0
    2.2427    6.6780   -4.1633 N   0  0  0  0  0  0  0  0  0  0  0  0
    7.1222    8.0304    2.2198 C   0  0  2  0  0  0  0  0  0  0  0  0
    8.0610    7.0412    2.7499 O   0  0  0  0  0  0  0  0  0  0  0  0
    8.1367    7.1413    6.6461 C   0  0  1  0  0  0  0  0  0  0  0  0
    6.7244    7.1819    6.9503 O   0  0  0  0  0  0  0  0  0  0  0  0
    4.3973    4.0388    0.9032 C   0  0  2  0  0  0  0  0  0  0  0  0
    5.2097    4.1013    2.0524 O   0  0  0  0  0  0  0  0  0  0  0  0
    4.1455    7.1485   -2.5997 C   0  0  2  0  0  0  0  0  0  0  0  0
    5.6761    7.5090    2.2698 C   0  0  2  0  0  0  0  0  0  0  0  0
    5.5192    6.8759    1.0021 O   0  0  0  0  0  0  0  0  0  0  0  0
    8.6799    5.6440    6.8213 C   0  0  2  0  0  0  0  0  0  0  0  0
   10.1048    5.6927    6.7614 O   0  0  0  0  0  0  0  0  0  0  0  0
    5.2043    4.4648   -0.3684 C   0  0  2  0  0  0  0  0  0  0  0  0
    4.3377    4.4009   -1.5452 O   0  0  0  0  0  0  0  0  0  0  0  0
    5.6503    6.9664   -2.3039 C   0  0  2  0  0  0  0  0  0  0  0  0
    5.9199    7.8182   -1.1566 O   0  0  0  0  0  0  0  0  0  0  0  0
    4.5882    8.6059    2.4879 C   0  0  0  0  0  0  0  0  0  0  0  0
    3.3026    7.9935    2.5202 O   0  0  0  0  0  0  0  0  0  0  0  0
    8.1178    4.7120    5.6821 C   0  0  1  0  0  0  0  0  0  0  0  0
    8.5308    5.3273    4.4089 O   0  0  0  0  0  0  0  0  0  0  0  0
    6.4182    3.5962   -0.6047 C   0  0  0  0  0  0  0  0  0  0  0  0
    7.3287    3.7358    0.4586 O   0  0  0  0  0  0  0  0  0  0  0  0
    6.5143    7.4182   -3.5549 C   0  0  1  0  0  0  0  0  0  0  0  0
    7.8940    7.1088   -3.3393 O   0  0  0  0  0  0  0  0  0  0  0  0
    8.6348    3.2102    5.7600 C   0  0  0  0  0  0  0  0  0  0  0  0
    8.0519    2.2775    4.7566 N   0  0  0  0  0  0  0  0  0  0  0  0
  1  2  1  1  0  0  0
  1  7  1  0  0  0  0
  1 30  1  0  0  0  0
  3  4  1  6  0  0  0
  3  9  1  0  0  0  0
  3 39  1  0  0  0  0
  5 10  1  0  0  0  0
  5 26  1  0  0  0  0
  5 32  1  6  0  0  0
  6 12  1  0  0  0  0
  6 36  1  0  0  0  0
  6 19  1  6  0  0  0
  7  8  1  1  0  0  0
  7 14  1  0  0  0  0
  9 16  1  0  0  0  0
 10 11  1  1  0  0  0
 10 18  1  0  0  0  0
 12 13  1  6  0  0  0
 12 20  1  0  0  0  0
 14 15  1  1  0  0  0
 14 22  1  0  0  0  0
 16 17  1  6  0  0  0
 16 24  1  0  0  0  0
 18 19  1  6  0  0  0
 18 25  1  0  0  0  0
 20 21  1  6  0  0  0
 20 27  1  0  0  0  0
 22 23  1  1  0  0  0
 22 29  1  0  0  0  0
 24  2  1  1  0  0  0
 24 31  1  0  0  0  0
 25 26  1  0  0  0  0
 25 33  1  6  0  0  0
 27 28  1  6  0  0  0
 27 35  1  0  0  0  0
 29 30  1  0  0  0  0
 29 37  1  6  0  0  0
 31 32  1  1  0  0  0
 31 39  1  0  0  0  0
 33 34  1  0  0  0  0
 35 36  1  0  0  0  0
 35 41  1  1  0  0  0
 37 38  1  0  0  0  0
 39 40  1  1  0  0  0
 41 42  1  0  0  0  0
M  END
>  <CHROM.1>
178.73836318,148.09919250,-76.18912760,-179.10776640,38.11763296,-179.75109429
-63.54599184,124.70154848,175.94008958,6.01440055,6.19655110,0.99024217,2.02506161
-0.42607827,-1.31213910

>  <Name>
2o3w_lig

>  <RI>
0

>  <Rbt.Current_Directory>
/home/itssahil/PROJECTS/Mol_Feturizer/New_Systems/rnas/2o3w

>  <Rbt.Executable>
rbdock ($Id: //depot/dev/client3/rdock/2013.1/src/exe/rbdock.cxx#4 $)

>  <Rbt.Library>
libRbt.so (2013.1, Build901 2013/11/27)

>  <Rbt.Parameter_File>
/export/apps/rDock/src/rDock_2013.1_src/data/scripts/dock_solv.prm

>  <Rbt.Receptor>
prm/pocket_docking_7.prm

>  <SCORE>
-16.9186

>  <SCORE.INTER>
-8.62614

>  <SCORE.INTER.CONST>
1

>  <SCORE.INTER.POLAR>
-2.66156

>  <SCORE.INTER.ROT>
9

>  <SCORE.INTER.SOLV>
11.1223

>  <SCORE.INTER.VDW>
-10.1863

>  <SCORE.INTER.norm>
-0.205384

>  <SCORE.INTRA>
-8.29247

>  <SCORE.INTRA.DIHEDRAL>
-13.3021

>  <SCORE.INTRA.DIHEDRAL.0>
27.8999

>  <SCORE.INTRA.POLAR>
0

>  <SCORE.INTRA.POLAR.0>
0

>  <SCORE.INTRA.REPUL>
0

>  <SCORE.INTRA.REPUL.0>
0

>  <SCORE.INTRA.SOLV>
-3.19878

>  <SCORE.INTRA.SOLV.lig_0>
-104.479

>  <SCORE.INTRA.VDW>
-0.0420114

>  <SCORE.INTRA.VDW.0>
-6.17816

>  <SCORE.INTRA.norm>
-0.19744

>  <SCORE.RESTR>
0

>  <SCORE.RESTR.CAVITY>
0

>  <SCORE.RESTR.norm>
0

>  <SCORE.SYSTEM>
0

>  <SCORE.SYSTEM.CONST>
0

>  <SCORE.SYSTEM.DIHEDRAL>
0

>  <SCORE.SYSTEM.SOLV>
0

>  <SCORE.SYSTEM.norm>
0

>  <SCORE.heavy>
42

>  <SCORE.norm>
-0.402824

>  <RMSD>
8.649

$$$$
2o3w_lig
 OpenBabel11021811463D
libRbt.so/2013.1/901 2013/11/27
 42 45  0  0  0  0  0  0  0  0999 V2000
    7.6887    8.4819    4.6272 C   0  0  2  0  0  0  0  0  0  0  0  0
    8.5503    7.3644    4.3511 O   0  0  0  0  0  0  0  0  0  0  0  0
   12.1822    6.1769    6.3993 C   0  0  2  0  0  0  0  0  0  0  0  0
   13.1395    5.6508    7.4177 N   0  0  0  0  0  0  0  0  0  0  0  0
    9.2535    3.2399    4.3997 C   0  0  1  0  0  0  0  0  0  0  0  0
    8.0070   -0.5901    4.1339 C   0  0  1  0  0  0  0  0  0  0  0  0
    6.4557    7.9256    5.4007 C   0  0  2  0  0  0  0  0  0  0  0  0
    6.8417    7.0729    6.5385 N   0  0  0  0  0  0  0  0  0  0  0  0
   11.4218    7.4568    6.9335 C   0  0  0  0  0  0  0  0  0  0  0  0
    7.9304    2.4394    4.2012 C   0  0  2  0  0  0  0  0  0  0  0  0
    7.4918    1.7236    5.3820 O   0  0  0  0  0  0  0  0  0  0  0  0
    8.6318   -1.9944    4.4603 C   0  0  2  0  0  0  0  0  0  0  0  0
    9.1007   -2.6721    3.2146 N   0  0  0  0  0  0  0  0  0  0  0  0
    5.5357    7.0786    4.5022 C   0  0  1  0  0  0  0  0  0  0  0  0
    4.4008    6.6234    5.2409 O   0  0  0  0  0  0  0  0  0  0  0  0
   10.4466    7.9768    5.8105 C   0  0  2  0  0  0  0  0  0  0  0  0
    9.7237    9.1915    6.2747 N   0  0  0  0  0  0  0  0  0  0  0  0
    8.2875    1.5701    2.9944 C   0  0  2  0  0  0  0  0  0  0  0  0
    8.8697    0.2922    3.4053 O   0  0  0  0  0  0  0  0  0  0  0  0
    7.5481   -2.8894    5.2293 C   0  0  1  0  0  0  0  0  0  0  0  0
    7.4103   -2.3972    6.5812 O   0  0  0  0  0  0  0  0  0  0  0  0
    5.1109    7.9097    3.2701 C   0  0  2  0  0  0  0  0  0  0  0  0
    4.2545    7.1539    2.4456 O   0  0  0  0  0  0  0  0  0  0  0  0
    9.4036    6.8575    5.4165 C   0  0  2  0  0  0  0  0  0  0  0  0
    9.2824    2.3926    2.1583 C   0  0  2  0  0  0  0  0  0  0  0  0
    9.9625    3.1696    3.1414 O   0  0  0  0  0  0  0  0  0  0  0  0
    6.1164   -2.8875    4.5098 C   0  0  2  0  0  0  0  0  0  0  0  0
    6.2489   -3.6071    3.2846 O   0  0  0  0  0  0  0  0  0  0  0  0
    6.3912    8.3477    2.4837 C   0  0  2  0  0  0  0  0  0  0  0  0
    7.2676    9.1217    3.3626 O   0  0  0  0  0  0  0  0  0  0  0  0
   10.0775    5.5531    4.9370 C   0  0  2  0  0  0  0  0  0  0  0  0
    8.9948    4.5922    4.7992 O   0  0  0  0  0  0  0  0  0  0  0  0
    8.6328    3.3054    1.0725 C   0  0  0  0  0  0  0  0  0  0  0  0
    9.6590    3.9206    0.2997 O   0  0  0  0  0  0  0  0  0  0  0  0
    5.6382   -1.4132    4.2272 C   0  0  1  0  0  0  0  0  0  0  0  0
    6.6930   -0.7907    3.4086 O   0  0  0  0  0  0  0  0  0  0  0  0
    6.0679    9.1746    1.2607 C   0  0  0  0  0  0  0  0  0  0  0  0
    7.2468    9.4804    0.5566 O   0  0  0  0  0  0  0  0  0  0  0  0
   11.1369    5.0567    6.0080 C   0  0  1  0  0  0  0  0  0  0  0  0
   11.8667    3.9374    5.4980 O   0  0  0  0  0  0  0  0  0  0  0  0
    4.2365   -1.3185    3.4822 C   0  0  0  0  0  0  0  0  0  0  0  0
    3.0721   -1.8635    4.2330 N   0  0  0  0  0  0  0  0  0  0  0  0
  1  2  1  6  0  0  0
  1  7  1  0  0  0  0
  1 30  1  0  0  0  0
  3  4  1  1  0  0  0
  3  9  1  0  0  0  0
  3 39  1  0  0  0  0
  5 10  1  0  0  0  0
  5 26  1  0  0  0  0
  5 32  1  6  0  0  0
  6 12  1  0  0  0  0
  6 36  1  0  0  0  0
  6 19  1  6  0  0  0
  7  8  1  1  0  0  0
  7 14  1  0  0  0  0
  9 16  1  0  0  0  0
 10 11  1  1  0  0  0
 10 18  1  0  0  0  0
 12 13  1  6  0  0  0
 12 20  1  0  0  0  0
 14 15  1  1  0  0  0
 14 22  1  0  0  0  0
 16 17  1  1  0  0  0
 16 24  1  0  0  0  0
 18 19  1  1  0  0  0
 18 25  1  0  0  0  0
 20 21  1  1  0  0  0
 20 27  1  0  0  0  0
 22 23  1  6  0  0  0
 22 29  1  0  0  0  0
 24  2  1  6  0  0  0
 24 31  1  0  0  0  0
 25 26  1  0  0  0  0
 25 33  1  6  0  0  0
 27 28  1  6  0  0  0
 27 35  1  0  0  0  0
 29 30  1  0  0  0  0
 29 37  1  6  0  0  0
 31 32  1  1  0  0  0
 31 39  1  0  0  0  0
 33 34  1  0  0  0  0
 35 36  1  0  0  0  0
 35 41  1  6  0  0  0
 37 38  1  0  0  0  0
 39 40  1  6  0  0  0
 41 42  1  0  0  0  0
M  END
>  <CHROM.1>
-78.69687421,-174.98082339,175.50309945,64.90613965,-64.41881812,-175.11260419
-176.95158521,-178.33633912,63.22056789,7.99100149,3.75113459,4.18984425
1.42991221,-0.44439970,-0.04071906

>  <Name>
2o3w_lig

>  <RI>
0

>  <Rbt.Current_Directory>
/home/itssahil/PROJECTS/Mol_Feturizer/New_Systems/rnas/2o3w

>  <Rbt.Executable>
rbdock ($Id: //depot/dev/client3/rdock/2013.1/src/exe/rbdock.cxx#4 $)

>  <Rbt.Library>
libRbt.so (2013.1, Build901 2013/11/27)

>  <Rbt.Parameter_File>
/export/apps/rDock/src/rDock_2013.1_src/data/scripts/dock_solv.prm

>  <Rbt.Receptor>
prm/pocket_docking_6.prm

>  <SCORE>
-17.8277

>  <SCORE.INTER>
-8.27137

>  <SCORE.INTER.CONST>
1

>  <SCORE.INTER.POLAR>
-1.40637

>  <SCORE.INTER.ROT>
9

>  <SCORE.INTER.SOLV>
15.2271

>  <SCORE.INTER.VDW>
-15.5021

>  <SCORE.INTER.norm>
-0.196937

>  <SCORE.INTRA>
-9.5563

>  <SCORE.INTRA.DIHEDRAL>
-25.5572

>  <SCORE.INTRA.DIHEDRAL.0>
27.8999

>  <SCORE.INTRA.POLAR>
0

>  <SCORE.INTRA.POLAR.0>
0

>  <SCORE.INTRA.REPUL>
0

>  <SCORE.INTRA.REPUL.0>
0

>  <SCORE.INTRA.SOLV>
-1.52738

>  <SCORE.INTRA.SOLV.lig_0>
-104.479

>  <SCORE.INTRA.VDW>
3.986

>  <SCORE.INTRA.VDW.0>
-6.17816

>  <SCORE.INTRA.norm>
-0.227531

>  <SCORE.RESTR>
0

>  <SCORE.RESTR.CAVITY>
0

>  <SCORE.RESTR.norm>
0

>  <SCORE.SYSTEM>
0

>  <SCORE.SYSTEM.CONST>
0

>  <SCORE.SYSTEM.DIHEDRAL>
0

>  <SCORE.SYSTEM.SOLV>
0

>  <SCORE.SYSTEM.norm>
0

>  <SCORE.heavy>
42

>  <SCORE.norm>
-0.424468

>  <RMSD>
8.659

$$$$
2o3w_lig
 OpenBabel11021811463D
libRbt.so/2013.1/901 2013/11/27
 42 45  0  0  0  0  0  0  0  0999 V2000
    6.7113    7.8896   -0.2998 C   0  0  2  0  0  0  0  0  0  0  0  0
    6.3107    8.3986    0.9839 O   0  0  0  0  0  0  0  0  0  0  0  0
    8.1938    8.2755    4.8871 C   0  0  2  0  0  0  0  0  0  0  0  0
    8.8482    7.7974    6.1416 N   0  0  0  0  0  0  0  0  0  0  0  0
    9.5062    6.2826    1.2262 C   0  0  1  0  0  0  0  0  0  0  0  0
    9.0455    1.8393    1.6683 C   0  0  1  0  0  0  0  0  0  0  0  0
    6.0834    8.8250   -1.3763 C   0  0  2  0  0  0  0  0  0  0  0  0
    6.3407   10.2499   -1.1043 N   0  0  0  0  0  0  0  0  0  0  0  0
    6.7147    7.7281    4.7668 C   0  0  0  0  0  0  0  0  0  0  0  0
    8.3393    5.3041    1.5604 C   0  0  2  0  0  0  0  0  0  0  0  0
    8.1628    5.0596    2.9775 O   0  0  0  0  0  0  0  0  0  0  0  0
    7.6185    1.7924    2.3243 C   0  0  2  0  0  0  0  0  0  0  0  0
    7.6037    2.5307    3.6226 N   0  0  0  0  0  0  0  0  0  0  0  0
    4.5556    8.6599   -1.4745 C   0  0  1  0  0  0  0  0  0  0  0  0
    4.0287    9.5053   -2.4985 O   0  0  0  0  0  0  0  0  0  0  0  0
    6.0717    8.2827    3.4396 C   0  0  2  0  0  0  0  0  0  0  0  0
    4.6718    7.7983    3.3011 N   0  0  0  0  0  0  0  0  0  0  0  0
    8.7244    4.0849    0.7210 C   0  0  2  0  0  0  0  0  0  0  0  0
    9.5702    3.1586    1.4741 O   0  0  0  0  0  0  0  0  0  0  0  0
    7.1792    0.2649    2.5258 C   0  0  1  0  0  0  0  0  0  0  0  0
    6.8412   -0.2978    1.2381 O   0  0  0  0  0  0  0  0  0  0  0  0
    4.2132    7.1755   -1.7364 C   0  0  2  0  0  0  0  0  0  0  0  0
    2.8185    7.0102   -1.8456 O   0  0  0  0  0  0  0  0  0  0  0  0
    6.9152    7.8329    2.1818 C   0  0  2  0  0  0  0  0  0  0  0  0
    9.4605    4.6343   -0.5126 C   0  0  2  0  0  0  0  0  0  0  0  0
   10.0834    5.8161   -0.0149 O   0  0  0  0  0  0  0  0  0  0  0  0
    8.3192   -0.6243    3.2167 C   0  0  2  0  0  0  0  0  0  0  0  0
    8.4415   -0.1915    4.5711 O   0  0  0  0  0  0  0  0  0  0  0  0
    4.7833    6.3060   -0.5666 C   0  0  2  0  0  0  0  0  0  0  0  0
    6.2296    6.5020   -0.4675 O   0  0  0  0  0  0  0  0  0  0  0  0
    8.3900    8.2853    2.2568 C   0  0  2  0  0  0  0  0  0  0  0  0
    9.0460    7.6371    1.1325 O   0  0  0  0  0  0  0  0  0  0  0  0
    8.5466    4.9542   -1.7360 C   0  0  0  0  0  0  0  0  0  0  0  0
    8.1200    3.7349   -2.3361 O   0  0  0  0  0  0  0  0  0  0  0  0
    9.6919   -0.4517    2.4630 C   0  0  1  0  0  0  0  0  0  0  0  0
    9.9940    0.9900    2.4881 O   0  0  0  0  0  0  0  0  0  0  0  0
    4.4985    4.8326   -0.7450 C   0  0  0  0  0  0  0  0  0  0  0  0
    5.0443    4.3768   -1.9589 O   0  0  0  0  0  0  0  0  0  0  0  0
    9.0372    7.8219    3.6287 C   0  0  1  0  0  0  0  0  0  0  0  0
   10.3517    8.3692    3.7639 O   0  0  0  0  0  0  0  0  0  0  0  0
   10.8910   -1.2758    3.1045 C   0  0  0  0  0  0  0  0  0  0  0  0
   10.6697   -2.7431    3.2251 N   0  0  0  0  0  0  0  0  0  0  0  0
  1  2  1  1  0  0  0
  1  7  1  0  0  0  0
  1 30  1  0  0  0  0
  3  4  1  1  0  0  0
  3  9  1  0  0  0  0
  3 39  1  0  0  0  0
  5 10  1  0  0  0  0
  5 26  1  0  0  0  0
  5 32  1  6  0  0  0
  6 12  1  0  0  0  0
  6 36  1  0  0  0  0
  6 19  1  1  0  0  0
  7  8  1  1  0  0  0
  7 14  1  0  0  0  0
  9 16  1  0  0  0  0
 10 11  1  1  0  0  0
 10 18  1  0  0  0  0
 12 13  1  1  0  0  0
 12 20  1  0  0  0  0
 14 15  1  6  0  0  0
 14 22  1  0  0  0  0
 16 17  1  6  0  0  0
 16 24  1  0  0  0  0
 18 19  1  1  0  0  0
 18 25  1  0  0  0  0
 20 21  1  6  0  0  0
 20 27  1  0  0  0  0
 22 23  1  1  0  0  0
 22 29  1  0  0  0  0
 24  2  1  6  0  0  0
 24 31  1  0  0  0  0
 25 26  1  0  0  0  0
 25 33  1  6  0  0  0
 27 28  1  1  0  0  0
 27 35  1  0  0  0  0
 29 30  1  0  0  0  0
 29 37  1  6  0  0  0
 31 32  1  6  0  0  0
 31 39  1  0  0  0  0
 33 34  1  0  0  0  0
 35 36  1  0  0  0  0
 35 41  1  1  0  0  0
 37 38  1  0  0  0  0
 39 40  1  1  0  0  0
 41 42  1  0  0  0  0
M  END
>  <CHROM.1>
-171.09958212,58.82594351,-54.40441026,119.04036131,-166.00185205,-72.97914362
58.22747988,-82.88145769,56.73932200,7.53868281,5.09139071,1.30656102,2.30016013
-0.98335244,0.30536506

>  <Name>
2o3w_lig

>  <RI>
0

>  <Rbt.Current_Directory>
/home/itssahil/PROJECTS/Mol_Feturizer/New_Systems/rnas/2o3w

>  <Rbt.Executable>
rbdock ($Id: //depot/dev/client3/rdock/2013.1/src/exe/rbdock.cxx#4 $)

>  <Rbt.Library>
libRbt.so (2013.1, Build901 2013/11/27)

>  <Rbt.Parameter_File>
/export/apps/rDock/src/rDock_2013.1_src/data/scripts/dock_solv.prm

>  <Rbt.Receptor>
prm/pocket_docking_5.prm

>  <SCORE>
-19.3288

>  <SCORE.INTER>
-11.4849

>  <SCORE.INTER.CONST>
1

>  <SCORE.INTER.POLAR>
-1.39135

>  <SCORE.INTER.ROT>
9

>  <SCORE.INTER.SOLV>
14.2404

>  <SCORE.INTER.VDW>
-17.3656

>  <SCORE.INTER.norm>
-0.273451

>  <SCORE.INTRA>
-7.84388

>  <SCORE.INTRA.DIHEDRAL>
-16.19

>  <SCORE.INTRA.DIHEDRAL.0>
27.8999

>  <SCORE.INTRA.POLAR>
0

>  <SCORE.INTRA.POLAR.0>
0

>  <SCORE.INTRA.REPUL>
0

>  <SCORE.INTRA.REPUL.0>
0

>  <SCORE.INTRA.SOLV>
-1.60533

>  <SCORE.INTRA.SOLV.lig_0>
-104.479

>  <SCORE.INTRA.VDW>
1.05381

>  <SCORE.INTRA.VDW.0>
-6.17816

>  <SCORE.INTRA.norm>
-0.186759

>  <SCORE.RESTR>
0

>  <SCORE.RESTR.CAVITY>
0

>  <SCORE.RESTR.norm>
0

>  <SCORE.SYSTEM>
0

>  <SCORE.SYSTEM.CONST>
0

>  <SCORE.SYSTEM.DIHEDRAL>
0

>  <SCORE.SYSTEM.SOLV>
0

>  <SCORE.SYSTEM.norm>
0

>  <SCORE.heavy>
42

>  <SCORE.norm>
-0.46021

>  <RMSD>
8.710

$$$$
2o3w_lig
 OpenBabel11021811463D
libRbt.so/2013.1/901 2013/11/27
 42 45  0  0  0  0  0  0  0  0999 V2000
    7.6442    6.2288    2.1597 C   0  0  2  0  0  0  0  0  0  0  0  0
    8.1269    6.9262    3.3207 O   0  0  0  0  0  0  0  0  0  0  0  0
   11.2789    4.2786    4.6811 C   0  0  2  0  0  0  0  0  0  0  0  0
   12.2082    3.4925    5.5466 N   0  0  0  0  0  0  0  0  0  0  0  0
    6.7592    3.2266    4.6074 C   0  0  1  0  0  0  0  0  0  0  0  0
    4.0168   -0.0737    4.0562 C   0  0  1  0  0  0  0  0  0  0  0  0
    8.6213    6.5589    0.9916 C   0  0  2  0  0  0  0  0  0  0  0  0
   10.0326    6.3565    1.3629 N   0  0  0  0  0  0  0  0  0  0  0  0
   11.4896    5.8339    4.8771 C   0  0  0  0  0  0  0  0  0  0  0  0
    5.3550    3.2570    5.2840 C   0  0  2  0  0  0  0  0  0  0  0  0
    5.3727    2.9224    6.6936 O   0  0  0  0  0  0  0  0  0  0  0  0
    2.4480    0.0092    4.0288 C   0  0  2  0  0  0  0  0  0  0  0  0
    1.8867   -0.0447    5.4119 N   0  0  0  0  0  0  0  0  0  0  0  0
    8.4914    8.0175    0.5156 C   0  0  1  0  0  0  0  0  0  0  0  0
    9.3750    8.2638   -0.5796 O   0  0  0  0  0  0  0  0  0  0  0  0
   10.5005    6.6068    3.9247 C   0  0  2  0  0  0  0  0  0  0  0  0
   10.6819    8.0761    4.0727 N   0  0  0  0  0  0  0  0  0  0  0  0
    4.5716    2.2985    4.3857 C   0  0  2  0  0  0  0  0  0  0  0  0
    4.6530    0.9201    4.8694 O   0  0  0  0  0  0  0  0  0  0  0  0
    1.8712   -1.1827    3.1268 C   0  0  1  0  0  0  0  0  0  0  0  0
    2.1256   -0.8815    1.7363 O   0  0  0  0  0  0  0  0  0  0  0  0
    7.0223    8.3055    0.1312 C   0  0  2  0  0  0  0  0  0  0  0  0
    6.8897    9.6325   -0.3227 O   0  0  0  0  0  0  0  0  0  0  0  0
    9.0025    6.2225    4.2472 C   0  0  2  0  0  0  0  0  0  0  0  0
    5.1864    2.4338    2.9825 C   0  0  2  0  0  0  0  0  0  0  0  0
    6.5487    2.7510    3.2581 O   0  0  0  0  0  0  0  0  0  0  0  0
    2.5111   -2.6054    3.4928 C   0  0  2  0  0  0  0  0  0  0  0  0
    2.0269   -2.9767    4.7828 O   0  0  0  0  0  0  0  0  0  0  0  0
    6.1097    8.0536    1.3776 C   0  0  2  0  0  0  0  0  0  0  0  0
    6.2721    6.6738    1.8353 O   0  0  0  0  0  0  0  0  0  0  0  0
    8.7350    4.7058    4.1310 C   0  0  2  0  0  0  0  0  0  0  0  0
    7.3838    4.5166    4.6342 O   0  0  0  0  0  0  0  0  0  0  0  0
    4.5288    3.5217    2.0779 C   0  0  0  0  0  0  0  0  0  0  0  0
    4.5395    4.7713    2.7615 O   0  0  0  0  0  0  0  0  0  0  0  0
    4.0843   -2.5209    3.5044 C   0  0  1  0  0  0  0  0  0  0  0  0
    4.4304   -1.4687    4.4757 O   0  0  0  0  0  0  0  0  0  0  0  0
    4.6480    8.3063    1.0886 C   0  0  0  0  0  0  0  0  0  0  0  0
    4.4312    9.6750    0.8463 O   0  0  0  0  0  0  0  0  0  0  0  0
    9.7797    3.8954    5.0070 C   0  0  1  0  0  0  0  0  0  0  0  0
    9.6290    2.4912    4.7811 O   0  0  0  0  0  0  0  0  0  0  0  0
    4.8033   -3.8851    3.8924 C   0  0  0  0  0  0  0  0  0  0  0  0
    4.6297   -5.0011    2.9223 N   0  0  0  0  0  0  0  0  0  0  0  0
  1  2  1  1  0  0  0
  1  7  1  0  0  0  0
  1 30  1  0  0  0  0
  3  4  1  1  0  0  0
  3  9  1  0  0  0  0
  3 39  1  0  0  0  0
  5 10  1  0  0  0  0
  5 26  1  0  0  0  0
  5 32  1  6  0  0  0
  6 12  1  0  0  0  0
  6 36  1  0  0  0  0
  6 19  1  1  0  0  0
  7  8  1  1  0  0  0
  7 14  1  0  0  0  0
  9 16  1  0  0  0  0
 10 11  1  1  0  0  0
 10 18  1  0  0  0  0
 12 13  1  1  0  0  0
 12 20  1  0  0  0  0
 14 15  1  6  0  0  0
 14 22  1  0  0  0  0
 16 17  1  1  0  0  0
 16 24  1  0  0  0  0
 18 19  1  1  0  0  0
 18 25  1  0  0  0  0
 20 21  1  6  0  0  0
 20 27  1  0  0  0  0
 22 23  1  1  0  0  0
 22 29  1  0  0  0  0
 24  2  1  6  0  0  0
 24 31  1  0  0  0  0
 25 26  1  0  0  0  0
 25 33  1  6  0  0  0
 27 28  1  1  0  0  0
 27 35  1  0  0  0  0
 29 30  1  0  0  0  0
 29 37  1  6  0  0  0
 31 32  1  1  0  0  0
 31 39  1  0  0  0  0
 33 34  1  0  0  0  0
 35 36  1  0  0  0  0
 35 41  1  1  0  0  0
 37 38  1  0  0  0  0
 39 40  1  6  0  0  0
 41 42  1  0  0  0  0
M  END
>  <CHROM.1>
-94.22787927,176.23616118,-68.82739549,-176.51240254,98.05448802,54.49640930
-67.14364392,176.38436231,65.85036791,6.41464724,3.55264082,3.25172969,1.02156083
-0.39797688,-0.43989490

>  <Name>
2o3w_lig

>  <RI>
0

>  <Rbt.Current_Directory>
/home/itssahil/PROJECTS/Mol_Feturizer/New_Systems/rnas/2o3w

>  <Rbt.Executable>
rbdock ($Id: //depot/dev/client3/rdock/2013.1/src/exe/rbdock.cxx#4 $)

>  <Rbt.Library>
libRbt.so (2013.1, Build901 2013/11/27)

>  <Rbt.Parameter_File>
/export/apps/rDock/src/rDock_2013.1_src/data/scripts/dock_solv.prm

>  <Rbt.Receptor>
prm/pocket_docking_6.prm

>  <SCORE>
-17.6296

>  <SCORE.INTER>
-13.0921

>  <SCORE.INTER.CONST>
1

>  <SCORE.INTER.POLAR>
-2.81957

>  <SCORE.INTER.ROT>
9

>  <SCORE.INTER.SOLV>
17.728

>  <SCORE.INTER.VDW>
-14.8388

>  <SCORE.INTER.norm>
-0.311717

>  <SCORE.INTRA>
-4.53745

>  <SCORE.INTRA.DIHEDRAL>
-17.3549

>  <SCORE.INTRA.DIHEDRAL.0>
27.8999

>  <SCORE.INTRA.POLAR>
0

>  <SCORE.INTRA.POLAR.0>
0

>  <SCORE.INTRA.REPUL>
0

>  <SCORE.INTRA.REPUL.0>
0

>  <SCORE.INTRA.SOLV>
0.370088

>  <SCORE.INTRA.SOLV.lig_0>
-104.479

>  <SCORE.INTRA.VDW>
3.95497

>  <SCORE.INTRA.VDW.0>
-6.17816

>  <SCORE.INTRA.norm>
-0.108035

>  <SCORE.RESTR>
0

>  <SCORE.RESTR.CAVITY>
0

>  <SCORE.RESTR.norm>
0

>  <SCORE.SYSTEM>
0

>  <SCORE.SYSTEM.CONST>
0

>  <SCORE.SYSTEM.DIHEDRAL>
0

>  <SCORE.SYSTEM.SOLV>
0

>  <SCORE.SYSTEM.norm>
0

>  <SCORE.heavy>
42

>  <SCORE.norm>
-0.419752

>  <RMSD>
8.710

$$$$
2o3w_lig
 OpenBabel11021811463D
libRbt.so/2013.1/901 2013/11/27
 42 45  0  0  0  0  0  0  0  0999 V2000
    8.6189    5.2013    3.1315 C   0  0  2  0  0  0  0  0  0  0  0  0
    9.8279    5.9191    3.4320 O   0  0  0  0  0  0  0  0  0  0  0  0
   13.1173    4.9852    6.0973 C   0  0  2  0  0  0  0  0  0  0  0  0
   13.9197    4.6542    7.3126 N   0  0  0  0  0  0  0  0  0  0  0  0
   10.0438    1.9393    4.2253 C   0  0  1  0  0  0  0  0  0  0  0  0
    8.8160   -2.3170    3.3352 C   0  0  1  0  0  0  0  0  0  0  0  0
    8.1585    5.6585    1.7148 C   0  0  2  0  0  0  0  0  0  0  0  0
    9.2451    5.5972    0.7217 N   0  0  0  0  0  0  0  0  0  0  0  0
   12.4576    6.4177    6.2176 C   0  0  0  0  0  0  0  0  0  0  0  0
    8.8497    1.1022    4.7769 C   0  0  2  0  0  0  0  0  0  0  0  0
    9.0964    0.5085    6.0753 O   0  0  0  0  0  0  0  0  0  0  0  0
    9.7782   -3.5592    3.3243 C   0  0  2  0  0  0  0  0  0  0  0  0
   11.0106   -3.2724    2.5307 N   0  0  0  0  0  0  0  0  0  0  0  0
    7.6328    7.1058    1.7100 C   0  0  1  0  0  0  0  0  0  0  0  0
    7.1859    7.4683    0.4024 O   0  0  0  0  0  0  0  0  0  0  0  0
   11.6459    6.7179    4.9009 C   0  0  2  0  0  0  0  0  0  0  0  0
   11.0223    8.0667    4.9737 N   0  0  0  0  0  0  0  0  0  0  0  0
    8.6234    0.1160    3.6300 C   0  0  2  0  0  0  0  0  0  0  0  0
    9.4147   -1.1024    3.8040 O   0  0  0  0  0  0  0  0  0  0  0  0
    8.9969   -4.8280    2.7356 C   0  0  1  0  0  0  0  0  0  0  0  0
    8.0539   -5.2966    3.7256 O   0  0  0  0  0  0  0  0  0  0  0  0
    6.5005    7.2466    2.7527 C   0  0  2  0  0  0  0  0  0  0  0  0
    5.9969    8.5622    2.7490 O   0  0  0  0  0  0  0  0  0  0  0  0
   10.5253    5.6272    4.6765 C   0  0  2  0  0  0  0  0  0  0  0  0
    9.0225    0.8607    2.3448 C   0  0  2  0  0  0  0  0  0  0  0  0
   10.0454    1.7474    2.7920 O   0  0  0  0  0  0  0  0  0  0  0  0
    8.2237   -4.5037    1.3701 C   0  0  2  0  0  0  0  0  0  0  0  0
    9.2071   -4.2914    0.3580 O   0  0  0  0  0  0  0  0  0  0  0  0
    7.0586    6.8720    4.1661 C   0  0  2  0  0  0  0  0  0  0  0  0
    7.5837    5.5069    4.1418 O   0  0  0  0  0  0  0  0  0  0  0  0
   11.0919    4.1922    4.6053 C   0  0  2  0  0  0  0  0  0  0  0  0
    9.9270    3.3221    4.5851 O   0  0  0  0  0  0  0  0  0  0  0  0
    7.8647    1.6438    1.6515 C   0  0  0  0  0  0  0  0  0  0  0  0
    6.8664    0.7236    1.2208 O   0  0  0  0  0  0  0  0  0  0  0  0
    7.3228   -3.2215    1.5325 C   0  0  1  0  0  0  0  0  0  0  0  0
    8.2268   -2.1366    1.9520 O   0  0  0  0  0  0  0  0  0  0  0  0
    6.0117    6.9763    5.2510 C   0  0  0  0  0  0  0  0  0  0  0  0
    5.0069    6.0125    5.0493 O   0  0  0  0  0  0  0  0  0  0  0  0
   11.9940    3.8945    5.8755 C   0  0  1  0  0  0  0  0  0  0  0  0
   12.6389    2.6256    5.7362 O   0  0  0  0  0  0  0  0  0  0  0  0
    6.5426   -2.8065    0.2105 C   0  0  0  0  0  0  0  0  0  0  0  0
    5.5565   -1.7021    0.3666 N   0  0  0  0  0  0  0  0  0  0  0  0
  1  2  1  1  0  0  0
  1  7  1  0  0  0  0
  1 30  1  0  0  0  0
  3  4  1  1  0  0  0
  3  9  1  0  0  0  0
  3 39  1  0  0  0  0
  5 10  1  0  0  0  0
  5 26  1  0  0  0  0
  5 32  1  6  0  0  0
  6 12  1  0  0  0  0
  6 36  1  0  0  0  0
  6 19  1  6  0  0  0
  7  8  1  6  0  0  0
  7 14  1  0  0  0  0
  9 16  1  0  0  0  0
 10 11  1  1  0  0  0
 10 18  1  0  0  0  0
 12 13  1  6  0  0  0
 12 20  1  0  0  0  0
 14 15  1  6  0  0  0
 14 22  1  0  0  0  0
 16 17  1  1  0  0  0
 16 24  1  0  0  0  0
 18 19  1  1  0  0  0
 18 25  1  0  0  0  0
 20 21  1  1  0  0  0
 20 27  1  0  0  0  0
 22 23  1  1  0  0  0
 22 29  1  0  0  0  0
 24  2  1  6  0  0  0
 24 31  1  0  0  0  0
 25 26  1  0  0  0  0
 25 33  1  1  0  0  0
 27 28  1  6  0  0  0
 27 35  1  0  0  0  0
 29 30  1  0  0  0  0
 29 37  1  1  0  0  0
 31 32  1  1  0  0  0
 31 39  1  0  0  0  0
 33 34  1  0  0  0  0
 35 36  1  0  0  0  0
 35 41  1  6  0  0  0
 37 38  1  0  0  0  0
 39 40  1  6  0  0  0
 41 42  1  0  0  0  0
M  END
>  <CHROM.1>
-176.53174245,158.32340592,170.57826322,145.94746586,-169.40330745,-63.54188579
65.96921840,165.99392315,172.89083932,8.98560664,2.33064427,3.37603013,1.49341774
-0.61858888,0.14738943

>  <Name>
2o3w_lig

>  <RI>
0

>  <Rbt.Current_Directory>
/home/itssahil/PROJECTS/Mol_Feturizer/New_Systems/rnas/2o3w

>  <Rbt.Executable>
rbdock ($Id: //depot/dev/client3/rdock/2013.1/src/exe/rbdock.cxx#4 $)

>  <Rbt.Library>
libRbt.so (2013.1, Build901 2013/11/27)

>  <Rbt.Parameter_File>
/export/apps/rDock/src/rDock_2013.1_src/data/scripts/dock_solv.prm

>  <Rbt.Receptor>
prm/pocket_docking_4.prm

>  <SCORE>
-12.6219

>  <SCORE.INTER>
-2.42681

>  <SCORE.INTER.CONST>
1

>  <SCORE.INTER.POLAR>
-0.894427

>  <SCORE.INTER.ROT>
9

>  <SCORE.INTER.SOLV>
8.41859

>  <SCORE.INTER.VDW>
-11.0426

>  <SCORE.INTER.norm>
-0.0577812

>  <SCORE.INTRA>
-10.2066

>  <SCORE.INTRA.DIHEDRAL>
-19.0258

>  <SCORE.INTRA.DIHEDRAL.0>
27.8999

>  <SCORE.INTRA.POLAR>
0

>  <SCORE.INTRA.POLAR.0>
0

>  <SCORE.INTRA.REPUL>
0

>  <SCORE.INTRA.REPUL.0>
0

>  <SCORE.INTRA.SOLV>
-4.17421

>  <SCORE.INTRA.SOLV.lig_0>
-104.479

>  <SCORE.INTRA.VDW>
1.39336

>  <SCORE.INTRA.VDW.0>
-6.17816

>  <SCORE.INTRA.norm>
-0.243015

>  <SCORE.RESTR>
0.0115196

>  <SCORE.RESTR.CAVITY>
0.0115196

>  <SCORE.RESTR.norm>
0.000274277

>  <SCORE.SYSTEM>
0

>  <SCORE.SYSTEM.CONST>
0

>  <SCORE.SYSTEM.DIHEDRAL>
0

>  <SCORE.SYSTEM.SOLV>
0

>  <SCORE.SYSTEM.norm>
0

>  <SCORE.heavy>
42

>  <SCORE.norm>
-0.300522

>  <RMSD>
8.719

$$$$
2o3w_lig
 OpenBabel11021811463D
libRbt.so/2013.1/901 2013/11/27
 42 45  0  0  0  0  0  0  0  0999 V2000
    8.2146    5.1952    0.3637 C   0  0  2  0  0  0  0  0  0  0  0  0
    7.8290    6.2444    1.2680 O   0  0  0  0  0  0  0  0  0  0  0  0
    6.7932    6.6055    5.4624 C   0  0  2  0  0  0  0  0  0  0  0  0
    6.2812    6.3192    6.8358 N   0  0  0  0  0  0  0  0  0  0  0  0
    8.5753    3.3045    2.9983 C   0  0  1  0  0  0  0  0  0  0  0  0
    7.9699   -1.1247    2.8962 C   0  0  1  0  0  0  0  0  0  0  0  0
    8.6507    5.8788   -0.9670 C   0  0  2  0  0  0  0  0  0  0  0  0
    9.6146    6.9716   -0.7499 N   0  0  0  0  0  0  0  0  0  0  0  0
    5.6151    6.6480    4.4079 C   0  0  0  0  0  0  0  0  0  0  0  0
    9.5656    2.2548    2.4081 C   0  0  2  0  0  0  0  0  0  0  0  0
    9.5101    2.1384    0.9651 O   0  0  0  0  0  0  0  0  0  0  0  0
    6.8401   -1.9038    2.1312 C   0  0  2  0  0  0  0  0  0  0  0  0
    5.5299   -1.1965    2.2503 N   0  0  0  0  0  0  0  0  0  0  0  0
    7.4584    6.4828   -1.7317 C   0  0  1  0  0  0  0  0  0  0  0  0
    7.8982    7.0625   -2.9610 O   0  0  0  0  0  0  0  0  0  0  0  0
    6.2132    6.9751    2.9874 C   0  0  2  0  0  0  0  0  0  0  0  0
    5.1285    7.0372    1.9710 N   0  0  0  0  0  0  0  0  0  0  0  0
    9.1698    1.0009    3.1894 C   0  0  2  0  0  0  0  0  0  0  0  0
    8.1269    0.2428    2.4976 O   0  0  0  0  0  0  0  0  0  0  0  0
    6.7432   -3.3955    2.7076 C   0  0  1  0  0  0  0  0  0  0  0  0
    7.8810   -4.1528    2.2375 O   0  0  0  0  0  0  0  0  0  0  0  0
    6.3930    5.3891   -1.9726 C   0  0  2  0  0  0  0  0  0  0  0  0
    5.3019    5.9222   -2.6866 O   0  0  0  0  0  0  0  0  0  0  0  0
    7.2737    5.8830    2.5647 C   0  0  2  0  0  0  0  0  0  0  0  0
    8.6830    1.4927    4.5630 C   0  0  2  0  0  0  0  0  0  0  0  0
    8.1319    2.7741    4.2684 O   0  0  0  0  0  0  0  0  0  0  0  0
    6.6929   -3.4417    4.3085 C   0  0  2  0  0  0  0  0  0  0  0  0
    5.4344   -2.9065    4.7158 O   0  0  0  0  0  0  0  0  0  0  0  0
    5.9253    4.8191   -0.5921 C   0  0  2  0  0  0  0  0  0  0  0  0
    7.0759    4.2809    0.1332 O   0  0  0  0  0  0  0  0  0  0  0  0
    8.4290    5.7454    3.5805 C   0  0  2  0  0  0  0  0  0  0  0  0
    9.1930    4.5908    3.1359 O   0  0  0  0  0  0  0  0  0  0  0  0
    9.7917    1.5962    5.6558 C   0  0  0  0  0  0  0  0  0  0  0  0
   10.8136    2.4811    5.2068 O   0  0  0  0  0  0  0  0  0  0  0  0
    7.8705   -2.5967    4.9262 C   0  0  1  0  0  0  0  0  0  0  0  0
    7.7233   -1.2340    4.3862 O   0  0  0  0  0  0  0  0  0  0  0  0
    4.8830    3.7341   -0.7341 C   0  0  0  0  0  0  0  0  0  0  0  0
    5.3890    2.6739   -1.5082 O   0  0  0  0  0  0  0  0  0  0  0  0
    7.8522    5.5101    5.0392 C   0  0  1  0  0  0  0  0  0  0  0  0
    8.9125    5.5341    5.9988 O   0  0  0  0  0  0  0  0  0  0  0  0
    7.8769   -2.5603    6.5159 C   0  0  0  0  0  0  0  0  0  0  0  0
    9.0464   -1.8807    7.1380 N   0  0  0  0  0  0  0  0  0  0  0  0
  1  2  1  1  0  0  0
  1  7  1  0  0  0  0
  1 30  1  0  0  0  0
  3  4  1  1  0  0  0
  3  9  1  0  0  0  0
  3 39  1  0  0  0  0
  5 10  1  0  0  0  0
  5 26  1  0  0  0  0
  5 32  1  1  0  0  0
  6 12  1  0  0  0  0
  6 36  1  0  0  0  0
  6 19  1  6  0  0  0
  7  8  1  1  0  0  0
  7 14  1  0  0  0  0
  9 16  1  0  0  0  0
 10 11  1  6  0  0  0
 10 18  1  0  0  0  0
 12 13  1  1  0  0  0
 12 20  1  0  0  0  0
 14 15  1  6  0  0  0
 14 22  1  0  0  0  0
 16 17  1  6  0  0  0
 16 24  1  0  0  0  0
 18 19  1  6  0  0  0
 18 25  1  0  0  0  0
 20 21  1  1  0  0  0
 20 27  1  0  0  0  0
 22 23  1  1  0  0  0
 22 29  1  0  0  0  0
 24  2  1  6  0  0  0
 24 31  1  0  0  0  0
 25 26  1  0  0  0  0
 25 33  1  1  0  0  0
 27 28  1  1  0  0  0
 27 35  1  0  0  0  0
 29 30  1  0  0  0  0
 29 37  1  6  0  0  0
 31 32  1  6  0  0  0
 31 39  1  0  0  0  0
 33 34  1  0  0  0  0
 35 36  1  0  0  0  0
 35 41  1  1  0  0  0
 37 38  1  0  0  0  0
 39 40  1  1  0  0  0
 41 42  1  0  0  0  0
M  END
>  <CHROM.1>
175.25366254,175.72497142,179.95790565,161.30218206,-147.20052494,58.33235545
58.63358303,-57.78022215,174.42729499,7.58675819,2.75841925,2.49907515,1.83625296
-1.32374281,-0.21512862

>  <Name>
2o3w_lig

>  <RI>
0

>  <Rbt.Current_Directory>
/home/itssahil/PROJECTS/Mol_Feturizer/New_Systems/rnas/2o3w

>  <Rbt.Executable>
rbdock ($Id: //depot/dev/client3/rdock/2013.1/src/exe/rbdock.cxx#4 $)

>  <Rbt.Library>
libRbt.so (2013.1, Build901 2013/11/27)

>  <Rbt.Parameter_File>
/export/apps/rDock/src/rDock_2013.1_src/data/scripts/dock_solv.prm

>  <Rbt.Receptor>
prm/pocket_docking_4.prm

>  <SCORE>
-16.6505

>  <SCORE.INTER>
-6.31345

>  <SCORE.INTER.CONST>
1

>  <SCORE.INTER.POLAR>
-1.91095

>  <SCORE.INTER.ROT>
9

>  <SCORE.INTER.SOLV>
14.2119

>  <SCORE.INTER.VDW>
-12.1764

>  <SCORE.INTER.norm>
-0.15032

>  <SCORE.INTRA>
-11.1984

>  <SCORE.INTRA.DIHEDRAL>
-21.725

>  <SCORE.INTRA.DIHEDRAL.0>
27.8999

>  <SCORE.INTRA.POLAR>
0

>  <SCORE.INTRA.POLAR.0>
0

>  <SCORE.INTRA.REPUL>
0

>  <SCORE.INTRA.REPUL.0>
0

>  <SCORE.INTRA.SOLV>
-2.57449

>  <SCORE.INTRA.SOLV.lig_0>
-104.479

>  <SCORE.INTRA.VDW>
0.951371

>  <SCORE.INTRA.VDW.0>
-6.17816

>  <SCORE.INTRA.norm>
-0.266628

>  <SCORE.RESTR>
0.861323

>  <SCORE.RESTR.CAVITY>
0.861323

>  <SCORE.RESTR.norm>
0.0205077

>  <SCORE.SYSTEM>
0

>  <SCORE.SYSTEM.CONST>
0

>  <SCORE.SYSTEM.DIHEDRAL>
0

>  <SCORE.SYSTEM.SOLV>
0

>  <SCORE.SYSTEM.norm>
0

>  <SCORE.heavy>
42

>  <SCORE.norm>
-0.39644

>  <RMSD>
8.738

$$$$
2o3w_lig
 OpenBabel11021811463D
libRbt.so/2013.1/901 2013/11/27
 42 45  0  0  0  0  0  0  0  0999 V2000
    7.9081    5.4028    2.4570 C   0  0  2  0  0  0  0  0  0  0  0  0
    8.9262    5.6522    3.4412 O   0  0  0  0  0  0  0  0  0  0  0  0
    9.1496    5.4613    7.7667 C   0  0  2  0  0  0  0  0  0  0  0  0
    8.8229    5.5784    9.2192 N   0  0  0  0  0  0  0  0  0  0  0  0
    7.0418    2.4611    4.6211 C   0  0  1  0  0  0  0  0  0  0  0  0
    7.0929   -0.5764    4.7489 C   0  0  1  0  0  0  0  0  0  0  0  0
    8.6261    4.8477    1.1903 C   0  0  2  0  0  0  0  0  0  0  0  0
    9.5479    3.7420    1.5038 N   0  0  0  0  0  0  0  0  0  0  0  0
    9.2615    6.8850    7.0868 C   0  0  0  0  0  0  0  0  0  0  0  0
    5.5507    2.0373    4.4542 C   0  0  2  0  0  0  0  0  0  0  0  0
    4.9004    1.6686    5.6953 O   0  0  0  0  0  0  0  0  0  0  0  0
    8.3322   -0.8698    3.8287 C   0  0  2  0  0  0  0  0  0  0  0  0
    8.0739   -2.0459    2.9450 N   0  0  0  0  0  0  0  0  0  0  0  0
    9.4547    5.9263    0.4684 C   0  0  1  0  0  0  0  0  0  0  0  0
   10.0615    5.3842   -0.7059 O   0  0  0  0  0  0  0  0  0  0  0  0
    9.6287    6.6970    5.5662 C   0  0  2  0  0  0  0  0  0  0  0  0
    9.7565    8.0199    4.8974 N   0  0  0  0  0  0  0  0  0  0  0  0
    5.6733    0.9226    3.4142 C   0  0  2  0  0  0  0  0  0  0  0  0
    5.8593   -0.3841    4.0455 O   0  0  0  0  0  0  0  0  0  0  0  0
    9.6251   -1.1105    4.7438 C   0  0  1  0  0  0  0  0  0  0  0  0
   10.0566    0.1580    5.2857 O   0  0  0  0  0  0  0  0  0  0  0  0
    8.5486    7.1320    0.1302 C   0  0  2  0  0  0  0  0  0  0  0  0
    9.2886    8.1217   -0.5462 O   0  0  0  0  0  0  0  0  0  0  0  0
    8.5284    5.8348    4.8300 C   0  0  2  0  0  0  0  0  0  0  0  0
    6.8794    1.2934    2.5348 C   0  0  2  0  0  0  0  0  0  0  0  0
    7.7298    1.9977    3.4366 O   0  0  0  0  0  0  0  0  0  0  0  0
    9.3566   -2.1412    5.9409 C   0  0  2  0  0  0  0  0  0  0  0  0
    9.1820   -3.4349    5.3647 O   0  0  0  0  0  0  0  0  0  0  0  0
    7.9432    7.7033    1.4556 C   0  0  2  0  0  0  0  0  0  0  0  0
    7.1887    6.6557    2.1434 O   0  0  0  0  0  0  0  0  0  0  0  0
    8.3236    4.4471    5.4762 C   0  0  2  0  0  0  0  0  0  0  0  0
    7.1689    3.8777    4.8003 O   0  0  0  0  0  0  0  0  0  0  0  0
    6.5403    2.1653    1.2862 C   0  0  0  0  0  0  0  0  0  0  0  0
    5.9078    3.3689    1.7107 O   0  0  0  0  0  0  0  0  0  0  0  0
    8.0712   -1.7278    6.7526 C   0  0  1  0  0  0  0  0  0  0  0  0
    6.9685   -1.6813    5.7769 O   0  0  0  0  0  0  0  0  0  0  0  0
    7.0344    8.8869    1.2170 C   0  0  0  0  0  0  0  0  0  0  0  0
    6.3411    9.2116    2.3973 O   0  0  0  0  0  0  0  0  0  0  0  0
    8.0461    4.6008    7.0303 C   0  0  1  0  0  0  0  0  0  0  0  0
    8.0072    3.3144    7.6541 O   0  0  0  0  0  0  0  0  0  0  0  0
    7.7104   -2.7185    7.9429 C   0  0  0  0  0  0  0  0  0  0  0  0
    7.4642   -4.1330    7.5489 N   0  0  0  0  0  0  0  0  0  0  0  0
  1  2  1  1  0  0  0
  1  7  1  0  0  0  0
  1 30  1  0  0  0  0
  3  4  1  1  0  0  0
  3  9  1  0  0  0  0
  3 39  1  0  0  0  0
  5 10  1  0  0  0  0
  5 26  1  0  0  0  0
  5 32  1  6  0  0  0
  6 12  1  0  0  0  0
  6 36  1  0  0  0  0
  6 19  1  6  0  0  0
  7  8  1  1  0  0  0
  7 14  1  0  0  0  0
  9 16  1  0  0  0  0
 10 11  1  1  0  0  0
 10 18  1  0  0  0  0
 12 13  1  1  0  0  0
 12 20  1  0  0  0  0
 14 15  1  6  0  0  0
 14 22  1  0  0  0  0
 16 17  1  6  0  0  0
 16 24  1  0  0  0  0
 18 19  1  1  0  0  0
 18 25  1  0  0  0  0
 20 21  1  1  0  0  0
 20 27  1  0  0  0  0
 22 23  1  1  0  0  0
 22 29  1  0  0  0  0
 24  2  1  6  0  0  0
 24 31  1  0  0  0  0
 25 26  1  0  0  0  0
 25 33  1  6  0  0  0
 27 28  1  6  0  0  0
 27 35  1  0  0  0  0
 29 30  1  0  0  0  0
 29 37  1  6  0  0  0
 31 32  1  6  0  0  0
 31 39  1  0  0  0  0
 33 34  1  0  0  0  0
 35 36  1  0  0  0  0
 35 41  1  1  0  0  0
 37 38  1  0  0  0  0
 39 40  1  1  0  0  0
 41 42  1  0  0  0  0
M  END
>  <CHROM.1>
-163.85346547,155.70357421,-78.01897517,-66.77206981,-154.91891358,57.94052263
169.78366154,149.43959093,-58.83639023,7.97240712,3.06597567,4.06274976,1.12591899
-1.43963846,-0.83533208

>  <Name>
2o3w_lig

>  <RI>
0

>  <Rbt.Current_Directory>
/home/itssahil/PROJECTS/Mol_Feturizer/New_Systems/rnas/2o3w

>  <Rbt.Executable>
rbdock ($Id: //depot/dev/client3/rdock/2013.1/src/exe/rbdock.cxx#4 $)

>  <Rbt.Library>
libRbt.so (2013.1, Build901 2013/11/27)

>  <Rbt.Parameter_File>
/export/apps/rDock/src/rDock_2013.1_src/data/scripts/dock_solv.prm

>  <Rbt.Receptor>
prm/pocket_docking_5.prm

>  <SCORE>
-20.5938

>  <SCORE.INTER>
-14.4398

>  <SCORE.INTER.CONST>
1

>  <SCORE.INTER.POLAR>
-2.63442

>  <SCORE.INTER.ROT>
9

>  <SCORE.INTER.SOLV>
13.7832

>  <SCORE.INTER.VDW>
-15.0395

>  <SCORE.INTER.norm>
-0.343805

>  <SCORE.INTRA>
-6.15399

>  <SCORE.INTRA.DIHEDRAL>
-15.5687

>  <SCORE.INTRA.DIHEDRAL.0>
27.8999

>  <SCORE.INTRA.POLAR>
0

>  <SCORE.INTRA.POLAR.0>
0

>  <SCORE.INTRA.REPUL>
0

>  <SCORE.INTRA.REPUL.0>
0

>  <SCORE.INTRA.SOLV>
1.34578

>  <SCORE.INTRA.SOLV.lig_0>
-104.479

>  <SCORE.INTRA.VDW>
0.957443

>  <SCORE.INTRA.VDW.0>
-6.17816

>  <SCORE.INTRA.norm>
-0.146524

>  <SCORE.RESTR>
0

>  <SCORE.RESTR.CAVITY>
0

>  <SCORE.RESTR.norm>
0

>  <SCORE.SYSTEM>
0

>  <SCORE.SYSTEM.CONST>
0

>  <SCORE.SYSTEM.DIHEDRAL>
0

>  <SCORE.SYSTEM.SOLV>
0

>  <SCORE.SYSTEM.norm>
0

>  <SCORE.heavy>
42

>  <SCORE.norm>
-0.490329

>  <RMSD>
8.755

$$$$
2o3w_lig
 OpenBabel11021811463D
libRbt.so/2013.1/901 2013/11/27
 42 45  0  0  0  0  0  0  0  0999 V2000
    3.0594    3.4475   -1.4323 C   0  0  2  0  0  0  0  0  0  0  0  0
    2.6721    2.0963   -1.1297 O   0  0  0  0  0  0  0  0  0  0  0  0
    4.4300   -1.8413   -1.5782 C   0  0  2  0  0  0  0  0  0  0  0  0
    5.1855   -3.0149   -2.1095 N   0  0  0  0  0  0  0  0  0  0  0  0
    5.4855    2.8968   -0.0049 C   0  0  1  0  0  0  0  0  0  0  0  0
    5.9551    4.1092    3.9764 C   0  0  1  0  0  0  0  0  0  0  0  0
    2.1062    4.3843   -0.6310 C   0  0  2  0  0  0  0  0  0  0  0  0
    2.0127    4.0107    0.7911 N   0  0  0  0  0  0  0  0  0  0  0  0
    3.2149   -1.4672   -2.5191 C   0  0  0  0  0  0  0  0  0  0  0  0
    6.1977    2.4387    1.3042 C   0  0  2  0  0  0  0  0  0  0  0  0
    5.3080    1.8481    2.2834 O   0  0  0  0  0  0  0  0  0  0  0  0
    4.5966    4.4498    4.6888 C   0  0  2  0  0  0  0  0  0  0  0  0
    4.3015    5.9115    4.6039 N   0  0  0  0  0  0  0  0  0  0  0  0
    0.6711    4.3733   -1.1890 C   0  0  1  0  0  0  0  0  0  0  0  0
   -0.1565    5.2739   -0.4508 O   0  0  0  0  0  0  0  0  0  0  0  0
    2.4462   -0.2408   -1.8965 C   0  0  2  0  0  0  0  0  0  0  0  0
    1.2855    0.1298   -2.7503 N   0  0  0  0  0  0  0  0  0  0  0  0
    6.8902    3.7328    1.7341 C   0  0  2  0  0  0  0  0  0  0  0  0
    6.0358    4.5348    2.6104 O   0  0  0  0  0  0  0  0  0  0  0  0
    4.6631    3.9637    6.2140 C   0  0  1  0  0  0  0  0  0  0  0  0
    4.5676    2.5220    6.2494 O   0  0  0  0  0  0  0  0  0  0  0  0
    0.6993    4.7353   -2.6914 C   0  0  2  0  0  0  0  0  0  0  0  0
   -0.6091    4.7459   -3.2136 O   0  0  0  0  0  0  0  0  0  0  0  0
    3.4101    1.0015   -1.7439 C   0  0  2  0  0  0  0  0  0  0  0  0
    7.2221    4.4881    0.4361 C   0  0  2  0  0  0  0  0  0  0  0  0
    6.1730    4.0909   -0.4437 O   0  0  0  0  0  0  0  0  0  0  0  0
    6.0034    4.4306    6.9577 C   0  0  2  0  0  0  0  0  0  0  0  0
    5.9341    5.8464    7.1223 O   0  0  0  0  0  0  0  0  0  0  0  0
    1.5892    3.6954   -3.4505 C   0  0  2  0  0  0  0  0  0  0  0  0
    2.9381    3.6963   -2.8845 O   0  0  0  0  0  0  0  0  0  0  0  0
    4.6531    0.6926   -0.8807 C   0  0  2  0  0  0  0  0  0  0  0  0
    5.5030    1.8663   -1.0013 O   0  0  0  0  0  0  0  0  0  0  0  0
    8.6203    4.1632   -0.1751 C   0  0  0  0  0  0  0  0  0  0  0  0
    9.6380    4.5847    0.7280 O   0  0  0  0  0  0  0  0  0  0  0  0
    7.2735    4.0416    6.1106 C   0  0  1  0  0  0  0  0  0  0  0  0
    7.0969    4.6768    4.7932 O   0  0  0  0  0  0  0  0  0  0  0  0
    1.6783    3.9782   -4.9324 C   0  0  0  0  0  0  0  0  0  0  0  0
    0.4284    3.7663   -5.5424 O   0  0  0  0  0  0  0  0  0  0  0  0
    5.3951   -0.5976   -1.4288 C   0  0  1  0  0  0  0  0  0  0  0  0
    6.4546   -0.9709   -0.5435 O   0  0  0  0  0  0  0  0  0  0  0  0
    8.6506    4.4988    6.7610 C   0  0  0  0  0  0  0  0  0  0  0  0
    8.9891    3.8608    8.0629 N   0  0  0  0  0  0  0  0  0  0  0  0
  1  2  1  6  0  0  0
  1  7  1  0  0  0  0
  1 30  1  0  0  0  0
  3  4  1  6  0  0  0
  3  9  1  0  0  0  0
  3 39  1  0  0  0  0
  5 10  1  0  0  0  0
  5 26  1  0  0  0  0
  5 32  1  6  0  0  0
  6 12  1  0  0  0  0
  6 36  1  0  0  0  0
  6 19  1  6  0  0  0
  7  8  1  1  0  0  0
  7 14  1  0  0  0  0
  9 16  1  0  0  0  0
 10 11  1  1  0  0  0
 10 18  1  0  0  0  0
 12 13  1  1  0  0  0
 12 20  1  0  0  0  0
 14 15  1  1  0  0  0
 14 22  1  0  0  0  0
 16 17  1  6  0  0  0
 16 24  1  0  0  0  0
 18 19  1  1  0  0  0
 18 25  1  0  0  0  0
 20 21  1  6  0  0  0
 20 27  1  0  0  0  0
 22 23  1  6  0  0  0
 22 29  1  0  0  0  0
 24  2  1  1  0  0  0
 24 31  1  0  0  0  0
 25 26  1  0  0  0  0
 25 33  1  6  0  0  0
 27 28  1  6  0  0  0
 27 35  1  0  0  0  0
 29 30  1  0  0  0  0
 29 37  1  6  0  0  0
 31 32  1  6  0  0  0
 31 39  1  0  0  0  0
 33 34  1  0  0  0  0
 35 36  1  0  0  0  0
 35 41  1  1  0  0  0
 37 38  1  0  0  0  0
 39 40  1  1  0  0  0
 41 42  1  0  0  0  0
M  END
>  <CHROM.1>
-179.61216199,73.32292515,-150.68475742,78.17764874,-151.29797013,-64.01702145
-67.79632560,96.90442264,64.34015607,4.49354911,2.99957581,0.72674192,2.25149372
0.68488251,-2.28951753

>  <Name>
2o3w_lig

>  <RI>
0

>  <Rbt.Current_Directory>
/home/itssahil/PROJECTS/Mol_Feturizer/New_Systems/rnas/2o3w

>  <Rbt.Executable>
rbdock ($Id: //depot/dev/client3/rdock/2013.1/src/exe/rbdock.cxx#4 $)

>  <Rbt.Library>
libRbt.so (2013.1, Build901 2013/11/27)

>  <Rbt.Parameter_File>
/export/apps/rDock/src/rDock_2013.1_src/data/scripts/dock_solv.prm

>  <Rbt.Receptor>
prm/pocket_docking_8.prm

>  <SCORE>
-16.3398

>  <SCORE.INTER>
-9.41843

>  <SCORE.INTER.CONST>
1

>  <SCORE.INTER.POLAR>
-0.938083

>  <SCORE.INTER.ROT>
9

>  <SCORE.INTER.SOLV>
10.3315

>  <SCORE.INTER.VDW>
-16.1959

>  <SCORE.INTER.norm>
-0.224248

>  <SCORE.INTRA>
-6.92134

>  <SCORE.INTRA.DIHEDRAL>
-13.4509

>  <SCORE.INTRA.DIHEDRAL.0>
27.8999

>  <SCORE.INTRA.POLAR>
0

>  <SCORE.INTRA.POLAR.0>
0

>  <SCORE.INTRA.REPUL>
0

>  <SCORE.INTRA.REPUL.0>
0

>  <SCORE.INTRA.SOLV>
-4.22058

>  <SCORE.INTRA.SOLV.lig_0>
-104.479

>  <SCORE.INTRA.VDW>
1.91442

>  <SCORE.INTRA.VDW.0>
-6.17816

>  <SCORE.INTRA.norm>
-0.164794

>  <SCORE.RESTR>
0

>  <SCORE.RESTR.CAVITY>
0

>  <SCORE.RESTR.norm>
0

>  <SCORE.SYSTEM>
0

>  <SCORE.SYSTEM.CONST>
0

>  <SCORE.SYSTEM.DIHEDRAL>
0

>  <SCORE.SYSTEM.SOLV>
0

>  <SCORE.SYSTEM.norm>
0

>  <SCORE.heavy>
42

>  <SCORE.norm>
-0.389042

>  <RMSD>
8.765

$$$$
2o3w_lig
 OpenBabel11021811463D
libRbt.so/2013.1/901 2013/11/27
 42 45  0  0  0  0  0  0  0  0999 V2000
    2.1551    6.3366   -0.5063 C   0  0  2  0  0  0  0  0  0  0  0  0
    3.2693    6.1520   -1.3962 O   0  0  0  0  0  0  0  0  0  0  0  0
    3.6139    1.8454   -1.0351 C   0  0  2  0  0  0  0  0  0  0  0  0
    4.0281    0.4248   -1.2373 N   0  0  0  0  0  0  0  0  0  0  0  0
    6.4862    5.1658    0.7873 C   0  0  1  0  0  0  0  0  0  0  0  0
    9.4206    6.0392    3.7625 C   0  0  1  0  0  0  0  0  0  0  0  0
    1.9714    7.8728   -0.3199 C   0  0  2  0  0  0  0  0  0  0  0  0
    1.9383    8.5964   -1.6029 N   0  0  0  0  0  0  0  0  0  0  0  0
    2.8886    2.4199   -2.3179 C   0  0  0  0  0  0  0  0  0  0  0  0
    7.9353    4.6308    0.5759 C   0  0  2  0  0  0  0  0  0  0  0  0
    8.0971    3.2265    0.8933 O   0  0  0  0  0  0  0  0  0  0  0  0
   10.9897    6.1223    3.7717 C   0  0  2  0  0  0  0  0  0  0  0  0
   11.5940    4.7738    3.9889 N   0  0  0  0  0  0  0  0  0  0  0  0
    3.1030    8.4995    0.5152 C   0  0  1  0  0  0  0  0  0  0  0  0
    2.8733    9.8982    0.6938 O   0  0  0  0  0  0  0  0  0  0  0  0
    2.4571    3.9089   -2.0363 C   0  0  2  0  0  0  0  0  0  0  0  0
    1.7572    4.4774   -3.2197 N   0  0  0  0  0  0  0  0  0  0  0  0
    8.7397    5.6022    1.4410 C   0  0  2  0  0  0  0  0  0  0  0  0
    8.8775    5.1132    2.8132 O   0  0  0  0  0  0  0  0  0  0  0  0
   11.4579    7.1523    4.9061 C   0  0  1  0  0  0  0  0  0  0  0  0
   11.1750    8.4979    4.4609 O   0  0  0  0  0  0  0  0  0  0  0  0
    3.2088    7.7672    1.8722 C   0  0  2  0  0  0  0  0  0  0  0  0
    4.2297    8.3402    2.6557 O   0  0  0  0  0  0  0  0  0  0  0  0
    3.7162    4.7971   -1.6878 C   0  0  2  0  0  0  0  0  0  0  0  0
    7.9786    6.9380    1.3993 C   0  0  2  0  0  0  0  0  0  0  0  0
    6.6210    6.5295    1.2494 O   0  0  0  0  0  0  0  0  0  0  0  0
   10.7420    6.8926    6.3159 C   0  0  2  0  0  0  0  0  0  0  0  0
   11.2461    5.6627    6.8351 O   0  0  0  0  0  0  0  0  0  0  0  0
    3.4959    6.2506    1.6129 C   0  0  2  0  0  0  0  0  0  0  0  0
    2.4284    5.6815    0.7905 O   0  0  0  0  0  0  0  0  0  0  0  0
    4.5092    4.2624   -0.4752 C   0  0  2  0  0  0  0  0  0  0  0  0
    5.7122    5.0772   -0.4160 O   0  0  0  0  0  0  0  0  0  0  0  0
    8.4047    7.9026    0.2494 C   0  0  0  0  0  0  0  0  0  0  0  0
    7.6198    9.0894    0.3158 O   0  0  0  0  0  0  0  0  0  0  0  0
    9.1787    6.8097    6.1385 C   0  0  1  0  0  0  0  0  0  0  0  0
    8.9341    5.7329    5.1634 O   0  0  0  0  0  0  0  0  0  0  0  0
    3.6089    5.4532    2.8916 C   0  0  0  0  0  0  0  0  0  0  0  0
    4.7606    5.8373    3.6024 O   0  0  0  0  0  0  0  0  0  0  0  0
    4.8754    2.7341   -0.6894 C   0  0  1  0  0  0  0  0  0  0  0  0
    5.4749    2.1997    0.4941 O   0  0  0  0  0  0  0  0  0  0  0  0
    8.3884    6.5195    7.4875 C   0  0  0  0  0  0  0  0  0  0  0  0
    6.9038    6.5199    7.3749 N   0  0  0  0  0  0  0  0  0  0  0  0
  1  2  1  6  0  0  0
  1  7  1  0  0  0  0
  1 30  1  0  0  0  0
  3  4  1  6  0  0  0
  3  9  1  0  0  0  0
  3 39  1  0  0  0  0
  5 10  1  0  0  0  0
  5 26  1  0  0  0  0
  5 32  1  6  0  0  0
  6 12  1  0  0  0  0
  6 36  1  0  0  0  0
  6 19  1  6  0  0  0
  7  8  1  6  0  0  0
  7 14  1  0  0  0  0
  9 16  1  0  0  0  0
 10 11  1  1  0  0  0
 10 18  1  0  0  0  0
 12 13  1  1  0  0  0
 12 20  1  0  0  0  0
 14 15  1  1  0  0  0
 14 22  1  0  0  0  0
 16 17  1  6  0  0  0
 16 24  1  0  0  0  0
 18 19  1  1  0  0  0
 18 25  1  0  0  0  0
 20 21  1  6  0  0  0
 20 27  1  0  0  0  0
 22 23  1  1  0  0  0
 22 29  1  0  0  0  0
 24  2  1  1  0  0  0
 24 31  1  0  0  0  0
 25 26  1  0  0  0  0
 25 33  1  6  0  0  0
 27 28  1  6  0  0  0
 27 35  1  0  0  0  0
 29 30  1  0  0  0  0
 29 37  1  1  0  0  0
 31 32  1  6  0  0  0
 31 39  1  0  0  0  0
 33 34  1  0  0  0  0
 35 36  1  0  0  0  0
 35 41  1  1  0  0  0
 37 38  1  0  0  0  0
 39 40  1  1  0  0  0
 41 42  1  0  0  0  0
M  END
>  <CHROM.1>
176.51363155,118.63375886,-82.82989514,-170.13577744,47.16369788,179.45657963
-67.56424348,160.52080713,176.27244955,6.13509437,5.82398441,1.64749179,2.68138295
0.58813533,-2.63847976

>  <Name>
2o3w_lig

>  <RI>
0

>  <Rbt.Current_Directory>
/home/itssahil/PROJECTS/Mol_Feturizer/New_Systems/rnas/2o3w

>  <Rbt.Executable>
rbdock ($Id: //depot/dev/client3/rdock/2013.1/src/exe/rbdock.cxx#4 $)

>  <Rbt.Library>
libRbt.so (2013.1, Build901 2013/11/27)

>  <Rbt.Parameter_File>
/export/apps/rDock/src/rDock_2013.1_src/data/scripts/dock_solv.prm

>  <Rbt.Receptor>
prm/pocket_docking_8.prm

>  <SCORE>
-18.8146

>  <SCORE.INTER>
-10.2113

>  <SCORE.INTER.CONST>
1

>  <SCORE.INTER.POLAR>
-2.19723

>  <SCORE.INTER.ROT>
9

>  <SCORE.INTER.SOLV>
13.4293

>  <SCORE.INTER.VDW>
-13.5599

>  <SCORE.INTER.norm>
-0.243127

>  <SCORE.INTRA>
-8.60333

>  <SCORE.INTRA.DIHEDRAL>
-15.0529

>  <SCORE.INTRA.DIHEDRAL.0>
27.8999

>  <SCORE.INTRA.POLAR>
0

>  <SCORE.INTRA.POLAR.0>
0

>  <SCORE.INTRA.REPUL>
0.00787103

>  <SCORE.INTRA.REPUL.0>
0

>  <SCORE.INTRA.SOLV>
-4.09252

>  <SCORE.INTRA.SOLV.lig_0>
-104.479

>  <SCORE.INTRA.VDW>
0.930003

>  <SCORE.INTRA.VDW.0>
-6.17816

>  <SCORE.INTRA.norm>
-0.204841

>  <SCORE.RESTR>
0

>  <SCORE.RESTR.CAVITY>
0

>  <SCORE.RESTR.norm>
0

>  <SCORE.SYSTEM>
0

>  <SCORE.SYSTEM.CONST>
0

>  <SCORE.SYSTEM.DIHEDRAL>
0

>  <SCORE.SYSTEM.SOLV>
0

>  <SCORE.SYSTEM.norm>
0

>  <SCORE.heavy>
42

>  <SCORE.norm>
-0.447968

>  <RMSD>
8.784

$$$$
2o3w_lig
 OpenBabel11021811463D
libRbt.so/2013.1/901 2013/11/27
 42 45  0  0  0  0  0  0  0  0999 V2000
    8.2737    5.6295    2.4654 C   0  0  2  0  0  0  0  0  0  0  0  0
    9.0983    6.1292    3.5320 O   0  0  0  0  0  0  0  0  0  0  0  0
    9.0099    5.2541    7.7773 C   0  0  2  0  0  0  0  0  0  0  0  0
    8.5713    5.1250    9.1991 N   0  0  0  0  0  0  0  0  0  0  0  0
    7.0900    2.6934    4.3052 C   0  0  1  0  0  0  0  0  0  0  0  0
    6.9672   -0.3379    4.4623 C   0  0  1  0  0  0  0  0  0  0  0  0
    9.0042    5.9646    1.1303 C   0  0  2  0  0  0  0  0  0  0  0  0
   10.4180    5.5505    1.1419 N   0  0  0  0  0  0  0  0  0  0  0  0
    9.1041    6.7716    7.3413 C   0  0  0  0  0  0  0  0  0  0  0  0
    5.5673    2.3649    4.3704 C   0  0  2  0  0  0  0  0  0  0  0  0
    5.0912    2.0386    5.6992 O   0  0  0  0  0  0  0  0  0  0  0  0
    8.0334   -0.7305    3.3770 C   0  0  2  0  0  0  0  0  0  0  0  0
    7.5690   -1.8994    2.5714 N   0  0  0  0  0  0  0  0  0  0  0  0
    8.9848    7.4719    0.8161 C   0  0  1  0  0  0  0  0  0  0  0  0
    9.6292    7.7278   -0.4330 O   0  0  0  0  0  0  0  0  0  0  0  0
    9.5914    6.8431    5.8446 C   0  0  2  0  0  0  0  0  0  0  0  0
    9.7055    8.2599    5.4048 N   0  0  0  0  0  0  0  0  0  0  0  0
    5.4606    1.2443    3.3350 C   0  0  2  0  0  0  0  0  0  0  0  0
    5.6580   -0.0714    3.9439 O   0  0  0  0  0  0  0  0  0  0  0  0
    9.4293   -1.0461    4.0972 C   0  0  1  0  0  0  0  0  0  0  0  0
   10.0198    0.1976    4.5370 O   0  0  0  0  0  0  0  0  0  0  0  0
    7.5247    7.9791    0.8123 C   0  0  2  0  0  0  0  0  0  0  0  0
    7.4885    9.3544    0.5095 O   0  0  0  0  0  0  0  0  0  0  0  0
    8.5907    6.0724    4.8956 C   0  0  2  0  0  0  0  0  0  0  0  0
    6.5400    1.5374    2.2794 C   0  0  2  0  0  0  0  0  0  0  0  0
    7.5598    2.1868    3.0348 O   0  0  0  0  0  0  0  0  0  0  0  0
    9.2745   -2.0373    5.3467 C   0  0  2  0  0  0  0  0  0  0  0  0
    8.9307   -3.3245    4.8356 O   0  0  0  0  0  0  0  0  0  0  0  0
    6.8852    7.7044    2.2141 C   0  0  2  0  0  0  0  0  0  0  0  0
    6.9433    6.2729    2.5094 O   0  0  0  0  0  0  0  0  0  0  0  0
    8.4045    4.5927    5.2968 C   0  0  2  0  0  0  0  0  0  0  0  0
    7.3312    4.0992    4.4488 O   0  0  0  0  0  0  0  0  0  0  0  0
    6.0705    2.4286    1.0879 C   0  0  0  0  0  0  0  0  0  0  0  0
    5.0376    1.7550    0.3751 O   0  0  0  0  0  0  0  0  0  0  0  0
    8.1546   -1.5233    6.3284 C   0  0  1  0  0  0  0  0  0  0  0  0
    6.9243   -1.4156    5.5252 O   0  0  0  0  0  0  0  0  0  0  0  0
    5.4484    8.1652    2.2982 C   0  0  0  0  0  0  0  0  0  0  0  0
    5.3880    9.5706    2.2779 O   0  0  0  0  0  0  0  0  0  0  0  0
    8.0058    4.4850    6.8281 C   0  0  1  0  0  0  0  0  0  0  0  0
    7.9819    3.1145    7.2366 O   0  0  0  0  0  0  0  0  0  0  0  0
    7.9103   -2.4683    7.5838 C   0  0  0  0  0  0  0  0  0  0  0  0
    7.5216   -3.8701    7.2664 N   0  0  0  0  0  0  0  0  0  0  0  0
  1  2  1  1  0  0  0
  1  7  1  0  0  0  0
  1 30  1  0  0  0  0
  3  4  1  1  0  0  0
  3  9  1  0  0  0  0
  3 39  1  0  0  0  0
  5 10  1  0  0  0  0
  5 26  1  0  0  0  0
  5 32  1  6  0  0  0
  6 12  1  0  0  0  0
  6 36  1  0  0  0  0
  6 19  1  6  0  0  0
  7  8  1  1  0  0  0
  7 14  1  0  0  0  0
  9 16  1  0  0  0  0
 10 11  1  1  0  0  0
 10 18  1  0  0  0  0
 12 13  1  1  0  0  0
 12 20  1  0  0  0  0
 14 15  1  6  0  0  0
 14 22  1  0  0  0  0
 16 17  1  6  0  0  0
 16 24  1  0  0  0  0
 18 19  1  1  0  0  0
 18 25  1  0  0  0  0
 20 21  1  1  0  0  0
 20 27  1  0  0  0  0
 22 23  1  1  0  0  0
 22 29  1  0  0  0  0
 24  2  1  6  0  0  0
 24 31  1  0  0  0  0
 25 26  1  0  0  0  0
 25 33  1  6  0  0  0
 27 28  1  6  0  0  0
 27 35  1  0  0  0  0
 29 30  1  0  0  0  0
 29 37  1  6  0  0  0
 31 32  1  6  0  0  0
 31 39  1  0  0  0  0
 33 34  1  0  0  0  0
 35 36  1  0  0  0  0
 35 41  1  1  0  0  0
 37 38  1  0  0  0  0
 39 40  1  1  0  0  0
 41 42  1  0  0  0  0
M  END
>  <CHROM.1>
173.86306541,136.56759340,-79.06010899,-66.36841948,-172.77370067,-62.51427930
-69.51145166,164.94242628,-58.54225897,7.74221462,3.33195365,3.97138655,1.50045430
-1.28191750,-0.37657972

>  <Name>
2o3w_lig

>  <RI>
0

>  <Rbt.Current_Directory>
/home/itssahil/PROJECTS/Mol_Feturizer/New_Systems/rnas/2o3w

>  <Rbt.Executable>
rbdock ($Id: //depot/dev/client3/rdock/2013.1/src/exe/rbdock.cxx#4 $)

>  <Rbt.Library>
libRbt.so (2013.1, Build901 2013/11/27)

>  <Rbt.Parameter_File>
/export/apps/rDock/src/rDock_2013.1_src/data/scripts/dock_solv.prm

>  <Rbt.Receptor>
prm/pocket_docking_5.prm

>  <SCORE>
-20.7934

>  <SCORE.INTER>
-13.1583

>  <SCORE.INTER.CONST>
1

>  <SCORE.INTER.POLAR>
-2.84679

>  <SCORE.INTER.ROT>
9

>  <SCORE.INTER.SOLV>
15.6569

>  <SCORE.INTER.VDW>
-14.1019

>  <SCORE.INTER.norm>
-0.313294

>  <SCORE.INTRA>
-7.63508

>  <SCORE.INTRA.DIHEDRAL>
-18.1602

>  <SCORE.INTRA.DIHEDRAL.0>
27.8999

>  <SCORE.INTRA.POLAR>
0

>  <SCORE.INTRA.POLAR.0>
0

>  <SCORE.INTRA.REPUL>
0

>  <SCORE.INTRA.REPUL.0>
0

>  <SCORE.INTRA.SOLV>
-2.73104

>  <SCORE.INTRA.SOLV.lig_0>
-104.479

>  <SCORE.INTRA.VDW>
2.81057

>  <SCORE.INTRA.VDW.0>
-6.17816

>  <SCORE.INTRA.norm>
-0.181788

>  <SCORE.RESTR>
0

>  <SCORE.RESTR.CAVITY>
0

>  <SCORE.RESTR.norm>
0

>  <SCORE.SYSTEM>
0

>  <SCORE.SYSTEM.CONST>
0

>  <SCORE.SYSTEM.DIHEDRAL>
0

>  <SCORE.SYSTEM.SOLV>
0

>  <SCORE.SYSTEM.norm>
0

>  <SCORE.heavy>
42

>  <SCORE.norm>
-0.495081

>  <RMSD>
8.785

$$$$
2o3w_lig
 OpenBabel11021811463D
libRbt.so/2013.1/901 2013/11/27
 42 45  0  0  0  0  0  0  0  0999 V2000
   11.5771    4.4605    5.0869 C   0  0  2  0  0  0  0  0  0  0  0  0
   10.9558    4.3375    6.3777 O   0  0  0  0  0  0  0  0  0  0  0  0
   13.2494    0.9656    7.8494 C   0  0  2  0  0  0  0  0  0  0  0  0
   13.7012   -0.2150    8.6447 N   0  0  0  0  0  0  0  0  0  0  0  0
    9.3995    0.5422    5.4210 C   0  0  1  0  0  0  0  0  0  0  0  0
    9.1579   -2.1512    4.1961 C   0  0  1  0  0  0  0  0  0  0  0  0
   11.6287    5.9810    4.7498 C   0  0  2  0  0  0  0  0  0  0  0  0
   12.1916    6.7835    5.8497 N   0  0  0  0  0  0  0  0  0  0  0  0
   13.2180    2.2760    8.7348 C   0  0  0  0  0  0  0  0  0  0  0  0
    8.4666   -0.2965    6.3468 C   0  0  2  0  0  0  0  0  0  0  0  0
    9.1579   -1.3094    7.1182 O   0  0  0  0  0  0  0  0  0  0  0  0
    9.2277   -1.7160    2.6880 C   0  0  2  0  0  0  0  0  0  0  0  0
    8.2874   -2.5245    1.8554 N   0  0  0  0  0  0  0  0  0  0  0  0
   10.2346    6.5597    4.4454 C   0  0  1  0  0  0  0  0  0  0  0  0
   10.3342    7.9433    4.1037 O   0  0  0  0  0  0  0  0  0  0  0  0
   12.7570    3.4868    7.8380 C   0  0  2  0  0  0  0  0  0  0  0  0
   12.7300    4.7416    8.6370 N   0  0  0  0  0  0  0  0  0  0  0  0
    7.4392   -0.8168    5.3404 C   0  0  2  0  0  0  0  0  0  0  0  0
    7.8464   -2.1019    4.7716 O   0  0  0  0  0  0  0  0  0  0  0  0
   10.7343   -1.8651    2.1638 C   0  0  1  0  0  0  0  0  0  0  0  0
   11.5333   -0.8023    2.7303 O   0  0  0  0  0  0  0  0  0  0  0  0
    9.5745    5.7441    3.3103 C   0  0  2  0  0  0  0  0  0  0  0  0
    8.3038    6.2718    3.0081 O   0  0  0  0  0  0  0  0  0  0  0  0
   11.3249    3.2152    7.2289 C   0  0  2  0  0  0  0  0  0  0  0  0
    7.3263    0.2637    4.2518 C   0  0  2  0  0  0  0  0  0  0  0  0
    8.6317    0.8365    4.2315 O   0  0  0  0  0  0  0  0  0  0  0  0
   11.3849   -3.2814    2.5357 C   0  0  2  0  0  0  0  0  0  0  0  0
   10.7224   -4.2775    1.7577 O   0  0  0  0  0  0  0  0  0  0  0  0
    9.4603    4.2483    3.7563 C   0  0  2  0  0  0  0  0  0  0  0  0
   10.7897    3.7267    4.0734 O   0  0  0  0  0  0  0  0  0  0  0  0
   11.2652    1.9166    6.3950 C   0  0  2  0  0  0  0  0  0  0  0  0
    9.8586    1.7319    6.0759 O   0  0  0  0  0  0  0  0  0  0  0  0
    6.2399    1.3521    4.5149 C   0  0  0  0  0  0  0  0  0  0  0  0
    6.6351    2.1526    5.6248 O   0  0  0  0  0  0  0  0  0  0  0  0
   11.2132   -3.5857    4.0719 C   0  0  1  0  0  0  0  0  0  0  0  0
    9.7658   -3.5305    4.3407 O   0  0  0  0  0  0  0  0  0  0  0  0
    8.8287    3.3728    2.6988 C   0  0  0  0  0  0  0  0  0  0  0  0
    9.5028    3.5292    1.4738 O   0  0  0  0  0  0  0  0  0  0  0  0
   11.8146    0.6940    7.2429 C   0  0  1  0  0  0  0  0  0  0  0  0
   11.9011   -0.4753    6.4238 O   0  0  0  0  0  0  0  0  0  0  0  0
   11.8028   -4.9919    4.5234 C   0  0  0  0  0  0  0  0  0  0  0  0
   11.6520   -5.3174    5.9683 N   0  0  0  0  0  0  0  0  0  0  0  0
  1  2  1  1  0  0  0
  1  7  1  0  0  0  0
  1 30  1  0  0  0  0
  3  4  1  1  0  0  0
  3  9  1  0  0  0  0
  3 39  1  0  0  0  0
  5 10  1  0  0  0  0
  5 26  1  0  0  0  0
  5 32  1  1  0  0  0
  6 12  1  0  0  0  0
  6 36  1  0  0  0  0
  6 19  1  6  0  0  0
  7  8  1  1  0  0  0
  7 14  1  0  0  0  0
  9 16  1  0  0  0  0
 10 11  1  6  0  0  0
 10 18  1  0  0  0  0
 12 13  1  6  0  0  0
 12 20  1  0  0  0  0
 14 15  1  6  0  0  0
 14 22  1  0  0  0  0
 16 17  1  1  0  0  0
 16 24  1  0  0  0  0
 18 19  1  6  0  0  0
 18 25  1  0  0  0  0
 20 21  1  1  0  0  0
 20 27  1  0  0  0  0
 22 23  1  1  0  0  0
 22 29  1  0  0  0  0
 24  2  1  6  0  0  0
 24 31  1  0  0  0  0
 25 26  1  0  0  0  0
 25 33  1  1  0  0  0
 27 28  1  6  0  0  0
 27 35  1  0  0  0  0
 29 30  1  0  0  0  0
 29 37  1  6  0  0  0
 31 32  1  1  0  0  0
 31 39  1  0  0  0  0
 33 34  1  0  0  0  0
 35 36  1  0  0  0  0
 35 41  1  6  0  0  0
 37 38  1  0  0  0  0
 39 40  1  6  0  0  0
 41 42  1  0  0  0  0
M  END
>  <CHROM.1>
-150.48286471,114.27670069,-87.08711250,-53.11106555,74.93840468,68.30778970
52.96323451,-173.45391997,-179.68481805,10.25172666,1.14223467,4.93765681
-1.47704443,0.84834834,-3.08481753

>  <Name>
2o3w_lig

>  <RI>
0

>  <Rbt.Current_Directory>
/home/itssahil/PROJECTS/Mol_Feturizer/New_Systems/rnas/2o3w

>  <Rbt.Executable>
rbdock ($Id: //depot/dev/client3/rdock/2013.1/src/exe/rbdock.cxx#4 $)

>  <Rbt.Library>
libRbt.so (2013.1, Build901 2013/11/27)

>  <Rbt.Parameter_File>
/export/apps/rDock/src/rDock_2013.1_src/data/scripts/dock_solv.prm

>  <Rbt.Receptor>
prm/pocket_docking_4.prm

>  <SCORE>
-10.5854

>  <SCORE.INTER>
-5.27894

>  <SCORE.INTER.CONST>
1

>  <SCORE.INTER.POLAR>
-0.894427

>  <SCORE.INTER.ROT>
9

>  <SCORE.INTER.SOLV>
6.98444

>  <SCORE.INTER.VDW>
-12.466

>  <SCORE.INTER.norm>
-0.125689

>  <SCORE.INTRA>
-5.31516

>  <SCORE.INTRA.DIHEDRAL>
-12.3196

>  <SCORE.INTRA.DIHEDRAL.0>
27.8999

>  <SCORE.INTRA.POLAR>
0

>  <SCORE.INTRA.POLAR.0>
0

>  <SCORE.INTRA.REPUL>
0.00412495

>  <SCORE.INTRA.REPUL.0>
0

>  <SCORE.INTRA.SOLV>
-0.735223

>  <SCORE.INTRA.SOLV.lig_0>
-104.479

>  <SCORE.INTRA.VDW>
1.19163

>  <SCORE.INTRA.VDW.0>
-6.17816

>  <SCORE.INTRA.norm>
-0.126551

>  <SCORE.RESTR>
0.00866544

>  <SCORE.RESTR.CAVITY>
0.00866544

>  <SCORE.RESTR.norm>
0.00020632

>  <SCORE.SYSTEM>
0

>  <SCORE.SYSTEM.CONST>
0

>  <SCORE.SYSTEM.DIHEDRAL>
0

>  <SCORE.SYSTEM.SOLV>
0

>  <SCORE.SYSTEM.norm>
0

>  <SCORE.heavy>
42

>  <SCORE.norm>
-0.252034

>  <RMSD>
8.787

$$$$
2o3w_lig
 OpenBabel11021811463D
libRbt.so/2013.1/901 2013/11/27
 42 45  0  0  0  0  0  0  0  0999 V2000
    5.7825    7.6606   -0.4199 C   0  0  2  0  0  0  0  0  0  0  0  0
    6.7593    7.8666    0.6149 O   0  0  0  0  0  0  0  0  0  0  0  0
    8.5013    3.8970    0.5545 C   0  0  2  0  0  0  0  0  0  0  0  0
    9.3135    2.6896    0.8906 N   0  0  0  0  0  0  0  0  0  0  0  0
    6.9182    6.6096    3.7977 C   0  0  1  0  0  0  0  0  0  0  0  0
    9.2848    7.3080    6.9434 C   0  0  1  0  0  0  0  0  0  0  0  0
    5.3529    9.0699   -0.9272 C   0  0  2  0  0  0  0  0  0  0  0  0
    6.5059    9.9292   -1.2480 N   0  0  0  0  0  0  0  0  0  0  0  0
    9.4244    5.1114    0.1362 C   0  0  0  0  0  0  0  0  0  0  0  0
    6.1046    6.7336    5.1219 C   0  0  2  0  0  0  0  0  0  0  0  0
    5.4825    8.0281    5.3122 O   0  0  0  0  0  0  0  0  0  0  0  0
    9.8401    8.2141    8.1007 C   0  0  2  0  0  0  0  0  0  0  0  0
    9.6105    9.6597    7.8032 N   0  0  0  0  0  0  0  0  0  0  0  0
    4.5058    9.8309    0.1093 C   0  0  1  0  0  0  0  0  0  0  0  0
    4.1020   11.0981   -0.4122 O   0  0  0  0  0  0  0  0  0  0  0  0
    8.5126    6.3441   -0.2268 C   0  0  2  0  0  0  0  0  0  0  0  0
    9.3494    7.5028   -0.6399 N   0  0  0  0  0  0  0  0  0  0  0  0
    7.1622    6.3484    6.1575 C   0  0  2  0  0  0  0  0  0  0  0  0
    7.9020    7.5183    6.6317 O   0  0  0  0  0  0  0  0  0  0  0  0
   11.3993    7.9099    8.3087 C   0  0  1  0  0  0  0  0  0  0  0  0
   11.5424    6.6253    8.9554 O   0  0  0  0  0  0  0  0  0  0  0  0
    3.2857    8.9706    0.5098 C   0  0  2  0  0  0  0  0  0  0  0  0
    2.4907    9.6604    1.4460 O   0  0  0  0  0  0  0  0  0  0  0  0
    7.6122    6.7528    1.0053 C   0  0  2  0  0  0  0  0  0  0  0  0
    8.0950    5.3450    5.4586 C   0  0  2  0  0  0  0  0  0  0  0  0
    8.0504    5.7607    4.0957 O   0  0  0  0  0  0  0  0  0  0  0  0
   12.2223    7.9124    6.9338 C   0  0  2  0  0  0  0  0  0  0  0  0
   12.2647    9.2576    6.4594 O   0  0  0  0  0  0  0  0  0  0  0  0
    3.7909    7.6144    1.1057 C   0  0  2  0  0  0  0  0  0  0  0  0
    4.6207    6.9224    0.1197 O   0  0  0  0  0  0  0  0  0  0  0  0
    6.7214    5.5949    1.5064 C   0  0  2  0  0  0  0  0  0  0  0  0
    6.1140    6.0839    2.7338 O   0  0  0  0  0  0  0  0  0  0  0  0
    7.6783    3.8484    5.6028 C   0  0  0  0  0  0  0  0  0  0  0  0
    8.6713    3.0234    5.0010 O   0  0  0  0  0  0  0  0  0  0  0  0
   11.5291    6.9804    5.8693 C   0  0  1  0  0  0  0  0  0  0  0  0
   10.1540    7.4863    5.7163 O   0  0  0  0  0  0  0  0  0  0  0  0
    2.6584    6.7037    1.5203 C   0  0  0  0  0  0  0  0  0  0  0  0
    1.8663    6.3763    0.4046 O   0  0  0  0  0  0  0  0  0  0  0  0
    7.6029    4.3071    1.7895 C   0  0  1  0  0  0  0  0  0  0  0  0
    6.7627    3.1941    2.1069 O   0  0  0  0  0  0  0  0  0  0  0  0
   12.2636    6.9499    4.4593 C   0  0  0  0  0  0  0  0  0  0  0  0
   11.7662    5.9275    3.4981 N   0  0  0  0  0  0  0  0  0  0  0  0
  1  2  1  1  0  0  0
  1  7  1  0  0  0  0
  1 30  1  0  0  0  0
  3  4  1  1  0  0  0
  3  9  1  0  0  0  0
  3 39  1  0  0  0  0
  5 10  1  0  0  0  0
  5 26  1  0  0  0  0
  5 32  1  6  0  0  0
  6 12  1  0  0  0  0
  6 36  1  0  0  0  0
  6 19  1  6  0  0  0
  7  8  1  1  0  0  0
  7 14  1  0  0  0  0
  9 16  1  0  0  0  0
 10 11  1  1  0  0  0
 10 18  1  0  0  0  0
 12 13  1  6  0  0  0
 12 20  1  0  0  0  0
 14 15  1  6  0  0  0
 14 22  1  0  0  0  0
 16 17  1  1  0  0  0
 16 24  1  0  0  0  0
 18 19  1  6  0  0  0
 18 25  1  0  0  0  0
 20 21  1  6  0  0  0
 20 27  1  0  0  0  0
 22 23  1  1  0  0  0
 22 29  1  0  0  0  0
 24  2  1  6  0  0  0
 24 31  1  0  0  0  0
 25 26  1  0  0  0  0
 25 33  1  6  0  0  0
 27 28  1  6  0  0  0
 27 35  1  0  0  0  0
 29 30  1  0  0  0  0
 29 37  1  6  0  0  0
 31 32  1  1  0  0  0
 31 39  1  0  0  0  0
 33 34  1  0  0  0  0
 35 36  1  0  0  0  0
 35 41  1  6  0  0  0
 37 38  1  0  0  0  0
 39 40  1  6  0  0  0
 41 42  1  0  0  0  0
M  END
>  <CHROM.1>
-162.59923611,-165.71691046,-148.38289461,-145.67662955,63.78766248,-175.68959145
61.41034456,-53.39141385,170.96314716,7.57709814,6.92310341,3.17809192,-2.62208499
-0.68039257,0.86289878

>  <Name>
2o3w_lig

>  <RI>
0

>  <Rbt.Current_Directory>
/home/itssahil/PROJECTS/Mol_Feturizer/New_Systems/rnas/2o3w

>  <Rbt.Executable>
rbdock ($Id: //depot/dev/client3/rdock/2013.1/src/exe/rbdock.cxx#4 $)

>  <Rbt.Library>
libRbt.so (2013.1, Build901 2013/11/27)

>  <Rbt.Parameter_File>
/export/apps/rDock/src/rDock_2013.1_src/data/scripts/dock_solv.prm

>  <Rbt.Receptor>
prm/pocket_docking_7.prm

>  <SCORE>
-19.5288

>  <SCORE.INTER>
-12.9037

>  <SCORE.INTER.CONST>
1

>  <SCORE.INTER.POLAR>
-2.89631

>  <SCORE.INTER.ROT>
9

>  <SCORE.INTER.SOLV>
21.834

>  <SCORE.INTER.VDW>
-15.8261

>  <SCORE.INTER.norm>
-0.307232

>  <SCORE.INTRA>
-6.62511

>  <SCORE.INTRA.DIHEDRAL>
-16.5185

>  <SCORE.INTRA.DIHEDRAL.0>
27.8999

>  <SCORE.INTRA.POLAR>
0

>  <SCORE.INTRA.POLAR.0>
0

>  <SCORE.INTRA.REPUL>
0

>  <SCORE.INTRA.REPUL.0>
0

>  <SCORE.INTRA.SOLV>
-2.80923

>  <SCORE.INTRA.SOLV.lig_0>
-104.479

>  <SCORE.INTRA.VDW>
3.03876

>  <SCORE.INTRA.VDW.0>
-6.17816

>  <SCORE.INTRA.norm>
-0.157741

>  <SCORE.RESTR>
0

>  <SCORE.RESTR.CAVITY>
0

>  <SCORE.RESTR.norm>
0

>  <SCORE.SYSTEM>
0

>  <SCORE.SYSTEM.CONST>
0

>  <SCORE.SYSTEM.DIHEDRAL>
0

>  <SCORE.SYSTEM.SOLV>
0

>  <SCORE.SYSTEM.norm>
0

>  <SCORE.heavy>
42

>  <SCORE.norm>
-0.464972

>  <RMSD>
8.810

$$$$
2o3w_lig
 OpenBabel11021811463D
libRbt.so/2013.1/901 2013/11/27
 42 45  0  0  0  0  0  0  0  0999 V2000
    6.0169    9.0356    2.1199 C   0  0  2  0  0  0  0  0  0  0  0  0
    6.6291    7.8982    1.4884 O   0  0  0  0  0  0  0  0  0  0  0  0
   10.3309    5.9489    2.6256 C   0  0  2  0  0  0  0  0  0  0  0  0
   11.3432    5.1113    3.3356 N   0  0  0  0  0  0  0  0  0  0  0  0
    6.4143    4.0875    2.1720 C   0  0  1  0  0  0  0  0  0  0  0  0
    6.2275    1.8156    4.1289 C   0  0  1  0  0  0  0  0  0  0  0  0
    4.9060    8.4878    3.0655 C   0  0  2  0  0  0  0  0  0  0  0  0
    5.3938    7.4093    3.9428 N   0  0  0  0  0  0  0  0  0  0  0  0
    9.7995    7.1154    3.5522 C   0  0  0  0  0  0  0  0  0  0  0  0
    6.0115    4.7417    3.5287 C   0  0  2  0  0  0  0  0  0  0  0  0
    7.1018    4.8523    4.4763 O   0  0  0  0  0  0  0  0  0  0  0  0
    5.5614    0.8016    3.1304 C   0  0  2  0  0  0  0  0  0  0  0  0
    4.4824    0.0196    3.8050 N   0  0  0  0  0  0  0  0  0  0  0  0
    3.7047    7.9195    2.2879 C   0  0  1  0  0  0  0  0  0  0  0  0
    2.6961    7.4661    3.1924 O   0  0  0  0  0  0  0  0  0  0  0  0
    8.7554    7.9743    2.7431 C   0  0  2  0  0  0  0  0  0  0  0  0
    8.2444    9.0922    3.5815 N   0  0  0  0  0  0  0  0  0  0  0  0
    4.8496    3.8444    3.9577 C   0  0  2  0  0  0  0  0  0  0  0  0
    5.3116    2.7153    4.7656 O   0  0  0  0  0  0  0  0  0  0  0  0
    6.6875   -0.1686    2.5326 C   0  0  1  0  0  0  0  0  0  0  0  0
    7.4868    0.5724    1.5834 O   0  0  0  0  0  0  0  0  0  0  0  0
    3.1565    8.9979    1.3257 C   0  0  2  0  0  0  0  0  0  0  0  0
    2.0454    8.4986    0.6182 O   0  0  0  0  0  0  0  0  0  0  0  0
    7.5474    7.0761    2.2638 C   0  0  2  0  0  0  0  0  0  0  0  0
    4.1822    3.3636    2.6582 C   0  0  2  0  0  0  0  0  0  0  0  0
    5.2689    3.3197    1.7364 O   0  0  0  0  0  0  0  0  0  0  0  0
    7.6375   -0.7901    3.6635 C   0  0  2  0  0  0  0  0  0  0  0  0
    6.8563   -1.7103    4.4247 O   0  0  0  0  0  0  0  0  0  0  0  0
    4.2931    9.4272    0.3391 C   0  0  2  0  0  0  0  0  0  0  0  0
    5.4376    9.9323    1.0971 O   0  0  0  0  0  0  0  0  0  0  0  0
    7.9977    5.8795    1.3974 C   0  0  2  0  0  0  0  0  0  0  0  0
    6.8019    5.0743    1.2071 O   0  0  0  0  0  0  0  0  0  0  0  0
    3.0347    4.2791    2.1299 C   0  0  0  0  0  0  0  0  0  0  0  0
    2.5195    3.7358    0.9182 O   0  0  0  0  0  0  0  0  0  0  0  0
    8.2062    0.3447    4.5968 C   0  0  1  0  0  0  0  0  0  0  0  0
    7.0342    1.0437    5.1519 O   0  0  0  0  0  0  0  0  0  0  0  0
    3.8443   10.4888   -0.6383 C   0  0  0  0  0  0  0  0  0  0  0  0
    2.9818    9.9299   -1.5990 O   0  0  0  0  0  0  0  0  0  0  0  0
    9.1208    5.0493    2.1492 C   0  0  1  0  0  0  0  0  0  0  0  0
    9.6439    4.0343    1.2879 O   0  0  0  0  0  0  0  0  0  0  0  0
    9.1355   -0.1884    5.7719 C   0  0  0  0  0  0  0  0  0  0  0  0
    8.4931   -1.1441    6.7156 N   0  0  0  0  0  0  0  0  0  0  0  0
  1  2  1  6  0  0  0
  1  7  1  0  0  0  0
  1 30  1  0  0  0  0
  3  4  1  1  0  0  0
  3  9  1  0  0  0  0
  3 39  1  0  0  0  0
  5 10  1  0  0  0  0
  5 26  1  0  0  0  0
  5 32  1  6  0  0  0
  6 12  1  0  0  0  0
  6 36  1  0  0  0  0
  6 19  1  1  0  0  0
  7  8  1  6  0  0  0
  7 14  1  0  0  0  0
  9 16  1  0  0  0  0
 10 11  1  1  0  0  0
 10 18  1  0  0  0  0
 12 13  1  1  0  0  0
 12 20  1  0  0  0  0
 14 15  1  1  0  0  0
 14 22  1  0  0  0  0
 16 17  1  1  0  0  0
 16 24  1  0  0  0  0
 18 19  1  6  0  0  0
 18 25  1  0  0  0  0
 20 21  1  6  0  0  0
 20 27  1  0  0  0  0
 22 23  1  6  0  0  0
 22 29  1  0  0  0  0
 24  2  1  6  0  0  0
 24 31  1  0  0  0  0
 25 26  1  0  0  0  0
 25 33  1  6  0  0  0
 27 28  1  1  0  0  0
 27 35  1  0  0  0  0
 29 30  1  0  0  0  0
 29 37  1  6  0  0  0
 31 32  1  1  0  0  0
 31 39  1  0  0  0  0
 33 34  1  0  0  0  0
 35 36  1  0  0  0  0
 35 41  1  1  0  0  0
 37 38  1  0  0  0  0
 39 40  1  6  0  0  0
 41 42  1  0  0  0  0
M  END
>  <CHROM.1>
-75.30748093,66.11265163,-77.94251915,-61.05266558,-60.16978334,179.09206120
-72.79100513,-85.93855155,-59.49226327,6.22923539,4.83804898,2.67219176,-1.87528443
0.22598935,2.86363659

>  <Name>
2o3w_lig

>  <RI>
0

>  <Rbt.Current_Directory>
/home/itssahil/PROJECTS/Mol_Feturizer/New_Systems/rnas/2o3w

>  <Rbt.Executable>
rbdock ($Id: //depot/dev/client3/rdock/2013.1/src/exe/rbdock.cxx#4 $)

>  <Rbt.Library>
libRbt.so (2013.1, Build901 2013/11/27)

>  <Rbt.Parameter_File>
/export/apps/rDock/src/rDock_2013.1_src/data/scripts/dock_solv.prm

>  <Rbt.Receptor>
prm/pocket_docking_3.prm

>  <SCORE>
-8.17313

>  <SCORE.INTER>
-3.54091

>  <SCORE.INTER.CONST>
1

>  <SCORE.INTER.POLAR>
-0.106004

>  <SCORE.INTER.ROT>
9

>  <SCORE.INTER.SOLV>
15.2226

>  <SCORE.INTER.VDW>
-16.6814

>  <SCORE.INTER.norm>
-0.0843073

>  <SCORE.INTRA>
-4.64736

>  <SCORE.INTRA.DIHEDRAL>
-21.6093

>  <SCORE.INTRA.DIHEDRAL.0>
27.8999

>  <SCORE.INTRA.POLAR>
0

>  <SCORE.INTRA.POLAR.0>
0

>  <SCORE.INTRA.REPUL>
0

>  <SCORE.INTRA.REPUL.0>
0

>  <SCORE.INTRA.SOLV>
5.64945

>  <SCORE.INTRA.SOLV.lig_0>
-104.479

>  <SCORE.INTRA.VDW>
3.33256

>  <SCORE.INTRA.VDW.0>
-6.17816

>  <SCORE.INTRA.norm>
-0.110651

>  <SCORE.RESTR>
0.0151351

>  <SCORE.RESTR.CAVITY>
0.0151351

>  <SCORE.RESTR.norm>
0.000360358

>  <SCORE.SYSTEM>
0

>  <SCORE.SYSTEM.CONST>
0

>  <SCORE.SYSTEM.DIHEDRAL>
0

>  <SCORE.SYSTEM.SOLV>
0

>  <SCORE.SYSTEM.norm>
0

>  <SCORE.heavy>
42

>  <SCORE.norm>
-0.194598

>  <RMSD>
8.812

$$$$
2o3w_lig
 OpenBabel11021811463D
libRbt.so/2013.1/901 2013/11/27
 42 45  0  0  0  0  0  0  0  0999 V2000
    3.7790    7.1170   -0.2664 C   0  0  2  0  0  0  0  0  0  0  0  0
    3.8993    7.8146    0.9851 O   0  0  0  0  0  0  0  0  0  0  0  0
    4.7885    6.8548    5.1184 C   0  0  2  0  0  0  0  0  0  0  0  0
    5.3615    6.2269    6.3463 N   0  0  0  0  0  0  0  0  0  0  0  0
    7.6426    7.5142    1.8834 C   0  0  1  0  0  0  0  0  0  0  0  0
    9.9331    5.7050    2.4497 C   0  0  1  0  0  0  0  0  0  0  0  0
    3.6336    8.1990   -1.3783 C   0  0  2  0  0  0  0  0  0  0  0  0
    4.6663    9.2457   -1.2849 N   0  0  0  0  0  0  0  0  0  0  0  0
    3.9276    5.8170    4.2914 C   0  0  0  0  0  0  0  0  0  0  0  0
    7.2475    6.1081    1.3380 C   0  0  2  0  0  0  0  0  0  0  0  0
    6.9219    5.1456    2.3708 O   0  0  0  0  0  0  0  0  0  0  0  0
   11.2040    6.6122    2.2745 C   0  0  2  0  0  0  0  0  0  0  0  0
   12.3331    5.8390    1.6762 N   0  0  0  0  0  0  0  0  0  0  0  0
    2.2705    8.9130   -1.3241 C   0  0  1  0  0  0  0  0  0  0  0  0
    2.1658    9.8661   -2.3832 O   0  0  0  0  0  0  0  0  0  0  0  0
    3.3334    6.5416    3.0247 C   0  0  2  0  0  0  0  0  0  0  0  0
    2.5041    5.5964    2.2295 N   0  0  0  0  0  0  0  0  0  0  0  0
    8.4662    5.7698    0.4780 C   0  0  2  0  0  0  0  0  0  0  0  0
    9.4887    5.0618    1.2486 O   0  0  0  0  0  0  0  0  0  0  0  0
   11.6159    7.2253    3.6963 C   0  0  1  0  0  0  0  0  0  0  0  0
   10.6662    8.2543    4.0542 O   0  0  0  0  0  0  0  0  0  0  0  0
    1.1364    7.8651   -1.3938 C   0  0  2  0  0  0  0  0  0  0  0  0
   -0.1187    8.5041   -1.3622 O   0  0  0  0  0  0  0  0  0  0  0  0
    4.4918    7.1208    2.1199 C   0  0  2  0  0  0  0  0  0  0  0  0
    8.9976    7.1123   -0.0518 C   0  0  2  0  0  0  0  0  0  0  0  0
    8.6570    8.0255    0.9886 O   0  0  0  0  0  0  0  0  0  0  0  0
   11.6731    6.1216    4.8565 C   0  0  2  0  0  0  0  0  0  0  0  0
   12.7882    5.2723    4.5888 O   0  0  0  0  0  0  0  0  0  0  0  0
    1.2827    6.8738   -0.1915 C   0  0  2  0  0  0  0  0  0  0  0  0
    2.5958    6.2310   -0.2410 O   0  0  0  0  0  0  0  0  0  0  0  0
    5.4110    8.1024    2.8794 C   0  0  2  0  0  0  0  0  0  0  0  0
    6.5065    8.3845    1.9657 O   0  0  0  0  0  0  0  0  0  0  0  0
    8.3941    7.5664   -1.4171 C   0  0  0  0  0  0  0  0  0  0  0  0
    8.6970    6.5934   -2.4122 O   0  0  0  0  0  0  0  0  0  0  0  0
   10.3419    5.2797    4.8889 C   0  0  1  0  0  0  0  0  0  0  0  0
   10.1958    4.6933    3.5453 O   0  0  0  0  0  0  0  0  0  0  0  0
    0.2132    5.8061   -0.1847 C   0  0  0  0  0  0  0  0  0  0  0  0
    0.3420    4.9835   -1.3187 O   0  0  0  0  0  0  0  0  0  0  0  0
    5.9489    7.4313    4.2120 C   0  0  1  0  0  0  0  0  0  0  0  0
    6.6746    8.3885    4.9884 O   0  0  0  0  0  0  0  0  0  0  0  0
   10.3261    4.1352    5.9927 C   0  0  0  0  0  0  0  0  0  0  0  0
    9.1062    3.2819    6.0158 N   0  0  0  0  0  0  0  0  0  0  0  0
  1  2  1  1  0  0  0
  1  7  1  0  0  0  0
  1 30  1  0  0  0  0
  3  4  1  1  0  0  0
  3  9  1  0  0  0  0
  3 39  1  0  0  0  0
  5 10  1  0  0  0  0
  5 26  1  0  0  0  0
  5 32  1  6  0  0  0
  6 12  1  0  0  0  0
  6 36  1  0  0  0  0
  6 19  1  6  0  0  0
  7  8  1  1  0  0  0
  7 14  1  0  0  0  0
  9 16  1  0  0  0  0
 10 11  1  1  0  0  0
 10 18  1  0  0  0  0
 12 13  1  1  0  0  0
 12 20  1  0  0  0  0
 14 15  1  6  0  0  0
 14 22  1  0  0  0  0
 16 17  1  6  0  0  0
 16 24  1  0  0  0  0
 18 19  1  1  0  0  0
 18 25  1  0  0  0  0
 20 21  1  1  0  0  0
 20 27  1  0  0  0  0
 22 23  1  1  0  0  0
 22 29  1  0  0  0  0
 24  2  1  6  0  0  0
 24 31  1  0  0  0  0
 25 26  1  0  0  0  0
 25 33  1  6  0  0  0
 27 28  1  6  0  0  0
 27 35  1  0  0  0  0
 29 30  1  0  0  0  0
 29 37  1  6  0  0  0
 31 32  1  6  0  0  0
 31 39  1  0  0  0  0
 33 34  1  0  0  0  0
 35 36  1  0  0  0  0
 35 41  1  1  0  0  0
 37 38  1  0  0  0  0
 39 40  1  1  0  0  0
 41 42  1  0  0  0  0
M  END
>  <CHROM.1>
-159.32557332,65.13975986,-93.05221827,-54.42209793,-97.20019229,-60.49967500
64.50946091,-84.59843105,-177.57511762,6.41352053,6.74493911,1.76498010,-2.64910030
-0.02934026,1.87636462

>  <Name>
2o3w_lig

>  <RI>
0

>  <Rbt.Current_Directory>
/home/itssahil/PROJECTS/Mol_Feturizer/New_Systems/rnas/2o3w

>  <Rbt.Executable>
rbdock ($Id: //depot/dev/client3/rdock/2013.1/src/exe/rbdock.cxx#4 $)

>  <Rbt.Library>
libRbt.so (2013.1, Build901 2013/11/27)

>  <Rbt.Parameter_File>
/export/apps/rDock/src/rDock_2013.1_src/data/scripts/dock_solv.prm

>  <Rbt.Receptor>
prm/pocket_docking_5.prm

>  <SCORE>
-12.6007

>  <SCORE.INTER>
-7.62264

>  <SCORE.INTER.CONST>
1

>  <SCORE.INTER.POLAR>
-1.04208

>  <SCORE.INTER.ROT>
9

>  <SCORE.INTER.SOLV>
18.3061

>  <SCORE.INTER.VDW>
-17.3102

>  <SCORE.INTER.norm>
-0.181492

>  <SCORE.INTRA>
-5.02711

>  <SCORE.INTRA.DIHEDRAL>
-13.8808

>  <SCORE.INTRA.DIHEDRAL.0>
27.8999

>  <SCORE.INTRA.POLAR>
0

>  <SCORE.INTRA.POLAR.0>
0

>  <SCORE.INTRA.REPUL>
0

>  <SCORE.INTRA.REPUL.0>
0

>  <SCORE.INTRA.SOLV>
-0.114209

>  <SCORE.INTRA.SOLV.lig_0>
-104.479

>  <SCORE.INTRA.VDW>
1.97039

>  <SCORE.INTRA.VDW.0>
-6.17816

>  <SCORE.INTRA.norm>
-0.119693

>  <SCORE.RESTR>
0.0490537

>  <SCORE.RESTR.CAVITY>
0.0490537

>  <SCORE.RESTR.norm>
0.00116794

>  <SCORE.SYSTEM>
0

>  <SCORE.SYSTEM.CONST>
0

>  <SCORE.SYSTEM.DIHEDRAL>
0

>  <SCORE.SYSTEM.SOLV>
0

>  <SCORE.SYSTEM.norm>
0

>  <SCORE.heavy>
42

>  <SCORE.norm>
-0.300017

>  <RMSD>
8.817

$$$$
2o3w_lig
 OpenBabel11021811463D
libRbt.so/2013.1/901 2013/11/27
 42 45  0  0  0  0  0  0  0  0999 V2000
    8.3544    5.8548    1.7697 C   0  0  2  0  0  0  0  0  0  0  0  0
    9.6138    6.3243    2.2805 O   0  0  0  0  0  0  0  0  0  0  0  0
   11.8927    4.7809    5.6301 C   0  0  2  0  0  0  0  0  0  0  0  0
   12.3283    4.4076    7.0090 N   0  0  0  0  0  0  0  0  0  0  0  0
    8.1482    2.7552    3.9825 C   0  0  1  0  0  0  0  0  0  0  0  0
    6.0575   -1.0566    4.0218 C   0  0  1  0  0  0  0  0  0  0  0  0
    8.4063    6.0081    0.2199 C   0  0  2  0  0  0  0  0  0  0  0  0
    9.6295    5.4298   -0.3632 N   0  0  0  0  0  0  0  0  0  0  0  0
   11.8064    6.3511    5.4608 C   0  0  0  0  0  0  0  0  0  0  0  0
    6.6229    2.6853    4.2980 C   0  0  2  0  0  0  0  0  0  0  0  0
    6.3074    2.7894    5.7082 O   0  0  0  0  0  0  0  0  0  0  0  0
    4.5937   -1.1980    3.4685 C   0  0  2  0  0  0  0  0  0  0  0  0
    3.5909   -0.8312    4.5128 N   0  0  0  0  0  0  0  0  0  0  0  0
    8.3558    7.4818   -0.2236 C   0  0  1  0  0  0  0  0  0  0  0  0
    8.3656    7.5728   -1.6492 O   0  0  0  0  0  0  0  0  0  0  0  0
   11.3655    6.6817    3.9847 C   0  0  2  0  0  0  0  0  0  0  0  0
   11.2880    8.1541    3.7853 N   0  0  0  0  0  0  0  0  0  0  0  0
    6.2417    1.3634    3.6298 C   0  0  2  0  0  0  0  0  0  0  0  0
    6.3722    0.2363    4.5537 O   0  0  0  0  0  0  0  0  0  0  0  0
    4.3658   -2.6979    2.9534 C   0  0  1  0  0  0  0  0  0  0  0  0
    5.0825   -2.8794    1.7115 O   0  0  0  0  0  0  0  0  0  0  0  0
    7.1023    8.1582    0.3766 C   0  0  2  0  0  0  0  0  0  0  0  0
    7.0325    9.5040   -0.0338 O   0  0  0  0  0  0  0  0  0  0  0  0
    9.9635    6.0286    3.6627 C   0  0  2  0  0  0  0  0  0  0  0  0
    7.1857    1.2088    2.4255 C   0  0  2  0  0  0  0  0  0  0  0  0
    8.3706    1.8725    2.8589 O   0  0  0  0  0  0  0  0  0  0  0  0
    4.8445   -3.7993    4.0143 C   0  0  2  0  0  0  0  0  0  0  0  0
    3.9469   -3.7489    5.1225 O   0  0  0  0  0  0  0  0  0  0  0  0
    7.1662    8.0585    1.9372 C   0  0  2  0  0  0  0  0  0  0  0  0
    7.2477    6.6539    2.3375 O   0  0  0  0  0  0  0  0  0  0  0  0
    9.9565    4.4971    3.8617 C   0  0  2  0  0  0  0  0  0  0  0  0
    8.5669    4.0981    3.7058 O   0  0  0  0  0  0  0  0  0  0  0  0
    6.6559    1.8201    1.0914 C   0  0  0  0  0  0  0  0  0  0  0  0
    6.4856    3.2251    1.2527 O   0  0  0  0  0  0  0  0  0  0  0  0
    6.3173   -3.5080    4.4918 C   0  0  1  0  0  0  0  0  0  0  0  0
    6.3051   -2.1434    5.0468 O   0  0  0  0  0  0  0  0  0  0  0  0
    5.9704    8.6923    2.6098 C   0  0  0  0  0  0  0  0  0  0  0  0
    6.0100    8.4525    3.9955 O   0  0  0  0  0  0  0  0  0  0  0  0
   10.4879    4.1292    5.3101 C   0  0  1  0  0  0  0  0  0  0  0  0
   10.6245    2.7115    5.4403 O   0  0  0  0  0  0  0  0  0  0  0  0
    6.8625   -4.5369    5.5747 C   0  0  0  0  0  0  0  0  0  0  0  0
    6.0742   -4.6208    6.8349 N   0  0  0  0  0  0  0  0  0  0  0  0
  1  2  1  1  0  0  0
  1  7  1  0  0  0  0
  1 30  1  0  0  0  0
  3  4  1  1  0  0  0
  3  9  1  0  0  0  0
  3 39  1  0  0  0  0
  5 10  1  0  0  0  0
  5 26  1  0  0  0  0
  5 32  1  6  0  0  0
  6 12  1  0  0  0  0
  6 36  1  0  0  0  0
  6 19  1  1  0  0  0
  7  8  1  1  0  0  0
  7 14  1  0  0  0  0
  9 16  1  0  0  0  0
 10 11  1  1  0  0  0
 10 18  1  0  0  0  0
 12 13  1  1  0  0  0
 12 20  1  0  0  0  0
 14 15  1  6  0  0  0
 14 22  1  0  0  0  0
 16 17  1  1  0  0  0
 16 24  1  0  0  0  0
 18 19  1  1  0  0  0
 18 25  1  0  0  0  0
 20 21  1  6  0  0  0
 20 27  1  0  0  0  0
 22 23  1  1  0  0  0
 22 29  1  0  0  0  0
 24  2  1  6  0  0  0
 24 31  1  0  0  0  0
 25 26  1  0  0  0  0
 25 33  1  6  0  0  0
 27 28  1  1  0  0  0
 27 35  1  0  0  0  0
 29 30  1  0  0  0  0
 29 37  1  1  0  0  0
 31 32  1  1  0  0  0
 31 39  1  0  0  0  0
 33 34  1  0  0  0  0
 35 36  1  0  0  0  0
 35 41  1  1  0  0  0
 37 38  1  0  0  0  0
 39 40  1  6  0  0  0
 41 42  1  0  0  0  0
M  END
>  <CHROM.1>
-166.60102426,157.48514725,-59.03514807,-179.11148881,-178.50797059,62.09312409
173.89138801,-172.47420180,-58.98832603,7.63961558,3.03086672,3.29335094
1.15300192,-0.69272482,-0.51057554

>  <Name>
2o3w_lig

>  <RI>
0

>  <Rbt.Current_Directory>
/home/itssahil/PROJECTS/Mol_Feturizer/New_Systems/rnas/2o3w

>  <Rbt.Executable>
rbdock ($Id: //depot/dev/client3/rdock/2013.1/src/exe/rbdock.cxx#4 $)

>  <Rbt.Library>
libRbt.so (2013.1, Build901 2013/11/27)

>  <Rbt.Parameter_File>
/export/apps/rDock/src/rDock_2013.1_src/data/scripts/dock_solv.prm

>  <Rbt.Receptor>
prm/pocket_docking_4.prm

>  <SCORE>
-17.6339

>  <SCORE.INTER>
-6.65578

>  <SCORE.INTER.CONST>
1

>  <SCORE.INTER.POLAR>
-1.6545

>  <SCORE.INTER.ROT>
9

>  <SCORE.INTER.SOLV>
13.7542

>  <SCORE.INTER.VDW>
-13.1069

>  <SCORE.INTER.norm>
-0.158471

>  <SCORE.INTRA>
-10.9781

>  <SCORE.INTRA.DIHEDRAL>
-24.2342

>  <SCORE.INTRA.DIHEDRAL.0>
27.8999

>  <SCORE.INTRA.POLAR>
0

>  <SCORE.INTRA.POLAR.0>
0

>  <SCORE.INTRA.REPUL>
0

>  <SCORE.INTRA.REPUL.0>
0

>  <SCORE.INTRA.SOLV>
-3.53126

>  <SCORE.INTRA.SOLV.lig_0>
-104.479

>  <SCORE.INTRA.VDW>
2.90463

>  <SCORE.INTRA.VDW.0>
-6.17816

>  <SCORE.INTRA.norm>
-0.261383

>  <SCORE.RESTR>
0

>  <SCORE.RESTR.CAVITY>
0

>  <SCORE.RESTR.norm>
0

>  <SCORE.SYSTEM>
0

>  <SCORE.SYSTEM.CONST>
0

>  <SCORE.SYSTEM.DIHEDRAL>
0

>  <SCORE.SYSTEM.SOLV>
0

>  <SCORE.SYSTEM.norm>
0

>  <SCORE.heavy>
42

>  <SCORE.norm>
-0.419854

>  <RMSD>
8.820

$$$$
2o3w_lig
 OpenBabel11021811463D
libRbt.so/2013.1/901 2013/11/27
 42 45  0  0  0  0  0  0  0  0999 V2000
    4.4793    5.7140    2.1702 C   0  0  2  0  0  0  0  0  0  0  0  0
    4.9571    4.8231    1.1478 O   0  0  0  0  0  0  0  0  0  0  0  0
    4.2699    0.8037    2.6203 C   0  0  2  0  0  0  0  0  0  0  0  0
    4.4675   -0.6164    3.0383 N   0  0  0  0  0  0  0  0  0  0  0  0
    7.4600    3.4931    3.8521 C   0  0  1  0  0  0  0  0  0  0  0  0
    9.7164    1.7213    4.6133 C   0  0  1  0  0  0  0  0  0  0  0  0
    3.2012    6.4067    1.6092 C   0  0  2  0  0  0  0  0  0  0  0  0
    2.2378    5.4432    1.0486 N   0  0  0  0  0  0  0  0  0  0  0  0
    4.5202    0.9856    1.0692 C   0  0  0  0  0  0  0  0  0  0  0  0
    8.1412    3.0289    2.5288 C   0  0  2  0  0  0  0  0  0  0  0  0
    7.8863    1.6437    2.1892 O   0  0  0  0  0  0  0  0  0  0  0  0
   10.5203    1.9778    5.9388 C   0  0  2  0  0  0  0  0  0  0  0  0
   11.9238    1.4819    5.8158 N   0  0  0  0  0  0  0  0  0  0  0  0
    3.5256    7.4135    0.4903 C   0  0  1  0  0  0  0  0  0  0  0  0
    2.3317    8.0520    0.0343 O   0  0  0  0  0  0  0  0  0  0  0  0
    4.2755    2.4943    0.6863 C   0  0  2  0  0  0  0  0  0  0  0  0
    4.4885    2.6992   -0.7718 N   0  0  0  0  0  0  0  0  0  0  0  0
    9.6026    3.3845    2.8065 C   0  0  2  0  0  0  0  0  0  0  0  0
   10.3169    2.2728    3.4348 O   0  0  0  0  0  0  0  0  0  0  0  0
    9.7646    1.2693    7.1610 C   0  0  1  0  0  0  0  0  0  0  0  0
    8.5776    2.0296    7.4802 O   0  0  0  0  0  0  0  0  0  0  0  0
    4.5550    8.4443    1.0068 C   0  0  2  0  0  0  0  0  0  0  0  0
    4.8501    9.3836   -0.0008 O   0  0  0  0  0  0  0  0  0  0  0  0
    5.2436    3.4399    1.5015 C   0  0  2  0  0  0  0  0  0  0  0  0
    9.5723    4.6176    3.7252 C   0  0  2  0  0  0  0  0  0  0  0  0
    8.3679    4.4363    4.4662 O   0  0  0  0  0  0  0  0  0  0  0  0
    9.3600   -0.2489    6.8461 C   0  0  2  0  0  0  0  0  0  0  0  0
   10.5642   -1.0122    6.7867 O   0  0  0  0  0  0  0  0  0  0  0  0
    5.8507    7.6905    1.4568 C   0  0  2  0  0  0  0  0  0  0  0  0
    5.5171    6.7156    2.4951 O   0  0  0  0  0  0  0  0  0  0  0  0
    5.0946    3.2753    3.0299 C   0  0  2  0  0  0  0  0  0  0  0  0
    6.1696    4.0671    3.6059 O   0  0  0  0  0  0  0  0  0  0  0  0
    9.5740    5.9906    2.9841 C   0  0  0  0  0  0  0  0  0  0  0  0
   10.6190    6.0015    2.0163 O   0  0  0  0  0  0  0  0  0  0  0  0
    8.5852   -0.3453    5.4778 C   0  0  1  0  0  0  0  0  0  0  0  0
    9.4789    0.2337    4.4598 O   0  0  0  0  0  0  0  0  0  0  0  0
    6.9139    8.6257    1.9846 C   0  0  0  0  0  0  0  0  0  0  0  0
    6.4412    9.3043    3.1227 O   0  0  0  0  0  0  0  0  0  0  0  0
    5.2416    1.7488    3.4346 C   0  0  1  0  0  0  0  0  0  0  0  0
    4.9539    1.5771    4.8251 O   0  0  0  0  0  0  0  0  0  0  0  0
    8.1735   -1.8260    5.0696 C   0  0  0  0  0  0  0  0  0  0  0  0
    7.5882   -1.9779    3.7091 N   0  0  0  0  0  0  0  0  0  0  0  0
  1  2  1  6  0  0  0
  1  7  1  0  0  0  0
  1 30  1  0  0  0  0
  3  4  1  1  0  0  0
  3  9  1  0  0  0  0
  3 39  1  0  0  0  0
  5 10  1  0  0  0  0
  5 26  1  0  0  0  0
  5 32  1  6  0  0  0
  6 12  1  0  0  0  0
  6 36  1  0  0  0  0
  6 19  1  6  0  0  0
  7  8  1  6  0  0  0
  7 14  1  0  0  0  0
  9 16  1  0  0  0  0
 10 11  1  1  0  0  0
 10 18  1  0  0  0  0
 12 13  1  6  0  0  0
 12 20  1  0  0  0  0
 14 15  1  1  0  0  0
 14 22  1  0  0  0  0
 16 17  1  6  0  0  0
 16 24  1  0  0  0  0
 18 19  1  1  0  0  0
 18 25  1  0  0  0  0
 20 21  1  6  0  0  0
 20 27  1  0  0  0  0
 22 23  1  6  0  0  0
 22 29  1  0  0  0  0
 24  2  1  1  0  0  0
 24 31  1  0  0  0  0
 25 26  1  0  0  0  0
 25 33  1  6  0  0  0
 27 28  1  6  0  0  0
 27 35  1  0  0  0  0
 29 30  1  0  0  0  0
 29 37  1  1  0  0  0
 31 32  1  1  0  0  0
 31 39  1  0  0  0  0
 33 34  1  0  0  0  0
 35 36  1  0  0  0  0
 35 41  1  6  0  0  0
 37 38  1  0  0  0  0
 39 40  1  1  0  0  0
 41 42  1  0  0  0  0
M  END
>  <CHROM.1>
-129.25510443,62.80648769,-111.89567011,-52.96300287,117.16977676,-49.70007844
61.71708572,-89.33469097,-172.86808247,6.90932135,3.52749962,3.12340634,2.19578703
-0.49054995,-0.24178973

>  <Name>
2o3w_lig

>  <RI>
0

>  <Rbt.Current_Directory>
/home/itssahil/PROJECTS/Mol_Feturizer/New_Systems/rnas/2o3w

>  <Rbt.Executable>
rbdock ($Id: //depot/dev/client3/rdock/2013.1/src/exe/rbdock.cxx#4 $)

>  <Rbt.Library>
libRbt.so (2013.1, Build901 2013/11/27)

>  <Rbt.Parameter_File>
/export/apps/rDock/src/rDock_2013.1_src/data/scripts/dock_solv.prm

>  <Rbt.Receptor>
prm/pocket_docking_2.prm

>  <SCORE>
5.49277

>  <SCORE.INTER>
0.408868

>  <SCORE.INTER.CONST>
1

>  <SCORE.INTER.POLAR>
0

>  <SCORE.INTER.ROT>
9

>  <SCORE.INTER.SOLV>
6.24395

>  <SCORE.INTER.VDW>
-11.4087

>  <SCORE.INTER.norm>
0.00973496

>  <SCORE.INTRA>
2.55548

>  <SCORE.INTRA.DIHEDRAL>
-2.79684

>  <SCORE.INTRA.DIHEDRAL.0>
27.8999

>  <SCORE.INTRA.POLAR>
0

>  <SCORE.INTRA.POLAR.0>
0

>  <SCORE.INTRA.REPUL>
0

>  <SCORE.INTRA.REPUL.0>
0

>  <SCORE.INTRA.SOLV>
-0.744432

>  <SCORE.INTRA.SOLV.lig_0>
-104.479

>  <SCORE.INTRA.VDW>
4.32611

>  <SCORE.INTRA.VDW.0>
-6.17816

>  <SCORE.INTRA.norm>
0.0608447

>  <SCORE.RESTR>
2.52843

>  <SCORE.RESTR.CAVITY>
2.52843

>  <SCORE.RESTR.norm>
0.0602007

>  <SCORE.SYSTEM>
0

>  <SCORE.SYSTEM.CONST>
0

>  <SCORE.SYSTEM.DIHEDRAL>
0

>  <SCORE.SYSTEM.SOLV>
0

>  <SCORE.SYSTEM.norm>
0

>  <SCORE.heavy>
42

>  <SCORE.norm>
0.13078

>  <RMSD>
8.827

$$$$
2o3w_lig
 OpenBabel11021811463D
libRbt.so/2013.1/901 2013/11/27
 42 45  0  0  0  0  0  0  0  0999 V2000
    6.3684    7.2174   -0.4230 C   0  0  2  0  0  0  0  0  0  0  0  0
    6.1646    8.0526    0.7295 O   0  0  0  0  0  0  0  0  0  0  0  0
    6.5897    7.3677    4.9893 C   0  0  2  0  0  0  0  0  0  0  0  0
    6.4810    6.7808    6.3583 N   0  0  0  0  0  0  0  0  0  0  0  0
    6.8017    4.6317    1.4694 C   0  0  1  0  0  0  0  0  0  0  0  0
    5.2968    0.5310    1.1337 C   0  0  1  0  0  0  0  0  0  0  0  0
    6.3354    8.1490   -1.6717 C   0  0  2  0  0  0  0  0  0  0  0  0
    7.2145    9.3219   -1.5234 N   0  0  0  0  0  0  0  0  0  0  0  0
    5.1808    7.8540    4.4599 C   0  0  0  0  0  0  0  0  0  0  0  0
    7.3144    3.6517    0.3706 C   0  0  2  0  0  0  0  0  0  0  0  0
    6.7333    3.8766   -0.9373 O   0  0  0  0  0  0  0  0  0  0  0  0
    6.0598   -0.6617    0.4525 C   0  0  2  0  0  0  0  0  0  0  0  0
    5.8982   -0.6201   -1.0318 N   0  0  0  0  0  0  0  0  0  0  0  0
    4.9221    8.6865   -1.9624 C   0  0  1  0  0  0  0  0  0  0  0  0
    4.9316    9.5017   -3.1356 O   0  0  0  0  0  0  0  0  0  0  0  0
    5.3633    8.4815    3.0262 C   0  0  2  0  0  0  0  0  0  0  0  0
    4.0569    8.9639    2.5024 N   0  0  0  0  0  0  0  0  0  0  0  0
    7.0014    2.2981    1.0104 C   0  0  2  0  0  0  0  0  0  0  0  0
    5.6635    1.8288    0.6491 O   0  0  0  0  0  0  0  0  0  0  0  0
    5.5196   -2.0460    1.0516 C   0  0  1  0  0  0  0  0  0  0  0  0
    6.0300   -2.2047    2.3944 O   0  0  0  0  0  0  0  0  0  0  0  0
    3.9394    7.5021   -2.1061 C   0  0  2  0  0  0  0  0  0  0  0  0
    2.6437    7.9768   -2.3893 O   0  0  0  0  0  0  0  0  0  0  0  0
    5.9758    7.4212    2.0280 C   0  0  2  0  0  0  0  0  0  0  0  0
    7.1274    2.5071    2.5289 C   0  0  2  0  0  0  0  0  0  0  0  0
    6.7476    3.8708    2.6979 O   0  0  0  0  0  0  0  0  0  0  0  0
    3.9197   -2.1325    1.0726 C   0  0  2  0  0  0  0  0  0  0  0  0
    3.4754   -2.2254   -0.2803 O   0  0  0  0  0  0  0  0  0  0  0  0
    3.9461    6.6695   -0.7808 C   0  0  2  0  0  0  0  0  0  0  0  0
    5.3023    6.1964   -0.5039 O   0  0  0  0  0  0  0  0  0  0  0  0
    7.3307    6.8580    2.5098 C   0  0  2  0  0  0  0  0  0  0  0  0
    7.6485    5.7828    1.5838 O   0  0  0  0  0  0  0  0  0  0  0  0
    8.5497    2.2440    3.1137 C   0  0  0  0  0  0  0  0  0  0  0  0
    9.4627    3.1965    2.5768 O   0  0  0  0  0  0  0  0  0  0  0  0
    3.3031   -0.8574    1.7626 C   0  0  1  0  0  0  0  0  0  0  0  0
    3.8056    0.3015    1.0044 O   0  0  0  0  0  0  0  0  0  0  0  0
    3.0132    5.4818   -0.8355 C   0  0  0  0  0  0  0  0  0  0  0  0
    3.0431    4.7851    0.3863 O   0  0  0  0  0  0  0  0  0  0  0  0
    7.1999    6.3045    3.9904 C   0  0  1  0  0  0  0  0  0  0  0  0
    8.4846    5.9231    4.4900 O   0  0  0  0  0  0  0  0  0  0  0  0
    1.7134   -0.8444    1.7968 C   0  0  0  0  0  0  0  0  0  0  0  0
    1.0934    0.3808    2.3721 N   0  0  0  0  0  0  0  0  0  0  0  0
  1  2  1  1  0  0  0
  1  7  1  0  0  0  0
  1 30  1  0  0  0  0
  3  4  1  1  0  0  0
  3  9  1  0  0  0  0
  3 39  1  0  0  0  0
  5 10  1  0  0  0  0
  5 26  1  0  0  0  0
  5 32  1  1  0  0  0
  6 12  1  0  0  0  0
  6 36  1  0  0  0  0
  6 19  1  6  0  0  0
  7  8  1  1  0  0  0
  7 14  1  0  0  0  0
  9 16  1  0  0  0  0
 10 11  1  6  0  0  0
 10 18  1  0  0  0  0
 12 13  1  6  0  0  0
 12 20  1  0  0  0  0
 14 15  1  6  0  0  0
 14 22  1  0  0  0  0
 16 17  1  6  0  0  0
 16 24  1  0  0  0  0
 18 19  1  1  0  0  0
 18 25  1  0  0  0  0
 20 21  1  1  0  0  0
 20 27  1  0  0  0  0
 22 23  1  1  0  0  0
 22 29  1  0  0  0  0
 24  2  1  6  0  0  0
 24 31  1  0  0  0  0
 25 26  1  0  0  0  0
 25 33  1  6  0  0  0
 27 28  1  6  0  0  0
 27 35  1  0  0  0  0
 29 30  1  0  0  0  0
 29 37  1  6  0  0  0
 31 32  1  6  0  0  0
 31 39  1  0  0  0  0
 33 34  1  0  0  0  0
 35 36  1  0  0  0  0
 35 41  1  6  0  0  0
 37 38  1  0  0  0  0
 39 40  1  1  0  0  0
 41 42  1  0  0  0  0
M  END
>  <CHROM.1>
172.14942421,177.46108068,-70.14470751,176.53585653,-163.61597725,64.52523458
-179.02312509,-62.19652054,-176.67625396,5.56290513,4.24994912,1.09753655
1.37131859,-0.96018065,-0.23769309

>  <Name>
2o3w_lig

>  <RI>
0

>  <Rbt.Current_Directory>
/home/itssahil/PROJECTS/Mol_Feturizer/New_Systems/rnas/2o3w

>  <Rbt.Executable>
rbdock ($Id: //depot/dev/client3/rdock/2013.1/src/exe/rbdock.cxx#4 $)

>  <Rbt.Library>
libRbt.so (2013.1, Build901 2013/11/27)

>  <Rbt.Parameter_File>
/export/apps/rDock/src/rDock_2013.1_src/data/scripts/dock_solv.prm

>  <Rbt.Receptor>
prm/pocket_docking_6.prm

>  <SCORE>
-13.4704

>  <SCORE.INTER>
-0.145804

>  <SCORE.INTER.CONST>
1

>  <SCORE.INTER.POLAR>
-1.81105

>  <SCORE.INTER.ROT>
9

>  <SCORE.INTER.SOLV>
16.9494

>  <SCORE.INTER.VDW>
-9.31017

>  <SCORE.INTER.norm>
-0.00347152

>  <SCORE.INTRA>
-13.3246

>  <SCORE.INTRA.DIHEDRAL>
-25.5014

>  <SCORE.INTRA.DIHEDRAL.0>
27.8999

>  <SCORE.INTRA.POLAR>
0

>  <SCORE.INTRA.POLAR.0>
0

>  <SCORE.INTRA.REPUL>
0

>  <SCORE.INTRA.REPUL.0>
0

>  <SCORE.INTRA.SOLV>
-3.95634

>  <SCORE.INTRA.SOLV.lig_0>
-104.479

>  <SCORE.INTRA.VDW>
1.40421

>  <SCORE.INTRA.VDW.0>
-6.17816

>  <SCORE.INTRA.norm>
-0.317253

>  <SCORE.RESTR>
0

>  <SCORE.RESTR.CAVITY>
0

>  <SCORE.RESTR.norm>
0

>  <SCORE.SYSTEM>
0

>  <SCORE.SYSTEM.CONST>
0

>  <SCORE.SYSTEM.DIHEDRAL>
0

>  <SCORE.SYSTEM.SOLV>
0

>  <SCORE.SYSTEM.norm>
0

>  <SCORE.heavy>
42

>  <SCORE.norm>
-0.320725

>  <RMSD>
8.851

$$$$
2o3w_lig
 OpenBabel11021811463D
libRbt.so/2013.1/901 2013/11/27
 42 45  0  0  0  0  0  0  0  0999 V2000
    4.9721    5.2596    1.6659 C   0  0  2  0  0  0  0  0  0  0  0  0
    5.5132    4.1487    0.9308 O   0  0  0  0  0  0  0  0  0  0  0  0
    3.9740    0.9767    3.4538 C   0  0  2  0  0  0  0  0  0  0  0  0
    3.7196   -0.3587    4.0721 N   0  0  0  0  0  0  0  0  0  0  0  0
    8.2057    2.0647    3.4855 C   0  0  1  0  0  0  0  0  0  0  0  0
    9.6769   -0.1479    4.9196 C   0  0  1  0  0  0  0  0  0  0  0  0
    4.7390    6.4118    0.6431 C   0  0  2  0  0  0  0  0  0  0  0  0
    3.9979    5.9658   -0.5495 N   0  0  0  0  0  0  0  0  0  0  0  0
    3.5031    1.0093    1.9442 C   0  0  0  0  0  0  0  0  0  0  0  0
    9.5863    1.9671    2.7676 C   0  0  2  0  0  0  0  0  0  0  0  0
    9.6977    0.8478    1.8544 O   0  0  0  0  0  0  0  0  0  0  0  0
   10.0399   -1.3236    5.8967 C   0  0  2  0  0  0  0  0  0  0  0  0
   10.9986   -2.2730    5.2559 N   0  0  0  0  0  0  0  0  0  0  0  0
    6.0598    7.0248    0.1425 C   0  0  1  0  0  0  0  0  0  0  0  0
    5.7982    8.1006   -0.7603 O   0  0  0  0  0  0  0  0  0  0  0  0
    3.7758    2.4451    1.3555 C   0  0  2  0  0  0  0  0  0  0  0  0
    3.3304    2.5162   -0.0624 N   0  0  0  0  0  0  0  0  0  0  0  0
   10.5413    1.9449    3.9620 C   0  0  2  0  0  0  0  0  0  0  0  0
   10.8043    0.5788    4.4152 O   0  0  0  0  0  0  0  0  0  0  0  0
    8.6967   -2.0750    6.3418 C   0  0  1  0  0  0  0  0  0  0  0  0
    7.9790   -1.2358    7.2743 O   0  0  0  0  0  0  0  0  0  0  0  0
    6.9013    7.4941    1.3511 C   0  0  2  0  0  0  0  0  0  0  0  0
    8.1069    8.0731    0.9087 O   0  0  0  0  0  0  0  0  0  0  0  0
    5.3121    2.8021    1.4471 C   0  0  2  0  0  0  0  0  0  0  0  0
    9.8628    2.7765    5.0636 C   0  0  2  0  0  0  0  0  0  0  0  0
    8.4747    2.5678    4.8143 O   0  0  0  0  0  0  0  0  0  0  0  0
    7.7458   -2.4351    5.1033 C   0  0  2  0  0  0  0  0  0  0  0  0
    8.3940   -3.4552    4.3447 O   0  0  0  0  0  0  0  0  0  0  0  0
    7.1853    6.2685    2.2822 C   0  0  2  0  0  0  0  0  0  0  0  0
    5.9199    5.6796    2.7200 O   0  0  0  0  0  0  0  0  0  0  0  0
    5.8574    2.7353    2.8905 C   0  0  2  0  0  0  0  0  0  0  0  0
    7.2960    2.9051    2.7635 O   0  0  0  0  0  0  0  0  0  0  0  0
   10.2130    4.2968    5.0504 C   0  0  0  0  0  0  0  0  0  0  0  0
   11.6073    4.4605    5.2912 O   0  0  0  0  0  0  0  0  0  0  0  0
    7.4960   -1.1641    4.2065 C   0  0  1  0  0  0  0  0  0  0  0  0
    8.8268   -0.6895    3.7895 O   0  0  0  0  0  0  0  0  0  0  0  0
    8.0013    6.6393    3.4989 C   0  0  0  0  0  0  0  0  0  0  0  0
    7.9621    5.5986    4.4447 O   0  0  0  0  0  0  0  0  0  0  0  0
    5.5124    1.3315    3.5432 C   0  0  1  0  0  0  0  0  0  0  0  0
    5.8823    1.3255    4.9248 O   0  0  0  0  0  0  0  0  0  0  0  0
    6.5865   -1.4398    2.9315 C   0  0  0  0  0  0  0  0  0  0  0  0
    7.0854   -2.4901    2.0017 N   0  0  0  0  0  0  0  0  0  0  0  0
  1  2  1  6  0  0  0
  1  7  1  0  0  0  0
  1 30  1  0  0  0  0
  3  4  1  6  0  0  0
  3  9  1  0  0  0  0
  3 39  1  0  0  0  0
  5 10  1  0  0  0  0
  5 26  1  0  0  0  0
  5 32  1  6  0  0  0
  6 12  1  0  0  0  0
  6 36  1  0  0  0  0
  6 19  1  6  0  0  0
  7  8  1  6  0  0  0
  7 14  1  0  0  0  0
  9 16  1  0  0  0  0
 10 11  1  1  0  0  0
 10 18  1  0  0  0  0
 12 13  1  6  0  0  0
 12 20  1  0  0  0  0
 14 15  1  6  0  0  0
 14 22  1  0  0  0  0
 16 17  1  6  0  0  0
 16 24  1  0  0  0  0
 18 19  1  1  0  0  0
 18 25  1  0  0  0  0
 20 21  1  1  0  0  0
 20 27  1  0  0  0  0
 22 23  1  6  0  0  0
 22 29  1  0  0  0  0
 24  2  1  1  0  0  0
 24 31  1  0  0  0  0
 25 26  1  0  0  0  0
 25 33  1  6  0  0  0
 27 28  1  6  0  0  0
 27 35  1  0  0  0  0
 29 30  1  0  0  0  0
 29 37  1  1  0  0  0
 31 32  1  6  0  0  0
 31 39  1  0  0  0  0
 33 34  1  0  0  0  0
 35 36  1  0  0  0  0
 35 41  1  6  0  0  0
 37 38  1  0  0  0  0
 39 40  1  1  0  0  0
 41 42  1  0  0  0  0
M  END
>  <CHROM.1>
-154.28810978,154.54786901,-156.64645227,-63.59179771,67.53347683,-63.03886976
166.22771987,-135.00467560,-57.53034868,7.31991295,2.33371571,3.16285474
1.94848313,-0.47976864,-0.29466662

>  <Name>
2o3w_lig

>  <RI>
0

>  <Rbt.Current_Directory>
/home/itssahil/PROJECTS/Mol_Feturizer/New_Systems/rnas/2o3w

>  <Rbt.Executable>
rbdock ($Id: //depot/dev/client3/rdock/2013.1/src/exe/rbdock.cxx#4 $)

>  <Rbt.Library>
libRbt.so (2013.1, Build901 2013/11/27)

>  <Rbt.Parameter_File>
/export/apps/rDock/src/rDock_2013.1_src/data/scripts/dock_solv.prm

>  <Rbt.Receptor>
prm/pocket_docking_2.prm

>  <SCORE>
5.74636

>  <SCORE.INTER>
4.1955

>  <SCORE.INTER.CONST>
1

>  <SCORE.INTER.POLAR>
0

>  <SCORE.INTER.ROT>
9

>  <SCORE.INTER.SOLV>
5.42746

>  <SCORE.INTER.VDW>
-8.61215

>  <SCORE.INTER.norm>
0.0998929

>  <SCORE.INTRA>
-2.47297

>  <SCORE.INTRA.DIHEDRAL>
-12.6838

>  <SCORE.INTRA.DIHEDRAL.0>
27.8999

>  <SCORE.INTRA.POLAR>
0

>  <SCORE.INTRA.POLAR.0>
0

>  <SCORE.INTRA.REPUL>
0

>  <SCORE.INTRA.REPUL.0>
0

>  <SCORE.INTRA.SOLV>
1.83576

>  <SCORE.INTRA.SOLV.lig_0>
-104.479

>  <SCORE.INTRA.VDW>
2.95106

>  <SCORE.INTRA.VDW.0>
-6.17816

>  <SCORE.INTRA.norm>
-0.0588802

>  <SCORE.RESTR>
4.02383

>  <SCORE.RESTR.CAVITY>
4.02383

>  <SCORE.RESTR.norm>
0.0958054

>  <SCORE.SYSTEM>
0

>  <SCORE.SYSTEM.CONST>
0

>  <SCORE.SYSTEM.DIHEDRAL>
0

>  <SCORE.SYSTEM.SOLV>
0

>  <SCORE.SYSTEM.norm>
0

>  <SCORE.heavy>
42

>  <SCORE.norm>
0.136818

>  <RMSD>
8.857

$$$$
2o3w_lig
 OpenBabel11021811463D
libRbt.so/2013.1/901 2013/11/27
 42 45  0  0  0  0  0  0  0  0999 V2000
    5.1560    5.0809   -0.9657 C   0  0  2  0  0  0  0  0  0  0  0  0
    5.1071    5.8684   -2.1677 O   0  0  0  0  0  0  0  0  0  0  0  0
    5.3385   10.1592   -2.7430 C   0  0  2  0  0  0  0  0  0  0  0  0
    5.0572   11.6247   -2.6814 N   0  0  0  0  0  0  0  0  0  0  0  0
    6.7326    7.8176    1.0611 C   0  0  1  0  0  0  0  0  0  0  0  0
    8.5364    7.0776    4.7365 C   0  0  1  0  0  0  0  0  0  0  0  0
    5.8306    3.7261   -1.3364 C   0  0  2  0  0  0  0  0  0  0  0  0
    7.0914    3.9080   -2.0765 N   0  0  0  0  0  0  0  0  0  0  0  0
    4.1719    9.3812   -3.4748 C   0  0  0  0  0  0  0  0  0  0  0  0
    6.9394    6.6493    2.0725 C   0  0  2  0  0  0  0  0  0  0  0  0
    6.1159    6.7457    3.2607 O   0  0  0  0  0  0  0  0  0  0  0  0
    8.8356    8.0794    5.9094 C   0  0  2  0  0  0  0  0  0  0  0  0
   10.2365    8.5914    5.8293 N   0  0  0  0  0  0  0  0  0  0  0  0
    4.9240    2.8424   -2.2128 C   0  0  1  0  0  0  0  0  0  0  0  0
    5.5652    1.5973   -2.4946 O   0  0  0  0  0  0  0  0  0  0  0  0
    4.5355    7.8490   -3.5282 C   0  0  2  0  0  0  0  0  0  0  0  0
    3.4640    7.0870   -4.2246 N   0  0  0  0  0  0  0  0  0  0  0  0
    8.4493    6.7219    2.3055 C   0  0  2  0  0  0  0  0  0  0  0  0
    8.7790    7.6035    3.4257 O   0  0  0  0  0  0  0  0  0  0  0  0
    8.5692    7.3485    7.3100 C   0  0  1  0  0  0  0  0  0  0  0  0
    7.1432    7.2134    7.5027 O   0  0  0  0  0  0  0  0  0  0  0  0
    3.5677    2.6307   -1.5022 C   0  0  2  0  0  0  0  0  0  0  0  0
    2.7320    1.8095   -2.2843 O   0  0  0  0  0  0  0  0  0  0  0  0
    4.7343    7.2726   -2.0708 C   0  0  2  0  0  0  0  0  0  0  0  0
    9.0572    7.2398    0.9911 C   0  0  2  0  0  0  0  0  0  0  0  0
    8.0259    8.0729    0.4668 O   0  0  0  0  0  0  0  0  0  0  0  0
    9.2613    5.9061    7.4004 C   0  0  2  0  0  0  0  0  0  0  0  0
   10.6727    6.1083    7.4588 O   0  0  0  0  0  0  0  0  0  0  0  0
    2.8987    4.0236   -1.2535 C   0  0  2  0  0  0  0  0  0  0  0  0
    3.7887    4.8601   -0.4485 O   0  0  0  0  0  0  0  0  0  0  0  0
    5.8232    8.0233   -1.2733 C   0  0  2  0  0  0  0  0  0  0  0  0
    5.7410    7.4927    0.0781 O   0  0  0  0  0  0  0  0  0  0  0  0
    9.4571    6.1309   -0.0310 C   0  0  0  0  0  0  0  0  0  0  0  0
   10.4885    5.3242    0.5297 O   0  0  0  0  0  0  0  0  0  0  0  0
    8.8874    5.0306    6.1451 C   0  0  1  0  0  0  0  0  0  0  0  0
    9.3182    5.8012    4.9657 O   0  0  0  0  0  0  0  0  0  0  0  0
    1.5642    3.9110   -0.5535 C   0  0  0  0  0  0  0  0  0  0  0  0
    1.7480    3.4874    0.7755 O   0  0  0  0  0  0  0  0  0  0  0  0
    5.5341    9.5828   -1.2835 C   0  0  1  0  0  0  0  0  0  0  0  0
    6.6193   10.2898   -0.6767 O   0  0  0  0  0  0  0  0  0  0  0  0
    9.5609    3.5901    6.1363 C   0  0  0  0  0  0  0  0  0  0  0  0
   11.0497    3.5773    6.1298 N   0  0  0  0  0  0  0  0  0  0  0  0
  1  2  1  6  0  0  0
  1  7  1  0  0  0  0
  1 30  1  0  0  0  0
  3  4  1  1  0  0  0
  3  9  1  0  0  0  0
  3 39  1  0  0  0  0
  5 10  1  0  0  0  0
  5 26  1  0  0  0  0
  5 32  1  6  0  0  0
  6 12  1  0  0  0  0
  6 36  1  0  0  0  0
  6 19  1  6  0  0  0
  7  8  1  6  0  0  0
  7 14  1  0  0  0  0
  9 16  1  0  0  0  0
 10 11  1  1  0  0  0
 10 18  1  0  0  0  0
 12 13  1  1  0  0  0
 12 20  1  0  0  0  0
 14 15  1  1  0  0  0
 14 22  1  0  0  0  0
 16 17  1  1  0  0  0
 16 24  1  0  0  0  0
 18 19  1  1  0  0  0
 18 25  1  0  0  0  0
 20 21  1  6  0  0  0
 20 27  1  0  0  0  0
 22 23  1  6  0  0  0
 22 29  1  0  0  0  0
 24  2  1  6  0  0  0
 24 31  1  0  0  0  0
 25 26  1  0  0  0  0
 25 33  1  6  0  0  0
 27 28  1  6  0  0  0
 27 35  1  0  0  0  0
 29 30  1  0  0  0  0
 29 37  1  1  0  0  0
 31 32  1  1  0  0  0
 31 39  1  0  0  0  0
 33 34  1  0  0  0  0
 35 36  1  0  0  0  0
 35 41  1  1  0  0  0
 37 38  1  0  0  0  0
 39 40  1  6  0  0  0
 41 42  1  0  0  0  0
M  END
>  <CHROM.1>
-169.61233376,-148.50657346,-177.10732888,75.61239505,-171.24930892,-63.62364936
69.29608418,170.94430479,-60.58534584,6.59890162,6.24031909,1.09519269,2.81213468
-0.97091991,-0.45948056

>  <Name>
2o3w_lig

>  <RI>
0

>  <Rbt.Current_Directory>
/home/itssahil/PROJECTS/Mol_Feturizer/New_Systems/rnas/2o3w

>  <Rbt.Executable>
rbdock ($Id: //depot/dev/client3/rdock/2013.1/src/exe/rbdock.cxx#4 $)

>  <Rbt.Library>
libRbt.so (2013.1, Build901 2013/11/27)

>  <Rbt.Parameter_File>
/export/apps/rDock/src/rDock_2013.1_src/data/scripts/dock_solv.prm

>  <Rbt.Receptor>
prm/pocket_docking_6.prm

>  <SCORE>
-20.2686

>  <SCORE.INTER>
-10.1801

>  <SCORE.INTER.CONST>
1

>  <SCORE.INTER.POLAR>
-2.44573

>  <SCORE.INTER.ROT>
9

>  <SCORE.INTER.SOLV>
13.0745

>  <SCORE.INTER.VDW>
-12.5925

>  <SCORE.INTER.norm>
-0.242384

>  <SCORE.INTRA>
-10.0885

>  <SCORE.INTRA.DIHEDRAL>
-21.0496

>  <SCORE.INTRA.DIHEDRAL.0>
27.8999

>  <SCORE.INTRA.POLAR>
0

>  <SCORE.INTRA.POLAR.0>
0

>  <SCORE.INTRA.REPUL>
0

>  <SCORE.INTRA.REPUL.0>
0

>  <SCORE.INTRA.SOLV>
-3.6612

>  <SCORE.INTRA.SOLV.lig_0>
-104.479

>  <SCORE.INTRA.VDW>
2.26691

>  <SCORE.INTRA.VDW.0>
-6.17816

>  <SCORE.INTRA.norm>
-0.240203

>  <SCORE.RESTR>
0

>  <SCORE.RESTR.CAVITY>
0

>  <SCORE.RESTR.norm>
0

>  <SCORE.SYSTEM>
0

>  <SCORE.SYSTEM.CONST>
0

>  <SCORE.SYSTEM.DIHEDRAL>
0

>  <SCORE.SYSTEM.SOLV>
0

>  <SCORE.SYSTEM.norm>
0

>  <SCORE.heavy>
42

>  <SCORE.norm>
-0.482587

>  <RMSD>
8.908

$$$$
2o3w_lig
 OpenBabel11021811463D
libRbt.so/2013.1/901 2013/11/27
 42 45  0  0  0  0  0  0  0  0999 V2000
    5.2001    5.9817   -0.0803 C   0  0  2  0  0  0  0  0  0  0  0  0
    6.2765    5.1966    0.4604 O   0  0  0  0  0  0  0  0  0  0  0  0
    3.8887    2.1140    2.3557 C   0  0  2  0  0  0  0  0  0  0  0  0
    3.4668    0.8652    3.0579 N   0  0  0  0  0  0  0  0  0  0  0  0
    7.6850    3.9675    3.6416 C   0  0  1  0  0  0  0  0  0  0  0  0
    9.6391    1.8887    4.7328 C   0  0  1  0  0  0  0  0  0  0  0  0
    5.8311    7.2871   -0.6510 C   0  0  2  0  0  0  0  0  0  0  0  0
    6.9806    7.0190   -1.5326 N   0  0  0  0  0  0  0  0  0  0  0  0
    4.5140    1.7925    0.9388 C   0  0  0  0  0  0  0  0  0  0  0  0
    8.5625    3.5815    2.4121 C   0  0  2  0  0  0  0  0  0  0  0  0
    8.1871    2.3277    1.7906 O   0  0  0  0  0  0  0  0  0  0  0  0
   10.4048    2.1016    6.0882 C   0  0  2  0  0  0  0  0  0  0  0  0
   11.7461    1.4455    6.0520 N   0  0  0  0  0  0  0  0  0  0  0  0
    6.3326    8.2279    0.4600 C   0  0  1  0  0  0  0  0  0  0  0  0
    6.8657    9.4263   -0.1061 O   0  0  0  0  0  0  0  0  0  0  0  0
    4.9175    3.1459    0.2401 C   0  0  2  0  0  0  0  0  0  0  0  0
    5.4972    2.8813   -1.1043 N   0  0  0  0  0  0  0  0  0  0  0  0
    9.9643    3.6244    3.0225 C   0  0  2  0  0  0  0  0  0  0  0  0
   10.3532    2.3242    3.5691 O   0  0  0  0  0  0  0  0  0  0  0  0
    9.5166    1.5295    7.2927 C   0  0  1  0  0  0  0  0  0  0  0  0
    8.4115    2.4309    7.5274 O   0  0  0  0  0  0  0  0  0  0  0  0
    5.1759    8.5322    1.4391 C   0  0  2  0  0  0  0  0  0  0  0  0
    5.6145    9.4060    2.4533 O   0  0  0  0  0  0  0  0  0  0  0  0
    5.9623    3.9378    1.1216 C   0  0  2  0  0  0  0  0  0  0  0  0
    9.9159    4.6991    4.1216 C   0  0  2  0  0  0  0  0  0  0  0  0
    8.5657    4.6342    4.5748 O   0  0  0  0  0  0  0  0  0  0  0  0
    8.9551    0.0563    7.0062 C   0  0  2  0  0  0  0  0  0  0  0  0
   10.0649   -0.8404    7.0318 O   0  0  0  0  0  0  0  0  0  0  0  0
    4.6593    7.1881    2.0524 C   0  0  2  0  0  0  0  0  0  0  0  0
    4.2191    6.2953    0.9805 O   0  0  0  0  0  0  0  0  0  0  0  0
    5.4402    4.2388    2.5436 C   0  0  2  0  0  0  0  0  0  0  0  0
    6.5780    4.7940    3.2587 O   0  0  0  0  0  0  0  0  0  0  0  0
   10.2807    6.1406    3.6492 C   0  0  0  0  0  0  0  0  0  0  0  0
   11.5804    6.1299    3.0665 O   0  0  0  0  0  0  0  0  0  0  0  0
    8.2387   -0.0026    5.6043 C   0  0  1  0  0  0  0  0  0  0  0  0
    9.2394    0.4329    4.6148 O   0  0  0  0  0  0  0  0  0  0  0  0
    3.5177    7.3919    3.0215 C   0  0  0  0  0  0  0  0  0  0  0  0
    2.4121    7.9537    2.3571 O   0  0  0  0  0  0  0  0  0  0  0  0
    4.9368    2.9042    3.2374 C   0  0  1  0  0  0  0  0  0  0  0  0
    4.3158    3.2035    4.4905 O   0  0  0  0  0  0  0  0  0  0  0  0
    7.6788   -1.4413    5.2231 C   0  0  0  0  0  0  0  0  0  0  0  0
    7.0231   -1.5428    3.8903 N   0  0  0  0  0  0  0  0  0  0  0  0
  1  2  1  1  0  0  0
  1  7  1  0  0  0  0
  1 30  1  0  0  0  0
  3  4  1  1  0  0  0
  3  9  1  0  0  0  0
  3 39  1  0  0  0  0
  5 10  1  0  0  0  0
  5 26  1  0  0  0  0
  5 32  1  6  0  0  0
  6 12  1  0  0  0  0
  6 36  1  0  0  0  0
  6 19  1  6  0  0  0
  7  8  1  6  0  0  0
  7 14  1  0  0  0  0
  9 16  1  0  0  0  0
 10 11  1  1  0  0  0
 10 18  1  0  0  0  0
 12 13  1  6  0  0  0
 12 20  1  0  0  0  0
 14 15  1  6  0  0  0
 14 22  1  0  0  0  0
 16 17  1  6  0  0  0
 16 24  1  0  0  0  0
 18 19  1  1  0  0  0
 18 25  1  0  0  0  0
 20 21  1  6  0  0  0
 20 27  1  0  0  0  0
 22 23  1  1  0  0  0
 22 29  1  0  0  0  0
 24  2  1  6  0  0  0
 24 31  1  0  0  0  0
 25 26  1  0  0  0  0
 25 33  1  6  0  0  0
 27 28  1  6  0  0  0
 27 35  1  0  0  0  0
 29 30  1  0  0  0  0
 29 37  1  1  0  0  0
 31 32  1  1  0  0  0
 31 39  1  0  0  0  0
 33 34  1  0  0  0  0
 35 36  1  0  0  0  0
 35 41  1  6  0  0  0
 37 38  1  0  0  0  0
 39 40  1  1  0  0  0
 41 42  1  0  0  0  0
M  END
>  <CHROM.1>
177.17320036,73.15438279,-100.42814214,-68.69061777,45.01815797,-57.03699130
62.42099635,-71.46148710,-178.62005440,7.12007470,3.91643342,3.01197644,2.10236394
-0.43688190,-0.40388344

>  <Name>
2o3w_lig

>  <RI>
0

>  <Rbt.Current_Directory>
/home/itssahil/PROJECTS/Mol_Feturizer/New_Systems/rnas/2o3w

>  <Rbt.Executable>
rbdock ($Id: //depot/dev/client3/rdock/2013.1/src/exe/rbdock.cxx#4 $)

>  <Rbt.Library>
libRbt.so (2013.1, Build901 2013/11/27)

>  <Rbt.Parameter_File>
/export/apps/rDock/src/rDock_2013.1_src/data/scripts/dock_solv.prm

>  <Rbt.Receptor>
prm/pocket_docking_3.prm

>  <SCORE>
-12.1311

>  <SCORE.INTER>
-3.76571

>  <SCORE.INTER.CONST>
1

>  <SCORE.INTER.POLAR>
-0.847037

>  <SCORE.INTER.ROT>
9

>  <SCORE.INTER.SOLV>
8.26071

>  <SCORE.INTER.VDW>
-12.0406

>  <SCORE.INTER.norm>
-0.0896598

>  <SCORE.INTRA>
-8.36967

>  <SCORE.INTRA.DIHEDRAL>
-19.4138

>  <SCORE.INTRA.DIHEDRAL.0>
27.8999

>  <SCORE.INTRA.POLAR>
0

>  <SCORE.INTRA.POLAR.0>
0

>  <SCORE.INTRA.REPUL>
0

>  <SCORE.INTRA.REPUL.0>
0

>  <SCORE.INTRA.SOLV>
-3.58546

>  <SCORE.INTRA.SOLV.lig_0>
-104.479

>  <SCORE.INTRA.VDW>
3.12995

>  <SCORE.INTRA.VDW.0>
-6.17816

>  <SCORE.INTRA.norm>
-0.199278

>  <SCORE.RESTR>
0.00428235

>  <SCORE.RESTR.CAVITY>
0.00428235

>  <SCORE.RESTR.norm>
0.000101961

>  <SCORE.SYSTEM>
0

>  <SCORE.SYSTEM.CONST>
0

>  <SCORE.SYSTEM.DIHEDRAL>
0

>  <SCORE.SYSTEM.SOLV>
0

>  <SCORE.SYSTEM.norm>
0

>  <SCORE.heavy>
42

>  <SCORE.norm>
-0.288836

>  <RMSD>
8.917

$$$$
2o3w_lig
 OpenBabel11021811463D
libRbt.so/2013.1/901 2013/11/27
 42 45  0  0  0  0  0  0  0  0999 V2000
    8.5168    6.5173    4.3663 C   0  0  2  0  0  0  0  0  0  0  0  0
    9.0735    5.2254    4.0687 O   0  0  0  0  0  0  0  0  0  0  0  0
    8.6900    5.4219   -0.2453 C   0  0  2  0  0  0  0  0  0  0  0  0
    8.7035    5.0706   -1.6968 N   0  0  0  0  0  0  0  0  0  0  0  0
    7.6289    2.3090    2.8106 C   0  0  1  0  0  0  0  0  0  0  0  0
    8.0479   -2.1069    2.8433 C   0  0  1  0  0  0  0  0  0  0  0  0
    8.7001    6.7503    5.8960 C   0  0  2  0  0  0  0  0  0  0  0  0
   10.0788    6.4892    6.3449 N   0  0  0  0  0  0  0  0  0  0  0  0
   10.1500    5.4045    0.3630 C   0  0  0  0  0  0  0  0  0  0  0  0
    6.8724    1.3629    3.7920 C   0  0  2  0  0  0  0  0  0  0  0  0
    7.4528    1.3034    5.1182 O   0  0  0  0  0  0  0  0  0  0  0  0
    9.3538   -2.9234    3.1543 C   0  0  2  0  0  0  0  0  0  0  0  0
   10.5605   -2.2230    2.6210 N   0  0  0  0  0  0  0  0  0  0  0  0
    7.7796    5.8485    6.7389 C   0  0  1  0  0  0  0  0  0  0  0  0
    7.9521    6.1234    8.1301 O   0  0  0  0  0  0  0  0  0  0  0  0
   10.0733    5.8035    1.8853 C   0  0  2  0  0  0  0  0  0  0  0  0
   11.4339    5.8115    2.4873 N   0  0  0  0  0  0  0  0  0  0  0  0
    6.8811    0.0509    3.0059 C   0  0  2  0  0  0  0  0  0  0  0  0
    8.0632   -0.7539    3.3155 O   0  0  0  0  0  0  0  0  0  0  0  0
    9.2192   -4.3933    2.5313 C   0  0  1  0  0  0  0  0  0  0  0  0
    8.2925   -5.1581    3.3346 O   0  0  0  0  0  0  0  0  0  0  0  0
    6.3121    6.0561    6.3002 C   0  0  2  0  0  0  0  0  0  0  0  0
    5.4546    5.2496    7.0740 O   0  0  0  0  0  0  0  0  0  0  0  0
    9.1485    4.7980    2.6787 C   0  0  2  0  0  0  0  0  0  0  0  0
    6.8498    0.4463    1.5199 C   0  0  2  0  0  0  0  0  0  0  0  0
    7.5398    1.6937    1.5049 O   0  0  0  0  0  0  0  0  0  0  0  0
    8.7236   -4.3801    1.0076 C   0  0  2  0  0  0  0  0  0  0  0  0
    9.7807   -3.8405    0.2153 O   0  0  0  0  0  0  0  0  0  0  0  0
    6.1789    5.7057    4.7807 C   0  0  2  0  0  0  0  0  0  0  0  0
    7.0848    6.5485    4.0003 O   0  0  0  0  0  0  0  0  0  0  0  0
    7.7173    4.7196    2.1037 C   0  0  2  0  0  0  0  0  0  0  0  0
    7.0754    3.6314    2.8235 O   0  0  0  0  0  0  0  0  0  0  0  0
    5.4222    0.5871    0.9063 C   0  0  0  0  0  0  0  0  0  0  0  0
    4.8166   -0.6994    0.8239 O   0  0  0  0  0  0  0  0  0  0  0  0
    7.4241   -3.5028    0.8534 C   0  0  1  0  0  0  0  0  0  0  0  0
    7.7733   -2.1625    1.3552 O   0  0  0  0  0  0  0  0  0  0  0  0
    4.7708    5.8876    4.2632 C   0  0  0  0  0  0  0  0  0  0  0  0
    4.6906    5.4752    2.9205 O   0  0  0  0  0  0  0  0  0  0  0  0
    7.7666    4.4129    0.5483 C   0  0  1  0  0  0  0  0  0  0  0  0
    6.4529    4.4903   -0.0118 O   0  0  0  0  0  0  0  0  0  0  0  0
    6.8807   -3.4070   -0.6380 C   0  0  0  0  0  0  0  0  0  0  0  0
    6.4102   -4.6878   -1.2336 N   0  0  0  0  0  0  0  0  0  0  0  0
  1  2  1  1  0  0  0
  1  7  1  0  0  0  0
  1 30  1  0  0  0  0
  3  4  1  6  0  0  0
  3  9  1  0  0  0  0
  3 39  1  0  0  0  0
  5 10  1  0  0  0  0
  5 26  1  0  0  0  0
  5 32  1  6  0  0  0
  6 12  1  0  0  0  0
  6 36  1  0  0  0  0
  6 19  1  6  0  0  0
  7  8  1  1  0  0  0
  7 14  1  0  0  0  0
  9 16  1  0  0  0  0
 10 11  1  1  0  0  0
 10 18  1  0  0  0  0
 12 13  1  6  0  0  0
 12 20  1  0  0  0  0
 14 15  1  1  0  0  0
 14 22  1  0  0  0  0
 16 17  1  1  0  0  0
 16 24  1  0  0  0  0
 18 19  1  6  0  0  0
 18 25  1  0  0  0  0
 20 21  1  1  0  0  0
 20 27  1  0  0  0  0
 22 23  1  1  0  0  0
 22 29  1  0  0  0  0
 24  2  1  1  0  0  0
 24 31  1  0  0  0  0
 25 26  1  0  0  0  0
 25 33  1  1  0  0  0
 27 28  1  6  0  0  0
 27 35  1  0  0  0  0
 29 30  1  0  0  0  0
 29 37  1  6  0  0  0
 31 32  1  1  0  0  0
 31 39  1  0  0  0  0
 33 34  1  0  0  0  0
 35 36  1  0  0  0  0
 35 41  1  6  0  0  0
 37 38  1  0  0  0  0
 39 40  1  6  0  0  0
 41 42  1  0  0  0  0
M  END
>  <CHROM.1>
-174.43905068,172.80940718,178.07542764,168.18650547,61.44335864,-68.98501062
-176.10426007,-57.60116551,64.48565316,7.77271923,2.10517971,2.74358307,1.81669639
1.48554421,0.08567260

>  <Name>
2o3w_lig

>  <RI>
0

>  <Rbt.Current_Directory>
/home/itssahil/PROJECTS/Mol_Feturizer/New_Systems/rnas/2o3w

>  <Rbt.Executable>
rbdock ($Id: //depot/dev/client3/rdock/2013.1/src/exe/rbdock.cxx#4 $)

>  <Rbt.Library>
libRbt.so (2013.1, Build901 2013/11/27)

>  <Rbt.Parameter_File>
/export/apps/rDock/src/rDock_2013.1_src/data/scripts/dock_solv.prm

>  <Rbt.Receptor>
prm/pocket_docking_6.prm

>  <SCORE>
-15.2988

>  <SCORE.INTER>
-2.27309

>  <SCORE.INTER.CONST>
1

>  <SCORE.INTER.POLAR>
-0.608376

>  <SCORE.INTER.ROT>
9

>  <SCORE.INTER.SOLV>
9.65919

>  <SCORE.INTER.VDW>
-12.3072

>  <SCORE.INTER.norm>
-0.0541212

>  <SCORE.INTRA>
-13.0257

>  <SCORE.INTRA.DIHEDRAL>
-26.2004

>  <SCORE.INTRA.DIHEDRAL.0>
27.8999

>  <SCORE.INTRA.POLAR>
0

>  <SCORE.INTRA.POLAR.0>
0

>  <SCORE.INTRA.REPUL>
0

>  <SCORE.INTRA.REPUL.0>
0

>  <SCORE.INTRA.SOLV>
-4.00466

>  <SCORE.INTRA.SOLV.lig_0>
-104.479

>  <SCORE.INTRA.VDW>
2.07677

>  <SCORE.INTRA.VDW.0>
-6.17816

>  <SCORE.INTRA.norm>
-0.310137

>  <SCORE.RESTR>
0

>  <SCORE.RESTR.CAVITY>
0

>  <SCORE.RESTR.norm>
0

>  <SCORE.SYSTEM>
0

>  <SCORE.SYSTEM.CONST>
0

>  <SCORE.SYSTEM.DIHEDRAL>
0

>  <SCORE.SYSTEM.SOLV>
0

>  <SCORE.SYSTEM.norm>
0

>  <SCORE.heavy>
42

>  <SCORE.norm>
-0.364258

>  <RMSD>
8.924

$$$$
2o3w_lig
 OpenBabel11021811463D
libRbt.so/2013.1/901 2013/11/27
 42 45  0  0  0  0  0  0  0  0999 V2000
    8.6170    6.0708    6.4793 C   0  0  2  0  0  0  0  0  0  0  0  0
    8.3929    4.7113    6.8902 O   0  0  0  0  0  0  0  0  0  0  0  0
   12.2854    3.9689    8.6491 C   0  0  2  0  0  0  0  0  0  0  0  0
   13.4238    3.3376    9.3811 N   0  0  0  0  0  0  0  0  0  0  0  0
   10.6867    2.1085    4.6742 C   0  0  1  0  0  0  0  0  0  0  0  0
   12.1958   -1.1397    2.2276 C   0  0  1  0  0  0  0  0  0  0  0  0
    7.3302    6.5394    5.7358 C   0  0  2  0  0  0  0  0  0  0  0  0
    6.1030    6.2586    6.5012 N   0  0  0  0  0  0  0  0  0  0  0  0
   11.0878    4.3015    9.6275 C   0  0  0  0  0  0  0  0  0  0  0  0
   10.5387    0.5622    4.5406 C   0  0  2  0  0  0  0  0  0  0  0  0
   11.5920   -0.1891    5.1925 O   0  0  0  0  0  0  0  0  0  0  0  0
   11.2011   -2.0160    1.3842 C   0  0  2  0  0  0  0  0  0  0  0  0
    9.8341   -1.9997    1.9858 N   0  0  0  0  0  0  0  0  0  0  0  0
    7.1657    5.8567    4.3655 C   0  0  1  0  0  0  0  0  0  0  0  0
    5.9973    6.3444    3.7039 O   0  0  0  0  0  0  0  0  0  0  0  0
    9.9305    4.9834    8.8040 C   0  0  2  0  0  0  0  0  0  0  0  0
    8.7908    5.3238    9.6977 N   0  0  0  0  0  0  0  0  0  0  0  0
   10.4535    0.4021    3.0219 C   0  0  2  0  0  0  0  0  0  0  0  0
   11.7766    0.2162    2.4254 O   0  0  0  0  0  0  0  0  0  0  0  0
   11.7680   -3.5111    1.2838 C   0  0  1  0  0  0  0  0  0  0  0  0
   12.8902   -3.5251    0.3732 O   0  0  0  0  0  0  0  0  0  0  0  0
    8.4353    6.0928    3.5161 C   0  0  2  0  0  0  0  0  0  0  0  0
    8.2938    5.4880    2.2517 O   0  0  0  0  0  0  0  0  0  0  0  0
    9.4314    4.0283    7.6488 C   0  0  2  0  0  0  0  0  0  0  0  0
    9.7805    1.6816    2.4972 C   0  0  2  0  0  0  0  0  0  0  0  0
   10.1965    2.6710    3.4355 O   0  0  0  0  0  0  0  0  0  0  0  0
   12.2219   -4.1007    2.7029 C   0  0  2  0  0  0  0  0  0  0  0  0
   11.0436   -4.3042    3.4818 O   0  0  0  0  0  0  0  0  0  0  0  0
    9.6730    5.5069    4.2740 C   0  0  2  0  0  0  0  0  0  0  0  0
    9.7927    6.1429    5.5859 O   0  0  0  0  0  0  0  0  0  0  0  0
   10.5633    3.6144    6.6830 C   0  0  2  0  0  0  0  0  0  0  0  0
    9.9747    2.6083    5.8136 O   0  0  0  0  0  0  0  0  0  0  0  0
    8.2244    1.6158    2.4037 C   0  0  0  0  0  0  0  0  0  0  0  0
    7.6768    1.5453    3.7167 O   0  0  0  0  0  0  0  0  0  0  0  0
   13.1937   -3.1001    3.4355 C   0  0  1  0  0  0  0  0  0  0  0  0
   12.4603   -1.8277    3.5504 O   0  0  0  0  0  0  0  0  0  0  0  0
   10.9651    5.7006    3.5146 C   0  0  0  0  0  0  0  0  0  0  0  0
   12.0405    5.1570    4.2407 O   0  0  0  0  0  0  0  0  0  0  0  0
   11.7846    3.0107    7.4952 C   0  0  1  0  0  0  0  0  0  0  0  0
   12.8886    2.7687    6.6187 O   0  0  0  0  0  0  0  0  0  0  0  0
   13.6685   -3.5925    4.8710 C   0  0  0  0  0  0  0  0  0  0  0  0
   14.5084   -4.8217    4.8830 N   0  0  0  0  0  0  0  0  0  0  0  0
  1  2  1  6  0  0  0
  1  7  1  0  0  0  0
  1 30  1  0  0  0  0
  3  4  1  1  0  0  0
  3  9  1  0  0  0  0
  3 39  1  0  0  0  0
  5 10  1  0  0  0  0
  5 26  1  0  0  0  0
  5 32  1  1  0  0  0
  6 12  1  0  0  0  0
  6 36  1  0  0  0  0
  6 19  1  1  0  0  0
  7  8  1  1  0  0  0
  7 14  1  0  0  0  0
  9 16  1  0  0  0  0
 10 11  1  6  0  0  0
 10 18  1  0  0  0  0
 12 13  1  1  0  0  0
 12 20  1  0  0  0  0
 14 15  1  6  0  0  0
 14 22  1  0  0  0  0
 16 17  1  1  0  0  0
 16 24  1  0  0  0  0
 18 19  1  6  0  0  0
 18 25  1  0  0  0  0
 20 21  1  6  0  0  0
 20 27  1  0  0  0  0
 22 23  1  6  0  0  0
 22 29  1  0  0  0  0
 24  2  1  6  0  0  0
 24 31  1  0  0  0  0
 25 26  1  0  0  0  0
 25 33  1  1  0  0  0
 27 28  1  1  0  0  0
 27 35  1  0  0  0  0
 29 30  1  0  0  0  0
 29 37  1  6  0  0  0
 31 32  1  6  0  0  0
 31 39  1  0  0  0  0
 33 34  1  0  0  0  0
 35 36  1  0  0  0  0
 35 41  1  1  0  0  0
 37 38  1  0  0  0  0
 39 40  1  6  0  0  0
 41 42  1  0  0  0  0
M  END
>  <CHROM.1>
-178.27874276,137.40081930,55.12441821,93.96149845,46.87521127,67.55769848
179.97799057,172.14869620,64.99178708,10.44742584,2.00662161,4.72217999,2.13783602
-0.86046811,0.83350047

>  <Name>
2o3w_lig

>  <RI>
0

>  <Rbt.Current_Directory>
/home/itssahil/PROJECTS/Mol_Feturizer/New_Systems/rnas/2o3w

>  <Rbt.Executable>
rbdock ($Id: //depot/dev/client3/rdock/2013.1/src/exe/rbdock.cxx#4 $)

>  <Rbt.Library>
libRbt.so (2013.1, Build901 2013/11/27)

>  <Rbt.Parameter_File>
/export/apps/rDock/src/rDock_2013.1_src/data/scripts/dock_solv.prm

>  <Rbt.Receptor>
prm/pocket_docking_7.prm

>  <SCORE>
-15.3114

>  <SCORE.INTER>
-7.98645

>  <SCORE.INTER.CONST>
1

>  <SCORE.INTER.POLAR>
-1.7627

>  <SCORE.INTER.ROT>
9

>  <SCORE.INTER.SOLV>
13.0755

>  <SCORE.INTER.VDW>
-13.4071

>  <SCORE.INTER.norm>
-0.190154

>  <SCORE.INTRA>
-7.32492

>  <SCORE.INTRA.DIHEDRAL>
-16.0974

>  <SCORE.INTRA.DIHEDRAL.0>
27.8999

>  <SCORE.INTRA.POLAR>
0

>  <SCORE.INTRA.POLAR.0>
0

>  <SCORE.INTRA.REPUL>
0

>  <SCORE.INTRA.REPUL.0>
0

>  <SCORE.INTRA.SOLV>
-0.116487

>  <SCORE.INTRA.SOLV.lig_0>
-104.479

>  <SCORE.INTRA.VDW>
0.782014

>  <SCORE.INTRA.VDW.0>
-6.17816

>  <SCORE.INTRA.norm>
-0.174403

>  <SCORE.RESTR>
0

>  <SCORE.RESTR.CAVITY>
0

>  <SCORE.RESTR.norm>
0

>  <SCORE.SYSTEM>
0

>  <SCORE.SYSTEM.CONST>
0

>  <SCORE.SYSTEM.DIHEDRAL>
0

>  <SCORE.SYSTEM.SOLV>
0

>  <SCORE.SYSTEM.norm>
0

>  <SCORE.heavy>
42

>  <SCORE.norm>
-0.364556

>  <RMSD>
8.939

$$$$
2o3w_lig
 OpenBabel11021811463D
libRbt.so/2013.1/901 2013/11/27
 42 45  0  0  0  0  0  0  0  0999 V2000
    8.1867    7.2591    1.8306 C   0  0  2  0  0  0  0  0  0  0  0  0
    9.2243    6.2683    1.9251 O   0  0  0  0  0  0  0  0  0  0  0  0
   12.2673    5.4116    4.8920 C   0  0  2  0  0  0  0  0  0  0  0  0
   12.9578    5.0932    6.1774 N   0  0  0  0  0  0  0  0  0  0  0  0
    9.2789    2.3966    3.7329 C   0  0  1  0  0  0  0  0  0  0  0  0
    7.9749   -1.1062    6.1403 C   0  0  1  0  0  0  0  0  0  0  0  0
    6.8381    6.5348    2.1219 C   0  0  2  0  0  0  0  0  0  0  0  0
    6.8877    5.7237    3.3508 N   0  0  0  0  0  0  0  0  0  0  0  0
   11.5516    6.8206    4.9585 C   0  0  0  0  0  0  0  0  0  0  0  0
    8.5383    2.4855    5.1020 C   0  0  2  0  0  0  0  0  0  0  0  0
    9.4087    2.7666    6.2257 O   0  0  0  0  0  0  0  0  0  0  0  0
    8.8127   -2.0691    7.0567 C   0  0  2  0  0  0  0  0  0  0  0  0
   10.1271   -2.3956    6.4266 N   0  0  0  0  0  0  0  0  0  0  0  0
    6.4250    5.5878    0.9802 C   0  0  1  0  0  0  0  0  0  0  0  0
    5.1667    4.9771    1.2713 O   0  0  0  0  0  0  0  0  0  0  0  0
   10.8628    7.1090    3.5712 C   0  0  2  0  0  0  0  0  0  0  0  0
   10.1905    8.4361    3.5933 N   0  0  0  0  0  0  0  0  0  0  0  0
    7.8222    1.1346    5.1407 C   0  0  2  0  0  0  0  0  0  0  0  0
    8.6461    0.1071    5.7781 O   0  0  0  0  0  0  0  0  0  0  0  0
    7.9650   -3.3985    7.3414 C   0  0  1  0  0  0  0  0  0  0  0  0
    6.9047   -3.0860    8.2725 O   0  0  0  0  0  0  0  0  0  0  0  0
    6.3767    6.3738   -0.3498 C   0  0  2  0  0  0  0  0  0  0  0  0
    5.9837    5.5243   -1.4026 O   0  0  0  0  0  0  0  0  0  0  0  0
    9.8063    5.9852    3.2295 C   0  0  2  0  0  0  0  0  0  0  0  0
    7.5158    0.7745    3.6772 C   0  0  2  0  0  0  0  0  0  0  0  0
    8.5909    1.3826    2.9651 O   0  0  0  0  0  0  0  0  0  0  0  0
    7.3393   -4.0342    6.0102 C   0  0  2  0  0  0  0  0  0  0  0  0
    8.4172   -4.5555    5.2338 O   0  0  0  0  0  0  0  0  0  0  0  0
    7.7887    6.9872   -0.6318 C   0  0  2  0  0  0  0  0  0  0  0  0
    8.1781    7.8565    0.4783 O   0  0  0  0  0  0  0  0  0  0  0  0
   10.4247    4.5702    3.2027 C   0  0  2  0  0  0  0  0  0  0  0  0
    9.2969    3.6631    3.0617 O   0  0  0  0  0  0  0  0  0  0  0  0
    6.1369    1.2794    3.1500 C   0  0  0  0  0  0  0  0  0  0  0  0
    5.9284    0.7858    1.8303 O   0  0  0  0  0  0  0  0  0  0  0  0
    6.5538   -2.9429    5.1892 C   0  0  1  0  0  0  0  0  0  0  0  0
    7.5196   -1.8656    4.9119 O   0  0  0  0  0  0  0  0  0  0  0  0
    7.8313    7.7822   -1.9163 C   0  0  0  0  0  0  0  0  0  0  0  0
    9.0656    8.4469   -2.0345 O   0  0  0  0  0  0  0  0  0  0  0  0
   11.2079    4.2877    4.5527 C   0  0  1  0  0  0  0  0  0  0  0  0
   11.9052    3.0419    4.4671 O   0  0  0  0  0  0  0  0  0  0  0  0
    5.9262   -3.4815    3.8310 C   0  0  0  0  0  0  0  0  0  0  0  0
    6.8900   -4.0979    2.8782 N   0  0  0  0  0  0  0  0  0  0  0  0
  1  2  1  6  0  0  0
  1  7  1  0  0  0  0
  1 30  1  0  0  0  0
  3  4  1  1  0  0  0
  3  9  1  0  0  0  0
  3 39  1  0  0  0  0
  5 10  1  0  0  0  0
  5 26  1  0  0  0  0
  5 32  1  6  0  0  0
  6 12  1  0  0  0  0
  6 36  1  0  0  0  0
  6 19  1  6  0  0  0
  7  8  1  1  0  0  0
  7 14  1  0  0  0  0
  9 16  1  0  0  0  0
 10 11  1  1  0  0  0
 10 18  1  0  0  0  0
 12 13  1  6  0  0  0
 12 20  1  0  0  0  0
 14 15  1  1  0  0  0
 14 22  1  0  0  0  0
 16 17  1  1  0  0  0
 16 24  1  0  0  0  0
 18 19  1  6  0  0  0
 18 25  1  0  0  0  0
 20 21  1  1  0  0  0
 20 27  1  0  0  0  0
 22 23  1  6  0  0  0
 22 29  1  0  0  0  0
 24  2  1  6  0  0  0
 24 31  1  0  0  0  0
 25 26  1  0  0  0  0
 25 33  1  6  0  0  0
 27 28  1  6  0  0  0
 27 35  1  0  0  0  0
 29 30  1  0  0  0  0
 29 37  1  6  0  0  0
 31 32  1  1  0  0  0
 31 39  1  0  0  0  0
 33 34  1  0  0  0  0
 35 36  1  0  0  0  0
 35 41  1  6  0  0  0
 37 38  1  0  0  0  0
 39 40  1  6  0  0  0
 41 42  1  0  0  0  0
M  END
>  <CHROM.1>
-86.41459841,94.21543299,-169.00905522,166.42153879,-79.67561852,-175.08842433
172.58106142,-143.06450000,-56.75691857,8.42978974,2.69822508,3.49806788
1.46683006,-0.73642898,-0.52254327

>  <Name>
2o3w_lig

>  <RI>
0

>  <Rbt.Current_Directory>
/home/itssahil/PROJECTS/Mol_Feturizer/New_Systems/rnas/2o3w

>  <Rbt.Executable>
rbdock ($Id: //depot/dev/client3/rdock/2013.1/src/exe/rbdock.cxx#4 $)

>  <Rbt.Library>
libRbt.so (2013.1, Build901 2013/11/27)

>  <Rbt.Parameter_File>
/export/apps/rDock/src/rDock_2013.1_src/data/scripts/dock_solv.prm

>  <Rbt.Receptor>
prm/pocket_docking_5.prm

>  <SCORE>
-13.4172

>  <SCORE.INTER>
-9.8579

>  <SCORE.INTER.CONST>
1

>  <SCORE.INTER.POLAR>
-2.12907

>  <SCORE.INTER.ROT>
9

>  <SCORE.INTER.SOLV>
12.5146

>  <SCORE.INTER.VDW>
-13.2466

>  <SCORE.INTER.norm>
-0.234712

>  <SCORE.INTRA>
-3.55931

>  <SCORE.INTRA.DIHEDRAL>
-12.0809

>  <SCORE.INTRA.DIHEDRAL.0>
27.8999

>  <SCORE.INTRA.POLAR>
0

>  <SCORE.INTRA.POLAR.0>
0

>  <SCORE.INTRA.REPUL>
0

>  <SCORE.INTRA.REPUL.0>
0

>  <SCORE.INTRA.SOLV>
-0.254211

>  <SCORE.INTRA.SOLV.lig_0>
-104.479

>  <SCORE.INTRA.VDW>
2.60823

>  <SCORE.INTRA.VDW.0>
-6.17816

>  <SCORE.INTRA.norm>
-0.0847455

>  <SCORE.RESTR>
0

>  <SCORE.RESTR.CAVITY>
0

>  <SCORE.RESTR.norm>
0

>  <SCORE.SYSTEM>
0

>  <SCORE.SYSTEM.CONST>
0

>  <SCORE.SYSTEM.DIHEDRAL>
0

>  <SCORE.SYSTEM.SOLV>
0

>  <SCORE.SYSTEM.norm>
0

>  <SCORE.heavy>
42

>  <SCORE.norm>
-0.319458

>  <RMSD>
8.943

$$$$
2o3w_lig
 OpenBabel11021811463D
libRbt.so/2013.1/901 2013/11/27
 42 45  0  0  0  0  0  0  0  0999 V2000
    3.7227    4.9816   -2.4220 C   0  0  2  0  0  0  0  0  0  0  0  0
    3.9504    6.3760   -2.1555 O   0  0  0  0  0  0  0  0  0  0  0  0
    5.4240    7.5006   -6.0746 C   0  0  2  0  0  0  0  0  0  0  0  0
    5.9043    8.2941   -7.2451 N   0  0  0  0  0  0  0  0  0  0  0  0
    6.3815    6.8300   -1.0709 C   0  0  1  0  0  0  0  0  0  0  0  0
    6.5199    5.9249    3.2666 C   0  0  1  0  0  0  0  0  0  0  0  0
    3.4383    4.2968   -1.0515 C   0  0  2  0  0  0  0  0  0  0  0  0
    2.4159    5.0101   -0.2663 N   0  0  0  0  0  0  0  0  0  0  0  0
    3.9180    7.8401   -5.7301 C   0  0  0  0  0  0  0  0  0  0  0  0
    7.6786    6.8818   -0.2074 C   0  0  2  0  0  0  0  0  0  0  0  0
    8.5302    5.7188   -0.3529 O   0  0  0  0  0  0  0  0  0  0  0  0
    7.6374    6.5985    4.1420 C   0  0  2  0  0  0  0  0  0  0  0  0
    8.9475    5.9044    3.9611 N   0  0  0  0  0  0  0  0  0  0  0  0
    4.6971    4.2108   -0.1689 C   0  0  1  0  0  0  0  0  0  0  0  0
    4.3995    3.5421    1.0580 O   0  0  0  0  0  0  0  0  0  0  0  0
    3.4634    6.9587   -4.5058 C   0  0  2  0  0  0  0  0  0  0  0  0
    2.0437    7.2423   -4.1629 N   0  0  0  0  0  0  0  0  0  0  0  0
    7.0969    7.1062    1.1892 C   0  0  2  0  0  0  0  0  0  0  0  0
    6.8267    5.8392    1.8694 O   0  0  0  0  0  0  0  0  0  0  0  0
    7.1856    6.5837    5.6790 C   0  0  1  0  0  0  0  0  0  0  0  0
    6.1434    7.5669    5.8692 O   0  0  0  0  0  0  0  0  0  0  0  0
    5.8231    3.4909   -0.9454 C   0  0  2  0  0  0  0  0  0  0  0  0
    6.9776    3.3891   -0.1447 O   0  0  0  0  0  0  0  0  0  0  0  0
    4.3784    7.2376   -3.2485 C   0  0  2  0  0  0  0  0  0  0  0  0
    5.8053    7.9161    0.9860 C   0  0  2  0  0  0  0  0  0  0  0  0
    5.3502    7.4792   -0.2924 O   0  0  0  0  0  0  0  0  0  0  0  0
    6.6619    5.1477    6.1596 C   0  0  2  0  0  0  0  0  0  0  0  0
    7.7854    4.2686    6.1940 O   0  0  0  0  0  0  0  0  0  0  0  0
    6.1285    4.2875   -2.2575 C   0  0  2  0  0  0  0  0  0  0  0  0
    4.9136    4.3877   -3.0662 O   0  0  0  0  0  0  0  0  0  0  0  0
    5.8754    6.9808   -3.5285 C   0  0  2  0  0  0  0  0  0  0  0  0
    6.5727    7.4584   -2.3451 O   0  0  0  0  0  0  0  0  0  0  0  0
    5.9881    9.4652    1.0174 C   0  0  0  0  0  0  0  0  0  0  0  0
    6.8992    9.8523   -0.0068 O   0  0  0  0  0  0  0  0  0  0  0  0
    5.5674    4.5954    5.1700 C   0  0  1  0  0  0  0  0  0  0  0  0
    6.1991    4.5604    3.8396 O   0  0  0  0  0  0  0  0  0  0  0  0
    7.2185    3.6477   -3.0859 C   0  0  0  0  0  0  0  0  0  0  0  0
    8.4635    3.7981   -2.4484 O   0  0  0  0  0  0  0  0  0  0  0  0
    6.3386    7.7830   -4.8160 C   0  0  1  0  0  0  0  0  0  0  0  0
    7.6800    7.4279   -5.1625 O   0  0  0  0  0  0  0  0  0  0  0  0
    5.0149    3.1547    5.5541 C   0  0  0  0  0  0  0  0  0  0  0  0
    5.9988    2.0418    5.4540 N   0  0  0  0  0  0  0  0  0  0  0  0
  1  2  1  1  0  0  0
  1  7  1  0  0  0  0
  1 30  1  0  0  0  0
  3  4  1  6  0  0  0
  3  9  1  0  0  0  0
  3 39  1  0  0  0  0
  5 10  1  0  0  0  0
  5 26  1  0  0  0  0
  5 32  1  6  0  0  0
  6 12  1  0  0  0  0
  6 36  1  0  0  0  0
  6 19  1  6  0  0  0
  7  8  1  1  0  0  0
  7 14  1  0  0  0  0
  9 16  1  0  0  0  0
 10 11  1  1  0  0  0
 10 18  1  0  0  0  0
 12 13  1  1  0  0  0
 12 20  1  0  0  0  0
 14 15  1  1  0  0  0
 14 22  1  0  0  0  0
 16 17  1  1  0  0  0
 16 24  1  0  0  0  0
 18 19  1  6  0  0  0
 18 25  1  0  0  0  0
 20 21  1  6  0  0  0
 20 27  1  0  0  0  0
 22 23  1  1  0  0  0
 22 29  1  0  0  0  0
 24  2  1  1  0  0  0
 24 31  1  0  0  0  0
 25 26  1  0  0  0  0
 25 33  1  6  0  0  0
 27 28  1  6  0  0  0
 27 35  1  0  0  0  0
 29 30  1  0  0  0  0
 29 37  1  6  0  0  0
 31 32  1  1  0  0  0
 31 39  1  0  0  0  0
 33 34  1  0  0  0  0
 35 36  1  0  0  0  0
 35 41  1  1  0  0  0
 37 38  1  0  0  0  0
 39 40  1  6  0  0  0
 41 42  1  0  0  0  0
M  END
>  <CHROM.1>
173.72896036,147.38609780,-58.42462969,168.66230547,47.00658072,59.18520942
-70.76837635,64.73497086,-66.34981246,5.93458051,5.93326151,-0.10989659,1.90615671
-1.10159958,-1.07259401

>  <Name>
2o3w_lig

>  <RI>
0

>  <Rbt.Current_Directory>
/home/itssahil/PROJECTS/Mol_Feturizer/New_Systems/rnas/2o3w

>  <Rbt.Executable>
rbdock ($Id: //depot/dev/client3/rdock/2013.1/src/exe/rbdock.cxx#4 $)

>  <Rbt.Library>
libRbt.so (2013.1, Build901 2013/11/27)

>  <Rbt.Parameter_File>
/export/apps/rDock/src/rDock_2013.1_src/data/scripts/dock_solv.prm

>  <Rbt.Receptor>
prm/pocket_docking_7.prm

>  <SCORE>
-18.3252

>  <SCORE.INTER>
-10.0675

>  <SCORE.INTER.CONST>
1

>  <SCORE.INTER.POLAR>
-1.83846

>  <SCORE.INTER.ROT>
9

>  <SCORE.INTER.SOLV>
10.0303

>  <SCORE.INTER.VDW>
-13.5269

>  <SCORE.INTER.norm>
-0.239702

>  <SCORE.INTRA>
-8.40288

>  <SCORE.INTRA.DIHEDRAL>
-21.3924

>  <SCORE.INTRA.DIHEDRAL.0>
27.8999

>  <SCORE.INTRA.POLAR>
0

>  <SCORE.INTRA.POLAR.0>
0

>  <SCORE.INTRA.REPUL>
0.263432

>  <SCORE.INTRA.REPUL.0>
0

>  <SCORE.INTRA.SOLV>
0.577543

>  <SCORE.INTRA.SOLV.lig_0>
-104.479

>  <SCORE.INTRA.VDW>
0.687392

>  <SCORE.INTRA.VDW.0>
-6.17816

>  <SCORE.INTRA.norm>
-0.200069

>  <SCORE.RESTR>
0.145137

>  <SCORE.RESTR.CAVITY>
0.145137

>  <SCORE.RESTR.norm>
0.00345564

>  <SCORE.SYSTEM>
0

>  <SCORE.SYSTEM.CONST>
0

>  <SCORE.SYSTEM.DIHEDRAL>
0

>  <SCORE.SYSTEM.SOLV>
0

>  <SCORE.SYSTEM.norm>
0

>  <SCORE.heavy>
42

>  <SCORE.norm>
-0.436315

>  <RMSD>
8.946

$$$$
2o3w_lig
 OpenBabel11021811463D
libRbt.so/2013.1/901 2013/11/27
 42 45  0  0  0  0  0  0  0  0999 V2000
    9.1518    5.8254    6.4962 C   0  0  2  0  0  0  0  0  0  0  0  0
   10.2994    5.3151    5.7963 O   0  0  0  0  0  0  0  0  0  0  0  0
    8.9289    6.0247    1.7449 C   0  0  2  0  0  0  0  0  0  0  0  0
    8.8822    6.1749    0.2598 N   0  0  0  0  0  0  0  0  0  0  0  0
    9.6725    1.8419    3.6230 C   0  0  1  0  0  0  0  0  0  0  0  0
    8.8407   -2.5296    3.4355 C   0  0  1  0  0  0  0  0  0  0  0  0
    9.4649    5.7230    8.0192 C   0  0  2  0  0  0  0  0  0  0  0  0
   10.7771    6.2968    8.3648 N   0  0  0  0  0  0  0  0  0  0  0  0
    9.8735    7.1098    2.4021 C   0  0  0  0  0  0  0  0  0  0  0  0
   10.7542    0.7198    3.6636 C   0  0  2  0  0  0  0  0  0  0  0  0
   11.4279    0.5046    2.3991 O   0  0  0  0  0  0  0  0  0  0  0  0
    8.1447   -3.2939    2.2521 C   0  0  2  0  0  0  0  0  0  0  0  0
    7.0427   -2.4754    1.6634 N   0  0  0  0  0  0  0  0  0  0  0  0
    9.4713    4.2661    8.5178 C   0  0  1  0  0  0  0  0  0  0  0  0
    9.7226    4.2226    9.9234 O   0  0  0  0  0  0  0  0  0  0  0  0
    9.8640    6.9150    3.9656 C   0  0  2  0  0  0  0  0  0  0  0  0
   10.7330    7.9307    4.6189 N   0  0  0  0  0  0  0  0  0  0  0  0
    9.9369   -0.4618    4.1881 C   0  0  2  0  0  0  0  0  0  0  0  0
    9.3395   -1.2299    3.0954 O   0  0  0  0  0  0  0  0  0  0  0  0
    7.5954   -4.7023    2.7827 C   0  0  1  0  0  0  0  0  0  0  0  0
    8.7146   -5.5942    2.9845 O   0  0  0  0  0  0  0  0  0  0  0  0
    8.1250    3.5942    8.1640 C   0  0  2  0  0  0  0  0  0  0  0  0
    8.1084    2.2644    8.6287 O   0  0  0  0  0  0  0  0  0  0  0  0
   10.3619    5.4656    4.3494 C   0  0  2  0  0  0  0  0  0  0  0  0
    8.8562    0.1414    5.1011 C   0  0  2  0  0  0  0  0  0  0  0  0
    8.6146    1.4174    4.5128 O   0  0  0  0  0  0  0  0  0  0  0  0
    6.7618   -4.5715    4.1449 C   0  0  2  0  0  0  0  0  0  0  0  0
    5.5419   -3.8966    3.8405 O   0  0  0  0  0  0  0  0  0  0  0  0
    7.9234    3.6405    6.6126 C   0  0  2  0  0  0  0  0  0  0  0  0
    7.9541    5.0291    6.1538 O   0  0  0  0  0  0  0  0  0  0  0  0
    9.5179    4.3497    3.6954 C   0  0  2  0  0  0  0  0  0  0  0  0
   10.2185    3.1125    4.0002 O   0  0  0  0  0  0  0  0  0  0  0  0
    9.2649    0.2828    6.6001 C   0  0  0  0  0  0  0  0  0  0  0  0
    9.5922   -1.0016    7.1216 O   0  0  0  0  0  0  0  0  0  0  0  0
    7.5791   -3.7616    5.2211 C   0  0  1  0  0  0  0  0  0  0  0  0
    7.8841   -2.4576    4.6072 O   0  0  0  0  0  0  0  0  0  0  0  0
    6.6223    3.0077    6.1762 C   0  0  0  0  0  0  0  0  0  0  0  0
    5.5377    3.6460    6.8051 O   0  0  0  0  0  0  0  0  0  0  0  0
    9.4304    4.5747    2.1278 C   0  0  1  0  0  0  0  0  0  0  0  0
    8.5274    3.6319    1.5436 O   0  0  0  0  0  0  0  0  0  0  0  0
    6.8101   -3.5547    6.5975 C   0  0  0  0  0  0  0  0  0  0  0  0
    6.5772   -4.7900    7.3951 N   0  0  0  0  0  0  0  0  0  0  0  0
  1  2  1  6  0  0  0
  1  7  1  0  0  0  0
  1 30  1  0  0  0  0
  3  4  1  6  0  0  0
  3  9  1  0  0  0  0
  3 39  1  0  0  0  0
  5 10  1  0  0  0  0
  5 26  1  0  0  0  0
  5 32  1  1  0  0  0
  6 12  1  0  0  0  0
  6 36  1  0  0  0  0
  6 19  1  6  0  0  0
  7  8  1  6  0  0  0
  7 14  1  0  0  0  0
  9 16  1  0  0  0  0
 10 11  1  6  0  0  0
 10 18  1  0  0  0  0
 12 13  1  1  0  0  0
 12 20  1  0  0  0  0
 14 15  1  1  0  0  0
 14 22  1  0  0  0  0
 16 17  1  1  0  0  0
 16 24  1  0  0  0  0
 18 19  1  6  0  0  0
 18 25  1  0  0  0  0
 20 21  1  1  0  0  0
 20 27  1  0  0  0  0
 22 23  1  6  0  0  0
 22 29  1  0  0  0  0
 24  2  1  1  0  0  0
 24 31  1  0  0  0  0
 25 26  1  0  0  0  0
 25 33  1  1  0  0  0
 27 28  1  6  0  0  0
 27 35  1  0  0  0  0
 29 30  1  0  0  0  0
 29 37  1  1  0  0  0
 31 32  1  6  0  0  0
 31 39  1  0  0  0  0
 33 34  1  0  0  0  0
 35 36  1  0  0  0  0
 35 41  1  1  0  0  0
 37 38  1  0  0  0  0
 39 40  1  1  0  0  0
 41 42  1  0  0  0  0
M  END
>  <CHROM.1>
-171.37145923,163.16550826,177.16833367,164.91979059,42.23722599,-59.28415564
57.70244806,175.82503385,67.34306709,8.76189070,1.60499156,4.86602907,0.69671681
1.32282350,0.97792881

>  <Name>
2o3w_lig

>  <RI>
0

>  <Rbt.Current_Directory>
/home/itssahil/PROJECTS/Mol_Feturizer/New_Systems/rnas/2o3w

>  <Rbt.Executable>
rbdock ($Id: //depot/dev/client3/rdock/2013.1/src/exe/rbdock.cxx#4 $)

>  <Rbt.Library>
libRbt.so (2013.1, Build901 2013/11/27)

>  <Rbt.Parameter_File>
/export/apps/rDock/src/rDock_2013.1_src/data/scripts/dock_solv.prm

>  <Rbt.Receptor>
prm/pocket_docking_5.prm

>  <SCORE>
-18.8181

>  <SCORE.INTER>
-6.31773

>  <SCORE.INTER.CONST>
1

>  <SCORE.INTER.POLAR>
-0.894427

>  <SCORE.INTER.ROT>
9

>  <SCORE.INTER.SOLV>
9.72905

>  <SCORE.INTER.VDW>
-14.0734

>  <SCORE.INTER.norm>
-0.150422

>  <SCORE.INTRA>
-12.5004

>  <SCORE.INTRA.DIHEDRAL>
-23.2459

>  <SCORE.INTRA.DIHEDRAL.0>
27.8999

>  <SCORE.INTRA.POLAR>
0

>  <SCORE.INTRA.POLAR.0>
0

>  <SCORE.INTRA.REPUL>
0

>  <SCORE.INTRA.REPUL.0>
0

>  <SCORE.INTRA.SOLV>
-3.67735

>  <SCORE.INTRA.SOLV.lig_0>
-104.479

>  <SCORE.INTRA.VDW>
0.961215

>  <SCORE.INTRA.VDW.0>
-6.17816

>  <SCORE.INTRA.norm>
-0.297629

>  <SCORE.RESTR>
0

>  <SCORE.RESTR.CAVITY>
0

>  <SCORE.RESTR.norm>
0

>  <SCORE.SYSTEM>
0

>  <SCORE.SYSTEM.CONST>
0

>  <SCORE.SYSTEM.DIHEDRAL>
0

>  <SCORE.SYSTEM.SOLV>
0

>  <SCORE.SYSTEM.norm>
0

>  <SCORE.heavy>
42

>  <SCORE.norm>
-0.448051

>  <RMSD>
8.949

$$$$
2o3w_lig
 OpenBabel11021811463D
libRbt.so/2013.1/901 2013/11/27
 42 45  0  0  0  0  0  0  0  0999 V2000
    7.8068    4.9415    5.3680 C   0  0  2  0  0  0  0  0  0  0  0  0
    6.5565    4.4351    4.8704 O   0  0  0  0  0  0  0  0  0  0  0  0
    3.2631    6.5602    3.0175 C   0  0  2  0  0  0  0  0  0  0  0  0
    2.4264    7.3327    2.0513 N   0  0  0  0  0  0  0  0  0  0  0  0
    6.0042    2.2193    3.2806 C   0  0  1  0  0  0  0  0  0  0  0  0
    6.8434   -1.7018    5.2772 C   0  0  1  0  0  0  0  0  0  0  0  0
    8.9331    4.3100    4.4958 C   0  0  2  0  0  0  0  0  0  0  0  0
    8.6739    4.4504    3.0523 N   0  0  0  0  0  0  0  0  0  0  0  0
    4.5013    7.4109    3.5125 C   0  0  0  0  0  0  0  0  0  0  0  0
    5.0338    1.4181    4.2011 C   0  0  2  0  0  0  0  0  0  0  0  0
    4.9723    1.9100    5.5624 O   0  0  0  0  0  0  0  0  0  0  0  0
    7.9805   -1.9908    6.3223 C   0  0  2  0  0  0  0  0  0  0  0  0
    9.2546   -1.3215    5.9231 N   0  0  0  0  0  0  0  0  0  0  0  0
    9.1113    2.8056    4.7714 C   0  0  1  0  0  0  0  0  0  0  0  0
   10.1780    2.2781    3.9809 O   0  0  0  0  0  0  0  0  0  0  0  0
    5.3301    6.5539    4.5427 C   0  0  2  0  0  0  0  0  0  0  0  0
    6.4972    7.3304    5.0412 N   0  0  0  0  0  0  0  0  0  0  0  0
    5.5723   -0.0037    4.0343 C   0  0  2  0  0  0  0  0  0  0  0  0
    6.5969   -0.3114    5.0325 O   0  0  0  0  0  0  0  0  0  0  0  0
    8.1811   -3.5743    6.4609 C   0  0  1  0  0  0  0  0  0  0  0  0
    7.0669   -4.1235    7.1997 O   0  0  0  0  0  0  0  0  0  0  0  0
    9.3640    2.5841    6.2801 C   0  0  2  0  0  0  0  0  0  0  0  0
    9.5460    1.2129    6.5465 O   0  0  0  0  0  0  0  0  0  0  0  0
    5.8317    5.2127    3.8752 C   0  0  2  0  0  0  0  0  0  0  0  0
    6.1439   -0.0766    2.6084 C   0  0  2  0  0  0  0  0  0  0  0  0
    6.5871    1.2575    2.3715 O   0  0  0  0  0  0  0  0  0  0  0  0
    8.3006   -4.3125    5.0437 C   0  0  2  0  0  0  0  0  0  0  0  0
    9.5446   -3.9269    4.4605 O   0  0  0  0  0  0  0  0  0  0  0  0
    8.1489    3.1482    7.0894 C   0  0  2  0  0  0  0  0  0  0  0  0
    7.9748    4.5692    6.7889 O   0  0  0  0  0  0  0  0  0  0  0  0
    4.6766    4.3535    3.3161 C   0  0  2  0  0  0  0  0  0  0  0  0
    5.3221    3.2729    2.5880 O   0  0  0  0  0  0  0  0  0  0  0  0
    5.1289   -0.5333    1.5150 C   0  0  0  0  0  0  0  0  0  0  0  0
    4.0637    0.4092    1.4389 O   0  0  0  0  0  0  0  0  0  0  0  0
    7.1063   -3.9031    4.1013 C   0  0  1  0  0  0  0  0  0  0  0  0
    7.1576   -2.4350    3.9901 O   0  0  0  0  0  0  0  0  0  0  0  0
    8.3153    2.9787    8.5819 C   0  0  0  0  0  0  0  0  0  0  0  0
    9.4394    3.6966    9.0291 O   0  0  0  0  0  0  0  0  0  0  0  0
    3.7672    5.2196    2.3474 C   0  0  1  0  0  0  0  0  0  0  0  0
    2.6157    4.4701    1.9503 O   0  0  0  0  0  0  0  0  0  0  0  0
    7.1644   -4.5661    2.6571 C   0  0  0  0  0  0  0  0  0  0  0  0
    8.3838   -4.2615    1.8592 N   0  0  0  0  0  0  0  0  0  0  0  0
  1  2  1  6  0  0  0
  1  7  1  0  0  0  0
  1 30  1  0  0  0  0
  3  4  1  6  0  0  0
  3  9  1  0  0  0  0
  3 39  1  0  0  0  0
  5 10  1  0  0  0  0
  5 26  1  0  0  0  0
  5 32  1  6  0  0  0
  6 12  1  0  0  0  0
  6 36  1  0  0  0  0
  6 19  1  6  0  0  0
  7  8  1  6  0  0  0
  7 14  1  0  0  0  0
  9 16  1  0  0  0  0
 10 11  1  1  0  0  0
 10 18  1  0  0  0  0
 12 13  1  6  0  0  0
 12 20  1  0  0  0  0
 14 15  1  6  0  0  0
 14 22  1  0  0  0  0
 16 17  1  6  0  0  0
 16 24  1  0  0  0  0
 18 19  1  1  0  0  0
 18 25  1  0  0  0  0
 20 21  1  6  0  0  0
 20 27  1  0  0  0  0
 22 23  1  6  0  0  0
 22 29  1  0  0  0  0
 24  2  1  1  0  0  0
 24 31  1  0  0  0  0
 25 26  1  0  0  0  0
 25 33  1  6  0  0  0
 27 28  1  6  0  0  0
 27 35  1  0  0  0  0
 29 30  1  0  0  0  0
 29 37  1  1  0  0  0
 31 32  1  6  0  0  0
 31 39  1  0  0  0  0
 33 34  1  0  0  0  0
 35 36  1  0  0  0  0
 35 41  1  6  0  0  0
 37 38  1  0  0  0  0
 39 40  1  1  0  0  0
 41 42  1  0  0  0  0
M  END
>  <CHROM.1>
-93.63422018,61.60356149,178.20306247,159.48289500,-66.98026587,62.20469166
62.15715235,71.87037330,-59.12754987,6.80550335,1.62465395,4.44768187,-1.99940298
0.78673554,-2.93661467

>  <Name>
2o3w_lig

>  <RI>
0

>  <Rbt.Current_Directory>
/home/itssahil/PROJECTS/Mol_Feturizer/New_Systems/rnas/2o3w

>  <Rbt.Executable>
rbdock ($Id: //depot/dev/client3/rdock/2013.1/src/exe/rbdock.cxx#4 $)

>  <Rbt.Library>
libRbt.so (2013.1, Build901 2013/11/27)

>  <Rbt.Parameter_File>
/export/apps/rDock/src/rDock_2013.1_src/data/scripts/dock_solv.prm

>  <Rbt.Receptor>
prm/pocket_docking_4.prm

>  <SCORE>
-9.56859

>  <SCORE.INTER>
-1.18175

>  <SCORE.INTER.CONST>
1

>  <SCORE.INTER.POLAR>
0

>  <SCORE.INTER.ROT>
9

>  <SCORE.INTER.SOLV>
8.05635

>  <SCORE.INTER.VDW>
-13.0733

>  <SCORE.INTER.norm>
-0.0281369

>  <SCORE.INTRA>
-8.38684

>  <SCORE.INTRA.DIHEDRAL>
-20.6171

>  <SCORE.INTRA.DIHEDRAL.0>
27.8999

>  <SCORE.INTRA.POLAR>
0

>  <SCORE.INTRA.POLAR.0>
0

>  <SCORE.INTRA.REPUL>
0

>  <SCORE.INTRA.REPUL.0>
0

>  <SCORE.INTRA.SOLV>
2.93693

>  <SCORE.INTRA.SOLV.lig_0>
-104.479

>  <SCORE.INTRA.VDW>
0.453235

>  <SCORE.INTRA.VDW.0>
-6.17816

>  <SCORE.INTRA.norm>
-0.199687

>  <SCORE.RESTR>
0

>  <SCORE.RESTR.CAVITY>
0

>  <SCORE.RESTR.norm>
0

>  <SCORE.SYSTEM>
0

>  <SCORE.SYSTEM.CONST>
0

>  <SCORE.SYSTEM.DIHEDRAL>
0

>  <SCORE.SYSTEM.SOLV>
0

>  <SCORE.SYSTEM.norm>
0

>  <SCORE.heavy>
42

>  <SCORE.norm>
-0.227823

>  <RMSD>
8.957

$$$$
2o3w_lig
 OpenBabel11021811463D
libRbt.so/2013.1/901 2013/11/27
 42 45  0  0  0  0  0  0  0  0999 V2000
    9.1737    5.1830    3.2872 C   0  0  2  0  0  0  0  0  0  0  0  0
   10.2489    6.0403    3.7072 O   0  0  0  0  0  0  0  0  0  0  0  0
   13.3417    5.3437    6.6644 C   0  0  2  0  0  0  0  0  0  0  0  0
   14.0533    5.0878    7.9523 N   0  0  0  0  0  0  0  0  0  0  0  0
   10.5554    2.0786    5.1441 C   0  0  1  0  0  0  0  0  0  0  0  0
    8.9844   -1.6967    5.9631 C   0  0  1  0  0  0  0  0  0  0  0  0
    8.4452    5.9075    2.1156 C   0  0  2  0  0  0  0  0  0  0  0  0
    9.3781    6.3791    1.0774 N   0  0  0  0  0  0  0  0  0  0  0  0
   12.6108    6.7463    6.6814 C   0  0  0  0  0  0  0  0  0  0  0  0
    9.2066    1.3027    5.0463 C   0  0  2  0  0  0  0  0  0  0  0  0
    8.5406    1.1158    6.3193 O   0  0  0  0  0  0  0  0  0  0  0  0
    9.4533   -2.7505    7.0300 C   0  0  2  0  0  0  0  0  0  0  0  0
   10.3830   -3.7485    6.4212 N   0  0  0  0  0  0  0  0  0  0  0  0
    7.6518    7.1378    2.5927 C   0  0  1  0  0  0  0  0  0  0  0  0
    6.9696    7.7461    1.4947 O   0  0  0  0  0  0  0  0  0  0  0  0
   11.8998    6.9680    5.2929 C   0  0  2  0  0  0  0  0  0  0  0  0
   11.2126    8.2874    5.2684 N   0  0  0  0  0  0  0  0  0  0  0  0
    9.6511    0.0226    4.3372 C   0  0  2  0  0  0  0  0  0  0  0  0
   10.0495   -1.0112    5.2928 O   0  0  0  0  0  0  0  0  0  0  0  0
    8.1691   -3.4707    7.6617 C   0  0  1  0  0  0  0  0  0  0  0  0
    7.5054   -2.5457    8.5521 O   0  0  0  0  0  0  0  0  0  0  0  0
    6.6658    6.7157    3.7057 C   0  0  2  0  0  0  0  0  0  0  0  0
    5.9195    7.8281    4.1418 O   0  0  0  0  0  0  0  0  0  0  0  0
   10.8519    5.8192    5.0141 C   0  0  2  0  0  0  0  0  0  0  0  0
   10.8260    0.4257    3.4303 C   0  0  2  0  0  0  0  0  0  0  0  0
   11.4271    1.5037    4.1438 O   0  0  0  0  0  0  0  0  0  0  0  0
    7.1335   -3.9820    6.5510 C   0  0  2  0  0  0  0  0  0  0  0  0
    7.7463   -5.0688    5.8583 O   0  0  0  0  0  0  0  0  0  0  0  0
    7.4726    6.0913    4.8926 C   0  0  2  0  0  0  0  0  0  0  0  0
    8.2455    4.9457    4.4132 O   0  0  0  0  0  0  0  0  0  0  0  0
   11.4861    4.4112    5.0384 C   0  0  2  0  0  0  0  0  0  0  0  0
   10.3671    3.4867    4.9518 O   0  0  0  0  0  0  0  0  0  0  0  0
   10.4239    0.8626    1.9875 C   0  0  0  0  0  0  0  0  0  0  0  0
    9.6055    2.0262    2.0592 O   0  0  0  0  0  0  0  0  0  0  0  0
    6.7812   -2.8228    5.5440 C   0  0  1  0  0  0  0  0  0  0  0  0
    8.0624   -2.3747    4.9714 O   0  0  0  0  0  0  0  0  0  0  0  0
    6.5825    5.6425    6.0284 C   0  0  0  0  0  0  0  0  0  0  0  0
    6.0718    6.7594    6.7147 O   0  0  0  0  0  0  0  0  0  0  0  0
   12.2909    4.1949    6.3879 C   0  0  1  0  0  0  0  0  0  0  0  0
   13.0013    2.9543    6.3454 O   0  0  0  0  0  0  0  0  0  0  0  0
    5.7818   -3.2536    4.3845 C   0  0  0  0  0  0  0  0  0  0  0  0
    5.5294   -2.2244    3.3388 N   0  0  0  0  0  0  0  0  0  0  0  0
  1  2  1  1  0  0  0
  1  7  1  0  0  0  0
  1 30  1  0  0  0  0
  3  4  1  1  0  0  0
  3  9  1  0  0  0  0
  3 39  1  0  0  0  0
  5 10  1  0  0  0  0
  5 26  1  0  0  0  0
  5 32  1  6  0  0  0
  6 12  1  0  0  0  0
  6 36  1  0  0  0  0
  6 19  1  6  0  0  0
  7  8  1  6  0  0  0
  7 14  1  0  0  0  0
  9 16  1  0  0  0  0
 10 11  1  1  0  0  0
 10 18  1  0  0  0  0
 12 13  1  6  0  0  0
 12 20  1  0  0  0  0
 14 15  1  6  0  0  0
 14 22  1  0  0  0  0
 16 17  1  1  0  0  0
 16 24  1  0  0  0  0
 18 19  1  1  0  0  0
 18 25  1  0  0  0  0
 20 21  1  1  0  0  0
 20 27  1  0  0  0  0
 22 23  1  1  0  0  0
 22 29  1  0  0  0  0
 24  2  1  6  0  0  0
 24 31  1  0  0  0  0
 25 26  1  0  0  0  0
 25 33  1  6  0  0  0
 27 28  1  6  0  0  0
 27 35  1  0  0  0  0
 29 30  1  0  0  0  0
 29 37  1  1  0  0  0
 31 32  1  1  0  0  0
 31 39  1  0  0  0  0
 33 34  1  0  0  0  0
 35 36  1  0  0  0  0
 35 41  1  6  0  0  0
 37 38  1  0  0  0  0
 39 40  1  6  0  0  0
 41 42  1  0  0  0  0
M  END
>  <CHROM.1>
162.23804373,178.25441405,-177.22919140,76.51087061,-174.51140111,62.60340764
-72.08335731,-170.75605361,-174.28209295,9.25315281,2.47377791,4.94390083
1.42355385,-0.41883475,-0.21977663

>  <Name>
2o3w_lig

>  <RI>
0

>  <Rbt.Current_Directory>
/home/itssahil/PROJECTS/Mol_Feturizer/New_Systems/rnas/2o3w

>  <Rbt.Executable>
rbdock ($Id: //depot/dev/client3/rdock/2013.1/src/exe/rbdock.cxx#4 $)

>  <Rbt.Library>
libRbt.so (2013.1, Build901 2013/11/27)

>  <Rbt.Parameter_File>
/export/apps/rDock/src/rDock_2013.1_src/data/scripts/dock_solv.prm

>  <Rbt.Receptor>
prm/pocket_docking_6.prm

>  <SCORE>
-21.7387

>  <SCORE.INTER>
-10.1222

>  <SCORE.INTER.CONST>
1

>  <SCORE.INTER.POLAR>
-1.82721

>  <SCORE.INTER.ROT>
9

>  <SCORE.INTER.SOLV>
11.0902

>  <SCORE.INTER.VDW>
-13.9541

>  <SCORE.INTER.norm>
-0.241004

>  <SCORE.INTRA>
-11.6165

>  <SCORE.INTRA.DIHEDRAL>
-23.7881

>  <SCORE.INTRA.DIHEDRAL.0>
27.8999

>  <SCORE.INTRA.POLAR>
0

>  <SCORE.INTRA.POLAR.0>
0

>  <SCORE.INTRA.REPUL>
0.00998626

>  <SCORE.INTRA.REPUL.0>
0

>  <SCORE.INTRA.SOLV>
-5.01629

>  <SCORE.INTRA.SOLV.lig_0>
-104.479

>  <SCORE.INTRA.VDW>
2.73575

>  <SCORE.INTRA.VDW.0>
-6.17816

>  <SCORE.INTRA.norm>
-0.276584

>  <SCORE.RESTR>
0

>  <SCORE.RESTR.CAVITY>
0

>  <SCORE.RESTR.norm>
0

>  <SCORE.SYSTEM>
0

>  <SCORE.SYSTEM.CONST>
0

>  <SCORE.SYSTEM.DIHEDRAL>
0

>  <SCORE.SYSTEM.SOLV>
0

>  <SCORE.SYSTEM.norm>
0

>  <SCORE.heavy>
42

>  <SCORE.norm>
-0.517587

>  <RMSD>
8.959

$$$$
2o3w_lig
 OpenBabel11021811463D
libRbt.so/2013.1/901 2013/11/27
 42 45  0  0  0  0  0  0  0  0999 V2000
    4.2240    6.5719   -0.1834 C   0  0  2  0  0  0  0  0  0  0  0  0
    5.3126    5.6350   -0.1160 O   0  0  0  0  0  0  0  0  0  0  0  0
    3.4108    2.7313    2.4817 C   0  0  2  0  0  0  0  0  0  0  0  0
    3.1660    1.5592    3.3743 N   0  0  0  0  0  0  0  0  0  0  0  0
    7.2514    4.7870    3.0117 C   0  0  1  0  0  0  0  0  0  0  0  0
    9.1763    2.8048    4.1627 C   0  0  1  0  0  0  0  0  0  0  0  0
    4.4074    7.3886   -1.4978 C   0  0  2  0  0  0  0  0  0  0  0  0
    4.6298    6.5259   -2.6712 N   0  0  0  0  0  0  0  0  0  0  0  0
    3.7961    2.2683    1.0191 C   0  0  0  0  0  0  0  0  0  0  0  0
    7.9350    4.1014    1.7897 C   0  0  2  0  0  0  0  0  0  0  0  0
    7.4633    2.7567    1.5284 O   0  0  0  0  0  0  0  0  0  0  0  0
    9.6063    3.7243    5.3621 C   0  0  2  0  0  0  0  0  0  0  0  0
   11.0797    3.6446    5.5938 N   0  0  0  0  0  0  0  0  0  0  0  0
    5.6038    8.3550   -1.4231 C   0  0  1  0  0  0  0  0  0  0  0  0
    5.7098    9.1096   -2.6315 O   0  0  0  0  0  0  0  0  0  0  0  0
    4.0191    3.5442    0.1221 C   0  0  2  0  0  0  0  0  0  0  0  0
    4.3697    3.1449   -1.2676 N   0  0  0  0  0  0  0  0  0  0  0  0
    9.4118    4.2233    2.1686 C   0  0  2  0  0  0  0  0  0  0  0  0
    9.8682    3.0632    2.9346 O   0  0  0  0  0  0  0  0  0  0  0  0
    8.7933    3.2961    6.6745 C   0  0  1  0  0  0  0  0  0  0  0  0
    7.4249    3.7423    6.5428 O   0  0  0  0  0  0  0  0  0  0  0  0
    5.4451    9.2780   -0.1934 C   0  0  2  0  0  0  0  0  0  0  0  0
    6.5244   10.1803   -0.1203 O   0  0  0  0  0  0  0  0  0  0  0  0
    5.1672    4.4507    0.7188 C   0  0  2  0  0  0  0  0  0  0  0  0
    9.5337    5.5171    2.9911 C   0  0  2  0  0  0  0  0  0  0  0  0
    8.2649    5.6093    3.6345 O   0  0  0  0  0  0  0  0  0  0  0  0
    8.8188    1.7150    6.9337 C   0  0  2  0  0  0  0  0  0  0  0  0
   10.1500    1.3608    7.3062 O   0  0  0  0  0  0  0  0  0  0  0  0
    5.3711    8.3983    1.0990 C   0  0  2  0  0  0  0  0  0  0  0  0
    4.2500    7.4645    0.9949 O   0  0  0  0  0  0  0  0  0  0  0  0
    4.8852    4.8961    2.1705 C   0  0  2  0  0  0  0  0  0  0  0  0
    6.1057    5.5509    2.6130 O   0  0  0  0  0  0  0  0  0  0  0  0
    9.8347    6.8011    2.1573 C   0  0  0  0  0  0  0  0  0  0  0  0
   11.0696    6.6349    1.4670 O   0  0  0  0  0  0  0  0  0  0  0  0
    8.3891    0.9320    5.6359 C   0  0  1  0  0  0  0  0  0  0  0  0
    9.3202    1.3551    4.5756 O   0  0  0  0  0  0  0  0  0  0  0  0
    5.2084    9.2228    2.3550 C   0  0  0  0  0  0  0  0  0  0  0  0
    5.1659    8.3839    3.4836 O   0  0  0  0  0  0  0  0  0  0  0  0
    4.5623    3.6361    3.0782 C   0  0  1  0  0  0  0  0  0  0  0  0
    4.1540    4.0591    4.3821 O   0  0  0  0  0  0  0  0  0  0  0  0
    8.4188   -0.6500    5.7943 C   0  0  0  0  0  0  0  0  0  0  0  0
    8.0658   -1.4245    4.5728 N   0  0  0  0  0  0  0  0  0  0  0  0
  1  2  1  1  0  0  0
  1  7  1  0  0  0  0
  1 30  1  0  0  0  0
  3  4  1  1  0  0  0
  3  9  1  0  0  0  0
  3 39  1  0  0  0  0
  5 10  1  0  0  0  0
  5 26  1  0  0  0  0
  5 32  1  6  0  0  0
  6 12  1  0  0  0  0
  6 36  1  0  0  0  0
  6 19  1  6  0  0  0
  7  8  1  6  0  0  0
  7 14  1  0  0  0  0
  9 16  1  0  0  0  0
 10 11  1  1  0  0  0
 10 18  1  0  0  0  0
 12 13  1  1  0  0  0
 12 20  1  0  0  0  0
 14 15  1  6  0  0  0
 14 22  1  0  0  0  0
 16 17  1  6  0  0  0
 16 24  1  0  0  0  0
 18 19  1  1  0  0  0
 18 25  1  0  0  0  0
 20 21  1  6  0  0  0
 20 27  1  0  0  0  0
 22 23  1  1  0  0  0
 22 29  1  0  0  0  0
 24  2  1  6  0  0  0
 24 31  1  0  0  0  0
 25 26  1  0  0  0  0
 25 33  1  6  0  0  0
 27 28  1  6  0  0  0
 27 35  1  0  0  0  0
 29 30  1  0  0  0  0
 29 37  1  1  0  0  0
 31 32  1  1  0  0  0
 31 39  1  0  0  0  0
 33 34  1  0  0  0  0
 35 36  1  0  0  0  0
 35 41  1  1  0  0  0
 37 38  1  0  0  0  0
 39 40  1  1  0  0  0
 41 42  1  0  0  0  0
M  END
>  <CHROM.1>
-158.68019483,71.14942540,-78.50018468,-58.95774903,65.10485531,-60.00057721
-179.20839652,-77.88418113,-177.88862354,6.81837215,4.70395900,2.45365312
2.07132842,-0.52149981,-0.51770869

>  <Name>
2o3w_lig

>  <RI>
0

>  <Rbt.Current_Directory>
/home/itssahil/PROJECTS/Mol_Feturizer/New_Systems/rnas/2o3w

>  <Rbt.Executable>
rbdock ($Id: //depot/dev/client3/rdock/2013.1/src/exe/rbdock.cxx#4 $)

>  <Rbt.Library>
libRbt.so (2013.1, Build901 2013/11/27)

>  <Rbt.Parameter_File>
/export/apps/rDock/src/rDock_2013.1_src/data/scripts/dock_solv.prm

>  <Rbt.Receptor>
prm/pocket_docking_4.prm

>  <SCORE>
-13.5169

>  <SCORE.INTER>
-4.19177

>  <SCORE.INTER.CONST>
1

>  <SCORE.INTER.POLAR>
-0.985429

>  <SCORE.INTER.ROT>
9

>  <SCORE.INTER.SOLV>
8.0265

>  <SCORE.INTER.VDW>
-11.7852

>  <SCORE.INTER.norm>
-0.0998041

>  <SCORE.INTRA>
-9.32512

>  <SCORE.INTRA.DIHEDRAL>
-21.9813

>  <SCORE.INTRA.DIHEDRAL.0>
27.8999

>  <SCORE.INTRA.POLAR>
0

>  <SCORE.INTRA.POLAR.0>
0

>  <SCORE.INTRA.REPUL>
0

>  <SCORE.INTRA.REPUL.0>
0

>  <SCORE.INTRA.SOLV>
-1.8028

>  <SCORE.INTRA.SOLV.lig_0>
-104.479

>  <SCORE.INTRA.VDW>
2.56691

>  <SCORE.INTRA.VDW.0>
-6.17816

>  <SCORE.INTRA.norm>
-0.222027

>  <SCORE.RESTR>
0

>  <SCORE.RESTR.CAVITY>
0

>  <SCORE.RESTR.norm>
0

>  <SCORE.SYSTEM>
0

>  <SCORE.SYSTEM.CONST>
0

>  <SCORE.SYSTEM.DIHEDRAL>
0

>  <SCORE.SYSTEM.SOLV>
0

>  <SCORE.SYSTEM.norm>
0

>  <SCORE.heavy>
42

>  <SCORE.norm>
-0.321831

>  <RMSD>
8.963

$$$$
2o3w_lig
 OpenBabel11021811463D
libRbt.so/2013.1/901 2013/11/27
 42 45  0  0  0  0  0  0  0  0999 V2000
    4.9291    5.7789    3.7604 C   0  0  2  0  0  0  0  0  0  0  0  0
    6.1452    5.8789    2.9998 O   0  0  0  0  0  0  0  0  0  0  0  0
    7.0056    8.1980   -0.5608 C   0  0  2  0  0  0  0  0  0  0  0  0
    7.2611    9.3323   -1.4980 N   0  0  0  0  0  0  0  0  0  0  0  0
    9.4408    6.2429    3.4137 C   0  0  1  0  0  0  0  0  0  0  0  0
   12.8947    4.1010    5.2752 C   0  0  1  0  0  0  0  0  0  0  0  0
    5.1862    6.4866    5.1247 C   0  0  2  0  0  0  0  0  0  0  0  0
    5.7729    7.8282    4.9622 N   0  0  0  0  0  0  0  0  0  0  0  0
    5.5307    8.2450    0.0086 C   0  0  0  0  0  0  0  0  0  0  0  0
   10.9488    6.4950    3.1087 C   0  0  2  0  0  0  0  0  0  0  0  0
   11.4165    5.8674    1.8895 O   0  0  0  0  0  0  0  0  0  0  0  0
   12.8675    2.5478    5.5108 C   0  0  2  0  0  0  0  0  0  0  0  0
   11.5017    2.0924    5.9086 N   0  0  0  0  0  0  0  0  0  0  0  0
    6.1459    5.6877    6.0256 C   0  0  1  0  0  0  0  0  0  0  0  0
    6.3211    6.3520    7.2781 O   0  0  0  0  0  0  0  0  0  0  0  0
    5.3153    7.0152    0.9698 C   0  0  2  0  0  0  0  0  0  0  0  0
    3.9304    7.0198    1.5135 N   0  0  0  0  0  0  0  0  0  0  0  0
   11.6001    5.9992    4.4008 C   0  0  2  0  0  0  0  0  0  0  0  0
   11.9356    4.5772    4.3228 O   0  0  0  0  0  0  0  0  0  0  0  0
   13.9502    2.1633    6.6274 C   0  0  1  0  0  0  0  0  0  0  0  0
   15.2720    2.2693    6.0525 O   0  0  0  0  0  0  0  0  0  0  0  0
    5.5994    4.2547    6.2184 C   0  0  2  0  0  0  0  0  0  0  0  0
    6.4583    3.5152    7.0548 O   0  0  0  0  0  0  0  0  0  0  0  0
    6.3526    7.0509    2.1608 C   0  0  2  0  0  0  0  0  0  0  0  0
   10.5818    6.2709    5.5208 C   0  0  2  0  0  0  0  0  0  0  0  0
    9.3286    6.1476    4.8523 O   0  0  0  0  0  0  0  0  0  0  0  0
   13.8564    3.0913    7.9303 C   0  0  2  0  0  0  0  0  0  0  0  0
   12.6400    2.7682    8.6029 O   0  0  0  0  0  0  0  0  0  0  0  0
    5.4636    3.5675    4.8188 C   0  0  2  0  0  0  0  0  0  0  0  0
    4.5758    4.3582    3.9665 O   0  0  0  0  0  0  0  0  0  0  0  0
    7.8193    7.0642    1.6774 C   0  0  2  0  0  0  0  0  0  0  0  0
    8.6143    7.2830    2.8751 O   0  0  0  0  0  0  0  0  0  0  0  0
   10.7162    7.6648    6.2087 C   0  0  0  0  0  0  0  0  0  0  0  0
   10.5935    8.6883    5.2256 O   0  0  0  0  0  0  0  0  0  0  0  0
   13.8698    4.6149    7.5297 C   0  0  1  0  0  0  0  0  0  0  0  0
   12.7377    4.8053    6.6065 O   0  0  0  0  0  0  0  0  0  0  0  0
    4.9271    2.1579    4.9127 C   0  0  0  0  0  0  0  0  0  0  0  0
    5.9658    1.2640    5.2313 O   0  0  0  0  0  0  0  0  0  0  0  0
    8.0424    8.2365    0.6326 C   0  0  1  0  0  0  0  0  0  0  0  0
    9.3559    8.1552    0.0726 O   0  0  0  0  0  0  0  0  0  0  0  0
   13.7461    5.6102    8.7637 C   0  0  0  0  0  0  0  0  0  0  0  0
   14.9371    5.6801    9.6543 N   0  0  0  0  0  0  0  0  0  0  0  0
  1  2  1  6  0  0  0
  1  7  1  0  0  0  0
  1 30  1  0  0  0  0
  3  4  1  6  0  0  0
  3  9  1  0  0  0  0
  3 39  1  0  0  0  0
  5 10  1  0  0  0  0
  5 26  1  0  0  0  0
  5 32  1  1  0  0  0
  6 12  1  0  0  0  0
  6 36  1  0  0  0  0
  6 19  1  6  0  0  0
  7  8  1  6  0  0  0
  7 14  1  0  0  0  0
  9 16  1  0  0  0  0
 10 11  1  6  0  0  0
 10 18  1  0  0  0  0
 12 13  1  1  0  0  0
 12 20  1  0  0  0  0
 14 15  1  1  0  0  0
 14 22  1  0  0  0  0
 16 17  1  1  0  0  0
 16 24  1  0  0  0  0
 18 19  1  6  0  0  0
 18 25  1  0  0  0  0
 20 21  1  6  0  0  0
 20 27  1  0  0  0  0
 22 23  1  1  0  0  0
 22 29  1  0  0  0  0
 24  2  1  1  0  0  0
 24 31  1  0  0  0  0
 25 26  1  0  0  0  0
 25 33  1  6  0  0  0
 27 28  1  6  0  0  0
 27 35  1  0  0  0  0
 29 30  1  0  0  0  0
 29 37  1  1  0  0  0
 31 32  1  1  0  0  0
 31 39  1  0  0  0  0
 33 34  1  0  0  0  0
 35 36  1  0  0  0  0
 35 41  1  1  0  0  0
 37 38  1  0  0  0  0
 39 40  1  6  0  0  0
 41 42  1  0  0  0  0
M  END
>  <CHROM.1>
-88.28633282,104.75144034,159.66679531,161.60013067,-67.80829100,57.64154449
-82.02782088,110.40233176,70.46078370,9.09969607,5.51598464,4.48977062,2.47736920
-0.12063203,-0.88822521

>  <Name>
2o3w_lig

>  <RI>
0

>  <Rbt.Current_Directory>
/home/itssahil/PROJECTS/Mol_Feturizer/New_Systems/rnas/2o3w

>  <Rbt.Executable>
rbdock ($Id: //depot/dev/client3/rdock/2013.1/src/exe/rbdock.cxx#4 $)

>  <Rbt.Library>
libRbt.so (2013.1, Build901 2013/11/27)

>  <Rbt.Parameter_File>
/export/apps/rDock/src/rDock_2013.1_src/data/scripts/dock_solv.prm

>  <Rbt.Receptor>
prm/pocket_docking_6.prm

>  <SCORE>
-21.3176

>  <SCORE.INTER>
-19.5708

>  <SCORE.INTER.CONST>
1

>  <SCORE.INTER.POLAR>
-3.31639

>  <SCORE.INTER.ROT>
9

>  <SCORE.INTER.SOLV>
16.2611

>  <SCORE.INTER.VDW>
-17.0129

>  <SCORE.INTER.norm>
-0.465971

>  <SCORE.INTRA>
-1.74688

>  <SCORE.INTRA.DIHEDRAL>
-5.9903

>  <SCORE.INTRA.DIHEDRAL.0>
27.8999

>  <SCORE.INTRA.POLAR>
0

>  <SCORE.INTRA.POLAR.0>
0

>  <SCORE.INTRA.REPUL>
0.00254687

>  <SCORE.INTRA.REPUL.0>
0

>  <SCORE.INTRA.SOLV>
-0.968067

>  <SCORE.INTRA.SOLV.lig_0>
-104.479

>  <SCORE.INTRA.VDW>
1.71957

>  <SCORE.INTRA.VDW.0>
-6.17816

>  <SCORE.INTRA.norm>
-0.0415923

>  <SCORE.RESTR>
0

>  <SCORE.RESTR.CAVITY>
0

>  <SCORE.RESTR.norm>
0

>  <SCORE.SYSTEM>
0

>  <SCORE.SYSTEM.CONST>
0

>  <SCORE.SYSTEM.DIHEDRAL>
0

>  <SCORE.SYSTEM.SOLV>
0

>  <SCORE.SYSTEM.norm>
0

>  <SCORE.heavy>
42

>  <SCORE.norm>
-0.507563

>  <RMSD>
8.963

$$$$
2o3w_lig
 OpenBabel11021811463D
libRbt.so/2013.1/901 2013/11/27
 42 45  0  0  0  0  0  0  0  0999 V2000
    5.9601    5.5882    0.3867 C   0  0  2  0  0  0  0  0  0  0  0  0
    5.7442    4.4287    1.2091 O   0  0  0  0  0  0  0  0  0  0  0  0
    6.3325    6.3415    5.0550 C   0  0  2  0  0  0  0  0  0  0  0  0
    6.4971    6.5800    6.5200 N   0  0  0  0  0  0  0  0  0  0  0  0
    7.8544    2.5592    3.0718 C   0  0  1  0  0  0  0  0  0  0  0  0
    7.5392   -1.8538    3.3138 C   0  0  1  0  0  0  0  0  0  0  0  0
    5.4162    5.2467   -1.0331 C   0  0  2  0  0  0  0  0  0  0  0  0
    4.0528    4.6896   -0.9955 N   0  0  0  0  0  0  0  0  0  0  0  0
    4.8885    5.7885    4.7221 C   0  0  0  0  0  0  0  0  0  0  0  0
    7.3780    1.6527    1.8962 C   0  0  2  0  0  0  0  0  0  0  0  0
    5.9403    1.6251    1.7187 O   0  0  0  0  0  0  0  0  0  0  0  0
    7.5902   -2.7264    2.0081 C   0  0  2  0  0  0  0  0  0  0  0  0
    6.2791   -2.6938    1.2933 N   0  0  0  0  0  0  0  0  0  0  0  0
    6.2973    4.2173   -1.7644 C   0  0  1  0  0  0  0  0  0  0  0  0
    5.7846    3.9646   -3.0737 O   0  0  0  0  0  0  0  0  0  0  0  0
    4.7687    5.5790    3.1651 C   0  0  2  0  0  0  0  0  0  0  0  0
    3.4147    5.0719    2.8140 N   0  0  0  0  0  0  0  0  0  0  0  0
    8.0250    0.3180    2.2693 C   0  0  2  0  0  0  0  0  0  0  0  0
    7.1410   -0.4928    3.1071 O   0  0  0  0  0  0  0  0  0  0  0  0
    7.9999   -4.2272    2.3908 C   0  0  1  0  0  0  0  0  0  0  0  0
    9.4062   -4.2573    2.7231 O   0  0  0  0  0  0  0  0  0  0  0  0
    7.7541    4.7311   -1.8182 C   0  0  2  0  0  0  0  0  0  0  0  0
    8.5706    3.8073   -2.4996 O   0  0  0  0  0  0  0  0  0  0  0  0
    5.8645    4.5622    2.6541 C   0  0  2  0  0  0  0  0  0  0  0  0
    9.3265    0.6693    3.0094 C   0  0  2  0  0  0  0  0  0  0  0  0
    9.0112    1.9066    3.6437 O   0  0  0  0  0  0  0  0  0  0  0  0
    7.1473   -4.8118    3.6151 C   0  0  2  0  0  0  0  0  0  0  0  0
    5.8088   -4.9996    3.1572 O   0  0  0  0  0  0  0  0  0  0  0  0
    8.2710    4.9542   -0.3578 C   0  0  2  0  0  0  0  0  0  0  0  0
    7.4023    5.9085    0.3311 O   0  0  0  0  0  0  0  0  0  0  0  0
    7.3027    5.0104    2.9949 C   0  0  2  0  0  0  0  0  0  0  0  0
    8.1503    3.8885    2.6241 O   0  0  0  0  0  0  0  0  0  0  0  0
   10.5846    0.8107    2.0975 C   0  0  0  0  0  0  0  0  0  0  0  0
   10.9163   -0.4629    1.5528 O   0  0  0  0  0  0  0  0  0  0  0  0
    7.1715   -3.8154    4.8352 C   0  0  1  0  0  0  0  0  0  0  0  0
    6.6460   -2.5356    4.3289 O   0  0  0  0  0  0  0  0  0  0  0  0
    9.6926    5.4651   -0.3158 C   0  0  0  0  0  0  0  0  0  0  0  0
    9.7799    6.7098   -0.9657 O   0  0  0  0  0  0  0  0  0  0  0  0
    7.4279    5.3213    4.5452 C   0  0  1  0  0  0  0  0  0  0  0  0
    8.7126    5.8794    4.8343 O   0  0  0  0  0  0  0  0  0  0  0  0
    6.3196   -4.3028    6.0864 C   0  0  0  0  0  0  0  0  0  0  0  0
    6.4915   -3.5040    7.3309 N   0  0  0  0  0  0  0  0  0  0  0  0
  1  2  1  1  0  0  0
  1  7  1  0  0  0  0
  1 30  1  0  0  0  0
  3  4  1  1  0  0  0
  3  9  1  0  0  0  0
  3 39  1  0  0  0  0
  5 10  1  0  0  0  0
  5 26  1  0  0  0  0
  5 32  1  6  0  0  0
  6 12  1  0  0  0  0
  6 36  1  0  0  0  0
  6 19  1  6  0  0  0
  7  8  1  1  0  0  0
  7 14  1  0  0  0  0
  9 16  1  0  0  0  0
 10 11  1  1  0  0  0
 10 18  1  0  0  0  0
 12 13  1  1  0  0  0
 12 20  1  0  0  0  0
 14 15  1  6  0  0  0
 14 22  1  0  0  0  0
 16 17  1  1  0  0  0
 16 24  1  0  0  0  0
 18 19  1  1  0  0  0
 18 25  1  0  0  0  0
 20 21  1  1  0  0  0
 20 27  1  0  0  0  0
 22 23  1  1  0  0  0
 22 29  1  0  0  0  0
 24  2  1  6  0  0  0
 24 31  1  0  0  0  0
 25 26  1  0  0  0  0
 25 33  1  6  0  0  0
 27 28  1  6  0  0  0
 27 35  1  0  0  0  0
 29 30  1  0  0  0  0
 29 37  1  6  0  0  0
 31 32  1  1  0  0  0
 31 39  1  0  0  0  0
 33 34  1  0  0  0  0
 35 36  1  0  0  0  0
 35 41  1  1  0  0  0
 37 38  1  0  0  0  0
 39 40  1  6  0  0  0
 41 42  1  0  0  0  0
M  END
>  <CHROM.1>
-165.74443429,110.07335104,-62.92144424,169.02909763,62.34618177,-67.28223020
61.22822360,-50.33677850,170.56753957,7.23589212,1.95603442,2.17756856,-1.80347439
-1.31713550,2.59746891

>  <Name>
2o3w_lig

>  <RI>
0

>  <Rbt.Current_Directory>
/home/itssahil/PROJECTS/Mol_Feturizer/New_Systems/rnas/2o3w

>  <Rbt.Executable>
rbdock ($Id: //depot/dev/client3/rdock/2013.1/src/exe/rbdock.cxx#4 $)

>  <Rbt.Library>
libRbt.so (2013.1, Build901 2013/11/27)

>  <Rbt.Parameter_File>
/export/apps/rDock/src/rDock_2013.1_src/data/scripts/dock_solv.prm

>  <Rbt.Receptor>
prm/pocket_docking_5.prm

>  <SCORE>
-18.5955

>  <SCORE.INTER>
-9.3455

>  <SCORE.INTER.CONST>
1

>  <SCORE.INTER.POLAR>
-1.91788

>  <SCORE.INTER.ROT>
9

>  <SCORE.INTER.SOLV>
12.9335

>  <SCORE.INTER.VDW>
-13.7486

>  <SCORE.INTER.norm>
-0.222512

>  <SCORE.INTRA>
-9.24995

>  <SCORE.INTRA.DIHEDRAL>
-18.4633

>  <SCORE.INTRA.DIHEDRAL.0>
27.8999

>  <SCORE.INTRA.POLAR>
0

>  <SCORE.INTRA.POLAR.0>
0

>  <SCORE.INTRA.REPUL>
0

>  <SCORE.INTRA.REPUL.0>
0

>  <SCORE.INTRA.SOLV>
-4.09412

>  <SCORE.INTRA.SOLV.lig_0>
-104.479

>  <SCORE.INTRA.VDW>
2.02876

>  <SCORE.INTRA.VDW.0>
-6.17816

>  <SCORE.INTRA.norm>
-0.220237

>  <SCORE.RESTR>
0

>  <SCORE.RESTR.CAVITY>
0

>  <SCORE.RESTR.norm>
0

>  <SCORE.SYSTEM>
0

>  <SCORE.SYSTEM.CONST>
0

>  <SCORE.SYSTEM.DIHEDRAL>
0

>  <SCORE.SYSTEM.SOLV>
0

>  <SCORE.SYSTEM.norm>
0

>  <SCORE.heavy>
42

>  <SCORE.norm>
-0.442749

>  <RMSD>
8.966

$$$$
2o3w_lig
 OpenBabel11021811463D
libRbt.so/2013.1/901 2013/11/27
 42 45  0  0  0  0  0  0  0  0999 V2000
    2.8640    6.3125    0.3264 C   0  0  2  0  0  0  0  0  0  0  0  0
    3.9420    6.0321   -0.5828 O   0  0  0  0  0  0  0  0  0  0  0  0
    3.9242    1.7157   -0.1768 C   0  0  2  0  0  0  0  0  0  0  0  0
    4.2450    0.2659   -0.3364 N   0  0  0  0  0  0  0  0  0  0  0  0
    7.1084    4.4620    1.6740 C   0  0  1  0  0  0  0  0  0  0  0  0
   10.7707    3.8358    4.0585 C   0  0  1  0  0  0  0  0  0  0  0  0
    2.5267    7.8267    0.1789 C   0  0  2  0  0  0  0  0  0  0  0  0
    2.3471    8.2300   -1.2267 N   0  0  0  0  0  0  0  0  0  0  0  0
    3.3601    2.3301   -1.5207 C   0  0  0  0  0  0  0  0  0  0  0  0
    8.3521    3.6847    1.1452 C   0  0  2  0  0  0  0  0  0  0  0  0
    8.2087    2.2437    1.1887 O   0  0  0  0  0  0  0  0  0  0  0  0
   10.9820    2.9169    5.3154 C   0  0  2  0  0  0  0  0  0  0  0  0
    9.7550    2.8868    6.1665 N   0  0  0  0  0  0  0  0  0  0  0  0
    3.6278    8.7303    0.7636 C   0  0  1  0  0  0  0  0  0  0  0  0
    3.2592   10.1052    0.6428 O   0  0  0  0  0  0  0  0  0  0  0  0
    3.0204    3.8503   -1.2837 C   0  0  2  0  0  0  0  0  0  0  0  0
    2.4723    4.4578   -2.5264 N   0  0  0  0  0  0  0  0  0  0  0  0
    9.4613    4.2667    2.0228 C   0  0  2  0  0  0  0  0  0  0  0  0
    9.6374    3.4921    3.2516 O   0  0  0  0  0  0  0  0  0  0  0  0
   12.2468    3.4417    6.1472 C   0  0  1  0  0  0  0  0  0  0  0  0
   13.4531    3.1010    5.4279 O   0  0  0  0  0  0  0  0  0  0  0  0
    3.8845    8.3422    2.2376 C   0  0  2  0  0  0  0  0  0  0  0  0
    4.8787    9.1717    2.7927 O   0  0  0  0  0  0  0  0  0  0  0  0
    4.3081    4.6443   -0.8288 C   0  0  2  0  0  0  0  0  0  0  0  0
    9.0429    5.7141    2.3317 C   0  0  2  0  0  0  0  0  0  0  0  0
    7.6190    5.6431    2.3339 O   0  0  0  0  0  0  0  0  0  0  0  0
   12.2069    5.0221    6.4088 C   0  0  2  0  0  0  0  0  0  0  0  0
   11.1461    5.2802    7.3276 O   0  0  0  0  0  0  0  0  0  0  0  0
    4.3184    6.8399    2.3019 C   0  0  2  0  0  0  0  0  0  0  0  0
    3.2755    6.0009    1.7117 O   0  0  0  0  0  0  0  0  0  0  0  0
    4.9487    4.0638    0.4510 C   0  0  2  0  0  0  0  0  0  0  0  0
    6.2005    4.7859    0.6129 O   0  0  0  0  0  0  0  0  0  0  0  0
    9.5503    6.7782    1.3097 C   0  0  0  0  0  0  0  0  0  0  0  0
    8.8910    8.0169    1.5540 O   0  0  0  0  0  0  0  0  0  0  0  0
   11.9637    5.8024    5.0619 C   0  0  1  0  0  0  0  0  0  0  0  0
   10.7023    5.2800    4.5084 O   0  0  0  0  0  0  0  0  0  0  0  0
    4.5851    6.3715    3.7137 C   0  0  0  0  0  0  0  0  0  0  0  0
    5.6793    7.0688    4.2574 O   0  0  0  0  0  0  0  0  0  0  0  0
    5.2146    2.5100    0.2755 C   0  0  1  0  0  0  0  0  0  0  0  0
    5.6656    1.9442    1.5092 O   0  0  0  0  0  0  0  0  0  0  0  0
   11.8762    7.3807    5.2346 C   0  0  0  0  0  0  0  0  0  0  0  0
   11.3585    8.1281    4.0556 N   0  0  0  0  0  0  0  0  0  0  0  0
  1  2  1  6  0  0  0
  1  7  1  0  0  0  0
  1 30  1  0  0  0  0
  3  4  1  6  0  0  0
  3  9  1  0  0  0  0
  3 39  1  0  0  0  0
  5 10  1  0  0  0  0
  5 26  1  0  0  0  0
  5 32  1  6  0  0  0
  6 12  1  0  0  0  0
  6 36  1  0  0  0  0
  6 19  1  1  0  0  0
  7  8  1  6  0  0  0
  7 14  1  0  0  0  0
  9 16  1  0  0  0  0
 10 11  1  1  0  0  0
 10 18  1  0  0  0  0
 12 13  1  1  0  0  0
 12 20  1  0  0  0  0
 14 15  1  1  0  0  0
 14 22  1  0  0  0  0
 16 17  1  6  0  0  0
 16 24  1  0  0  0  0
 18 19  1  1  0  0  0
 18 25  1  0  0  0  0
 20 21  1  6  0  0  0
 20 27  1  0  0  0  0
 22 23  1  6  0  0  0
 22 29  1  0  0  0  0
 24  2  1  1  0  0  0
 24 31  1  0  0  0  0
 25 26  1  0  0  0  0
 25 33  1  6  0  0  0
 27 28  1  1  0  0  0
 27 35  1  0  0  0  0
 29 30  1  0  0  0  0
 29 37  1  1  0  0  0
 31 32  1  6  0  0  0
 31 39  1  0  0  0  0
 33 34  1  0  0  0  0
 35 36  1  0  0  0  0
 35 41  1  1  0  0  0
 37 38  1  0  0  0  0
 39 40  1  1  0  0  0
 41 42  1  0  0  0  0
M  END
>  <CHROM.1>
-169.35674630,105.44665076,-175.92570598,171.63150263,54.11996516,168.80314035
-64.21607345,-176.82188600,-167.23991680,6.99267990,5.23945177,2.16418045
3.08775191,0.58707374,-2.86316596

>  <Name>
2o3w_lig

>  <RI>
0

>  <Rbt.Current_Directory>
/home/itssahil/PROJECTS/Mol_Feturizer/New_Systems/rnas/2o3w

>  <Rbt.Executable>
rbdock ($Id: //depot/dev/client3/rdock/2013.1/src/exe/rbdock.cxx#4 $)

>  <Rbt.Library>
libRbt.so (2013.1, Build901 2013/11/27)

>  <Rbt.Parameter_File>
/export/apps/rDock/src/rDock_2013.1_src/data/scripts/dock_solv.prm

>  <Rbt.Receptor>
prm/pocket_docking_4.prm

>  <SCORE>
-14.5594

>  <SCORE.INTER>
-5.63839

>  <SCORE.INTER.CONST>
1

>  <SCORE.INTER.POLAR>
-0.894427

>  <SCORE.INTER.ROT>
9

>  <SCORE.INTER.SOLV>
10.2448

>  <SCORE.INTER.VDW>
-13.7925

>  <SCORE.INTER.norm>
-0.134247

>  <SCORE.INTRA>
-8.96242

>  <SCORE.INTRA.DIHEDRAL>
-19.2892

>  <SCORE.INTRA.DIHEDRAL.0>
27.8999

>  <SCORE.INTRA.POLAR>
0

>  <SCORE.INTRA.POLAR.0>
0

>  <SCORE.INTRA.REPUL>
0

>  <SCORE.INTRA.REPUL.0>
0

>  <SCORE.INTRA.SOLV>
-1.51284

>  <SCORE.INTRA.SOLV.lig_0>
-104.479

>  <SCORE.INTRA.VDW>
1.43859

>  <SCORE.INTRA.VDW.0>
-6.17816

>  <SCORE.INTRA.norm>
-0.213391

>  <SCORE.RESTR>
0.0414277

>  <SCORE.RESTR.CAVITY>
0.0414277

>  <SCORE.RESTR.norm>
0.000986374

>  <SCORE.SYSTEM>
0

>  <SCORE.SYSTEM.CONST>
0

>  <SCORE.SYSTEM.DIHEDRAL>
0

>  <SCORE.SYSTEM.SOLV>
0

>  <SCORE.SYSTEM.norm>
0

>  <SCORE.heavy>
42

>  <SCORE.norm>
-0.346652

>  <RMSD>
8.994

$$$$
2o3w_lig
 OpenBabel11021811463D
libRbt.so/2013.1/901 2013/11/27
 42 45  0  0  0  0  0  0  0  0999 V2000
    8.7452    4.0273    4.9256 C   0  0  2  0  0  0  0  0  0  0  0  0
    8.2911    5.1329    4.1264 O   0  0  0  0  0  0  0  0  0  0  0  0
    9.1185    6.2052    0.0080 C   0  0  2  0  0  0  0  0  0  0  0  0
    9.8213    6.5711   -1.2580 N   0  0  0  0  0  0  0  0  0  0  0  0
    9.3274    1.9042    2.1534 C   0  0  1  0  0  0  0  0  0  0  0  0
    8.2472   -2.2972    2.2613 C   0  0  1  0  0  0  0  0  0  0  0  0
    8.0921    4.1837    6.3317 C   0  0  2  0  0  0  0  0  0  0  0  0
    6.6383    4.4104    6.2561 N   0  0  0  0  0  0  0  0  0  0  0  0
    9.3010    7.3249    1.1101 C   0  0  0  0  0  0  0  0  0  0  0  0
   10.2273    0.8751    2.9030 C   0  0  2  0  0  0  0  0  0  0  0  0
   11.4105    0.4800    2.1660 O   0  0  0  0  0  0  0  0  0  0  0  0
    8.5270   -3.2482    3.4803 C   0  0  2  0  0  0  0  0  0  0  0  0
    9.9106   -3.8068    3.4145 N   0  0  0  0  0  0  0  0  0  0  0  0
    8.6855    5.3634    7.1237 C   0  0  1  0  0  0  0  0  0  0  0  0
    8.0870    5.4446    8.4183 O   0  0  0  0  0  0  0  0  0  0  0  0
    8.5214    6.8937    2.4096 C   0  0  2  0  0  0  0  0  0  0  0  0
    8.6598    7.9333    3.4650 N   0  0  0  0  0  0  0  0  0  0  0  0
    9.2235   -0.2420    3.1923 C   0  0  2  0  0  0  0  0  0  0  0  0
    9.1882   -1.2269    2.1109 O   0  0  0  0  0  0  0  0  0  0  0  0
    7.4338   -4.4194    3.4990 C   0  0  1  0  0  0  0  0  0  0  0  0
    6.1707   -3.8725    3.9399 O   0  0  0  0  0  0  0  0  0  0  0  0
   10.2195    5.1999    7.2203 C   0  0  2  0  0  0  0  0  0  0  0  0
   10.7764    6.2636    7.9570 O   0  0  0  0  0  0  0  0  0  0  0  0
    9.0636    5.5124    2.9518 C   0  0  2  0  0  0  0  0  0  0  0  0
    7.8592    0.4471    3.3631 C   0  0  2  0  0  0  0  0  0  0  0  0
    7.9626    1.5811    2.5053 O   0  0  0  0  0  0  0  0  0  0  0  0
    7.2457   -5.1175    2.0690 C   0  0  2  0  0  0  0  0  0  0  0  0
    8.4351   -5.8549    1.7896 O   0  0  0  0  0  0  0  0  0  0  0  0
   10.8200    5.1536    5.7757 C   0  0  2  0  0  0  0  0  0  0  0  0
   10.2199    4.0484    5.0287 O   0  0  0  0  0  0  0  0  0  0  0  0
    8.9690    4.3798    1.9061 C   0  0  2  0  0  0  0  0  0  0  0  0
    9.6700    3.2525    2.4996 O   0  0  0  0  0  0  0  0  0  0  0  0
    7.5173    0.8772    4.8234 C   0  0  0  0  0  0  0  0  0  0  0  0
    7.5962   -0.2588    5.6791 O   0  0  0  0  0  0  0  0  0  0  0  0
    6.9994   -4.0357    0.9504 C   0  0  1  0  0  0  0  0  0  0  0  0
    8.1580   -3.1270    0.9978 O   0  0  0  0  0  0  0  0  0  0  0  0
   12.3221    4.9881    5.7754 C   0  0  0  0  0  0  0  0  0  0  0  0
   12.8114    5.0030    4.4564 O   0  0  0  0  0  0  0  0  0  0  0  0
    9.6642    4.8241    0.5514 C   0  0  1  0  0  0  0  0  0  0  0  0
    9.4449    3.8388   -0.4619 O   0  0  0  0  0  0  0  0  0  0  0  0
    6.8350   -4.6409   -0.5108 C   0  0  0  0  0  0  0  0  0  0  0  0
    6.5722   -3.6501   -1.5905 N   0  0  0  0  0  0  0  0  0  0  0  0
  1  2  1  6  0  0  0
  1  7  1  0  0  0  0
  1 30  1  0  0  0  0
  3  4  1  6  0  0  0
  3  9  1  0  0  0  0
  3 39  1  0  0  0  0
  5 10  1  0  0  0  0
  5 26  1  0  0  0  0
  5 32  1  1  0  0  0
  6 12  1  0  0  0  0
  6 36  1  0  0  0  0
  6 19  1  6  0  0  0
  7  8  1  6  0  0  0
  7 14  1  0  0  0  0
  9 16  1  0  0  0  0
 10 11  1  6  0  0  0
 10 18  1  0  0  0  0
 12 13  1  6  0  0  0
 12 20  1  0  0  0  0
 14 15  1  1  0  0  0
 14 22  1  0  0  0  0
 16 17  1  1  0  0  0
 16 24  1  0  0  0  0
 18 19  1  6  0  0  0
 18 25  1  0  0  0  0
 20 21  1  6  0  0  0
 20 27  1  0  0  0  0
 22 23  1  1  0  0  0
 22 29  1  0  0  0  0
 24  2  1  1  0  0  0
 24 31  1  0  0  0  0
 25 26  1  0  0  0  0
 25 33  1  1  0  0  0
 27 28  1  6  0  0  0
 27 35  1  0  0  0  0
 29 30  1  0  0  0  0
 29 37  1  1  0  0  0
 31 32  1  1  0  0  0
 31 39  1  0  0  0  0
 33 34  1  0  0  0  0
 35 36  1  0  0  0  0
 35 41  1  6  0  0  0
 37 38  1  0  0  0  0
 39 40  1  6  0  0  0
 41 42  1  0  0  0  0
M  END
>  <CHROM.1>
159.15743450,179.27436650,-64.29216450,-178.08545964,-169.64474947,-55.96293102
-177.81601157,152.35948080,178.77268193,8.89188360,1.79963210,3.24978414
0.26220694,1.37996361,1.57275543

>  <Name>
2o3w_lig

>  <RI>
0

>  <Rbt.Current_Directory>
/home/itssahil/PROJECTS/Mol_Feturizer/New_Systems/rnas/2o3w

>  <Rbt.Executable>
rbdock ($Id: //depot/dev/client3/rdock/2013.1/src/exe/rbdock.cxx#4 $)

>  <Rbt.Library>
libRbt.so (2013.1, Build901 2013/11/27)

>  <Rbt.Parameter_File>
/export/apps/rDock/src/rDock_2013.1_src/data/scripts/dock_solv.prm

>  <Rbt.Receptor>
prm/pocket_docking_7.prm

>  <SCORE>
-19.4346

>  <SCORE.INTER>
-7.3855

>  <SCORE.INTER.CONST>
1

>  <SCORE.INTER.POLAR>
-1.74483

>  <SCORE.INTER.ROT>
9

>  <SCORE.INTER.SOLV>
15.4702

>  <SCORE.INTER.VDW>
-13.8643

>  <SCORE.INTER.norm>
-0.175845

>  <SCORE.INTRA>
-12.0491

>  <SCORE.INTRA.DIHEDRAL>
-21.958

>  <SCORE.INTRA.DIHEDRAL.0>
27.8999

>  <SCORE.INTRA.POLAR>
0

>  <SCORE.INTRA.POLAR.0>
0

>  <SCORE.INTRA.REPUL>
0

>  <SCORE.INTRA.REPUL.0>
0

>  <SCORE.INTRA.SOLV>
-5.26008

>  <SCORE.INTRA.SOLV.lig_0>
-104.479

>  <SCORE.INTRA.VDW>
1.55993

>  <SCORE.INTRA.VDW.0>
-6.17816

>  <SCORE.INTRA.norm>
-0.286884

>  <SCORE.RESTR>
0

>  <SCORE.RESTR.CAVITY>
0

>  <SCORE.RESTR.norm>
0

>  <SCORE.SYSTEM>
0

>  <SCORE.SYSTEM.CONST>
0

>  <SCORE.SYSTEM.DIHEDRAL>
0

>  <SCORE.SYSTEM.SOLV>
0

>  <SCORE.SYSTEM.norm>
0

>  <SCORE.heavy>
42

>  <SCORE.norm>
-0.462729

>  <RMSD>
9.003

$$$$
2o3w_lig
 OpenBabel11021811463D
libRbt.so/2013.1/901 2013/11/27
 42 45  0  0  0  0  0  0  0  0999 V2000
    7.2192    6.1752    1.6359 C   0  0  2  0  0  0  0  0  0  0  0  0
    5.9135    5.6735    1.3031 O   0  0  0  0  0  0  0  0  0  0  0  0
    3.6565    2.3849    3.0022 C   0  0  2  0  0  0  0  0  0  0  0  0
    3.2316    1.0226    3.4428 N   0  0  0  0  0  0  0  0  0  0  0  0
    7.3002    4.7086    4.9572 C   0  0  1  0  0  0  0  0  0  0  0  0
   10.1425    5.2737    8.3031 C   0  0  1  0  0  0  0  0  0  0  0  0
    7.3119    7.6201    1.0598 C   0  0  2  0  0  0  0  0  0  0  0  0
    6.1538    8.4510    1.4325 N   0  0  0  0  0  0  0  0  0  0  0  0
    3.7512    2.4747    1.4258 C   0  0  0  0  0  0  0  0  0  0  0  0
    8.8352    4.5945    5.2050 C   0  0  2  0  0  0  0  0  0  0  0  0
    9.2575    3.3008    5.7018 O   0  0  0  0  0  0  0  0  0  0  0  0
    9.9468    4.8366    9.7996 C   0  0  2  0  0  0  0  0  0  0  0  0
    9.0031    5.7551   10.5045 N   0  0  0  0  0  0  0  0  0  0  0  0
    7.3914    7.6320   -0.4779 C   0  0  1  0  0  0  0  0  0  0  0  0
    7.5149    8.9715   -0.9592 O   0  0  0  0  0  0  0  0  0  0  0  0
    4.1803    3.9362    1.0229 C   0  0  2  0  0  0  0  0  0  0  0  0
    4.2654    4.0609   -0.4573 N   0  0  0  0  0  0  0  0  0  0  0  0
    9.0725    5.7755    6.1474 C   0  0  2  0  0  0  0  0  0  0  0  0
    8.9285    5.3824    7.5494 O   0  0  0  0  0  0  0  0  0  0  0  0
   11.3717    4.8032   10.5313 C   0  0  1  0  0  0  0  0  0  0  0  0
   12.1087    3.6502   10.0664 O   0  0  0  0  0  0  0  0  0  0  0  0
    8.5772    6.7547   -0.9398 C   0  0  2  0  0  0  0  0  0  0  0  0
    8.6740    6.7687   -2.3451 O   0  0  0  0  0  0  0  0  0  0  0  0
    5.5749    4.3048    1.6670 C   0  0  2  0  0  0  0  0  0  0  0  0
    8.0362    6.8435    5.7590 C   0  0  2  0  0  0  0  0  0  0  0  0
    6.9357    6.0676    5.2907 O   0  0  0  0  0  0  0  0  0  0  0  0
   12.2338    6.1294   10.2750 C   0  0  2  0  0  0  0  0  0  0  0  0
   11.5933    7.2003   10.9674 O   0  0  0  0  0  0  0  0  0  0  0  0
    8.3678    5.2955   -0.4143 C   0  0  2  0  0  0  0  0  0  0  0  0
    8.2609    5.3086    1.0446 O   0  0  0  0  0  0  0  0  0  0  0  0
    5.5740    4.1844    3.2067 C   0  0  2  0  0  0  0  0  0  0  0  0
    6.9595    4.3740    3.6055 O   0  0  0  0  0  0  0  0  0  0  0  0
    8.5113    7.8569    4.6720 C   0  0  0  0  0  0  0  0  0  0  0  0
    9.7528    8.4288    5.0725 O   0  0  0  0  0  0  0  0  0  0  0  0
   12.3175    6.4488    8.7345 C   0  0  1  0  0  0  0  0  0  0  0  0
   10.9262    6.5688    8.2653 O   0  0  0  0  0  0  0  0  0  0  0  0
    9.4896    4.3661   -0.8161 C   0  0  0  0  0  0  0  0  0  0  0  0
   10.7123    4.8286   -0.2961 O   0  0  0  0  0  0  0  0  0  0  0  0
    5.0540    2.7515    3.6449 C   0  0  1  0  0  0  0  0  0  0  0  0
    4.9096    2.6925    5.0666 O   0  0  0  0  0  0  0  0  0  0  0  0
   13.1295    7.7721    8.3907 C   0  0  0  0  0  0  0  0  0  0  0  0
   14.5769    7.7460    8.7385 N   0  0  0  0  0  0  0  0  0  0  0  0
  1  2  1  6  0  0  0
  1  7  1  0  0  0  0
  1 30  1  0  0  0  0
  3  4  1  6  0  0  0
  3  9  1  0  0  0  0
  3 39  1  0  0  0  0
  5 10  1  0  0  0  0
  5 26  1  0  0  0  0
  5 32  1  6  0  0  0
  6 12  1  0  0  0  0
  6 36  1  0  0  0  0
  6 19  1  1  0  0  0
  7  8  1  6  0  0  0
  7 14  1  0  0  0  0
  9 16  1  0  0  0  0
 10 11  1  1  0  0  0
 10 18  1  0  0  0  0
 12 13  1  1  0  0  0
 12 20  1  0  0  0  0
 14 15  1  1  0  0  0
 14 22  1  0  0  0  0
 16 17  1  6  0  0  0
 16 24  1  0  0  0  0
 18 19  1  1  0  0  0
 18 25  1  0  0  0  0
 20 21  1  6  0  0  0
 20 27  1  0  0  0  0
 22 23  1  6  0  0  0
 22 29  1  0  0  0  0
 24  2  1  1  0  0  0
 24 31  1  0  0  0  0
 25 26  1  0  0  0  0
 25 33  1  6  0  0  0
 27 28  1  1  0  0  0
 27 35  1  0  0  0  0
 29 30  1  0  0  0  0
 29 37  1  1  0  0  0
 31 32  1  6  0  0  0
 31 39  1  0  0  0  0
 33 34  1  0  0  0  0
 35 36  1  0  0  0  0
 35 41  1  1  0  0  0
 37 38  1  0  0  0  0
 39 40  1  1  0  0  0
 41 42  1  0  0  0  0
M  END
>  <CHROM.1>
177.03278413,169.19799213,-179.45819841,106.33636398,-172.28083699,-52.67722018
60.14232397,161.98467049,64.40310134,8.28605189,5.47130373,4.30233819,-2.23676441
0.63960609,1.90587210

>  <Name>
2o3w_lig

>  <RI>
0

>  <Rbt.Current_Directory>
/home/itssahil/PROJECTS/Mol_Feturizer/New_Systems/rnas/2o3w

>  <Rbt.Executable>
rbdock ($Id: //depot/dev/client3/rdock/2013.1/src/exe/rbdock.cxx#4 $)

>  <Rbt.Library>
libRbt.so (2013.1, Build901 2013/11/27)

>  <Rbt.Parameter_File>
/export/apps/rDock/src/rDock_2013.1_src/data/scripts/dock_solv.prm

>  <Rbt.Receptor>
prm/pocket_docking_8.prm

>  <SCORE>
-21.3424

>  <SCORE.INTER>
-10.9295

>  <SCORE.INTER.CONST>
1

>  <SCORE.INTER.POLAR>
-2.27025

>  <SCORE.INTER.ROT>
9

>  <SCORE.INTER.SOLV>
12.3329

>  <SCORE.INTER.VDW>
-13.4298

>  <SCORE.INTER.norm>
-0.260227

>  <SCORE.INTRA>
-10.4129

>  <SCORE.INTRA.DIHEDRAL>
-18.8215

>  <SCORE.INTRA.DIHEDRAL.0>
27.8999

>  <SCORE.INTRA.POLAR>
0

>  <SCORE.INTRA.POLAR.0>
0

>  <SCORE.INTRA.REPUL>
0

>  <SCORE.INTRA.REPUL.0>
0

>  <SCORE.INTRA.SOLV>
-5.52715

>  <SCORE.INTRA.SOLV.lig_0>
-104.479

>  <SCORE.INTRA.VDW>
1.76142

>  <SCORE.INTRA.VDW.0>
-6.17816

>  <SCORE.INTRA.norm>
-0.247927

>  <SCORE.RESTR>
0

>  <SCORE.RESTR.CAVITY>
0

>  <SCORE.RESTR.norm>
0

>  <SCORE.SYSTEM>
0

>  <SCORE.SYSTEM.CONST>
0

>  <SCORE.SYSTEM.DIHEDRAL>
0

>  <SCORE.SYSTEM.SOLV>
0

>  <SCORE.SYSTEM.norm>
0

>  <SCORE.heavy>
42

>  <SCORE.norm>
-0.508153

>  <RMSD>
9.025

$$$$
2o3w_lig
 OpenBabel11021811463D
libRbt.so/2013.1/901 2013/11/27
 42 45  0  0  0  0  0  0  0  0999 V2000
    7.2897    6.3491    0.0968 C   0  0  2  0  0  0  0  0  0  0  0  0
    7.5943    7.2046    1.2116 O   0  0  0  0  0  0  0  0  0  0  0  0
    7.3150    7.0593    5.5356 C   0  0  2  0  0  0  0  0  0  0  0  0
    6.8818    6.7356    6.9277 N   0  0  0  0  0  0  0  0  0  0  0  0
    7.2223    3.7338    2.6785 C   0  0  1  0  0  0  0  0  0  0  0  0
    5.1432   -0.0332    3.1213 C   0  0  1  0  0  0  0  0  0  0  0  0
    8.2227    6.7790   -1.0749 C   0  0  2  0  0  0  0  0  0  0  0  0
    9.6343    6.8770   -0.6646 N   0  0  0  0  0  0  0  0  0  0  0  0
    6.1882    7.8457    4.7521 C   0  0  0  0  0  0  0  0  0  0  0  0
    7.3373    2.6441    1.5693 C   0  0  2  0  0  0  0  0  0  0  0  0
    6.5053    2.8935    0.4097 O   0  0  0  0  0  0  0  0  0  0  0  0
    5.6425   -1.4263    2.5931 C   0  0  2  0  0  0  0  0  0  0  0  0
    5.2469   -1.6291    1.1672 N   0  0  0  0  0  0  0  0  0  0  0  0
    7.8333    8.1492   -1.6594 C   0  0  1  0  0  0  0  0  0  0  0  0
    8.6882    8.4842   -2.7539 O   0  0  0  0  0  0  0  0  0  0  0  0
    6.7109    8.1772    3.3031 C   0  0  2  0  0  0  0  0  0  0  0  0
    5.6793    8.9313    2.5410 N   0  0  0  0  0  0  0  0  0  0  0  0
    7.0072    1.3780    2.3614 C   0  0  2  0  0  0  0  0  0  0  0  0
    5.5729    1.0897    2.3415 O   0  0  0  0  0  0  0  0  0  0  0  0
    5.0515   -2.5878    3.5251 C   0  0  1  0  0  0  0  0  0  0  0  0
    5.7523   -2.5746    4.7891 O   0  0  0  0  0  0  0  0  0  0  0  0
    6.3490    8.1230   -2.0901 C   0  0  2  0  0  0  0  0  0  0  0  0
    5.9812    9.3654   -2.6430 O   0  0  0  0  0  0  0  0  0  0  0  0
    7.0796    6.8514    2.5271 C   0  0  2  0  0  0  0  0  0  0  0  0
    7.5048    1.6319    3.7943 C   0  0  2  0  0  0  0  0  0  0  0  0
    7.3539    3.0419    3.9415 O   0  0  0  0  0  0  0  0  0  0  0  0
    3.4773   -2.4374    3.7835 C   0  0  2  0  0  0  0  0  0  0  0  0
    2.8106   -2.7068    2.5509 O   0  0  0  0  0  0  0  0  0  0  0  0
    5.4620    7.7874   -0.8450 C   0  0  2  0  0  0  0  0  0  0  0  0
    5.8690    6.4993   -0.2839 O   0  0  0  0  0  0  0  0  0  0  0  0
    8.1372    6.0006    3.2639 C   0  0  2  0  0  0  0  0  0  0  0  0
    8.2144    4.7558    2.5164 O   0  0  0  0  0  0  0  0  0  0  0  0
    8.9771    1.1935    4.0671 C   0  0  0  0  0  0  0  0  0  0  0  0
    9.8484    1.8984    3.1879 O   0  0  0  0  0  0  0  0  0  0  0  0
    3.1324   -0.9838    4.2836 C   0  0  1  0  0  0  0  0  0  0  0  0
    3.6345   -0.0647    3.2475 O   0  0  0  0  0  0  0  0  0  0  0  0
    3.9888    7.7347   -1.1778 C   0  0  0  0  0  0  0  0  0  0  0  0
    3.7512    6.7711   -2.1750 O   0  0  0  0  0  0  0  0  0  0  0  0
    7.6807    5.7313    4.7589 C   0  0  1  0  0  0  0  0  0  0  0  0
    8.7251    5.0754    5.4831 O   0  0  0  0  0  0  0  0  0  0  0  0
    1.5817   -0.7357    4.5335 C   0  0  0  0  0  0  0  0  0  0  0  0
    0.9538   -1.5941    5.5754 N   0  0  0  0  0  0  0  0  0  0  0  0
  1  2  1  1  0  0  0
  1  7  1  0  0  0  0
  1 30  1  0  0  0  0
  3  4  1  1  0  0  0
  3  9  1  0  0  0  0
  3 39  1  0  0  0  0
  5 10  1  0  0  0  0
  5 26  1  0  0  0  0
  5 32  1  6  0  0  0
  6 12  1  0  0  0  0
  6 36  1  0  0  0  0
  6 19  1  6  0  0  0
  7  8  1  1  0  0  0
  7 14  1  0  0  0  0
  9 16  1  0  0  0  0
 10 11  1  6  0  0  0
 10 18  1  0  0  0  0
 12 13  1  6  0  0  0
 12 20  1  0  0  0  0
 14 15  1  6  0  0  0
 14 22  1  0  0  0  0
 16 17  1  6  0  0  0
 16 24  1  0  0  0  0
 18 19  1  1  0  0  0
 18 25  1  0  0  0  0
 20 21  1  1  0  0  0
 20 27  1  0  0  0  0
 22 23  1  1  0  0  0
 22 29  1  0  0  0  0
 24  2  1  6  0  0  0
 24 31  1  0  0  0  0
 25 26  1  0  0  0  0
 25 33  1  6  0  0  0
 27 28  1  6  0  0  0
 27 35  1  0  0  0  0
 29 30  1  0  0  0  0
 29 37  1  6  0  0  0
 31 32  1  6  0  0  0
 31 39  1  0  0  0  0
 33 34  1  0  0  0  0
 35 36  1  0  0  0  0
 35 41  1  6  0  0  0
 37 38  1  0  0  0  0
 39 40  1  1  0  0  0
 41 42  1  0  0  0  0
M  END
>  <CHROM.1>
-167.14034903,167.70323454,-67.22116838,-176.40846585,-144.49330237,59.46724610
58.40973643,-78.65487185,61.49687095,6.26365434,3.80375476,2.13946990,1.08753183
-0.98352157,-0.80870378

>  <Name>
2o3w_lig

>  <RI>
0

>  <Rbt.Current_Directory>
/home/itssahil/PROJECTS/Mol_Feturizer/New_Systems/rnas/2o3w

>  <Rbt.Executable>
rbdock ($Id: //depot/dev/client3/rdock/2013.1/src/exe/rbdock.cxx#4 $)

>  <Rbt.Library>
libRbt.so (2013.1, Build901 2013/11/27)

>  <Rbt.Parameter_File>
/export/apps/rDock/src/rDock_2013.1_src/data/scripts/dock_solv.prm

>  <Rbt.Receptor>
prm/pocket_docking_6.prm

>  <SCORE>
-18.8277

>  <SCORE.INTER>
-9.34485

>  <SCORE.INTER.CONST>
1

>  <SCORE.INTER.POLAR>
-2.72282

>  <SCORE.INTER.ROT>
9

>  <SCORE.INTER.SOLV>
16.5881

>  <SCORE.INTER.VDW>
-12.2832

>  <SCORE.INTER.norm>
-0.222496

>  <SCORE.INTRA>
-9.48287

>  <SCORE.INTRA.DIHEDRAL>
-19.7499

>  <SCORE.INTRA.DIHEDRAL.0>
27.8999

>  <SCORE.INTRA.POLAR>
0

>  <SCORE.INTRA.POLAR.0>
0

>  <SCORE.INTRA.REPUL>
0

>  <SCORE.INTRA.REPUL.0>
0

>  <SCORE.INTRA.SOLV>
-2.99282

>  <SCORE.INTRA.SOLV.lig_0>
-104.479

>  <SCORE.INTRA.VDW>
1.88851

>  <SCORE.INTRA.VDW.0>
-6.17816

>  <SCORE.INTRA.norm>
-0.225783

>  <SCORE.RESTR>
0

>  <SCORE.RESTR.CAVITY>
0

>  <SCORE.RESTR.norm>
0

>  <SCORE.SYSTEM>
0

>  <SCORE.SYSTEM.CONST>
0

>  <SCORE.SYSTEM.DIHEDRAL>
0

>  <SCORE.SYSTEM.SOLV>
0

>  <SCORE.SYSTEM.norm>
0

>  <SCORE.heavy>
42

>  <SCORE.norm>
-0.448279

>  <RMSD>
9.039

$$$$
2o3w_lig
 OpenBabel11021811463D
libRbt.so/2013.1/901 2013/11/27
 42 45  0  0  0  0  0  0  0  0999 V2000
    8.0202    7.0890    2.0955 C   0  0  2  0  0  0  0  0  0  0  0  0
    6.7122    6.5032    2.2110 O   0  0  0  0  0  0  0  0  0  0  0  0
    4.6155    4.7120    5.5564 C   0  0  2  0  0  0  0  0  0  0  0  0
    4.2621    3.8468    6.7212 N   0  0  0  0  0  0  0  0  0  0  0  0
    8.8144    5.9884    5.2661 C   0  0  1  0  0  0  0  0  0  0  0  0
   12.4274    3.6722    5.6674 C   0  0  1  0  0  0  0  0  0  0  0  0
    7.8907    8.3044    1.1289 C   0  0  2  0  0  0  0  0  0  0  0  0
    6.7794    9.1998    1.4948 N   0  0  0  0  0  0  0  0  0  0  0  0
    4.7414    3.8629    4.2279 C   0  0  0  0  0  0  0  0  0  0  0  0
    9.1816    4.9408    4.1714 C   0  0  2  0  0  0  0  0  0  0  0  0
    8.4435    3.6983    4.2736 O   0  0  0  0  0  0  0  0  0  0  0  0
   12.8709    2.2439    6.1491 C   0  0  2  0  0  0  0  0  0  0  0  0
   12.0349    1.7851    7.2987 N   0  0  0  0  0  0  0  0  0  0  0  0
    7.6498    7.8690   -0.3282 C   0  0  1  0  0  0  0  0  0  0  0  0
    7.5774    9.0112   -1.1831 O   0  0  0  0  0  0  0  0  0  0  0  0
    5.0922    4.8306    3.0350 C   0  0  2  0  0  0  0  0  0  0  0  0
    5.2042    4.0656    1.7639 N   0  0  0  0  0  0  0  0  0  0  0  0
   10.6950    4.8296    4.3624 C   0  0  2  0  0  0  0  0  0  0  0  0
   11.0405    3.7824    5.3240 O   0  0  0  0  0  0  0  0  0  0  0  0
   14.4233    2.2774    6.5437 C   0  0  1  0  0  0  0  0  0  0  0  0
   15.2114    2.3496    5.3343 O   0  0  0  0  0  0  0  0  0  0  0  0
    8.7730    6.9035   -0.7703 C   0  0  2  0  0  0  0  0  0  0  0  0
    8.5762    6.5086   -2.1081 O   0  0  0  0  0  0  0  0  0  0  0  0
    6.4471    5.5928    3.3161 C   0  0  2  0  0  0  0  0  0  0  0  0
   11.1639    6.2108    4.8502 C   0  0  2  0  0  0  0  0  0  0  0  0
   10.0378    6.6931    5.5793 O   0  0  0  0  0  0  0  0  0  0  0  0
   14.7956    3.5080    7.5001 C   0  0  2  0  0  0  0  0  0  0  0  0
   14.1933    3.2638    8.7706 O   0  0  0  0  0  0  0  0  0  0  0  0
    8.7792    5.6588    0.1786 C   0  0  2  0  0  0  0  0  0  0  0  0
    8.9752    6.0951    1.5610 O   0  0  0  0  0  0  0  0  0  0  0  0
    6.4175    6.4015    4.6316 C   0  0  2  0  0  0  0  0  0  0  0  0
    7.7796    6.8745    4.8199 O   0  0  0  0  0  0  0  0  0  0  0  0
   11.5682    7.2060    3.7187 C   0  0  0  0  0  0  0  0  0  0  0  0
   11.2599    8.5349    4.1287 O   0  0  0  0  0  0  0  0  0  0  0  0
   14.2638    4.8623    6.8958 C   0  0  1  0  0  0  0  0  0  0  0  0
   12.8112    4.6899    6.7210 O   0  0  0  0  0  0  0  0  0  0  0  0
    9.8560    4.6605   -0.1787 C   0  0  0  0  0  0  0  0  0  0  0  0
    9.4471    3.8774   -1.2736 O   0  0  0  0  0  0  0  0  0  0  0  0
    5.9734    5.4720    5.8376 C   0  0  1  0  0  0  0  0  0  0  0  0
    5.7997    6.2520    7.0237 O   0  0  0  0  0  0  0  0  0  0  0  0
   14.5612    6.1360    7.8002 C   0  0  0  0  0  0  0  0  0  0  0  0
   14.1148    7.4406    7.2388 N   0  0  0  0  0  0  0  0  0  0  0  0
  1  2  1  6  0  0  0
  1  7  1  0  0  0  0
  1 30  1  0  0  0  0
  3  4  1  1  0  0  0
  3  9  1  0  0  0  0
  3 39  1  0  0  0  0
  5 10  1  0  0  0  0
  5 26  1  0  0  0  0
  5 32  1  6  0  0  0
  6 12  1  0  0  0  0
  6 36  1  0  0  0  0
  6 19  1  1  0  0  0
  7  8  1  1  0  0  0
  7 14  1  0  0  0  0
  9 16  1  0  0  0  0
 10 11  1  1  0  0  0
 10 18  1  0  0  0  0
 12 13  1  1  0  0  0
 12 20  1  0  0  0  0
 14 15  1  6  0  0  0
 14 22  1  0  0  0  0
 16 17  1  6  0  0  0
 16 24  1  0  0  0  0
 18 19  1  1  0  0  0
 18 25  1  0  0  0  0
 20 21  1  6  0  0  0
 20 27  1  0  0  0  0
 22 23  1  6  0  0  0
 22 29  1  0  0  0  0
 24  2  1  6  0  0  0
 24 31  1  0  0  0  0
 25 26  1  0  0  0  0
 25 33  1  6  0  0  0
 27 28  1  1  0  0  0
 27 35  1  0  0  0  0
 29 30  1  0  0  0  0
 29 37  1  6  0  0  0
 31 32  1  1  0  0  0
 31 39  1  0  0  0  0
 33 34  1  0  0  0  0
 35 36  1  0  0  0  0
 35 41  1  1  0  0  0
 37 38  1  0  0  0  0
 39 40  1  1  0  0  0
 41 42  1  0  0  0  0
M  END
>  <CHROM.1>
-163.23237020,69.59606290,-154.27351429,-174.66419557,-166.62801239,147.74954001
-79.16473519,-75.44823925,177.97089994,9.52656607,5.43170114,3.96865057,-2.40266675
-0.04574729,1.93992693

>  <Name>
2o3w_lig

>  <RI>
0

>  <Rbt.Current_Directory>
/home/itssahil/PROJECTS/Mol_Feturizer/New_Systems/rnas/2o3w

>  <Rbt.Executable>
rbdock ($Id: //depot/dev/client3/rdock/2013.1/src/exe/rbdock.cxx#4 $)

>  <Rbt.Library>
libRbt.so (2013.1, Build901 2013/11/27)

>  <Rbt.Parameter_File>
/export/apps/rDock/src/rDock_2013.1_src/data/scripts/dock_solv.prm

>  <Rbt.Receptor>
prm/pocket_docking_8.prm

>  <SCORE>
-23.1788

>  <SCORE.INTER>
-14.6144

>  <SCORE.INTER.CONST>
1

>  <SCORE.INTER.POLAR>
-2.30716

>  <SCORE.INTER.ROT>
9

>  <SCORE.INTER.SOLV>
19.9039

>  <SCORE.INTER.VDW>
-18.2871

>  <SCORE.INTER.norm>
-0.347963

>  <SCORE.INTRA>
-8.56439

>  <SCORE.INTRA.DIHEDRAL>
-16.9963

>  <SCORE.INTRA.DIHEDRAL.0>
27.8999

>  <SCORE.INTRA.POLAR>
0

>  <SCORE.INTRA.POLAR.0>
0

>  <SCORE.INTRA.REPUL>
0

>  <SCORE.INTRA.REPUL.0>
0

>  <SCORE.INTRA.SOLV>
-3.53665

>  <SCORE.INTRA.SOLV.lig_0>
-104.479

>  <SCORE.INTRA.VDW>
1.70207

>  <SCORE.INTRA.VDW.0>
-6.17816

>  <SCORE.INTRA.norm>
-0.203914

>  <SCORE.RESTR>
0

>  <SCORE.RESTR.CAVITY>
0

>  <SCORE.RESTR.norm>
0

>  <SCORE.SYSTEM>
0

>  <SCORE.SYSTEM.CONST>
0

>  <SCORE.SYSTEM.DIHEDRAL>
0

>  <SCORE.SYSTEM.SOLV>
0

>  <SCORE.SYSTEM.norm>
0

>  <SCORE.heavy>
42

>  <SCORE.norm>
-0.551877

>  <RMSD>
9.076

$$$$
2o3w_lig
 OpenBabel11021811463D
libRbt.so/2013.1/901 2013/11/27
 42 45  0  0  0  0  0  0  0  0999 V2000
    9.0556    8.1228    5.8247 C   0  0  2  0  0  0  0  0  0  0  0  0
    9.3180    7.2749    6.9559 O   0  0  0  0  0  0  0  0  0  0  0  0
   13.5313    8.1196    7.5307 C   0  0  2  0  0  0  0  0  0  0  0  0
   14.8896    8.2576    8.1360 N   0  0  0  0  0  0  0  0  0  0  0  0
   11.3627    3.9476    6.5287 C   0  0  1  0  0  0  0  0  0  0  0  0
   11.1276    0.2930    4.2588 C   0  0  1  0  0  0  0  0  0  0  0  0
    7.6909    7.6703    5.2237 C   0  0  2  0  0  0  0  0  0  0  0  0
    6.6343    7.5596    6.2444 N   0  0  0  0  0  0  0  0  0  0  0  0
   12.4870    9.0719    8.2408 C   0  0  0  0  0  0  0  0  0  0  0  0
   11.0244    2.6117    7.2579 C   0  0  2  0  0  0  0  0  0  0  0  0
   12.1437    2.0292    7.9700 O   0  0  0  0  0  0  0  0  0  0  0  0
   10.0828   -0.8525    4.5139 C   0  0  2  0  0  0  0  0  0  0  0  0
   10.5828   -1.8109    5.5446 N   0  0  0  0  0  0  0  0  0  0  0  0
    7.7842    6.2990    4.5295 C   0  0  1  0  0  0  0  0  0  0  0  0
    6.5232    5.9430    3.9601 O   0  0  0  0  0  0  0  0  0  0  0  0
   11.0835    8.8983    7.5462 C   0  0  2  0  0  0  0  0  0  0  0  0
   10.0778    9.7923    8.1810 N   0  0  0  0  0  0  0  0  0  0  0  0
   10.4666    1.7766    6.1043 C   0  0  2  0  0  0  0  0  0  0  0  0
   11.5201    1.0151    5.4327 O   0  0  0  0  0  0  0  0  0  0  0  0
    9.7730   -1.6027    3.1325 C   0  0  1  0  0  0  0  0  0  0  0  0
    8.9526   -0.7445    2.3085 O   0  0  0  0  0  0  0  0  0  0  0  0
    8.8967    6.3385    3.4572 C   0  0  2  0  0  0  0  0  0  0  0  0
    8.9836    5.0952    2.8007 O   0  0  0  0  0  0  0  0  0  0  0  0
   10.5958    7.3988    7.6430 C   0  0  2  0  0  0  0  0  0  0  0  0
    9.8001    2.7739    5.1418 C   0  0  2  0  0  0  0  0  0  0  0  0
   10.5797    3.9552    5.3129 O   0  0  0  0  0  0  0  0  0  0  0  0
   11.1013   -2.0046    2.3315 C   0  0  2  0  0  0  0  0  0  0  0  0
   11.7520   -3.0396    3.0677 O   0  0  0  0  0  0  0  0  0  0  0  0
   10.2562    6.6970    4.1449 C   0  0  2  0  0  0  0  0  0  0  0  0
   10.1377    7.9857    4.8268 O   0  0  0  0  0  0  0  0  0  0  0  0
   11.5963    6.4021    7.0179 C   0  0  2  0  0  0  0  0  0  0  0  0
   11.0848    5.0839    7.3573 O   0  0  0  0  0  0  0  0  0  0  0  0
    8.2909    3.0519    5.4233 C   0  0  0  0  0  0  0  0  0  0  0  0
    8.1513    3.6193    6.7223 O   0  0  0  0  0  0  0  0  0  0  0  0
   12.0563   -0.7608    2.1792 C   0  0  1  0  0  0  0  0  0  0  0  0
   12.3317   -0.2865    3.5465 O   0  0  0  0  0  0  0  0  0  0  0  0
   11.4040    6.7639    3.1642 C   0  0  0  0  0  0  0  0  0  0  0  0
   12.6137    6.9839    3.8480 O   0  0  0  0  0  0  0  0  0  0  0  0
   13.0429    6.6189    7.6311 C   0  0  1  0  0  0  0  0  0  0  0  0
   13.9967    5.8026    6.9460 O   0  0  0  0  0  0  0  0  0  0  0  0
   13.4185   -1.0790    1.4231 C   0  0  0  0  0  0  0  0  0  0  0  0
   14.2826   -2.1090    2.0625 N   0  0  0  0  0  0  0  0  0  0  0  0
  1  2  1  1  0  0  0
  1  7  1  0  0  0  0
  1 30  1  0  0  0  0
  3  4  1  1  0  0  0
  3  9  1  0  0  0  0
  3 39  1  0  0  0  0
  5 10  1  0  0  0  0
  5 26  1  0  0  0  0
  5 32  1  1  0  0  0
  6 12  1  0  0  0  0
  6 36  1  0  0  0  0
  6 19  1  1  0  0  0
  7  8  1  1  0  0  0
  7 14  1  0  0  0  0
  9 16  1  0  0  0  0
 10 11  1  6  0  0  0
 10 18  1  0  0  0  0
 12 13  1  1  0  0  0
 12 20  1  0  0  0  0
 14 15  1  6  0  0  0
 14 22  1  0  0  0  0
 16 17  1  1  0  0  0
 16 24  1  0  0  0  0
 18 19  1  6  0  0  0
 18 25  1  0  0  0  0
 20 21  1  6  0  0  0
 20 27  1  0  0  0  0
 22 23  1  1  0  0  0
 22 29  1  0  0  0  0
 24  2  1  6  0  0  0
 24 31  1  0  0  0  0
 25 26  1  0  0  0  0
 25 33  1  1  0  0  0
 27 28  1  1  0  0  0
 27 35  1  0  0  0  0
 29 30  1  0  0  0  0
 29 37  1  6  0  0  0
 31 32  1  1  0  0  0
 31 39  1  0  0  0  0
 33 34  1  0  0  0  0
 35 36  1  0  0  0  0
 35 41  1  1  0  0  0
 37 38  1  0  0  0  0
 39 40  1  6  0  0  0
 41 42  1  0  0  0  0
M  END
>  <CHROM.1>
174.60897300,165.90317056,-64.00428176,-174.45584216,31.56597934,61.43168717
-175.36311053,152.84320671,-60.03342550,10.72472275,4.00047578,5.26084233
1.65465509,-0.38585193,0.38449924

>  <Name>
2o3w_lig

>  <RI>
0

>  <Rbt.Current_Directory>
/home/itssahil/PROJECTS/Mol_Feturizer/New_Systems/rnas/2o3w

>  <Rbt.Executable>
rbdock ($Id: //depot/dev/client3/rdock/2013.1/src/exe/rbdock.cxx#4 $)

>  <Rbt.Library>
libRbt.so (2013.1, Build901 2013/11/27)

>  <Rbt.Parameter_File>
/export/apps/rDock/src/rDock_2013.1_src/data/scripts/dock_solv.prm

>  <Rbt.Receptor>
prm/pocket_docking_8.prm

>  <SCORE>
-22.4819

>  <SCORE.INTER>
-11.7764

>  <SCORE.INTER.CONST>
1

>  <SCORE.INTER.POLAR>
-2.28106

>  <SCORE.INTER.ROT>
9

>  <SCORE.INTER.SOLV>
11.8221

>  <SCORE.INTER.VDW>
-13.7881

>  <SCORE.INTER.norm>
-0.280389

>  <SCORE.INTRA>
-10.7056

>  <SCORE.INTRA.DIHEDRAL>
-20.0209

>  <SCORE.INTRA.DIHEDRAL.0>
27.8999

>  <SCORE.INTRA.POLAR>
0

>  <SCORE.INTRA.POLAR.0>
0

>  <SCORE.INTRA.REPUL>
0

>  <SCORE.INTRA.REPUL.0>
0

>  <SCORE.INTRA.SOLV>
-1.00225

>  <SCORE.INTRA.SOLV.lig_0>
-104.479

>  <SCORE.INTRA.VDW>
-0.193966

>  <SCORE.INTRA.VDW.0>
-6.17816

>  <SCORE.INTRA.norm>
-0.254894

>  <SCORE.RESTR>
0

>  <SCORE.RESTR.CAVITY>
0

>  <SCORE.RESTR.norm>
0

>  <SCORE.SYSTEM>
0

>  <SCORE.SYSTEM.CONST>
0

>  <SCORE.SYSTEM.DIHEDRAL>
0

>  <SCORE.SYSTEM.SOLV>
0

>  <SCORE.SYSTEM.norm>
0

>  <SCORE.heavy>
42

>  <SCORE.norm>
-0.535284

>  <RMSD>
9.081

$$$$
2o3w_lig
 OpenBabel11021811463D
libRbt.so/2013.1/901 2013/11/27
 42 45  0  0  0  0  0  0  0  0999 V2000
    6.5416    6.2699    3.2603 C   0  0  2  0  0  0  0  0  0  0  0  0
    5.7834    5.3768    2.4267 O   0  0  0  0  0  0  0  0  0  0  0  0
    5.2303    1.0806    2.2459 C   0  0  2  0  0  0  0  0  0  0  0  0
    5.4797   -0.3919    2.2489 N   0  0  0  0  0  0  0  0  0  0  0  0
    7.5422    3.4408    5.1381 C   0  0  1  0  0  0  0  0  0  0  0  0
   11.8985    3.4235    5.9827 C   0  0  1  0  0  0  0  0  0  0  0  0
    5.7127    7.5828    3.3923 C   0  0  2  0  0  0  0  0  0  0  0  0
    4.3121    7.3295    3.7725 N   0  0  0  0  0  0  0  0  0  0  0  0
    5.9473    1.7817    1.0226 C   0  0  0  0  0  0  0  0  0  0  0  0
    8.6141    4.1358    4.2442 C   0  0  2  0  0  0  0  0  0  0  0  0
    8.9685    3.3843    3.0573 O   0  0  0  0  0  0  0  0  0  0  0  0
   12.8792    2.1962    5.9543 C   0  0  2  0  0  0  0  0  0  0  0  0
   12.2095    0.9660    6.4728 N   0  0  0  0  0  0  0  0  0  0  0  0
    5.6788    8.3869    2.0795 C   0  0  1  0  0  0  0  0  0  0  0  0
    4.9434    9.5987    2.2574 O   0  0  0  0  0  0  0  0  0  0  0  0
    5.6297    3.3245    1.0609 C   0  0  2  0  0  0  0  0  0  0  0  0
    6.2781    4.0148   -0.0865 N   0  0  0  0  0  0  0  0  0  0  0  0
    9.7441    4.3548    5.2514 C   0  0  2  0  0  0  0  0  0  0  0  0
   10.6656    3.2187    5.2816 O   0  0  0  0  0  0  0  0  0  0  0  0
   14.1870    2.5445    6.8119 C   0  0  1  0  0  0  0  0  0  0  0  0
   14.9969    3.4828    6.0686 O   0  0  0  0  0  0  0  0  0  0  0  0
    7.1242    8.6676    1.6093 C   0  0  2  0  0  0  0  0  0  0  0  0
    7.1105    9.4177    0.4170 O   0  0  0  0  0  0  0  0  0  0  0  0
    6.1317    3.9629    2.4160 C   0  0  2  0  0  0  0  0  0  0  0  0
    9.0635    4.5567    6.6157 C   0  0  2  0  0  0  0  0  0  0  0  0
    7.8825    3.7658    6.5055 O   0  0  0  0  0  0  0  0  0  0  0  0
   13.8416    3.1574    8.2516 C   0  0  2  0  0  0  0  0  0  0  0  0
   13.2663    2.1143    9.0372 O   0  0  0  0  0  0  0  0  0  0  0  0
    7.8657    7.3057    1.3975 C   0  0  2  0  0  0  0  0  0  0  0  0
    7.8581    6.5422    2.6452 O   0  0  0  0  0  0  0  0  0  0  0  0
    5.5143    3.2884    3.6607 C   0  0  2  0  0  0  0  0  0  0  0  0
    6.2165    3.8655    4.7957 O   0  0  0  0  0  0  0  0  0  0  0  0
    8.7168    6.0371    6.9657 C   0  0  0  0  0  0  0  0  0  0  0  0
    8.2015    6.0987    8.2921 O   0  0  0  0  0  0  0  0  0  0  0  0
   12.8314    4.3588    8.1164 C   0  0  1  0  0  0  0  0  0  0  0  0
   11.6481    3.8223    7.4219 O   0  0  0  0  0  0  0  0  0  0  0  0
    9.2950    7.4866    0.9412 C   0  0  0  0  0  0  0  0  0  0  0  0
    9.8845    6.2351    0.6856 O   0  0  0  0  0  0  0  0  0  0  0  0
    5.7360    1.7190    3.6013 C   0  0  1  0  0  0  0  0  0  0  0  0
    5.0354    1.0809    4.6726 O   0  0  0  0  0  0  0  0  0  0  0  0
   12.4068    5.0072    9.5049 C   0  0  0  0  0  0  0  0  0  0  0  0
   11.6418    4.1180   10.4217 N   0  0  0  0  0  0  0  0  0  0  0  0
  1  2  1  6  0  0  0
  1  7  1  0  0  0  0
  1 30  1  0  0  0  0
  3  4  1  1  0  0  0
  3  9  1  0  0  0  0
  3 39  1  0  0  0  0
  5 10  1  0  0  0  0
  5 26  1  0  0  0  0
  5 32  1  6  0  0  0
  6 12  1  0  0  0  0
  6 36  1  0  0  0  0
  6 19  1  1  0  0  0
  7  8  1  6  0  0  0
  7 14  1  0  0  0  0
  9 16  1  0  0  0  0
 10 11  1  6  0  0  0
 10 18  1  0  0  0  0
 12 13  1  1  0  0  0
 12 20  1  0  0  0  0
 14 15  1  1  0  0  0
 14 22  1  0  0  0  0
 16 17  1  6  0  0  0
 16 24  1  0  0  0  0
 18 19  1  1  0  0  0
 18 25  1  0  0  0  0
 20 21  1  6  0  0  0
 20 27  1  0  0  0  0
 22 23  1  6  0  0  0
 22 29  1  0  0  0  0
 24  2  1  6  0  0  0
 24 31  1  0  0  0  0
 25 26  1  0  0  0  0
 25 33  1  6  0  0  0
 27 28  1  1  0  0  0
 27 35  1  0  0  0  0
 29 30  1  0  0  0  0
 29 37  1  1  0  0  0
 31 32  1  1  0  0  0
 31 39  1  0  0  0  0
 33 34  1  0  0  0  0
 35 36  1  0  0  0  0
 35 41  1  1  0  0  0
 37 38  1  0  0  0  0
 39 40  1  1  0  0  0
 41 42  1  0  0  0  0
M  END
>  <CHROM.1>
-163.86960200,80.78397080,-178.18030207,167.91458488,-156.44493982,-175.02463692
-176.27140037,-77.20060017,-64.51772446,8.59358680,4.49877680,4.43694619
-2.71665590,0.66861421,2.93268386

>  <Name>
2o3w_lig

>  <RI>
0

>  <Rbt.Current_Directory>
/home/itssahil/PROJECTS/Mol_Feturizer/New_Systems/rnas/2o3w

>  <Rbt.Executable>
rbdock ($Id: //depot/dev/client3/rdock/2013.1/src/exe/rbdock.cxx#4 $)

>  <Rbt.Library>
libRbt.so (2013.1, Build901 2013/11/27)

>  <Rbt.Parameter_File>
/export/apps/rDock/src/rDock_2013.1_src/data/scripts/dock_solv.prm

>  <Rbt.Receptor>
prm/pocket_docking_6.prm

>  <SCORE>
-15.0907

>  <SCORE.INTER>
-4.70913

>  <SCORE.INTER.CONST>
1

>  <SCORE.INTER.POLAR>
-1.26854

>  <SCORE.INTER.ROT>
9

>  <SCORE.INTER.SOLV>
12.4942

>  <SCORE.INTER.VDW>
-12.6757

>  <SCORE.INTER.norm>
-0.112122

>  <SCORE.INTRA>
-10.3816

>  <SCORE.INTRA.DIHEDRAL>
-19.9469

>  <SCORE.INTRA.DIHEDRAL.0>
27.8999

>  <SCORE.INTRA.POLAR>
0

>  <SCORE.INTRA.POLAR.0>
0

>  <SCORE.INTRA.REPUL>
0

>  <SCORE.INTRA.REPUL.0>
0

>  <SCORE.INTRA.SOLV>
-2.84008

>  <SCORE.INTRA.SOLV.lig_0>
-104.479

>  <SCORE.INTRA.VDW>
1.01193

>  <SCORE.INTRA.VDW.0>
-6.17816

>  <SCORE.INTRA.norm>
-0.24718

>  <SCORE.RESTR>
0

>  <SCORE.RESTR.CAVITY>
0

>  <SCORE.RESTR.norm>
0

>  <SCORE.SYSTEM>
0

>  <SCORE.SYSTEM.CONST>
0

>  <SCORE.SYSTEM.DIHEDRAL>
0

>  <SCORE.SYSTEM.SOLV>
0

>  <SCORE.SYSTEM.norm>
0

>  <SCORE.heavy>
42

>  <SCORE.norm>
-0.359302

>  <RMSD>
9.084

$$$$
2o3w_lig
 OpenBabel11021811463D
libRbt.so/2013.1/901 2013/11/27
 42 45  0  0  0  0  0  0  0  0999 V2000
    3.6581    7.6956    0.2547 C   0  0  2  0  0  0  0  0  0  0  0  0
    5.0023    7.2787   -0.0391 O   0  0  0  0  0  0  0  0  0  0  0  0
    7.2162    7.1400   -3.7641 C   0  0  2  0  0  0  0  0  0  0  0  0
    7.9138    7.5317   -5.0252 N   0  0  0  0  0  0  0  0  0  0  0  0
    8.7668    8.1262    0.6806 C   0  0  1  0  0  0  0  0  0  0  0  0
   10.5295    6.5407    4.1576 C   0  0  1  0  0  0  0  0  0  0  0  0
    3.5929    7.9753    1.7863 C   0  0  2  0  0  0  0  0  0  0  0  0
    4.6868    8.8480    2.2471 N   0  0  0  0  0  0  0  0  0  0  0  0
    5.6696    7.4626   -3.8396 C   0  0  0  0  0  0  0  0  0  0  0  0
    8.4399    7.1298    1.8344 C   0  0  2  0  0  0  0  0  0  0  0  0
    8.0944    7.7711    3.0867 O   0  0  0  0  0  0  0  0  0  0  0  0
   11.2832    7.5179    5.1302 C   0  0  2  0  0  0  0  0  0  0  0  0
   12.7433    7.5599    4.8182 N   0  0  0  0  0  0  0  0  0  0  0  0
    3.6735    6.6833    2.6202 C   0  0  1  0  0  0  0  0  0  0  0  0
    3.5703    6.9831    4.0131 O   0  0  0  0  0  0  0  0  0  0  0  0
    4.9872    7.0080   -2.4942 C   0  0  2  0  0  0  0  0  0  0  0  0
    3.5258    7.2839   -2.5362 N   0  0  0  0  0  0  0  0  0  0  0  0
    9.7076    6.2743    1.8561 C   0  0  2  0  0  0  0  0  0  0  0  0
   10.7130    6.8252    2.7652 O   0  0  0  0  0  0  0  0  0  0  0  0
   11.0311    7.0563    6.6435 C   0  0  1  0  0  0  0  0  0  0  0  0
    9.6746    7.3902    7.0139 O   0  0  0  0  0  0  0  0  0  0  0  0
    2.5623    5.7082    2.1688 C   0  0  2  0  0  0  0  0  0  0  0  0
    2.6119    4.5267    2.9343 O   0  0  0  0  0  0  0  0  0  0  0  0
    5.6328    7.7564   -1.2617 C   0  0  2  0  0  0  0  0  0  0  0  0
   10.2235    6.2431    0.4076 C   0  0  2  0  0  0  0  0  0  0  0  0
    9.8070    7.5049   -0.1089 O   0  0  0  0  0  0  0  0  0  0  0  0
   11.2767    5.4885    6.8648 C   0  0  2  0  0  0  0  0  0  0  0  0
   12.6773    5.2489    6.7331 O   0  0  0  0  0  0  0  0  0  0  0  0
    2.7491    5.3901    0.6478 C   0  0  2  0  0  0  0  0  0  0  0  0
    2.7034    6.6320   -0.1237 O   0  0  0  0  0  0  0  0  0  0  0  0
    7.1572    7.5324   -1.1565 C   0  0  2  0  0  0  0  0  0  0  0  0
    7.6027    8.4268   -0.1000 O   0  0  0  0  0  0  0  0  0  0  0  0
    9.6723    5.0710   -0.4623 C   0  0  0  0  0  0  0  0  0  0  0  0
    9.9805    3.8317    0.1685 O   0  0  0  0  0  0  0  0  0  0  0  0
   10.4769    4.6450    5.8012 C   0  0  1  0  0  0  0  0  0  0  0  0
   10.9295    5.1164    4.4809 O   0  0  0  0  0  0  0  0  0  0  0  0
    1.6965    4.4439    0.1181 C   0  0  0  0  0  0  0  0  0  0  0  0
    1.9483    4.1461   -1.2336 O   0  0  0  0  0  0  0  0  0  0  0  0
    7.8611    7.8921   -2.5316 C   0  0  1  0  0  0  0  0  0  0  0  0
    9.2470    7.5420   -2.4829 O   0  0  0  0  0  0  0  0  0  0  0  0
   10.6905    3.0743    5.9269 C   0  0  0  0  0  0  0  0  0  0  0  0
   12.0938    2.6024    5.7697 N   0  0  0  0  0  0  0  0  0  0  0  0
  1  2  1  1  0  0  0
  1  7  1  0  0  0  0
  1 30  1  0  0  0  0
  3  4  1  6  0  0  0
  3  9  1  0  0  0  0
  3 39  1  0  0  0  0
  5 10  1  0  0  0  0
  5 26  1  0  0  0  0
  5 32  1  6  0  0  0
  6 12  1  0  0  0  0
  6 36  1  0  0  0  0
  6 19  1  6  0  0  0
  7  8  1  1  0  0  0
  7 14  1  0  0  0  0
  9 16  1  0  0  0  0
 10 11  1  1  0  0  0
 10 18  1  0  0  0  0
 12 13  1  6  0  0  0
 12 20  1  0  0  0  0
 14 15  1  1  0  0  0
 14 22  1  0  0  0  0
 16 17  1  6  0  0  0
 16 24  1  0  0  0  0
 18 19  1  1  0  0  0
 18 25  1  0  0  0  0
 20 21  1  6  0  0  0
 20 27  1  0  0  0  0
 22 23  1  1  0  0  0
 22 29  1  0  0  0  0
 24  2  1  1  0  0  0
 24 31  1  0  0  0  0
 25 26  1  0  0  0  0
 25 33  1  6  0  0  0
 27 28  1  6  0  0  0
 27 35  1  0  0  0  0
 29 30  1  0  0  0  0
 29 37  1  6  0  0  0
 31 32  1  1  0  0  0
 31 39  1  0  0  0  0
 33 34  1  0  0  0  0
 35 36  1  0  0  0  0
 35 41  1  1  0  0  0
 37 38  1  0  0  0  0
 39 40  1  1  0  0  0
 41 42  1  0  0  0  0
M  END
>  <CHROM.1>
-140.17819355,-82.16122454,-159.58204648,80.10576330,-73.15017129,-56.99312224
-177.32049260,152.54089405,-59.90505971,7.47967762,6.48122632,1.53638346
2.39538623,-0.05990559,-1.35282787

>  <Name>
2o3w_lig

>  <RI>
0

>  <Rbt.Current_Directory>
/home/itssahil/PROJECTS/Mol_Feturizer/New_Systems/rnas/2o3w

>  <Rbt.Executable>
rbdock ($Id: //depot/dev/client3/rdock/2013.1/src/exe/rbdock.cxx#4 $)

>  <Rbt.Library>
libRbt.so (2013.1, Build901 2013/11/27)

>  <Rbt.Parameter_File>
/export/apps/rDock/src/rDock_2013.1_src/data/scripts/dock_solv.prm

>  <Rbt.Receptor>
prm/pocket_docking_7.prm

>  <SCORE>
-18.0037

>  <SCORE.INTER>
-13.7104

>  <SCORE.INTER.CONST>
1

>  <SCORE.INTER.POLAR>
-2.28609

>  <SCORE.INTER.ROT>
9

>  <SCORE.INTER.SOLV>
17.025

>  <SCORE.INTER.VDW>
-16.795

>  <SCORE.INTER.norm>
-0.326438

>  <SCORE.INTRA>
-4.29331

>  <SCORE.INTRA.DIHEDRAL>
-12.5776

>  <SCORE.INTRA.DIHEDRAL.0>
27.8999

>  <SCORE.INTRA.POLAR>
0

>  <SCORE.INTRA.POLAR.0>
0

>  <SCORE.INTRA.REPUL>
0

>  <SCORE.INTRA.REPUL.0>
0

>  <SCORE.INTRA.SOLV>
-0.0394565

>  <SCORE.INTRA.SOLV.lig_0>
-104.479

>  <SCORE.INTRA.VDW>
2.01523

>  <SCORE.INTRA.VDW.0>
-6.17816

>  <SCORE.INTRA.norm>
-0.102222

>  <SCORE.RESTR>
0

>  <SCORE.RESTR.CAVITY>
0

>  <SCORE.RESTR.norm>
0

>  <SCORE.SYSTEM>
0

>  <SCORE.SYSTEM.CONST>
0

>  <SCORE.SYSTEM.DIHEDRAL>
0

>  <SCORE.SYSTEM.SOLV>
0

>  <SCORE.SYSTEM.norm>
0

>  <SCORE.heavy>
42

>  <SCORE.norm>
-0.42866

>  <RMSD>
9.096

$$$$
2o3w_lig
 OpenBabel11021811463D
libRbt.so/2013.1/901 2013/11/27
 42 45  0  0  0  0  0  0  0  0999 V2000
    8.4579    5.8312    2.0900 C   0  0  2  0  0  0  0  0  0  0  0  0
    9.7648    6.2901    2.4758 O   0  0  0  0  0  0  0  0  0  0  0  0
   12.3540    5.2441    5.7921 C   0  0  2  0  0  0  0  0  0  0  0  0
   12.8819    4.9915    7.1661 N   0  0  0  0  0  0  0  0  0  0  0  0
    8.9216    2.6176    4.4126 C   0  0  1  0  0  0  0  0  0  0  0  0
    7.1621   -1.4111    4.9898 C   0  0  1  0  0  0  0  0  0  0  0  0
    8.3917    5.9016    0.5348 C   0  0  2  0  0  0  0  0  0  0  0  0
    9.5507    5.2586   -0.1086 N   0  0  0  0  0  0  0  0  0  0  0  0
   12.0113    6.7737    5.5810 C   0  0  0  0  0  0  0  0  0  0  0  0
    7.4326    2.3591    4.7959 C   0  0  2  0  0  0  0  0  0  0  0  0
    7.1441    2.5520    6.2025 O   0  0  0  0  0  0  0  0  0  0  0  0
    7.4214   -2.4368    6.1515 C   0  0  2  0  0  0  0  0  0  0  0  0
    8.8542   -2.4146    6.5729 N   0  0  0  0  0  0  0  0  0  0  0  0
    8.3431    7.3510    0.0170 C   0  0  1  0  0  0  0  0  0  0  0  0
    8.2431    7.3670   -1.4080 O   0  0  0  0  0  0  0  0  0  0  0  0
   11.4824    6.9801    4.1112 C   0  0  2  0  0  0  0  0  0  0  0  0
   11.1633    8.4135    3.8727 N   0  0  0  0  0  0  0  0  0  0  0  0
    7.2324    0.9378    4.2676 C   0  0  2  0  0  0  0  0  0  0  0  0
    7.5530   -0.0643    5.2844 O   0  0  0  0  0  0  0  0  0  0  0  0
    6.9856   -3.9016    5.6705 C   0  0  1  0  0  0  0  0  0  0  0  0
    5.5424   -3.9733    5.6401 O   0  0  0  0  0  0  0  0  0  0  0  0
    7.1578    8.0939    0.6744 C   0  0  2  0  0  0  0  0  0  0  0  0
    7.0893    9.4178    0.1980 O   0  0  0  0  0  0  0  0  0  0  0  0
   10.1956    6.1005    3.8538 C   0  0  2  0  0  0  0  0  0  0  0  0
    8.1553    0.8055    3.0445 C   0  0  2  0  0  0  0  0  0  0  0  0
    9.2408    1.6720    3.3662 O   0  0  0  0  0  0  0  0  0  0  0  0
    7.5717   -4.2829    4.2288 C   0  0  2  0  0  0  0  0  0  0  0  0
    8.9826   -4.4463    4.3666 O   0  0  0  0  0  0  0  0  0  0  0  0
    7.3415    8.0741    2.2285 C   0  0  2  0  0  0  0  0  0  0  0  0
    7.4194    6.6906    2.6971 O   0  0  0  0  0  0  0  0  0  0  0  0
   10.4408    4.5951    4.0964 C   0  0  2  0  0  0  0  0  0  0  0  0
    9.1298    3.9737    3.9973 O   0  0  0  0  0  0  0  0  0  0  0  0
    7.5047    1.2026    1.6831 C   0  0  0  0  0  0  0  0  0  0  0  0
    7.1481    2.5812    1.7165 O   0  0  0  0  0  0  0  0  0  0  0  0
    7.2537   -3.1492    3.1820 C   0  0  1  0  0  0  0  0  0  0  0  0
    7.8359   -1.9117    3.7295 O   0  0  0  0  0  0  0  0  0  0  0  0
    6.2184    8.7765    2.9558 C   0  0  0  0  0  0  0  0  0  0  0  0
    4.9879    8.1650    2.6537 O   0  0  0  0  0  0  0  0  0  0  0  0
   11.0642    4.3656    5.5367 C   0  0  1  0  0  0  0  0  0  0  0  0
   11.4309    2.9931    5.7027 O   0  0  0  0  0  0  0  0  0  0  0  0
    7.8302   -3.4309    1.7270 C   0  0  0  0  0  0  0  0  0  0  0  0
    7.3070   -4.6517    1.0542 N   0  0  0  0  0  0  0  0  0  0  0  0
  1  2  1  1  0  0  0
  1  7  1  0  0  0  0
  1 30  1  0  0  0  0
  3  4  1  1  0  0  0
  3  9  1  0  0  0  0
  3 39  1  0  0  0  0
  5 10  1  0  0  0  0
  5 26  1  0  0  0  0
  5 32  1  6  0  0  0
  6 12  1  0  0  0  0
  6 36  1  0  0  0  0
  6 19  1  1  0  0  0
  7  8  1  6  0  0  0
  7 14  1  0  0  0  0
  9 16  1  0  0  0  0
 10 11  1  1  0  0  0
 10 18  1  0  0  0  0
 12 13  1  6  0  0  0
 12 20  1  0  0  0  0
 14 15  1  6  0  0  0
 14 22  1  0  0  0  0
 16 17  1  1  0  0  0
 16 24  1  0  0  0  0
 18 19  1  1  0  0  0
 18 25  1  0  0  0  0
 20 21  1  6  0  0  0
 20 27  1  0  0  0  0
 22 23  1  6  0  0  0
 22 29  1  0  0  0  0
 24  2  1  6  0  0  0
 24 31  1  0  0  0  0
 25 26  1  0  0  0  0
 25 33  1  6  0  0  0
 27 28  1  1  0  0  0
 27 35  1  0  0  0  0
 29 30  1  0  0  0  0
 29 37  1  1  0  0  0
 31 32  1  1  0  0  0
 31 39  1  0  0  0  0
 33 34  1  0  0  0  0
 35 36  1  0  0  0  0
 35 41  1  6  0  0  0
 37 38  1  0  0  0  0
 39 40  1  6  0  0  0
 41 42  1  0  0  0  0
M  END
>  <CHROM.1>
-168.80369342,155.60662834,-175.42716823,168.52536465,-166.41788817,62.78467310
59.24356840,-168.14260895,61.39204887,8.50002633,2.86898539,3.48216985,1.40551410
-0.83885665,-0.32677826

>  <Name>
2o3w_lig

>  <RI>
0

>  <Rbt.Current_Directory>
/home/itssahil/PROJECTS/Mol_Feturizer/New_Systems/rnas/2o3w

>  <Rbt.Executable>
rbdock ($Id: //depot/dev/client3/rdock/2013.1/src/exe/rbdock.cxx#4 $)

>  <Rbt.Library>
libRbt.so (2013.1, Build901 2013/11/27)

>  <Rbt.Parameter_File>
/export/apps/rDock/src/rDock_2013.1_src/data/scripts/dock_solv.prm

>  <Rbt.Receptor>
prm/pocket_docking_4.prm

>  <SCORE>
-19.0008

>  <SCORE.INTER>
-7.874

>  <SCORE.INTER.CONST>
1

>  <SCORE.INTER.POLAR>
-1.53128

>  <SCORE.INTER.ROT>
9

>  <SCORE.INTER.SOLV>
12.2408

>  <SCORE.INTER.VDW>
-13.8253

>  <SCORE.INTER.norm>
-0.187476

>  <SCORE.INTRA>
-11.1274

>  <SCORE.INTRA.DIHEDRAL>
-22.2937

>  <SCORE.INTRA.DIHEDRAL.0>
27.8999

>  <SCORE.INTRA.POLAR>
0

>  <SCORE.INTRA.POLAR.0>
0

>  <SCORE.INTRA.REPUL>
0

>  <SCORE.INTRA.REPUL.0>
0

>  <SCORE.INTRA.SOLV>
-4.60816

>  <SCORE.INTRA.SOLV.lig_0>
-104.479

>  <SCORE.INTRA.VDW>
2.32355

>  <SCORE.INTRA.VDW.0>
-6.17816

>  <SCORE.INTRA.norm>
-0.264938

>  <SCORE.RESTR>
0.000644819

>  <SCORE.RESTR.CAVITY>
0.000644819

>  <SCORE.RESTR.norm>
1.53528e-05

>  <SCORE.SYSTEM>
0

>  <SCORE.SYSTEM.CONST>
0

>  <SCORE.SYSTEM.DIHEDRAL>
0

>  <SCORE.SYSTEM.SOLV>
0

>  <SCORE.SYSTEM.norm>
0

>  <SCORE.heavy>
42

>  <SCORE.norm>
-0.452399

>  <RMSD>
9.100

$$$$
2o3w_lig
 OpenBabel11021811463D
libRbt.so/2013.1/901 2013/11/27
 42 45  0  0  0  0  0  0  0  0999 V2000
    6.1432    4.1648    2.3993 C   0  0  2  0  0  0  0  0  0  0  0  0
    7.1247    5.0948    1.9105 O   0  0  0  0  0  0  0  0  0  0  0  0
   10.9857    6.4906    3.3038 C   0  0  2  0  0  0  0  0  0  0  0  0
   12.0980    6.9807    4.1715 N   0  0  0  0  0  0  0  0  0  0  0  0
    9.1610    2.0878    3.5485 C   0  0  1  0  0  0  0  0  0  0  0  0
   10.0563   -1.4687    5.3105 C   0  0  1  0  0  0  0  0  0  0  0  0
    5.2478    3.7691    1.1869 C   0  0  2  0  0  0  0  0  0  0  0  0
    6.0378    3.3621    0.0117 N   0  0  0  0  0  0  0  0  0  0  0  0
    9.8047    7.5407    3.2365 C   0  0  0  0  0  0  0  0  0  0  0  0
    8.6308    1.1623    4.6857 C   0  0  2  0  0  0  0  0  0  0  0  0
    9.4752    1.1320    5.8626 O   0  0  0  0  0  0  0  0  0  0  0  0
   11.3409   -2.3732    5.3357 C   0  0  2  0  0  0  0  0  0  0  0  0
   11.2120   -3.5096    4.3751 N   0  0  0  0  0  0  0  0  0  0  0  0
    4.3366    4.9239    0.7319 C   0  0  1  0  0  0  0  0  0  0  0  0
    3.5072    4.5051   -0.3533 O   0  0  0  0  0  0  0  0  0  0  0  0
    8.6756    6.9790    2.2920 C   0  0  2  0  0  0  0  0  0  0  0  0
    7.5526    7.9500    2.1939 N   0  0  0  0  0  0  0  0  0  0  0  0
    8.4826   -0.1663    3.9426 C   0  0  2  0  0  0  0  0  0  0  0  0
    9.7076   -0.9632    4.0157 O   0  0  0  0  0  0  0  0  0  0  0  0
   11.5837   -2.9051    6.8274 C   0  0  1  0  0  0  0  0  0  0  0  0
   12.0743   -1.8141    7.6384 O   0  0  0  0  0  0  0  0  0  0  0  0
    3.4928    5.4173    1.9293 C   0  0  2  0  0  0  0  0  0  0  0  0
    2.6407    6.4638    1.5253 O   0  0  0  0  0  0  0  0  0  0  0  0
    8.1350    5.5961    2.8316 C   0  0  2  0  0  0  0  0  0  0  0  0
    8.1401    0.1969    2.4879 C   0  0  2  0  0  0  0  0  0  0  0  0
    8.8051    1.4443    2.3033 O   0  0  0  0  0  0  0  0  0  0  0  0
   10.2600   -3.5150    7.4934 C   0  0  2  0  0  0  0  0  0  0  0  0
    9.9565   -4.7319    6.8126 O   0  0  0  0  0  0  0  0  0  0  0  0
    4.4537    5.8951    3.0686 C   0  0  2  0  0  0  0  0  0  0  0  0
    5.3335    4.7952    3.4636 O   0  0  0  0  0  0  0  0  0  0  0  0
    9.2469    4.5342    2.9776 C   0  0  2  0  0  0  0  0  0  0  0  0
    8.6153    3.4095    3.6489 O   0  0  0  0  0  0  0  0  0  0  0  0
    6.6153    0.3231    2.1826 C   0  0  0  0  0  0  0  0  0  0  0  0
    6.4361    0.6461    0.8069 O   0  0  0  0  0  0  0  0  0  0  0  0
    9.0578   -2.5047    7.3666 C   0  0  1  0  0  0  0  0  0  0  0  0
    8.9028   -2.2317    5.9272 O   0  0  0  0  0  0  0  0  0  0  0  0
    3.7098    6.3907    4.2871 C   0  0  0  0  0  0  0  0  0  0  0  0
    4.5924    7.0580    5.1559 O   0  0  0  0  0  0  0  0  0  0  0  0
   10.4432    5.1080    3.8466 C   0  0  1  0  0  0  0  0  0  0  0  0
   11.5347    4.1837    3.8549 O   0  0  0  0  0  0  0  0  0  0  0  0
    7.6911   -3.0449    7.9738 C   0  0  0  0  0  0  0  0  0  0  0  0
    7.1497   -4.2784    7.3398 N   0  0  0  0  0  0  0  0  0  0  0  0
  1  2  1  6  0  0  0
  1  7  1  0  0  0  0
  1 30  1  0  0  0  0
  3  4  1  1  0  0  0
  3  9  1  0  0  0  0
  3 39  1  0  0  0  0
  5 10  1  0  0  0  0
  5 26  1  0  0  0  0
  5 32  1  6  0  0  0
  6 12  1  0  0  0  0
  6 36  1  0  0  0  0
  6 19  1  6  0  0  0
  7  8  1  6  0  0  0
  7 14  1  0  0  0  0
  9 16  1  0  0  0  0
 10 11  1  1  0  0  0
 10 18  1  0  0  0  0
 12 13  1  6  0  0  0
 12 20  1  0  0  0  0
 14 15  1  6  0  0  0
 14 22  1  0  0  0  0
 16 17  1  1  0  0  0
 16 24  1  0  0  0  0
 18 19  1  6  0  0  0
 18 25  1  0  0  0  0
 20 21  1  1  0  0  0
 20 27  1  0  0  0  0
 22 23  1  6  0  0  0
 22 29  1  0  0  0  0
 24  2  1  6  0  0  0
 24 31  1  0  0  0  0
 25 26  1  0  0  0  0
 25 33  1  1  0  0  0
 27 28  1  6  0  0  0
 27 35  1  0  0  0  0
 29 30  1  0  0  0  0
 29 37  1  1  0  0  0
 31 32  1  1  0  0  0
 31 39  1  0  0  0  0
 33 34  1  0  0  0  0
 35 36  1  0  0  0  0
 35 41  1  6  0  0  0
 37 38  1  0  0  0  0
 39 40  1  6  0  0  0
 41 42  1  0  0  0  0
M  END
>  <CHROM.1>
-177.70834725,161.15865976,177.33787398,67.58361235,-156.45888221,-179.35876799
-167.81139246,157.88945673,-61.33840074,8.03661402,2.23122432,3.80630982
1.99723362,-0.34685849,-0.28663604

>  <Name>
2o3w_lig

>  <RI>
0

>  <Rbt.Current_Directory>
/home/itssahil/PROJECTS/Mol_Feturizer/New_Systems/rnas/2o3w

>  <Rbt.Executable>
rbdock ($Id: //depot/dev/client3/rdock/2013.1/src/exe/rbdock.cxx#4 $)

>  <Rbt.Library>
libRbt.so (2013.1, Build901 2013/11/27)

>  <Rbt.Parameter_File>
/export/apps/rDock/src/rDock_2013.1_src/data/scripts/dock_solv.prm

>  <Rbt.Receptor>
prm/pocket_docking_4.prm

>  <SCORE>
-10.6543

>  <SCORE.INTER>
-0.499704

>  <SCORE.INTER.CONST>
1

>  <SCORE.INTER.POLAR>
0

>  <SCORE.INTER.ROT>
9

>  <SCORE.INTER.SOLV>
8.53011

>  <SCORE.INTER.VDW>
-12.7765

>  <SCORE.INTER.norm>
-0.0118977

>  <SCORE.INTRA>
-10.167

>  <SCORE.INTRA.DIHEDRAL>
-20.7299

>  <SCORE.INTRA.DIHEDRAL.0>
27.8999

>  <SCORE.INTRA.POLAR>
0

>  <SCORE.INTRA.POLAR.0>
0

>  <SCORE.INTRA.REPUL>
0

>  <SCORE.INTRA.REPUL.0>
0

>  <SCORE.INTRA.SOLV>
-2.10958

>  <SCORE.INTRA.SOLV.lig_0>
-104.479

>  <SCORE.INTRA.VDW>
1.25276

>  <SCORE.INTRA.VDW.0>
-6.17816

>  <SCORE.INTRA.norm>
-0.242071

>  <SCORE.RESTR>
0.0123731

>  <SCORE.RESTR.CAVITY>
0.0123731

>  <SCORE.RESTR.norm>
0.000294596

>  <SCORE.SYSTEM>
0

>  <SCORE.SYSTEM.CONST>
0

>  <SCORE.SYSTEM.DIHEDRAL>
0

>  <SCORE.SYSTEM.SOLV>
0

>  <SCORE.SYSTEM.norm>
0

>  <SCORE.heavy>
42

>  <SCORE.norm>
-0.253674

>  <RMSD>
9.108

$$$$
2o3w_lig
 OpenBabel11021811463D
libRbt.so/2013.1/901 2013/11/27
 42 45  0  0  0  0  0  0  0  0999 V2000
    5.8348    6.0001   -1.0426 C   0  0  2  0  0  0  0  0  0  0  0  0
    6.3294    4.7258   -1.4882 O   0  0  0  0  0  0  0  0  0  0  0  0
    3.4400    2.2369    0.5740 C   0  0  2  0  0  0  0  0  0  0  0  0
    2.6734    1.0585    1.0782 N   0  0  0  0  0  0  0  0  0  0  0  0
    8.0066    3.5096    1.7085 C   0  0  1  0  0  0  0  0  0  0  0  0
    9.7904    3.7602    5.8337 C   0  0  1  0  0  0  0  0  0  0  0  0
    6.3304    7.0643   -2.0673 C   0  0  2  0  0  0  0  0  0  0  0  0
    6.0472    6.6796   -3.4610 N   0  0  0  0  0  0  0  0  0  0  0  0
    3.2933    2.3891   -0.9935 C   0  0  0  0  0  0  0  0  0  0  0  0
    7.3898    3.0274    3.0568 C   0  0  2  0  0  0  0  0  0  0  0  0
    6.4304    3.9499    3.6292 O   0  0  0  0  0  0  0  0  0  0  0  0
   10.0827    5.0596    6.6675 C   0  0  2  0  0  0  0  0  0  0  0  0
   10.7806    6.0831    5.8330 N   0  0  0  0  0  0  0  0  0  0  0  0
    7.8483    7.3047   -1.9721 C   0  0  1  0  0  0  0  0  0  0  0  0
    8.2512    8.3137   -2.8997 O   0  0  0  0  0  0  0  0  0  0  0  0
    4.1025    3.6576   -1.4610 C   0  0  2  0  0  0  0  0  0  0  0  0
    3.9743    3.8400   -2.9320 N   0  0  0  0  0  0  0  0  0  0  0  0
    8.6495    2.7813    3.8885 C   0  0  2  0  0  0  0  0  0  0  0  0
    9.0493    3.9795    4.6269 O   0  0  0  0  0  0  0  0  0  0  0  0
   10.9541    4.6760    7.9560 C   0  0  1  0  0  0  0  0  0  0  0  0
   10.1055    3.9970    8.9087 O   0  0  0  0  0  0  0  0  0  0  0  0
    8.2192    7.6906   -0.5220 C   0  0  2  0  0  0  0  0  0  0  0  0
    9.6037    7.9305   -0.4217 O   0  0  0  0  0  0  0  0  0  0  0  0
    5.6281    3.5184   -1.0750 C   0  0  2  0  0  0  0  0  0  0  0  0
    9.7391    2.3516    2.8917 C   0  0  2  0  0  0  0  0  0  0  0  0
    9.3762    3.0457    1.7005 O   0  0  0  0  0  0  0  0  0  0  0  0
   12.2122    3.7487    7.6026 C   0  0  2  0  0  0  0  0  0  0  0  0
   13.1414    4.5446    6.8682 O   0  0  0  0  0  0  0  0  0  0  0  0
    7.7871    6.5345    0.4404 C   0  0  2  0  0  0  0  0  0  0  0  0
    6.3493    6.2982    0.3110 O   0  0  0  0  0  0  0  0  0  0  0  0
    5.8460    3.3093    0.4396 C   0  0  2  0  0  0  0  0  0  0  0  0
    7.2635    3.0191    0.5851 O   0  0  0  0  0  0  0  0  0  0  0  0
    9.8314    0.8146    2.6398 C   0  0  0  0  0  0  0  0  0  0  0  0
   10.9482    0.5421    1.7987 O   0  0  0  0  0  0  0  0  0  0  0  0
   11.7628    2.5052    6.7459 C   0  0  1  0  0  0  0  0  0  0  0  0
   11.0979    3.0510    5.5500 O   0  0  0  0  0  0  0  0  0  0  0  0
    8.1077    6.8316    1.8870 C   0  0  0  0  0  0  0  0  0  0  0  0
    9.5005    6.9133    2.0681 O   0  0  0  0  0  0  0  0  0  0  0  0
    4.9674    2.0949    0.9581 C   0  0  1  0  0  0  0  0  0  0  0  0
    5.0521    1.9973    2.3825 O   0  0  0  0  0  0  0  0  0  0  0  0
   12.9576    1.5458    6.3207 C   0  0  0  0  0  0  0  0  0  0  0  0
   14.1306    2.2183    5.6975 N   0  0  0  0  0  0  0  0  0  0  0  0
  1  2  1  6  0  0  0
  1  7  1  0  0  0  0
  1 30  1  0  0  0  0
  3  4  1  6  0  0  0
  3  9  1  0  0  0  0
  3 39  1  0  0  0  0
  5 10  1  0  0  0  0
  5 26  1  0  0  0  0
  5 32  1  6  0  0  0
  6 12  1  0  0  0  0
  6 36  1  0  0  0  0
  6 19  1  6  0  0  0
  7  8  1  6  0  0  0
  7 14  1  0  0  0  0
  9 16  1  0  0  0  0
 10 11  1  1  0  0  0
 10 18  1  0  0  0  0
 12 13  1  6  0  0  0
 12 20  1  0  0  0  0
 14 15  1  6  0  0  0
 14 22  1  0  0  0  0
 16 17  1  6  0  0  0
 16 24  1  0  0  0  0
 18 19  1  6  0  0  0
 18 25  1  0  0  0  0
 20 21  1  1  0  0  0
 20 27  1  0  0  0  0
 22 23  1  6  0  0  0
 22 29  1  0  0  0  0
 24  2  1  1  0  0  0
 24 31  1  0  0  0  0
 25 26  1  0  0  0  0
 25 33  1  6  0  0  0
 27 28  1  6  0  0  0
 27 35  1  0  0  0  0
 29 30  1  0  0  0  0
 29 37  1  1  0  0  0
 31 32  1  6  0  0  0
 31 39  1  0  0  0  0
 33 34  1  0  0  0  0
 35 36  1  0  0  0  0
 35 41  1  6  0  0  0
 37 38  1  0  0  0  0
 39 40  1  1  0  0  0
 41 42  1  0  0  0  0
M  END
>  <CHROM.1>
-155.93447972,57.66319182,-174.46485873,153.41055760,53.80836955,-174.81028169
-64.74649702,142.95807635,-50.03356694,8.20215398,4.16760554,2.16244796,-2.45312994
0.67657343,2.41289455

>  <Name>
2o3w_lig

>  <RI>
0

>  <Rbt.Current_Directory>
/home/itssahil/PROJECTS/Mol_Feturizer/New_Systems/rnas/2o3w

>  <Rbt.Executable>
rbdock ($Id: //depot/dev/client3/rdock/2013.1/src/exe/rbdock.cxx#4 $)

>  <Rbt.Library>
libRbt.so (2013.1, Build901 2013/11/27)

>  <Rbt.Parameter_File>
/export/apps/rDock/src/rDock_2013.1_src/data/scripts/dock_solv.prm

>  <Rbt.Receptor>
prm/pocket_docking_5.prm

>  <SCORE>
-13.7876

>  <SCORE.INTER>
-6.43472

>  <SCORE.INTER.CONST>
1

>  <SCORE.INTER.POLAR>
-1.68798

>  <SCORE.INTER.ROT>
9

>  <SCORE.INTER.SOLV>
9.59051

>  <SCORE.INTER.VDW>
-11.4601

>  <SCORE.INTER.norm>
-0.153208

>  <SCORE.INTRA>
-7.35287

>  <SCORE.INTRA.DIHEDRAL>
-16.523

>  <SCORE.INTRA.DIHEDRAL.0>
27.8999

>  <SCORE.INTRA.POLAR>
0

>  <SCORE.INTRA.POLAR.0>
0

>  <SCORE.INTRA.REPUL>
0

>  <SCORE.INTRA.REPUL.0>
0

>  <SCORE.INTRA.SOLV>
-1.06481

>  <SCORE.INTRA.SOLV.lig_0>
-104.479

>  <SCORE.INTRA.VDW>
1.44104

>  <SCORE.INTRA.VDW.0>
-6.17816

>  <SCORE.INTRA.norm>
-0.175068

>  <SCORE.RESTR>
0

>  <SCORE.RESTR.CAVITY>
0

>  <SCORE.RESTR.norm>
0

>  <SCORE.SYSTEM>
0

>  <SCORE.SYSTEM.CONST>
0

>  <SCORE.SYSTEM.DIHEDRAL>
0

>  <SCORE.SYSTEM.SOLV>
0

>  <SCORE.SYSTEM.norm>
0

>  <SCORE.heavy>
42

>  <SCORE.norm>
-0.328276

>  <RMSD>
9.130

$$$$
2o3w_lig
 OpenBabel11021811463D
libRbt.so/2013.1/901 2013/11/27
 42 45  0  0  0  0  0  0  0  0999 V2000
    7.4649    5.1555    3.1603 C   0  0  2  0  0  0  0  0  0  0  0  0
    6.3677    4.5873    2.4249 O   0  0  0  0  0  0  0  0  0  0  0  0
    4.7365    0.5793    2.1588 C   0  0  2  0  0  0  0  0  0  0  0  0
    4.6020   -0.8986    1.9909 N   0  0  0  0  0  0  0  0  0  0  0  0
    8.2527    1.8843    4.4003 C   0  0  1  0  0  0  0  0  0  0  0  0
   10.2220   -0.3589    4.3452 C   0  0  1  0  0  0  0  0  0  0  0  0
    7.0735    6.6254    3.4983 C   0  0  2  0  0  0  0  0  0  0  0  0
    5.7323    6.7277    4.0995 N   0  0  0  0  0  0  0  0  0  0  0  0
    5.2174    1.2678    0.8185 C   0  0  0  0  0  0  0  0  0  0  0  0
    8.9744    1.9772    3.0214 C   0  0  2  0  0  0  0  0  0  0  0  0
    8.5588    0.9670    2.0696 O   0  0  0  0  0  0  0  0  0  0  0  0
   10.5989   -0.2573    5.8672 C   0  0  2  0  0  0  0  0  0  0  0  0
   12.0679   -0.4406    6.0663 N   0  0  0  0  0  0  0  0  0  0  0  0
    7.0728    7.5310    2.2529 C   0  0  1  0  0  0  0  0  0  0  0  0
    6.7481    8.8743    2.6150 O   0  0  0  0  0  0  0  0  0  0  0  0
    5.3185    2.8229    1.0514 C   0  0  2  0  0  0  0  0  0  0  0  0
    5.7553    3.5056   -0.1963 N   0  0  0  0  0  0  0  0  0  0  0  0
   10.4416    1.9200    3.4496 C   0  0  2  0  0  0  0  0  0  0  0  0
   10.9365    0.5437    3.4918 O   0  0  0  0  0  0  0  0  0  0  0  0
    9.7657   -1.3491    6.6923 C   0  0  1  0  0  0  0  0  0  0  0  0
    8.3899   -0.9158    6.7833 O   0  0  0  0  0  0  0  0  0  0  0  0
    8.4506    7.4514    1.5568 C   0  0  2  0  0  0  0  0  0  0  0  0
    8.4720    8.2882    0.4238 O   0  0  0  0  0  0  0  0  0  0  0  0
    6.3350    3.1466    2.2166 C   0  0  2  0  0  0  0  0  0  0  0  0
   10.5044    2.5776    4.8385 C   0  0  2  0  0  0  0  0  0  0  0  0
    9.2270    2.2755    5.3948 O   0  0  0  0  0  0  0  0  0  0  0  0
    9.8258   -2.8074    6.0311 C   0  0  2  0  0  0  0  0  0  0  0  0
   11.1563   -3.2981    6.1899 O   0  0  0  0  0  0  0  0  0  0  0  0
    8.7334    5.9661    1.1528 C   0  0  2  0  0  0  0  0  0  0  0  0
    8.6965    5.1169    2.3433 O   0  0  0  0  0  0  0  0  0  0  0  0
    5.9591    2.4591    3.5475 C   0  0  2  0  0  0  0  0  0  0  0  0
    7.0814    2.7100    4.4374 O   0  0  0  0  0  0  0  0  0  0  0  0
   10.7620    4.1163    4.8271 C   0  0  0  0  0  0  0  0  0  0  0  0
   10.8496    4.5886    6.1680 O   0  0  0  0  0  0  0  0  0  0  0  0
    9.4479   -2.7408    4.5030 C   0  0  1  0  0  0  0  0  0  0  0  0
   10.3932   -1.7925    3.8887 O   0  0  0  0  0  0  0  0  0  0  0  0
   10.0696    5.7940    0.4682 C   0  0  0  0  0  0  0  0  0  0  0  0
   10.1957    4.4831   -0.0266 O   0  0  0  0  0  0  0  0  0  0  0  0
    5.7566    0.9021    3.3232 C   0  0  1  0  0  0  0  0  0  0  0  0
    5.2624    0.2915    4.5184 O   0  0  0  0  0  0  0  0  0  0  0  0
    9.5146   -4.1439    3.7577 C   0  0  0  0  0  0  0  0  0  0  0  0
   10.8486   -4.8052    3.7517 N   0  0  0  0  0  0  0  0  0  0  0  0
  1  2  1  6  0  0  0
  1  7  1  0  0  0  0
  1 30  1  0  0  0  0
  3  4  1  6  0  0  0
  3  9  1  0  0  0  0
  3 39  1  0  0  0  0
  5 10  1  0  0  0  0
  5 26  1  0  0  0  0
  5 32  1  6  0  0  0
  6 12  1  0  0  0  0
  6 36  1  0  0  0  0
  6 19  1  6  0  0  0
  7  8  1  6  0  0  0
  7 14  1  0  0  0  0
  9 16  1  0  0  0  0
 10 11  1  6  0  0  0
 10 18  1  0  0  0  0
 12 13  1  6  0  0  0
 12 20  1  0  0  0  0
 14 15  1  1  0  0  0
 14 22  1  0  0  0  0
 16 17  1  6  0  0  0
 16 24  1  0  0  0  0
 18 19  1  1  0  0  0
 18 25  1  0  0  0  0
 20 21  1  6  0  0  0
 20 27  1  0  0  0  0
 22 23  1  6  0  0  0
 22 29  1  0  0  0  0
 24  2  1  1  0  0  0
 24 31  1  0  0  0  0
 25 26  1  0  0  0  0
 25 33  1  6  0  0  0
 27 28  1  6  0  0  0
 27 35  1  0  0  0  0
 29 30  1  0  0  0  0
 29 37  1  1  0  0  0
 31 32  1  1  0  0  0
 31 39  1  0  0  0  0
 33 34  1  0  0  0  0
 35 36  1  0  0  0  0
 35 41  1  6  0  0  0
 37 38  1  0  0  0  0
 39 40  1  1  0  0  0
 41 42  1  0  0  0  0
M  END
>  <CHROM.1>
-167.41881361,62.93499294,-80.44531048,-57.35994773,-163.10859535,-177.72485614
-172.33485848,-83.03923678,-60.52799517,8.40105008,2.19176890,3.41964444
-1.86828137,0.47782259,2.92751391

>  <Name>
2o3w_lig

>  <RI>
0

>  <Rbt.Current_Directory>
/home/itssahil/PROJECTS/Mol_Feturizer/New_Systems/rnas/2o3w

>  <Rbt.Executable>
rbdock ($Id: //depot/dev/client3/rdock/2013.1/src/exe/rbdock.cxx#4 $)

>  <Rbt.Library>
libRbt.so (2013.1, Build901 2013/11/27)

>  <Rbt.Parameter_File>
/export/apps/rDock/src/rDock_2013.1_src/data/scripts/dock_solv.prm

>  <Rbt.Receptor>
prm/pocket_docking_3.prm

>  <SCORE>
-9.07957

>  <SCORE.INTER>
0.907947

>  <SCORE.INTER.CONST>
1

>  <SCORE.INTER.POLAR>
0

>  <SCORE.INTER.ROT>
9

>  <SCORE.INTER.SOLV>
6.18776

>  <SCORE.INTER.VDW>
-11.0573

>  <SCORE.INTER.norm>
0.0216178

>  <SCORE.INTRA>
-9.98752

>  <SCORE.INTRA.DIHEDRAL>
-21.2247

>  <SCORE.INTRA.DIHEDRAL.0>
27.8999

>  <SCORE.INTRA.POLAR>
0

>  <SCORE.INTRA.POLAR.0>
0

>  <SCORE.INTRA.REPUL>
0

>  <SCORE.INTRA.REPUL.0>
0

>  <SCORE.INTRA.SOLV>
-1.53145

>  <SCORE.INTRA.SOLV.lig_0>
-104.479

>  <SCORE.INTRA.VDW>
1.39058

>  <SCORE.INTRA.VDW.0>
-6.17816

>  <SCORE.INTRA.norm>
-0.237798

>  <SCORE.RESTR>
0

>  <SCORE.RESTR.CAVITY>
0

>  <SCORE.RESTR.norm>
0

>  <SCORE.SYSTEM>
0

>  <SCORE.SYSTEM.CONST>
0

>  <SCORE.SYSTEM.DIHEDRAL>
0

>  <SCORE.SYSTEM.SOLV>
0

>  <SCORE.SYSTEM.norm>
0

>  <SCORE.heavy>
42

>  <SCORE.norm>
-0.21618

>  <RMSD>
9.131

$$$$
2o3w_lig
 OpenBabel11021811463D
libRbt.so/2013.1/901 2013/11/27
 42 45  0  0  0  0  0  0  0  0999 V2000
    5.4464    5.7755    1.1141 C   0  0  2  0  0  0  0  0  0  0  0  0
    5.3962    5.0438    2.3508 O   0  0  0  0  0  0  0  0  0  0  0  0
    4.4593    0.9475    3.4176 C   0  0  2  0  0  0  0  0  0  0  0  0
    4.4394   -0.5450    3.4695 N   0  0  0  0  0  0  0  0  0  0  0  0
    8.4345    2.6938    4.2305 C   0  0  1  0  0  0  0  0  0  0  0  0
   10.1728    0.5058    5.3055 C   0  0  1  0  0  0  0  0  0  0  0  0
    6.7856    6.5722    1.1108 C   0  0  2  0  0  0  0  0  0  0  0  0
    7.9454    5.7266    1.4429 N   0  0  0  0  0  0  0  0  0  0  0  0
    3.9421    1.4802    2.0210 C   0  0  0  0  0  0  0  0  0  0  0  0
    9.7796    2.7999    3.4492 C   0  0  2  0  0  0  0  0  0  0  0  0
    9.9551    1.7786    2.4367 O   0  0  0  0  0  0  0  0  0  0  0  0
   10.5772   -0.5042    6.4391 C   0  0  2  0  0  0  0  0  0  0  0  0
   11.7950   -1.2786    6.0541 N   0  0  0  0  0  0  0  0  0  0  0  0
    6.7774    7.7331    2.1223 C   0  0  1  0  0  0  0  0  0  0  0  0
    8.0065    8.4584    2.0570 O   0  0  0  0  0  0  0  0  0  0  0  0
    3.9651    3.0555    2.0354 C   0  0  2  0  0  0  0  0  0  0  0  0
    3.4698    3.5921    0.7391 N   0  0  0  0  0  0  0  0  0  0  0  0
   10.7916    2.7767    4.5957 C   0  0  2  0  0  0  0  0  0  0  0  0
   11.2119    1.4120    4.9148 O   0  0  0  0  0  0  0  0  0  0  0  0
    9.3446   -1.4824    6.7401 C   0  0  1  0  0  0  0  0  0  0  0  0
    8.3299   -0.7474    7.4606 O   0  0  0  0  0  0  0  0  0  0  0  0
    5.5651    8.6508    1.8441 C   0  0  2  0  0  0  0  0  0  0  0  0
    5.5526    9.7283    2.7515 O   0  0  0  0  0  0  0  0  0  0  0  0
    5.4274    3.5887    2.3059 C   0  0  2  0  0  0  0  0  0  0  0  0
   10.0908    3.4385    5.7941 C   0  0  2  0  0  0  0  0  0  0  0  0
    8.7194    3.1090    5.5860 O   0  0  0  0  0  0  0  0  0  0  0  0
    8.7089   -2.1096    5.4097 C   0  0  2  0  0  0  0  0  0  0  0  0
    9.6606   -3.0241    4.8671 O   0  0  0  0  0  0  0  0  0  0  0  0
    4.2503    7.8104    1.9653 C   0  0  2  0  0  0  0  0  0  0  0  0
    4.2914    6.6938    1.0213 O   0  0  0  0  0  0  0  0  0  0  0  0
    6.0214    3.0620    3.6307 C   0  0  2  0  0  0  0  0  0  0  0  0
    7.4102    3.4931    3.6246 O   0  0  0  0  0  0  0  0  0  0  0  0
   10.2870    4.9826    5.9008 C   0  0  0  0  0  0  0  0  0  0  0  0
   10.0124    5.4007    7.2344 O   0  0  0  0  0  0  0  0  0  0  0  0
    8.3818   -0.9783    4.3632 C   0  0  1  0  0  0  0  0  0  0  0  0
    9.6502   -0.2711    4.1153 O   0  0  0  0  0  0  0  0  0  0  0  0
    3.0092    8.6312    1.7012 C   0  0  0  0  0  0  0  0  0  0  0  0
    1.8612    7.8268    1.8210 O   0  0  0  0  0  0  0  0  0  0  0  0
    5.9240    1.4799    3.6853 C   0  0  1  0  0  0  0  0  0  0  0  0
    6.3333    1.0044    4.9706 O   0  0  0  0  0  0  0  0  0  0  0  0
    7.7764   -1.5170    2.9950 C   0  0  0  0  0  0  0  0  0  0  0  0
    7.4822   -0.4783    1.9698 N   0  0  0  0  0  0  0  0  0  0  0  0
  1  2  1  1  0  0  0
  1  7  1  0  0  0  0
  1 30  1  0  0  0  0
  3  4  1  6  0  0  0
  3  9  1  0  0  0  0
  3 39  1  0  0  0  0
  5 10  1  0  0  0  0
  5 26  1  0  0  0  0
  5 32  1  6  0  0  0
  6 12  1  0  0  0  0
  6 36  1  0  0  0  0
  6 19  1  6  0  0  0
  7  8  1  1  0  0  0
  7 14  1  0  0  0  0
  9 16  1  0  0  0  0
 10 11  1  6  0  0  0
 10 18  1  0  0  0  0
 12 13  1  6  0  0  0
 12 20  1  0  0  0  0
 14 15  1  6  0  0  0
 14 22  1  0  0  0  0
 16 17  1  6  0  0  0
 16 24  1  0  0  0  0
 18 19  1  1  0  0  0
 18 25  1  0  0  0  0
 20 21  1  6  0  0  0
 20 27  1  0  0  0  0
 22 23  1  1  0  0  0
 22 29  1  0  0  0  0
 24  2  1  1  0  0  0
 24 31  1  0  0  0  0
 25 26  1  0  0  0  0
 25 33  1  6  0  0  0
 27 28  1  6  0  0  0
 27 35  1  0  0  0  0
 29 30  1  0  0  0  0
 29 37  1  6  0  0  0
 31 32  1  6  0  0  0
 31 39  1  0  0  0  0
 33 34  1  0  0  0  0
 35 36  1  0  0  0  0
 35 41  1  6  0  0  0
 37 38  1  0  0  0  0
 39 40  1  1  0  0  0
 41 42  1  0  0  0  0
M  END
>  <CHROM.1>
-114.81436581,145.51619960,-142.47753322,-59.14872242,-83.18310283,-160.04579562
179.89109612,-146.82245660,-178.72916774,7.32990394,3.03578513,3.61087406
2.14569250,-0.48742954,-0.12377679

>  <Name>
2o3w_lig

>  <RI>
0

>  <Rbt.Current_Directory>
/home/itssahil/PROJECTS/Mol_Feturizer/New_Systems/rnas/2o3w

>  <Rbt.Executable>
rbdock ($Id: //depot/dev/client3/rdock/2013.1/src/exe/rbdock.cxx#4 $)

>  <Rbt.Library>
libRbt.so (2013.1, Build901 2013/11/27)

>  <Rbt.Parameter_File>
/export/apps/rDock/src/rDock_2013.1_src/data/scripts/dock_solv.prm

>  <Rbt.Receptor>
prm/pocket_docking_2.prm

>  <SCORE>
4.85064

>  <SCORE.INTER>
0.698332

>  <SCORE.INTER.CONST>
1

>  <SCORE.INTER.POLAR>
0

>  <SCORE.INTER.ROT>
9

>  <SCORE.INTER.SOLV>
8.57214

>  <SCORE.INTER.VDW>
-11.9918

>  <SCORE.INTER.norm>
0.0166269

>  <SCORE.INTRA>
1.91015

>  <SCORE.INTRA.DIHEDRAL>
-3.5433

>  <SCORE.INTRA.DIHEDRAL.0>
27.8999

>  <SCORE.INTRA.POLAR>
0

>  <SCORE.INTRA.POLAR.0>
0

>  <SCORE.INTRA.REPUL>
0

>  <SCORE.INTRA.REPUL.0>
0

>  <SCORE.INTRA.SOLV>
5.01742

>  <SCORE.INTRA.SOLV.lig_0>
-104.479

>  <SCORE.INTRA.VDW>
1.17309

>  <SCORE.INTRA.VDW.0>
-6.17816

>  <SCORE.INTRA.norm>
0.0454798

>  <SCORE.RESTR>
2.24216

>  <SCORE.RESTR.CAVITY>
2.24216

>  <SCORE.RESTR.norm>
0.0533848

>  <SCORE.SYSTEM>
0

>  <SCORE.SYSTEM.CONST>
0

>  <SCORE.SYSTEM.DIHEDRAL>
0

>  <SCORE.SYSTEM.SOLV>
0

>  <SCORE.SYSTEM.norm>
0

>  <SCORE.heavy>
42

>  <SCORE.norm>
0.115491

>  <RMSD>
9.172

$$$$
2o3w_lig
 OpenBabel11021811463D
libRbt.so/2013.1/901 2013/11/27
 42 45  0  0  0  0  0  0  0  0999 V2000
    4.8645    6.0593    2.3779 C   0  0  2  0  0  0  0  0  0  0  0  0
    5.1536    5.0795    1.3660 O   0  0  0  0  0  0  0  0  0  0  0  0
    4.0938    1.4081    3.4137 C   0  0  2  0  0  0  0  0  0  0  0  0
    4.0768   -0.0082    3.8873 N   0  0  0  0  0  0  0  0  0  0  0  0
    8.0442    3.1592    3.5861 C   0  0  1  0  0  0  0  0  0  0  0  0
   10.0098    0.8374    4.1647 C   0  0  1  0  0  0  0  0  0  0  0  0
    3.3921    6.5196    2.1581 C   0  0  2  0  0  0  0  0  0  0  0  0
    2.4601    5.3858    2.0298 N   0  0  0  0  0  0  0  0  0  0  0  0
    3.7926    1.4986    1.8636 C   0  0  0  0  0  0  0  0  0  0  0  0
    9.3308    3.5575    2.8006 C   0  0  2  0  0  0  0  0  0  0  0  0
    9.4668    2.8964    1.5186 O   0  0  0  0  0  0  0  0  0  0  0  0
   10.0114    0.6323    5.7225 C   0  0  2  0  0  0  0  0  0  0  0  0
   11.3926    0.3644    6.2239 N   0  0  0  0  0  0  0  0  0  0  0  0
    3.2305    7.3741    0.8874 C   0  0  1  0  0  0  0  0  0  0  0  0
    1.8760    7.8061    0.7474 O   0  0  0  0  0  0  0  0  0  0  0  0
    3.8019    3.0132    1.4296 C   0  0  2  0  0  0  0  0  0  0  0  0
    3.5070    3.1369   -0.0235 N   0  0  0  0  0  0  0  0  0  0  0  0
   10.4172    3.2384    3.8288 C   0  0  2  0  0  0  0  0  0  0  0  0
   10.8956    1.8620    3.6966 O   0  0  0  0  0  0  0  0  0  0  0  0
    9.0195   -0.5683    6.0987 C   0  0  1  0  0  0  0  0  0  0  0  0
    7.6562   -0.1140    5.9441 O   0  0  0  0  0  0  0  0  0  0  0  0
    4.2026    8.5745    0.9462 C   0  0  2  0  0  0  0  0  0  0  0  0
    4.0551    9.3762   -0.2027 O   0  0  0  0  0  0  0  0  0  0  0  0
    5.2017    3.6743    1.7446 C   0  0  2  0  0  0  0  0  0  0  0  0
    9.7795    3.4766    5.2080 C   0  0  2  0  0  0  0  0  0  0  0  0
    8.4071    3.1612    4.9859 O   0  0  0  0  0  0  0  0  0  0  0  0
    9.2545   -1.8740    5.2001 C   0  0  2  0  0  0  0  0  0  0  0  0
   10.5149   -2.4311    5.5707 O   0  0  0  0  0  0  0  0  0  0  0  0
    5.6686    8.0390    1.0625 C   0  0  2  0  0  0  0  0  0  0  0  0
    5.7937    7.2028    2.2561 O   0  0  0  0  0  0  0  0  0  0  0  0
    5.5897    3.5732    3.2361 C   0  0  2  0  0  0  0  0  0  0  0  0
    6.9599    4.0547    3.3078 O   0  0  0  0  0  0  0  0  0  0  0  0
    9.9394    4.9249    5.7657 C   0  0  0  0  0  0  0  0  0  0  0  0
   11.2681    5.0992    6.2484 O   0  0  0  0  0  0  0  0  0  0  0  0
    9.2514   -1.5029    3.6689 C   0  0  1  0  0  0  0  0  0  0  0  0
   10.3036   -0.4871    3.4920 O   0  0  0  0  0  0  0  0  0  0  0  0
    6.6899    9.1507    1.1325 C   0  0  0  0  0  0  0  0  0  0  0  0
    6.7144    9.8637   -0.0801 O   0  0  0  0  0  0  0  0  0  0  0  0
    5.4964    2.0678    3.7267 C   0  0  1  0  0  0  0  0  0  0  0  0
    5.7076    1.9952    5.1394 O   0  0  0  0  0  0  0  0  0  0  0  0
    9.5122   -2.7385    2.7025 C   0  0  0  0  0  0  0  0  0  0  0  0
    8.4864   -3.8166    2.7474 N   0  0  0  0  0  0  0  0  0  0  0  0
  1  2  1  6  0  0  0
  1  7  1  0  0  0  0
  1 30  1  0  0  0  0
  3  4  1  6  0  0  0
  3  9  1  0  0  0  0
  3 39  1  0  0  0  0
  5 10  1  0  0  0  0
  5 26  1  0  0  0  0
  5 32  1  1  0  0  0
  6 12  1  0  0  0  0
  6 36  1  0  0  0  0
  6 19  1  1  0  0  0
  7  8  1  6  0  0  0
  7 14  1  0  0  0  0
  9 16  1  0  0  0  0
 10 11  1  6  0  0  0
 10 18  1  0  0  0  0
 12 13  1  6  0  0  0
 12 20  1  0  0  0  0
 14 15  1  1  0  0  0
 14 22  1  0  0  0  0
 16 17  1  6  0  0  0
 16 24  1  0  0  0  0
 18 19  1  1  0  0  0
 18 25  1  0  0  0  0
 20 21  1  6  0  0  0
 20 27  1  0  0  0  0
 22 23  1  6  0  0  0
 22 29  1  0  0  0  0
 24  2  1  1  0  0  0
 24 31  1  0  0  0  0
 25 26  1  0  0  0  0
 25 33  1  6  0  0  0
 27 28  1  1  0  0  0
 27 35  1  0  0  0  0
 29 30  1  0  0  0  0
 29 37  1  1  0  0  0
 31 32  1  6  0  0  0
 31 39  1  0  0  0  0
 33 34  1  0  0  0  0
 35 36  1  0  0  0  0
 35 41  1  6  0  0  0
 37 38  1  0  0  0  0
 39 40  1  1  0  0  0
 41 42  1  0  0  0  0
M  END
>  <CHROM.1>
-104.68087829,144.40691846,-79.38805494,-73.82650409,96.36880948,-76.26151424
-65.90835465,-110.01639870,62.98852778,7.05676890,3.23733997,3.13039741,2.17135393
-0.39119308,-0.17978216

>  <Name>
2o3w_lig

>  <RI>
0

>  <Rbt.Current_Directory>
/home/itssahil/PROJECTS/Mol_Feturizer/New_Systems/rnas/2o3w

>  <Rbt.Executable>
rbdock ($Id: //depot/dev/client3/rdock/2013.1/src/exe/rbdock.cxx#4 $)

>  <Rbt.Library>
libRbt.so (2013.1, Build901 2013/11/27)

>  <Rbt.Parameter_File>
/export/apps/rDock/src/rDock_2013.1_src/data/scripts/dock_solv.prm

>  <Rbt.Receptor>
prm/pocket_docking_2.prm

>  <SCORE>
5.77764

>  <SCORE.INTER>
-2.37137

>  <SCORE.INTER.CONST>
1

>  <SCORE.INTER.POLAR>
-0.929462

>  <SCORE.INTER.ROT>
9

>  <SCORE.INTER.SOLV>
6.5447

>  <SCORE.INTER.VDW>
-10.2643

>  <SCORE.INTER.norm>
-0.0564612

>  <SCORE.INTRA>
4.63881

>  <SCORE.INTRA.DIHEDRAL>
-1.93096

>  <SCORE.INTRA.DIHEDRAL.0>
27.8999

>  <SCORE.INTRA.POLAR>
0

>  <SCORE.INTRA.POLAR.0>
0

>  <SCORE.INTRA.REPUL>
0

>  <SCORE.INTRA.REPUL.0>
0

>  <SCORE.INTRA.SOLV>
0.18968

>  <SCORE.INTRA.SOLV.lig_0>
-104.479

>  <SCORE.INTRA.VDW>
5.50945

>  <SCORE.INTRA.VDW.0>
-6.17816

>  <SCORE.INTRA.norm>
0.110448

>  <SCORE.RESTR>
3.5102

>  <SCORE.RESTR.CAVITY>
3.5102

>  <SCORE.RESTR.norm>
0.0835763

>  <SCORE.SYSTEM>
0

>  <SCORE.SYSTEM.CONST>
0

>  <SCORE.SYSTEM.DIHEDRAL>
0

>  <SCORE.SYSTEM.SOLV>
0

>  <SCORE.SYSTEM.norm>
0

>  <SCORE.heavy>
42

>  <SCORE.norm>
0.137563

>  <RMSD>
9.186

$$$$
2o3w_lig
 OpenBabel11021811463D
libRbt.so/2013.1/901 2013/11/27
 42 45  0  0  0  0  0  0  0  0999 V2000
    6.8628    5.9480    2.2939 C   0  0  2  0  0  0  0  0  0  0  0  0
    5.6084    5.4098    1.8425 O   0  0  0  0  0  0  0  0  0  0  0  0
    3.4713    1.7797    2.8677 C   0  0  2  0  0  0  0  0  0  0  0  0
    3.1227    0.3464    3.1017 N   0  0  0  0  0  0  0  0  0  0  0  0
    7.5230    2.9624    4.0374 C   0  0  1  0  0  0  0  0  0  0  0  0
    9.4115    0.5746    4.2336 C   0  0  1  0  0  0  0  0  0  0  0  0
    6.5427    7.2654    3.0621 C   0  0  2  0  0  0  0  0  0  0  0  0
    5.4824    7.0873    4.0694 N   0  0  0  0  0  0  0  0  0  0  0  0
    3.7533    2.0593    1.3367 C   0  0  0  0  0  0  0  0  0  0  0  0
    7.9017    2.6463    2.5584 C   0  0  2  0  0  0  0  0  0  0  0  0
    7.1812    1.5239    1.9926 O   0  0  0  0  0  0  0  0  0  0  0  0
   10.4398    0.8898    5.3791 C   0  0  2  0  0  0  0  0  0  0  0  0
   11.8041    0.3981    5.0214 N   0  0  0  0  0  0  0  0  0  0  0  0
    6.0775    8.3921    2.1212 C   0  0  1  0  0  0  0  0  0  0  0  0
    5.8339    9.5894    2.8615 O   0  0  0  0  0  0  0  0  0  0  0  0
    4.0920    3.5868    1.1509 C   0  0  2  0  0  0  0  0  0  0  0  0
    4.3493    3.8890   -0.2830 N   0  0  0  0  0  0  0  0  0  0  0  0
    9.4170    2.4720    2.6705 C   0  0  2  0  0  0  0  0  0  0  0  0
    9.7798    1.0814    2.9447 O   0  0  0  0  0  0  0  0  0  0  0  0
    9.9290    0.2270    6.7453 C   0  0  1  0  0  0  0  0  0  0  0  0
    8.8098    0.9923    7.2460 O   0  0  0  0  0  0  0  0  0  0  0  0
    7.1389    8.6154    1.0200 C   0  0  2  0  0  0  0  0  0  0  0  0
    6.7357    9.6556    0.1598 O   0  0  0  0  0  0  0  0  0  0  0  0
    5.3552    3.9858    2.0116 C   0  0  2  0  0  0  0  0  0  0  0  0
    9.8680    3.4008    3.8104 C   0  0  2  0  0  0  0  0  0  0  0  0
    8.7373    3.4159    4.6786 O   0  0  0  0  0  0  0  0  0  0  0  0
    9.4945   -1.3052    6.5689 C   0  0  2  0  0  0  0  0  0  0  0  0
   10.6779   -2.0629    6.3204 O   0  0  0  0  0  0  0  0  0  0  0  0
    7.3354    7.2831    0.2226 C   0  0  2  0  0  0  0  0  0  0  0  0
    7.7440    6.2177    1.1378 O   0  0  0  0  0  0  0  0  0  0  0  0
    5.1734    3.6874    3.5160 C   0  0  2  0  0  0  0  0  0  0  0  0
    6.4747    3.9371    4.1150 O   0  0  0  0  0  0  0  0  0  0  0  0
   10.2551    4.8460    3.3677 C   0  0  0  0  0  0  0  0  0  0  0  0
   10.7297    5.5726    4.4972 O   0  0  0  0  0  0  0  0  0  0  0  0
    8.4848   -1.4621    5.3697 C   0  0  1  0  0  0  0  0  0  0  0  0
    9.1702   -0.9195    4.1840 O   0  0  0  0  0  0  0  0  0  0  0  0
    8.3659    7.4092   -0.8756 C   0  0  0  0  0  0  0  0  0  0  0  0
    7.9608    8.3781   -1.8117 O   0  0  0  0  0  0  0  0  0  0  0  0
    4.7376    2.1771    3.7273 C   0  0  1  0  0  0  0  0  0  0  0  0
    4.4230    1.9421    5.1026 O   0  0  0  0  0  0  0  0  0  0  0  0
    8.0257   -2.9607    5.1014 C   0  0  0  0  0  0  0  0  0  0  0  0
    9.1159   -3.9145    4.7573 N   0  0  0  0  0  0  0  0  0  0  0  0
  1  2  1  6  0  0  0
  1  7  1  0  0  0  0
  1 30  1  0  0  0  0
  3  4  1  6  0  0  0
  3  9  1  0  0  0  0
  3 39  1  0  0  0  0
  5 10  1  0  0  0  0
  5 26  1  0  0  0  0
  5 32  1  6  0  0  0
  6 12  1  0  0  0  0
  6 36  1  0  0  0  0
  6 19  1  6  0  0  0
  7  8  1  1  0  0  0
  7 14  1  0  0  0  0
  9 16  1  0  0  0  0
 10 11  1  1  0  0  0
 10 18  1  0  0  0  0
 12 13  1  6  0  0  0
 12 20  1  0  0  0  0
 14 15  1  1  0  0  0
 14 22  1  0  0  0  0
 16 17  1  6  0  0  0
 16 24  1  0  0  0  0
 18 19  1  1  0  0  0
 18 25  1  0  0  0  0
 20 21  1  6  0  0  0
 20 27  1  0  0  0  0
 22 23  1  6  0  0  0
 22 29  1  0  0  0  0
 24  2  1  1  0  0  0
 24 31  1  0  0  0  0
 25 26  1  0  0  0  0
 25 33  1  6  0  0  0
 27 28  1  6  0  0  0
 27 35  1  0  0  0  0
 29 30  1  0  0  0  0
 29 37  1  6  0  0  0
 31 32  1  1  0  0  0
 31 39  1  0  0  0  0
 33 34  1  0  0  0  0
 35 36  1  0  0  0  0
 35 41  1  6  0  0  0
 37 38  1  0  0  0  0
 39 40  1  1  0  0  0
 41 42  1  0  0  0  0
M  END
>  <CHROM.1>
-135.03988681,60.10949795,-84.69397899,-68.15403132,-166.86712437,-176.44793085
-61.30636619,-80.04969052,-60.54055175,7.48402447,3.29065534,3.19331665,-1.85583175
0.28759893,2.75607959

>  <Name>
2o3w_lig

>  <RI>
0

>  <Rbt.Current_Directory>
/home/itssahil/PROJECTS/Mol_Feturizer/New_Systems/rnas/2o3w

>  <Rbt.Executable>
rbdock ($Id: //depot/dev/client3/rdock/2013.1/src/exe/rbdock.cxx#4 $)

>  <Rbt.Library>
libRbt.so (2013.1, Build901 2013/11/27)

>  <Rbt.Parameter_File>
/export/apps/rDock/src/rDock_2013.1_src/data/scripts/dock_solv.prm

>  <Rbt.Receptor>
prm/pocket_docking_3.prm

>  <SCORE>
-8.91946

>  <SCORE.INTER>
-3.1836

>  <SCORE.INTER.CONST>
1

>  <SCORE.INTER.POLAR>
-0.52875

>  <SCORE.INTER.ROT>
9

>  <SCORE.INTER.SOLV>
8.78489

>  <SCORE.INTER.VDW>
-12.8882

>  <SCORE.INTER.norm>
-0.0758001

>  <SCORE.INTRA>
-6.00434

>  <SCORE.INTRA.DIHEDRAL>
-16.0521

>  <SCORE.INTRA.DIHEDRAL.0>
27.8999

>  <SCORE.INTRA.POLAR>
0

>  <SCORE.INTRA.POLAR.0>
0

>  <SCORE.INTRA.REPUL>
0

>  <SCORE.INTRA.REPUL.0>
0

>  <SCORE.INTRA.SOLV>
-0.952169

>  <SCORE.INTRA.SOLV.lig_0>
-104.479

>  <SCORE.INTRA.VDW>
2.49777

>  <SCORE.INTRA.VDW.0>
-6.17816

>  <SCORE.INTRA.norm>
-0.14296

>  <SCORE.RESTR>
0.26848

>  <SCORE.RESTR.CAVITY>
0.26848

>  <SCORE.RESTR.norm>
0.00639238

>  <SCORE.SYSTEM>
0

>  <SCORE.SYSTEM.CONST>
0

>  <SCORE.SYSTEM.DIHEDRAL>
0

>  <SCORE.SYSTEM.SOLV>
0

>  <SCORE.SYSTEM.norm>
0

>  <SCORE.heavy>
42

>  <SCORE.norm>
-0.212368

>  <RMSD>
9.189

$$$$
2o3w_lig
 OpenBabel11021811463D
libRbt.so/2013.1/901 2013/11/27
 42 45  0  0  0  0  0  0  0  0999 V2000
    3.3230    5.1794    1.2279 C   0  0  2  0  0  0  0  0  0  0  0  0
    4.2042    5.0639    0.0977 O   0  0  0  0  0  0  0  0  0  0  0  0
    8.4074    4.1390   -0.4259 C   0  0  2  0  0  0  0  0  0  0  0  0
    9.8908    4.0955   -0.2585 N   0  0  0  0  0  0  0  0  0  0  0  0
    5.5735    2.2942    2.8063 C   0  0  1  0  0  0  0  0  0  0  0  0
    6.2570   -0.4012    4.0846 C   0  0  1  0  0  0  0  0  0  0  0  0
    1.8935    4.8092    0.7300 C   0  0  2  0  0  0  0  0  0  0  0  0
    1.8684    3.5410   -0.0193 N   0  0  0  0  0  0  0  0  0  0  0  0
    7.9175    5.5878   -0.8295 C   0  0  0  0  0  0  0  0  0  0  0  0
    5.0056    2.4023    4.2542 C   0  0  2  0  0  0  0  0  0  0  0  0
    6.0065    2.6970    5.2594 O   0  0  0  0  0  0  0  0  0  0  0  0
    6.5058   -1.9526    4.0842 C   0  0  2  0  0  0  0  0  0  0  0  0
    6.7495   -2.4541    5.4699 N   0  0  0  0  0  0  0  0  0  0  0  0
    1.3009    5.8858   -0.1977 C   0  0  1  0  0  0  0  0  0  0  0  0
   -0.0224    5.5246   -0.5970 O   0  0  0  0  0  0  0  0  0  0  0  0
    6.3528    5.5647   -1.0129 C   0  0  2  0  0  0  0  0  0  0  0  0
    5.8583    6.9112   -1.4080 N   0  0  0  0  0  0  0  0  0  0  0  0
    4.2998    1.0531    4.3980 C   0  0  2  0  0  0  0  0  0  0  0  0
    5.1954    0.0329    4.9438 O   0  0  0  0  0  0  0  0  0  0  0  0
    7.7437   -2.2893    3.1244 C   0  0  1  0  0  0  0  0  0  0  0  0
    7.3230   -2.1398    1.7497 O   0  0  0  0  0  0  0  0  0  0  0  0
    1.3198    7.2537    0.5218 C   0  0  2  0  0  0  0  0  0  0  0  0
    0.7648    8.2474   -0.3083 O   0  0  0  0  0  0  0  0  0  0  0  0
    5.6421    5.1098    0.3227 C   0  0  2  0  0  0  0  0  0  0  0  0
    3.8171    0.6741    2.9878 C   0  0  2  0  0  0  0  0  0  0  0  0
    4.7971    1.2711    2.1418 O   0  0  0  0  0  0  0  0  0  0  0  0
    9.0164   -1.3556    3.3999 C   0  0  2  0  0  0  0  0  0  0  0  0
    9.5487   -1.7175    4.6736 O   0  0  0  0  0  0  0  0  0  0  0  0
    2.7956    7.6107    0.9011 C   0  0  2  0  0  0  0  0  0  0  0  0
    3.3521    6.5607    1.7541 O   0  0  0  0  0  0  0  0  0  0  0  0
    6.1147    3.7226    0.8100 C   0  0  2  0  0  0  0  0  0  0  0  0
    5.5093    3.5517    2.1210 O   0  0  0  0  0  0  0  0  0  0  0  0
    2.3841    1.1739    2.6262 C   0  0  0  0  0  0  0  0  0  0  0  0
    1.4410    0.5808    3.5138 O   0  0  0  0  0  0  0  0  0  0  0  0
    8.6024    0.1645    3.3940 C   0  0  1  0  0  0  0  0  0  0  0  0
    7.5533    0.3068    4.4184 O   0  0  0  0  0  0  0  0  0  0  0  0
    2.9074    8.9364    1.6180 C   0  0  0  0  0  0  0  0  0  0  0  0
    4.2551    9.2204    1.9050 O   0  0  0  0  0  0  0  0  0  0  0  0
    7.6971    3.6866    0.9125 C   0  0  1  0  0  0  0  0  0  0  0  0
    8.1418    2.3616    1.2165 O   0  0  0  0  0  0  0  0  0  0  0  0
    9.8025    1.1637    3.6937 C   0  0  0  0  0  0  0  0  0  0  0  0
   10.9759    1.0493    2.7846 N   0  0  0  0  0  0  0  0  0  0  0  0
  1  2  1  6  0  0  0
  1  7  1  0  0  0  0
  1 30  1  0  0  0  0
  3  4  1  1  0  0  0
  3  9  1  0  0  0  0
  3 39  1  0  0  0  0
  5 10  1  0  0  0  0
  5 26  1  0  0  0  0
  5 32  1  6  0  0  0
  6 12  1  0  0  0  0
  6 36  1  0  0  0  0
  6 19  1  1  0  0  0
  7  8  1  6  0  0  0
  7 14  1  0  0  0  0
  9 16  1  0  0  0  0
 10 11  1  1  0  0  0
 10 18  1  0  0  0  0
 12 13  1  1  0  0  0
 12 20  1  0  0  0  0
 14 15  1  1  0  0  0
 14 22  1  0  0  0  0
 16 17  1  1  0  0  0
 16 24  1  0  0  0  0
 18 19  1  6  0  0  0
 18 25  1  0  0  0  0
 20 21  1  6  0  0  0
 20 27  1  0  0  0  0
 22 23  1  6  0  0  0
 22 29  1  0  0  0  0
 24  2  1  6  0  0  0
 24 31  1  0  0  0  0
 25 26  1  0  0  0  0
 25 33  1  6  0  0  0
 27 28  1  1  0  0  0
 27 35  1  0  0  0  0
 29 30  1  0  0  0  0
 29 37  1  1  0  0  0
 31 32  1  1  0  0  0
 31 39  1  0  0  0  0
 33 34  1  0  0  0  0
 35 36  1  0  0  0  0
 35 41  1  1  0  0  0
 37 38  1  0  0  0  0
 39 40  1  6  0  0  0
 41 42  1  0  0  0  0
M  END
>  <CHROM.1>
-168.72023300,173.29590972,-137.50539061,-69.43596963,-156.66724468,-62.10963231
-178.58550211,171.18923030,56.50825215,5.40676566,2.98370353,1.99301867,2.12709167
0.14609146,-0.52100110

>  <Name>
2o3w_lig

>  <RI>
0

>  <Rbt.Current_Directory>
/home/itssahil/PROJECTS/Mol_Feturizer/New_Systems/rnas/2o3w

>  <Rbt.Executable>
rbdock ($Id: //depot/dev/client3/rdock/2013.1/src/exe/rbdock.cxx#4 $)

>  <Rbt.Library>
libRbt.so (2013.1, Build901 2013/11/27)

>  <Rbt.Parameter_File>
/export/apps/rDock/src/rDock_2013.1_src/data/scripts/dock_solv.prm

>  <Rbt.Receptor>
prm/pocket_docking_4.prm

>  <SCORE>
-11.6357

>  <SCORE.INTER>
-1.9799

>  <SCORE.INTER.CONST>
1

>  <SCORE.INTER.POLAR>
0

>  <SCORE.INTER.ROT>
9

>  <SCORE.INTER.SOLV>
15.8317

>  <SCORE.INTER.VDW>
-16.1972

>  <SCORE.INTER.norm>
-0.0471404

>  <SCORE.INTRA>
-9.65579

>  <SCORE.INTRA.DIHEDRAL>
-18.001

>  <SCORE.INTRA.DIHEDRAL.0>
27.8999

>  <SCORE.INTRA.POLAR>
0

>  <SCORE.INTRA.POLAR.0>
0

>  <SCORE.INTRA.REPUL>
0

>  <SCORE.INTRA.REPUL.0>
0

>  <SCORE.INTRA.SOLV>
-3.05233

>  <SCORE.INTRA.SOLV.lig_0>
-104.479

>  <SCORE.INTRA.VDW>
0.870873

>  <SCORE.INTRA.VDW.0>
-6.17816

>  <SCORE.INTRA.norm>
-0.2299

>  <SCORE.RESTR>
0

>  <SCORE.RESTR.CAVITY>
0

>  <SCORE.RESTR.norm>
0

>  <SCORE.SYSTEM>
0

>  <SCORE.SYSTEM.CONST>
0

>  <SCORE.SYSTEM.DIHEDRAL>
0

>  <SCORE.SYSTEM.SOLV>
0

>  <SCORE.SYSTEM.norm>
0

>  <SCORE.heavy>
42

>  <SCORE.norm>
-0.27704

>  <RMSD>
9.200

$$$$
2o3w_lig
 OpenBabel11021811463D
libRbt.so/2013.1/901 2013/11/27
 42 45  0  0  0  0  0  0  0  0999 V2000
    9.0117    7.0298    6.9738 C   0  0  2  0  0  0  0  0  0  0  0  0
    9.0956    5.6618    7.4083 O   0  0  0  0  0  0  0  0  0  0  0  0
   12.8080    5.9910    9.6231 C   0  0  2  0  0  0  0  0  0  0  0  0
   13.9997    5.6756   10.4662 N   0  0  0  0  0  0  0  0  0  0  0  0
   11.0049    2.9108    6.8391 C   0  0  1  0  0  0  0  0  0  0  0  0
    9.4495   -0.7147    5.8664 C   0  0  1  0  0  0  0  0  0  0  0  0
    7.7708    7.1345    6.0371 C   0  0  2  0  0  0  0  0  0  0  0  0
    6.5621    6.5400    6.6340 N   0  0  0  0  0  0  0  0  0  0  0  0
   11.4672    5.8568   10.4514 C   0  0  0  0  0  0  0  0  0  0  0  0
   10.8923    1.9626    5.6067 C   0  0  2  0  0  0  0  0  0  0  0  0
    9.5567    1.8722    5.0527 O   0  0  0  0  0  0  0  0  0  0  0  0
    8.3289   -1.5809    6.5466 C   0  0  2  0  0  0  0  0  0  0  0  0
    8.9260   -2.6801    7.3628 N   0  0  0  0  0  0  0  0  0  0  0  0
    7.9953    6.4261    4.6885 C   0  0  1  0  0  0  0  0  0  0  0  0
    6.8501    6.5811    3.8486 O   0  0  0  0  0  0  0  0  0  0  0  0
   10.2519    6.2225    9.5176 C   0  0  2  0  0  0  0  0  0  0  0  0
    8.9724    6.1207   10.2701 N   0  0  0  0  0  0  0  0  0  0  0  0
   11.4614    0.6632    6.1786 C   0  0  2  0  0  0  0  0  0  0  0  0
   10.4138   -0.1668    6.7739 O   0  0  0  0  0  0  0  0  0  0  0  0
    7.3548   -2.1665    5.4174 C   0  0  1  0  0  0  0  0  0  0  0  0
    6.5231   -1.0957    4.9167 O   0  0  0  0  0  0  0  0  0  0  0  0
    9.2685    6.9884    4.0163 C   0  0  2  0  0  0  0  0  0  0  0  0
    9.4788    6.3618    2.7723 O   0  0  0  0  0  0  0  0  0  0  0  0
   10.2062    5.2646    8.2622 C   0  0  2  0  0  0  0  0  0  0  0  0
   12.5042    1.0824    7.2285 C   0  0  2  0  0  0  0  0  0  0  0  0
   11.9880    2.3177    7.7183 O   0  0  0  0  0  0  0  0  0  0  0  0
    8.1486   -2.8423    4.2006 C   0  0  2  0  0  0  0  0  0  0  0  0
    8.7523   -4.0386    4.6914 O   0  0  0  0  0  0  0  0  0  0  0  0
   10.4913    6.7577    4.9655 C   0  0  2  0  0  0  0  0  0  0  0  0
   10.2451    7.4088    6.2521 O   0  0  0  0  0  0  0  0  0  0  0  0
   11.5092    5.3005    7.4338 C   0  0  2  0  0  0  0  0  0  0  0  0
   11.3638    4.2422    6.4472 O   0  0  0  0  0  0  0  0  0  0  0  0
   13.9549    1.2576    6.6817 C   0  0  0  0  0  0  0  0  0  0  0  0
   13.9670    2.2928    5.7034 O   0  0  0  0  0  0  0  0  0  0  0  0
    9.2509   -1.8638    3.6443 C   0  0  1  0  0  0  0  0  0  0  0  0
   10.1217   -1.5365    4.7866 O   0  0  0  0  0  0  0  0  0  0  0  0
   11.7839    7.2855    4.3874 C   0  0  0  0  0  0  0  0  0  0  0  0
   11.7534    8.6911    4.3349 O   0  0  0  0  0  0  0  0  0  0  0  0
   12.7616    5.0295    8.3685 C   0  0  1  0  0  0  0  0  0  0  0  0
   13.9747    5.2122    7.6333 O   0  0  0  0  0  0  0  0  0  0  0  0
   10.1122   -2.4690    2.4524 C   0  0  0  0  0  0  0  0  0  0  0  0
   10.9348   -3.6615    2.7955 N   0  0  0  0  0  0  0  0  0  0  0  0
  1  2  1  6  0  0  0
  1  7  1  0  0  0  0
  1 30  1  0  0  0  0
  3  4  1  1  0  0  0
  3  9  1  0  0  0  0
  3 39  1  0  0  0  0
  5 10  1  0  0  0  0
  5 26  1  0  0  0  0
  5 32  1  6  0  0  0
  6 12  1  0  0  0  0
  6 36  1  0  0  0  0
  6 19  1  1  0  0  0
  7  8  1  1  0  0  0
  7 14  1  0  0  0  0
  9 16  1  0  0  0  0
 10 11  1  1  0  0  0
 10 18  1  0  0  0  0
 12 13  1  6  0  0  0
 12 20  1  0  0  0  0
 14 15  1  6  0  0  0
 14 22  1  0  0  0  0
 16 17  1  1  0  0  0
 16 24  1  0  0  0  0
 18 19  1  1  0  0  0
 18 25  1  0  0  0  0
 20 21  1  6  0  0  0
 20 27  1  0  0  0  0
 22 23  1  6  0  0  0
 22 29  1  0  0  0  0
 24  2  1  6  0  0  0
 24 31  1  0  0  0  0
 25 26  1  0  0  0  0
 25 33  1  6  0  0  0
 27 28  1  1  0  0  0
 27 35  1  0  0  0  0
 29 30  1  0  0  0  0
 29 37  1  6  0  0  0
 31 32  1  6  0  0  0
 31 39  1  0  0  0  0
 33 34  1  0  0  0  0
 35 36  1  0  0  0  0
 35 41  1  6  0  0  0
 37 38  1  0  0  0  0
 39 40  1  6  0  0  0
 41 42  1  0  0  0  0
M  END
>  <CHROM.1>
177.62361967,179.23891221,-179.08470794,67.11983912,53.77193460,61.80401168
68.36184229,-51.48451943,-63.47389535,10.27722326,3.03278775,6.18584137,1.38837014
-0.71413303,0.11849540

>  <Name>
2o3w_lig

>  <RI>
0

>  <Rbt.Current_Directory>
/home/itssahil/PROJECTS/Mol_Feturizer/New_Systems/rnas/2o3w

>  <Rbt.Executable>
rbdock ($Id: //depot/dev/client3/rdock/2013.1/src/exe/rbdock.cxx#4 $)

>  <Rbt.Library>
libRbt.so (2013.1, Build901 2013/11/27)

>  <Rbt.Parameter_File>
/export/apps/rDock/src/rDock_2013.1_src/data/scripts/dock_solv.prm

>  <Rbt.Receptor>
prm/pocket_docking_7.prm

>  <SCORE>
-23.0823

>  <SCORE.INTER>
-11.374

>  <SCORE.INTER.CONST>
1

>  <SCORE.INTER.POLAR>
-2.62973

>  <SCORE.INTER.ROT>
9

>  <SCORE.INTER.SOLV>
13.9895

>  <SCORE.INTER.VDW>
-13.08

>  <SCORE.INTER.norm>
-0.270809

>  <SCORE.INTRA>
-11.7083

>  <SCORE.INTRA.DIHEDRAL>
-26.623

>  <SCORE.INTRA.DIHEDRAL.0>
27.8999

>  <SCORE.INTRA.POLAR>
0

>  <SCORE.INTRA.POLAR.0>
0

>  <SCORE.INTRA.REPUL>
0

>  <SCORE.INTRA.REPUL.0>
0

>  <SCORE.INTRA.SOLV>
-2.51483

>  <SCORE.INTRA.SOLV.lig_0>
-104.479

>  <SCORE.INTRA.VDW>
2.86062

>  <SCORE.INTRA.VDW.0>
-6.17816

>  <SCORE.INTRA.norm>
-0.278769

>  <SCORE.RESTR>
0

>  <SCORE.RESTR.CAVITY>
0

>  <SCORE.RESTR.norm>
0

>  <SCORE.SYSTEM>
0

>  <SCORE.SYSTEM.CONST>
0

>  <SCORE.SYSTEM.DIHEDRAL>
0

>  <SCORE.SYSTEM.SOLV>
0

>  <SCORE.SYSTEM.norm>
0

>  <SCORE.heavy>
42

>  <SCORE.norm>
-0.549579

>  <RMSD>
9.202

$$$$
2o3w_lig
 OpenBabel11021811463D
libRbt.so/2013.1/901 2013/11/27
 42 45  0  0  0  0  0  0  0  0999 V2000
   13.4260    4.2045    6.4707 C   0  0  2  0  0  0  0  0  0  0  0  0
   12.0527    4.4238    6.1055 O   0  0  0  0  0  0  0  0  0  0  0  0
    9.8480    6.4883    2.9954 C   0  0  2  0  0  0  0  0  0  0  0  0
    9.4397    7.0719    1.6827 N   0  0  0  0  0  0  0  0  0  0  0  0
   10.1064    1.9112    3.3782 C   0  0  1  0  0  0  0  0  0  0  0  0
    7.7169   -1.6117    2.5520 C   0  0  1  0  0  0  0  0  0  0  0  0
   13.4272    3.1722    7.6379 C   0  0  2  0  0  0  0  0  0  0  0  0
   12.6094    1.9835    7.3400 N   0  0  0  0  0  0  0  0  0  0  0  0
   11.1616    7.1763    3.5458 C   0  0  0  0  0  0  0  0  0  0  0  0
   10.7707    0.5016    3.3288 C   0  0  2  0  0  0  0  0  0  0  0  0
   11.4786    0.2267    2.0950 O   0  0  0  0  0  0  0  0  0  0  0  0
    7.9662   -2.9884    3.2671 C   0  0  2  0  0  0  0  0  0  0  0  0
    9.0203   -3.7743    2.5585 N   0  0  0  0  0  0  0  0  0  0  0  0
   12.8818    3.7705    8.9477 C   0  0  1  0  0  0  0  0  0  0  0  0
   12.9384    2.8034    9.9977 O   0  0  0  0  0  0  0  0  0  0  0  0
   11.5279    6.5363    4.9381 C   0  0  2  0  0  0  0  0  0  0  0  0
   12.7534    7.1714    5.4932 N   0  0  0  0  0  0  0  0  0  0  0  0
    9.5717   -0.4022    3.6200 C   0  0  2  0  0  0  0  0  0  0  0  0
    8.8884   -0.8026    2.3897 O   0  0  0  0  0  0  0  0  0  0  0  0
    6.5893   -3.8047    3.3373 C   0  0  1  0  0  0  0  0  0  0  0  0
    5.7365   -3.1975    4.3338 O   0  0  0  0  0  0  0  0  0  0  0  0
   13.6842    5.0417    9.3073 C   0  0  2  0  0  0  0  0  0  0  0  0
   13.2079    5.5923   10.5133 O   0  0  0  0  0  0  0  0  0  0  0  0
   11.7568    4.9799    4.7927 C   0  0  2  0  0  0  0  0  0  0  0  0
    8.6403    0.4100    4.5356 C   0  0  2  0  0  0  0  0  0  0  0  0
    8.8772    1.7541    4.1236 O   0  0  0  0  0  0  0  0  0  0  0  0
    5.8217   -3.8516    1.9316 C   0  0  2  0  0  0  0  0  0  0  0  0
    6.5855   -4.6745    1.0507 O   0  0  0  0  0  0  0  0  0  0  0  0
   13.5549    6.0747    8.1387 C   0  0  2  0  0  0  0  0  0  0  0  0
   14.0462    5.4770    6.8972 O   0  0  0  0  0  0  0  0  0  0  0  0
   10.5309    4.2465    4.2057 C   0  0  2  0  0  0  0  0  0  0  0  0
   10.9777    2.8826    3.9717 O   0  0  0  0  0  0  0  0  0  0  0  0
    8.9044    0.2365    6.0635 C   0  0  0  0  0  0  0  0  0  0  0  0
    8.6626   -1.1180    6.4319 O   0  0  0  0  0  0  0  0  0  0  0  0
    5.6719   -2.4027    1.3314 C   0  0  1  0  0  0  0  0  0  0  0  0
    7.0378   -1.8619    1.2219 O   0  0  0  0  0  0  0  0  0  0  0  0
   14.3179    7.3518    8.4044 C   0  0  0  0  0  0  0  0  0  0  0  0
   15.6963    7.0839    8.4920 O   0  0  0  0  0  0  0  0  0  0  0  0
   10.0799    4.9311    2.8479 C   0  0  1  0  0  0  0  0  0  0  0  0
    8.8582    4.3497    2.3842 O   0  0  0  0  0  0  0  0  0  0  0  0
    4.9486   -2.3596   -0.0841 C   0  0  0  0  0  0  0  0  0  0  0  0
    5.6568   -3.0629   -1.1889 N   0  0  0  0  0  0  0  0  0  0  0  0
  1  2  1  1  0  0  0
  1  7  1  0  0  0  0
  1 30  1  0  0  0  0
  3  4  1  6  0  0  0
  3  9  1  0  0  0  0
  3 39  1  0  0  0  0
  5 10  1  0  0  0  0
  5 26  1  0  0  0  0
  5 32  1  1  0  0  0
  6 12  1  0  0  0  0
  6 36  1  0  0  0  0
  6 19  1  6  0  0  0
  7  8  1  6  0  0  0
  7 14  1  0  0  0  0
  9 16  1  0  0  0  0
 10 11  1  6  0  0  0
 10 18  1  0  0  0  0
 12 13  1  6  0  0  0
 12 20  1  0  0  0  0
 14 15  1  1  0  0  0
 14 22  1  0  0  0  0
 16 17  1  6  0  0  0
 16 24  1  0  0  0  0
 18 19  1  6  0  0  0
 18 25  1  0  0  0  0
 20 21  1  1  0  0  0
 20 27  1  0  0  0  0
 22 23  1  1  0  0  0
 22 29  1  0  0  0  0
 24  2  1  1  0  0  0
 24 31  1  0  0  0  0
 25 26  1  0  0  0  0
 25 33  1  1  0  0  0
 27 28  1  6  0  0  0
 27 35  1  0  0  0  0
 29 30  1  0  0  0  0
 29 37  1  1  0  0  0
 31 32  1  6  0  0  0
 31 39  1  0  0  0  0
 33 34  1  0  0  0  0
 35 36  1  0  0  0  0
 35 41  1  6  0  0  0
 37 38  1  0  0  0  0
 39 40  1  1  0  0  0
 41 42  1  0  0  0  0
M  END
>  <CHROM.1>
-160.03538865,-175.70202977,-60.58824236,-177.70531116,-97.61565721,-63.28788411
63.56419098,-177.72927255,-63.10934776,10.18504482,1.93629752,4.57592169
-0.34615416,0.96564427,2.56228314

>  <Name>
2o3w_lig

>  <RI>
0

>  <Rbt.Current_Directory>
/home/itssahil/PROJECTS/Mol_Feturizer/New_Systems/rnas/2o3w

>  <Rbt.Executable>
rbdock ($Id: //depot/dev/client3/rdock/2013.1/src/exe/rbdock.cxx#4 $)

>  <Rbt.Library>
libRbt.so (2013.1, Build901 2013/11/27)

>  <Rbt.Parameter_File>
/export/apps/rDock/src/rDock_2013.1_src/data/scripts/dock_solv.prm

>  <Rbt.Receptor>
prm/pocket_docking_7.prm

>  <SCORE>
-11.524

>  <SCORE.INTER>
-3.25085

>  <SCORE.INTER.CONST>
1

>  <SCORE.INTER.POLAR>
0

>  <SCORE.INTER.ROT>
9

>  <SCORE.INTER.SOLV>
9.72149

>  <SCORE.INTER.VDW>
-15.0077

>  <SCORE.INTER.norm>
-0.0774013

>  <SCORE.INTRA>
-8.27319

>  <SCORE.INTRA.DIHEDRAL>
-20.739

>  <SCORE.INTRA.DIHEDRAL.0>
27.8999

>  <SCORE.INTRA.POLAR>
0

>  <SCORE.INTRA.POLAR.0>
0

>  <SCORE.INTRA.REPUL>
0

>  <SCORE.INTRA.REPUL.0>
0

>  <SCORE.INTRA.SOLV>
-0.110982

>  <SCORE.INTRA.SOLV.lig_0>
-104.479

>  <SCORE.INTRA.VDW>
2.15181

>  <SCORE.INTRA.VDW.0>
-6.17816

>  <SCORE.INTRA.norm>
-0.196981

>  <SCORE.RESTR>
0

>  <SCORE.RESTR.CAVITY>
0

>  <SCORE.RESTR.norm>
0

>  <SCORE.SYSTEM>
0

>  <SCORE.SYSTEM.CONST>
0

>  <SCORE.SYSTEM.DIHEDRAL>
0

>  <SCORE.SYSTEM.SOLV>
0

>  <SCORE.SYSTEM.norm>
0

>  <SCORE.heavy>
42

>  <SCORE.norm>
-0.274382

>  <RMSD>
9.220

$$$$
2o3w_lig
 OpenBabel11021811463D
libRbt.so/2013.1/901 2013/11/27
 42 45  0  0  0  0  0  0  0  0999 V2000
    6.2475    6.9463    3.5781 C   0  0  2  0  0  0  0  0  0  0  0  0
    7.4726    6.2184    3.3868 O   0  0  0  0  0  0  0  0  0  0  0  0
    7.2732    5.8318   -0.9267 C   0  0  2  0  0  0  0  0  0  0  0  0
    7.6153    5.5395   -2.3508 N   0  0  0  0  0  0  0  0  0  0  0  0
    6.9834    2.2881    1.9295 C   0  0  1  0  0  0  0  0  0  0  0  0
    7.4396   -1.8411    2.1138 C   0  0  1  0  0  0  0  0  0  0  0  0
    6.0966    7.1886    5.1100 C   0  0  2  0  0  0  0  0  0  0  0  0
    7.3172    7.7496    5.7150 N   0  0  0  0  0  0  0  0  0  0  0  0
    8.2074    6.9612   -0.3322 C   0  0  0  0  0  0  0  0  0  0  0  0
    7.6349    1.2013    2.8379 C   0  0  2  0  0  0  0  0  0  0  0  0
    8.8501    0.6298    2.2941 O   0  0  0  0  0  0  0  0  0  0  0  0
    7.3855   -2.9387    0.9909 C   0  0  2  0  0  0  0  0  0  0  0  0
    6.0234   -3.5451    0.9028 N   0  0  0  0  0  0  0  0  0  0  0  0
    5.7747    5.8932    5.8776 C   0  0  1  0  0  0  0  0  0  0  0  0
    5.6062    6.1684    7.2692 O   0  0  0  0  0  0  0  0  0  0  0  0
    7.7847    7.2401    1.1598 C   0  0  2  0  0  0  0  0  0  0  0  0
    8.6353    8.3101    1.7472 N   0  0  0  0  0  0  0  0  0  0  0  0
    6.4691    0.2281    3.0195 C   0  0  2  0  0  0  0  0  0  0  0  0
    6.4615   -0.8023    1.9807 O   0  0  0  0  0  0  0  0  0  0  0  0
    8.4945   -4.0558    1.2896 C   0  0  1  0  0  0  0  0  0  0  0  0
    9.7994   -3.5099    0.9924 O   0  0  0  0  0  0  0  0  0  0  0  0
    4.5116    5.2371    5.2749 C   0  0  2  0  0  0  0  0  0  0  0  0
    4.1937    4.0582    5.9775 O   0  0  0  0  0  0  0  0  0  0  0  0
    7.9097    5.9266    2.0288 C   0  0  2  0  0  0  0  0  0  0  0  0
    5.1911    1.0821    2.9667 C   0  0  2  0  0  0  0  0  0  0  0  0
    5.5533    2.1483    2.0923 O   0  0  0  0  0  0  0  0  0  0  0  0
    8.4629   -4.5740    2.8055 C   0  0  2  0  0  0  0  0  0  0  0  0
    7.2617   -5.3245    2.9794 O   0  0  0  0  0  0  0  0  0  0  0  0
    4.7694    4.9271    3.7626 C   0  0  2  0  0  0  0  0  0  0  0  0
    5.1064    6.1637    3.0575 O   0  0  0  0  0  0  0  0  0  0  0  0
    7.0652    4.7587    1.4737 C   0  0  2  0  0  0  0  0  0  0  0  0
    7.4402    3.6029    2.2724 O   0  0  0  0  0  0  0  0  0  0  0  0
    4.7063    1.6273    4.3458 C   0  0  0  0  0  0  0  0  0  0  0  0
    4.2343    0.5436    5.1405 O   0  0  0  0  0  0  0  0  0  0  0  0
    8.4972   -3.3597    3.8088 C   0  0  1  0  0  0  0  0  0  0  0  0
    7.3407   -2.5136    3.4670 O   0  0  0  0  0  0  0  0  0  0  0  0
    3.5778    4.2868    3.0889 C   0  0  0  0  0  0  0  0  0  0  0  0
    2.4935    5.1830    3.0674 O   0  0  0  0  0  0  0  0  0  0  0  0
    7.4017    4.5172   -0.0573 C   0  0  1  0  0  0  0  0  0  0  0  0
    6.5148    3.5403   -0.6093 O   0  0  0  0  0  0  0  0  0  0  0  0
    8.4349   -3.7831    5.3403 C   0  0  0  0  0  0  0  0  0  0  0  0
    9.5833   -4.5946    5.8295 N   0  0  0  0  0  0  0  0  0  0  0  0
  1  2  1  1  0  0  0
  1  7  1  0  0  0  0
  1 30  1  0  0  0  0
  3  4  1  6  0  0  0
  3  9  1  0  0  0  0
  3 39  1  0  0  0  0
  5 10  1  0  0  0  0
  5 26  1  0  0  0  0
  5 32  1  1  0  0  0
  6 12  1  0  0  0  0
  6 36  1  0  0  0  0
  6 19  1  6  0  0  0
  7  8  1  1  0  0  0
  7 14  1  0  0  0  0
  9 16  1  0  0  0  0
 10 11  1  6  0  0  0
 10 18  1  0  0  0  0
 12 13  1  1  0  0  0
 12 20  1  0  0  0  0
 14 15  1  1  0  0  0
 14 22  1  0  0  0  0
 16 17  1  1  0  0  0
 16 24  1  0  0  0  0
 18 19  1  6  0  0  0
 18 25  1  0  0  0  0
 20 21  1  1  0  0  0
 20 27  1  0  0  0  0
 22 23  1  1  0  0  0
 22 29  1  0  0  0  0
 24  2  1  1  0  0  0
 24 31  1  0  0  0  0
 25 26  1  0  0  0  0
 25 33  1  1  0  0  0
 27 28  1  6  0  0  0
 27 35  1  0  0  0  0
 29 30  1  0  0  0  0
 29 37  1  6  0  0  0
 31 32  1  1  0  0  0
 31 39  1  0  0  0  0
 33 34  1  0  0  0  0
 35 36  1  0  0  0  0
 35 41  1  1  0  0  0
 37 38  1  0  0  0  0
 39 40  1  6  0  0  0
 41 42  1  0  0  0  0
M  END
>  <CHROM.1>
-176.18547819,173.98185862,179.16262525,75.41572351,46.56658530,-69.08079637
64.65431338,-171.81940658,63.34478684,6.73169036,2.24117006,2.79967406,1.94596267
1.11384187,-0.32543504

>  <Name>
2o3w_lig

>  <RI>
0

>  <Rbt.Current_Directory>
/home/itssahil/PROJECTS/Mol_Feturizer/New_Systems/rnas/2o3w

>  <Rbt.Executable>
rbdock ($Id: //depot/dev/client3/rdock/2013.1/src/exe/rbdock.cxx#4 $)

>  <Rbt.Library>
libRbt.so (2013.1, Build901 2013/11/27)

>  <Rbt.Parameter_File>
/export/apps/rDock/src/rDock_2013.1_src/data/scripts/dock_solv.prm

>  <Rbt.Receptor>
prm/pocket_docking_7.prm

>  <SCORE>
-15.2875

>  <SCORE.INTER>
-2.89633

>  <SCORE.INTER.CONST>
1

>  <SCORE.INTER.POLAR>
-0.894528

>  <SCORE.INTER.ROT>
9

>  <SCORE.INTER.SOLV>
11.9716

>  <SCORE.INTER.VDW>
-12.5397

>  <SCORE.INTER.norm>
-0.0689602

>  <SCORE.INTRA>
-12.3912

>  <SCORE.INTRA.DIHEDRAL>
-24.7979

>  <SCORE.INTRA.DIHEDRAL.0>
27.8999

>  <SCORE.INTRA.POLAR>
0

>  <SCORE.INTRA.POLAR.0>
0

>  <SCORE.INTRA.REPUL>
0

>  <SCORE.INTRA.REPUL.0>
0

>  <SCORE.INTRA.SOLV>
-3.98686

>  <SCORE.INTRA.SOLV.lig_0>
-104.479

>  <SCORE.INTRA.VDW>
2.00119

>  <SCORE.INTRA.VDW.0>
-6.17816

>  <SCORE.INTRA.norm>
-0.295028

>  <SCORE.RESTR>
0

>  <SCORE.RESTR.CAVITY>
0

>  <SCORE.RESTR.norm>
0

>  <SCORE.SYSTEM>
0

>  <SCORE.SYSTEM.CONST>
0

>  <SCORE.SYSTEM.DIHEDRAL>
0

>  <SCORE.SYSTEM.SOLV>
0

>  <SCORE.SYSTEM.norm>
0

>  <SCORE.heavy>
42

>  <SCORE.norm>
-0.363988

>  <RMSD>
9.236

$$$$
2o3w_lig
 OpenBabel11021811463D
libRbt.so/2013.1/901 2013/11/27
 42 45  0  0  0  0  0  0  0  0999 V2000
    9.0891    5.3733    1.9557 C   0  0  2  0  0  0  0  0  0  0  0  0
   10.3493    5.8735    2.4342 O   0  0  0  0  0  0  0  0  0  0  0  0
   12.6887    5.2816    6.0359 C   0  0  2  0  0  0  0  0  0  0  0  0
   13.0952    5.1308    7.4651 N   0  0  0  0  0  0  0  0  0  0  0  0
    9.7923    2.2055    4.5377 C   0  0  1  0  0  0  0  0  0  0  0  0
    8.1578   -1.3674    6.6302 C   0  0  1  0  0  0  0  0  0  0  0  0
    9.1257    5.4609    0.4003 C   0  0  2  0  0  0  0  0  0  0  0  0
   10.3481    4.8675   -0.1691 N   0  0  0  0  0  0  0  0  0  0  0  0
   12.1425    6.7372    5.7450 C   0  0  0  0  0  0  0  0  0  0  0  0
    8.9341    2.2452    5.8387 C   0  0  2  0  0  0  0  0  0  0  0  0
    9.7078    2.4303    7.0496 O   0  0  0  0  0  0  0  0  0  0  0  0
    8.8992   -2.4256    7.5242 C   0  0  2  0  0  0  0  0  0  0  0  0
   10.2282   -2.7790    6.9413 N   0  0  0  0  0  0  0  0  0  0  0  0
    9.0597    6.9139   -0.1049 C   0  0  1  0  0  0  0  0  0  0  0  0
    9.0559    6.9443   -1.5331 O   0  0  0  0  0  0  0  0  0  0  0  0
   11.7524    6.8409    4.2220 C   0  0  2  0  0  0  0  0  0  0  0  0
   11.2469    8.2048    3.9091 N   0  0  0  0  0  0  0  0  0  0  0  0
    8.1745    0.9218    5.7340 C   0  0  2  0  0  0  0  0  0  0  0  0
    8.9039   -0.1697    6.3800 O   0  0  0  0  0  0  0  0  0  0  0  0
    7.9755   -3.7253    7.6810 C   0  0  1  0  0  0  0  0  0  0  0  0
    6.8833   -3.4170    8.5759 O   0  0  0  0  0  0  0  0  0  0  0  0
    7.8064    7.6059    0.4778 C   0  0  2  0  0  0  0  0  0  0  0  0
    7.7223    8.9325    0.0113 O   0  0  0  0  0  0  0  0  0  0  0  0
   10.6505    5.7700    3.8551 C   0  0  2  0  0  0  0  0  0  0  0  0
    7.9904    0.6559    4.2304 C   0  0  2  0  0  0  0  0  0  0  0  0
    9.1444    1.2624    3.6534 O   0  0  0  0  0  0  0  0  0  0  0  0
    7.3920   -4.2460    6.2825 C   0  0  2  0  0  0  0  0  0  0  0  0
    8.4836   -4.7728    5.5294 O   0  0  0  0  0  0  0  0  0  0  0  0
    7.8852    7.5732    2.0406 C   0  0  2  0  0  0  0  0  0  0  0  0
    7.9813    6.1876    2.4994 O   0  0  0  0  0  0  0  0  0  0  0  0
   11.0938    4.3237    4.1663 C   0  0  2  0  0  0  0  0  0  0  0  0
    9.9115    3.5061    3.9466 O   0  0  0  0  0  0  0  0  0  0  0  0
    6.6817    1.2404    3.6141 C   0  0  0  0  0  0  0  0  0  0  0  0
    6.6090    0.8818    2.2375 O   0  0  0  0  0  0  0  0  0  0  0  0
    6.7037   -3.0682    5.4943 C   0  0  1  0  0  0  0  0  0  0  0  0
    7.7328   -2.0263    5.3347 O   0  0  0  0  0  0  0  0  0  0  0  0
    6.6906    8.2261    2.6968 C   0  0  0  0  0  0  0  0  0  0  0  0
    6.8370    8.2098    4.0959 O   0  0  0  0  0  0  0  0  0  0  0  0
   11.5835    4.2113    5.6707 C   0  0  1  0  0  0  0  0  0  0  0  0
   12.1343    2.9141    5.9147 O   0  0  0  0  0  0  0  0  0  0  0  0
    6.1243   -3.4904    4.0749 C   0  0  0  0  0  0  0  0  0  0  0  0
    5.0542   -4.5252    4.1000 N   0  0  0  0  0  0  0  0  0  0  0  0
  1  2  1  1  0  0  0
  1  7  1  0  0  0  0
  1 30  1  0  0  0  0
  3  4  1  1  0  0  0
  3  9  1  0  0  0  0
  3 39  1  0  0  0  0
  5 10  1  0  0  0  0
  5 26  1  0  0  0  0
  5 32  1  6  0  0  0
  6 12  1  0  0  0  0
  6 36  1  0  0  0  0
  6 19  1  6  0  0  0
  7  8  1  1  0  0  0
  7 14  1  0  0  0  0
  9 16  1  0  0  0  0
 10 11  1  1  0  0  0
 10 18  1  0  0  0  0
 12 13  1  6  0  0  0
 12 20  1  0  0  0  0
 14 15  1  6  0  0  0
 14 22  1  0  0  0  0
 16 17  1  1  0  0  0
 16 24  1  0  0  0  0
 18 19  1  6  0  0  0
 18 25  1  0  0  0  0
 20 21  1  1  0  0  0
 20 27  1  0  0  0  0
 22 23  1  6  0  0  0
 22 29  1  0  0  0  0
 24  2  1  6  0  0  0
 24 31  1  0  0  0  0
 25 26  1  0  0  0  0
 25 33  1  6  0  0  0
 27 28  1  6  0  0  0
 27 35  1  0  0  0  0
 29 30  1  0  0  0  0
 29 37  1  1  0  0  0
 31 32  1  1  0  0  0
 31 39  1  0  0  0  0
 33 34  1  0  0  0  0
 35 36  1  0  0  0  0
 35 41  1  6  0  0  0
 37 38  1  0  0  0  0
 39 40  1  6  0  0  0
 41 42  1  0  0  0  0
M  END
>  <CHROM.1>
-173.26117653,98.52013155,-170.69153459,165.37051088,-157.98610769,-177.77531941
-177.93428051,-159.29109836,61.77347666,8.97433352,2.63966535,4.20458691
1.35018198,-0.78410857,-0.54359742

>  <Name>
2o3w_lig

>  <RI>
0

>  <Rbt.Current_Directory>
/home/itssahil/PROJECTS/Mol_Feturizer/New_Systems/rnas/2o3w

>  <Rbt.Executable>
rbdock ($Id: //depot/dev/client3/rdock/2013.1/src/exe/rbdock.cxx#4 $)

>  <Rbt.Library>
libRbt.so (2013.1, Build901 2013/11/27)

>  <Rbt.Parameter_File>
/export/apps/rDock/src/rDock_2013.1_src/data/scripts/dock_solv.prm

>  <Rbt.Receptor>
prm/pocket_docking_5.prm

>  <SCORE>
-19.4408

>  <SCORE.INTER>
-10.8002

>  <SCORE.INTER.CONST>
1

>  <SCORE.INTER.POLAR>
-1.29973

>  <SCORE.INTER.ROT>
9

>  <SCORE.INTER.SOLV>
15.4032

>  <SCORE.INTER.VDW>
-17.6021

>  <SCORE.INTER.norm>
-0.257147

>  <SCORE.INTRA>
-8.64066

>  <SCORE.INTRA.DIHEDRAL>
-16.8873

>  <SCORE.INTRA.DIHEDRAL.0>
27.8999

>  <SCORE.INTRA.POLAR>
0

>  <SCORE.INTRA.POLAR.0>
0

>  <SCORE.INTRA.REPUL>
0

>  <SCORE.INTRA.REPUL.0>
0

>  <SCORE.INTRA.SOLV>
-5.17311

>  <SCORE.INTRA.SOLV.lig_0>
-104.479

>  <SCORE.INTRA.VDW>
2.38956

>  <SCORE.INTRA.VDW.0>
-6.17816

>  <SCORE.INTRA.norm>
-0.20573

>  <SCORE.RESTR>
0

>  <SCORE.RESTR.CAVITY>
0

>  <SCORE.RESTR.norm>
0

>  <SCORE.SYSTEM>
0

>  <SCORE.SYSTEM.CONST>
0

>  <SCORE.SYSTEM.DIHEDRAL>
0

>  <SCORE.SYSTEM.SOLV>
0

>  <SCORE.SYSTEM.norm>
0

>  <SCORE.heavy>
42

>  <SCORE.norm>
-0.462876

>  <RMSD>
9.242

$$$$
2o3w_lig
 OpenBabel11021811463D
libRbt.so/2013.1/901 2013/11/27
 42 45  0  0  0  0  0  0  0  0999 V2000
    9.5978    7.2113    4.0513 C   0  0  2  0  0  0  0  0  0  0  0  0
    9.8794    5.8098    3.8974 O   0  0  0  0  0  0  0  0  0  0  0  0
    8.6091    5.4209   -0.2295 C   0  0  2  0  0  0  0  0  0  0  0  0
    8.3041    4.8679   -1.5829 N   0  0  0  0  0  0  0  0  0  0  0  0
    7.6484    2.7851    3.1217 C   0  0  1  0  0  0  0  0  0  0  0  0
    8.8367   -1.4833    3.2636 C   0  0  1  0  0  0  0  0  0  0  0  0
   10.0818    7.6190    5.4753 C   0  0  2  0  0  0  0  0  0  0  0  0
   11.4581    7.1721    5.7523 N   0  0  0  0  0  0  0  0  0  0  0  0
   10.1622    5.3862    0.0680 C   0  0  0  0  0  0  0  0  0  0  0  0
    9.1137    2.2791    2.9557 C   0  0  2  0  0  0  0  0  0  0  0  0
    9.5694    2.2340    1.5811 O   0  0  0  0  0  0  0  0  0  0  0  0
    8.4501   -2.6163    2.2459 C   0  0  2  0  0  0  0  0  0  0  0  0
    7.0561   -2.4290    1.7433 N   0  0  0  0  0  0  0  0  0  0  0  0
    9.1914    7.0313    6.5856 C   0  0  1  0  0  0  0  0  0  0  0  0
    9.6474    7.4622    7.8691 O   0  0  0  0  0  0  0  0  0  0  0  0
   10.4222    6.0009    1.4953 C   0  0  2  0  0  0  0  0  0  0  0  0
   11.8779    5.9974    1.8029 N   0  0  0  0  0  0  0  0  0  0  0  0
    9.0459    0.9313    3.6755 C   0  0  2  0  0  0  0  0  0  0  0  0
    8.6854   -0.1506    2.7589 O   0  0  0  0  0  0  0  0  0  0  0  0
    8.6197   -4.0434    2.9542 C   0  0  1  0  0  0  0  0  0  0  0  0
   10.0290   -4.3390    3.0781 O   0  0  0  0  0  0  0  0  0  0  0  0
    7.7221    7.4440    6.3408 C   0  0  2  0  0  0  0  0  0  0  0  0
    6.8960    6.9277    7.3584 O   0  0  0  0  0  0  0  0  0  0  0  0
    9.6444    5.1858    2.6028 C   0  0  2  0  0  0  0  0  0  0  0  0
    7.9939    1.0952    4.7853 C   0  0  2  0  0  0  0  0  0  0  0  0
    7.0875    2.0456    4.2307 O   0  0  0  0  0  0  0  0  0  0  0  0
    7.9297   -4.1067    4.3990 C   0  0  2  0  0  0  0  0  0  0  0  0
    6.5167   -4.0616    4.2041 O   0  0  0  0  0  0  0  0  0  0  0  0
    7.2698    6.9144    4.9392 C   0  0  2  0  0  0  0  0  0  0  0  0
    8.1475    7.4561    3.9019 O   0  0  0  0  0  0  0  0  0  0  0  0
    8.1225    5.1286    2.3463 C   0  0  2  0  0  0  0  0  0  0  0  0
    7.6025    4.2014    3.3384 O   0  0  0  0  0  0  0  0  0  0  0  0
    8.5542    1.5875    6.1557 C   0  0  0  0  0  0  0  0  0  0  0  0
    8.2963    2.9812    6.2962 O   0  0  0  0  0  0  0  0  0  0  0  0
    8.3960   -2.8948    5.2912 C   0  0  1  0  0  0  0  0  0  0  0  0
    8.0466   -1.6760    4.5409 O   0  0  0  0  0  0  0  0  0  0  0  0
    5.8402    7.2800    4.6130 C   0  0  0  0  0  0  0  0  0  0  0  0
    4.9591    6.6215    5.4902 O   0  0  0  0  0  0  0  0  0  0  0  0
    7.8327    4.6023    0.8784 C   0  0  1  0  0  0  0  0  0  0  0  0
    6.4350    4.6928    0.5888 O   0  0  0  0  0  0  0  0  0  0  0  0
    7.7315   -2.8605    6.7354 C   0  0  0  0  0  0  0  0  0  0  0  0
    8.2263   -1.7905    7.6447 N   0  0  0  0  0  0  0  0  0  0  0  0
  1  2  1  1  0  0  0
  1  7  1  0  0  0  0
  1 30  1  0  0  0  0
  3  4  1  6  0  0  0
  3  9  1  0  0  0  0
  3 39  1  0  0  0  0
  5 10  1  0  0  0  0
  5 26  1  0  0  0  0
  5 32  1  1  0  0  0
  6 12  1  0  0  0  0
  6 36  1  0  0  0  0
  6 19  1  6  0  0  0
  7  8  1  1  0  0  0
  7 14  1  0  0  0  0
  9 16  1  0  0  0  0
 10 11  1  6  0  0  0
 10 18  1  0  0  0  0
 12 13  1  1  0  0  0
 12 20  1  0  0  0  0
 14 15  1  1  0  0  0
 14 22  1  0  0  0  0
 16 17  1  1  0  0  0
 16 24  1  0  0  0  0
 18 19  1  6  0  0  0
 18 25  1  0  0  0  0
 20 21  1  1  0  0  0
 20 27  1  0  0  0  0
 22 23  1  1  0  0  0
 22 29  1  0  0  0  0
 24  2  1  1  0  0  0
 24 31  1  0  0  0  0
 25 26  1  0  0  0  0
 25 33  1  1  0  0  0
 27 28  1  6  0  0  0
 27 35  1  0  0  0  0
 29 30  1  0  0  0  0
 29 37  1  6  0  0  0
 31 32  1  1  0  0  0
 31 39  1  0  0  0  0
 33 34  1  0  0  0  0
 35 36  1  0  0  0  0
 35 41  1  1  0  0  0
 37 38  1  0  0  0  0
 39 40  1  6  0  0  0
 41 42  1  0  0  0  0
M  END
>  <CHROM.1>
-174.21322681,60.63784544,-179.54634074,168.68605367,54.08115010,100.77125593
-66.06293655,-82.68705780,175.47159433,8.43659671,2.85560997,3.81983250,-1.26252011
-1.41284517,-2.81420274

>  <Name>
2o3w_lig

>  <RI>
0

>  <Rbt.Current_Directory>
/home/itssahil/PROJECTS/Mol_Feturizer/New_Systems/rnas/2o3w

>  <Rbt.Executable>
rbdock ($Id: //depot/dev/client3/rdock/2013.1/src/exe/rbdock.cxx#4 $)

>  <Rbt.Library>
libRbt.so (2013.1, Build901 2013/11/27)

>  <Rbt.Parameter_File>
/export/apps/rDock/src/rDock_2013.1_src/data/scripts/dock_solv.prm

>  <Rbt.Receptor>
prm/pocket_docking_6.prm

>  <SCORE>
-14.5354

>  <SCORE.INTER>
-5.64698

>  <SCORE.INTER.CONST>
1

>  <SCORE.INTER.POLAR>
-0.938083

>  <SCORE.INTER.ROT>
9

>  <SCORE.INTER.SOLV>
17.4652

>  <SCORE.INTER.VDW>
-16.0595

>  <SCORE.INTER.norm>
-0.134452

>  <SCORE.INTRA>
-8.88842

>  <SCORE.INTRA.DIHEDRAL>
-20.3619

>  <SCORE.INTRA.DIHEDRAL.0>
27.8999

>  <SCORE.INTRA.POLAR>
0

>  <SCORE.INTRA.POLAR.0>
0

>  <SCORE.INTRA.REPUL>
0.0254367

>  <SCORE.INTRA.REPUL.0>
0

>  <SCORE.INTRA.SOLV>
-2.60546

>  <SCORE.INTRA.SOLV.lig_0>
-104.479

>  <SCORE.INTRA.VDW>
2.46807

>  <SCORE.INTRA.VDW.0>
-6.17816

>  <SCORE.INTRA.norm>
-0.211629

>  <SCORE.RESTR>
0

>  <SCORE.RESTR.CAVITY>
0

>  <SCORE.RESTR.norm>
0

>  <SCORE.SYSTEM>
0

>  <SCORE.SYSTEM.CONST>
0

>  <SCORE.SYSTEM.DIHEDRAL>
0

>  <SCORE.SYSTEM.SOLV>
0

>  <SCORE.SYSTEM.norm>
0

>  <SCORE.heavy>
42

>  <SCORE.norm>
-0.346081

>  <RMSD>
9.253

$$$$
2o3w_lig
 OpenBabel11021811463D
libRbt.so/2013.1/901 2013/11/27
 42 45  0  0  0  0  0  0  0  0999 V2000
    8.2132    6.2535    2.5429 C   0  0  2  0  0  0  0  0  0  0  0  0
    8.7968    7.0723    3.5707 O   0  0  0  0  0  0  0  0  0  0  0  0
    9.1394    6.7473    7.8803 C   0  0  2  0  0  0  0  0  0  0  0  0
    8.8287    6.5240    9.3239 N   0  0  0  0  0  0  0  0  0  0  0  0
    9.1850    3.1964    4.8072 C   0  0  1  0  0  0  0  0  0  0  0  0
    8.8241   -0.7749    5.4508 C   0  0  1  0  0  0  0  0  0  0  0  0
    9.0037    6.5382    1.2306 C   0  0  2  0  0  0  0  0  0  0  0  0
   10.4620    6.4474    1.4199 N   0  0  0  0  0  0  0  0  0  0  0  0
    8.3168    7.9663    7.2980 C   0  0  0  0  0  0  0  0  0  0  0  0
    8.1328    2.0605    4.6239 C   0  0  2  0  0  0  0  0  0  0  0  0
    7.5788    1.5642    5.8672 O   0  0  0  0  0  0  0  0  0  0  0  0
    9.6178   -1.6756    6.4645 C   0  0  2  0  0  0  0  0  0  0  0  0
   10.6661   -2.4739    5.7612 N   0  0  0  0  0  0  0  0  0  0  0  0
    8.7150    7.9419    0.6674 C   0  0  1  0  0  0  0  0  0  0  0  0
    9.4282    8.1443   -0.5538 O   0  0  0  0  0  0  0  0  0  0  0  0
    8.7029    8.1656    5.7835 C   0  0  2  0  0  0  0  0  0  0  0  0
    7.9566    9.3160    5.2063 N   0  0  0  0  0  0  0  0  0  0  0  0
    8.9307    1.0463    3.8029 C   0  0  2  0  0  0  0  0  0  0  0  0
    9.6413    0.0987    4.6618 O   0  0  0  0  0  0  0  0  0  0  0  0
    8.5909   -2.6302    7.2398 C   0  0  1  0  0  0  0  0  0  0  0  0
    7.8469   -1.8392    8.1936 O   0  0  0  0  0  0  0  0  0  0  0  0
    7.1920    8.1137    0.4666 C   0  0  2  0  0  0  0  0  0  0  0  0
    6.9123    9.3881   -0.0645 O   0  0  0  0  0  0  0  0  0  0  0  0
    8.3890    6.8593    4.9522 C   0  0  2  0  0  0  0  0  0  0  0  0
    9.9111    1.8683    2.9494 C   0  0  2  0  0  0  0  0  0  0  0  0
   10.1709    3.0074    3.7663 O   0  0  0  0  0  0  0  0  0  0  0  0
    7.5730   -3.3793    6.2548 C   0  0  2  0  0  0  0  0  0  0  0  0
    8.3232   -4.3332    5.5040 O   0  0  0  0  0  0  0  0  0  0  0  0
    6.4704    7.9168    1.8414 C   0  0  2  0  0  0  0  0  0  0  0  0
    6.7837    6.5918    2.3761 O   0  0  0  0  0  0  0  0  0  0  0  0
    9.1164    5.6118    5.4997 C   0  0  2  0  0  0  0  0  0  0  0  0
    8.5756    4.4925    4.7452 O   0  0  0  0  0  0  0  0  0  0  0  0
    9.3685    2.2935    1.5497 C   0  0  0  0  0  0  0  0  0  0  0  0
    8.2379    3.1427    1.7215 O   0  0  0  0  0  0  0  0  0  0  0  0
    6.8768   -2.3494    5.2870 C   0  0  1  0  0  0  0  0  0  0  0  0
    7.9647   -1.6596    4.5722 O   0  0  0  0  0  0  0  0  0  0  0  0
    4.9698    8.0618    1.7365 C   0  0  0  0  0  0  0  0  0  0  0  0
    4.3800    7.9306    3.0070 O   0  0  0  0  0  0  0  0  0  0  0  0
    8.8218    5.4403    7.0488 C   0  0  1  0  0  0  0  0  0  0  0  0
    9.6133    4.3774    7.5868 O   0  0  0  0  0  0  0  0  0  0  0  0
    5.8717   -3.0136    4.2490 C   0  0  0  0  0  0  0  0  0  0  0  0
    4.6874   -3.6907    4.8452 N   0  0  0  0  0  0  0  0  0  0  0  0
  1  2  1  1  0  0  0
  1  7  1  0  0  0  0
  1 30  1  0  0  0  0
  3  4  1  1  0  0  0
  3  9  1  0  0  0  0
  3 39  1  0  0  0  0
  5 10  1  0  0  0  0
  5 26  1  0  0  0  0
  5 32  1  6  0  0  0
  6 12  1  0  0  0  0
  6 36  1  0  0  0  0
  6 19  1  6  0  0  0
  7  8  1  1  0  0  0
  7 14  1  0  0  0  0
  9 16  1  0  0  0  0
 10 11  1  1  0  0  0
 10 18  1  0  0  0  0
 12 13  1  6  0  0  0
 12 20  1  0  0  0  0
 14 15  1  6  0  0  0
 14 22  1  0  0  0  0
 16 17  1  6  0  0  0
 16 24  1  0  0  0  0
 18 19  1  1  0  0  0
 18 25  1  0  0  0  0
 20 21  1  1  0  0  0
 20 27  1  0  0  0  0
 22 23  1  1  0  0  0
 22 29  1  0  0  0  0
 24  2  1  6  0  0  0
 24 31  1  0  0  0  0
 25 26  1  0  0  0  0
 25 33  1  6  0  0  0
 27 28  1  6  0  0  0
 27 35  1  0  0  0  0
 29 30  1  0  0  0  0
 29 37  1  6  0  0  0
 31 32  1  6  0  0  0
 31 39  1  0  0  0  0
 33 34  1  0  0  0  0
 35 36  1  0  0  0  0
 35 41  1  6  0  0  0
 37 38  1  0  0  0  0
 39 40  1  1  0  0  0
 41 42  1  0  0  0  0
M  END
>  <CHROM.1>
-170.67399802,149.04948539,-174.12601877,65.13344696,-158.57103432,62.61817404
-177.57053392,168.57642063,63.51665546,8.24471661,3.48086959,4.28990653,1.69950335
-1.38337453,-0.17065628

>  <Name>
2o3w_lig

>  <RI>
0

>  <Rbt.Current_Directory>
/home/itssahil/PROJECTS/Mol_Feturizer/New_Systems/rnas/2o3w

>  <Rbt.Executable>
rbdock ($Id: //depot/dev/client3/rdock/2013.1/src/exe/rbdock.cxx#4 $)

>  <Rbt.Library>
libRbt.so (2013.1, Build901 2013/11/27)

>  <Rbt.Parameter_File>
/export/apps/rDock/src/rDock_2013.1_src/data/scripts/dock_solv.prm

>  <Rbt.Receptor>
prm/pocket_docking_6.prm

>  <SCORE>
-21.6363

>  <SCORE.INTER>
-11.1101

>  <SCORE.INTER.CONST>
1

>  <SCORE.INTER.POLAR>
-2.46137

>  <SCORE.INTER.ROT>
9

>  <SCORE.INTER.SOLV>
20.7213

>  <SCORE.INTER.VDW>
-15.7093

>  <SCORE.INTER.norm>
-0.264527

>  <SCORE.INTRA>
-10.5286

>  <SCORE.INTRA.DIHEDRAL>
-20.5253

>  <SCORE.INTRA.DIHEDRAL.0>
27.8999

>  <SCORE.INTRA.POLAR>
0

>  <SCORE.INTRA.POLAR.0>
0

>  <SCORE.INTRA.REPUL>
0

>  <SCORE.INTRA.REPUL.0>
0

>  <SCORE.INTRA.SOLV>
-3.89193

>  <SCORE.INTRA.SOLV.lig_0>
-104.479

>  <SCORE.INTRA.VDW>
1.67998

>  <SCORE.INTRA.VDW.0>
-6.17816

>  <SCORE.INTRA.norm>
-0.250682

>  <SCORE.RESTR>
0.00249093

>  <SCORE.RESTR.CAVITY>
0.00249093

>  <SCORE.RESTR.norm>
5.9308e-05

>  <SCORE.SYSTEM>
0

>  <SCORE.SYSTEM.CONST>
0

>  <SCORE.SYSTEM.DIHEDRAL>
0

>  <SCORE.SYSTEM.SOLV>
0

>  <SCORE.SYSTEM.norm>
0

>  <SCORE.heavy>
42

>  <SCORE.norm>
-0.515149

>  <RMSD>
9.258

$$$$
2o3w_lig
 OpenBabel11021811463D
libRbt.so/2013.1/901 2013/11/27
 42 45  0  0  0  0  0  0  0  0999 V2000
    3.0253    7.1491   -0.4049 C   0  0  2  0  0  0  0  0  0  0  0  0
    4.4236    7.0226   -0.7149 O   0  0  0  0  0  0  0  0  0  0  0  0
    6.4516    6.5652   -4.5194 C   0  0  2  0  0  0  0  0  0  0  0  0
    6.9871    6.8170   -5.8906 N   0  0  0  0  0  0  0  0  0  0  0  0
    7.5760    8.5961   -0.1149 C   0  0  1  0  0  0  0  0  0  0  0  0
   10.2969    7.2907    2.9823 C   0  0  1  0  0  0  0  0  0  0  0  0
    2.9297    7.7796    1.0169 C   0  0  2  0  0  0  0  0  0  0  0  0
    3.7643    8.9856    1.1562 N   0  0  0  0  0  0  0  0  0  0  0  0
    4.8705    6.5231   -4.5194 C   0  0  0  0  0  0  0  0  0  0  0  0
    7.1308    7.5027    0.9034 C   0  0  2  0  0  0  0  0  0  0  0  0
    6.2681    7.9957    1.9579 O   0  0  0  0  0  0  0  0  0  0  0  0
   10.5202    5.7400    3.1010 C   0  0  2  0  0  0  0  0  0  0  0  0
    9.4816    5.1168    3.9750 N   0  0  0  0  0  0  0  0  0  0  0  0
    3.3733    6.8018    2.1206 C   0  0  1  0  0  0  0  0  0  0  0  0
    3.2320    7.4066    3.4071 O   0  0  0  0  0  0  0  0  0  0  0  0
    4.3677    6.2329   -3.0546 C   0  0  2  0  0  0  0  0  0  0  0  0
    2.8816    6.1719   -3.0202 N   0  0  0  0  0  0  0  0  0  0  0  0
    8.4832    6.9515    1.3577 C   0  0  2  0  0  0  0  0  0  0  0  0
    8.9941    7.6728    2.5236 O   0  0  0  0  0  0  0  0  0  0  0  0
   11.9925    5.4597    3.6672 C   0  0  1  0  0  0  0  0  0  0  0  0
   12.9545    5.7351    2.6242 O   0  0  0  0  0  0  0  0  0  0  0  0
    2.5495    5.4981    2.0162 C   0  0  2  0  0  0  0  0  0  0  0  0
    2.9321    4.5987    3.0306 O   0  0  0  0  0  0  0  0  0  0  0  0
    4.8756    7.3501   -2.0598 C   0  0  2  0  0  0  0  0  0  0  0  0
    9.4280    7.0992    0.1531 C   0  0  2  0  0  0  0  0  0  0  0  0
    8.9255    8.2575   -0.5089 O   0  0  0  0  0  0  0  0  0  0  0  0
   12.3390    6.3385    4.9615 C   0  0  2  0  0  0  0  0  0  0  0  0
   11.5337    5.8577    6.0370 O   0  0  0  0  0  0  0  0  0  0  0  0
    2.7728    4.8649    0.6025 C   0  0  2  0  0  0  0  0  0  0  0  0
    2.3778    5.8203   -0.4324 O   0  0  0  0  0  0  0  0  0  0  0  0
    6.4139    7.4878   -2.0487 C   0  0  2  0  0  0  0  0  0  0  0  0
    6.6863    8.6631   -1.2369 O   0  0  0  0  0  0  0  0  0  0  0  0
    9.4625    5.8726   -0.8105 C   0  0  0  0  0  0  0  0  0  0  0  0
    9.9614    4.7375   -0.1095 O   0  0  0  0  0  0  0  0  0  0  0  0
   12.0397    7.8622    4.6951 C   0  0  1  0  0  0  0  0  0  0  0  0
   10.6192    7.9393    4.3121 O   0  0  0  0  0  0  0  0  0  0  0  0
    1.9956    3.5833    0.4100 C   0  0  0  0  0  0  0  0  0  0  0  0
    0.6185    3.8228    0.5691 O   0  0  0  0  0  0  0  0  0  0  0  0
    6.9580    7.6859   -3.5253 C   0  0  1  0  0  0  0  0  0  0  0  0
    8.3880    7.6614   -3.5316 O   0  0  0  0  0  0  0  0  0  0  0  0
   12.3245    8.8060    5.9428 C   0  0  0  0  0  0  0  0  0  0  0  0
   13.6790    8.6795    6.5478 N   0  0  0  0  0  0  0  0  0  0  0  0
  1  2  1  1  0  0  0
  1  7  1  0  0  0  0
  1 30  1  0  0  0  0
  3  4  1  6  0  0  0
  3  9  1  0  0  0  0
  3 39  1  0  0  0  0
  5 10  1  0  0  0  0
  5 26  1  0  0  0  0
  5 32  1  6  0  0  0
  6 12  1  0  0  0  0
  6 36  1  0  0  0  0
  6 19  1  1  0  0  0
  7  8  1  6  0  0  0
  7 14  1  0  0  0  0
  9 16  1  0  0  0  0
 10 11  1  1  0  0  0
 10 18  1  0  0  0  0
 12 13  1  1  0  0  0
 12 20  1  0  0  0  0
 14 15  1  1  0  0  0
 14 22  1  0  0  0  0
 16 17  1  6  0  0  0
 16 24  1  0  0  0  0
 18 19  1  1  0  0  0
 18 25  1  0  0  0  0
 20 21  1  6  0  0  0
 20 27  1  0  0  0  0
 22 23  1  1  0  0  0
 22 29  1  0  0  0  0
 24  2  1  1  0  0  0
 24 31  1  0  0  0  0
 25 26  1  0  0  0  0
 25 33  1  6  0  0  0
 27 28  1  1  0  0  0
 27 35  1  0  0  0  0
 29 30  1  0  0  0  0
 29 37  1  1  0  0  0
 31 32  1  1  0  0  0
 31 39  1  0  0  0  0
 33 34  1  0  0  0  0
 35 36  1  0  0  0  0
 35 41  1  1  0  0  0
 37 38  1  0  0  0  0
 39 40  1  1  0  0  0
 41 42  1  0  0  0  0
M  END
>  <CHROM.1>
-138.74071916,-56.08667666,-46.61941754,-176.27685582,-71.01655354,-63.17756206
59.22721951,125.84930652,52.69575515,7.06650854,6.75402878,0.82716642,2.55692033
-0.16366122,-1.46992507

>  <Name>
2o3w_lig

>  <RI>
0

>  <Rbt.Current_Directory>
/home/itssahil/PROJECTS/Mol_Feturizer/New_Systems/rnas/2o3w

>  <Rbt.Executable>
rbdock ($Id: //depot/dev/client3/rdock/2013.1/src/exe/rbdock.cxx#4 $)

>  <Rbt.Library>
libRbt.so (2013.1, Build901 2013/11/27)

>  <Rbt.Parameter_File>
/export/apps/rDock/src/rDock_2013.1_src/data/scripts/dock_solv.prm

>  <Rbt.Receptor>
prm/pocket_docking_7.prm

>  <SCORE>
-25.3755

>  <SCORE.INTER>
-20.4131

>  <SCORE.INTER.CONST>
1

>  <SCORE.INTER.POLAR>
-2.74917

>  <SCORE.INTER.ROT>
9

>  <SCORE.INTER.SOLV>
15.9959

>  <SCORE.INTER.VDW>
-19.3768

>  <SCORE.INTER.norm>
-0.486027

>  <SCORE.INTRA>
-4.96239

>  <SCORE.INTRA.DIHEDRAL>
-13.3361

>  <SCORE.INTRA.DIHEDRAL.0>
27.8999

>  <SCORE.INTRA.POLAR>
0

>  <SCORE.INTRA.POLAR.0>
0

>  <SCORE.INTRA.REPUL>
0

>  <SCORE.INTRA.REPUL.0>
0

>  <SCORE.INTRA.SOLV>
1.29291

>  <SCORE.INTRA.SOLV.lig_0>
-104.479

>  <SCORE.INTRA.VDW>
1.05919

>  <SCORE.INTRA.VDW.0>
-6.17816

>  <SCORE.INTRA.norm>
-0.118152

>  <SCORE.RESTR>
0

>  <SCORE.RESTR.CAVITY>
0

>  <SCORE.RESTR.norm>
0

>  <SCORE.SYSTEM>
0

>  <SCORE.SYSTEM.CONST>
0

>  <SCORE.SYSTEM.DIHEDRAL>
0

>  <SCORE.SYSTEM.SOLV>
0

>  <SCORE.SYSTEM.norm>
0

>  <SCORE.heavy>
42

>  <SCORE.norm>
-0.604179

>  <RMSD>
9.258

$$$$
2o3w_lig
 OpenBabel11021811463D
libRbt.so/2013.1/901 2013/11/27
 42 45  0  0  0  0  0  0  0  0999 V2000
    3.5013    5.2883    3.0640 C   0  0  2  0  0  0  0  0  0  0  0  0
    4.4308    4.5374    2.2644 O   0  0  0  0  0  0  0  0  0  0  0  0
    1.8699    1.1789    1.2856 C   0  0  2  0  0  0  0  0  0  0  0  0
    1.3813   -0.1694    0.8685 N   0  0  0  0  0  0  0  0  0  0  0  0
    5.7918    1.7704    3.5235 C   0  0  1  0  0  0  0  0  0  0  0  0
    9.6767   -0.4426    3.4157 C   0  0  1  0  0  0  0  0  0  0  0  0
    3.9363    6.7825    2.9847 C   0  0  2  0  0  0  0  0  0  0  0  0
    4.1537    7.2336    1.5991 N   0  0  0  0  0  0  0  0  0  0  0  0
    2.5993    1.9192    0.0933 C   0  0  0  0  0  0  0  0  0  0  0  0
    6.7429    1.5214    4.7336 C   0  0  2  0  0  0  0  0  0  0  0  0
    7.5790    2.6561    5.0692 O   0  0  0  0  0  0  0  0  0  0  0  0
   11.0555    0.0166    2.8182 C   0  0  2  0  0  0  0  0  0  0  0  0
   10.8689    0.6733    1.4897 N   0  0  0  0  0  0  0  0  0  0  0  0
    5.2448    7.0516    3.7504 C   0  0  1  0  0  0  0  0  0  0  0  0
    5.5836    8.4378    3.6844 O   0  0  0  0  0  0  0  0  0  0  0  0
    3.0705    3.3395    0.5865 C   0  0  2  0  0  0  0  0  0  0  0  0
    3.7495    4.0713   -0.5167 N   0  0  0  0  0  0  0  0  0  0  0  0
    7.4847    0.2650    4.2747 C   0  0  2  0  0  0  0  0  0  0  0  0
    8.6992    0.5990    3.5303 O   0  0  0  0  0  0  0  0  0  0  0  0
   12.0296   -1.2501    2.7023 C   0  0  1  0  0  0  0  0  0  0  0  0
   12.4811   -1.6149    4.0259 O   0  0  0  0  0  0  0  0  0  0  0  0
    5.0929    6.5768    5.2135 C   0  0  2  0  0  0  0  0  0  0  0  0
    6.2770    6.8315    5.9328 O   0  0  0  0  0  0  0  0  0  0  0  0
    4.0527    3.2045    1.8164 C   0  0  2  0  0  0  0  0  0  0  0  0
    6.4920   -0.5180    3.3990 C   0  0  2  0  0  0  0  0  0  0  0  0
    5.6944    0.5114    2.8188 O   0  0  0  0  0  0  0  0  0  0  0  0
   11.3284   -2.5126    2.0082 C   0  0  2  0  0  0  0  0  0  0  0  0
   11.1282   -2.1919    0.6322 O   0  0  0  0  0  0  0  0  0  0  0  0
    4.7587    5.0478    5.2221 C   0  0  2  0  0  0  0  0  0  0  0  0
    3.5321    4.8081    4.4619 O   0  0  0  0  0  0  0  0  0  0  0  0
    3.4255    2.4395    3.0025 C   0  0  2  0  0  0  0  0  0  0  0  0
    4.5107    2.2504    3.9518 O   0  0  0  0  0  0  0  0  0  0  0  0
    5.6070   -1.5479    4.1673 C   0  0  0  0  0  0  0  0  0  0  0  0
    4.7089   -2.1704    3.2537 O   0  0  0  0  0  0  0  0  0  0  0  0
    9.9494   -2.8323    2.6999 C   0  0  1  0  0  0  0  0  0  0  0  0
    9.1459   -1.6018    2.5987 O   0  0  0  0  0  0  0  0  0  0  0  0
    4.5860    4.4981    6.6191 C   0  0  0  0  0  0  0  0  0  0  0  0
    4.4701    3.0967    6.5779 O   0  0  0  0  0  0  0  0  0  0  0  0
    2.8554    1.0421    2.5147 C   0  0  1  0  0  0  0  0  0  0  0  0
    2.1427    0.4021    3.5767 O   0  0  0  0  0  0  0  0  0  0  0  0
    9.1670   -4.0547    2.0500 C   0  0  0  0  0  0  0  0  0  0  0  0
    8.8380   -3.9114    0.6050 N   0  0  0  0  0  0  0  0  0  0  0  0
  1  2  1  6  0  0  0
  1  7  1  0  0  0  0
  1 30  1  0  0  0  0
  3  4  1  6  0  0  0
  3  9  1  0  0  0  0
  3 39  1  0  0  0  0
  5 10  1  0  0  0  0
  5 26  1  0  0  0  0
  5 32  1  1  0  0  0
  6 12  1  0  0  0  0
  6 36  1  0  0  0  0
  6 19  1  6  0  0  0
  7  8  1  6  0  0  0
  7 14  1  0  0  0  0
  9 16  1  0  0  0  0
 10 11  1  6  0  0  0
 10 18  1  0  0  0  0
 12 13  1  6  0  0  0
 12 20  1  0  0  0  0
 14 15  1  1  0  0  0
 14 22  1  0  0  0  0
 16 17  1  6  0  0  0
 16 24  1  0  0  0  0
 18 19  1  6  0  0  0
 18 25  1  0  0  0  0
 20 21  1  1  0  0  0
 20 27  1  0  0  0  0
 22 23  1  1  0  0  0
 22 29  1  0  0  0  0
 24  2  1  1  0  0  0
 24 31  1  0  0  0  0
 25 26  1  0  0  0  0
 25 33  1  1  0  0  0
 27 28  1  6  0  0  0
 27 35  1  0  0  0  0
 29 30  1  0  0  0  0
 29 37  1  1  0  0  0
 31 32  1  1  0  0  0
 31 39  1  0  0  0  0
 33 34  1  0  0  0  0
 35 36  1  0  0  0  0
 35 41  1  6  0  0  0
 37 38  1  0  0  0  0
 39 40  1  1  0  0  0
 41 42  1  0  0  0  0
M  END
>  <CHROM.1>
-161.28854834,-174.56616562,-170.55698240,161.11740699,78.25092335,178.19580067
-171.98763293,-47.18840950,-58.71576355,6.19436652,1.74258259,3.08686069
-2.29931160,0.25970903,-2.77959287

>  <Name>
2o3w_lig

>  <RI>
0

>  <Rbt.Current_Directory>
/home/itssahil/PROJECTS/Mol_Feturizer/New_Systems/rnas/2o3w

>  <Rbt.Executable>
rbdock ($Id: //depot/dev/client3/rdock/2013.1/src/exe/rbdock.cxx#4 $)

>  <Rbt.Library>
libRbt.so (2013.1, Build901 2013/11/27)

>  <Rbt.Parameter_File>
/export/apps/rDock/src/rDock_2013.1_src/data/scripts/dock_solv.prm

>  <Rbt.Receptor>
prm/pocket_docking_5.prm

>  <SCORE>
-13.8978

>  <SCORE.INTER>
-3.82093

>  <SCORE.INTER.CONST>
1

>  <SCORE.INTER.POLAR>
0

>  <SCORE.INTER.ROT>
9

>  <SCORE.INTER.SOLV>
12.7808

>  <SCORE.INTER.VDW>
-16.4075

>  <SCORE.INTER.norm>
-0.0909745

>  <SCORE.INTRA>
-10.1065

>  <SCORE.INTRA.DIHEDRAL>
-21.4309

>  <SCORE.INTRA.DIHEDRAL.0>
27.8999

>  <SCORE.INTRA.POLAR>
0

>  <SCORE.INTRA.POLAR.0>
0

>  <SCORE.INTRA.REPUL>
0

>  <SCORE.INTRA.REPUL.0>
0

>  <SCORE.INTRA.SOLV>
-1.95842

>  <SCORE.INTRA.SOLV.lig_0>
-104.479

>  <SCORE.INTRA.VDW>
1.58819

>  <SCORE.INTRA.VDW.0>
-6.17816

>  <SCORE.INTRA.norm>
-0.24063

>  <SCORE.RESTR>
0.0295985

>  <SCORE.RESTR.CAVITY>
0.0295985

>  <SCORE.RESTR.norm>
0.000704726

>  <SCORE.SYSTEM>
0

>  <SCORE.SYSTEM.CONST>
0

>  <SCORE.SYSTEM.DIHEDRAL>
0

>  <SCORE.SYSTEM.SOLV>
0

>  <SCORE.SYSTEM.norm>
0

>  <SCORE.heavy>
42

>  <SCORE.norm>
-0.3309

>  <RMSD>
9.262

$$$$
2o3w_lig
 OpenBabel11021811463D
libRbt.so/2013.1/901 2013/11/27
 42 45  0  0  0  0  0  0  0  0999 V2000
   11.1383    5.9253    5.9241 C   0  0  2  0  0  0  0  0  0  0  0  0
   12.3825    6.1247    6.6165 O   0  0  0  0  0  0  0  0  0  0  0  0
   15.8617    3.5936    7.1500 C   0  0  2  0  0  0  0  0  0  0  0  0
   16.7498    2.4398    7.4822 N   0  0  0  0  0  0  0  0  0  0  0  0
   12.1353    2.4824    5.1987 C   0  0  1  0  0  0  0  0  0  0  0  0
    9.7633   -0.9732    5.8959 C   0  0  1  0  0  0  0  0  0  0  0  0
   10.4406    7.3156    5.8325 C   0  0  2  0  0  0  0  0  0  0  0  0
   11.3389    8.3644    5.3189 N   0  0  0  0  0  0  0  0  0  0  0  0
   15.1735    4.1805    8.4477 C   0  0  0  0  0  0  0  0  0  0  0  0
   11.4335    2.3517    6.5848 C   0  0  2  0  0  0  0  0  0  0  0  0
   12.3118    1.9153    7.6512 O   0  0  0  0  0  0  0  0  0  0  0  0
    8.3153   -0.9318    6.5047 C   0  0  2  0  0  0  0  0  0  0  0  0
    8.3584   -1.0560    7.9925 N   0  0  0  0  0  0  0  0  0  0  0  0
    9.9250    7.8019    7.1994 C   0  0  1  0  0  0  0  0  0  0  0  0
    9.2593    9.0584    7.0616 O   0  0  0  0  0  0  0  0  0  0  0  0
   14.2704    5.4045    8.0371 C   0  0  2  0  0  0  0  0  0  0  0  0
   13.6174    5.9916    9.2382 N   0  0  0  0  0  0  0  0  0  0  0  0
   10.2815    1.4043    6.2463 C   0  0  2  0  0  0  0  0  0  0  0  0
   10.6641    0.0043    6.4314 O   0  0  0  0  0  0  0  0  0  0  0  0
    7.4350   -2.1020    5.8547 C   0  0  1  0  0  0  0  0  0  0  0  0
    7.1058   -1.7389    4.4951 O   0  0  0  0  0  0  0  0  0  0  0  0
    8.9904    6.7319    7.8084 C   0  0  2  0  0  0  0  0  0  0  0  0
    8.4964    7.1693    9.0530 O   0  0  0  0  0  0  0  0  0  0  0  0
   13.1668    4.9587    6.9983 C   0  0  2  0  0  0  0  0  0  0  0  0
    9.9119    1.6919    4.7813 C   0  0  2  0  0  0  0  0  0  0  0  0
   11.1546    2.0938    4.2097 O   0  0  0  0  0  0  0  0  0  0  0  0
    8.1806   -3.5203    5.8651 C   0  0  2  0  0  0  0  0  0  0  0  0
    8.2596   -3.9557    7.2218 O   0  0  0  0  0  0  0  0  0  0  0  0
    9.7839    5.3923    7.9681 C   0  0  2  0  0  0  0  0  0  0  0  0
   10.2941    4.9645    6.6656 O   0  0  0  0  0  0  0  0  0  0  0  0
   13.7653    4.3222    5.7248 C   0  0  2  0  0  0  0  0  0  0  0  0
   12.6250    3.8120    4.9806 O   0  0  0  0  0  0  0  0  0  0  0  0
    8.8210    2.7892    4.5810 C   0  0  0  0  0  0  0  0  0  0  0  0
    8.5631    2.9476    3.1891 O   0  0  0  0  0  0  0  0  0  0  0  0
    9.6247   -3.3937    5.2482 C   0  0  1  0  0  0  0  0  0  0  0  0
   10.3230   -2.3720    6.0475 O   0  0  0  0  0  0  0  0  0  0  0  0
    8.9407    4.2833    8.5537 C   0  0  0  0  0  0  0  0  0  0  0  0
    8.0801    4.7980    9.5405 O   0  0  0  0  0  0  0  0  0  0  0  0
   14.7556    3.1455    6.1127 C   0  0  1  0  0  0  0  0  0  0  0  0
   15.4234    2.6578    4.9457 O   0  0  0  0  0  0  0  0  0  0  0  0
   10.4510   -4.7522    5.2497 C   0  0  0  0  0  0  0  0  0  0  0  0
    9.8944   -5.8435    4.4037 N   0  0  0  0  0  0  0  0  0  0  0  0
  1  2  1  1  0  0  0
  1  7  1  0  0  0  0
  1 30  1  0  0  0  0
  3  4  1  1  0  0  0
  3  9  1  0  0  0  0
  3 39  1  0  0  0  0
  5 10  1  0  0  0  0
  5 26  1  0  0  0  0
  5 32  1  6  0  0  0
  6 12  1  0  0  0  0
  6 36  1  0  0  0  0
  6 19  1  1  0  0  0
  7  8  1  1  0  0  0
  7 14  1  0  0  0  0
  9 16  1  0  0  0  0
 10 11  1  1  0  0  0
 10 18  1  0  0  0  0
 12 13  1  1  0  0  0
 12 20  1  0  0  0  0
 14 15  1  6  0  0  0
 14 22  1  0  0  0  0
 16 17  1  1  0  0  0
 16 24  1  0  0  0  0
 18 19  1  6  0  0  0
 18 25  1  0  0  0  0
 20 21  1  6  0  0  0
 20 27  1  0  0  0  0
 22 23  1  1  0  0  0
 22 29  1  0  0  0  0
 24  2  1  6  0  0  0
 24 31  1  0  0  0  0
 25 26  1  0  0  0  0
 25 33  1  1  0  0  0
 27 28  1  1  0  0  0
 27 35  1  0  0  0  0
 29 30  1  0  0  0  0
 29 37  1  6  0  0  0
 31 32  1  6  0  0  0
 31 39  1  0  0  0  0
 33 34  1  0  0  0  0
 35 36  1  0  0  0  0
 35 41  1  1  0  0  0
 37 38  1  0  0  0  0
 39 40  1  6  0  0  0
 41 42  1  0  0  0  0
M  END
>  <CHROM.1>
172.13171611,70.84337627,-60.57888817,-168.03755673,-165.99395863,-179.40128384
-37.84173277,-89.24078066,64.49532605,10.86320214,2.51255690,6.43161625,1.29826090
0.02412545,0.17236163

>  <Name>
2o3w_lig

>  <RI>
0

>  <Rbt.Current_Directory>
/home/itssahil/PROJECTS/Mol_Feturizer/New_Systems/rnas/2o3w

>  <Rbt.Executable>
rbdock ($Id: //depot/dev/client3/rdock/2013.1/src/exe/rbdock.cxx#4 $)

>  <Rbt.Library>
libRbt.so (2013.1, Build901 2013/11/27)

>  <Rbt.Parameter_File>
/export/apps/rDock/src/rDock_2013.1_src/data/scripts/dock_solv.prm

>  <Rbt.Receptor>
prm/pocket_docking_7.prm

>  <SCORE>
-21.7044

>  <SCORE.INTER>
-12.378

>  <SCORE.INTER.CONST>
1

>  <SCORE.INTER.POLAR>
-2.75514

>  <SCORE.INTER.ROT>
9

>  <SCORE.INTER.SOLV>
15.1944

>  <SCORE.INTER.VDW>
-13.733

>  <SCORE.INTER.norm>
-0.294714

>  <SCORE.INTRA>
-9.32637

>  <SCORE.INTRA.DIHEDRAL>
-20.1637

>  <SCORE.INTRA.DIHEDRAL.0>
27.8999

>  <SCORE.INTRA.POLAR>
0

>  <SCORE.INTRA.POLAR.0>
0

>  <SCORE.INTRA.REPUL>
0

>  <SCORE.INTRA.REPUL.0>
0

>  <SCORE.INTRA.SOLV>
-3.98819

>  <SCORE.INTRA.SOLV.lig_0>
-104.479

>  <SCORE.INTRA.VDW>
2.7496

>  <SCORE.INTRA.VDW.0>
-6.17816

>  <SCORE.INTRA.norm>
-0.222056

>  <SCORE.RESTR>
0

>  <SCORE.RESTR.CAVITY>
0

>  <SCORE.RESTR.norm>
0

>  <SCORE.SYSTEM>
0

>  <SCORE.SYSTEM.CONST>
0

>  <SCORE.SYSTEM.DIHEDRAL>
0

>  <SCORE.SYSTEM.SOLV>
0

>  <SCORE.SYSTEM.norm>
0

>  <SCORE.heavy>
42

>  <SCORE.norm>
-0.51677

>  <RMSD>
9.302

$$$$
2o3w_lig
 OpenBabel11021811463D
libRbt.so/2013.1/901 2013/11/27
 42 45  0  0  0  0  0  0  0  0999 V2000
    6.3026    8.8487    2.3965 C   0  0  2  0  0  0  0  0  0  0  0  0
    6.7277    8.1764    1.1987 O   0  0  0  0  0  0  0  0  0  0  0  0
    3.1226    8.6662   -1.1591 C   0  0  2  0  0  0  0  0  0  0  0  0
    2.1608    8.7280   -2.3000 N   0  0  0  0  0  0  0  0  0  0  0  0
    6.1647    5.2324    1.1248 C   0  0  1  0  0  0  0  0  0  0  0  0
    8.6324    3.0005    3.8530 C   0  0  1  0  0  0  0  0  0  0  0  0
    7.3253    8.4797    3.5127 C   0  0  2  0  0  0  0  0  0  0  0  0
    8.7215    8.6779    3.0861 N   0  0  0  0  0  0  0  0  0  0  0  0
    4.2456    9.7718   -1.2946 C   0  0  0  0  0  0  0  0  0  0  0  0
    6.3845    3.7080    0.8826 C   0  0  2  0  0  0  0  0  0  0  0  0
    5.2717    2.8788    1.2987 O   0  0  0  0  0  0  0  0  0  0  0  0
    9.7543    2.0586    3.2848 C   0  0  2  0  0  0  0  0  0  0  0  0
    9.2144    0.6942    3.0056 N   0  0  0  0  0  0  0  0  0  0  0  0
    7.2004    7.0108    3.9573 C   0  0  1  0  0  0  0  0  0  0  0  0
    8.1274    6.7282    5.0069 O   0  0  0  0  0  0  0  0  0  0  0  0
    5.2129    9.6713   -0.0550 C   0  0  2  0  0  0  0  0  0  0  0  0
    6.2757   10.7087   -0.1426 N   0  0  0  0  0  0  0  0  0  0  0  0
    7.6992    3.4752    1.6287 C   0  0  2  0  0  0  0  0  0  0  0  0
    7.4671    3.1075    3.0257 O   0  0  0  0  0  0  0  0  0  0  0  0
   10.9690    1.9945    4.3274 C   0  0  1  0  0  0  0  0  0  0  0  0
   11.6936    3.2441    4.2779 O   0  0  0  0  0  0  0  0  0  0  0  0
    5.7460    6.7272    4.3973 C   0  0  2  0  0  0  0  0  0  0  0  0
    5.6188    5.3904    4.8232 O   0  0  0  0  0  0  0  0  0  0  0  0
    5.8752    8.2389    0.0199 C   0  0  2  0  0  0  0  0  0  0  0  0
    8.4865    4.7921    1.5225 C   0  0  2  0  0  0  0  0  0  0  0  0
    7.4579    5.7780    1.4730 O   0  0  0  0  0  0  0  0  0  0  0  0
   10.4857    1.7145    5.8293 C   0  0  2  0  0  0  0  0  0  0  0  0
   10.0044    0.3722    5.8838 O   0  0  0  0  0  0  0  0  0  0  0  0
    4.7836    7.0195    3.1981 C   0  0  2  0  0  0  0  0  0  0  0  0
    4.9411    8.4088    2.7684 O   0  0  0  0  0  0  0  0  0  0  0  0
    4.8339    7.1009    0.0972 C   0  0  2  0  0  0  0  0  0  0  0  0
    5.6011    5.8720   -0.0277 O   0  0  0  0  0  0  0  0  0  0  0  0
    9.4264    4.8988    0.2817 C   0  0  0  0  0  0  0  0  0  0  0  0
    8.6420    4.8659   -0.9068 O   0  0  0  0  0  0  0  0  0  0  0  0
    9.3453    2.7198    6.2427 C   0  0  1  0  0  0  0  0  0  0  0  0
    8.2690    2.5479    5.2516 O   0  0  0  0  0  0  0  0  0  0  0  0
    3.3331    6.7736    3.5434 C   0  0  0  0  0  0  0  0  0  0  0  0
    3.1261    5.4109    3.8256 O   0  0  0  0  0  0  0  0  0  0  0  0
    3.7872    7.2332   -1.0871 C   0  0  1  0  0  0  0  0  0  0  0  0
    2.7389    6.2732   -0.9286 O   0  0  0  0  0  0  0  0  0  0  0  0
    8.7814    2.4909    7.7118 C   0  0  0  0  0  0  0  0  0  0  0  0
    7.6531    3.3761    8.1118 N   0  0  0  0  0  0  0  0  0  0  0  0
  1  2  1  6  0  0  0
  1  7  1  0  0  0  0
  1 30  1  0  0  0  0
  3  4  1  6  0  0  0
  3  9  1  0  0  0  0
  3 39  1  0  0  0  0
  5 10  1  0  0  0  0
  5 26  1  0  0  0  0
  5 32  1  6  0  0  0
  6 12  1  0  0  0  0
  6 36  1  0  0  0  0
  6 19  1  6  0  0  0
  7  8  1  6  0  0  0
  7 14  1  0  0  0  0
  9 16  1  0  0  0  0
 10 11  1  1  0  0  0
 10 18  1  0  0  0  0
 12 13  1  1  0  0  0
 12 20  1  0  0  0  0
 14 15  1  1  0  0  0
 14 22  1  0  0  0  0
 16 17  1  6  0  0  0
 16 24  1  0  0  0  0
 18 19  1  1  0  0  0
 18 25  1  0  0  0  0
 20 21  1  1  0  0  0
 20 27  1  0  0  0  0
 22 23  1  6  0  0  0
 22 29  1  0  0  0  0
 24  2  1  1  0  0  0
 24 31  1  0  0  0  0
 25 26  1  0  0  0  0
 25 33  1  6  0  0  0
 27 28  1  6  0  0  0
 27 35  1  0  0  0  0
 29 30  1  0  0  0  0
 29 37  1  1  0  0  0
 31 32  1  6  0  0  0
 31 39  1  0  0  0  0
 33 34  1  0  0  0  0
 35 36  1  0  0  0  0
 35 41  1  1  0  0  0
 37 38  1  0  0  0  0
 39 40  1  1  0  0  0
 41 42  1  0  0  0  0
M  END
>  <CHROM.1>
174.02116711,155.42630638,-52.95355014,-173.80176940,36.87885298,63.38783637
-64.22944402,87.81746383,-176.91430924,6.84387888,5.51202696,2.46429626,2.68939745
0.93914097,-1.74979010

>  <Name>
2o3w_lig

>  <RI>
0

>  <Rbt.Current_Directory>
/home/itssahil/PROJECTS/Mol_Feturizer/New_Systems/rnas/2o3w

>  <Rbt.Executable>
rbdock ($Id: //depot/dev/client3/rdock/2013.1/src/exe/rbdock.cxx#4 $)

>  <Rbt.Library>
libRbt.so (2013.1, Build901 2013/11/27)

>  <Rbt.Parameter_File>
/export/apps/rDock/src/rDock_2013.1_src/data/scripts/dock_solv.prm

>  <Rbt.Receptor>
prm/pocket_docking_4.prm

>  <SCORE>
-13.7142

>  <SCORE.INTER>
-6.368

>  <SCORE.INTER.CONST>
1

>  <SCORE.INTER.POLAR>
-0.919474

>  <SCORE.INTER.ROT>
9

>  <SCORE.INTER.SOLV>
17.0211

>  <SCORE.INTER.VDW>
-16.4541

>  <SCORE.INTER.norm>
-0.151619

>  <SCORE.INTRA>
-7.34958

>  <SCORE.INTRA.DIHEDRAL>
-18.9306

>  <SCORE.INTRA.DIHEDRAL.0>
27.8999

>  <SCORE.INTRA.POLAR>
0

>  <SCORE.INTRA.POLAR.0>
0

>  <SCORE.INTRA.REPUL>
0.515222

>  <SCORE.INTRA.REPUL.0>
0

>  <SCORE.INTRA.SOLV>
-1.77448

>  <SCORE.INTRA.SOLV.lig_0>
-104.479

>  <SCORE.INTRA.VDW>
0.426857

>  <SCORE.INTRA.VDW.0>
-6.17816

>  <SCORE.INTRA.norm>
-0.17499

>  <SCORE.RESTR>
0.0033485

>  <SCORE.RESTR.CAVITY>
0.0033485

>  <SCORE.RESTR.norm>
7.97263e-05

>  <SCORE.SYSTEM>
0

>  <SCORE.SYSTEM.CONST>
0

>  <SCORE.SYSTEM.DIHEDRAL>
0

>  <SCORE.SYSTEM.SOLV>
0

>  <SCORE.SYSTEM.norm>
0

>  <SCORE.heavy>
42

>  <SCORE.norm>
-0.326529

>  <RMSD>
9.310

$$$$
2o3w_lig
 OpenBabel11021811463D
libRbt.so/2013.1/901 2013/11/27
 42 45  0  0  0  0  0  0  0  0999 V2000
    5.4702    6.7908   -1.1201 C   0  0  2  0  0  0  0  0  0  0  0  0
    5.5678    6.1631    0.1698 O   0  0  0  0  0  0  0  0  0  0  0  0
    4.3774    2.1083    1.1379 C   0  0  2  0  0  0  0  0  0  0  0  0
    4.3605    0.6220    1.2833 N   0  0  0  0  0  0  0  0  0  0  0  0
    7.4626    4.6447    3.5212 C   0  0  1  0  0  0  0  0  0  0  0  0
    9.8663    5.0004    7.2764 C   0  0  1  0  0  0  0  0  0  0  0  0
    6.3159    8.0980   -1.0552 C   0  0  2  0  0  0  0  0  0  0  0  0
    7.6677    7.8687   -0.5162 N   0  0  0  0  0  0  0  0  0  0  0  0
    4.3588    2.5363   -0.3847 C   0  0  0  0  0  0  0  0  0  0  0  0
    9.0110    4.5055    3.6400 C   0  0  2  0  0  0  0  0  0  0  0  0
    9.4798    3.1348    3.6568 O   0  0  0  0  0  0  0  0  0  0  0  0
    9.3106    4.4353    8.6331 C   0  0  2  0  0  0  0  0  0  0  0  0
    7.8349    4.6436    8.7332 N   0  0  0  0  0  0  0  0  0  0  0  0
    5.6609    9.1744   -0.1702 C   0  0  1  0  0  0  0  0  0  0  0  0
    6.4485   10.3663   -0.1717 O   0  0  0  0  0  0  0  0  0  0  0  0
    4.3551    4.1095   -0.4725 C   0  0  2  0  0  0  0  0  0  0  0  0
    4.3229    4.5483   -1.8937 N   0  0  0  0  0  0  0  0  0  0  0  0
    9.2855    5.3150    4.9084 C   0  0  2  0  0  0  0  0  0  0  0  0
    9.2287    4.4753    6.1053 O   0  0  0  0  0  0  0  0  0  0  0  0
   10.0752    5.1398    9.8520 C   0  0  1  0  0  0  0  0  0  0  0  0
   11.4166    4.6077    9.9321 O   0  0  0  0  0  0  0  0  0  0  0  0
    4.2235    9.4472   -0.6687 C   0  0  2  0  0  0  0  0  0  0  0  0
    3.6157   10.4428    0.1210 O   0  0  0  0  0  0  0  0  0  0  0  0
    5.6314    4.7100    0.2390 C   0  0  2  0  0  0  0  0  0  0  0  0
    8.2131    6.4167    4.9492 C   0  0  2  0  0  0  0  0  0  0  0  0
    7.0986    5.8040    4.3052 O   0  0  0  0  0  0  0  0  0  0  0  0
   10.1389    6.7344    9.7080 C   0  0  2  0  0  0  0  0  0  0  0  0
    8.8150    7.2363    9.8860 O   0  0  0  0  0  0  0  0  0  0  0  0
    3.4017    8.1165   -0.6100 C   0  0  2  0  0  0  0  0  0  0  0  0
    4.0572    7.0970   -1.4290 O   0  0  0  0  0  0  0  0  0  0  0  0
    5.7466    4.2864    1.7197 C   0  0  2  0  0  0  0  0  0  0  0  0
    7.0490    4.7656    2.1539 O   0  0  0  0  0  0  0  0  0  0  0  0
    8.6098    7.7479    4.2386 C   0  0  0  0  0  0  0  0  0  0  0  0
    7.5305    8.6724    4.3350 O   0  0  0  0  0  0  0  0  0  0  0  0
   10.6909    7.1428    8.2900 C   0  0  1  0  0  0  0  0  0  0  0  0
    9.7948    6.5127    7.3051 O   0  0  0  0  0  0  0  0  0  0  0  0
    1.9787    8.2903   -1.0882 C   0  0  0  0  0  0  0  0  0  0  0  0
    1.2298    7.1314   -0.8135 O   0  0  0  0  0  0  0  0  0  0  0  0
    5.6570    2.7080    1.8477 C   0  0  1  0  0  0  0  0  0  0  0  0
    5.6112    2.3264    3.2253 O   0  0  0  0  0  0  0  0  0  0  0  0
   10.7561    8.7131    8.0482 C   0  0  0  0  0  0  0  0  0  0  0  0
    9.4482    9.4235    8.0853 N   0  0  0  0  0  0  0  0  0  0  0  0
  1  2  1  1  0  0  0
  1  7  1  0  0  0  0
  1 30  1  0  0  0  0
  3  4  1  6  0  0  0
  3  9  1  0  0  0  0
  3 39  1  0  0  0  0
  5 10  1  0  0  0  0
  5 26  1  0  0  0  0
  5 32  1  6  0  0  0
  6 12  1  0  0  0  0
  6 36  1  0  0  0  0
  6 19  1  6  0  0  0
  7  8  1  1  0  0  0
  7 14  1  0  0  0  0
  9 16  1  0  0  0  0
 10 11  1  1  0  0  0
 10 18  1  0  0  0  0
 12 13  1  1  0  0  0
 12 20  1  0  0  0  0
 14 15  1  6  0  0  0
 14 22  1  0  0  0  0
 16 17  1  6  0  0  0
 16 24  1  0  0  0  0
 18 19  1  1  0  0  0
 18 25  1  0  0  0  0
 20 21  1  6  0  0  0
 20 27  1  0  0  0  0
 22 23  1  1  0  0  0
 22 29  1  0  0  0  0
 24  2  1  1  0  0  0
 24 31  1  0  0  0  0
 25 26  1  0  0  0  0
 25 33  1  6  0  0  0
 27 28  1  6  0  0  0
 27 35  1  0  0  0  0
 29 30  1  0  0  0  0
 29 37  1  6  0  0  0
 31 32  1  6  0  0  0
 31 39  1  0  0  0  0
 33 34  1  0  0  0  0
 35 36  1  0  0  0  0
 35 41  1  1  0  0  0
 37 38  1  0  0  0  0
 39 40  1  1  0  0  0
 41 42  1  0  0  0  0
M  END
>  <CHROM.1>
-143.15470227,150.48902881,155.54817855,161.02681794,-57.29937700,179.32646752
-170.49351203,174.97296377,-62.36205659,6.92703315,6.02466833,3.27076893
-2.99825381,1.00397846,3.03547469

>  <Name>
2o3w_lig

>  <RI>
0

>  <Rbt.Current_Directory>
/home/itssahil/PROJECTS/Mol_Feturizer/New_Systems/rnas/2o3w

>  <Rbt.Executable>
rbdock ($Id: //depot/dev/client3/rdock/2013.1/src/exe/rbdock.cxx#4 $)

>  <Rbt.Library>
libRbt.so (2013.1, Build901 2013/11/27)

>  <Rbt.Parameter_File>
/export/apps/rDock/src/rDock_2013.1_src/data/scripts/dock_solv.prm

>  <Rbt.Receptor>
prm/pocket_docking_8.prm

>  <SCORE>
-12.9249

>  <SCORE.INTER>
-8.3634

>  <SCORE.INTER.CONST>
1

>  <SCORE.INTER.POLAR>
-2.95369

>  <SCORE.INTER.ROT>
9

>  <SCORE.INTER.SOLV>
11.2272

>  <SCORE.INTER.VDW>
-9.07237

>  <SCORE.INTER.norm>
-0.199129

>  <SCORE.INTRA>
-4.56152

>  <SCORE.INTRA.DIHEDRAL>
-14.7172

>  <SCORE.INTRA.DIHEDRAL.0>
27.8999

>  <SCORE.INTRA.POLAR>
0

>  <SCORE.INTRA.POLAR.0>
0

>  <SCORE.INTRA.REPUL>
0

>  <SCORE.INTRA.REPUL.0>
0

>  <SCORE.INTRA.SOLV>
-1.37402

>  <SCORE.INTRA.SOLV.lig_0>
-104.479

>  <SCORE.INTRA.VDW>
3.48411

>  <SCORE.INTRA.VDW.0>
-6.17816

>  <SCORE.INTRA.norm>
-0.108608

>  <SCORE.RESTR>
0

>  <SCORE.RESTR.CAVITY>
0

>  <SCORE.RESTR.norm>
0

>  <SCORE.SYSTEM>
0

>  <SCORE.SYSTEM.CONST>
0

>  <SCORE.SYSTEM.DIHEDRAL>
0

>  <SCORE.SYSTEM.SOLV>
0

>  <SCORE.SYSTEM.norm>
0

>  <SCORE.heavy>
42

>  <SCORE.norm>
-0.307736

>  <RMSD>
9.348

$$$$
2o3w_lig
 OpenBabel11021811463D
libRbt.so/2013.1/901 2013/11/27
 42 45  0  0  0  0  0  0  0  0999 V2000
    6.2203    7.7153   -0.7080 C   0  0  2  0  0  0  0  0  0  0  0  0
    7.3764    7.9548    0.1126 O   0  0  0  0  0  0  0  0  0  0  0  0
    8.7503    3.8509    0.3690 C   0  0  2  0  0  0  0  0  0  0  0  0
    9.5188    2.6232    0.7333 N   0  0  0  0  0  0  0  0  0  0  0  0
    8.1134    7.0017    3.4635 C   0  0  1  0  0  0  0  0  0  0  0  0
   10.5051    8.0546    6.8796 C   0  0  1  0  0  0  0  0  0  0  0  0
    5.6996    9.1068   -1.1779 C   0  0  2  0  0  0  0  0  0  0  0  0
    6.7688    9.9465   -1.7456 N   0  0  0  0  0  0  0  0  0  0  0  0
    9.6547    4.8810   -0.4201 C   0  0  0  0  0  0  0  0  0  0  0  0
    7.6622    8.1839    4.3743 C   0  0  2  0  0  0  0  0  0  0  0  0
    7.9607    9.4935    3.8311 O   0  0  0  0  0  0  0  0  0  0  0  0
   10.0289    8.6462    8.2551 C   0  0  2  0  0  0  0  0  0  0  0  0
    9.9328   10.1353    8.1908 N   0  0  0  0  0  0  0  0  0  0  0  0
    5.0649    9.9117   -0.0288 C   0  0  1  0  0  0  0  0  0  0  0  0
    4.5669   11.1604   -0.5120 O   0  0  0  0  0  0  0  0  0  0  0  0
    8.7854    6.1405   -0.7950 C   0  0  2  0  0  0  0  0  0  0  0  0
    9.6025    7.1263   -1.5527 N   0  0  0  0  0  0  0  0  0  0  0  0
    8.3674    7.8344    5.6857 C   0  0  2  0  0  0  0  0  0  0  0  0
    9.7003    8.4337    5.7561 O   0  0  0  0  0  0  0  0  0  0  0  0
   11.0408    8.1841    9.4081 C   0  0  1  0  0  0  0  0  0  0  0  0
   10.8202    6.7837    9.6897 O   0  0  0  0  0  0  0  0  0  0  0  0
    3.9450    9.0744    0.6300 C   0  0  2  0  0  0  0  0  0  0  0  0
    3.3424    9.8039    1.6736 O   0  0  0  0  0  0  0  0  0  0  0  0
    8.2034    6.8227    0.5057 C   0  0  2  0  0  0  0  0  0  0  0  0
    8.4436    6.2990    5.7306 C   0  0  2  0  0  0  0  0  0  0  0  0
    8.5323    5.9416    4.3533 O   0  0  0  0  0  0  0  0  0  0  0  0
   12.5772    8.4166    9.0172 C   0  0  2  0  0  0  0  0  0  0  0  0
   12.8081    9.8247    8.9957 O   0  0  0  0  0  0  0  0  0  0  0  0
    4.5567    7.7389    1.1703 C   0  0  2  0  0  0  0  0  0  0  0  0
    5.1840    7.0051    0.0713 O   0  0  0  0  0  0  0  0  0  0  0  0
    7.3526    5.8567    1.3590 C   0  0  2  0  0  0  0  0  0  0  0  0
    7.0612    6.5845    2.5837 O   0  0  0  0  0  0  0  0  0  0  0  0
    7.2285    5.5994    6.4149 C   0  0  0  0  0  0  0  0  0  0  0  0
    6.5314    6.5468    7.2181 O   0  0  0  0  0  0  0  0  0  0  0  0
   12.8926    7.7908    7.6061 C   0  0  1  0  0  0  0  0  0  0  0  0
   11.9573    8.4231    6.6598 O   0  0  0  0  0  0  0  0  0  0  0  0
    3.5256    6.8513    1.8281 C   0  0  0  0  0  0  0  0  0  0  0  0
    2.5724    6.4320    0.8821 O   0  0  0  0  0  0  0  0  0  0  0  0
    8.1710    4.5346    1.6719 C   0  0  1  0  0  0  0  0  0  0  0  0
    7.3337    3.5801    2.3303 O   0  0  0  0  0  0  0  0  0  0  0  0
   14.3923    8.0055    7.1230 C   0  0  0  0  0  0  0  0  0  0  0  0
   15.4378    7.3724    7.9731 N   0  0  0  0  0  0  0  0  0  0  0  0
  1  2  1  1  0  0  0
  1  7  1  0  0  0  0
  1 30  1  0  0  0  0
  3  4  1  1  0  0  0
  3  9  1  0  0  0  0
  3 39  1  0  0  0  0
  5 10  1  0  0  0  0
  5 26  1  0  0  0  0
  5 32  1  1  0  0  0
  6 12  1  0  0  0  0
  6 36  1  0  0  0  0
  6 19  1  6  0  0  0
  7  8  1  1  0  0  0
  7 14  1  0  0  0  0
  9 16  1  0  0  0  0
 10 11  1  6  0  0  0
 10 18  1  0  0  0  0
 12 13  1  6  0  0  0
 12 20  1  0  0  0  0
 14 15  1  6  0  0  0
 14 22  1  0  0  0  0
 16 17  1  1  0  0  0
 16 24  1  0  0  0  0
 18 19  1  6  0  0  0
 18 25  1  0  0  0  0
 20 21  1  6  0  0  0
 20 27  1  0  0  0  0
 22 23  1  1  0  0  0
 22 29  1  0  0  0  0
 24  2  1  6  0  0  0
 24 31  1  0  0  0  0
 25 26  1  0  0  0  0
 25 33  1  6  0  0  0
 27 28  1  6  0  0  0
 27 35  1  0  0  0  0
 29 30  1  0  0  0  0
 29 37  1  6  0  0  0
 31 32  1  1  0  0  0
 31 39  1  0  0  0  0
 33 34  1  0  0  0  0
 35 36  1  0  0  0  0
 35 41  1  6  0  0  0
 37 38  1  0  0  0  0
 39 40  1  6  0  0  0
 41 42  1  0  0  0  0
M  END
>  <CHROM.1>
-169.73824501,158.25363035,-71.16134160,-173.60869522,61.10449580,-18.57885853
64.33828370,-62.42761131,62.72577211,8.25774482,7.43395310,3.48796447,-2.36969782
-0.56672117,1.01304015

>  <Name>
2o3w_lig

>  <RI>
0

>  <Rbt.Current_Directory>
/home/itssahil/PROJECTS/Mol_Feturizer/New_Systems/rnas/2o3w

>  <Rbt.Executable>
rbdock ($Id: //depot/dev/client3/rdock/2013.1/src/exe/rbdock.cxx#4 $)

>  <Rbt.Library>
libRbt.so (2013.1, Build901 2013/11/27)

>  <Rbt.Parameter_File>
/export/apps/rDock/src/rDock_2013.1_src/data/scripts/dock_solv.prm

>  <Rbt.Receptor>
prm/pocket_docking_8.prm

>  <SCORE>
-29.8291

>  <SCORE.INTER>
-20.7417

>  <SCORE.INTER.CONST>
1

>  <SCORE.INTER.POLAR>
-4.53096

>  <SCORE.INTER.ROT>
9

>  <SCORE.INTER.SOLV>
26.6681

>  <SCORE.INTER.VDW>
-17.214

>  <SCORE.INTER.norm>
-0.49385

>  <SCORE.INTRA>
-9.08739

>  <SCORE.INTRA.DIHEDRAL>
-20.1719

>  <SCORE.INTRA.DIHEDRAL.0>
27.8999

>  <SCORE.INTRA.POLAR>
0

>  <SCORE.INTRA.POLAR.0>
0

>  <SCORE.INTRA.REPUL>
0

>  <SCORE.INTRA.REPUL.0>
0

>  <SCORE.INTRA.SOLV>
-4.10014

>  <SCORE.INTRA.SOLV.lig_0>
-104.479

>  <SCORE.INTRA.VDW>
3.04861

>  <SCORE.INTRA.VDW.0>
-6.17816

>  <SCORE.INTRA.norm>
-0.216367

>  <SCORE.RESTR>
0

>  <SCORE.RESTR.CAVITY>
0

>  <SCORE.RESTR.norm>
0

>  <SCORE.SYSTEM>
0

>  <SCORE.SYSTEM.CONST>
0

>  <SCORE.SYSTEM.DIHEDRAL>
0

>  <SCORE.SYSTEM.SOLV>
0

>  <SCORE.SYSTEM.norm>
0

>  <SCORE.heavy>
42

>  <SCORE.norm>
-0.710216

>  <RMSD>
9.356

$$$$
2o3w_lig
 OpenBabel11021811463D
libRbt.so/2013.1/901 2013/11/27
 42 45  0  0  0  0  0  0  0  0999 V2000
    8.6188    5.3805    2.1668 C   0  0  2  0  0  0  0  0  0  0  0  0
    9.9130    5.5831    2.7596 O   0  0  0  0  0  0  0  0  0  0  0  0
   11.6130    5.5742    6.7478 C   0  0  2  0  0  0  0  0  0  0  0  0
   11.7933    5.7242    8.2228 N   0  0  0  0  0  0  0  0  0  0  0  0
    8.6510    2.4031    5.1156 C   0  0  1  0  0  0  0  0  0  0  0  0
    7.4074   -1.8737    5.2701 C   0  0  1  0  0  0  0  0  0  0  0  0
    8.8569    4.9871    0.6779 C   0  0  2  0  0  0  0  0  0  0  0  0
    9.8439    3.9031    0.5321 N   0  0  0  0  0  0  0  0  0  0  0  0
   11.3748    6.9751    6.0533 C   0  0  0  0  0  0  0  0  0  0  0  0
    7.2861    1.8431    4.6114 C   0  0  2  0  0  0  0  0  0  0  0  0
    6.1879    2.0487    5.5338 O   0  0  0  0  0  0  0  0  0  0  0  0
    7.2815   -2.7500    6.5682 C   0  0  2  0  0  0  0  0  0  0  0  0
    8.3717   -2.4279    7.5371 N   0  0  0  0  0  0  0  0  0  0  0  0
    9.3681    6.1703   -0.1645 C   0  0  1  0  0  0  0  0  0  0  0  0
    9.5341    5.7756   -1.5274 O   0  0  0  0  0  0  0  0  0  0  0  0
   11.2146    6.7547    4.5015 C   0  0  2  0  0  0  0  0  0  0  0  0
   11.0029    8.0566    3.8130 N   0  0  0  0  0  0  0  0  0  0  0  0
    7.6496    0.3845    4.3291 C   0  0  2  0  0  0  0  0  0  0  0  0
    7.4365   -0.4603    5.5046 O   0  0  0  0  0  0  0  0  0  0  0  0
    7.3098   -4.3002    6.1645 C   0  0  1  0  0  0  0  0  0  0  0  0
    6.0483   -4.6460    5.5498 O   0  0  0  0  0  0  0  0  0  0  0  0
    8.3859    7.3570   -0.0362 C   0  0  2  0  0  0  0  0  0  0  0  0
    8.8311    8.4430   -0.8152 O   0  0  0  0  0  0  0  0  0  0  0  0
   10.0000    5.7910    4.1982 C   0  0  2  0  0  0  0  0  0  0  0  0
    9.1285    0.3896    3.9072 C   0  0  2  0  0  0  0  0  0  0  0  0
    9.6657    1.4927    4.6331 O   0  0  0  0  0  0  0  0  0  0  0  0
    8.5095   -4.6609    5.1654 C   0  0  2  0  0  0  0  0  0  0  0  0
    9.7293   -4.5441    5.8968 O   0  0  0  0  0  0  0  0  0  0  0  0
    8.2737    7.7663    1.4703 C   0  0  2  0  0  0  0  0  0  0  0  0
    7.8195    6.6208    2.2587 O   0  0  0  0  0  0  0  0  0  0  0  0
   10.1368    4.4183    4.8926 C   0  0  2  0  0  0  0  0  0  0  0  0
    8.8689    3.7451    4.6610 O   0  0  0  0  0  0  0  0  0  0  0  0
    9.3753    0.5522    2.3752 C   0  0  0  0  0  0  0  0  0  0  0  0
    8.8045    1.7805    1.9345 O   0  0  0  0  0  0  0  0  0  0  0  0
    8.5181   -3.6822    3.9308 C   0  0  1  0  0  0  0  0  0  0  0  0
    8.6237   -2.3223    4.4875 O   0  0  0  0  0  0  0  0  0  0  0  0
    7.3240    8.9211    1.6899 C   0  0  0  0  0  0  0  0  0  0  0  0
    7.0813    9.0946    3.0647 O   0  0  0  0  0  0  0  0  0  0  0  0
   10.3951    4.6120    6.4455 C   0  0  1  0  0  0  0  0  0  0  0  0
   10.6718    3.3508    7.0607 O   0  0  0  0  0  0  0  0  0  0  0  0
    9.7008   -3.9482    2.9018 C   0  0  0  0  0  0  0  0  0  0  0  0
   11.0759   -3.8448    3.4630 N   0  0  0  0  0  0  0  0  0  0  0  0
  1  2  1  6  0  0  0
  1  7  1  0  0  0  0
  1 30  1  0  0  0  0
  3  4  1  1  0  0  0
  3  9  1  0  0  0  0
  3 39  1  0  0  0  0
  5 10  1  0  0  0  0
  5 26  1  0  0  0  0
  5 32  1  6  0  0  0
  6 12  1  0  0  0  0
  6 36  1  0  0  0  0
  6 19  1  1  0  0  0
  7  8  1  1  0  0  0
  7 14  1  0  0  0  0
  9 16  1  0  0  0  0
 10 11  1  1  0  0  0
 10 18  1  0  0  0  0
 12 13  1  1  0  0  0
 12 20  1  0  0  0  0
 14 15  1  6  0  0  0
 14 22  1  0  0  0  0
 16 17  1  6  0  0  0
 16 24  1  0  0  0  0
 18 19  1  1  0  0  0
 18 25  1  0  0  0  0
 20 21  1  6  0  0  0
 20 27  1  0  0  0  0
 22 23  1  6  0  0  0
 22 29  1  0  0  0  0
 24  2  1  6  0  0  0
 24 31  1  0  0  0  0
 25 26  1  0  0  0  0
 25 33  1  6  0  0  0
 27 28  1  1  0  0  0
 27 35  1  0  0  0  0
 29 30  1  0  0  0  0
 29 37  1  6  0  0  0
 31 32  1  1  0  0  0
 31 39  1  0  0  0  0
 33 34  1  0  0  0  0
 35 36  1  0  0  0  0
 35 41  1  6  0  0  0
 37 38  1  0  0  0  0
 39 40  1  6  0  0  0
 41 42  1  0  0  0  0
M  END
>  <CHROM.1>
-172.06223386,-173.50632591,175.76487460,164.38110506,-147.76516265,59.29667683
169.76192052,177.09613237,-59.11670182,8.97394773,2.53855209,3.87903954,1.29826522
-1.25769410,-0.54656674

>  <Name>
2o3w_lig

>  <RI>
0

>  <Rbt.Current_Directory>
/home/itssahil/PROJECTS/Mol_Feturizer/New_Systems/rnas/2o3w

>  <Rbt.Executable>
rbdock ($Id: //depot/dev/client3/rdock/2013.1/src/exe/rbdock.cxx#4 $)

>  <Rbt.Library>
libRbt.so (2013.1, Build901 2013/11/27)

>  <Rbt.Parameter_File>
/export/apps/rDock/src/rDock_2013.1_src/data/scripts/dock_solv.prm

>  <Rbt.Receptor>
prm/pocket_docking_4.prm

>  <SCORE>
-17.5534

>  <SCORE.INTER>
-7.32313

>  <SCORE.INTER.CONST>
1

>  <SCORE.INTER.POLAR>
-1.86604

>  <SCORE.INTER.ROT>
9

>  <SCORE.INTER.SOLV>
16.201

>  <SCORE.INTER.VDW>
-13.6623

>  <SCORE.INTER.norm>
-0.17436

>  <SCORE.INTRA>
-10.2303

>  <SCORE.INTRA.DIHEDRAL>
-21.6249

>  <SCORE.INTRA.DIHEDRAL.0>
27.8999

>  <SCORE.INTRA.POLAR>
0

>  <SCORE.INTRA.POLAR.0>
0

>  <SCORE.INTRA.REPUL>
0

>  <SCORE.INTRA.REPUL.0>
0

>  <SCORE.INTRA.SOLV>
-1.03211

>  <SCORE.INTRA.SOLV.lig_0>
-104.479

>  <SCORE.INTRA.VDW>
1.09821

>  <SCORE.INTRA.VDW.0>
-6.17816

>  <SCORE.INTRA.norm>
-0.243578

>  <SCORE.RESTR>
0

>  <SCORE.RESTR.CAVITY>
0

>  <SCORE.RESTR.norm>
0

>  <SCORE.SYSTEM>
0

>  <SCORE.SYSTEM.CONST>
0

>  <SCORE.SYSTEM.DIHEDRAL>
0

>  <SCORE.SYSTEM.SOLV>
0

>  <SCORE.SYSTEM.norm>
0

>  <SCORE.heavy>
42

>  <SCORE.norm>
-0.417938

>  <RMSD>
9.362

$$$$
2o3w_lig
 OpenBabel11021811463D
libRbt.so/2013.1/901 2013/11/27
 42 45  0  0  0  0  0  0  0  0999 V2000
    3.5991    4.8176    0.4348 C   0  0  2  0  0  0  0  0  0  0  0  0
    4.4617    5.2454   -0.6330 O   0  0  0  0  0  0  0  0  0  0  0  0
    8.3690    7.1210   -0.7403 C   0  0  2  0  0  0  0  0  0  0  0  0
    9.5185    8.0399   -0.4858 N   0  0  0  0  0  0  0  0  0  0  0  0
    6.3912    3.8780    2.3296 C   0  0  1  0  0  0  0  0  0  0  0  0
    8.1216    0.7865    4.9541 C   0  0  1  0  0  0  0  0  0  0  0  0
    2.2704    4.3337   -0.2197 C   0  0  2  0  0  0  0  0  0  0  0  0
    2.4985    3.3862   -1.3246 N   0  0  0  0  0  0  0  0  0  0  0  0
    7.1688    7.8820   -1.4349 C   0  0  0  0  0  0  0  0  0  0  0  0
    7.9225    3.7424    2.5896 C   0  0  2  0  0  0  0  0  0  0  0  0
    8.6464    3.0882    1.5186 O   0  0  0  0  0  0  0  0  0  0  0  0
    9.5267    0.9488    5.6382 C   0  0  2  0  0  0  0  0  0  0  0  0
   10.6272    0.6429    4.6757 N   0  0  0  0  0  0  0  0  0  0  0  0
    1.4449    5.4987   -0.7963 C   0  0  1  0  0  0  0  0  0  0  0  0
    0.2200    5.0144   -1.3494 O   0  0  0  0  0  0  0  0  0  0  0  0
    5.9995    6.8590   -1.6971 C   0  0  2  0  0  0  0  0  0  0  0  0
    4.8568    7.5392   -2.3644 N   0  0  0  0  0  0  0  0  0  0  0  0
    7.9320    3.0160    3.9356 C   0  0  2  0  0  0  0  0  0  0  0  0
    7.9445    1.5631    3.7628 O   0  0  0  0  0  0  0  0  0  0  0  0
    9.6031   -0.0065    6.9222 C   0  0  1  0  0  0  0  0  0  0  0  0
    8.7871    0.5575    7.9733 O   0  0  0  0  0  0  0  0  0  0  0  0
    1.1889    6.5467    0.3107 C   0  0  2  0  0  0  0  0  0  0  0  0
    0.4198    7.6121   -0.1970 O   0  0  0  0  0  0  0  0  0  0  0  0
    5.5121    6.2108   -0.3414 C   0  0  2  0  0  0  0  0  0  0  0  0
    6.6659    3.4782    4.6764 C   0  0  2  0  0  0  0  0  0  0  0  0
    5.7470    3.7293    3.6157 O   0  0  0  0  0  0  0  0  0  0  0  0
    9.1206   -1.5030    6.6136 C   0  0  2  0  0  0  0  0  0  0  0  0
   10.0971   -2.1041    5.7642 O   0  0  0  0  0  0  0  0  0  0  0  0
    2.5634    7.0650    0.8507 C   0  0  2  0  0  0  0  0  0  0  0  0
    3.3464    5.9404    1.3628 O   0  0  0  0  0  0  0  0  0  0  0  0
    6.6478    5.4957    0.4229 C   0  0  2  0  0  0  0  0  0  0  0  0
    6.0724    5.1294    1.7071 O   0  0  0  0  0  0  0  0  0  0  0  0
    6.8512    4.7438    5.5698 C   0  0  0  0  0  0  0  0  0  0  0  0
    7.7955    4.4598    6.5977 O   0  0  0  0  0  0  0  0  0  0  0  0
    7.7122   -1.4985    5.9074 C   0  0  1  0  0  0  0  0  0  0  0  0
    7.8673   -0.6828    4.6905 O   0  0  0  0  0  0  0  0  0  0  0  0
    2.4071    8.0938    1.9465 C   0  0  0  0  0  0  0  0  0  0  0  0
    2.1319    7.4594    3.1717 O   0  0  0  0  0  0  0  0  0  0  0  0
    7.8799    6.4753    0.6178 C   0  0  1  0  0  0  0  0  0  0  0  0
    8.9854    5.7701    1.1889 O   0  0  0  0  0  0  0  0  0  0  0  0
    7.1706   -2.9460    5.5335 C   0  0  0  0  0  0  0  0  0  0  0  0
    5.9194   -2.9751    4.7272 N   0  0  0  0  0  0  0  0  0  0  0  0
  1  2  1  6  0  0  0
  1  7  1  0  0  0  0
  1 30  1  0  0  0  0
  3  4  1  1  0  0  0
  3  9  1  0  0  0  0
  3 39  1  0  0  0  0
  5 10  1  0  0  0  0
  5 26  1  0  0  0  0
  5 32  1  1  0  0  0
  6 12  1  0  0  0  0
  6 36  1  0  0  0  0
  6 19  1  6  0  0  0
  7  8  1  6  0  0  0
  7 14  1  0  0  0  0
  9 16  1  0  0  0  0
 10 11  1  6  0  0  0
 10 18  1  0  0  0  0
 12 13  1  6  0  0  0
 12 20  1  0  0  0  0
 14 15  1  1  0  0  0
 14 22  1  0  0  0  0
 16 17  1  1  0  0  0
 16 24  1  0  0  0  0
 18 19  1  6  0  0  0
 18 25  1  0  0  0  0
 20 21  1  1  0  0  0
 20 27  1  0  0  0  0
 22 23  1  6  0  0  0
 22 29  1  0  0  0  0
 24  2  1  6  0  0  0
 24 31  1  0  0  0  0
 25 26  1  0  0  0  0
 25 33  1  6  0  0  0
 27 28  1  6  0  0  0
 27 35  1  0  0  0  0
 29 30  1  0  0  0  0
 29 37  1  1  0  0  0
 31 32  1  1  0  0  0
 31 39  1  0  0  0  0
 33 34  1  0  0  0  0
 35 36  1  0  0  0  0
 35 41  1  6  0  0  0
 37 38  1  0  0  0  0
 39 40  1  6  0  0  0
 41 42  1  0  0  0  0
M  END
>  <CHROM.1>
155.77987735,59.17897453,-66.14296758,172.51609197,-162.02800297,-62.33176264
79.81597608,141.50978962,-173.26716855,6.12859368,3.81695465,2.36827918,2.09293466
-0.15383952,-0.63261281

>  <Name>
2o3w_lig

>  <RI>
0

>  <Rbt.Current_Directory>
/home/itssahil/PROJECTS/Mol_Feturizer/New_Systems/rnas/2o3w

>  <Rbt.Executable>
rbdock ($Id: //depot/dev/client3/rdock/2013.1/src/exe/rbdock.cxx#4 $)

>  <Rbt.Library>
libRbt.so (2013.1, Build901 2013/11/27)

>  <Rbt.Parameter_File>
/export/apps/rDock/src/rDock_2013.1_src/data/scripts/dock_solv.prm

>  <Rbt.Receptor>
prm/pocket_docking_4.prm

>  <SCORE>
-9.41438

>  <SCORE.INTER>
-1.68209

>  <SCORE.INTER.CONST>
1

>  <SCORE.INTER.POLAR>
-0.969185

>  <SCORE.INTER.ROT>
9

>  <SCORE.INTER.SOLV>
13.4035

>  <SCORE.INTER.VDW>
-11.9586

>  <SCORE.INTER.norm>
-0.0400498

>  <SCORE.INTRA>
-7.82796

>  <SCORE.INTRA.DIHEDRAL>
-16.6658

>  <SCORE.INTRA.DIHEDRAL.0>
27.8999

>  <SCORE.INTRA.POLAR>
0

>  <SCORE.INTRA.POLAR.0>
0

>  <SCORE.INTRA.REPUL>
0.0364991

>  <SCORE.INTRA.REPUL.0>
0

>  <SCORE.INTRA.SOLV>
-4.67102

>  <SCORE.INTRA.SOLV.lig_0>
-104.479

>  <SCORE.INTRA.VDW>
2.65795

>  <SCORE.INTRA.VDW.0>
-6.17816

>  <SCORE.INTRA.norm>
-0.18638

>  <SCORE.RESTR>
0.0956736

>  <SCORE.RESTR.CAVITY>
0.0956736

>  <SCORE.RESTR.norm>
0.00227794

>  <SCORE.SYSTEM>
0

>  <SCORE.SYSTEM.CONST>
0

>  <SCORE.SYSTEM.DIHEDRAL>
0

>  <SCORE.SYSTEM.SOLV>
0

>  <SCORE.SYSTEM.norm>
0

>  <SCORE.heavy>
42

>  <SCORE.norm>
-0.224152

>  <RMSD>
9.363

$$$$
2o3w_lig
 OpenBabel11021811463D
libRbt.so/2013.1/901 2013/11/27
 42 45  0  0  0  0  0  0  0  0999 V2000
    8.8972    4.5553    2.8764 C   0  0  2  0  0  0  0  0  0  0  0  0
   10.3086    4.7581    3.0612 O   0  0  0  0  0  0  0  0  0  0  0  0
   13.2310    3.1442    5.8273 C   0  0  2  0  0  0  0  0  0  0  0  0
   13.9218    2.6975    7.0737 N   0  0  0  0  0  0  0  0  0  0  0  0
    9.4094    0.9341    4.4161 C   0  0  1  0  0  0  0  0  0  0  0  0
    7.5711   -3.0062    5.0309 C   0  0  1  0  0  0  0  0  0  0  0  0
    8.5630    4.9853    1.4165 C   0  0  2  0  0  0  0  0  0  0  0  0
    9.4683    4.3745    0.4276 N   0  0  0  0  0  0  0  0  0  0  0  0
   13.0076    4.7101    5.8245 C   0  0  0  0  0  0  0  0  0  0  0  0
    8.9616    0.4325    5.8227 C   0  0  2  0  0  0  0  0  0  0  0  0
   10.0486   -0.0513    6.6494 O   0  0  0  0  0  0  0  0  0  0  0  0
    6.6473   -3.3709    6.2485 C   0  0  2  0  0  0  0  0  0  0  0  0
    7.4616   -3.6848    7.4607 N   0  0  0  0  0  0  0  0  0  0  0  0
    8.6542    6.5099    1.2210 C   0  0  1  0  0  0  0  0  0  0  0  0
    8.3021    6.8616   -0.1181 O   0  0  0  0  0  0  0  0  0  0  0  0
   12.2978    5.1219    4.4795 C   0  0  2  0  0  0  0  0  0  0  0  0
   12.0847    6.5938    4.4365 N   0  0  0  0  0  0  0  0  0  0  0  0
    7.9041   -0.6059    5.4450 C   0  0  2  0  0  0  0  0  0  0  0  0
    8.4910   -1.9358    5.2792 O   0  0  0  0  0  0  0  0  0  0  0  0
    5.7097   -4.6072    5.8491 C   0  0  1  0  0  0  0  0  0  0  0  0
    4.6886   -4.1437    4.9373 O   0  0  0  0  0  0  0  0  0  0  0  0
    7.7417    7.2171    2.2488 C   0  0  2  0  0  0  0  0  0  0  0  0
    7.8011    8.6134    2.0720 O   0  0  0  0  0  0  0  0  0  0  0  0
   10.9103    4.3809    4.3324 C   0  0  2  0  0  0  0  0  0  0  0  0
    7.2705   -0.1092    4.1345 C   0  0  2  0  0  0  0  0  0  0  0  0
    8.3424    0.5876    3.5036 O   0  0  0  0  0  0  0  0  0  0  0  0
    6.5229   -5.8123    5.1754 C   0  0  2  0  0  0  0  0  0  0  0  0
    7.3387   -6.4007    6.1876 O   0  0  0  0  0  0  0  0  0  0  0  0
    8.1979    6.8225    3.6930 C   0  0  2  0  0  0  0  0  0  0  0  0
    8.1368    5.3693    3.8485 O   0  0  0  0  0  0  0  0  0  0  0  0
   11.0443    2.8432    4.3834 C   0  0  2  0  0  0  0  0  0  0  0  0
    9.6798    2.3419    4.4215 O   0  0  0  0  0  0  0  0  0  0  0  0
    6.0277    0.8168    4.3140 C   0  0  0  0  0  0  0  0  0  0  0  0
    6.3518    1.8695    5.2171 O   0  0  0  0  0  0  0  0  0  0  0  0
    7.4185   -5.2851    3.9913 C   0  0  1  0  0  0  0  0  0  0  0  0
    8.2961   -4.2532    4.5702 O   0  0  0  0  0  0  0  0  0  0  0  0
    7.3520    7.4673    4.7665 C   0  0  0  0  0  0  0  0  0  0  0  0
    7.7956    7.0657    6.0398 O   0  0  0  0  0  0  0  0  0  0  0  0
   11.8410    2.4043    5.6828 C   0  0  1  0  0  0  0  0  0  0  0  0
   12.0963    0.9973    5.6533 O   0  0  0  0  0  0  0  0  0  0  0  0
    8.2885   -6.4135    3.2852 C   0  0  0  0  0  0  0  0  0  0  0  0
    9.1298   -5.9565    2.1451 N   0  0  0  0  0  0  0  0  0  0  0  0
  1  2  1  1  0  0  0
  1  7  1  0  0  0  0
  1 30  1  0  0  0  0
  3  4  1  1  0  0  0
  3  9  1  0  0  0  0
  3 39  1  0  0  0  0
  5 10  1  0  0  0  0
  5 26  1  0  0  0  0
  5 32  1  1  0  0  0
  6 12  1  0  0  0  0
  6 36  1  0  0  0  0
  6 19  1  1  0  0  0
  7  8  1  6  0  0  0
  7 14  1  0  0  0  0
  9 16  1  0  0  0  0
 10 11  1  6  0  0  0
 10 18  1  0  0  0  0
 12 13  1  1  0  0  0
 12 20  1  0  0  0  0
 14 15  1  6  0  0  0
 14 22  1  0  0  0  0
 16 17  1  1  0  0  0
 16 24  1  0  0  0  0
 18 19  1  6  0  0  0
 18 25  1  0  0  0  0
 20 21  1  6  0  0  0
 20 27  1  0  0  0  0
 22 23  1  1  0  0  0
 22 29  1  0  0  0  0
 24  2  1  6  0  0  0
 24 31  1  0  0  0  0
 25 26  1  0  0  0  0
 25 33  1  1  0  0  0
 27 28  1  1  0  0  0
 27 35  1  0  0  0  0
 29 30  1  0  0  0  0
 29 37  1  1  0  0  0
 31 32  1  1  0  0  0
 31 39  1  0  0  0  0
 33 34  1  0  0  0  0
 35 36  1  0  0  0  0
 35 41  1  1  0  0  0
 37 38  1  0  0  0  0
 39 40  1  6  0  0  0
 41 42  1  0  0  0  0
M  END
>  <CHROM.1>
-177.43710060,105.64633680,-68.70630247,175.10942615,-161.10002225,51.34075155
179.28605836,177.29465867,178.95178151,8.86362177,1.40797502,4.36684314,1.34889533
-0.47451756,-0.26310389

>  <Name>
2o3w_lig

>  <RI>
0

>  <Rbt.Current_Directory>
/home/itssahil/PROJECTS/Mol_Feturizer/New_Systems/rnas/2o3w

>  <Rbt.Executable>
rbdock ($Id: //depot/dev/client3/rdock/2013.1/src/exe/rbdock.cxx#4 $)

>  <Rbt.Library>
libRbt.so (2013.1, Build901 2013/11/27)

>  <Rbt.Parameter_File>
/export/apps/rDock/src/rDock_2013.1_src/data/scripts/dock_solv.prm

>  <Rbt.Receptor>
prm/pocket_docking_4.prm

>  <SCORE>
-9.88272

>  <SCORE.INTER>
-0.310631

>  <SCORE.INTER.CONST>
1

>  <SCORE.INTER.POLAR>
0

>  <SCORE.INTER.ROT>
9

>  <SCORE.INTER.SOLV>
7.96693

>  <SCORE.INTER.VDW>
-12.4627

>  <SCORE.INTER.norm>
-0.00739599

>  <SCORE.INTRA>
-9.57646

>  <SCORE.INTRA.DIHEDRAL>
-19.0911

>  <SCORE.INTRA.DIHEDRAL.0>
27.8999

>  <SCORE.INTRA.POLAR>
0

>  <SCORE.INTRA.POLAR.0>
0

>  <SCORE.INTRA.REPUL>
0.00566806

>  <SCORE.INTRA.REPUL.0>
0

>  <SCORE.INTRA.SOLV>
-4.89522

>  <SCORE.INTRA.SOLV.lig_0>
-104.479

>  <SCORE.INTRA.VDW>
2.38835

>  <SCORE.INTRA.VDW.0>
-6.17816

>  <SCORE.INTRA.norm>
-0.228011

>  <SCORE.RESTR>
0.00437045

>  <SCORE.RESTR.CAVITY>
0.00437045

>  <SCORE.RESTR.norm>
0.000104058

>  <SCORE.SYSTEM>
0

>  <SCORE.SYSTEM.CONST>
0

>  <SCORE.SYSTEM.DIHEDRAL>
0

>  <SCORE.SYSTEM.SOLV>
0

>  <SCORE.SYSTEM.norm>
0

>  <SCORE.heavy>
42

>  <SCORE.norm>
-0.235303

>  <RMSD>
9.367

$$$$
2o3w_lig
 OpenBabel11021811463D
libRbt.so/2013.1/901 2013/11/27
 42 45  0  0  0  0  0  0  0  0999 V2000
    6.6575    7.0065   -2.2358 C   0  0  2  0  0  0  0  0  0  0  0  0
    6.7984    6.5853   -0.8683 O   0  0  0  0  0  0  0  0  0  0  0  0
    3.8131    3.4415   -0.8597 C   0  0  2  0  0  0  0  0  0  0  0  0
    2.9855    2.2602   -0.4721 N   0  0  0  0  0  0  0  0  0  0  0  0
    5.2568    6.1842    2.3394 C   0  0  1  0  0  0  0  0  0  0  0  0
    7.3209    6.8277    5.7596 C   0  0  1  0  0  0  0  0  0  0  0  0
    7.3256    8.4095   -2.3509 C   0  0  2  0  0  0  0  0  0  0  0  0
    8.6798    8.4384   -1.7714 N   0  0  0  0  0  0  0  0  0  0  0  0
    5.3164    3.0270   -1.1244 C   0  0  0  0  0  0  0  0  0  0  0  0
    5.5436    7.3379    3.3480 C   0  0  2  0  0  0  0  0  0  0  0  0
    6.9024    7.8383    3.3003 O   0  0  0  0  0  0  0  0  0  0  0  0
    8.7425    6.1678    5.6484 C   0  0  2  0  0  0  0  0  0  0  0  0
    8.7822    4.8612    6.3709 N   0  0  0  0  0  0  0  0  0  0  0  0
    6.5125    9.5044   -1.6359 C   0  0  1  0  0  0  0  0  0  0  0  0
    7.1397   10.7773   -1.8007 O   0  0  0  0  0  0  0  0  0  0  0  0
    6.1312    4.3068   -1.5497 C   0  0  2  0  0  0  0  0  0  0  0  0
    7.5499    3.9503   -1.8213 N   0  0  0  0  0  0  0  0  0  0  0  0
    5.1225    6.6901    4.6679 C   0  0  2  0  0  0  0  0  0  0  0  0
    6.2415    5.9995    5.3094 O   0  0  0  0  0  0  0  0  0  0  0  0
    9.8417    7.1794    6.2276 C   0  0  1  0  0  0  0  0  0  0  0  0
   10.0308    8.2555    5.2816 O   0  0  0  0  0  0  0  0  0  0  0  0
    5.0666    9.5126   -2.1824 C   0  0  2  0  0  0  0  0  0  0  0  0
    4.3134   10.5209   -1.5496 O   0  0  0  0  0  0  0  0  0  0  0  0
    6.0685    5.4082   -0.4188 C   0  0  2  0  0  0  0  0  0  0  0  0
    3.9900    5.7101    4.3175 C   0  0  2  0  0  0  0  0  0  0  0  0
    4.3212    5.2968    2.9939 O   0  0  0  0  0  0  0  0  0  0  0  0
    9.4384    7.7853    7.6551 C   0  0  2  0  0  0  0  0  0  0  0  0
    9.5091    6.7258    8.6085 O   0  0  0  0  0  0  0  0  0  0  0  0
    4.4217    8.1070   -1.9414 C   0  0  2  0  0  0  0  0  0  0  0  0
    5.2261    7.0774   -2.5992 O   0  0  0  0  0  0  0  0  0  0  0  0
    4.6232    5.8229   -0.0661 C   0  0  2  0  0  0  0  0  0  0  0  0
    4.7467    6.6863    1.0973 O   0  0  0  0  0  0  0  0  0  0  0  0
    2.5538    6.3171    4.3731 C   0  0  0  0  0  0  0  0  0  0  0  0
    2.3762    7.2067    3.2750 O   0  0  0  0  0  0  0  0  0  0  0  0
    7.9821    8.3848    7.6132 C   0  0  1  0  0  0  0  0  0  0  0  0
    7.0992    7.2857    7.1858 O   0  0  0  0  0  0  0  0  0  0  0  0
    3.0024    8.0229   -2.4534 C   0  0  0  0  0  0  0  0  0  0  0  0
    2.1611    8.8515   -1.6885 O   0  0  0  0  0  0  0  0  0  0  0  0
    3.7521    4.5418    0.2744 C   0  0  1  0  0  0  0  0  0  0  0  0
    2.3816    4.9101    0.4522 O   0  0  0  0  0  0  0  0  0  0  0  0
    7.4864    8.9797    9.0021 C   0  0  0  0  0  0  0  0  0  0  0  0
    8.3518   10.0370    9.5934 N   0  0  0  0  0  0  0  0  0  0  0  0
  1  2  1  1  0  0  0
  1  7  1  0  0  0  0
  1 30  1  0  0  0  0
  3  4  1  1  0  0  0
  3  9  1  0  0  0  0
  3 39  1  0  0  0  0
  5 10  1  0  0  0  0
  5 26  1  0  0  0  0
  5 32  1  6  0  0  0
  6 12  1  0  0  0  0
  6 36  1  0  0  0  0
  6 19  1  1  0  0  0
  7  8  1  1  0  0  0
  7 14  1  0  0  0  0
  9 16  1  0  0  0  0
 10 11  1  1  0  0  0
 10 18  1  0  0  0  0
 12 13  1  1  0  0  0
 12 20  1  0  0  0  0
 14 15  1  6  0  0  0
 14 22  1  0  0  0  0
 16 17  1  1  0  0  0
 16 24  1  0  0  0  0
 18 19  1  6  0  0  0
 18 25  1  0  0  0  0
 20 21  1  6  0  0  0
 20 27  1  0  0  0  0
 22 23  1  1  0  0  0
 22 29  1  0  0  0  0
 24  2  1  6  0  0  0
 24 31  1  0  0  0  0
 25 26  1  0  0  0  0
 25 33  1  6  0  0  0
 27 28  1  1  0  0  0
 27 35  1  0  0  0  0
 29 30  1  0  0  0  0
 29 37  1  6  0  0  0
 31 32  1  1  0  0  0
 31 39  1  0  0  0  0
 33 34  1  0  0  0  0
 35 36  1  0  0  0  0
 35 41  1  1  0  0  0
 37 38  1  0  0  0  0
 39 40  1  6  0  0  0
 41 42  1  0  0  0  0
M  END
>  <CHROM.1>
169.76473037,169.41101364,-145.88166366,65.71195345,40.81079234,71.62611729
-67.51119866,-63.83288205,56.62272516,5.96781673,6.89269229,2.03958023,-2.12176730
0.84845216,1.92393809

>  <Name>
2o3w_lig

>  <RI>
0

>  <Rbt.Current_Directory>
/home/itssahil/PROJECTS/Mol_Feturizer/New_Systems/rnas/2o3w

>  <Rbt.Executable>
rbdock ($Id: //depot/dev/client3/rdock/2013.1/src/exe/rbdock.cxx#4 $)

>  <Rbt.Library>
libRbt.so (2013.1, Build901 2013/11/27)

>  <Rbt.Parameter_File>
/export/apps/rDock/src/rDock_2013.1_src/data/scripts/dock_solv.prm

>  <Rbt.Receptor>
prm/pocket_docking_8.prm

>  <SCORE>
-21.768

>  <SCORE.INTER>
-13.4314

>  <SCORE.INTER.CONST>
1

>  <SCORE.INTER.POLAR>
-2.68

>  <SCORE.INTER.ROT>
9

>  <SCORE.INTER.SOLV>
17.2746

>  <SCORE.INTER.VDW>
-15.3791

>  <SCORE.INTER.norm>
-0.319794

>  <SCORE.INTRA>
-8.34538

>  <SCORE.INTRA.DIHEDRAL>
-19.8276

>  <SCORE.INTRA.DIHEDRAL.0>
27.8999

>  <SCORE.INTRA.POLAR>
0

>  <SCORE.INTRA.POLAR.0>
0

>  <SCORE.INTRA.REPUL>
0

>  <SCORE.INTRA.REPUL.0>
0

>  <SCORE.INTRA.SOLV>
-3.39795

>  <SCORE.INTRA.SOLV.lig_0>
-104.479

>  <SCORE.INTRA.VDW>
3.26741

>  <SCORE.INTRA.VDW.0>
-6.17816

>  <SCORE.INTRA.norm>
-0.1987

>  <SCORE.RESTR>
0.00878464

>  <SCORE.RESTR.CAVITY>
0.00878464

>  <SCORE.RESTR.norm>
0.000209158

>  <SCORE.SYSTEM>
0

>  <SCORE.SYSTEM.CONST>
0

>  <SCORE.SYSTEM.DIHEDRAL>
0

>  <SCORE.SYSTEM.SOLV>
0

>  <SCORE.SYSTEM.norm>
0

>  <SCORE.heavy>
42

>  <SCORE.norm>
-0.518285

>  <RMSD>
9.377

$$$$
2o3w_lig
 OpenBabel11021811463D
libRbt.so/2013.1/901 2013/11/27
 42 45  0  0  0  0  0  0  0  0999 V2000
    5.5374    7.7415   -1.3534 C   0  0  2  0  0  0  0  0  0  0  0  0
    6.7147    6.9683   -1.0644 O   0  0  0  0  0  0  0  0  0  0  0  0
    4.8644    3.0628   -0.7185 C   0  0  2  0  0  0  0  0  0  0  0  0
    4.6508    1.5870   -0.6349 N   0  0  0  0  0  0  0  0  0  0  0  0
    7.0707    5.3797    2.7014 C   0  0  1  0  0  0  0  0  0  0  0  0
    8.5779    4.3972    6.2840 C   0  0  1  0  0  0  0  0  0  0  0  0
    5.9209    9.2405   -1.1688 C   0  0  2  0  0  0  0  0  0  0  0  0
    7.1572    9.5986   -1.8858 N   0  0  0  0  0  0  0  0  0  0  0  0
    5.4427    3.4799   -2.1304 C   0  0  0  0  0  0  0  0  0  0  0  0
    8.4493    5.3406    3.4286 C   0  0  2  0  0  0  0  0  0  0  0  0
    8.9377    4.0027    3.6943 O   0  0  0  0  0  0  0  0  0  0  0  0
    8.1644    3.7770    7.6672 C   0  0  2  0  0  0  0  0  0  0  0  0
    7.9672    4.8446    8.6929 N   0  0  0  0  0  0  0  0  0  0  0  0
    6.1417    9.6094    0.3098 C   0  0  1  0  0  0  0  0  0  0  0  0
    6.4514   10.9983    0.4350 O   0  0  0  0  0  0  0  0  0  0  0  0
    5.6246    5.0446   -2.1653 C   0  0  2  0  0  0  0  0  0  0  0  0
    6.1546    5.4745   -3.4874 N   0  0  0  0  0  0  0  0  0  0  0  0
    8.1586    6.1966    4.6623 C   0  0  2  0  0  0  0  0  0  0  0  0
    7.6713    5.3849    5.7778 O   0  0  0  0  0  0  0  0  0  0  0  0
    9.2847    2.7308    8.1335 C   0  0  1  0  0  0  0  0  0  0  0  0
    9.1766    1.5386    7.3237 O   0  0  0  0  0  0  0  0  0  0  0  0
    4.8845    9.2355    1.1277 C   0  0  2  0  0  0  0  0  0  0  0  0
    5.0641    9.5824    2.4811 O   0  0  0  0  0  0  0  0  0  0  0  0
    6.6067    5.5168   -1.0214 C   0  0  2  0  0  0  0  0  0  0  0  0
    7.1071    7.2298    4.2239 C   0  0  2  0  0  0  0  0  0  0  0  0
    6.3705    6.5329    3.2219 O   0  0  0  0  0  0  0  0  0  0  0  0
   10.7706    3.3204    8.0237 C   0  0  2  0  0  0  0  0  0  0  0  0
   10.9071    4.3330    9.0199 O   0  0  0  0  0  0  0  0  0  0  0  0
    4.6178    7.7003    0.9809 C   0  0  2  0  0  0  0  0  0  0  0  0
    4.4445    7.3640   -0.4322 O   0  0  0  0  0  0  0  0  0  0  0  0
    6.1335    5.0938    0.3866 C   0  0  2  0  0  0  0  0  0  0  0  0
    7.2288    5.4407    1.2779 O   0  0  0  0  0  0  0  0  0  0  0  0
    7.6894    8.5653    3.6655 C   0  0  0  0  0  0  0  0  0  0  0  0
    8.4600    8.2912    2.4993 O   0  0  0  0  0  0  0  0  0  0  0  0
   11.0236    3.9266    6.5917 C   0  0  1  0  0  0  0  0  0  0  0  0
    9.9834    4.9503    6.3911 O   0  0  0  0  0  0  0  0  0  0  0  0
    3.3969    7.2463    1.7471 C   0  0  0  0  0  0  0  0  0  0  0  0
    3.2995    5.8432    1.7169 O   0  0  0  0  0  0  0  0  0  0  0  0
    5.8500    3.5338    0.4248 C   0  0  1  0  0  0  0  0  0  0  0  0
    5.2693    3.1684    1.6798 O   0  0  0  0  0  0  0  0  0  0  0  0
   12.4675    4.5662    6.4051 C   0  0  0  0  0  0  0  0  0  0  0  0
   12.6306    5.4479    5.2166 N   0  0  0  0  0  0  0  0  0  0  0  0
  1  2  1  1  0  0  0
  1  7  1  0  0  0  0
  1 30  1  0  0  0  0
  3  4  1  6  0  0  0
  3  9  1  0  0  0  0
  3 39  1  0  0  0  0
  5 10  1  0  0  0  0
  5 26  1  0  0  0  0
  5 32  1  6  0  0  0
  6 12  1  0  0  0  0
  6 36  1  0  0  0  0
  6 19  1  1  0  0  0
  7  8  1  6  0  0  0
  7 14  1  0  0  0  0
  9 16  1  0  0  0  0
 10 11  1  1  0  0  0
 10 18  1  0  0  0  0
 12 13  1  1  0  0  0
 12 20  1  0  0  0  0
 14 15  1  6  0  0  0
 14 22  1  0  0  0  0
 16 17  1  6  0  0  0
 16 24  1  0  0  0  0
 18 19  1  1  0  0  0
 18 25  1  0  0  0  0
 20 21  1  6  0  0  0
 20 27  1  0  0  0  0
 22 23  1  1  0  0  0
 22 29  1  0  0  0  0
 24  2  1  1  0  0  0
 24 31  1  0  0  0  0
 25 26  1  0  0  0  0
 25 33  1  6  0  0  0
 27 28  1  1  0  0  0
 27 35  1  0  0  0  0
 29 30  1  0  0  0  0
 29 37  1  1  0  0  0
 31 32  1  1  0  0  0
 31 39  1  0  0  0  0
 33 34  1  0  0  0  0
 35 36  1  0  0  0  0
 35 41  1  1  0  0  0
 37 38  1  0  0  0  0
 39 40  1  1  0  0  0
 41 42  1  0  0  0  0
M  END
>  <CHROM.1>
173.59157624,161.70415082,166.71103473,62.66667539,38.52659332,61.75058755
-172.74040192,170.42719779,-164.86539366,7.19881027,5.80686045,2.64863883
-2.78712181,1.04332835,3.08923724

>  <Name>
2o3w_lig

>  <RI>
0

>  <Rbt.Current_Directory>
/home/itssahil/PROJECTS/Mol_Feturizer/New_Systems/rnas/2o3w

>  <Rbt.Executable>
rbdock ($Id: //depot/dev/client3/rdock/2013.1/src/exe/rbdock.cxx#4 $)

>  <Rbt.Library>
libRbt.so (2013.1, Build901 2013/11/27)

>  <Rbt.Parameter_File>
/export/apps/rDock/src/rDock_2013.1_src/data/scripts/dock_solv.prm

>  <Rbt.Receptor>
prm/pocket_docking_6.prm

>  <SCORE>
-16.2445

>  <SCORE.INTER>
-5.14533

>  <SCORE.INTER.CONST>
1

>  <SCORE.INTER.POLAR>
-1.38106

>  <SCORE.INTER.ROT>
9

>  <SCORE.INTER.SOLV>
15.4814

>  <SCORE.INTER.VDW>
-13.5872

>  <SCORE.INTER.norm>
-0.122508

>  <SCORE.INTRA>
-11.0991

>  <SCORE.INTRA.DIHEDRAL>
-21.7034

>  <SCORE.INTRA.DIHEDRAL.0>
27.8999

>  <SCORE.INTRA.POLAR>
0

>  <SCORE.INTRA.POLAR.0>
0

>  <SCORE.INTRA.REPUL>
0.00661616

>  <SCORE.INTRA.REPUL.0>
0

>  <SCORE.INTRA.SOLV>
-1.94978

>  <SCORE.INTRA.SOLV.lig_0>
-104.479

>  <SCORE.INTRA.VDW>
0.694377

>  <SCORE.INTRA.VDW.0>
-6.17816

>  <SCORE.INTRA.norm>
-0.264265

>  <SCORE.RESTR>
0

>  <SCORE.RESTR.CAVITY>
0

>  <SCORE.RESTR.norm>
0

>  <SCORE.SYSTEM>
0

>  <SCORE.SYSTEM.CONST>
0

>  <SCORE.SYSTEM.DIHEDRAL>
0

>  <SCORE.SYSTEM.SOLV>
0

>  <SCORE.SYSTEM.norm>
0

>  <SCORE.heavy>
42

>  <SCORE.norm>
-0.386773

>  <RMSD>
9.381

$$$$
2o3w_lig
 OpenBabel11021811463D
libRbt.so/2013.1/901 2013/11/27
 42 45  0  0  0  0  0  0  0  0999 V2000
    8.0117    5.3122    2.9793 C   0  0  2  0  0  0  0  0  0  0  0  0
    6.6635    5.1922    2.4942 O   0  0  0  0  0  0  0  0  0  0  0  0
    3.7764    1.9607    2.6286 C   0  0  2  0  0  0  0  0  0  0  0  0
    3.1224    0.6247    2.4953 N   0  0  0  0  0  0  0  0  0  0  0  0
    7.9958    1.9374    3.8442 C   0  0  1  0  0  0  0  0  0  0  0  0
   11.3181   -0.4210    2.1328 C   0  0  1  0  0  0  0  0  0  0  0  0
    8.2571    6.8229    3.2721 C   0  0  2  0  0  0  0  0  0  0  0  0
    7.1885    7.4190    4.0926 N   0  0  0  0  0  0  0  0  0  0  0  0
    4.1343    2.5684    1.2128 C   0  0  0  0  0  0  0  0  0  0  0  0
    8.5851    2.1866    2.4225 C   0  0  2  0  0  0  0  0  0  0  0  0
    7.7868    1.6320    1.3481 O   0  0  0  0  0  0  0  0  0  0  0  0
   11.3372   -1.8432    1.4651 C   0  0  2  0  0  0  0  0  0  0  0  0
   10.4026   -2.7740    2.1658 N   0  0  0  0  0  0  0  0  0  0  0  0
    8.3482    7.6606    1.9834 C   0  0  1  0  0  0  0  0  0  0  0  0
    8.6127    9.0290    2.2973 O   0  0  0  0  0  0  0  0  0  0  0  0
    4.7985    3.9824    1.4176 C   0  0  2  0  0  0  0  0  0  0  0  0
    5.1357    4.5910    0.1025 N   0  0  0  0  0  0  0  0  0  0  0  0
    9.9889    1.5991    2.5757 C   0  0  2  0  0  0  0  0  0  0  0  0
   10.0203    0.1803    2.2195 O   0  0  0  0  0  0  0  0  0  0  0  0
   12.8344   -2.4133    1.4782 C   0  0  1  0  0  0  0  0  0  0  0  0
   13.6136   -1.7027    0.4899 O   0  0  0  0  0  0  0  0  0  0  0  0
    9.4403    7.0717    1.0617 C   0  0  2  0  0  0  0  0  0  0  0  0
    9.5478    7.8376   -0.1157 O   0  0  0  0  0  0  0  0  0  0  0  0
    6.1056    3.8618    2.2967 C   0  0  2  0  0  0  0  0  0  0  0  0
   10.3803    1.8129    4.0476 C   0  0  2  0  0  0  0  0  0  0  0  0
    9.1274    1.7513    4.7251 O   0  0  0  0  0  0  0  0  0  0  0  0
   13.5380   -2.2810    2.9118 C   0  0  2  0  0  0  0  0  0  0  0  0
   12.8880   -3.1927    3.7965 O   0  0  0  0  0  0  0  0  0  0  0  0
    9.0776    5.5870    0.7244 C   0  0  2  0  0  0  0  0  0  0  0  0
    8.9624    4.8155    1.9619 O   0  0  0  0  0  0  0  0  0  0  0  0
    5.8417    3.2222    3.6774 C   0  0  2  0  0  0  0  0  0  0  0  0
    7.1574    3.0220    4.2634 O   0  0  0  0  0  0  0  0  0  0  0  0
   11.1136    3.1576    4.3450 C   0  0  0  0  0  0  0  0  0  0  0  0
   11.4758    3.2013    5.7219 O   0  0  0  0  0  0  0  0  0  0  0  0
   13.4136   -0.8085    3.4581 C   0  0  1  0  0  0  0  0  0  0  0  0
   11.9722   -0.5065    3.4958 O   0  0  0  0  0  0  0  0  0  0  0  0
   10.1003    4.9278   -0.1719 C   0  0  0  0  0  0  0  0  0  0  0  0
    9.7113    3.6073   -0.4620 O   0  0  0  0  0  0  0  0  0  0  0  0
    5.0862    1.8381    3.5060 C   0  0  1  0  0  0  0  0  0  0  0  0
    4.7084    1.3205    4.7846 O   0  0  0  0  0  0  0  0  0  0  0  0
   14.0577   -0.5948    4.8962 C   0  0  0  0  0  0  0  0  0  0  0  0
   13.4715   -1.4161    5.9910 N   0  0  0  0  0  0  0  0  0  0  0  0
  1  2  1  6  0  0  0
  1  7  1  0  0  0  0
  1 30  1  0  0  0  0
  3  4  1  6  0  0  0
  3  9  1  0  0  0  0
  3 39  1  0  0  0  0
  5 10  1  0  0  0  0
  5 26  1  0  0  0  0
  5 32  1  1  0  0  0
  6 12  1  0  0  0  0
  6 36  1  0  0  0  0
  6 19  1  1  0  0  0
  7  8  1  1  0  0  0
  7 14  1  0  0  0  0
  9 16  1  0  0  0  0
 10 11  1  6  0  0  0
 10 18  1  0  0  0  0
 12 13  1  1  0  0  0
 12 20  1  0  0  0  0
 14 15  1  1  0  0  0
 14 22  1  0  0  0  0
 16 17  1  6  0  0  0
 16 24  1  0  0  0  0
 18 19  1  1  0  0  0
 18 25  1  0  0  0  0
 20 21  1  6  0  0  0
 20 27  1  0  0  0  0
 22 23  1  6  0  0  0
 22 29  1  0  0  0  0
 24  2  1  1  0  0  0
 24 31  1  0  0  0  0
 25 26  1  0  0  0  0
 25 33  1  6  0  0  0
 27 28  1  1  0  0  0
 27 35  1  0  0  0  0
 29 30  1  0  0  0  0
 29 37  1  6  0  0  0
 31 32  1  6  0  0  0
 31 39  1  0  0  0  0
 33 34  1  0  0  0  0
 35 36  1  0  0  0  0
 35 41  1  1  0  0  0
 37 38  1  0  0  0  0
 39 40  1  1  0  0  0
 41 42  1  0  0  0  0
M  END
>  <CHROM.1>
-172.44362705,72.74446392,-167.86693606,170.94283347,-165.11907144,-177.19434353
-178.87943492,-77.18560265,-60.55022716,9.05168406,2.42913958,2.62409756
-2.25645093,-0.01857777,2.97051252

>  <Name>
2o3w_lig

>  <RI>
0

>  <Rbt.Current_Directory>
/home/itssahil/PROJECTS/Mol_Feturizer/New_Systems/rnas/2o3w

>  <Rbt.Executable>
rbdock ($Id: //depot/dev/client3/rdock/2013.1/src/exe/rbdock.cxx#4 $)

>  <Rbt.Library>
libRbt.so (2013.1, Build901 2013/11/27)

>  <Rbt.Parameter_File>
/export/apps/rDock/src/rDock_2013.1_src/data/scripts/dock_solv.prm

>  <Rbt.Receptor>
prm/pocket_docking_7.prm

>  <SCORE>
-21.3223

>  <SCORE.INTER>
-9.52931

>  <SCORE.INTER.CONST>
1

>  <SCORE.INTER.POLAR>
-0.825412

>  <SCORE.INTER.ROT>
9

>  <SCORE.INTER.SOLV>
10.1289

>  <SCORE.INTER.VDW>
-16.5778

>  <SCORE.INTER.norm>
-0.226888

>  <SCORE.INTRA>
-11.793

>  <SCORE.INTRA.DIHEDRAL>
-23.1922

>  <SCORE.INTRA.DIHEDRAL.0>
27.8999

>  <SCORE.INTRA.POLAR>
0

>  <SCORE.INTRA.POLAR.0>
0

>  <SCORE.INTRA.REPUL>
0

>  <SCORE.INTRA.REPUL.0>
0

>  <SCORE.INTRA.SOLV>
-2.71267

>  <SCORE.INTRA.SOLV.lig_0>
-104.479

>  <SCORE.INTRA.VDW>
1.1594

>  <SCORE.INTRA.VDW.0>
-6.17816

>  <SCORE.INTRA.norm>
-0.280786

>  <SCORE.RESTR>
0

>  <SCORE.RESTR.CAVITY>
0

>  <SCORE.RESTR.norm>
0

>  <SCORE.SYSTEM>
0

>  <SCORE.SYSTEM.CONST>
0

>  <SCORE.SYSTEM.DIHEDRAL>
0

>  <SCORE.SYSTEM.SOLV>
0

>  <SCORE.SYSTEM.norm>
0

>  <SCORE.heavy>
42

>  <SCORE.norm>
-0.507674

>  <RMSD>
9.385

$$$$
2o3w_lig
 OpenBabel11021811463D
libRbt.so/2013.1/901 2013/11/27
 42 45  0  0  0  0  0  0  0  0999 V2000
    7.2774    8.0345    2.1379 C   0  0  2  0  0  0  0  0  0  0  0  0
    7.8045    6.7084    1.9619 O   0  0  0  0  0  0  0  0  0  0  0  0
    6.3466    6.0472   -2.0671 C   0  0  2  0  0  0  0  0  0  0  0  0
    6.0453    5.4274   -3.3921 N   0  0  0  0  0  0  0  0  0  0  0  0
    6.5913    3.5880    1.7459 C   0  0  1  0  0  0  0  0  0  0  0  0
    7.8212   -0.5990    2.8617 C   0  0  1  0  0  0  0  0  0  0  0  0
    7.6772    8.4966    3.5714 C   0  0  2  0  0  0  0  0  0  0  0  0
    9.1103    8.2970    3.8489 N   0  0  0  0  0  0  0  0  0  0  0  0
    7.9019    6.2607   -1.8738 C   0  0  0  0  0  0  0  0  0  0  0  0
    6.0927    2.7160    2.9383 C   0  0  2  0  0  0  0  0  0  0  0  0
    6.7320    3.0240    4.2014 O   0  0  0  0  0  0  0  0  0  0  0  0
    9.2687   -1.0786    3.2406 C   0  0  2  0  0  0  0  0  0  0  0  0
   10.2762   -0.5503    2.2727 N   0  0  0  0  0  0  0  0  0  0  0  0
    6.9026    7.7404    4.6664 C   0  0  1  0  0  0  0  0  0  0  0  0
    7.2710    8.2228    5.9596 O   0  0  0  0  0  0  0  0  0  0  0  0
    8.1540    6.9357   -0.4726 C   0  0  2  0  0  0  0  0  0  0  0  0
    9.6091    7.1650   -0.2631 N   0  0  0  0  0  0  0  0  0  0  0  0
    6.3382    1.3062    2.3983 C   0  0  2  0  0  0  0  0  0  0  0  0
    7.6743    0.8218    2.7463 O   0  0  0  0  0  0  0  0  0  0  0  0
    9.2999   -2.6797    3.2873 C   0  0  1  0  0  0  0  0  0  0  0  0
    8.6088   -3.1260    4.4757 O   0  0  0  0  0  0  0  0  0  0  0  0
    5.3839    7.8893    4.4199 C   0  0  2  0  0  0  0  0  0  0  0  0
    4.6602    7.2163    5.4238 O   0  0  0  0  0  0  0  0  0  0  0  0
    7.5870    6.0307    0.6916 C   0  0  2  0  0  0  0  0  0  0  0  0
    6.1585    1.3984    0.8736 C   0  0  2  0  0  0  0  0  0  0  0  0
    6.5731    2.7307    0.5814 O   0  0  0  0  0  0  0  0  0  0  0  0
    8.6332   -3.3528    1.9950 C   0  0  2  0  0  0  0  0  0  0  0  0
    9.4895   -3.0926    0.8835 O   0  0  0  0  0  0  0  0  0  0  0  0
    5.0370    7.3125    3.0070 C   0  0  2  0  0  0  0  0  0  0  0  0
    5.8071    8.0200    1.9842 O   0  0  0  0  0  0  0  0  0  0  0  0
    6.0795    5.7321    0.5379 C   0  0  2  0  0  0  0  0  0  0  0  0
    5.7765    4.7544    1.5708 O   0  0  0  0  0  0  0  0  0  0  0  0
    4.7066    1.1381    0.3651 C   0  0  0  0  0  0  0  0  0  0  0  0
    3.8298    2.1090    0.9284 O   0  0  0  0  0  0  0  0  0  0  0  0
    7.2007   -2.7522    1.7320 C   0  0  1  0  0  0  0  0  0  0  0  0
    7.3864   -1.2976    1.5905 O   0  0  0  0  0  0  0  0  0  0  0  0
    3.5661    7.4236    2.6787 C   0  0  0  0  0  0  0  0  0  0  0  0
    3.2938    6.7904    1.4522 O   0  0  0  0  0  0  0  0  0  0  0  0
    5.7814    5.1390   -0.9026 C   0  0  1  0  0  0  0  0  0  0  0  0
    4.3710    5.0049   -1.0988 O   0  0  0  0  0  0  0  0  0  0  0  0
    6.4777   -3.3417    0.4442 C   0  0  0  0  0  0  0  0  0  0  0  0
    5.0939   -2.8486    0.2023 N   0  0  0  0  0  0  0  0  0  0  0  0
  1  2  1  1  0  0  0
  1  7  1  0  0  0  0
  1 30  1  0  0  0  0
  3  4  1  6  0  0  0
  3  9  1  0  0  0  0
  3 39  1  0  0  0  0
  5 10  1  0  0  0  0
  5 26  1  0  0  0  0
  5 32  1  6  0  0  0
  6 12  1  0  0  0  0
  6 36  1  0  0  0  0
  6 19  1  6  0  0  0
  7  8  1  1  0  0  0
  7 14  1  0  0  0  0
  9 16  1  0  0  0  0
 10 11  1  1  0  0  0
 10 18  1  0  0  0  0
 12 13  1  6  0  0  0
 12 20  1  0  0  0  0
 14 15  1  1  0  0  0
 14 22  1  0  0  0  0
 16 17  1  1  0  0  0
 16 24  1  0  0  0  0
 18 19  1  6  0  0  0
 18 25  1  0  0  0  0
 20 21  1  1  0  0  0
 20 27  1  0  0  0  0
 22 23  1  1  0  0  0
 22 29  1  0  0  0  0
 24  2  1  1  0  0  0
 24 31  1  0  0  0  0
 25 26  1  0  0  0  0
 25 33  1  1  0  0  0
 27 28  1  6  0  0  0
 27 35  1  0  0  0  0
 29 30  1  0  0  0  0
 29 37  1  6  0  0  0
 31 32  1  1  0  0  0
 31 39  1  0  0  0  0
 33 34  1  0  0  0  0
 35 36  1  0  0  0  0
 35 41  1  6  0  0  0
 37 38  1  0  0  0  0
 39 40  1  6  0  0  0
 41 42  1  0  0  0  0
M  END
>  <CHROM.1>
-179.42598088,178.32110751,-179.82657230,152.41130197,56.17567702,60.71725689
-175.02199938,-48.76537733,177.02528799,6.77501798,3.44141789,1.77388814
-2.06904318,1.23789974,-2.64267191

>  <Name>
2o3w_lig

>  <RI>
0

>  <Rbt.Current_Directory>
/home/itssahil/PROJECTS/Mol_Feturizer/New_Systems/rnas/2o3w

>  <Rbt.Executable>
rbdock ($Id: //depot/dev/client3/rdock/2013.1/src/exe/rbdock.cxx#4 $)

>  <Rbt.Library>
libRbt.so (2013.1, Build901 2013/11/27)

>  <Rbt.Parameter_File>
/export/apps/rDock/src/rDock_2013.1_src/data/scripts/dock_solv.prm

>  <Rbt.Receptor>
prm/pocket_docking_5.prm

>  <SCORE>
-15.8223

>  <SCORE.INTER>
-3.86902

>  <SCORE.INTER.CONST>
1

>  <SCORE.INTER.POLAR>
-1.2895

>  <SCORE.INTER.ROT>
9

>  <SCORE.INTER.SOLV>
14.0041

>  <SCORE.INTER.VDW>
-12.5491

>  <SCORE.INTER.norm>
-0.0921195

>  <SCORE.INTRA>
-11.9533

>  <SCORE.INTRA.DIHEDRAL>
-23.7965

>  <SCORE.INTRA.DIHEDRAL.0>
27.8999

>  <SCORE.INTRA.POLAR>
0

>  <SCORE.INTRA.POLAR.0>
0

>  <SCORE.INTRA.REPUL>
0

>  <SCORE.INTRA.REPUL.0>
0

>  <SCORE.INTRA.SOLV>
-3.54228

>  <SCORE.INTRA.SOLV.lig_0>
-104.479

>  <SCORE.INTRA.VDW>
1.71611

>  <SCORE.INTRA.VDW.0>
-6.17816

>  <SCORE.INTRA.norm>
-0.284602

>  <SCORE.RESTR>
0

>  <SCORE.RESTR.CAVITY>
0

>  <SCORE.RESTR.norm>
0

>  <SCORE.SYSTEM>
0

>  <SCORE.SYSTEM.CONST>
0

>  <SCORE.SYSTEM.DIHEDRAL>
0

>  <SCORE.SYSTEM.SOLV>
0

>  <SCORE.SYSTEM.norm>
0

>  <SCORE.heavy>
42

>  <SCORE.norm>
-0.376721

>  <RMSD>
9.391

$$$$
2o3w_lig
 OpenBabel11021811463D
libRbt.so/2013.1/901 2013/11/27
 42 45  0  0  0  0  0  0  0  0999 V2000
    5.8625    5.6061   -2.1719 C   0  0  2  0  0  0  0  0  0  0  0  0
    5.8215    5.0784   -0.8351 O   0  0  0  0  0  0  0  0  0  0  0  0
    5.0917    1.0482    0.5865 C   0  0  2  0  0  0  0  0  0  0  0  0
    5.2265   -0.4124    0.8676 N   0  0  0  0  0  0  0  0  0  0  0  0
    8.0935    4.0339    2.4797 C   0  0  1  0  0  0  0  0  0  0  0  0
   10.7634    4.2402    5.9356 C   0  0  1  0  0  0  0  0  0  0  0  0
    7.3494    5.9591   -2.4764 C   0  0  2  0  0  0  0  0  0  0  0  0
    8.2681    4.8520   -2.1588 N   0  0  0  0  0  0  0  0  0  0  0  0
    4.9294    1.3219   -0.9629 C   0  0  0  0  0  0  0  0  0  0  0  0
    9.3389    3.1048    2.6074 C   0  0  2  0  0  0  0  0  0  0  0  0
    9.0268    1.7564    3.0360 O   0  0  0  0  0  0  0  0  0  0  0  0
   12.3017    3.9376    5.8310 C   0  0  2  0  0  0  0  0  0  0  0  0
   12.5616    2.4680    5.8902 N   0  0  0  0  0  0  0  0  0  0  0  0
    7.8348    7.1828   -1.6778 C   0  0  1  0  0  0  0  0  0  0  0  0
    9.1872    7.4936   -2.0171 O   0  0  0  0  0  0  0  0  0  0  0  0
    4.7696    2.8724   -1.1931 C   0  0  2  0  0  0  0  0  0  0  0  0
    4.5998    3.1656   -2.6419 N   0  0  0  0  0  0  0  0  0  0  0  0
   10.2182    3.9158    3.5605 C   0  0  2  0  0  0  0  0  0  0  0  0
    9.9559    3.5721    4.9583 O   0  0  0  0  0  0  0  0  0  0  0  0
   13.0728    4.7062    7.0065 C   0  0  1  0  0  0  0  0  0  0  0  0
   13.1107    6.1172    6.6958 O   0  0  0  0  0  0  0  0  0  0  0  0
    6.8956    8.3804   -1.9479 C   0  0  2  0  0  0  0  0  0  0  0  0
    7.3362    9.5138   -1.2368 O   0  0  0  0  0  0  0  0  0  0  0  0
    6.0280    3.6504   -0.6388 C   0  0  2  0  0  0  0  0  0  0  0  0
    9.8970    5.3936    3.2804 C   0  0  2  0  0  0  0  0  0  0  0  0
    8.5304    5.3541    2.8762 O   0  0  0  0  0  0  0  0  0  0  0  0
   12.3923    4.4914    8.4411 C   0  0  2  0  0  0  0  0  0  0  0  0
   12.6012    3.1309    8.8178 O   0  0  0  0  0  0  0  0  0  0  0  0
    5.4396    7.9931   -1.5240 C   0  0  2  0  0  0  0  0  0  0  0  0
    5.0091    6.8095   -2.2681 O   0  0  0  0  0  0  0  0  0  0  0  0
    6.2829    3.3854    0.8612 C   0  0  2  0  0  0  0  0  0  0  0  0
    7.5600    4.0183    1.1492 O   0  0  0  0  0  0  0  0  0  0  0  0
   10.7862    6.0647    2.1881 C   0  0  0  0  0  0  0  0  0  0  0  0
   12.1487    6.0264    2.6017 O   0  0  0  0  0  0  0  0  0  0  0  0
   10.8505    4.8092    8.3782 C   0  0  1  0  0  0  0  0  0  0  0  0
   10.2926    3.9254    7.3400 O   0  0  0  0  0  0  0  0  0  0  0  0
    4.4487    9.1093   -1.7607 C   0  0  0  0  0  0  0  0  0  0  0  0
    3.1746    8.7328   -1.2978 O   0  0  0  0  0  0  0  0  0  0  0  0
    6.3531    1.8254    1.1389 C   0  0  1  0  0  0  0  0  0  0  0  0
    6.4372    1.5778    2.5451 O   0  0  0  0  0  0  0  0  0  0  0  0
   10.0871    4.5891    9.7557 C   0  0  0  0  0  0  0  0  0  0  0  0
   10.4183    5.5590   10.8356 N   0  0  0  0  0  0  0  0  0  0  0  0
  1  2  1  1  0  0  0
  1  7  1  0  0  0  0
  1 30  1  0  0  0  0
  3  4  1  6  0  0  0
  3  9  1  0  0  0  0
  3 39  1  0  0  0  0
  5 10  1  0  0  0  0
  5 26  1  0  0  0  0
  5 32  1  6  0  0  0
  6 12  1  0  0  0  0
  6 36  1  0  0  0  0
  6 19  1  6  0  0  0
  7  8  1  1  0  0  0
  7 14  1  0  0  0  0
  9 16  1  0  0  0  0
 10 11  1  1  0  0  0
 10 18  1  0  0  0  0
 12 13  1  1  0  0  0
 12 20  1  0  0  0  0
 14 15  1  6  0  0  0
 14 22  1  0  0  0  0
 16 17  1  6  0  0  0
 16 24  1  0  0  0  0
 18 19  1  1  0  0  0
 18 25  1  0  0  0  0
 20 21  1  6  0  0  0
 20 27  1  0  0  0  0
 22 23  1  1  0  0  0
 22 29  1  0  0  0  0
 24  2  1  1  0  0  0
 24 31  1  0  0  0  0
 25 26  1  0  0  0  0
 25 33  1  6  0  0  0
 27 28  1  6  0  0  0
 27 35  1  0  0  0  0
 29 30  1  0  0  0  0
 29 37  1  6  0  0  0
 31 32  1  6  0  0  0
 31 39  1  0  0  0  0
 33 34  1  0  0  0  0
 35 36  1  0  0  0  0
 35 41  1  1  0  0  0
 37 38  1  0  0  0  0
 39 40  1  1  0  0  0
 41 42  1  0  0  0  0
M  END
>  <CHROM.1>
-88.13032210,109.74973213,-62.43939593,177.76221067,-70.41886893,-60.77894172
-176.89626579,176.84477120,69.32329040,8.35244542,4.70464171,2.22139450,-2.58185453
0.87973535,2.62212068

>  <Name>
2o3w_lig

>  <RI>
0

>  <Rbt.Current_Directory>
/home/itssahil/PROJECTS/Mol_Feturizer/New_Systems/rnas/2o3w

>  <Rbt.Executable>
rbdock ($Id: //depot/dev/client3/rdock/2013.1/src/exe/rbdock.cxx#4 $)

>  <Rbt.Library>
libRbt.so (2013.1, Build901 2013/11/27)

>  <Rbt.Parameter_File>
/export/apps/rDock/src/rDock_2013.1_src/data/scripts/dock_solv.prm

>  <Rbt.Receptor>
prm/pocket_docking_7.prm

>  <SCORE>
-19.1539

>  <SCORE.INTER>
-12.2656

>  <SCORE.INTER.CONST>
1

>  <SCORE.INTER.POLAR>
-1.97948

>  <SCORE.INTER.ROT>
9

>  <SCORE.INTER.SOLV>
12.8854

>  <SCORE.INTER.VDW>
-15.4739

>  <SCORE.INTER.norm>
-0.292038

>  <SCORE.INTRA>
-6.88832

>  <SCORE.INTRA.DIHEDRAL>
-16.8432

>  <SCORE.INTRA.DIHEDRAL.0>
27.8999

>  <SCORE.INTRA.POLAR>
0

>  <SCORE.INTRA.POLAR.0>
0

>  <SCORE.INTRA.REPUL>
0

>  <SCORE.INTRA.REPUL.0>
0

>  <SCORE.INTRA.SOLV>
-1.95099

>  <SCORE.INTRA.SOLV.lig_0>
-104.479

>  <SCORE.INTRA.VDW>
2.50877

>  <SCORE.INTRA.VDW.0>
-6.17816

>  <SCORE.INTRA.norm>
-0.164008

>  <SCORE.RESTR>
0

>  <SCORE.RESTR.CAVITY>
0

>  <SCORE.RESTR.norm>
0

>  <SCORE.SYSTEM>
0

>  <SCORE.SYSTEM.CONST>
0

>  <SCORE.SYSTEM.DIHEDRAL>
0

>  <SCORE.SYSTEM.SOLV>
0

>  <SCORE.SYSTEM.norm>
0

>  <SCORE.heavy>
42

>  <SCORE.norm>
-0.456046

>  <RMSD>
9.406

$$$$
2o3w_lig
 OpenBabel11021811463D
libRbt.so/2013.1/901 2013/11/27
 42 45  0  0  0  0  0  0  0  0999 V2000
   11.3404    5.7946    5.8275 C   0  0  2  0  0  0  0  0  0  0  0  0
   10.2686    5.2315    5.0519 O   0  0  0  0  0  0  0  0  0  0  0  0
    8.7185    5.9915    1.0750 C   0  0  2  0  0  0  0  0  0  0  0  0
    8.6102    6.1814   -0.4024 N   0  0  0  0  0  0  0  0  0  0  0  0
    9.6669    1.9920    3.9463 C   0  0  1  0  0  0  0  0  0  0  0  0
    8.0269   -1.8958    5.1435 C   0  0  1  0  0  0  0  0  0  0  0  0
   12.6237    4.9769    5.4913 C   0  0  2  0  0  0  0  0  0  0  0  0
   12.8400    4.8385    4.0405 N   0  0  0  0  0  0  0  0  0  0  0  0
    9.6367    7.1001    1.7305 C   0  0  0  0  0  0  0  0  0  0  0  0
    8.4719    1.3288    3.1960 C   0  0  2  0  0  0  0  0  0  0  0  0
    7.1780    1.8787    3.5461 O   0  0  0  0  0  0  0  0  0  0  0  0
    7.3718   -2.8773    4.1061 C   0  0  2  0  0  0  0  0  0  0  0  0
    5.9563   -2.4909    3.8264 N   0  0  0  0  0  0  0  0  0  0  0  0
   12.5772    3.5516    6.0720 C   0  0  1  0  0  0  0  0  0  0  0  0
   13.7875    2.8535    5.7741 O   0  0  0  0  0  0  0  0  0  0  0  0
    9.6937    6.8608    3.2867 C   0  0  2  0  0  0  0  0  0  0  0  0
   10.5393    7.8968    3.9389 N   0  0  0  0  0  0  0  0  0  0  0  0
    8.6821   -0.1450    3.5469 C   0  0  2  0  0  0  0  0  0  0  0  0
    7.9731   -0.5125    4.7729 O   0  0  0  0  0  0  0  0  0  0  0  0
    7.4593   -4.3753    4.6673 C   0  0  1  0  0  0  0  0  0  0  0  0
    8.8258   -4.8344    4.5627 O   0  0  0  0  0  0  0  0  0  0  0  0
   12.3275    3.6235    7.5957 C   0  0  2  0  0  0  0  0  0  0  0  0
   12.2989    2.3269    8.1454 O   0  0  0  0  0  0  0  0  0  0  0  0
   10.2708    5.4258    3.6088 C   0  0  2  0  0  0  0  0  0  0  0  0
   10.2006   -0.3316    3.7040 C   0  0  2  0  0  0  0  0  0  0  0  0
   10.6331    0.9414    4.1783 O   0  0  0  0  0  0  0  0  0  0  0  0
    6.9670   -4.4999    6.1871 C   0  0  2  0  0  0  0  0  0  0  0  0
    5.5568   -4.2816    6.2025 O   0  0  0  0  0  0  0  0  0  0  0  0
   10.9740    4.3649    7.8568 C   0  0  2  0  0  0  0  0  0  0  0  0
   11.0250    5.7034    7.2690 O   0  0  0  0  0  0  0  0  0  0  0  0
    9.4546    4.2909    2.9521 C   0  0  2  0  0  0  0  0  0  0  0  0
   10.2214    3.0794    3.1945 O   0  0  0  0  0  0  0  0  0  0  0  0
   10.9536   -0.7289    2.3966 C   0  0  0  0  0  0  0  0  0  0  0  0
   10.5082   -2.0124    1.9687 O   0  0  0  0  0  0  0  0  0  0  0  0
    7.6932   -3.4372    7.0955 C   0  0  1  0  0  0  0  0  0  0  0  0
    7.3978   -2.1215    6.5023 O   0  0  0  0  0  0  0  0  0  0  0  0
   10.6522    4.4867    9.3283 C   0  0  0  0  0  0  0  0  0  0  0  0
   11.6267    5.2688    9.9747 O   0  0  0  0  0  0  0  0  0  0  0  0
    9.2991    4.5561    1.3961 C   0  0  1  0  0  0  0  0  0  0  0  0
    8.4188    3.5893    0.8163 O   0  0  0  0  0  0  0  0  0  0  0  0
    7.2379   -3.4680    8.6188 C   0  0  0  0  0  0  0  0  0  0  0  0
    7.4760   -4.7517    9.3344 N   0  0  0  0  0  0  0  0  0  0  0  0
  1  2  1  6  0  0  0
  1  7  1  0  0  0  0
  1 30  1  0  0  0  0
  3  4  1  6  0  0  0
  3  9  1  0  0  0  0
  3 39  1  0  0  0  0
  5 10  1  0  0  0  0
  5 26  1  0  0  0  0
  5 32  1  6  0  0  0
  6 12  1  0  0  0  0
  6 36  1  0  0  0  0
  6 19  1  6  0  0  0
  7  8  1  6  0  0  0
  7 14  1  0  0  0  0
  9 16  1  0  0  0  0
 10 11  1  1  0  0  0
 10 18  1  0  0  0  0
 12 13  1  1  0  0  0
 12 20  1  0  0  0  0
 14 15  1  1  0  0  0
 14 22  1  0  0  0  0
 16 17  1  1  0  0  0
 16 24  1  0  0  0  0
 18 19  1  1  0  0  0
 18 25  1  0  0  0  0
 20 21  1  1  0  0  0
 20 27  1  0  0  0  0
 22 23  1  6  0  0  0
 22 29  1  0  0  0  0
 24  2  1  1  0  0  0
 24 31  1  0  0  0  0
 25 26  1  0  0  0  0
 25 33  1  6  0  0  0
 27 28  1  6  0  0  0
 27 35  1  0  0  0  0
 29 30  1  0  0  0  0
 29 37  1  1  0  0  0
 31 32  1  6  0  0  0
 31 39  1  0  0  0  0
 33 34  1  0  0  0  0
 35 36  1  0  0  0  0
 35 41  1  1  0  0  0
 37 38  1  0  0  0  0
 39 40  1  1  0  0  0
 41 42  1  0  0  0  0
M  END
>  <CHROM.1>
-70.08649759,66.41241259,-62.40075475,175.83645779,-81.07090911,-64.42275926
63.12776413,119.20088314,60.44985890,9.56412805,1.67221107,4.82158665,-0.80593898
1.06954069,2.28637487

>  <Name>
2o3w_lig

>  <RI>
0

>  <Rbt.Current_Directory>
/home/itssahil/PROJECTS/Mol_Feturizer/New_Systems/rnas/2o3w

>  <Rbt.Executable>
rbdock ($Id: //depot/dev/client3/rdock/2013.1/src/exe/rbdock.cxx#4 $)

>  <Rbt.Library>
libRbt.so (2013.1, Build901 2013/11/27)

>  <Rbt.Parameter_File>
/export/apps/rDock/src/rDock_2013.1_src/data/scripts/dock_solv.prm

>  <Rbt.Receptor>
prm/pocket_docking_8.prm

>  <SCORE>
-13.1845

>  <SCORE.INTER>
-6.07779

>  <SCORE.INTER.CONST>
1

>  <SCORE.INTER.POLAR>
-0.894427

>  <SCORE.INTER.ROT>
9

>  <SCORE.INTER.SOLV>
12.6091

>  <SCORE.INTER.VDW>
-14.8735

>  <SCORE.INTER.norm>
-0.144709

>  <SCORE.INTRA>
-7.1067

>  <SCORE.INTRA.DIHEDRAL>
-17.6826

>  <SCORE.INTRA.DIHEDRAL.0>
27.8999

>  <SCORE.INTRA.POLAR>
0

>  <SCORE.INTRA.POLAR.0>
0

>  <SCORE.INTRA.REPUL>
0

>  <SCORE.INTRA.REPUL.0>
0

>  <SCORE.INTRA.SOLV>
-0.618711

>  <SCORE.INTRA.SOLV.lig_0>
-104.479

>  <SCORE.INTRA.VDW>
2.04394

>  <SCORE.INTRA.VDW.0>
-6.17816

>  <SCORE.INTRA.norm>
-0.169207

>  <SCORE.RESTR>
0

>  <SCORE.RESTR.CAVITY>
0

>  <SCORE.RESTR.norm>
0

>  <SCORE.SYSTEM>
0

>  <SCORE.SYSTEM.CONST>
0

>  <SCORE.SYSTEM.DIHEDRAL>
0

>  <SCORE.SYSTEM.SOLV>
0

>  <SCORE.SYSTEM.norm>
0

>  <SCORE.heavy>
42

>  <SCORE.norm>
-0.313916

>  <RMSD>
9.417

$$$$
2o3w_lig
 OpenBabel11021811463D
libRbt.so/2013.1/901 2013/11/27
 42 45  0  0  0  0  0  0  0  0999 V2000
    8.1764    6.3640    2.5107 C   0  0  2  0  0  0  0  0  0  0  0  0
    8.7490    7.1788    3.5478 O   0  0  0  0  0  0  0  0  0  0  0  0
    9.2455    6.6218    7.8185 C   0  0  2  0  0  0  0  0  0  0  0  0
    8.9831    6.3340    9.2603 N   0  0  0  0  0  0  0  0  0  0  0  0
    8.6580    3.1731    4.9612 C   0  0  1  0  0  0  0  0  0  0  0  0
    7.7882   -1.1145    5.8672 C   0  0  1  0  0  0  0  0  0  0  0  0
    8.9479    6.6910    1.1969 C   0  0  2  0  0  0  0  0  0  0  0  0
   10.4096    6.6327    1.3722 N   0  0  0  0  0  0  0  0  0  0  0  0
    8.4412    7.8938    7.3316 C   0  0  0  0  0  0  0  0  0  0  0  0
    7.4320    2.6383    5.7624 C   0  0  2  0  0  0  0  0  0  0  0  0
    7.5707    2.7556    7.1997 O   0  0  0  0  0  0  0  0  0  0  0  0
    8.5575   -2.0773    6.8419 C   0  0  2  0  0  0  0  0  0  0  0  0
   10.0346   -1.8955    6.7156 N   0  0  0  0  0  0  0  0  0  0  0  0
    8.6200    8.0968    0.6611 C   0  0  1  0  0  0  0  0  0  0  0  0
    9.3172    8.3379   -0.5623 O   0  0  0  0  0  0  0  0  0  0  0  0
    8.7753    8.1589    5.8148 C   0  0  2  0  0  0  0  0  0  0  0  0
    8.0453    9.3598    5.3264 N   0  0  0  0  0  0  0  0  0  0  0  0
    7.3234    1.2117    5.2217 C   0  0  2  0  0  0  0  0  0  0  0  0
    8.1138    0.2728    6.0183 O   0  0  0  0  0  0  0  0  0  0  0  0
    8.1354   -3.5914    6.5316 C   0  0  1  0  0  0  0  0  0  0  0  0
    6.7953   -3.8133    7.0254 O   0  0  0  0  0  0  0  0  0  0  0  0
    7.0916    8.2346    0.4764 C   0  0  2  0  0  0  0  0  0  0  0  0
    6.7761    9.5109   -0.0297 O   0  0  0  0  0  0  0  0  0  0  0  0
    8.3876    6.9075    4.9320 C   0  0  2  0  0  0  0  0  0  0  0  0
    7.8243    1.2690    3.7688 C   0  0  2  0  0  0  0  0  0  0  0  0
    8.7901    2.3171    3.8033 O   0  0  0  0  0  0  0  0  0  0  0  0
    8.1971   -3.9470    4.9705 C   0  0  2  0  0  0  0  0  0  0  0  0
    9.5711   -3.9593    4.5853 O   0  0  0  0  0  0  0  0  0  0  0  0
    6.3873    7.9961    1.8536 C   0  0  2  0  0  0  0  0  0  0  0  0
    6.7376    6.6701    2.3621 O   0  0  0  0  0  0  0  0  0  0  0  0
    9.0946    5.6118    5.3866 C   0  0  2  0  0  0  0  0  0  0  0  0
    8.4893    4.5498    4.5989 O   0  0  0  0  0  0  0  0  0  0  0  0
    6.7215    1.5570    2.7033 C   0  0  0  0  0  0  0  0  0  0  0  0
    7.3273    1.6767    1.4197 O   0  0  0  0  0  0  0  0  0  0  0  0
    7.4036   -2.8799    4.1256 C   0  0  1  0  0  0  0  0  0  0  0  0
    8.0095   -1.5748    4.4416 O   0  0  0  0  0  0  0  0  0  0  0  0
    4.8828    8.1061    1.7640 C   0  0  0  0  0  0  0  0  0  0  0  0
    4.5094    9.4329    1.4822 O   0  0  0  0  0  0  0  0  0  0  0  0
    8.8541    5.3697    6.9356 C   0  0  1  0  0  0  0  0  0  0  0  0
    9.6306    4.2569    7.3875 O   0  0  0  0  0  0  0  0  0  0  0  0
    7.4411   -3.1378    2.5569 C   0  0  0  0  0  0  0  0  0  0  0  0
    6.8551   -4.4294    2.1042 N   0  0  0  0  0  0  0  0  0  0  0  0
  1  2  1  1  0  0  0
  1  7  1  0  0  0  0
  1 30  1  0  0  0  0
  3  4  1  1  0  0  0
  3  9  1  0  0  0  0
  3 39  1  0  0  0  0
  5 10  1  0  0  0  0
  5 26  1  0  0  0  0
  5 32  1  6  0  0  0
  6 12  1  0  0  0  0
  6 36  1  0  0  0  0
  6 19  1  6  0  0  0
  7  8  1  1  0  0  0
  7 14  1  0  0  0  0
  9 16  1  0  0  0  0
 10 11  1  1  0  0  0
 10 18  1  0  0  0  0
 12 13  1  6  0  0  0
 12 20  1  0  0  0  0
 14 15  1  6  0  0  0
 14 22  1  0  0  0  0
 16 17  1  6  0  0  0
 16 24  1  0  0  0  0
 18 19  1  1  0  0  0
 18 25  1  0  0  0  0
 20 21  1  6  0  0  0
 20 27  1  0  0  0  0
 22 23  1  1  0  0  0
 22 29  1  0  0  0  0
 24  2  1  6  0  0  0
 24 31  1  0  0  0  0
 25 26  1  0  0  0  0
 25 33  1  6  0  0  0
 27 28  1  6  0  0  0
 27 35  1  0  0  0  0
 29 30  1  0  0  0  0
 29 37  1  6  0  0  0
 31 32  1  6  0  0  0
 31 39  1  0  0  0  0
 33 34  1  0  0  0  0
 35 36  1  0  0  0  0
 35 41  1  6  0  0  0
 37 38  1  0  0  0  0
 39 40  1  1  0  0  0
 41 42  1  0  0  0  0
M  END
>  <CHROM.1>
-168.97576264,97.96132241,-174.17326880,162.10895624,-163.22853053,175.96586364
-67.38842720,-164.97107603,60.80245129,8.01548297,3.39906765,4.21056919,1.70466577
-1.33391819,-0.10256415

>  <Name>
2o3w_lig

>  <RI>
0

>  <Rbt.Current_Directory>
/home/itssahil/PROJECTS/Mol_Feturizer/New_Systems/rnas/2o3w

>  <Rbt.Executable>
rbdock ($Id: //depot/dev/client3/rdock/2013.1/src/exe/rbdock.cxx#4 $)

>  <Rbt.Library>
libRbt.so (2013.1, Build901 2013/11/27)

>  <Rbt.Parameter_File>
/export/apps/rDock/src/rDock_2013.1_src/data/scripts/dock_solv.prm

>  <Rbt.Receptor>
prm/pocket_docking_8.prm

>  <SCORE>
-16.615

>  <SCORE.INTER>
-8.10216

>  <SCORE.INTER.CONST>
1

>  <SCORE.INTER.POLAR>
-2.43633

>  <SCORE.INTER.ROT>
9

>  <SCORE.INTER.SOLV>
19.3086

>  <SCORE.INTER.VDW>
-13.3165

>  <SCORE.INTER.norm>
-0.192908

>  <SCORE.INTRA>
-8.5128

>  <SCORE.INTRA.DIHEDRAL>
-17.8852

>  <SCORE.INTRA.DIHEDRAL.0>
27.8999

>  <SCORE.INTRA.POLAR>
0

>  <SCORE.INTRA.POLAR.0>
0

>  <SCORE.INTRA.REPUL>
0

>  <SCORE.INTRA.REPUL.0>
0

>  <SCORE.INTRA.SOLV>
-4.88732

>  <SCORE.INTRA.SOLV.lig_0>
-104.479

>  <SCORE.INTRA.VDW>
2.87347

>  <SCORE.INTRA.VDW.0>
-6.17816

>  <SCORE.INTRA.norm>
-0.202686

>  <SCORE.RESTR>
0

>  <SCORE.RESTR.CAVITY>
0

>  <SCORE.RESTR.norm>
0

>  <SCORE.SYSTEM>
0

>  <SCORE.SYSTEM.CONST>
0

>  <SCORE.SYSTEM.DIHEDRAL>
0

>  <SCORE.SYSTEM.SOLV>
0

>  <SCORE.SYSTEM.norm>
0

>  <SCORE.heavy>
42

>  <SCORE.norm>
-0.395594

>  <RMSD>
9.420

$$$$
2o3w_lig
 OpenBabel11021811463D
libRbt.so/2013.1/901 2013/11/27
 42 45  0  0  0  0  0  0  0  0999 V2000
    4.7732    7.6973    2.7193 C   0  0  2  0  0  0  0  0  0  0  0  0
    5.6566    6.6287    2.3386 O   0  0  0  0  0  0  0  0  0  0  0  0
    9.9438    6.1131    2.7255 C   0  0  2  0  0  0  0  0  0  0  0  0
   11.3194    5.9744    3.2902 N   0  0  0  0  0  0  0  0  0  0  0  0
    6.9136    2.8547    3.7410 C   0  0  1  0  0  0  0  0  0  0  0  0
    6.6910   -1.3862    5.0180 C   0  0  1  0  0  0  0  0  0  0  0  0
    3.3184    7.1892    2.4884 C   0  0  2  0  0  0  0  0  0  0  0  0
    3.0800    5.8676    3.0942 N   0  0  0  0  0  0  0  0  0  0  0  0
    9.3470    7.5492    3.0140 C   0  0  0  0  0  0  0  0  0  0  0  0
    6.5921    2.3930    5.1950 C   0  0  2  0  0  0  0  0  0  0  0  0
    7.7177    2.4788    6.1031 O   0  0  0  0  0  0  0  0  0  0  0  0
    7.8619   -2.4294    5.1170 C   0  0  2  0  0  0  0  0  0  0  0  0
    8.8409   -2.2394    4.0051 N   0  0  0  0  0  0  0  0  0  0  0  0
    2.9744    7.0616    0.9930 C   0  0  1  0  0  0  0  0  0  0  0  0
    1.6219    6.6321    0.8286 O   0  0  0  0  0  0  0  0  0  0  0  0
    7.9090    7.6416    2.3768 C   0  0  2  0  0  0  0  0  0  0  0  0
    7.3221    8.9875    2.6171 N   0  0  0  0  0  0  0  0  0  0  0  0
    6.0478    0.9854    4.9462 C   0  0  2  0  0  0  0  0  0  0  0  0
    7.1128   -0.0172    4.9811 O   0  0  0  0  0  0  0  0  0  0  0  0
    7.2526   -3.9111    5.1005 C   0  0  1  0  0  0  0  0  0  0  0  0
    6.6250   -4.1724    6.3759 O   0  0  0  0  0  0  0  0  0  0  0  0
    3.2266    8.4142    0.2887 C   0  0  2  0  0  0  0  0  0  0  0  0
    2.9005    8.3188   -1.0784 O   0  0  0  0  0  0  0  0  0  0  0  0
    6.9594    6.5335    2.9820 C   0  0  2  0  0  0  0  0  0  0  0  0
    5.3697    1.0303    3.5665 C   0  0  2  0  0  0  0  0  0  0  0  0
    6.1330    2.0092    2.8653 O   0  0  0  0  0  0  0  0  0  0  0  0
    6.1879   -4.1328    3.9237 C   0  0  2  0  0  0  0  0  0  0  0  0
    6.9013   -4.1141    2.6879 O   0  0  0  0  0  0  0  0  0  0  0  0
    4.7288    8.8132    0.4723 C   0  0  2  0  0  0  0  0  0  0  0  0
    5.0450    8.8963    1.8981 O   0  0  0  0  0  0  0  0  0  0  0  0
    7.5081    5.1030    2.7869 C   0  0  2  0  0  0  0  0  0  0  0  0
    6.6189    4.2451    3.5536 O   0  0  0  0  0  0  0  0  0  0  0  0
    3.8563    1.4090    3.5889 C   0  0  0  0  0  0  0  0  0  0  0  0
    3.1548    0.4942    4.4255 O   0  0  0  0  0  0  0  0  0  0  0  0
    5.0964   -2.9968    3.9404 C   0  0  1  0  0  0  0  0  0  0  0  0
    5.8286   -1.7241    3.8201 O   0  0  0  0  0  0  0  0  0  0  0  0
    5.0642   10.1331   -0.1828 C   0  0  0  0  0  0  0  0  0  0  0  0
    6.4449   10.3854   -0.0861 O   0  0  0  0  0  0  0  0  0  0  0  0
    8.9935    5.0055    3.3343 C   0  0  1  0  0  0  0  0  0  0  0  0
    9.5531    3.7279    3.0176 O   0  0  0  0  0  0  0  0  0  0  0  0
    4.0150   -3.1205    2.7812 C   0  0  0  0  0  0  0  0  0  0  0  0
    4.5436   -3.0011    1.3945 N   0  0  0  0  0  0  0  0  0  0  0  0
  1  2  1  6  0  0  0
  1  7  1  0  0  0  0
  1 30  1  0  0  0  0
  3  4  1  1  0  0  0
  3  9  1  0  0  0  0
  3 39  1  0  0  0  0
  5 10  1  0  0  0  0
  5 26  1  0  0  0  0
  5 32  1  1  0  0  0
  6 12  1  0  0  0  0
  6 36  1  0  0  0  0
  6 19  1  6  0  0  0
  7  8  1  1  0  0  0
  7 14  1  0  0  0  0
  9 16  1  0  0  0  0
 10 11  1  1  0  0  0
 10 18  1  0  0  0  0
 12 13  1  6  0  0  0
 12 20  1  0  0  0  0
 14 15  1  1  0  0  0
 14 22  1  0  0  0  0
 16 17  1  1  0  0  0
 16 24  1  0  0  0  0
 18 19  1  6  0  0  0
 18 25  1  0  0  0  0
 20 21  1  1  0  0  0
 20 27  1  0  0  0  0
 22 23  1  6  0  0  0
 22 29  1  0  0  0  0
 24  2  1  6  0  0  0
 24 31  1  0  0  0  0
 25 26  1  0  0  0  0
 25 33  1  1  0  0  0
 27 28  1  6  0  0  0
 27 35  1  0  0  0  0
 29 30  1  0  0  0  0
 29 37  1  1  0  0  0
 31 32  1  1  0  0  0
 31 39  1  0  0  0  0
 33 34  1  0  0  0  0
 35 36  1  0  0  0  0
 35 41  1  6  0  0  0
 37 38  1  0  0  0  0
 39 40  1  6  0  0  0
 41 42  1  0  0  0  0
M  END
>  <CHROM.1>
-151.81621644,139.20261174,-177.50090652,168.39527231,-75.62911669,-56.86131679
-174.96885448,-172.32450615,-63.03054360,6.10220579,3.26342392,3.01579110
1.65578563,-0.33101873,-0.23897136

>  <Name>
2o3w_lig

>  <RI>
0

>  <Rbt.Current_Directory>
/home/itssahil/PROJECTS/Mol_Feturizer/New_Systems/rnas/2o3w

>  <Rbt.Executable>
rbdock ($Id: //depot/dev/client3/rdock/2013.1/src/exe/rbdock.cxx#4 $)

>  <Rbt.Library>
libRbt.so (2013.1, Build901 2013/11/27)

>  <Rbt.Parameter_File>
/export/apps/rDock/src/rDock_2013.1_src/data/scripts/dock_solv.prm

>  <Rbt.Receptor>
prm/pocket_docking_3.prm

>  <SCORE>
-10.6281

>  <SCORE.INTER>
-5.2582

>  <SCORE.INTER.CONST>
1

>  <SCORE.INTER.POLAR>
-0.951509

>  <SCORE.INTER.ROT>
9

>  <SCORE.INTER.SOLV>
10.3315

>  <SCORE.INTER.VDW>
-13.3776

>  <SCORE.INTER.norm>
-0.125195

>  <SCORE.INTRA>
-5.41442

>  <SCORE.INTRA.DIHEDRAL>
-16.722

>  <SCORE.INTRA.DIHEDRAL.0>
27.8999

>  <SCORE.INTRA.POLAR>
0

>  <SCORE.INTRA.POLAR.0>
0

>  <SCORE.INTRA.REPUL>
0

>  <SCORE.INTRA.REPUL.0>
0

>  <SCORE.INTRA.SOLV>
-0.114732

>  <SCORE.INTRA.SOLV.lig_0>
-104.479

>  <SCORE.INTRA.VDW>
3.00393

>  <SCORE.INTRA.VDW.0>
-6.17816

>  <SCORE.INTRA.norm>
-0.128915

>  <SCORE.RESTR>
0.0445305

>  <SCORE.RESTR.CAVITY>
0.0445305

>  <SCORE.RESTR.norm>
0.00106025

>  <SCORE.SYSTEM>
0

>  <SCORE.SYSTEM.CONST>
0

>  <SCORE.SYSTEM.DIHEDRAL>
0

>  <SCORE.SYSTEM.SOLV>
0

>  <SCORE.SYSTEM.norm>
0

>  <SCORE.heavy>
42

>  <SCORE.norm>
-0.25305

>  <RMSD>
9.430

$$$$
2o3w_lig
 OpenBabel11021811463D
libRbt.so/2013.1/901 2013/11/27
 42 45  0  0  0  0  0  0  0  0999 V2000
    8.0506    5.1118   -0.0020 C   0  0  2  0  0  0  0  0  0  0  0  0
    7.6128    6.2981    0.6823 O   0  0  0  0  0  0  0  0  0  0  0  0
    6.6326    6.5737    4.8965 C   0  0  2  0  0  0  0  0  0  0  0  0
    5.9321    6.4518    6.2098 N   0  0  0  0  0  0  0  0  0  0  0  0
    7.4864    2.6873    2.9704 C   0  0  1  0  0  0  0  0  0  0  0  0
    7.9281   -1.4386    4.3509 C   0  0  1  0  0  0  0  0  0  0  0  0
    8.7816    5.5772   -1.2971 C   0  0  2  0  0  0  0  0  0  0  0  0
    9.7923    6.6159   -1.0317 N   0  0  0  0  0  0  0  0  0  0  0  0
    5.8126    7.4776    3.8903 C   0  0  0  0  0  0  0  0  0  0  0  0
    7.0409    1.4782    2.0926 C   0  0  2  0  0  0  0  0  0  0  0  0
    5.6121    1.2381    2.1018 O   0  0  0  0  0  0  0  0  0  0  0  0
    8.0565   -2.6957    3.4170 C   0  0  2  0  0  0  0  0  0  0  0  0
    6.7137   -3.1493    2.9456 N   0  0  0  0  0  0  0  0  0  0  0  0
    7.8094    6.1588   -2.3399 C   0  0  1  0  0  0  0  0  0  0  0  0
    8.5160    6.5348   -3.5233 O   0  0  0  0  0  0  0  0  0  0  0  0
    6.6103    7.5865    2.5359 C   0  0  2  0  0  0  0  0  0  0  0  0
    5.8730    8.4437    1.5687 N   0  0  0  0  0  0  0  0  0  0  0  0
    7.9047    0.3566    2.6715 C   0  0  2  0  0  0  0  0  0  0  0  0
    7.2265   -0.3324    3.7698 O   0  0  0  0  0  0  0  0  0  0  0  0
    8.8147   -3.8656    4.2064 C   0  0  1  0  0  0  0  0  0  0  0  0
   10.2168   -3.5293    4.3063 O   0  0  0  0  0  0  0  0  0  0  0  0
    6.7036    5.1236   -2.6477 C   0  0  2  0  0  0  0  0  0  0  0  0
    5.8145    5.6345   -3.6136 O   0  0  0  0  0  0  0  0  0  0  0  0
    6.8397    6.1551    1.9080 C   0  0  2  0  0  0  0  0  0  0  0  0
    9.2038    1.0258    3.1511 C   0  0  2  0  0  0  0  0  0  0  0  0
    8.7723    2.3313    3.5280 O   0  0  0  0  0  0  0  0  0  0  0  0
    8.2177   -4.1152    5.6723 C   0  0  2  0  0  0  0  0  0  0  0  0
    6.9183   -4.6843    5.5173 O   0  0  0  0  0  0  0  0  0  0  0  0
    5.9436    4.7795   -1.3235 C   0  0  2  0  0  0  0  0  0  0  0  0
    6.8885    4.2606   -0.3346 O   0  0  0  0  0  0  0  0  0  0  0  0
    7.5880    5.1965    2.8600 C   0  0  2  0  0  0  0  0  0  0  0  0
    7.5457    3.8985    2.2058 O   0  0  0  0  0  0  0  0  0  0  0  0
   10.3403    1.0964    2.0846 C   0  0  0  0  0  0  0  0  0  0  0  0
   10.7985   -0.2213    1.7974 O   0  0  0  0  0  0  0  0  0  0  0  0
    8.1281   -2.7618    6.4738 C   0  0  1  0  0  0  0  0  0  0  0  0
    7.2950   -1.8590    5.6607 O   0  0  0  0  0  0  0  0  0  0  0  0
    4.8436    3.7644   -1.5314 C   0  0  0  0  0  0  0  0  0  0  0  0
    3.8285    4.3081   -2.3397 O   0  0  0  0  0  0  0  0  0  0  0  0
    6.8589    5.1407    4.2675 C   0  0  1  0  0  0  0  0  0  0  0  0
    7.6331    4.3744    5.1942 O   0  0  0  0  0  0  0  0  0  0  0  0
    7.5130   -2.9124    7.9325 C   0  0  0  0  0  0  0  0  0  0  0  0
    8.2754   -3.7889    8.8636 N   0  0  0  0  0  0  0  0  0  0  0  0
  1  2  1  6  0  0  0
  1  7  1  0  0  0  0
  1 30  1  0  0  0  0
  3  4  1  1  0  0  0
  3  9  1  0  0  0  0
  3 39  1  0  0  0  0
  5 10  1  0  0  0  0
  5 26  1  0  0  0  0
  5 32  1  6  0  0  0
  6 12  1  0  0  0  0
  6 36  1  0  0  0  0
  6 19  1  6  0  0  0
  7  8  1  1  0  0  0
  7 14  1  0  0  0  0
  9 16  1  0  0  0  0
 10 11  1  1  0  0  0
 10 18  1  0  0  0  0
 12 13  1  1  0  0  0
 12 20  1  0  0  0  0
 14 15  1  6  0  0  0
 14 22  1  0  0  0  0
 16 17  1  6  0  0  0
 16 24  1  0  0  0  0
 18 19  1  1  0  0  0
 18 25  1  0  0  0  0
 20 21  1  1  0  0  0
 20 27  1  0  0  0  0
 22 23  1  6  0  0  0
 22 29  1  0  0  0  0
 24  2  1  6  0  0  0
 24 31  1  0  0  0  0
 25 26  1  0  0  0  0
 25 33  1  6  0  0  0
 27 28  1  6  0  0  0
 27 35  1  0  0  0  0
 29 30  1  0  0  0  0
 29 37  1  6  0  0  0
 31 32  1  6  0  0  0
 31 39  1  0  0  0  0
 33 34  1  0  0  0  0
 35 36  1  0  0  0  0
 35 41  1  1  0  0  0
 37 38  1  0  0  0  0
 39 40  1  1  0  0  0
 41 42  1  0  0  0  0
M  END
>  <CHROM.1>
177.25927303,163.59428570,-69.11171464,177.61300646,174.35437055,-67.09957586
-65.93675823,-147.55181639,61.56204910,7.48073019,2.36694464,2.34945542,-2.31934333
-1.39787328,1.81964320

>  <Name>
2o3w_lig

>  <RI>
0

>  <Rbt.Current_Directory>
/home/itssahil/PROJECTS/Mol_Feturizer/New_Systems/rnas/2o3w

>  <Rbt.Executable>
rbdock ($Id: //depot/dev/client3/rdock/2013.1/src/exe/rbdock.cxx#4 $)

>  <Rbt.Library>
libRbt.so (2013.1, Build901 2013/11/27)

>  <Rbt.Parameter_File>
/export/apps/rDock/src/rDock_2013.1_src/data/scripts/dock_solv.prm

>  <Rbt.Receptor>
prm/pocket_docking_5.prm

>  <SCORE>
-17.4792

>  <SCORE.INTER>
-8.80896

>  <SCORE.INTER.CONST>
1

>  <SCORE.INTER.POLAR>
-1.74155

>  <SCORE.INTER.ROT>
9

>  <SCORE.INTER.SOLV>
15.7825

>  <SCORE.INTER.VDW>
-14.9283

>  <SCORE.INTER.norm>
-0.209737

>  <SCORE.INTRA>
-8.67026

>  <SCORE.INTRA.DIHEDRAL>
-21.5113

>  <SCORE.INTRA.DIHEDRAL.0>
27.8999

>  <SCORE.INTRA.POLAR>
0

>  <SCORE.INTRA.POLAR.0>
0

>  <SCORE.INTRA.REPUL>
0

>  <SCORE.INTRA.REPUL.0>
0

>  <SCORE.INTRA.SOLV>
-5.54293

>  <SCORE.INTRA.SOLV.lig_0>
-104.479

>  <SCORE.INTRA.VDW>
4.85685

>  <SCORE.INTRA.VDW.0>
-6.17816

>  <SCORE.INTRA.norm>
-0.206435

>  <SCORE.RESTR>
0

>  <SCORE.RESTR.CAVITY>
0

>  <SCORE.RESTR.norm>
0

>  <SCORE.SYSTEM>
0

>  <SCORE.SYSTEM.CONST>
0

>  <SCORE.SYSTEM.DIHEDRAL>
0

>  <SCORE.SYSTEM.SOLV>
0

>  <SCORE.SYSTEM.norm>
0

>  <SCORE.heavy>
42

>  <SCORE.norm>
-0.416172

>  <RMSD>
9.432

$$$$
2o3w_lig
 OpenBabel11021811463D
libRbt.so/2013.1/901 2013/11/27
 42 45  0  0  0  0  0  0  0  0999 V2000
    4.7102    7.7880    2.5078 C   0  0  2  0  0  0  0  0  0  0  0  0
    5.5480    6.7132    2.0494 O   0  0  0  0  0  0  0  0  0  0  0  0
    9.8381    6.0924    1.9739 C   0  0  2  0  0  0  0  0  0  0  0  0
   11.2684    5.9594    2.3827 N   0  0  0  0  0  0  0  0  0  0  0  0
    6.8596    3.0318    3.6137 C   0  0  1  0  0  0  0  0  0  0  0  0
    6.4939   -1.1721    4.8535 C   0  0  1  0  0  0  0  0  0  0  0  0
    3.2348    7.3071    2.3659 C   0  0  2  0  0  0  0  0  0  0  0  0
    3.0152    5.9779    2.9622 N   0  0  0  0  0  0  0  0  0  0  0  0
    9.3125    7.5676    2.1957 C   0  0  0  0  0  0  0  0  0  0  0  0
    6.3924    2.6138    5.0412 C   0  0  2  0  0  0  0  0  0  0  0  0
    7.4237    2.7193    6.0532 O   0  0  0  0  0  0  0  0  0  0  0  0
    7.5386   -2.2137    5.3942 C   0  0  2  0  0  0  0  0  0  0  0  0
    8.8582   -2.0475    4.7145 N   0  0  0  0  0  0  0  0  0  0  0  0
    2.7897    7.2136    0.8948 C   0  0  1  0  0  0  0  0  0  0  0  0
    1.4221    6.8084    0.8137 O   0  0  0  0  0  0  0  0  0  0  0  0
    7.8105    7.6501    1.7269 C   0  0  2  0  0  0  0  0  0  0  0  0
    7.2870    9.0309    1.9083 N   0  0  0  0  0  0  0  0  0  0  0  0
    5.8633    1.2029    4.7793 C   0  0  2  0  0  0  0  0  0  0  0  0
    6.9111    0.1956    4.9473 O   0  0  0  0  0  0  0  0  0  0  0  0
    6.9656   -3.6951    5.1841 C   0  0  1  0  0  0  0  0  0  0  0  0
    5.9126   -3.9294    6.1460 O   0  0  0  0  0  0  0  0  0  0  0  0
    3.0170    8.5754    0.1998 C   0  0  2  0  0  0  0  0  0  0  0  0
    2.5987    8.5114   -1.1439 O   0  0  0  0  0  0  0  0  0  0  0  0
    6.9165    6.6330    2.5405 C   0  0  2  0  0  0  0  0  0  0  0  0
    5.3249    1.2120    3.3387 C   0  0  2  0  0  0  0  0  0  0  0  0
    6.1619    2.1659    2.6892 O   0  0  0  0  0  0  0  0  0  0  0  0
    6.4037   -3.9405    3.7038 C   0  0  2  0  0  0  0  0  0  0  0  0
    7.5200   -3.9480    2.8148 O   0  0  0  0  0  0  0  0  0  0  0  0
    4.5346    8.9474    0.2894 C   0  0  2  0  0  0  0  0  0  0  0  0
    4.9466    8.9981    1.6921 O   0  0  0  0  0  0  0  0  0  0  0  0
    7.4057    5.1734    2.4163 C   0  0  2  0  0  0  0  0  0  0  0  0
    6.5966    4.4178    3.3591 O   0  0  0  0  0  0  0  0  0  0  0  0
    3.8200    1.5998    3.2010 C   0  0  0  0  0  0  0  0  0  0  0  0
    3.0263    0.6739    3.9370 O   0  0  0  0  0  0  0  0  0  0  0  0
    5.3911   -2.8038    3.2980 C   0  0  1  0  0  0  0  0  0  0  0  0
    6.1269   -1.5343    3.4297 O   0  0  0  0  0  0  0  0  0  0  0  0
    4.8476   10.2742   -0.3627 C   0  0  0  0  0  0  0  0  0  0  0  0
    6.2355   10.5040   -0.3527 O   0  0  0  0  0  0  0  0  0  0  0  0
    8.9438    5.0761    2.7911 C   0  0  1  0  0  0  0  0  0  0  0  0
    9.4326    3.7574    2.5311 O   0  0  0  0  0  0  0  0  0  0  0  0
    4.8081   -2.9509    1.8259 C   0  0  0  0  0  0  0  0  0  0  0  0
    3.8353   -1.9025    1.4126 N   0  0  0  0  0  0  0  0  0  0  0  0
  1  2  1  6  0  0  0
  1  7  1  0  0  0  0
  1 30  1  0  0  0  0
  3  4  1  1  0  0  0
  3  9  1  0  0  0  0
  3 39  1  0  0  0  0
  5 10  1  0  0  0  0
  5 26  1  0  0  0  0
  5 32  1  6  0  0  0
  6 12  1  0  0  0  0
  6 36  1  0  0  0  0
  6 19  1  6  0  0  0
  7  8  1  6  0  0  0
  7 14  1  0  0  0  0
  9 16  1  0  0  0  0
 10 11  1  1  0  0  0
 10 18  1  0  0  0  0
 12 13  1  6  0  0  0
 12 20  1  0  0  0  0
 14 15  1  1  0  0  0
 14 22  1  0  0  0  0
 16 17  1  1  0  0  0
 16 24  1  0  0  0  0
 18 19  1  6  0  0  0
 18 25  1  0  0  0  0
 20 21  1  1  0  0  0
 20 27  1  0  0  0  0
 22 23  1  6  0  0  0
 22 29  1  0  0  0  0
 24  2  1  6  0  0  0
 24 31  1  0  0  0  0
 25 26  1  0  0  0  0
 25 33  1  1  0  0  0
 27 28  1  6  0  0  0
 27 35  1  0  0  0  0
 29 30  1  0  0  0  0
 29 37  1  1  0  0  0
 31 32  1  1  0  0  0
 31 39  1  0  0  0  0
 33 34  1  0  0  0  0
 35 36  1  0  0  0  0
 35 41  1  6  0  0  0
 37 38  1  0  0  0  0
 39 40  1  6  0  0  0
 41 42  1  0  0  0  0
M  END
>  <CHROM.1>
-155.51996513,153.05440342,-165.06631845,174.12538226,-80.10720064,-59.67491406
-175.04546000,-173.93321003,179.33212949,6.01374870,3.42887107,2.75822157
1.67391956,-0.25208190,-0.26356116

>  <Name>
2o3w_lig

>  <RI>
0

>  <Rbt.Current_Directory>
/home/itssahil/PROJECTS/Mol_Feturizer/New_Systems/rnas/2o3w

>  <Rbt.Executable>
rbdock ($Id: //depot/dev/client3/rdock/2013.1/src/exe/rbdock.cxx#4 $)

>  <Rbt.Library>
libRbt.so (2013.1, Build901 2013/11/27)

>  <Rbt.Parameter_File>
/export/apps/rDock/src/rDock_2013.1_src/data/scripts/dock_solv.prm

>  <Rbt.Receptor>
prm/pocket_docking_3.prm

>  <SCORE>
-11.7879

>  <SCORE.INTER>
-5.37889

>  <SCORE.INTER.CONST>
1

>  <SCORE.INTER.POLAR>
-1

>  <SCORE.INTER.ROT>
9

>  <SCORE.INTER.SOLV>
11.817

>  <SCORE.INTER.VDW>
-13.7916

>  <SCORE.INTER.norm>
-0.128069

>  <SCORE.INTRA>
-6.40904

>  <SCORE.INTRA.DIHEDRAL>
-18.8818

>  <SCORE.INTRA.DIHEDRAL.0>
27.8999

>  <SCORE.INTRA.POLAR>
0

>  <SCORE.INTRA.POLAR.0>
0

>  <SCORE.INTRA.REPUL>
0

>  <SCORE.INTRA.REPUL.0>
0

>  <SCORE.INTRA.SOLV>
-0.214706

>  <SCORE.INTRA.SOLV.lig_0>
-104.479

>  <SCORE.INTRA.VDW>
3.13923

>  <SCORE.INTRA.VDW.0>
-6.17816

>  <SCORE.INTRA.norm>
-0.152596

>  <SCORE.RESTR>
0

>  <SCORE.RESTR.CAVITY>
0

>  <SCORE.RESTR.norm>
0

>  <SCORE.SYSTEM>
0

>  <SCORE.SYSTEM.CONST>
0

>  <SCORE.SYSTEM.DIHEDRAL>
0

>  <SCORE.SYSTEM.SOLV>
0

>  <SCORE.SYSTEM.norm>
0

>  <SCORE.heavy>
42

>  <SCORE.norm>
-0.280665

>  <RMSD>
9.452

$$$$
2o3w_lig
 OpenBabel11021811463D
libRbt.so/2013.1/901 2013/11/27
 42 45  0  0  0  0  0  0  0  0999 V2000
    4.2839    6.5449   -0.1140 C   0  0  2  0  0  0  0  0  0  0  0  0
    4.7055    6.0173   -1.3834 O   0  0  0  0  0  0  0  0  0  0  0  0
    4.1564    1.7783   -0.6587 C   0  0  2  0  0  0  0  0  0  0  0  0
    4.3033    0.2927   -0.6994 N   0  0  0  0  0  0  0  0  0  0  0  0
    7.5654    4.3385    1.1357 C   0  0  1  0  0  0  0  0  0  0  0  0
   11.1151    4.3753    3.9302 C   0  0  1  0  0  0  0  0  0  0  0  0
    2.7571    6.8353   -0.2264 C   0  0  2  0  0  0  0  0  0  0  0  0
    2.0035    5.6900   -0.7658 N   0  0  0  0  0  0  0  0  0  0  0  0
    3.7030    2.3490   -2.0624 C   0  0  0  0  0  0  0  0  0  0  0  0
    9.0883    4.4486    0.8205 C   0  0  2  0  0  0  0  0  0  0  0  0
    9.7027    3.1942    0.4356 O   0  0  0  0  0  0  0  0  0  0  0  0
   11.6091    3.1937    4.8405 C   0  0  2  0  0  0  0  0  0  0  0  0
   10.4907    2.6582    5.6731 N   0  0  0  0  0  0  0  0  0  0  0  0
    2.4565    8.0363   -1.1419 C   0  0  1  0  0  0  0  0  0  0  0  0
    1.0514    8.2904   -1.1839 O   0  0  0  0  0  0  0  0  0  0  0  0
    3.5440    3.9125   -1.9504 C   0  0  2  0  0  0  0  0  0  0  0  0
    3.1033    4.4824   -3.2522 N   0  0  0  0  0  0  0  0  0  0  0  0
    9.6146    5.0748    2.1128 C   0  0  2  0  0  0  0  0  0  0  0  0
   10.0024    4.0537    3.0864 O   0  0  0  0  0  0  0  0  0  0  0  0
   12.8177    3.7043    5.7600 C   0  0  1  0  0  0  0  0  0  0  0  0
   13.9989    3.8509    4.9401 O   0  0  0  0  0  0  0  0  0  0  0  0
    3.2390    9.2728   -0.6439 C   0  0  2  0  0  0  0  0  0  0  0  0
    2.9616   10.3856   -1.4619 O   0  0  0  0  0  0  0  0  0  0  0  0
    4.9070    4.5811   -1.5133 C   0  0  2  0  0  0  0  0  0  0  0  0
    8.4750    5.9552    2.6527 C   0  0  2  0  0  0  0  0  0  0  0  0
    7.3045    5.2745    2.2067 O   0  0  0  0  0  0  0  0  0  0  0  0
   12.4981    5.0930    6.4927 C   0  0  2  0  0  0  0  0  0  0  0  0
   11.4926    4.8414    7.4735 O   0  0  0  0  0  0  0  0  0  0  0  0
    4.7697    8.9466   -0.6544 C   0  0  2  0  0  0  0  0  0  0  0  0
    5.0306    7.7833    0.1933 O   0  0  0  0  0  0  0  0  0  0  0  0
    5.4419    4.0298   -0.1735 C   0  0  2  0  0  0  0  0  0  0  0  0
    6.7675    4.6086   -0.0242 O   0  0  0  0  0  0  0  0  0  0  0  0
    8.4905    7.4325    2.1512 C   0  0  0  0  0  0  0  0  0  0  0  0
    7.3994    8.1387    2.7341 O   0  0  0  0  0  0  0  0  0  0  0  0
   11.9917    6.1651    5.4552 C   0  0  1  0  0  0  0  0  0  0  0  0
   10.8104    5.5757    4.8014 O   0  0  0  0  0  0  0  0  0  0  0  0
    5.6142   10.1039   -0.1735 C   0  0  0  0  0  0  0  0  0  0  0  0
    6.9783    9.8261   -0.3768 O   0  0  0  0  0  0  0  0  0  0  0  0
    5.5222    2.4466   -0.2242 C   0  0  1  0  0  0  0  0  0  0  0  0
    5.8717    1.9288    1.0624 O   0  0  0  0  0  0  0  0  0  0  0  0
   11.6180    7.5681    6.1039 C   0  0  0  0  0  0  0  0  0  0  0  0
   11.2814    8.6519    5.1403 N   0  0  0  0  0  0  0  0  0  0  0  0
  1  2  1  6  0  0  0
  1  7  1  0  0  0  0
  1 30  1  0  0  0  0
  3  4  1  6  0  0  0
  3  9  1  0  0  0  0
  3 39  1  0  0  0  0
  5 10  1  0  0  0  0
  5 26  1  0  0  0  0
  5 32  1  6  0  0  0
  6 12  1  0  0  0  0
  6 36  1  0  0  0  0
  6 19  1  1  0  0  0
  7  8  1  6  0  0  0
  7 14  1  0  0  0  0
  9 16  1  0  0  0  0
 10 11  1  1  0  0  0
 10 18  1  0  0  0  0
 12 13  1  1  0  0  0
 12 20  1  0  0  0  0
 14 15  1  1  0  0  0
 14 22  1  0  0  0  0
 16 17  1  6  0  0  0
 16 24  1  0  0  0  0
 18 19  1  1  0  0  0
 18 25  1  0  0  0  0
 20 21  1  6  0  0  0
 20 27  1  0  0  0  0
 22 23  1  6  0  0  0
 22 29  1  0  0  0  0
 24  2  1  1  0  0  0
 24 31  1  0  0  0  0
 25 26  1  0  0  0  0
 25 33  1  6  0  0  0
 27 28  1  1  0  0  0
 27 35  1  0  0  0  0
 29 30  1  0  0  0  0
 29 37  1  1  0  0  0
 31 32  1  6  0  0  0
 31 39  1  0  0  0  0
 33 34  1  0  0  0  0
 35 36  1  0  0  0  0
 35 41  1  1  0  0  0
 37 38  1  0  0  0  0
 39 40  1  1  0  0  0
 41 42  1  0  0  0  0
M  END
>  <CHROM.1>
-101.87273657,152.75812448,-173.03734976,146.30822386,89.39476805,-179.31551858
-171.88976666,178.61903275,173.44682568,7.16887532,5.54941785,1.45113329
-3.08847750,0.67075808,-3.00509152

>  <Name>
2o3w_lig

>  <RI>
0

>  <Rbt.Current_Directory>
/home/itssahil/PROJECTS/Mol_Feturizer/New_Systems/rnas/2o3w

>  <Rbt.Executable>
rbdock ($Id: //depot/dev/client3/rdock/2013.1/src/exe/rbdock.cxx#4 $)

>  <Rbt.Library>
libRbt.so (2013.1, Build901 2013/11/27)

>  <Rbt.Parameter_File>
/export/apps/rDock/src/rDock_2013.1_src/data/scripts/dock_solv.prm

>  <Rbt.Receptor>
prm/pocket_docking_7.prm

>  <SCORE>
-13.049

>  <SCORE.INTER>
-10.1878

>  <SCORE.INTER.CONST>
1

>  <SCORE.INTER.POLAR>
-1.89443

>  <SCORE.INTER.ROT>
9

>  <SCORE.INTER.SOLV>
12.441

>  <SCORE.INTER.VDW>
-14.2241

>  <SCORE.INTER.norm>
-0.242566

>  <SCORE.INTRA>
-2.8692

>  <SCORE.INTRA.DIHEDRAL>
-10.6101

>  <SCORE.INTRA.DIHEDRAL.0>
27.8999

>  <SCORE.INTRA.POLAR>
0

>  <SCORE.INTRA.POLAR.0>
0

>  <SCORE.INTRA.REPUL>
0

>  <SCORE.INTRA.REPUL.0>
0

>  <SCORE.INTRA.SOLV>
-1.07427

>  <SCORE.INTRA.SOLV.lig_0>
-104.479

>  <SCORE.INTRA.VDW>
2.97301

>  <SCORE.INTRA.VDW.0>
-6.17816

>  <SCORE.INTRA.norm>
-0.0683142

>  <SCORE.RESTR>
0.00799975

>  <SCORE.RESTR.CAVITY>
0.00799975

>  <SCORE.RESTR.norm>
0.00019047

>  <SCORE.SYSTEM>
0

>  <SCORE.SYSTEM.CONST>
0

>  <SCORE.SYSTEM.DIHEDRAL>
0

>  <SCORE.SYSTEM.SOLV>
0

>  <SCORE.SYSTEM.norm>
0

>  <SCORE.heavy>
42

>  <SCORE.norm>
-0.31069

>  <RMSD>
9.456

$$$$
2o3w_lig
 OpenBabel11021811463D
libRbt.so/2013.1/901 2013/11/27
 42 45  0  0  0  0  0  0  0  0999 V2000
    9.1855    4.3817    5.2682 C   0  0  2  0  0  0  0  0  0  0  0  0
    8.1130    5.2116    5.7459 O   0  0  0  0  0  0  0  0  0  0  0  0
    4.1060    6.0237    4.3034 C   0  0  2  0  0  0  0  0  0  0  0  0
    2.9478    6.3717    3.4271 N   0  0  0  0  0  0  0  0  0  0  0  0
    6.6194    2.0168    3.8337 C   0  0  1  0  0  0  0  0  0  0  0  0
    6.4556   -2.1771    4.2238 C   0  0  1  0  0  0  0  0  0  0  0  0
    9.9275    3.8302    6.5227 C   0  0  2  0  0  0  0  0  0  0  0  0
    9.0055    3.2411    7.5094 N   0  0  0  0  0  0  0  0  0  0  0  0
    5.0914    7.2502    4.4663 C   0  0  0  0  0  0  0  0  0  0  0  0
    7.6437    1.1919    2.9964 C   0  0  2  0  0  0  0  0  0  0  0  0
    7.2816    1.0447    1.6013 O   0  0  0  0  0  0  0  0  0  0  0  0
    7.6293   -3.2147    4.3441 C   0  0  2  0  0  0  0  0  0  0  0  0
    8.0210   -3.7353    3.0000 N   0  0  0  0  0  0  0  0  0  0  0  0
   10.7256    4.9233    7.2569 C   0  0  1  0  0  0  0  0  0  0  0  0
   11.4199    4.3663    8.3744 O   0  0  0  0  0  0  0  0  0  0  0  0
    6.2765    6.8300    5.4158 C   0  0  2  0  0  0  0  0  0  0  0  0
    7.2174    7.9672    5.6033 N   0  0  0  0  0  0  0  0  0  0  0  0
    7.7109   -0.1055    3.8036 C   0  0  2  0  0  0  0  0  0  0  0  0
    6.7189   -1.0775    3.3433 O   0  0  0  0  0  0  0  0  0  0  0  0
    7.1827   -4.4079    5.3156 C   0  0  1  0  0  0  0  0  0  0  0  0
    7.1829   -3.9258    6.6781 O   0  0  0  0  0  0  0  0  0  0  0  0
   11.7005    5.6021    6.2680 C   0  0  2  0  0  0  0  0  0  0  0  0
   12.4509    6.5943    6.9289 O   0  0  0  0  0  0  0  0  0  0  0  0
    7.0547    5.5908    4.8204 C   0  0  2  0  0  0  0  0  0  0  0  0
    7.4630    0.2926    5.2683 C   0  0  2  0  0  0  0  0  0  0  0  0
    6.6030    1.4238    5.1525 O   0  0  0  0  0  0  0  0  0  0  0  0
    5.7361   -4.9952    4.9550 C   0  0  2  0  0  0  0  0  0  0  0  0
    5.8480   -5.6814    3.7088 O   0  0  0  0  0  0  0  0  0  0  0  0
   10.8808    6.2228    5.0880 C   0  0  2  0  0  0  0  0  0  0  0  0
   10.1038    5.1759    4.4246 O   0  0  0  0  0  0  0  0  0  0  0  0
    6.1412    4.3688    4.5806 C   0  0  2  0  0  0  0  0  0  0  0  0
    6.9687    3.4067    3.8707 O   0  0  0  0  0  0  0  0  0  0  0  0
    8.7474    0.6450    6.0809 C   0  0  0  0  0  0  0  0  0  0  0  0
    9.6330   -0.4705    6.0683 O   0  0  0  0  0  0  0  0  0  0  0  0
    4.6766   -3.8344    4.8451 C   0  0  1  0  0  0  0  0  0  0  0  0
    5.1907   -2.9065    3.8228 O   0  0  0  0  0  0  0  0  0  0  0  0
   11.7595    6.9050    4.0652 C   0  0  0  0  0  0  0  0  0  0  0  0
   11.3179    8.2230    3.8484 O   0  0  0  0  0  0  0  0  0  0  0  0
    4.8861    4.7852    3.7047 C   0  0  1  0  0  0  0  0  0  0  0  0
    3.9663    3.6940    3.6105 O   0  0  0  0  0  0  0  0  0  0  0  0
    3.2153   -4.3261    4.4559 C   0  0  0  0  0  0  0  0  0  0  0  0
    2.4676   -5.0326    5.5322 N   0  0  0  0  0  0  0  0  0  0  0  0
  1  2  1  1  0  0  0
  1  7  1  0  0  0  0
  1 30  1  0  0  0  0
  3  4  1  6  0  0  0
  3  9  1  0  0  0  0
  3 39  1  0  0  0  0
  5 10  1  0  0  0  0
  5 26  1  0  0  0  0
  5 32  1  1  0  0  0
  6 12  1  0  0  0  0
  6 36  1  0  0  0  0
  6 19  1  6  0  0  0
  7  8  1  1  0  0  0
  7 14  1  0  0  0  0
  9 16  1  0  0  0  0
 10 11  1  6  0  0  0
 10 18  1  0  0  0  0
 12 13  1  6  0  0  0
 12 20  1  0  0  0  0
 14 15  1  1  0  0  0
 14 22  1  0  0  0  0
 16 17  1  6  0  0  0
 16 24  1  0  0  0  0
 18 19  1  6  0  0  0
 18 25  1  0  0  0  0
 20 21  1  1  0  0  0
 20 27  1  0  0  0  0
 22 23  1  1  0  0  0
 22 29  1  0  0  0  0
 24  2  1  1  0  0  0
 24 31  1  0  0  0  0
 25 26  1  0  0  0  0
 25 33  1  6  0  0  0
 27 28  1  6  0  0  0
 27 35  1  0  0  0  0
 29 30  1  0  0  0  0
 29 37  1  6  0  0  0
 31 32  1  6  0  0  0
 31 39  1  0  0  0  0
 33 34  1  0  0  0  0
 35 36  1  0  0  0  0
 35 41  1  6  0  0  0
 37 38  1  0  0  0  0
 39 40  1  1  0  0  0
 41 42  1  0  0  0  0
M  END
>  <CHROM.1>
-164.87741632,179.10379667,-70.26547150,-164.66343346,-162.24263370,-58.22041694
-126.83895917,160.58315608,73.20928079,7.48631617,1.93730356,4.85663084,-1.21825968
0.33444361,3.10441462

>  <Name>
2o3w_lig

>  <RI>
0

>  <Rbt.Current_Directory>
/home/itssahil/PROJECTS/Mol_Feturizer/New_Systems/rnas/2o3w

>  <Rbt.Executable>
rbdock ($Id: //depot/dev/client3/rdock/2013.1/src/exe/rbdock.cxx#4 $)

>  <Rbt.Library>
libRbt.so (2013.1, Build901 2013/11/27)

>  <Rbt.Parameter_File>
/export/apps/rDock/src/rDock_2013.1_src/data/scripts/dock_solv.prm

>  <Rbt.Receptor>
prm/pocket_docking_4.prm

>  <SCORE>
-10.64

>  <SCORE.INTER>
-2.61121

>  <SCORE.INTER.CONST>
1

>  <SCORE.INTER.POLAR>
-0.894427

>  <SCORE.INTER.ROT>
9

>  <SCORE.INTER.SOLV>
8.2916

>  <SCORE.INTER.VDW>
-11.1232

>  <SCORE.INTER.norm>
-0.0621716

>  <SCORE.INTRA>
-8.02883

>  <SCORE.INTRA.DIHEDRAL>
-16.2233

>  <SCORE.INTRA.DIHEDRAL.0>
27.8999

>  <SCORE.INTRA.POLAR>
0

>  <SCORE.INTRA.POLAR.0>
0

>  <SCORE.INTRA.REPUL>
0

>  <SCORE.INTRA.REPUL.0>
0

>  <SCORE.INTRA.SOLV>
-3.6222

>  <SCORE.INTRA.SOLV.lig_0>
-104.479

>  <SCORE.INTRA.VDW>
1.89394

>  <SCORE.INTRA.VDW.0>
-6.17816

>  <SCORE.INTRA.norm>
-0.191163

>  <SCORE.RESTR>
0

>  <SCORE.RESTR.CAVITY>
0

>  <SCORE.RESTR.norm>
0

>  <SCORE.SYSTEM>
0

>  <SCORE.SYSTEM.CONST>
0

>  <SCORE.SYSTEM.DIHEDRAL>
0

>  <SCORE.SYSTEM.SOLV>
0

>  <SCORE.SYSTEM.norm>
0

>  <SCORE.heavy>
42

>  <SCORE.norm>
-0.253334

>  <RMSD>
9.479

$$$$
2o3w_lig
 OpenBabel11021811463D
libRbt.so/2013.1/901 2013/11/27
 42 45  0  0  0  0  0  0  0  0999 V2000
    7.4087    7.5329    1.9695 C   0  0  2  0  0  0  0  0  0  0  0  0
    8.2172    6.3447    2.0101 O   0  0  0  0  0  0  0  0  0  0  0  0
    6.8920    4.6129   -1.7370 C   0  0  2  0  0  0  0  0  0  0  0  0
    6.7448    3.7150   -2.9212 N   0  0  0  0  0  0  0  0  0  0  0  0
    7.6804    2.6934    2.1597 C   0  0  1  0  0  0  0  0  0  0  0  0
   10.9197   -0.1221    3.1266 C   0  0  1  0  0  0  0  0  0  0  0  0
    7.8618    8.4324    3.1586 C   0  0  2  0  0  0  0  0  0  0  0  0
    9.3235    8.6112    3.2052 N   0  0  0  0  0  0  0  0  0  0  0  0
    8.3204    5.2915   -1.7052 C   0  0  0  0  0  0  0  0  0  0  0  0
    9.1882    3.0640    2.0181 C   0  0  2  0  0  0  0  0  0  0  0  0
    9.6829    3.0105    0.6575 O   0  0  0  0  0  0  0  0  0  0  0  0
   11.5580   -1.3044    2.3121 C   0  0  2  0  0  0  0  0  0  0  0  0
   10.5209   -2.0216    1.5115 N   0  0  0  0  0  0  0  0  0  0  0  0
    7.4407    7.8542    4.5222 C   0  0  1  0  0  0  0  0  0  0  0  0
    7.8409    8.7290    5.5783 O   0  0  0  0  0  0  0  0  0  0  0  0
    8.4066    6.2406   -0.4504 C   0  0  2  0  0  0  0  0  0  0  0  0
    9.7351    6.9083   -0.3970 N   0  0  0  0  0  0  0  0  0  0  0  0
    9.8295    2.0774    2.9953 C   0  0  2  0  0  0  0  0  0  0  0  0
   10.1893    0.8226    2.3344 O   0  0  0  0  0  0  0  0  0  0  0  0
   12.2978   -2.3037    3.3225 C   0  0  1  0  0  0  0  0  0  0  0  0
   13.5168   -1.6811    3.7865 O   0  0  0  0  0  0  0  0  0  0  0  0
    5.9132    7.6185    4.5328 C   0  0  2  0  0  0  0  0  0  0  0  0
    5.5091    7.1048    5.7807 O   0  0  0  0  0  0  0  0  0  0  0  0
    8.1690    5.4254    0.8819 C   0  0  2  0  0  0  0  0  0  0  0  0
    8.7914    1.8445    4.1059 C   0  0  2  0  0  0  0  0  0  0  0  0
    7.5498    2.0020    3.4230 O   0  0  0  0  0  0  0  0  0  0  0  0
   11.3881   -2.7035    4.5796 C   0  0  2  0  0  0  0  0  0  0  0  0
   10.3292   -3.5309    4.0994 O   0  0  0  0  0  0  0  0  0  0  0  0
    5.5415    6.6272    3.3800 C   0  0  2  0  0  0  0  0  0  0  0  0
    5.9793    7.1778    2.0975 O   0  0  0  0  0  0  0  0  0  0  0  0
    6.8126    4.6871    0.8984 C   0  0  2  0  0  0  0  0  0  0  0  0
    6.8446    3.8561    2.0913 O   0  0  0  0  0  0  0  0  0  0  0  0
    8.8933    2.8220    5.3176 C   0  0  0  0  0  0  0  0  0  0  0  0
   10.0964    2.5598    6.0337 O   0  0  0  0  0  0  0  0  0  0  0  0
   10.8023   -1.4161    5.2736 C   0  0  1  0  0  0  0  0  0  0  0  0
   10.0544   -0.6932    4.2303 O   0  0  0  0  0  0  0  0  0  0  0  0
    4.0587    6.3438    3.3123 C   0  0  0  0  0  0  0  0  0  0  0  0
    3.6241    5.7461    4.5095 O   0  0  0  0  0  0  0  0  0  0  0  0
    6.6571    3.7953   -0.4040 C   0  0  1  0  0  0  0  0  0  0  0  0
    5.3436    3.2325   -0.4627 O   0  0  0  0  0  0  0  0  0  0  0  0
    9.8569   -1.7229    6.5148 C   0  0  0  0  0  0  0  0  0  0  0  0
    8.6541   -2.5484    6.2175 N   0  0  0  0  0  0  0  0  0  0  0  0
  1  2  1  1  0  0  0
  1  7  1  0  0  0  0
  1 30  1  0  0  0  0
  3  4  1  6  0  0  0
  3  9  1  0  0  0  0
  3 39  1  0  0  0  0
  5 10  1  0  0  0  0
  5 26  1  0  0  0  0
  5 32  1  1  0  0  0
  6 12  1  0  0  0  0
  6 36  1  0  0  0  0
  6 19  1  6  0  0  0
  7  8  1  1  0  0  0
  7 14  1  0  0  0  0
  9 16  1  0  0  0  0
 10 11  1  6  0  0  0
 10 18  1  0  0  0  0
 12 13  1  1  0  0  0
 12 20  1  0  0  0  0
 14 15  1  1  0  0  0
 14 22  1  0  0  0  0
 16 17  1  1  0  0  0
 16 24  1  0  0  0  0
 18 19  1  6  0  0  0
 18 25  1  0  0  0  0
 20 21  1  1  0  0  0
 20 27  1  0  0  0  0
 22 23  1  1  0  0  0
 22 29  1  0  0  0  0
 24  2  1  1  0  0  0
 24 31  1  0  0  0  0
 25 26  1  0  0  0  0
 25 33  1  1  0  0  0
 27 28  1  6  0  0  0
 27 35  1  0  0  0  0
 29 30  1  0  0  0  0
 29 37  1  6  0  0  0
 31 32  1  1  0  0  0
 31 39  1  0  0  0  0
 33 34  1  0  0  0  0
 35 36  1  0  0  0  0
 35 41  1  1  0  0  0
 37 38  1  0  0  0  0
 39 40  1  6  0  0  0
 41 42  1  0  0  0  0
M  END
>  <CHROM.1>
-169.65405886,61.68898148,-167.21617345,173.93469840,51.10499068,-68.15012156
-61.23715985,-71.72983934,-59.64680068,8.42249929,3.24797422,2.74672765,-2.91446518
-1.11203847,1.61940124

>  <Name>
2o3w_lig

>  <RI>
0

>  <Rbt.Current_Directory>
/home/itssahil/PROJECTS/Mol_Feturizer/New_Systems/rnas/2o3w

>  <Rbt.Executable>
rbdock ($Id: //depot/dev/client3/rdock/2013.1/src/exe/rbdock.cxx#4 $)

>  <Rbt.Library>
libRbt.so (2013.1, Build901 2013/11/27)

>  <Rbt.Parameter_File>
/export/apps/rDock/src/rDock_2013.1_src/data/scripts/dock_solv.prm

>  <Rbt.Receptor>
prm/pocket_docking_5.prm

>  <SCORE>
-16.8532

>  <SCORE.INTER>
-6.44691

>  <SCORE.INTER.CONST>
1

>  <SCORE.INTER.POLAR>
-1.27053

>  <SCORE.INTER.ROT>
9

>  <SCORE.INTER.SOLV>
20.3293

>  <SCORE.INTER.VDW>
-16.4393

>  <SCORE.INTER.norm>
-0.153498

>  <SCORE.INTRA>
-10.412

>  <SCORE.INTRA.DIHEDRAL>
-24.9904

>  <SCORE.INTRA.DIHEDRAL.0>
27.8999

>  <SCORE.INTRA.POLAR>
0

>  <SCORE.INTRA.POLAR.0>
0

>  <SCORE.INTRA.REPUL>
0

>  <SCORE.INTRA.REPUL.0>
0

>  <SCORE.INTRA.SOLV>
-2.06051

>  <SCORE.INTRA.SOLV.lig_0>
-104.479

>  <SCORE.INTRA.VDW>
3.11343

>  <SCORE.INTRA.VDW.0>
-6.17816

>  <SCORE.INTRA.norm>
-0.247905

>  <SCORE.RESTR>
0.0057074

>  <SCORE.RESTR.CAVITY>
0.0057074

>  <SCORE.RESTR.norm>
0.00013589

>  <SCORE.SYSTEM>
0

>  <SCORE.SYSTEM.CONST>
0

>  <SCORE.SYSTEM.DIHEDRAL>
0

>  <SCORE.SYSTEM.SOLV>
0

>  <SCORE.SYSTEM.norm>
0

>  <SCORE.heavy>
42

>  <SCORE.norm>
-0.401267

>  <RMSD>
9.493

$$$$
2o3w_lig
 OpenBabel11021811463D
libRbt.so/2013.1/901 2013/11/27
 42 45  0  0  0  0  0  0  0  0999 V2000
    7.7240    7.5776    2.4247 C   0  0  2  0  0  0  0  0  0  0  0  0
    8.4611    6.3443    2.3707 O   0  0  0  0  0  0  0  0  0  0  0  0
    6.9118    4.8072   -1.3754 C   0  0  2  0  0  0  0  0  0  0  0  0
    6.7341    4.0136   -2.6280 N   0  0  0  0  0  0  0  0  0  0  0  0
    6.5604    2.5931    2.6087 C   0  0  1  0  0  0  0  0  0  0  0  0
    6.0460   -1.1716    4.0110 C   0  0  1  0  0  0  0  0  0  0  0  0
    8.0229    8.2260    3.8098 C   0  0  2  0  0  0  0  0  0  0  0  0
    9.4652    8.2877    4.1039 N   0  0  0  0  0  0  0  0  0  0  0  0
    8.2353    5.6719   -1.4267 C   0  0  0  0  0  0  0  0  0  0  0  0
    7.1694    1.6356    3.6779 C   0  0  2  0  0  0  0  0  0  0  0  0
    7.9319    0.5374    3.1196 O   0  0  0  0  0  0  0  0  0  0  0  0
    5.2650   -2.4648    3.5790 C   0  0  2  0  0  0  0  0  0  0  0  0
    3.9956   -2.6051    4.3536 N   0  0  0  0  0  0  0  0  0  0  0  0
    7.3650    7.4561    4.9696 C   0  0  1  0  0  0  0  0  0  0  0  0
    7.6317    8.1067    6.2132 O   0  0  0  0  0  0  0  0  0  0  0  0
    8.3553    6.5007   -0.0921 C   0  0  2  0  0  0  0  0  0  0  0  0
    9.5846    7.3387   -0.1122 N   0  0  0  0  0  0  0  0  0  0  0  0
    5.9210    1.2407    4.4684 C   0  0  2  0  0  0  0  0  0  0  0  0
    5.2903    0.0422    3.9145 O   0  0  0  0  0  0  0  0  0  0  0  0
    6.2076   -3.7443    3.7823 C   0  0  1  0  0  0  0  0  0  0  0  0
    7.2178   -3.7493    2.7487 O   0  0  0  0  0  0  0  0  0  0  0  0
    5.8460    7.3335    4.7112 C   0  0  2  0  0  0  0  0  0  0  0  0
    5.2262    6.6453    5.7726 O   0  0  0  0  0  0  0  0  0  0  0  0
    8.3904    5.5381    1.1601 C   0  0  2  0  0  0  0  0  0  0  0  0
    4.9745    2.4509    4.3995 C   0  0  2  0  0  0  0  0  0  0  0  0
    5.2872    3.0315    3.1356 O   0  0  0  0  0  0  0  0  0  0  0  0
    6.9125   -3.7753    5.2209 C   0  0  2  0  0  0  0  0  0  0  0  0
    5.8976   -4.0233    6.1929 O   0  0  0  0  0  0  0  0  0  0  0  0
    5.6175    6.5827    3.3570 C   0  0  2  0  0  0  0  0  0  0  0  0
    6.2778    7.3106    2.2735 O   0  0  0  0  0  0  0  0  0  0  0  0
    7.1514    4.6200    1.2446 C   0  0  2  0  0  0  0  0  0  0  0  0
    7.4364    3.6925    2.3277 O   0  0  0  0  0  0  0  0  0  0  0  0
    5.1476    3.4883    5.5520 C   0  0  0  0  0  0  0  0  0  0  0  0
    4.7983    2.8780    6.7907 O   0  0  0  0  0  0  0  0  0  0  0  0
    7.6291   -2.4041    5.5185 C   0  0  1  0  0  0  0  0  0  0  0  0
    6.5884   -1.3669    5.4112 O   0  0  0  0  0  0  0  0  0  0  0  0
    4.1529    6.4233    3.0205 C   0  0  0  0  0  0  0  0  0  0  0  0
    3.5465    7.6855    2.8843 O   0  0  0  0  0  0  0  0  0  0  0  0
    6.9500    3.8425   -0.1231 C   0  0  1  0  0  0  0  0  0  0  0  0
    5.7215    3.1105   -0.0982 O   0  0  0  0  0  0  0  0  0  0  0  0
    8.3289   -2.3351    6.9447 C   0  0  0  0  0  0  0  0  0  0  0  0
    9.4373   -3.3046    7.1637 N   0  0  0  0  0  0  0  0  0  0  0  0
  1  2  1  1  0  0  0
  1  7  1  0  0  0  0
  1 30  1  0  0  0  0
  3  4  1  6  0  0  0
  3  9  1  0  0  0  0
  3 39  1  0  0  0  0
  5 10  1  0  0  0  0
  5 26  1  0  0  0  0
  5 32  1  1  0  0  0
  6 12  1  0  0  0  0
  6 36  1  0  0  0  0
  6 19  1  1  0  0  0
  7  8  1  1  0  0  0
  7 14  1  0  0  0  0
  9 16  1  0  0  0  0
 10 11  1  6  0  0  0
 10 18  1  0  0  0  0
 12 13  1  1  0  0  0
 12 20  1  0  0  0  0
 14 15  1  1  0  0  0
 14 22  1  0  0  0  0
 16 17  1  6  0  0  0
 16 24  1  0  0  0  0
 18 19  1  6  0  0  0
 18 25  1  0  0  0  0
 20 21  1  6  0  0  0
 20 27  1  0  0  0  0
 22 23  1  1  0  0  0
 22 29  1  0  0  0  0
 24  2  1  1  0  0  0
 24 31  1  0  0  0  0
 25 26  1  0  0  0  0
 25 33  1  1  0  0  0
 27 28  1  1  0  0  0
 27 35  1  0  0  0  0
 29 30  1  0  0  0  0
 29 37  1  6  0  0  0
 31 32  1  1  0  0  0
 31 39  1  0  0  0  0
 33 34  1  0  0  0  0
 35 36  1  0  0  0  0
 35 41  1  1  0  0  0
 37 38  1  0  0  0  0
 39 40  1  1  0  0  0
 41 42  1  0  0  0  0
M  END
>  <CHROM.1>
-178.52313013,172.28709275,172.39080018,66.03356977,37.35636985,-64.79315563
61.28256922,-173.46046196,62.84684228,6.67581896,2.94916781,3.30317245,1.25901371
1.39410043,0.02269800

>  <Name>
2o3w_lig

>  <RI>
0

>  <Rbt.Current_Directory>
/home/itssahil/PROJECTS/Mol_Feturizer/New_Systems/rnas/2o3w

>  <Rbt.Executable>
rbdock ($Id: //depot/dev/client3/rdock/2013.1/src/exe/rbdock.cxx#4 $)

>  <Rbt.Library>
libRbt.so (2013.1, Build901 2013/11/27)

>  <Rbt.Parameter_File>
/export/apps/rDock/src/rDock_2013.1_src/data/scripts/dock_solv.prm

>  <Rbt.Receptor>
prm/pocket_docking_8.prm

>  <SCORE>
-20.4832

>  <SCORE.INTER>
-8.71476

>  <SCORE.INTER.CONST>
1

>  <SCORE.INTER.POLAR>
-1.45229

>  <SCORE.INTER.ROT>
9

>  <SCORE.INTER.SOLV>
16.6329

>  <SCORE.INTER.VDW>
-16.1132

>  <SCORE.INTER.norm>
-0.207494

>  <SCORE.INTRA>
-11.7684

>  <SCORE.INTRA.DIHEDRAL>
-24.4362

>  <SCORE.INTRA.DIHEDRAL.0>
27.8999

>  <SCORE.INTRA.POLAR>
0

>  <SCORE.INTRA.POLAR.0>
0

>  <SCORE.INTRA.REPUL>
0

>  <SCORE.INTRA.REPUL.0>
0

>  <SCORE.INTRA.SOLV>
-3.95336

>  <SCORE.INTRA.SOLV.lig_0>
-104.479

>  <SCORE.INTRA.VDW>
2.42632

>  <SCORE.INTRA.VDW.0>
-6.17816

>  <SCORE.INTRA.norm>
-0.280201

>  <SCORE.RESTR>
0

>  <SCORE.RESTR.CAVITY>
0

>  <SCORE.RESTR.norm>
0

>  <SCORE.SYSTEM>
0

>  <SCORE.SYSTEM.CONST>
0

>  <SCORE.SYSTEM.DIHEDRAL>
0

>  <SCORE.SYSTEM.SOLV>
0

>  <SCORE.SYSTEM.norm>
0

>  <SCORE.heavy>
42

>  <SCORE.norm>
-0.487695

>  <RMSD>
9.506

$$$$
2o3w_lig
 OpenBabel11021811463D
libRbt.so/2013.1/901 2013/11/27
 42 45  0  0  0  0  0  0  0  0999 V2000
    4.1814    6.0535    2.5071 C   0  0  2  0  0  0  0  0  0  0  0  0
    5.2555    5.8047    1.5843 O   0  0  0  0  0  0  0  0  0  0  0  0
    9.5252    6.4550    1.2060 C   0  0  2  0  0  0  0  0  0  0  0  0
   10.9337    6.8756    1.4699 N   0  0  0  0  0  0  0  0  0  0  0  0
    7.5668    3.2418    3.9055 C   0  0  1  0  0  0  0  0  0  0  0  0
    8.1087   -0.6228    6.0450 C   0  0  1  0  0  0  0  0  0  0  0  0
    2.9245    5.3193    1.9510 C   0  0  2  0  0  0  0  0  0  0  0  0
    3.2012    3.9156    1.5990 N   0  0  0  0  0  0  0  0  0  0  0  0
    8.5733    7.7076    1.0418 C   0  0  0  0  0  0  0  0  0  0  0  0
    7.0555    2.9390    5.3469 C   0  0  2  0  0  0  0  0  0  0  0  0
    7.8948    3.4812    6.3960 O   0  0  0  0  0  0  0  0  0  0  0  0
    9.4463   -1.2548    6.5744 C   0  0  2  0  0  0  0  0  0  0  0  0
   10.5638   -1.0229    5.6109 N   0  0  0  0  0  0  0  0  0  0  0  0
    2.3665    5.9938    0.6842 C   0  0  1  0  0  0  0  0  0  0  0  0
    1.1946    5.3126    0.2332 O   0  0  0  0  0  0  0  0  0  0  0  0
    7.1111    7.2017    0.7441 C   0  0  2  0  0  0  0  0  0  0  0  0
    6.1897    8.3567    0.5692 N   0  0  0  0  0  0  0  0  0  0  0  0
    6.9454    1.4139    5.3086 C   0  0  2  0  0  0  0  0  0  0  0  0
    8.1903    0.7738    5.7345 O   0  0  0  0  0  0  0  0  0  0  0  0
    9.2252   -2.8203    6.8333 C   0  0  1  0  0  0  0  0  0  0  0  0
    8.4234   -2.9882    8.0240 O   0  0  0  0  0  0  0  0  0  0  0  0
    2.0757    7.4830    0.9786 C   0  0  2  0  0  0  0  0  0  0  0  0
    1.5484    8.1111   -0.1668 O   0  0  0  0  0  0  0  0  0  0  0  0
    6.5905    6.2812    1.9178 C   0  0  2  0  0  0  0  0  0  0  0  0
    6.6004    1.0496    3.8548 C   0  0  2  0  0  0  0  0  0  0  0  0
    7.2336    2.0841    3.1056 O   0  0  0  0  0  0  0  0  0  0  0  0
    8.5168   -3.5606    5.6014 C   0  0  2  0  0  0  0  0  0  0  0  0
    9.4494   -3.5887    4.5216 O   0  0  0  0  0  0  0  0  0  0  0  0
    3.4006    8.1820    1.4321 C   0  0  2  0  0  0  0  0  0  0  0  0
    3.9329    7.5068    2.6155 O   0  0  0  0  0  0  0  0  0  0  0  0
    7.5047    5.0631    2.1741 C   0  0  2  0  0  0  0  0  0  0  0  0
    6.9863    4.4443    3.3836 O   0  0  0  0  0  0  0  0  0  0  0  0
    5.0742    0.9807    3.5380 C   0  0  0  0  0  0  0  0  0  0  0  0
    4.8929    0.6025    2.1768 O   0  0  0  0  0  0  0  0  0  0  0  0
    7.2079   -2.7962    5.1717 C   0  0  1  0  0  0  0  0  0  0  0  0
    7.6242   -1.4197    4.8520 O   0  0  0  0  0  0  0  0  0  0  0  0
    3.2064    9.6470    1.7483 C   0  0  0  0  0  0  0  0  0  0  0  0
    2.9237   10.3638    0.5712 O   0  0  0  0  0  0  0  0  0  0  0  0
    9.0041    5.5364    2.3829 C   0  0  1  0  0  0  0  0  0  0  0  0
    9.8719    4.4027    2.4689 O   0  0  0  0  0  0  0  0  0  0  0  0
    6.4568   -3.4457    3.9297 C   0  0  0  0  0  0  0  0  0  0  0  0
    7.2270   -3.4730    2.6559 N   0  0  0  0  0  0  0  0  0  0  0  0
  1  2  1  6  0  0  0
  1  7  1  0  0  0  0
  1 30  1  0  0  0  0
  3  4  1  1  0  0  0
  3  9  1  0  0  0  0
  3 39  1  0  0  0  0
  5 10  1  0  0  0  0
  5 26  1  0  0  0  0
  5 32  1  6  0  0  0
  6 12  1  0  0  0  0
  6 36  1  0  0  0  0
  6 19  1  6  0  0  0
  7  8  1  6  0  0  0
  7 14  1  0  0  0  0
  9 16  1  0  0  0  0
 10 11  1  1  0  0  0
 10 18  1  0  0  0  0
 12 13  1  6  0  0  0
 12 20  1  0  0  0  0
 14 15  1  1  0  0  0
 14 22  1  0  0  0  0
 16 17  1  1  0  0  0
 16 24  1  0  0  0  0
 18 19  1  6  0  0  0
 18 25  1  0  0  0  0
 20 21  1  1  0  0  0
 20 27  1  0  0  0  0
 22 23  1  6  0  0  0
 22 29  1  0  0  0  0
 24  2  1  6  0  0  0
 24 31  1  0  0  0  0
 25 26  1  0  0  0  0
 25 33  1  1  0  0  0
 27 28  1  6  0  0  0
 27 35  1  0  0  0  0
 29 30  1  0  0  0  0
 29 37  1  1  0  0  0
 31 32  1  1  0  0  0
 31 39  1  0  0  0  0
 33 34  1  0  0  0  0
 35 36  1  0  0  0  0
 35 41  1  6  0  0  0
 37 38  1  0  0  0  0
 39 40  1  6  0  0  0
 41 42  1  0  0  0  0
M  END
>  <CHROM.1>
-174.76221148,167.89975490,-176.75363021,165.56141221,-124.24561440,-178.50931868
-68.49561339,177.81520484,-62.45482492,6.45960216,3.22769362,3.14628944,1.95779032
-0.22464592,-0.33687416

>  <Name>
2o3w_lig

>  <RI>
0

>  <Rbt.Current_Directory>
/home/itssahil/PROJECTS/Mol_Feturizer/New_Systems/rnas/2o3w

>  <Rbt.Executable>
rbdock ($Id: //depot/dev/client3/rdock/2013.1/src/exe/rbdock.cxx#4 $)

>  <Rbt.Library>
libRbt.so (2013.1, Build901 2013/11/27)

>  <Rbt.Parameter_File>
/export/apps/rDock/src/rDock_2013.1_src/data/scripts/dock_solv.prm

>  <Rbt.Receptor>
prm/pocket_docking_3.prm

>  <SCORE>
-8.59186

>  <SCORE.INTER>
-0.310511

>  <SCORE.INTER.CONST>
1

>  <SCORE.INTER.POLAR>
0

>  <SCORE.INTER.ROT>
9

>  <SCORE.INTER.SOLV>
9.91812

>  <SCORE.INTER.VDW>
-13.113

>  <SCORE.INTER.norm>
-0.00739311

>  <SCORE.INTRA>
-8.30016

>  <SCORE.INTRA.DIHEDRAL>
-18.5452

>  <SCORE.INTRA.DIHEDRAL.0>
27.8999

>  <SCORE.INTRA.POLAR>
0

>  <SCORE.INTRA.POLAR.0>
0

>  <SCORE.INTRA.REPUL>
0

>  <SCORE.INTRA.REPUL.0>
0

>  <SCORE.INTRA.SOLV>
-0.733149

>  <SCORE.INTRA.SOLV.lig_0>
-104.479

>  <SCORE.INTRA.VDW>
1.33902

>  <SCORE.INTRA.VDW.0>
-6.17816

>  <SCORE.INTRA.norm>
-0.197623

>  <SCORE.RESTR>
0.0188126

>  <SCORE.RESTR.CAVITY>
0.0188126

>  <SCORE.RESTR.norm>
0.000447918

>  <SCORE.SYSTEM>
0

>  <SCORE.SYSTEM.CONST>
0

>  <SCORE.SYSTEM.DIHEDRAL>
0

>  <SCORE.SYSTEM.SOLV>
0

>  <SCORE.SYSTEM.norm>
0

>  <SCORE.heavy>
42

>  <SCORE.norm>
-0.204568

>  <RMSD>
9.507

$$$$
2o3w_lig
 OpenBabel11021811463D
libRbt.so/2013.1/901 2013/11/27
 42 45  0  0  0  0  0  0  0  0999 V2000
    3.7779    5.9709    1.0945 C   0  0  2  0  0  0  0  0  0  0  0  0
    4.6248    5.8906   -0.0646 O   0  0  0  0  0  0  0  0  0  0  0  0
    3.6971    1.8006   -1.1635 C   0  0  2  0  0  0  0  0  0  0  0  0
    3.6943    0.4713   -1.8440 N   0  0  0  0  0  0  0  0  0  0  0  0
    7.5165    2.9638    0.9708 C   0  0  1  0  0  0  0  0  0  0  0  0
   10.7030    1.1536    3.4495 C   0  0  1  0  0  0  0  0  0  0  0  0
    2.9747    7.3013    0.9800 C   0  0  2  0  0  0  0  0  0  0  0  0
    2.3341    7.4616   -0.3371 N   0  0  0  0  0  0  0  0  0  0  0  0
    3.2319    2.9495   -2.1461 C   0  0  0  0  0  0  0  0  0  0  0  0
    8.9372    3.5828    1.1420 C   0  0  2  0  0  0  0  0  0  0  0  0
    9.8262    3.3359    0.0249 O   0  0  0  0  0  0  0  0  0  0  0  0
   11.4610   -0.2001    3.2011 C   0  0  2  0  0  0  0  0  0  0  0  0
   10.5481   -1.2210    2.6050 N   0  0  0  0  0  0  0  0  0  0  0  0
    3.8628    8.5405    1.1963 C   0  0  1  0  0  0  0  0  0  0  0  0
    3.0795    9.7329    1.1221 O   0  0  0  0  0  0  0  0  0  0  0  0
    3.2339    4.3191   -1.3672 C   0  0  2  0  0  0  0  0  0  0  0  0
    2.7865    5.4224   -2.2594 N   0  0  0  0  0  0  0  0  0  0  0  0
    9.3673    2.9744    2.4777 C   0  0  2  0  0  0  0  0  0  0  0  0
   10.0649    1.7020    2.2896 O   0  0  0  0  0  0  0  0  0  0  0  0
   12.0814   -0.7202    4.5837 C   0  0  1  0  0  0  0  0  0  0  0  0
   13.2197    0.1029    4.9239 O   0  0  0  0  0  0  0  0  0  0  0  0
    4.5870    8.4246    2.5569 C   0  0  2  0  0  0  0  0  0  0  0  0
    5.3915    9.5597    2.7777 O   0  0  0  0  0  0  0  0  0  0  0  0
    4.6767    4.6404   -0.8094 C   0  0  2  0  0  0  0  0  0  0  0  0
    8.0773    2.7872    3.2939 C   0  0  2  0  0  0  0  0  0  0  0  0
    7.0939    2.5483    2.2898 O   0  0  0  0  0  0  0  0  0  0  0  0
   11.0243   -0.6970    5.7876 C   0  0  2  0  0  0  0  0  0  0  0  0
   10.0503   -1.7064    5.5253 O   0  0  0  0  0  0  0  0  0  0  0  0
    5.4545    7.1220    2.5643 C   0  0  2  0  0  0  0  0  0  0  0  0
    4.5991    5.9599    2.3238 O   0  0  0  0  0  0  0  0  0  0  0  0
    5.2215    3.5311    0.1167 C   0  0  2  0  0  0  0  0  0  0  0  0
    6.6036    3.8982    0.3803 O   0  0  0  0  0  0  0  0  0  0  0  0
    7.6823    4.0030    4.1884 C   0  0  0  0  0  0  0  0  0  0  0  0
    8.7615    4.3126    5.0649 O   0  0  0  0  0  0  0  0  0  0  0  0
   10.3321    0.7145    5.8923 C   0  0  1  0  0  0  0  0  0  0  0  0
    9.7127    0.9649    4.5794 O   0  0  0  0  0  0  0  0  0  0  0  0
    6.1963    6.9247    3.8661 C   0  0  0  0  0  0  0  0  0  0  0  0
    5.2842    6.8042    4.9304 O   0  0  0  0  0  0  0  0  0  0  0  0
    5.1424    2.1227   -0.6084 C   0  0  1  0  0  0  0  0  0  0  0  0
    5.5036    1.0789    0.3003 O   0  0  0  0  0  0  0  0  0  0  0  0
    9.2400    0.8163    7.0437 C   0  0  0  0  0  0  0  0  0  0  0  0
    8.6192    2.1576    7.2231 N   0  0  0  0  0  0  0  0  0  0  0  0
  1  2  1  6  0  0  0
  1  7  1  0  0  0  0
  1 30  1  0  0  0  0
  3  4  1  6  0  0  0
  3  9  1  0  0  0  0
  3 39  1  0  0  0  0
  5 10  1  0  0  0  0
  5 26  1  0  0  0  0
  5 32  1  1  0  0  0
  6 12  1  0  0  0  0
  6 36  1  0  0  0  0
  6 19  1  6  0  0  0
  7  8  1  6  0  0  0
  7 14  1  0  0  0  0
  9 16  1  0  0  0  0
 10 11  1  6  0  0  0
 10 18  1  0  0  0  0
 12 13  1  1  0  0  0
 12 20  1  0  0  0  0
 14 15  1  1  0  0  0
 14 22  1  0  0  0  0
 16 17  1  6  0  0  0
 16 24  1  0  0  0  0
 18 19  1  6  0  0  0
 18 25  1  0  0  0  0
 20 21  1  1  0  0  0
 20 27  1  0  0  0  0
 22 23  1  6  0  0  0
 22 29  1  0  0  0  0
 24  2  1  1  0  0  0
 24 31  1  0  0  0  0
 25 26  1  0  0  0  0
 25 33  1  6  0  0  0
 27 28  1  6  0  0  0
 27 35  1  0  0  0  0
 29 30  1  0  0  0  0
 29 37  1  1  0  0  0
 31 32  1  6  0  0  0
 31 39  1  0  0  0  0
 33 34  1  0  0  0  0
 35 36  1  0  0  0  0
 35 41  1  1  0  0  0
 37 38  1  0  0  0  0
 39 40  1  1  0  0  0
 41 42  1  0  0  0  0
M  END
>  <CHROM.1>
-133.14076148,179.48753402,-179.02643147,170.10811982,61.39699460,-56.30776497
61.22435802,-166.62805974,176.69756775,6.93349456,3.57625196,2.17733715,-2.91557497
0.80357887,-2.47828533

>  <Name>
2o3w_lig

>  <RI>
0

>  <Rbt.Current_Directory>
/home/itssahil/PROJECTS/Mol_Feturizer/New_Systems/rnas/2o3w

>  <Rbt.Executable>
rbdock ($Id: //depot/dev/client3/rdock/2013.1/src/exe/rbdock.cxx#4 $)

>  <Rbt.Library>
libRbt.so (2013.1, Build901 2013/11/27)

>  <Rbt.Parameter_File>
/export/apps/rDock/src/rDock_2013.1_src/data/scripts/dock_solv.prm

>  <Rbt.Receptor>
prm/pocket_docking_8.prm

>  <SCORE>
-12.3665

>  <SCORE.INTER>
-4.34465

>  <SCORE.INTER.CONST>
1

>  <SCORE.INTER.POLAR>
0

>  <SCORE.INTER.ROT>
9

>  <SCORE.INTER.SOLV>
11.7111

>  <SCORE.INTER.VDW>
-16.4002

>  <SCORE.INTER.norm>
-0.103444

>  <SCORE.INTRA>
-8.02186

>  <SCORE.INTRA.DIHEDRAL>
-19.9475

>  <SCORE.INTRA.DIHEDRAL.0>
27.8999

>  <SCORE.INTRA.POLAR>
0

>  <SCORE.INTRA.POLAR.0>
0

>  <SCORE.INTRA.REPUL>
0

>  <SCORE.INTRA.REPUL.0>
0

>  <SCORE.INTRA.SOLV>
0.212812

>  <SCORE.INTRA.SOLV.lig_0>
-104.479

>  <SCORE.INTRA.VDW>
1.84547

>  <SCORE.INTRA.VDW.0>
-6.17816

>  <SCORE.INTRA.norm>
-0.190997

>  <SCORE.RESTR>
0

>  <SCORE.RESTR.CAVITY>
0

>  <SCORE.RESTR.norm>
0

>  <SCORE.SYSTEM>
0

>  <SCORE.SYSTEM.CONST>
0

>  <SCORE.SYSTEM.DIHEDRAL>
0

>  <SCORE.SYSTEM.SOLV>
0

>  <SCORE.SYSTEM.norm>
0

>  <SCORE.heavy>
42

>  <SCORE.norm>
-0.294441

>  <RMSD>
9.518

$$$$
2o3w_lig
 OpenBabel11021811463D
libRbt.so/2013.1/901 2013/11/27
 42 45  0  0  0  0  0  0  0  0999 V2000
    4.8751    6.5619   -1.3715 C   0  0  2  0  0  0  0  0  0  0  0  0
    5.5542    5.6096   -0.5353 O   0  0  0  0  0  0  0  0  0  0  0  0
    2.6896    2.3749   -0.8917 C   0  0  2  0  0  0  0  0  0  0  0  0
    2.0116    1.0495   -0.7736 N   0  0  0  0  0  0  0  0  0  0  0  0
    5.2016    3.9578    2.4889 C   0  0  1  0  0  0  0  0  0  0  0  0
    8.7981    2.7784    4.8380 C   0  0  1  0  0  0  0  0  0  0  0  0
    5.7651    7.8400   -1.4213 C   0  0  2  0  0  0  0  0  0  0  0  0
    7.1697    7.5365   -1.7461 N   0  0  0  0  0  0  0  0  0  0  0  0
    4.0346    2.2601   -1.7162 C   0  0  0  0  0  0  0  0  0  0  0  0
    6.6253    4.5706    2.3207 C   0  0  2  0  0  0  0  0  0  0  0  0
    7.3636    4.0446    1.1906 O   0  0  0  0  0  0  0  0  0  0  0  0
    9.7055    1.5022    4.7081 C   0  0  2  0  0  0  0  0  0  0  0  0
    8.8775    0.2798    4.4816 N   0  0  0  0  0  0  0  0  0  0  0  0
    5.7724    8.5994   -0.0818 C   0  0  1  0  0  0  0  0  0  0  0  0
    6.5669    9.7822   -0.1850 O   0  0  0  0  0  0  0  0  0  0  0  0
    4.6897    3.6889   -1.8254 C   0  0  2  0  0  0  0  0  0  0  0  0
    5.9526    3.6205   -2.6090 N   0  0  0  0  0  0  0  0  0  0  0  0
    7.2330    4.2920    3.6964 C   0  0  2  0  0  0  0  0  0  0  0  0
    7.9145    2.9977    3.7313 O   0  0  0  0  0  0  0  0  0  0  0  0
   10.6014    1.3540    6.0280 C   0  0  1  0  0  0  0  0  0  0  0  0
   11.6403    2.3584    6.0027 O   0  0  0  0  0  0  0  0  0  0  0  0
    4.3201    8.9293    0.3318 C   0  0  2  0  0  0  0  0  0  0  0  0
    4.3104    9.6396    1.5483 O   0  0  0  0  0  0  0  0  0  0  0  0
    4.9881    4.2760   -0.3893 C   0  0  2  0  0  0  0  0  0  0  0  0
    6.0628    4.3326    4.6935 C   0  0  2  0  0  0  0  0  0  0  0  0
    4.9595    3.8797    3.9124 O   0  0  0  0  0  0  0  0  0  0  0  0
    9.7495    1.4978    7.3775 C   0  0  2  0  0  0  0  0  0  0  0  0
    8.9113    0.3477    7.4826 O   0  0  0  0  0  0  0  0  0  0  0  0
    3.5113    7.5959    0.4635 C   0  0  2  0  0  0  0  0  0  0  0  0
    3.5442    6.8730   -0.8078 O   0  0  0  0  0  0  0  0  0  0  0  0
    3.7254    4.3648    0.4955 C   0  0  2  0  0  0  0  0  0  0  0  0
    4.2088    4.7415    1.8142 O   0  0  0  0  0  0  0  0  0  0  0  0
    5.7740    5.7354    5.3125 C   0  0  0  0  0  0  0  0  0  0  0  0
    5.3866    6.6351    4.2785 O   0  0  0  0  0  0  0  0  0  0  0  0
    8.8757    2.8084    7.3461 C   0  0  1  0  0  0  0  0  0  0  0  0
    8.0322    2.7091    6.1424 O   0  0  0  0  0  0  0  0  0  0  0  0
    2.0715    7.8259    0.8605 C   0  0  0  0  0  0  0  0  0  0  0  0
    2.0088    8.4250    2.1319 O   0  0  0  0  0  0  0  0  0  0  0  0
    2.9906    2.9601    0.5461 C   0  0  1  0  0  0  0  0  0  0  0  0
    1.7448    3.0796    1.2384 O   0  0  0  0  0  0  0  0  0  0  0  0
    7.9698    3.0138    8.6367 C   0  0  0  0  0  0  0  0  0  0  0  0
    8.7031    3.3370    9.8914 N   0  0  0  0  0  0  0  0  0  0  0  0
  1  2  1  1  0  0  0
  1  7  1  0  0  0  0
  1 30  1  0  0  0  0
  3  4  1  1  0  0  0
  3  9  1  0  0  0  0
  3 39  1  0  0  0  0
  5 10  1  0  0  0  0
  5 26  1  0  0  0  0
  5 32  1  6  0  0  0
  6 12  1  0  0  0  0
  6 36  1  0  0  0  0
  6 19  1  6  0  0  0
  7  8  1  1  0  0  0
  7 14  1  0  0  0  0
  9 16  1  0  0  0  0
 10 11  1  6  0  0  0
 10 18  1  0  0  0  0
 12 13  1  1  0  0  0
 12 20  1  0  0  0  0
 14 15  1  6  0  0  0
 14 22  1  0  0  0  0
 16 17  1  6  0  0  0
 16 24  1  0  0  0  0
 18 19  1  6  0  0  0
 18 25  1  0  0  0  0
 20 21  1  6  0  0  0
 20 27  1  0  0  0  0
 22 23  1  1  0  0  0
 22 29  1  0  0  0  0
 24  2  1  6  0  0  0
 24 31  1  0  0  0  0
 25 26  1  0  0  0  0
 25 33  1  6  0  0  0
 27 28  1  6  0  0  0
 27 35  1  0  0  0  0
 29 30  1  0  0  0  0
 29 37  1  6  0  0  0
 31 32  1  1  0  0  0
 31 39  1  0  0  0  0
 33 34  1  0  0  0  0
 35 36  1  0  0  0  0
 35 41  1  1  0  0  0
 37 38  1  0  0  0  0
 39 40  1  6  0  0  0
 41 42  1  0  0  0  0
M  END
>  <CHROM.1>
-175.61487311,98.55000143,-169.30969641,164.76450622,50.56446405,63.16209884
-62.77508387,-55.91152557,69.75885751,5.96406660,4.55413113,2.39765332,-2.80967596
0.99365576,-2.99347721

>  <Name>
2o3w_lig

>  <RI>
0

>  <Rbt.Current_Directory>
/home/itssahil/PROJECTS/Mol_Feturizer/New_Systems/rnas/2o3w

>  <Rbt.Executable>
rbdock ($Id: //depot/dev/client3/rdock/2013.1/src/exe/rbdock.cxx#4 $)

>  <Rbt.Library>
libRbt.so (2013.1, Build901 2013/11/27)

>  <Rbt.Parameter_File>
/export/apps/rDock/src/rDock_2013.1_src/data/scripts/dock_solv.prm

>  <Rbt.Receptor>
prm/pocket_docking_7.prm

>  <SCORE>
-15.002

>  <SCORE.INTER>
-5.1437

>  <SCORE.INTER.CONST>
1

>  <SCORE.INTER.POLAR>
-0.992515

>  <SCORE.INTER.ROT>
9

>  <SCORE.INTER.SOLV>
13.4412

>  <SCORE.INTER.VDW>
-14.2011

>  <SCORE.INTER.norm>
-0.122469

>  <SCORE.INTRA>
-9.85826

>  <SCORE.INTRA.DIHEDRAL>
-19.9716

>  <SCORE.INTRA.DIHEDRAL.0>
27.8999

>  <SCORE.INTRA.POLAR>
0

>  <SCORE.INTRA.POLAR.0>
0

>  <SCORE.INTRA.REPUL>
0

>  <SCORE.INTRA.REPUL.0>
0

>  <SCORE.INTRA.SOLV>
-3.84801

>  <SCORE.INTRA.SOLV.lig_0>
-104.479

>  <SCORE.INTRA.VDW>
2.05153

>  <SCORE.INTRA.VDW.0>
-6.17816

>  <SCORE.INTRA.norm>
-0.234721

>  <SCORE.RESTR>
0

>  <SCORE.RESTR.CAVITY>
0

>  <SCORE.RESTR.norm>
0

>  <SCORE.SYSTEM>
0

>  <SCORE.SYSTEM.CONST>
0

>  <SCORE.SYSTEM.DIHEDRAL>
0

>  <SCORE.SYSTEM.SOLV>
0

>  <SCORE.SYSTEM.norm>
0

>  <SCORE.heavy>
42

>  <SCORE.norm>
-0.35719

>  <RMSD>
9.561

$$$$
2o3w_lig
 OpenBabel11021811463D
libRbt.so/2013.1/901 2013/11/27
 42 45  0  0  0  0  0  0  0  0999 V2000
    4.5446    6.2168   -3.0834 C   0  0  2  0  0  0  0  0  0  0  0  0
    4.2170    6.4225   -1.6986 O   0  0  0  0  0  0  0  0  0  0  0  0
    4.6037   10.7383   -1.5544 C   0  0  2  0  0  0  0  0  0  0  0  0
    4.5083   12.1663   -1.1277 N   0  0  0  0  0  0  0  0  0  0  0  0
    6.9263    7.9756    1.1752 C   0  0  1  0  0  0  0  0  0  0  0  0
   10.1729    7.5582    4.2883 C   0  0  1  0  0  0  0  0  0  0  0  0
    4.6674    4.6783   -3.2983 C   0  0  2  0  0  0  0  0  0  0  0  0
    3.5114    3.9399   -2.7607 N   0  0  0  0  0  0  0  0  0  0  0  0
    3.1758   10.1384   -1.8751 C   0  0  0  0  0  0  0  0  0  0  0  0
    7.2226    6.9332    2.2961 C   0  0  2  0  0  0  0  0  0  0  0  0
    6.5277    7.1927    3.5407 O   0  0  0  0  0  0  0  0  0  0  0  0
    9.8410    6.1817    4.9696 C   0  0  2  0  0  0  0  0  0  0  0  0
    8.4895    6.2131    5.6048 N   0  0  0  0  0  0  0  0  0  0  0  0
    5.9218    4.0925   -2.6243 C   0  0  1  0  0  0  0  0  0  0  0  0
    6.0148    2.6901   -2.8801 O   0  0  0  0  0  0  0  0  0  0  0  0
    3.3434    8.6422   -2.3396 C   0  0  2  0  0  0  0  0  0  0  0  0
    2.0179    8.0495   -2.6643 N   0  0  0  0  0  0  0  0  0  0  0  0
    8.7492    6.9963    2.3644 C   0  0  2  0  0  0  0  0  0  0  0  0
    9.2037    7.9984    3.3289 O   0  0  0  0  0  0  0  0  0  0  0  0
   10.9756    5.8381    6.0473 C   0  0  1  0  0  0  0  0  0  0  0  0
   12.1793    5.4466    5.3497 O   0  0  0  0  0  0  0  0  0  0  0  0
    7.1758    4.8425   -3.1285 C   0  0  2  0  0  0  0  0  0  0  0  0
    8.3348    4.3068   -2.5333 O   0  0  0  0  0  0  0  0  0  0  0  0
    4.0460    7.7849   -1.2139 C   0  0  2  0  0  0  0  0  0  0  0  0
    9.2241    7.3366    0.9417 C   0  0  2  0  0  0  0  0  0  0  0  0
    8.1542    8.1253    0.4262 O   0  0  0  0  0  0  0  0  0  0  0  0
   11.2978    7.0664    7.0245 C   0  0  2  0  0  0  0  0  0  0  0  0
   10.1630    7.2543    7.8691 O   0  0  0  0  0  0  0  0  0  0  0  0
    7.0321    6.3635   -2.7885 C   0  0  2  0  0  0  0  0  0  0  0  0
    5.8180    6.8936   -3.4089 O   0  0  0  0  0  0  0  0  0  0  0  0
    5.4263    8.3461   -0.8075 C   0  0  2  0  0  0  0  0  0  0  0  0
    5.8345    7.5589    0.3450 O   0  0  0  0  0  0  0  0  0  0  0  0
    9.5026    6.1029    0.0281 C   0  0  0  0  0  0  0  0  0  0  0  0
    9.9734    6.5524   -1.2388 O   0  0  0  0  0  0  0  0  0  0  0  0
   11.5836    8.3756    6.1960 C   0  0  1  0  0  0  0  0  0  0  0  0
   10.3893    8.6020    5.3637 O   0  0  0  0  0  0  0  0  0  0  0  0
    8.2171    7.1778   -3.2537 C   0  0  0  0  0  0  0  0  0  0  0  0
    8.1763    8.4631   -2.6830 O   0  0  0  0  0  0  0  0  0  0  0  0
    5.3042    9.8806   -0.4255 C   0  0  1  0  0  0  0  0  0  0  0  0
    6.6018   10.4369   -0.1965 O   0  0  0  0  0  0  0  0  0  0  0  0
   11.8808    9.6562    7.0906 C   0  0  0  0  0  0  0  0  0  0  0  0
   10.7144   10.2032    7.8368 N   0  0  0  0  0  0  0  0  0  0  0  0
  1  2  1  1  0  0  0
  1  7  1  0  0  0  0
  1 30  1  0  0  0  0
  3  4  1  1  0  0  0
  3  9  1  0  0  0  0
  3 39  1  0  0  0  0
  5 10  1  0  0  0  0
  5 26  1  0  0  0  0
  5 32  1  6  0  0  0
  6 12  1  0  0  0  0
  6 36  1  0  0  0  0
  6 19  1  6  0  0  0
  7  8  1  1  0  0  0
  7 14  1  0  0  0  0
  9 16  1  0  0  0  0
 10 11  1  1  0  0  0
 10 18  1  0  0  0  0
 12 13  1  1  0  0  0
 12 20  1  0  0  0  0
 14 15  1  6  0  0  0
 14 22  1  0  0  0  0
 16 17  1  1  0  0  0
 16 24  1  0  0  0  0
 18 19  1  1  0  0  0
 18 25  1  0  0  0  0
 20 21  1  6  0  0  0
 20 27  1  0  0  0  0
 22 23  1  1  0  0  0
 22 29  1  0  0  0  0
 24  2  1  6  0  0  0
 24 31  1  0  0  0  0
 25 26  1  0  0  0  0
 25 33  1  6  0  0  0
 27 28  1  1  0  0  0
 27 35  1  0  0  0  0
 29 30  1  0  0  0  0
 29 37  1  6  0  0  0
 31 32  1  1  0  0  0
 31 39  1  0  0  0  0
 33 34  1  0  0  0  0
 35 36  1  0  0  0  0
 35 41  1  1  0  0  0
 37 38  1  0  0  0  0
 39 40  1  6  0  0  0
 41 42  1  0  0  0  0
M  END
>  <CHROM.1>
179.76709679,-176.89526071,-46.32793323,129.43158162,36.99338877,-178.16969058
-167.50871532,-166.29613358,-70.42733202,7.45119990,7.31030378,0.82430044
-2.49820937,-0.81645876,0.71169345

>  <Name>
2o3w_lig

>  <RI>
0

>  <Rbt.Current_Directory>
/home/itssahil/PROJECTS/Mol_Feturizer/New_Systems/rnas/2o3w

>  <Rbt.Executable>
rbdock ($Id: //depot/dev/client3/rdock/2013.1/src/exe/rbdock.cxx#4 $)

>  <Rbt.Library>
libRbt.so (2013.1, Build901 2013/11/27)

>  <Rbt.Parameter_File>
/export/apps/rDock/src/rDock_2013.1_src/data/scripts/dock_solv.prm

>  <Rbt.Receptor>
prm/pocket_docking_8.prm

>  <SCORE>
-31.7963

>  <SCORE.INTER>
-25.6366

>  <SCORE.INTER.CONST>
1

>  <SCORE.INTER.POLAR>
-4.35838

>  <SCORE.INTER.ROT>
9

>  <SCORE.INTER.SOLV>
18.8305

>  <SCORE.INTER.VDW>
-18.44

>  <SCORE.INTER.norm>
-0.610394

>  <SCORE.INTRA>
-6.1597

>  <SCORE.INTRA.DIHEDRAL>
-15.9663

>  <SCORE.INTRA.DIHEDRAL.0>
27.8999

>  <SCORE.INTRA.POLAR>
0

>  <SCORE.INTRA.POLAR.0>
0

>  <SCORE.INTRA.REPUL>
0

>  <SCORE.INTRA.REPUL.0>
0

>  <SCORE.INTRA.SOLV>
0.420979

>  <SCORE.INTRA.SOLV.lig_0>
-104.479

>  <SCORE.INTRA.VDW>
1.61294

>  <SCORE.INTRA.VDW.0>
-6.17816

>  <SCORE.INTRA.norm>
-0.14666

>  <SCORE.RESTR>
0

>  <SCORE.RESTR.CAVITY>
0

>  <SCORE.RESTR.norm>
0

>  <SCORE.SYSTEM>
0

>  <SCORE.SYSTEM.CONST>
0

>  <SCORE.SYSTEM.DIHEDRAL>
0

>  <SCORE.SYSTEM.SOLV>
0

>  <SCORE.SYSTEM.norm>
0

>  <SCORE.heavy>
42

>  <SCORE.norm>
-0.757054

>  <RMSD>
9.594

$$$$
2o3w_lig
 OpenBabel11021811463D
libRbt.so/2013.1/901 2013/11/27
 42 45  0  0  0  0  0  0  0  0999 V2000
    6.8663    8.3886    1.8706 C   0  0  2  0  0  0  0  0  0  0  0  0
    6.8945    7.7014    0.6079 O   0  0  0  0  0  0  0  0  0  0  0  0
    2.8201    8.4312   -0.6814 C   0  0  2  0  0  0  0  0  0  0  0  0
    1.5943    8.5830   -1.5209 N   0  0  0  0  0  0  0  0  0  0  0  0
    5.2675    4.3340    0.4611 C   0  0  1  0  0  0  0  0  0  0  0  0
    5.8790    0.1975    2.0688 C   0  0  1  0  0  0  0  0  0  0  0  0
    7.9719    7.7477    2.7623 C   0  0  2  0  0  0  0  0  0  0  0  0
    9.2702    7.6562    2.0719 N   0  0  0  0  0  0  0  0  0  0  0  0
    3.9167    9.5037   -1.0676 C   0  0  0  0  0  0  0  0  0  0  0  0
    5.4337    3.0269   -0.3724 C   0  0  2  0  0  0  0  0  0  0  0  0
    4.1853    2.4747   -0.8577 O   0  0  0  0  0  0  0  0  0  0  0  0
    4.9613   -0.4872    3.1450 C   0  0  2  0  0  0  0  0  0  0  0  0
    4.5594    0.4886    4.2019 N   0  0  0  0  0  0  0  0  0  0  0  0
    7.6059    6.3212    3.2120 C   0  0  1  0  0  0  0  0  0  0  0  0
    8.6269    5.7889    4.0576 O   0  0  0  0  0  0  0  0  0  0  0  0
    5.1722    9.3080   -0.1360 C   0  0  2  0  0  0  0  0  0  0  0  0
    6.2205   10.3120   -0.4627 N   0  0  0  0  0  0  0  0  0  0  0  0
    6.2107    2.1465    0.6077 C   0  0  2  0  0  0  0  0  0  0  0  0
    5.3121    1.3614    1.4544 O   0  0  0  0  0  0  0  0  0  0  0  0
    5.7347   -1.7380    3.7806 C   0  0  1  0  0  0  0  0  0  0  0  0
    5.7647   -2.8102    2.8118 O   0  0  0  0  0  0  0  0  0  0  0  0
    6.2353    6.3416    3.9263 C   0  0  2  0  0  0  0  0  0  0  0  0
    5.8933    5.0454    4.3592 O   0  0  0  0  0  0  0  0  0  0  0  0
    5.7640    7.8521   -0.2973 C   0  0  2  0  0  0  0  0  0  0  0  0
    7.0724    3.1045    1.4475 C   0  0  2  0  0  0  0  0  0  0  0  0
    6.2859    4.2929    1.4869 O   0  0  0  0  0  0  0  0  0  0  0  0
    7.2304   -1.3810    4.2313 C   0  0  2  0  0  0  0  0  0  0  0  0
    7.1444   -0.5086    5.3574 O   0  0  0  0  0  0  0  0  0  0  0  0
    5.1543    6.8987    2.9410 C   0  0  2  0  0  0  0  0  0  0  0  0
    5.5363    8.2398    2.4989 O   0  0  0  0  0  0  0  0  0  0  0  0
    4.7291    6.7476    0.0099 C   0  0  2  0  0  0  0  0  0  0  0  0
    5.3784    5.5012   -0.3638 O   0  0  0  0  0  0  0  0  0  0  0  0
    8.4929    3.3904    0.8691 C   0  0  0  0  0  0  0  0  0  0  0  0
    9.2467    4.1361    1.8202 O   0  0  0  0  0  0  0  0  0  0  0  0
    8.0124   -0.6799    3.0570 C   0  0  1  0  0  0  0  0  0  0  0  0
    7.2231    0.5094    2.6924 O   0  0  0  0  0  0  0  0  0  0  0  0
    3.7779    6.9598    3.5619 C   0  0  0  0  0  0  0  0  0  0  0  0
    2.8436    7.4362    2.6241 O   0  0  0  0  0  0  0  0  0  0  0  0
    3.4133    6.9747   -0.8461 C   0  0  1  0  0  0  0  0  0  0  0  0
    2.4014    6.0440   -0.4519 O   0  0  0  0  0  0  0  0  0  0  0  0
    9.4999   -0.2593    3.4298 C   0  0  0  0  0  0  0  0  0  0  0  0
   10.4306   -1.3835    3.7238 N   0  0  0  0  0  0  0  0  0  0  0  0
  1  2  1  6  0  0  0
  1  7  1  0  0  0  0
  1 30  1  0  0  0  0
  3  4  1  6  0  0  0
  3  9  1  0  0  0  0
  3 39  1  0  0  0  0
  5 10  1  0  0  0  0
  5 26  1  0  0  0  0
  5 32  1  6  0  0  0
  6 12  1  0  0  0  0
  6 36  1  0  0  0  0
  6 19  1  1  0  0  0
  7  8  1  6  0  0  0
  7 14  1  0  0  0  0
  9 16  1  0  0  0  0
 10 11  1  1  0  0  0
 10 18  1  0  0  0  0
 12 13  1  1  0  0  0
 12 20  1  0  0  0  0
 14 15  1  1  0  0  0
 14 22  1  0  0  0  0
 16 17  1  6  0  0  0
 16 24  1  0  0  0  0
 18 19  1  1  0  0  0
 18 25  1  0  0  0  0
 20 21  1  6  0  0  0
 20 27  1  0  0  0  0
 22 23  1  6  0  0  0
 22 29  1  0  0  0  0
 24  2  1  1  0  0  0
 24 31  1  0  0  0  0
 25 26  1  0  0  0  0
 25 33  1  6  0  0  0
 27 28  1  1  0  0  0
 27 35  1  0  0  0  0
 29 30  1  0  0  0  0
 29 37  1  1  0  0  0
 31 32  1  6  0  0  0
 31 39  1  0  0  0  0
 33 34  1  0  0  0  0
 35 36  1  0  0  0  0
 35 41  1  1  0  0  0
 37 38  1  0  0  0  0
 39 40  1  1  0  0  0
 41 42  1  0  0  0  0
M  END
>  <CHROM.1>
164.69248673,153.66950766,170.66163941,159.35895724,33.38788215,-172.19630846
-178.59092947,137.86765863,64.97210959,6.00070859,4.36008015,1.77930380,-1.86918279
0.55188703,2.98420314

>  <Name>
2o3w_lig

>  <RI>
0

>  <Rbt.Current_Directory>
/home/itssahil/PROJECTS/Mol_Feturizer/New_Systems/rnas/2o3w

>  <Rbt.Executable>
rbdock ($Id: //depot/dev/client3/rdock/2013.1/src/exe/rbdock.cxx#4 $)

>  <Rbt.Library>
libRbt.so (2013.1, Build901 2013/11/27)

>  <Rbt.Parameter_File>
/export/apps/rDock/src/rDock_2013.1_src/data/scripts/dock_solv.prm

>  <Rbt.Receptor>
prm/pocket_docking_3.prm

>  <SCORE>
-9.46943

>  <SCORE.INTER>
-2.23681

>  <SCORE.INTER.CONST>
1

>  <SCORE.INTER.POLAR>
-1

>  <SCORE.INTER.ROT>
9

>  <SCORE.INTER.SOLV>
11.0828

>  <SCORE.INTER.VDW>
-11.4521

>  <SCORE.INTER.norm>
-0.0532574

>  <SCORE.INTRA>
-7.23262

>  <SCORE.INTRA.DIHEDRAL>
-12.4568

>  <SCORE.INTRA.DIHEDRAL.0>
27.8999

>  <SCORE.INTRA.POLAR>
0

>  <SCORE.INTRA.POLAR.0>
0

>  <SCORE.INTRA.REPUL>
0

>  <SCORE.INTRA.REPUL.0>
0

>  <SCORE.INTRA.SOLV>
-1.75232

>  <SCORE.INTRA.SOLV.lig_0>
-104.479

>  <SCORE.INTRA.VDW>
-0.128081

>  <SCORE.INTRA.VDW.0>
-6.17816

>  <SCORE.INTRA.norm>
-0.172205

>  <SCORE.RESTR>
0

>  <SCORE.RESTR.CAVITY>
0

>  <SCORE.RESTR.norm>
0

>  <SCORE.SYSTEM>
0

>  <SCORE.SYSTEM.CONST>
0

>  <SCORE.SYSTEM.DIHEDRAL>
0

>  <SCORE.SYSTEM.SOLV>
0

>  <SCORE.SYSTEM.norm>
0

>  <SCORE.heavy>
42

>  <SCORE.norm>
-0.225463

>  <RMSD>
9.607

$$$$
2o3w_lig
 OpenBabel11021811463D
libRbt.so/2013.1/901 2013/11/27
 42 45  0  0  0  0  0  0  0  0999 V2000
    4.3947    6.0726   -0.0713 C   0  0  2  0  0  0  0  0  0  0  0  0
    5.6295    6.5692   -0.6153 O   0  0  0  0  0  0  0  0  0  0  0  0
    9.7454    6.4808    0.7439 C   0  0  2  0  0  0  0  0  0  0  0  0
   10.9728    6.5955    1.5870 N   0  0  0  0  0  0  0  0  0  0  0  0
    6.6217    3.4161    2.0134 C   0  0  1  0  0  0  0  0  0  0  0  0
    6.2714   -0.7526    3.4863 C   0  0  1  0  0  0  0  0  0  0  0  0
    3.4566    5.7667   -1.2774 C   0  0  2  0  0  0  0  0  0  0  0  0
    4.1159    4.9503   -2.3115 N   0  0  0  0  0  0  0  0  0  0  0  0
    9.0816    7.8958    0.5010 C   0  0  0  0  0  0  0  0  0  0  0  0
    5.3496    2.8329    2.7008 C   0  0  2  0  0  0  0  0  0  0  0  0
    5.2091    3.2057    4.0937 O   0  0  0  0  0  0  0  0  0  0  0  0
    6.9402   -1.4214    4.7410 C   0  0  2  0  0  0  0  0  0  0  0  0
    8.3362   -0.9250    4.9295 N   0  0  0  0  0  0  0  0  0  0  0  0
    2.9607    7.0484   -1.9717 C   0  0  1  0  0  0  0  0  0  0  0  0
    2.0745    6.7223   -3.0437 O   0  0  0  0  0  0  0  0  0  0  0  0
    7.8091    7.7129   -0.4099 C   0  0  2  0  0  0  0  0  0  0  0  0
    7.1664    9.0290   -0.6714 N   0  0  0  0  0  0  0  0  0  0  0  0
    5.5246    1.3378    2.4298 C   0  0  2  0  0  0  0  0  0  0  0  0
    6.2712    0.6804    3.5027 O   0  0  0  0  0  0  0  0  0  0  0  0
    6.9141   -3.0139    4.5681 C   0  0  1  0  0  0  0  0  0  0  0  0
    5.5623   -3.4837    4.7704 O   0  0  0  0  0  0  0  0  0  0  0  0
    2.2763    7.9659   -0.9329 C   0  0  2  0  0  0  0  0  0  0  0  0
    1.8017    9.1367   -1.5561 O   0  0  0  0  0  0  0  0  0  0  0  0
    6.7685    6.7416    0.2753 C   0  0  2  0  0  0  0  0  0  0  0  0
    6.2692    1.2339    1.0881 C   0  0  2  0  0  0  0  0  0  0  0  0
    7.0703    2.4131    1.0733 O   0  0  0  0  0  0  0  0  0  0  0  0
    7.4384   -3.4923    3.1316 C   0  0  2  0  0  0  0  0  0  0  0  0
    8.8403   -3.2318    3.0759 O   0  0  0  0  0  0  0  0  0  0  0  0
    3.3042    8.3169    0.1939 C   0  0  2  0  0  0  0  0  0  0  0  0
    3.7890    7.0862    0.8184 O   0  0  0  0  0  0  0  0  0  0  0  0
    7.3655    5.3535    0.5950 C   0  0  2  0  0  0  0  0  0  0  0  0
    6.3465    4.6700    1.3753 O   0  0  0  0  0  0  0  0  0  0  0  0
    5.3503    1.1639   -0.1709 C   0  0  0  0  0  0  0  0  0  0  0  0
    4.5102    0.0174   -0.0769 O   0  0  0  0  0  0  0  0  0  0  0  0
    6.6933   -2.7157    1.9810 C   0  0  1  0  0  0  0  0  0  0  0  0
    6.9329   -1.2839    2.2321 O   0  0  0  0  0  0  0  0  0  0  0  0
    2.7148    9.2100    1.2610 C   0  0  0  0  0  0  0  0  0  0  0  0
    1.6509    8.5551    1.9080 O   0  0  0  0  0  0  0  0  0  0  0  0
    8.7033    5.5109    1.4323 C   0  0  1  0  0  0  0  0  0  0  0  0
    9.3346    4.2382    1.5976 O   0  0  0  0  0  0  0  0  0  0  0  0
    7.1776   -3.1055    0.5174 C   0  0  0  0  0  0  0  0  0  0  0  0
    6.8949   -4.5062    0.0992 N   0  0  0  0  0  0  0  0  0  0  0  0
  1  2  1  6  0  0  0
  1  7  1  0  0  0  0
  1 30  1  0  0  0  0
  3  4  1  1  0  0  0
  3  9  1  0  0  0  0
  3 39  1  0  0  0  0
  5 10  1  0  0  0  0
  5 26  1  0  0  0  0
  5 32  1  6  0  0  0
  6 12  1  0  0  0  0
  6 36  1  0  0  0  0
  6 19  1  1  0  0  0
  7  8  1  6  0  0  0
  7 14  1  0  0  0  0
  9 16  1  0  0  0  0
 10 11  1  1  0  0  0
 10 18  1  0  0  0  0
 12 13  1  6  0  0  0
 12 20  1  0  0  0  0
 14 15  1  6  0  0  0
 14 22  1  0  0  0  0
 16 17  1  1  0  0  0
 16 24  1  0  0  0  0
 18 19  1  1  0  0  0
 18 25  1  0  0  0  0
 20 21  1  6  0  0  0
 20 27  1  0  0  0  0
 22 23  1  6  0  0  0
 22 29  1  0  0  0  0
 24  2  1  6  0  0  0
 24 31  1  0  0  0  0
 25 26  1  0  0  0  0
 25 33  1  6  0  0  0
 27 28  1  1  0  0  0
 27 35  1  0  0  0  0
 29 30  1  0  0  0  0
 29 37  1  1  0  0  0
 31 32  1  1  0  0  0
 31 39  1  0  0  0  0
 33 34  1  0  0  0  0
 35 36  1  0  0  0  0
 35 41  1  6  0  0  0
 37 38  1  0  0  0  0
 39 40  1  6  0  0  0
 41 42  1  0  0  0  0
M  END
>  <CHROM.1>
-170.55687242,-175.86747163,-173.26855023,168.31134367,-161.50766187,-59.99201725
62.31354725,-171.17510918,65.28626150,5.96029987,3.32701121,1.18617464,1.82896279
-0.31275462,-0.24033673

>  <Name>
2o3w_lig

>  <RI>
0

>  <Rbt.Current_Directory>
/home/itssahil/PROJECTS/Mol_Feturizer/New_Systems/rnas/2o3w

>  <Rbt.Executable>
rbdock ($Id: //depot/dev/client3/rdock/2013.1/src/exe/rbdock.cxx#4 $)

>  <Rbt.Library>
libRbt.so (2013.1, Build901 2013/11/27)

>  <Rbt.Parameter_File>
/export/apps/rDock/src/rDock_2013.1_src/data/scripts/dock_solv.prm

>  <Rbt.Receptor>
prm/pocket_docking_4.prm

>  <SCORE>
-14.2772

>  <SCORE.INTER>
-1.78419

>  <SCORE.INTER.CONST>
1

>  <SCORE.INTER.POLAR>
-0.814815

>  <SCORE.INTER.ROT>
9

>  <SCORE.INTER.SOLV>
11.0828

>  <SCORE.INTER.VDW>
-11.7677

>  <SCORE.INTER.norm>
-0.0424808

>  <SCORE.INTRA>
-12.493

>  <SCORE.INTRA.DIHEDRAL>
-24.321

>  <SCORE.INTRA.DIHEDRAL.0>
27.8999

>  <SCORE.INTRA.POLAR>
0

>  <SCORE.INTRA.POLAR.0>
0

>  <SCORE.INTRA.REPUL>
0

>  <SCORE.INTRA.REPUL.0>
0

>  <SCORE.INTRA.SOLV>
-5.07621

>  <SCORE.INTRA.SOLV.lig_0>
-104.479

>  <SCORE.INTRA.VDW>
2.2056

>  <SCORE.INTRA.VDW.0>
-6.17816

>  <SCORE.INTRA.norm>
-0.297453

>  <SCORE.RESTR>
0

>  <SCORE.RESTR.CAVITY>
0

>  <SCORE.RESTR.norm>
0

>  <SCORE.SYSTEM>
0

>  <SCORE.SYSTEM.CONST>
0

>  <SCORE.SYSTEM.DIHEDRAL>
0

>  <SCORE.SYSTEM.SOLV>
0

>  <SCORE.SYSTEM.norm>
0

>  <SCORE.heavy>
42

>  <SCORE.norm>
-0.339934

>  <RMSD>
9.636

$$$$
2o3w_lig
 OpenBabel11021811463D
libRbt.so/2013.1/901 2013/11/27
 42 45  0  0  0  0  0  0  0  0999 V2000
    7.0938    6.1826    4.6607 C   0  0  2  0  0  0  0  0  0  0  0  0
    6.1788    7.2383    4.3208 O   0  0  0  0  0  0  0  0  0  0  0  0
    2.6023    7.3324    1.8723 C   0  0  2  0  0  0  0  0  0  0  0  0
    1.6492    7.1866    0.7317 N   0  0  0  0  0  0  0  0  0  0  0  0
    4.3330    3.5517    3.9551 C   0  0  1  0  0  0  0  0  0  0  0  0
    3.2828   -0.7084    4.4876 C   0  0  1  0  0  0  0  0  0  0  0  0
    7.9350    6.6823    5.8735 C   0  0  2  0  0  0  0  0  0  0  0  0
    7.0959    7.2238    6.9567 N   0  0  0  0  0  0  0  0  0  0  0  0
    3.7554    8.3591    1.5290 C   0  0  0  0  0  0  0  0  0  0  0  0
    4.3124    2.5173    2.7887 C   0  0  2  0  0  0  0  0  0  0  0  0
    3.1273    2.5892    1.9583 O   0  0  0  0  0  0  0  0  0  0  0  0
    3.8916   -1.7847    3.5181 C   0  0  2  0  0  0  0  0  0  0  0  0
    3.1591   -1.8053    2.2165 N   0  0  0  0  0  0  0  0  0  0  0  0
    8.9248    7.7941    5.4796 C   0  0  1  0  0  0  0  0  0  0  0  0
    9.7005    8.1931    6.6109 O   0  0  0  0  0  0  0  0  0  0  0  0
    4.7124    8.4867    2.7743 C   0  0  2  0  0  0  0  0  0  0  0  0
    5.8033    9.4579    2.4911 N   0  0  0  0  0  0  0  0  0  0  0  0
    4.5083    1.2060    3.5512 C   0  0  2  0  0  0  0  0  0  0  0  0
    3.2287    0.6182    3.9483 O   0  0  0  0  0  0  0  0  0  0  0  0
    3.8460   -3.2208    4.2269 C   0  0  1  0  0  0  0  0  0  0  0  0
    4.8578   -3.2651    5.2580 O   0  0  0  0  0  0  0  0  0  0  0  0
    9.8246    7.2980    4.3249 C   0  0  2  0  0  0  0  0  0  0  0  0
   10.7480    8.2987    3.9636 O   0  0  0  0  0  0  0  0  0  0  0  0
    5.3353    7.0828    3.1441 C   0  0  2  0  0  0  0  0  0  0  0  0
    5.3671    1.5530    4.7789 C   0  0  2  0  0  0  0  0  0  0  0  0
    4.9892    2.8975    5.0654 O   0  0  0  0  0  0  0  0  0  0  0  0
    2.4148   -3.5541    4.8657 C   0  0  2  0  0  0  0  0  0  0  0  0
    1.4975   -3.7483    3.7900 O   0  0  0  0  0  0  0  0  0  0  0  0
    8.9232    6.9110    3.1054 C   0  0  2  0  0  0  0  0  0  0  0  0
    7.9679    5.8788    3.5077 O   0  0  0  0  0  0  0  0  0  0  0  0
    4.2632    6.0106    3.4379 C   0  0  2  0  0  0  0  0  0  0  0  0
    4.9977    4.7628    3.5722 O   0  0  0  0  0  0  0  0  0  0  0  0
    6.9074    1.4377    4.5586 C   0  0  0  0  0  0  0  0  0  0  0  0
    7.2664    2.1372    3.3709 O   0  0  0  0  0  0  0  0  0  0  0  0
    1.9299   -2.3735    5.7894 C   0  0  1  0  0  0  0  0  0  0  0  0
    1.9134   -1.1698    4.9403 O   0  0  0  0  0  0  0  0  0  0  0  0
    9.7240    6.4066    1.9272 C   0  0  0  0  0  0  0  0  0  0  0  0
   10.4465    5.2550    2.2894 O   0  0  0  0  0  0  0  0  0  0  0  0
    3.2275    5.9271    2.2395 C   0  0  1  0  0  0  0  0  0  0  0  0
    2.1527    5.0458    2.5767 O   0  0  0  0  0  0  0  0  0  0  0  0
    0.4979   -2.6067    6.4402 C   0  0  0  0  0  0  0  0  0  0  0  0
   -0.0373   -1.4700    7.2390 N   0  0  0  0  0  0  0  0  0  0  0  0
  1  2  1  6  0  0  0
  1  7  1  0  0  0  0
  1 30  1  0  0  0  0
  3  4  1  6  0  0  0
  3  9  1  0  0  0  0
  3 39  1  0  0  0  0
  5 10  1  0  0  0  0
  5 26  1  0  0  0  0
  5 32  1  6  0  0  0
  6 12  1  0  0  0  0
  6 36  1  0  0  0  0
  6 19  1  6  0  0  0
  7  8  1  1  0  0  0
  7 14  1  0  0  0  0
  9 16  1  0  0  0  0
 10 11  1  1  0  0  0
 10 18  1  0  0  0  0
 12 13  1  6  0  0  0
 12 20  1  0  0  0  0
 14 15  1  1  0  0  0
 14 22  1  0  0  0  0
 16 17  1  6  0  0  0
 16 24  1  0  0  0  0
 18 19  1  1  0  0  0
 18 25  1  0  0  0  0
 20 21  1  1  0  0  0
 20 27  1  0  0  0  0
 22 23  1  6  0  0  0
 22 29  1  0  0  0  0
 24  2  1  1  0  0  0
 24 31  1  0  0  0  0
 25 26  1  0  0  0  0
 25 33  1  6  0  0  0
 27 28  1  6  0  0  0
 27 35  1  0  0  0  0
 29 30  1  0  0  0  0
 29 37  1  6  0  0  0
 31 32  1  6  0  0  0
 31 39  1  0  0  0  0
 33 34  1  0  0  0  0
 35 36  1  0  0  0  0
 35 41  1  6  0  0  0
 37 38  1  0  0  0  0
 39 40  1  1  0  0  0
 41 42  1  0  0  0  0
M  END
>  <CHROM.1>
175.14462820,112.45214548,-59.44133384,170.83058936,-165.56021005,49.70663722
60.50577310,175.03804405,-175.69639681,5.12953402,3.45732529,3.90847886,-1.05114462
0.29391914,2.87875947

>  <Name>
2o3w_lig

>  <RI>
0

>  <Rbt.Current_Directory>
/home/itssahil/PROJECTS/Mol_Feturizer/New_Systems/rnas/2o3w

>  <Rbt.Executable>
rbdock ($Id: //depot/dev/client3/rdock/2013.1/src/exe/rbdock.cxx#4 $)

>  <Rbt.Library>
libRbt.so (2013.1, Build901 2013/11/27)

>  <Rbt.Parameter_File>
/export/apps/rDock/src/rDock_2013.1_src/data/scripts/dock_solv.prm

>  <Rbt.Receptor>
prm/pocket_docking_7.prm

>  <SCORE>
-19.9998

>  <SCORE.INTER>
-10.3999

>  <SCORE.INTER.CONST>
1

>  <SCORE.INTER.POLAR>
-1.69698

>  <SCORE.INTER.ROT>
9

>  <SCORE.INTER.SOLV>
17.9085

>  <SCORE.INTER.VDW>
-16.8462

>  <SCORE.INTER.norm>
-0.247618

>  <SCORE.INTRA>
-9.59984

>  <SCORE.INTRA.DIHEDRAL>
-18.7674

>  <SCORE.INTRA.DIHEDRAL.0>
27.8999

>  <SCORE.INTRA.POLAR>
0

>  <SCORE.INTRA.POLAR.0>
0

>  <SCORE.INTRA.REPUL>
0

>  <SCORE.INTRA.REPUL.0>
0

>  <SCORE.INTRA.SOLV>
-4.56493

>  <SCORE.INTRA.SOLV.lig_0>
-104.479

>  <SCORE.INTRA.VDW>
2.06631

>  <SCORE.INTRA.VDW.0>
-6.17816

>  <SCORE.INTRA.norm>
-0.228568

>  <SCORE.RESTR>
0

>  <SCORE.RESTR.CAVITY>
0

>  <SCORE.RESTR.norm>
0

>  <SCORE.SYSTEM>
0

>  <SCORE.SYSTEM.CONST>
0

>  <SCORE.SYSTEM.DIHEDRAL>
0

>  <SCORE.SYSTEM.SOLV>
0

>  <SCORE.SYSTEM.norm>
0

>  <SCORE.heavy>
42

>  <SCORE.norm>
-0.476185

>  <RMSD>
9.665

$$$$
2o3w_lig
 OpenBabel11021811463D
libRbt.so/2013.1/901 2013/11/27
 42 45  0  0  0  0  0  0  0  0999 V2000
    5.9869    6.5181    0.4263 C   0  0  2  0  0  0  0  0  0  0  0  0
    5.9416    7.0604    1.7571 O   0  0  0  0  0  0  0  0  0  0  0  0
    4.6185    5.2096    5.4477 C   0  0  2  0  0  0  0  0  0  0  0  0
    4.5334    4.3346    6.6549 N   0  0  0  0  0  0  0  0  0  0  0  0
    8.6285    6.6414    4.4419 C   0  0  1  0  0  0  0  0  0  0  0  0
   12.4940    5.2033    5.9268 C   0  0  1  0  0  0  0  0  0  0  0  0
    7.4648    6.6211   -0.0570 C   0  0  2  0  0  0  0  0  0  0  0  0
    8.4185    6.0787    0.9263 N   0  0  0  0  0  0  0  0  0  0  0  0
    4.4964    4.3644    4.1163 C   0  0  0  0  0  0  0  0  0  0  0  0
    9.9745    7.3123    4.0308 C   0  0  2  0  0  0  0  0  0  0  0  0
   10.4429    6.9344    2.7129 O   0  0  0  0  0  0  0  0  0  0  0  0
   13.3331    3.9365    5.5270 C   0  0  2  0  0  0  0  0  0  0  0  0
   12.4385    2.7993    5.1566 N   0  0  0  0  0  0  0  0  0  0  0  0
    7.8893    8.0752   -0.3330 C   0  0  1  0  0  0  0  0  0  0  0  0
    9.2350    8.1183   -0.8105 O   0  0  0  0  0  0  0  0  0  0  0  0
    4.5704    5.3418    2.8828 C   0  0  2  0  0  0  0  0  0  0  0  0
    4.4438    4.5803    1.6109 N   0  0  0  0  0  0  0  0  0  0  0  0
   10.8774    6.9053    5.1963 C   0  0  2  0  0  0  0  0  0  0  0  0
   11.5566    5.6364    4.9331 O   0  0  0  0  0  0  0  0  0  0  0  0
   14.2988    3.5371    6.7415 C   0  0  1  0  0  0  0  0  0  0  0  0
   15.3788    4.4949    6.8140 O   0  0  0  0  0  0  0  0  0  0  0  0
    6.9108    8.7149   -1.3442 C   0  0  2  0  0  0  0  0  0  0  0  0
    7.2956   10.0415   -1.6205 O   0  0  0  0  0  0  0  0  0  0  0  0
    5.9320    6.1429    2.8878 C   0  0  2  0  0  0  0  0  0  0  0  0
    9.9610    6.8020    6.4272 C   0  0  2  0  0  0  0  0  0  0  0  0
    8.7129    6.4026    5.8656 O   0  0  0  0  0  0  0  0  0  0  0  0
   13.5365    3.4812    8.1498 C   0  0  2  0  0  0  0  0  0  0  0  0
   12.6547    2.3597    8.1183 O   0  0  0  0  0  0  0  0  0  0  0  0
    5.4630    8.6709   -0.7515 C   0  0  2  0  0  0  0  0  0  0  0  0
    5.0907    7.2857   -0.4645 O   0  0  0  0  0  0  0  0  0  0  0  0
    6.1470    6.9504    4.1866 C   0  0  2  0  0  0  0  0  0  0  0  0
    7.5050    7.4626    4.0976 O   0  0  0  0  0  0  0  0  0  0  0  0
    9.8107    8.1201    7.2483 C   0  0  0  0  0  0  0  0  0  0  0  0
   11.0861    8.5112    7.7477 O   0  0  0  0  0  0  0  0  0  0  0  0
   12.7228    4.8080    8.3944 C   0  0  1  0  0  0  0  0  0  0  0  0
   11.8051    4.9421    7.2498 O   0  0  0  0  0  0  0  0  0  0  0  0
    4.4353    9.2730   -1.6816 C   0  0  0  0  0  0  0  0  0  0  0  0
    4.6125   10.6662   -1.7634 O   0  0  0  0  0  0  0  0  0  0  0  0
    5.9832    6.0085    5.4521 C   0  0  1  0  0  0  0  0  0  0  0  0
    6.0317    6.7832    6.6534 O   0  0  0  0  0  0  0  0  0  0  0  0
   11.9059    4.8244    9.7586 C   0  0  0  0  0  0  0  0  0  0  0  0
   11.1193    6.0609   10.0213 N   0  0  0  0  0  0  0  0  0  0  0  0
  1  2  1  1  0  0  0
  1  7  1  0  0  0  0
  1 30  1  0  0  0  0
  3  4  1  1  0  0  0
  3  9  1  0  0  0  0
  3 39  1  0  0  0  0
  5 10  1  0  0  0  0
  5 26  1  0  0  0  0
  5 32  1  1  0  0  0
  6 12  1  0  0  0  0
  6 36  1  0  0  0  0
  6 19  1  6  0  0  0
  7  8  1  1  0  0  0
  7 14  1  0  0  0  0
  9 16  1  0  0  0  0
 10 11  1  6  0  0  0
 10 18  1  0  0  0  0
 12 13  1  1  0  0  0
 12 20  1  0  0  0  0
 14 15  1  6  0  0  0
 14 22  1  0  0  0  0
 16 17  1  6  0  0  0
 16 24  1  0  0  0  0
 18 19  1  6  0  0  0
 18 25  1  0  0  0  0
 20 21  1  1  0  0  0
 20 27  1  0  0  0  0
 22 23  1  1  0  0  0
 22 29  1  0  0  0  0
 24  2  1  6  0  0  0
 24 31  1  0  0  0  0
 25 26  1  0  0  0  0
 25 33  1  6  0  0  0
 27 28  1  6  0  0  0
 27 35  1  0  0  0  0
 29 30  1  0  0  0  0
 29 37  1  6  0  0  0
 31 32  1  6  0  0  0
 31 39  1  0  0  0  0
 33 34  1  0  0  0  0
 35 36  1  0  0  0  0
 35 41  1  1  0  0  0
 37 38  1  0  0  0  0
 39 40  1  1  0  0  0
 41 42  1  0  0  0  0
M  END
>  <CHROM.1>
-100.17359280,169.92548008,-172.64639953,176.20297916,-67.14112669,-61.32252139
-69.81895117,-81.38510274,-179.74397690,8.72395357,6.31935818,4.00556032
-2.25509527,-0.00266474,1.97212583

>  <Name>
2o3w_lig

>  <RI>
0

>  <Rbt.Current_Directory>
/home/itssahil/PROJECTS/Mol_Feturizer/New_Systems/rnas/2o3w

>  <Rbt.Executable>
rbdock ($Id: //depot/dev/client3/rdock/2013.1/src/exe/rbdock.cxx#4 $)

>  <Rbt.Library>
libRbt.so (2013.1, Build901 2013/11/27)

>  <Rbt.Parameter_File>
/export/apps/rDock/src/rDock_2013.1_src/data/scripts/dock_solv.prm

>  <Rbt.Receptor>
prm/pocket_docking_8.prm

>  <SCORE>
-20.8291

>  <SCORE.INTER>
-14.8091

>  <SCORE.INTER.CONST>
1

>  <SCORE.INTER.POLAR>
-2.86625

>  <SCORE.INTER.ROT>
9

>  <SCORE.INTER.SOLV>
13.8564

>  <SCORE.INTER.VDW>
-14.5374

>  <SCORE.INTER.norm>
-0.352598

>  <SCORE.INTRA>
-6.02002

>  <SCORE.INTRA.DIHEDRAL>
-18.8847

>  <SCORE.INTRA.DIHEDRAL.0>
27.8999

>  <SCORE.INTRA.POLAR>
0

>  <SCORE.INTRA.POLAR.0>
0

>  <SCORE.INTRA.REPUL>
0

>  <SCORE.INTRA.REPUL.0>
0

>  <SCORE.INTRA.SOLV>
1.51289

>  <SCORE.INTRA.SOLV.lig_0>
-104.479

>  <SCORE.INTRA.VDW>
2.66588

>  <SCORE.INTRA.VDW.0>
-6.17816

>  <SCORE.INTRA.norm>
-0.143334

>  <SCORE.RESTR>
0

>  <SCORE.RESTR.CAVITY>
0

>  <SCORE.RESTR.norm>
0

>  <SCORE.SYSTEM>
0

>  <SCORE.SYSTEM.CONST>
0

>  <SCORE.SYSTEM.DIHEDRAL>
0

>  <SCORE.SYSTEM.SOLV>
0

>  <SCORE.SYSTEM.norm>
0

>  <SCORE.heavy>
42

>  <SCORE.norm>
-0.495932

>  <RMSD>
9.665

$$$$
2o3w_lig
 OpenBabel11021811463D
libRbt.so/2013.1/901 2013/11/27
 42 45  0  0  0  0  0  0  0  0999 V2000
    7.9465    5.6447    4.8983 C   0  0  2  0  0  0  0  0  0  0  0  0
    7.2633    6.1450    3.7363 O   0  0  0  0  0  0  0  0  0  0  0  0
    6.7738    4.7369   -0.3348 C   0  0  2  0  0  0  0  0  0  0  0  0
    7.0424    4.1818   -1.6950 N   0  0  0  0  0  0  0  0  0  0  0  0
    7.4391    1.9533    3.1993 C   0  0  1  0  0  0  0  0  0  0  0  0
    8.2709   -1.7513    4.7582 C   0  0  1  0  0  0  0  0  0  0  0  0
    7.9072    6.7745    5.9708 C   0  0  2  0  0  0  0  0  0  0  0  0
    6.5525    7.3195    6.1661 N   0  0  0  0  0  0  0  0  0  0  0  0
    7.5240    6.1124   -0.1178 C   0  0  0  0  0  0  0  0  0  0  0  0
    7.8555    1.3001    4.5524 C   0  0  2  0  0  0  0  0  0  0  0  0
    9.2298    0.8428    4.5877 O   0  0  0  0  0  0  0  0  0  0  0  0
    8.9542   -2.8802    3.9053 C   0  0  2  0  0  0  0  0  0  0  0  0
    7.9412   -3.8558    3.4024 N   0  0  0  0  0  0  0  0  0  0  0  0
    8.8154    7.9620    5.6021 C   0  0  1  0  0  0  0  0  0  0  0  0
    8.7791    8.9538    6.6297 O   0  0  0  0  0  0  0  0  0  0  0  0
    7.1849    6.6571    1.3212 C   0  0  2  0  0  0  0  0  0  0  0  0
    7.8641    7.9601    1.5545 N   0  0  0  0  0  0  0  0  0  0  0  0
    6.7913    0.2110    4.6963 C   0  0  2  0  0  0  0  0  0  0  0  0
    7.2215   -1.0460    4.0835 O   0  0  0  0  0  0  0  0  0  0  0  0
   10.0677   -3.6133    4.7938 C   0  0  1  0  0  0  0  0  0  0  0  0
   11.2059   -2.7338    4.9356 O   0  0  0  0  0  0  0  0  0  0  0  0
   10.2548    7.4541    5.3586 C   0  0  2  0  0  0  0  0  0  0  0  0
   11.1027    8.5319    5.0363 O   0  0  0  0  0  0  0  0  0  0  0  0
    7.6303    5.6215    2.4280 C   0  0  2  0  0  0  0  0  0  0  0  0
    5.5272    0.7598    4.0134 C   0  0  2  0  0  0  0  0  0  0  0  0
    6.0545    1.5950    2.9854 O   0  0  0  0  0  0  0  0  0  0  0  0
    9.5299   -4.0318    6.2441 C   0  0  2  0  0  0  0  0  0  0  0  0
    8.5829   -5.0842    6.0653 O   0  0  0  0  0  0  0  0  0  0  0  0
   10.2355    6.4004    4.2015 C   0  0  2  0  0  0  0  0  0  0  0  0
    9.3421    5.2975    4.5553 O   0  0  0  0  0  0  0  0  0  0  0  0
    6.9786    4.2332    2.2461 C   0  0  2  0  0  0  0  0  0  0  0  0
    7.6327    3.3736    3.2196 O   0  0  0  0  0  0  0  0  0  0  0  0
    4.5680    1.5591    4.9490 C   0  0  0  0  0  0  0  0  0  0  0  0
    3.6169    0.6663    5.5211 O   0  0  0  0  0  0  0  0  0  0  0  0
    8.8515   -2.8038    6.9610 C   0  0  1  0  0  0  0  0  0  0  0  0
    7.7789   -2.3459    6.0610 O   0  0  0  0  0  0  0  0  0  0  0  0
   11.6075    5.8434    3.8993 C   0  0  0  0  0  0  0  0  0  0  0  0
   12.4493    6.8625    3.4177 O   0  0  0  0  0  0  0  0  0  0  0  0
    7.2229    3.7009    0.7721 C   0  0  1  0  0  0  0  0  0  0  0  0
    6.4936    2.4894    0.5578 O   0  0  0  0  0  0  0  0  0  0  0  0
    8.2578   -3.1396    8.3974 C   0  0  0  0  0  0  0  0  0  0  0  0
    7.3480   -4.3166    8.4572 N   0  0  0  0  0  0  0  0  0  0  0  0
  1  2  1  6  0  0  0
  1  7  1  0  0  0  0
  1 30  1  0  0  0  0
  3  4  1  6  0  0  0
  3  9  1  0  0  0  0
  3 39  1  0  0  0  0
  5 10  1  0  0  0  0
  5 26  1  0  0  0  0
  5 32  1  1  0  0  0
  6 12  1  0  0  0  0
  6 36  1  0  0  0  0
  6 19  1  6  0  0  0
  7  8  1  6  0  0  0
  7 14  1  0  0  0  0
  9 16  1  0  0  0  0
 10 11  1  6  0  0  0
 10 18  1  0  0  0  0
 12 13  1  1  0  0  0
 12 20  1  0  0  0  0
 14 15  1  1  0  0  0
 14 22  1  0  0  0  0
 16 17  1  1  0  0  0
 16 24  1  0  0  0  0
 18 19  1  6  0  0  0
 18 25  1  0  0  0  0
 20 21  1  1  0  0  0
 20 27  1  0  0  0  0
 22 23  1  6  0  0  0
 22 29  1  0  0  0  0
 24  2  1  1  0  0  0
 24 31  1  0  0  0  0
 25 26  1  0  0  0  0
 25 33  1  1  0  0  0
 27 28  1  6  0  0  0
 27 35  1  0  0  0  0
 29 30  1  0  0  0  0
 29 37  1  1  0  0  0
 31 32  1  1  0  0  0
 31 39  1  0  0  0  0
 33 34  1  0  0  0  0
 35 36  1  0  0  0  0
 35 41  1  1  0  0  0
 37 38  1  0  0  0  0
 39 40  1  6  0  0  0
 41 42  1  0  0  0  0
M  END
>  <CHROM.1>
152.67751247,-162.36711044,-165.18426784,70.62139442,-158.68433424,-90.50284988
-64.38342709,-169.82893968,-51.71658348,8.09879376,2.45960412,4.11230541
-1.49306761,0.99179801,2.85161120

>  <Name>
2o3w_lig

>  <RI>
0

>  <Rbt.Current_Directory>
/home/itssahil/PROJECTS/Mol_Feturizer/New_Systems/rnas/2o3w

>  <Rbt.Executable>
rbdock ($Id: //depot/dev/client3/rdock/2013.1/src/exe/rbdock.cxx#4 $)

>  <Rbt.Library>
libRbt.so (2013.1, Build901 2013/11/27)

>  <Rbt.Parameter_File>
/export/apps/rDock/src/rDock_2013.1_src/data/scripts/dock_solv.prm

>  <Rbt.Receptor>
prm/pocket_docking_5.prm

>  <SCORE>
-14.1363

>  <SCORE.INTER>
-7.37618

>  <SCORE.INTER.CONST>
1

>  <SCORE.INTER.POLAR>
-1.7425

>  <SCORE.INTER.ROT>
9

>  <SCORE.INTER.SOLV>
12.7095

>  <SCORE.INTER.VDW>
-12.9456

>  <SCORE.INTER.norm>
-0.175623

>  <SCORE.INTRA>
-6.76016

>  <SCORE.INTRA.DIHEDRAL>
-16.1613

>  <SCORE.INTRA.DIHEDRAL.0>
27.8999

>  <SCORE.INTRA.POLAR>
0

>  <SCORE.INTRA.POLAR.0>
0

>  <SCORE.INTRA.REPUL>
0

>  <SCORE.INTRA.REPUL.0>
0

>  <SCORE.INTRA.SOLV>
-3.48242

>  <SCORE.INTRA.SOLV.lig_0>
-104.479

>  <SCORE.INTRA.VDW>
3.06168

>  <SCORE.INTRA.VDW.0>
-6.17816

>  <SCORE.INTRA.norm>
-0.160956

>  <SCORE.RESTR>
0

>  <SCORE.RESTR.CAVITY>
0

>  <SCORE.RESTR.norm>
0

>  <SCORE.SYSTEM>
0

>  <SCORE.SYSTEM.CONST>
0

>  <SCORE.SYSTEM.DIHEDRAL>
0

>  <SCORE.SYSTEM.SOLV>
0

>  <SCORE.SYSTEM.norm>
0

>  <SCORE.heavy>
42

>  <SCORE.norm>
-0.33658

>  <RMSD>
9.704

$$$$
2o3w_lig
 OpenBabel11021811463D
libRbt.so/2013.1/901 2013/11/27
 42 45  0  0  0  0  0  0  0  0999 V2000
    2.9117    5.4113    3.2320 C   0  0  2  0  0  0  0  0  0  0  0  0
    3.6272    4.6342    2.2565 O   0  0  0  0  0  0  0  0  0  0  0  0
    1.9971    0.7494    3.2796 C   0  0  2  0  0  0  0  0  0  0  0  0
    1.6631   -0.7062    3.2682 N   0  0  0  0  0  0  0  0  0  0  0  0
    6.3403    1.6156    3.6019 C   0  0  1  0  0  0  0  0  0  0  0  0
    9.8275   -0.4370    5.2430 C   0  0  1  0  0  0  0  0  0  0  0  0
    3.1251    6.9106    2.8649 C   0  0  2  0  0  0  0  0  0  0  0  0
    2.8480    7.1883    1.4448 N   0  0  0  0  0  0  0  0  0  0  0  0
    1.4048    1.4841    2.0103 C   0  0  0  0  0  0  0  0  0  0  0  0
    7.7559    1.7867    2.9713 C   0  0  2  0  0  0  0  0  0  0  0  0
    7.9641    1.0050    1.7693 O   0  0  0  0  0  0  0  0  0  0  0  0
   11.3284   -0.0012    5.0813 C   0  0  2  0  0  0  0  0  0  0  0  0
   11.8764   -0.4533    3.7674 N   0  0  0  0  0  0  0  0  0  0  0  0
    4.5664    7.3793    3.1367 C   0  0  1  0  0  0  0  0  0  0  0  0
    4.7056    8.7663    2.8241 O   0  0  0  0  0  0  0  0  0  0  0  0
    1.7696    3.0148    2.0902 C   0  0  2  0  0  0  0  0  0  0  0  0
    1.2143    3.7410    0.9164 N   0  0  0  0  0  0  0  0  0  0  0  0
    8.6542    1.4305    4.1568 C   0  0  2  0  0  0  0  0  0  0  0  0
    8.9619    0.0004    4.1880 O   0  0  0  0  0  0  0  0  0  0  0  0
   12.1855   -0.5955    6.2975 C   0  0  1  0  0  0  0  0  0  0  0  0
   11.8745    0.1496    7.4962 O   0  0  0  0  0  0  0  0  0  0  0  0
    4.9321    7.0935    4.6111 C   0  0  2  0  0  0  0  0  0  0  0  0
    6.2433    7.5323    4.8806 O   0  0  0  0  0  0  0  0  0  0  0  0
    3.3362    3.2120    2.1430 C   0  0  2  0  0  0  0  0  0  0  0  0
    7.8855    1.8626    5.4168 C   0  0  2  0  0  0  0  0  0  0  0  0
    6.5223    1.6959    5.0342 O   0  0  0  0  0  0  0  0  0  0  0  0
   11.9109   -2.1540    6.5488 C   0  0  2  0  0  0  0  0  0  0  0  0
   12.4625   -2.8721    5.4459 O   0  0  0  0  0  0  0  0  0  0  0  0
    4.7958    5.5582    4.8826 C   0  0  2  0  0  0  0  0  0  0  0  0
    3.4302    5.1256    4.5867 O   0  0  0  0  0  0  0  0  0  0  0  0
    3.9931    2.4728    3.3293 C   0  0  2  0  0  0  0  0  0  0  0  0
    5.4254    2.6070    3.1170 O   0  0  0  0  0  0  0  0  0  0  0  0
    8.1616    3.3244    5.8873 C   0  0  0  0  0  0  0  0  0  0  0  0
    9.4921    3.4140    6.3880 O   0  0  0  0  0  0  0  0  0  0  0  0
   10.3649   -2.4346    6.6638 C   0  0  1  0  0  0  0  0  0  0  0  0
    9.7652   -1.9405    5.4122 O   0  0  0  0  0  0  0  0  0  0  0  0
    5.1300    5.1880    6.3091 C   0  0  0  0  0  0  0  0  0  0  0  0
    6.4688    5.5135    6.5936 O   0  0  0  0  0  0  0  0  0  0  0  0
    3.5654    0.9455    3.3293 C   0  0  1  0  0  0  0  0  0  0  0  0
    4.0493    0.2975    4.5089 O   0  0  0  0  0  0  0  0  0  0  0  0
    9.9991   -3.9668    6.8810 C   0  0  0  0  0  0  0  0  0  0  0  0
   10.4314   -4.8903    5.7962 N   0  0  0  0  0  0  0  0  0  0  0  0
  1  2  1  6  0  0  0
  1  7  1  0  0  0  0
  1 30  1  0  0  0  0
  3  4  1  6  0  0  0
  3  9  1  0  0  0  0
  3 39  1  0  0  0  0
  5 10  1  0  0  0  0
  5 26  1  0  0  0  0
  5 32  1  6  0  0  0
  6 12  1  0  0  0  0
  6 36  1  0  0  0  0
  6 19  1  6  0  0  0
  7  8  1  6  0  0  0
  7 14  1  0  0  0  0
  9 16  1  0  0  0  0
 10 11  1  6  0  0  0
 10 18  1  0  0  0  0
 12 13  1  6  0  0  0
 12 20  1  0  0  0  0
 14 15  1  1  0  0  0
 14 22  1  0  0  0  0
 16 17  1  6  0  0  0
 16 24  1  0  0  0  0
 18 19  1  1  0  0  0
 18 25  1  0  0  0  0
 20 21  1  1  0  0  0
 20 27  1  0  0  0  0
 22 23  1  6  0  0  0
 22 29  1  0  0  0  0
 24  2  1  1  0  0  0
 24 31  1  0  0  0  0
 25 26  1  0  0  0  0
 25 33  1  6  0  0  0
 27 28  1  6  0  0  0
 27 35  1  0  0  0  0
 29 30  1  0  0  0  0
 29 37  1  1  0  0  0
 31 32  1  6  0  0  0
 31 39  1  0  0  0  0
 33 34  1  0  0  0  0
 35 36  1  0  0  0  0
 35 41  1  6  0  0  0
 37 38  1  0  0  0  0
 39 40  1  1  0  0  0
 41 42  1  0  0  0  0
M  END
>  <CHROM.1>
-164.59349105,166.27367057,-71.71254425,178.48272840,47.67824092,-69.44333433
-61.95969998,-151.53260490,-60.69786304,6.58312013,2.17284227,4.29713786
2.46324420,-0.41668832,0.08868256

>  <Name>
2o3w_lig

>  <RI>
0

>  <Rbt.Current_Directory>
/home/itssahil/PROJECTS/Mol_Feturizer/New_Systems/rnas/2o3w

>  <Rbt.Executable>
rbdock ($Id: //depot/dev/client3/rdock/2013.1/src/exe/rbdock.cxx#4 $)

>  <Rbt.Library>
libRbt.so (2013.1, Build901 2013/11/27)

>  <Rbt.Parameter_File>
/export/apps/rDock/src/rDock_2013.1_src/data/scripts/dock_solv.prm

>  <Rbt.Receptor>
prm/pocket_docking_4.prm

>  <SCORE>
-14.2991

>  <SCORE.INTER>
-5.84934

>  <SCORE.INTER.CONST>
1

>  <SCORE.INTER.POLAR>
0

>  <SCORE.INTER.ROT>
9

>  <SCORE.INTER.SOLV>
8.35337

>  <SCORE.INTER.VDW>
-16.284

>  <SCORE.INTER.norm>
-0.13927

>  <SCORE.INTRA>
-8.4554

>  <SCORE.INTRA.DIHEDRAL>
-20.7308

>  <SCORE.INTRA.DIHEDRAL.0>
27.8999

>  <SCORE.INTRA.POLAR>
0

>  <SCORE.INTRA.POLAR.0>
0

>  <SCORE.INTRA.REPUL>
0

>  <SCORE.INTRA.REPUL.0>
0

>  <SCORE.INTRA.SOLV>
-2.02092

>  <SCORE.INTRA.SOLV.lig_0>
-104.479

>  <SCORE.INTRA.VDW>
2.92046

>  <SCORE.INTRA.VDW.0>
-6.17816

>  <SCORE.INTRA.norm>
-0.201319

>  <SCORE.RESTR>
0.00561084

>  <SCORE.RESTR.CAVITY>
0.00561084

>  <SCORE.RESTR.norm>
0.000133591

>  <SCORE.SYSTEM>
0

>  <SCORE.SYSTEM.CONST>
0

>  <SCORE.SYSTEM.DIHEDRAL>
0

>  <SCORE.SYSTEM.SOLV>
0

>  <SCORE.SYSTEM.norm>
0

>  <SCORE.heavy>
42

>  <SCORE.norm>
-0.340455

>  <RMSD>
9.707

$$$$
2o3w_lig
 OpenBabel11021811463D
libRbt.so/2013.1/901 2013/11/27
 42 45  0  0  0  0  0  0  0  0999 V2000
    5.9441    6.4149   -0.3711 C   0  0  2  0  0  0  0  0  0  0  0  0
    6.2390    5.2074    0.3515 O   0  0  0  0  0  0  0  0  0  0  0  0
    2.1790    4.2193    1.5073 C   0  0  2  0  0  0  0  0  0  0  0  0
    0.9859    3.5219    2.0734 N   0  0  0  0  0  0  0  0  0  0  0  0
    5.9878    3.9856    3.7666 C   0  0  1  0  0  0  0  0  0  0  0  0
    8.3582    0.6681    5.4358 C   0  0  1  0  0  0  0  0  0  0  0  0
    7.2911    6.9350   -0.9571 C   0  0  2  0  0  0  0  0  0  0  0  0
    8.0376    5.8852   -1.6721 N   0  0  0  0  0  0  0  0  0  0  0  0
    2.8377    3.3760    0.3425 C   0  0  0  0  0  0  0  0  0  0  0  0
    7.0886    3.2376    2.9544 C   0  0  2  0  0  0  0  0  0  0  0  0
    6.5693    2.2595    2.0203 O   0  0  0  0  0  0  0  0  0  0  0  0
    9.8672    0.5647    5.0104 C   0  0  2  0  0  0  0  0  0  0  0  0
   10.0003   -0.0765    3.6680 N   0  0  0  0  0  0  0  0  0  0  0  0
    8.2296    7.4838    0.1333 C   0  0  1  0  0  0  0  0  0  0  0  0
    9.4326    7.9849   -0.4520 O   0  0  0  0  0  0  0  0  0  0  0  0
    4.0731    4.1709   -0.2273 C   0  0  2  0  0  0  0  0  0  0  0  0
    4.7096    3.4116   -1.3372 N   0  0  0  0  0  0  0  0  0  0  0  0
    7.9611    2.6802    4.0802 C   0  0  2  0  0  0  0  0  0  0  0  0
    7.5182    1.3489    4.4953 O   0  0  0  0  0  0  0  0  0  0  0  0
   10.6751   -0.2571    6.1234 C   0  0  1  0  0  0  0  0  0  0  0  0
   10.8392    0.5768    7.2925 O   0  0  0  0  0  0  0  0  0  0  0  0
    7.4964    8.5788    0.9413 C   0  0  2  0  0  0  0  0  0  0  0  0
    8.3481    9.1034    1.9332 O   0  0  0  0  0  0  0  0  0  0  0  0
    5.1362    4.4380    0.9103 C   0  0  2  0  0  0  0  0  0  0  0  0
    7.8565    3.6882    5.2371 C   0  0  2  0  0  0  0  0  0  0  0  0
    6.5435    4.2212    5.0807 O   0  0  0  0  0  0  0  0  0  0  0  0
    9.9482   -1.6237    6.5375 C   0  0  2  0  0  0  0  0  0  0  0  0
   10.0328   -2.5115    5.4235 O   0  0  0  0  0  0  0  0  0  0  0  0
    6.2103    7.9626    1.5860 C   0  0  2  0  0  0  0  0  0  0  0  0
    5.3479    7.4167    0.5381 O   0  0  0  0  0  0  0  0  0  0  0  0
    4.5474    5.2111    2.1107 C   0  0  2  0  0  0  0  0  0  0  0  0
    5.5937    5.2031    3.1205 O   0  0  0  0  0  0  0  0  0  0  0  0
    8.9281    4.8220    5.2211 C   0  0  0  0  0  0  0  0  0  0  0  0
    8.7438    5.6596    6.3584 O   0  0  0  0  0  0  0  0  0  0  0  0
    8.4405   -1.3601    6.9113 C   0  0  1  0  0  0  0  0  0  0  0  0
    7.8322   -0.7207    5.7317 O   0  0  0  0  0  0  0  0  0  0  0  0
    5.4247    8.9700    2.3933 C   0  0  0  0  0  0  0  0  0  0  0  0
    4.2637    8.3724    2.9169 O   0  0  0  0  0  0  0  0  0  0  0  0
    3.2438    4.4833    2.6462 C   0  0  1  0  0  0  0  0  0  0  0  0
    2.6151    5.2773    3.6561 O   0  0  0  0  0  0  0  0  0  0  0  0
    7.6318   -2.6718    7.3038 C   0  0  0  0  0  0  0  0  0  0  0  0
    8.1892   -3.4536    8.4416 N   0  0  0  0  0  0  0  0  0  0  0  0
  1  2  1  1  0  0  0
  1  7  1  0  0  0  0
  1 30  1  0  0  0  0
  3  4  1  1  0  0  0
  3  9  1  0  0  0  0
  3 39  1  0  0  0  0
  5 10  1  0  0  0  0
  5 26  1  0  0  0  0
  5 32  1  6  0  0  0
  6 12  1  0  0  0  0
  6 36  1  0  0  0  0
  6 19  1  6  0  0  0
  7  8  1  1  0  0  0
  7 14  1  0  0  0  0
  9 16  1  0  0  0  0
 10 11  1  1  0  0  0
 10 18  1  0  0  0  0
 12 13  1  6  0  0  0
 12 20  1  0  0  0  0
 14 15  1  6  0  0  0
 14 22  1  0  0  0  0
 16 17  1  6  0  0  0
 16 24  1  0  0  0  0
 18 19  1  1  0  0  0
 18 25  1  0  0  0  0
 20 21  1  1  0  0  0
 20 27  1  0  0  0  0
 22 23  1  1  0  0  0
 22 29  1  0  0  0  0
 24  2  1  6  0  0  0
 24 31  1  0  0  0  0
 25 26  1  0  0  0  0
 25 33  1  6  0  0  0
 27 28  1  6  0  0  0
 27 35  1  0  0  0  0
 29 30  1  0  0  0  0
 29 37  1  6  0  0  0
 31 32  1  1  0  0  0
 31 39  1  0  0  0  0
 33 34  1  0  0  0  0
 35 36  1  0  0  0  0
 35 41  1  6  0  0  0
 37 38  1  0  0  0  0
 39 40  1  1  0  0  0
 41 42  1  0  0  0  0
M  END
>  <CHROM.1>
-174.69087268,87.11305032,-52.97388525,173.00667790,51.79283819,-178.40055086
178.37157832,-67.60979331,57.68411260,6.85092358,3.70615773,3.10196855,-1.93542274
0.30627109,2.63006037

>  <Name>
2o3w_lig

>  <RI>
0

>  <Rbt.Current_Directory>
/home/itssahil/PROJECTS/Mol_Feturizer/New_Systems/rnas/2o3w

>  <Rbt.Executable>
rbdock ($Id: //depot/dev/client3/rdock/2013.1/src/exe/rbdock.cxx#4 $)

>  <Rbt.Library>
libRbt.so (2013.1, Build901 2013/11/27)

>  <Rbt.Parameter_File>
/export/apps/rDock/src/rDock_2013.1_src/data/scripts/dock_solv.prm

>  <Rbt.Receptor>
prm/pocket_docking_6.prm

>  <SCORE>
-16.1782

>  <SCORE.INTER>
-5.02275

>  <SCORE.INTER.CONST>
1

>  <SCORE.INTER.POLAR>
-0.979796

>  <SCORE.INTER.ROT>
9

>  <SCORE.INTER.SOLV>
13.0589

>  <SCORE.INTER.VDW>
-14.0355

>  <SCORE.INTER.norm>
-0.119589

>  <SCORE.INTRA>
-11.1555

>  <SCORE.INTRA.DIHEDRAL>
-23.4402

>  <SCORE.INTRA.DIHEDRAL.0>
27.8999

>  <SCORE.INTRA.POLAR>
0

>  <SCORE.INTRA.POLAR.0>
0

>  <SCORE.INTRA.REPUL>
0

>  <SCORE.INTRA.REPUL.0>
0

>  <SCORE.INTRA.SOLV>
-3.48825

>  <SCORE.INTRA.SOLV.lig_0>
-104.479

>  <SCORE.INTRA.VDW>
2.30876

>  <SCORE.INTRA.VDW.0>
-6.17816

>  <SCORE.INTRA.norm>
-0.265606

>  <SCORE.RESTR>
0

>  <SCORE.RESTR.CAVITY>
0

>  <SCORE.RESTR.norm>
0

>  <SCORE.SYSTEM>
0

>  <SCORE.SYSTEM.CONST>
0

>  <SCORE.SYSTEM.DIHEDRAL>
0

>  <SCORE.SYSTEM.SOLV>
0

>  <SCORE.SYSTEM.norm>
0

>  <SCORE.heavy>
42

>  <SCORE.norm>
-0.385196

>  <RMSD>
9.734

$$$$
2o3w_lig
 OpenBabel11021811463D
libRbt.so/2013.1/901 2013/11/27
 42 45  0  0  0  0  0  0  0  0999 V2000
    9.8300    7.4819    6.0328 C   0  0  2  0  0  0  0  0  0  0  0  0
    9.0488    8.3903    5.2379 O   0  0  0  0  0  0  0  0  0  0  0  0
    5.1360    8.1772    3.3831 C   0  0  2  0  0  0  0  0  0  0  0  0
    3.9453    7.7090    2.6126 N   0  0  0  0  0  0  0  0  0  0  0  0
    7.6799    5.2481    5.6693 C   0  0  1  0  0  0  0  0  0  0  0  0
    9.3233    1.2651    6.0666 C   0  0  1  0  0  0  0  0  0  0  0  0
   10.7333    8.3496    6.9598 C   0  0  2  0  0  0  0  0  0  0  0  0
    9.9732    9.3902    7.6740 N   0  0  0  0  0  0  0  0  0  0  0  0
    6.3876    8.3808    2.4377 C   0  0  0  0  0  0  0  0  0  0  0  0
    7.9355    4.1781    6.7741 C   0  0  2  0  0  0  0  0  0  0  0  0
    9.2916    4.1698    7.2840 O   0  0  0  0  0  0  0  0  0  0  0  0
   10.7499    0.9477    5.4895 C   0  0  2  0  0  0  0  0  0  0  0  0
   10.6691    0.5650    4.0480 N   0  0  0  0  0  0  0  0  0  0  0  0
   11.8491    9.0699    6.1806 C   0  0  1  0  0  0  0  0  0  0  0  0
   12.6746    9.8199    7.0732 O   0  0  0  0  0  0  0  0  0  0  0  0
    7.6011    8.8949    3.3013 C   0  0  2  0  0  0  0  0  0  0  0  0
    8.7944    9.1115    2.4395 N   0  0  0  0  0  0  0  0  0  0  0  0
    7.4886    2.9014    6.0602 C   0  0  2  0  0  0  0  0  0  0  0  0
    8.5974    2.2684    5.3455 O   0  0  0  0  0  0  0  0  0  0  0  0
   11.4239   -0.2181    6.3576 C   0  0  1  0  0  0  0  0  0  0  0  0
   11.8260    0.3239    7.6356 O   0  0  0  0  0  0  0  0  0  0  0  0
   12.6745    8.0329    5.3853 C   0  0  2  0  0  0  0  0  0  0  0  0
   13.7110    8.6747    4.6793 O   0  0  0  0  0  0  0  0  0  0  0  0
    7.9516    7.8590    4.4415 C   0  0  2  0  0  0  0  0  0  0  0  0
    6.3713    3.3253    5.0920 C   0  0  2  0  0  0  0  0  0  0  0  0
    6.7357    4.6594    4.7457 O   0  0  0  0  0  0  0  0  0  0  0  0
   10.4462   -1.4664    6.5885 C   0  0  2  0  0  0  0  0  0  0  0  0
   10.2782   -2.1205    5.3314 O   0  0  0  0  0  0  0  0  0  0  0  0
   11.7252    7.2705    4.4019 C   0  0  2  0  0  0  0  0  0  0  0  0
   10.6535    6.6214    5.1568 O   0  0  0  0  0  0  0  0  0  0  0  0
    6.7554    7.5668    5.3736 C   0  0  2  0  0  0  0  0  0  0  0  0
    7.1949    6.4758    6.2285 O   0  0  0  0  0  0  0  0  0  0  0  0
    4.9300    3.2737    5.6872 C   0  0  0  0  0  0  0  0  0  0  0  0
    4.5821    1.9197    5.9602 O   0  0  0  0  0  0  0  0  0  0  0  0
    9.0523   -0.9854    7.1434 C   0  0  1  0  0  0  0  0  0  0  0  0
    8.5304   -0.0217    6.1590 O   0  0  0  0  0  0  0  0  0  0  0  0
   12.4512    6.2273    3.5843 C   0  0  0  0  0  0  0  0  0  0  0  0
   12.8340    5.1493    4.4032 O   0  0  0  0  0  0  0  0  0  0  0  0
    5.4878    7.1381    4.5220 C   0  0  1  0  0  0  0  0  0  0  0  0
    4.3425    7.0150    5.3697 O   0  0  0  0  0  0  0  0  0  0  0  0
    8.0053   -2.1605    7.3706 C   0  0  0  0  0  0  0  0  0  0  0  0
    8.4529   -3.2531    8.2774 N   0  0  0  0  0  0  0  0  0  0  0  0
  1  2  1  6  0  0  0
  1  7  1  0  0  0  0
  1 30  1  0  0  0  0
  3  4  1  6  0  0  0
  3  9  1  0  0  0  0
  3 39  1  0  0  0  0
  5 10  1  0  0  0  0
  5 26  1  0  0  0  0
  5 32  1  1  0  0  0
  6 12  1  0  0  0  0
  6 36  1  0  0  0  0
  6 19  1  6  0  0  0
  7  8  1  6  0  0  0
  7 14  1  0  0  0  0
  9 16  1  0  0  0  0
 10 11  1  6  0  0  0
 10 18  1  0  0  0  0
 12 13  1  6  0  0  0
 12 20  1  0  0  0  0
 14 15  1  1  0  0  0
 14 22  1  0  0  0  0
 16 17  1  6  0  0  0
 16 24  1  0  0  0  0
 18 19  1  6  0  0  0
 18 25  1  0  0  0  0
 20 21  1  1  0  0  0
 20 27  1  0  0  0  0
 22 23  1  6  0  0  0
 22 29  1  0  0  0  0
 24  2  1  1  0  0  0
 24 31  1  0  0  0  0
 25 26  1  0  0  0  0
 25 33  1  1  0  0  0
 27 28  1  6  0  0  0
 27 35  1  0  0  0  0
 29 30  1  0  0  0  0
 29 37  1  1  0  0  0
 31 32  1  1  0  0  0
 31 39  1  0  0  0  0
 33 34  1  0  0  0  0
 35 36  1  0  0  0  0
 35 41  1  6  0  0  0
 37 38  1  0  0  0  0
 39 40  1  1  0  0  0
 41 42  1  0  0  0  0
M  END
>  <CHROM.1>
-169.66497503,-173.48436387,-160.92080081,92.70428918,-159.76845662,-66.26057168
70.43829064,-55.28871832,56.79920391,8.92465925,4.68752131,5.48647481,-1.58339536
0.15073258,2.95624581

>  <Name>
2o3w_lig

>  <RI>
0

>  <Rbt.Current_Directory>
/home/itssahil/PROJECTS/Mol_Feturizer/New_Systems/rnas/2o3w

>  <Rbt.Executable>
rbdock ($Id: //depot/dev/client3/rdock/2013.1/src/exe/rbdock.cxx#4 $)

>  <Rbt.Library>
libRbt.so (2013.1, Build901 2013/11/27)

>  <Rbt.Parameter_File>
/export/apps/rDock/src/rDock_2013.1_src/data/scripts/dock_solv.prm

>  <Rbt.Receptor>
prm/pocket_docking_7.prm

>  <SCORE>
-24.2948

>  <SCORE.INTER>
-14.503

>  <SCORE.INTER.CONST>
1

>  <SCORE.INTER.POLAR>
-1.18211

>  <SCORE.INTER.ROT>
9

>  <SCORE.INTER.SOLV>
24.3176

>  <SCORE.INTER.VDW>
-23.4342

>  <SCORE.INTER.norm>
-0.34531

>  <SCORE.INTRA>
-9.80329

>  <SCORE.INTRA.DIHEDRAL>
-18.8061

>  <SCORE.INTRA.DIHEDRAL.0>
27.8999

>  <SCORE.INTRA.POLAR>
0

>  <SCORE.INTRA.POLAR.0>
0

>  <SCORE.INTRA.REPUL>
0

>  <SCORE.INTRA.REPUL.0>
0

>  <SCORE.INTRA.SOLV>
-4.71131

>  <SCORE.INTRA.SOLV.lig_0>
-104.479

>  <SCORE.INTRA.VDW>
1.95541

>  <SCORE.INTRA.VDW.0>
-6.17816

>  <SCORE.INTRA.norm>
-0.233412

>  <SCORE.RESTR>
0.0115392

>  <SCORE.RESTR.CAVITY>
0.0115392

>  <SCORE.RESTR.norm>
0.000274742

>  <SCORE.SYSTEM>
0

>  <SCORE.SYSTEM.CONST>
0

>  <SCORE.SYSTEM.DIHEDRAL>
0

>  <SCORE.SYSTEM.SOLV>
0

>  <SCORE.SYSTEM.norm>
0

>  <SCORE.heavy>
42

>  <SCORE.norm>
-0.578447

>  <RMSD>
9.738

$$$$
2o3w_lig
 OpenBabel11021811463D
libRbt.so/2013.1/901 2013/11/27
 42 45  0  0  0  0  0  0  0  0999 V2000
    3.1400    5.3903    0.5490 C   0  0  2  0  0  0  0  0  0  0  0  0
    2.3140    5.0176    1.6653 O   0  0  0  0  0  0  0  0  0  0  0  0
    5.4292    4.8809    4.6776 C   0  0  2  0  0  0  0  0  0  0  0  0
    6.1517    4.7603    5.9790 N   0  0  0  0  0  0  0  0  0  0  0  0
    3.2934    1.1874    2.7296 C   0  0  1  0  0  0  0  0  0  0  0  0
    4.3755   -2.5540    4.2525 C   0  0  1  0  0  0  0  0  0  0  0  0
    2.2026    5.5129   -0.6897 C   0  0  2  0  0  0  0  0  0  0  0  0
    1.0169    6.3445   -0.4193 N   0  0  0  0  0  0  0  0  0  0  0  0
    4.4708    6.1392    4.6676 C   0  0  0  0  0  0  0  0  0  0  0  0
    3.0604    0.3018    3.9914 C   0  0  2  0  0  0  0  0  0  0  0  0
    4.1913    0.2552    4.8958 O   0  0  0  0  0  0  0  0  0  0  0  0
    5.6976   -3.3570    3.9764 C   0  0  2  0  0  0  0  0  0  0  0  0
    5.5060   -4.3330    2.8622 N   0  0  0  0  0  0  0  0  0  0  0  0
    1.6857    4.1439   -1.1691 C   0  0  1  0  0  0  0  0  0  0  0  0
    0.8644    4.3002   -2.3275 O   0  0  0  0  0  0  0  0  0  0  0  0
    3.7564    6.2254    3.2659 C   0  0  2  0  0  0  0  0  0  0  0  0
    2.8559    7.4088    3.2160 N   0  0  0  0  0  0  0  0  0  0  0  0
    2.6694   -1.0309    3.3508 C   0  0  2  0  0  0  0  0  0  0  0  0
    3.8394   -1.8757    3.1096 O   0  0  0  0  0  0  0  0  0  0  0  0
    6.1552   -4.1001    5.3200 C   0  0  1  0  0  0  0  0  0  0  0  0
    6.6885   -3.1192    6.2379 O   0  0  0  0  0  0  0  0  0  0  0  0
    2.8846    3.2094   -1.4491 C   0  0  2  0  0  0  0  0  0  0  0  0
    2.4287    1.9569   -1.9051 O   0  0  0  0  0  0  0  0  0  0  0  0
    2.9233    4.9131    2.9838 C   0  0  2  0  0  0  0  0  0  0  0  0
    1.9572   -0.6764    2.0345 C   0  0  2  0  0  0  0  0  0  0  0  0
    2.5902    0.5400    1.6445 O   0  0  0  0  0  0  0  0  0  0  0  0
    4.9601   -4.9007    6.0260 C   0  0  2  0  0  0  0  0  0  0  0  0
    4.6352   -6.0127    5.1928 O   0  0  0  0  0  0  0  0  0  0  0  0
    3.7238    3.0486   -0.1378 C   0  0  2  0  0  0  0  0  0  0  0  0
    4.1771    4.3618    0.3203 O   0  0  0  0  0  0  0  0  0  0  0  0
    3.7865    3.6334    3.0336 C   0  0  2  0  0  0  0  0  0  0  0  0
    2.8421    2.5317    2.9401 O   0  0  0  0  0  0  0  0  0  0  0  0
    0.4122   -0.4930    2.1509 C   0  0  0  0  0  0  0  0  0  0  0  0
   -0.1215   -0.1738    0.8694 O   0  0  0  0  0  0  0  0  0  0  0  0
    3.7013   -3.9714    6.2106 C   0  0  1  0  0  0  0  0  0  0  0  0
    3.3506   -3.4855    4.8648 O   0  0  0  0  0  0  0  0  0  0  0  0
    4.9256    2.1513   -0.3229 C   0  0  0  0  0  0  0  0  0  0  0  0
    4.5106    0.8392   -0.6152 O   0  0  0  0  0  0  0  0  0  0  0  0
    4.5931    3.5682    4.3977 C   0  0  1  0  0  0  0  0  0  0  0  0
    5.5043    2.4658    4.3800 O   0  0  0  0  0  0  0  0  0  0  0  0
    2.4525   -4.6973    6.8755 C   0  0  0  0  0  0  0  0  0  0  0  0
    2.6483   -5.1559    8.2783 N   0  0  0  0  0  0  0  0  0  0  0  0
  1  2  1  1  0  0  0
  1  7  1  0  0  0  0
  1 30  1  0  0  0  0
  3  4  1  1  0  0  0
  3  9  1  0  0  0  0
  3 39  1  0  0  0  0
  5 10  1  0  0  0  0
  5 26  1  0  0  0  0
  5 32  1  1  0  0  0
  6 12  1  0  0  0  0
  6 36  1  0  0  0  0
  6 19  1  6  0  0  0
  7  8  1  1  0  0  0
  7 14  1  0  0  0  0
  9 16  1  0  0  0  0
 10 11  1  6  0  0  0
 10 18  1  0  0  0  0
 12 13  1  6  0  0  0
 12 20  1  0  0  0  0
 14 15  1  6  0  0  0
 14 22  1  0  0  0  0
 16 17  1  1  0  0  0
 16 24  1  0  0  0  0
 18 19  1  6  0  0  0
 18 25  1  0  0  0  0
 20 21  1  1  0  0  0
 20 27  1  0  0  0  0
 22 23  1  1  0  0  0
 22 29  1  0  0  0  0
 24  2  1  6  0  0  0
 24 31  1  0  0  0  0
 25 26  1  0  0  0  0
 25 33  1  1  0  0  0
 27 28  1  6  0  0  0
 27 35  1  0  0  0  0
 29 30  1  0  0  0  0
 29 37  1  6  0  0  0
 31 32  1  1  0  0  0
 31 39  1  0  0  0  0
 33 34  1  0  0  0  0
 35 36  1  0  0  0  0
 35 41  1  6  0  0  0
 37 38  1  0  0  0  0
 39 40  1  6  0  0  0
 41 42  1  0  0  0  0
M  END
>  <CHROM.1>
-176.23025015,111.05134209,-175.28468483,77.58587086,49.85921945,-179.80942996
-64.79545221,169.43349098,64.70259080,3.51951118,1.04186770,2.78073322,-1.90620998
1.10921190,2.95407238

>  <Name>
2o3w_lig

>  <RI>
0

>  <Rbt.Current_Directory>
/home/itssahil/PROJECTS/Mol_Feturizer/New_Systems/rnas/2o3w

>  <Rbt.Executable>
rbdock ($Id: //depot/dev/client3/rdock/2013.1/src/exe/rbdock.cxx#4 $)

>  <Rbt.Library>
libRbt.so (2013.1, Build901 2013/11/27)

>  <Rbt.Parameter_File>
/export/apps/rDock/src/rDock_2013.1_src/data/scripts/dock_solv.prm

>  <Rbt.Receptor>
prm/pocket_docking_6.prm

>  <SCORE>
-9.31696

>  <SCORE.INTER>
0.472294

>  <SCORE.INTER.CONST>
1

>  <SCORE.INTER.POLAR>
0

>  <SCORE.INTER.ROT>
9

>  <SCORE.INTER.SOLV>
7.08799

>  <SCORE.INTER.VDW>
-11.6478

>  <SCORE.INTER.norm>
0.0112451

>  <SCORE.INTRA>
-9.78926

>  <SCORE.INTRA.DIHEDRAL>
-18.1609

>  <SCORE.INTRA.DIHEDRAL.0>
27.8999

>  <SCORE.INTRA.POLAR>
0

>  <SCORE.INTRA.POLAR.0>
0

>  <SCORE.INTRA.REPUL>
0

>  <SCORE.INTRA.REPUL.0>
0

>  <SCORE.INTRA.SOLV>
-3.70522

>  <SCORE.INTRA.SOLV.lig_0>
-104.479

>  <SCORE.INTRA.VDW>
1.14379

>  <SCORE.INTRA.VDW.0>
-6.17816

>  <SCORE.INTRA.norm>
-0.233078

>  <SCORE.RESTR>
0

>  <SCORE.RESTR.CAVITY>
0

>  <SCORE.RESTR.norm>
0

>  <SCORE.SYSTEM>
0

>  <SCORE.SYSTEM.CONST>
0

>  <SCORE.SYSTEM.DIHEDRAL>
0

>  <SCORE.SYSTEM.SOLV>
0

>  <SCORE.SYSTEM.norm>
0

>  <SCORE.heavy>
42

>  <SCORE.norm>
-0.221832

>  <RMSD>
9.744

$$$$
2o3w_lig
 OpenBabel11021811463D
libRbt.so/2013.1/901 2013/11/27
 42 45  0  0  0  0  0  0  0  0999 V2000
    5.4430    6.8092   -0.4301 C   0  0  2  0  0  0  0  0  0  0  0  0
    5.7684    5.4721   -0.0134 O   0  0  0  0  0  0  0  0  0  0  0  0
    1.8608    4.3888    1.5206 C   0  0  2  0  0  0  0  0  0  0  0  0
    0.7368    3.6491    2.1685 N   0  0  0  0  0  0  0  0  0  0  0  0
    5.8540    4.0326    3.3768 C   0  0  1  0  0  0  0  0  0  0  0  0
    8.4213    1.0526    5.6030 C   0  0  1  0  0  0  0  0  0  0  0  0
    6.6838    7.3627   -1.1932 C   0  0  2  0  0  0  0  0  0  0  0  0
    7.1709    6.4327   -2.2269 N   0  0  0  0  0  0  0  0  0  0  0  0
    2.3827    3.6288    0.2353 C   0  0  0  0  0  0  0  0  0  0  0  0
    7.3995    3.9829    3.5757 C   0  0  2  0  0  0  0  0  0  0  0  0
    8.1190    3.4032    2.4597 O   0  0  0  0  0  0  0  0  0  0  0  0
    9.9614    1.1271    5.3011 C   0  0  2  0  0  0  0  0  0  0  0  0
   10.2543    0.6760    3.9076 N   0  0  0  0  0  0  0  0  0  0  0  0
    7.8704    7.6438   -0.2531 C   0  0  1  0  0  0  0  0  0  0  0  0
    8.9694    8.1858   -0.9876 O   0  0  0  0  0  0  0  0  0  0  0  0
    3.5485    4.4662   -0.4145 C   0  0  2  0  0  0  0  0  0  0  0  0
    4.0547    3.7863   -1.6372 N   0  0  0  0  0  0  0  0  0  0  0  0
    7.5045    3.2221    4.8983 C   0  0  2  0  0  0  0  0  0  0  0  0
    7.5967    1.7779    4.6824 O   0  0  0  0  0  0  0  0  0  0  0  0
   10.7539    0.2377    6.3724 C   0  0  1  0  0  0  0  0  0  0  0  0
   10.7516    0.9254    7.6436 O   0  0  0  0  0  0  0  0  0  0  0  0
    7.4194    8.5995    0.8749 C   0  0  2  0  0  0  0  0  0  0  0  0
    8.4991    8.8802    1.7351 O   0  0  0  0  0  0  0  0  0  0  0  0
    4.7331    4.6616    0.6123 C   0  0  2  0  0  0  0  0  0  0  0  0
    6.2429    3.5864    5.6989 C   0  0  2  0  0  0  0  0  0  0  0  0
    5.2702    3.8102    4.6810 O   0  0  0  0  0  0  0  0  0  0  0  0
   10.1253   -1.2250    6.5533 C   0  0  2  0  0  0  0  0  0  0  0  0
   10.3752   -1.9530    5.3516 O   0  0  0  0  0  0  0  0  0  0  0  0
    6.2411    7.9375    1.6642 C   0  0  2  0  0  0  0  0  0  0  0  0
    5.1376    7.6472    0.7489 O   0  0  0  0  0  0  0  0  0  0  0  0
    4.2845    5.3494    1.9204 C   0  0  2  0  0  0  0  0  0  0  0  0
    5.4374    5.2788    2.8038 O   0  0  0  0  0  0  0  0  0  0  0  0
    6.3872    4.8360    6.6219 C   0  0  0  0  0  0  0  0  0  0  0  0
    7.4586    4.6244    7.5363 O   0  0  0  0  0  0  0  0  0  0  0  0
    8.5758   -1.1346    6.8237 C   0  0  1  0  0  0  0  0  0  0  0  0
    8.0033   -0.4007    5.6819 O   0  0  0  0  0  0  0  0  0  0  0  0
    5.7309    8.8102    2.7875 C   0  0  0  0  0  0  0  0  0  0  0  0
    4.7555    8.1216    3.5318 O   0  0  0  0  0  0  0  0  0  0  0  0
    3.0472    4.5810    2.5482 C   0  0  1  0  0  0  0  0  0  0  0  0
    2.5377    5.3023    3.6733 O   0  0  0  0  0  0  0  0  0  0  0  0
    7.8627   -2.5469    6.9827 C   0  0  0  0  0  0  0  0  0  0  0  0
    8.4139   -3.4284    8.0484 N   0  0  0  0  0  0  0  0  0  0  0  0
  1  2  1  1  0  0  0
  1  7  1  0  0  0  0
  1 30  1  0  0  0  0
  3  4  1  1  0  0  0
  3  9  1  0  0  0  0
  3 39  1  0  0  0  0
  5 10  1  0  0  0  0
  5 26  1  0  0  0  0
  5 32  1  1  0  0  0
  6 12  1  0  0  0  0
  6 36  1  0  0  0  0
  6 19  1  6  0  0  0
  7  8  1  6  0  0  0
  7 14  1  0  0  0  0
  9 16  1  0  0  0  0
 10 11  1  6  0  0  0
 10 18  1  0  0  0  0
 12 13  1  6  0  0  0
 12 20  1  0  0  0  0
 14 15  1  6  0  0  0
 14 22  1  0  0  0  0
 16 17  1  6  0  0  0
 16 24  1  0  0  0  0
 18 19  1  6  0  0  0
 18 25  1  0  0  0  0
 20 21  1  1  0  0  0
 20 27  1  0  0  0  0
 22 23  1  1  0  0  0
 22 29  1  0  0  0  0
 24  2  1  6  0  0  0
 24 31  1  0  0  0  0
 25 26  1  0  0  0  0
 25 33  1  6  0  0  0
 27 28  1  6  0  0  0
 27 35  1  0  0  0  0
 29 30  1  0  0  0  0
 29 37  1  1  0  0  0
 31 32  1  1  0  0  0
 31 39  1  0  0  0  0
 33 34  1  0  0  0  0
 35 36  1  0  0  0  0
 35 41  1  6  0  0  0
 37 38  1  0  0  0  0
 39 40  1  1  0  0  0
 41 42  1  0  0  0  0
M  END
>  <CHROM.1>
-173.97508909,147.97778409,-80.08793896,145.11999237,61.30902504,-57.69374560
-174.95465549,-71.05632756,56.81958982,6.63028587,3.91263212,3.15669373,-1.96129336
0.19137002,2.52880377

>  <Name>
2o3w_lig

>  <RI>
0

>  <Rbt.Current_Directory>
/home/itssahil/PROJECTS/Mol_Feturizer/New_Systems/rnas/2o3w

>  <Rbt.Executable>
rbdock ($Id: //depot/dev/client3/rdock/2013.1/src/exe/rbdock.cxx#4 $)

>  <Rbt.Library>
libRbt.so (2013.1, Build901 2013/11/27)

>  <Rbt.Parameter_File>
/export/apps/rDock/src/rDock_2013.1_src/data/scripts/dock_solv.prm

>  <Rbt.Receptor>
prm/pocket_docking_5.prm

>  <SCORE>
-15.6424

>  <SCORE.INTER>
-7.39016

>  <SCORE.INTER.CONST>
1

>  <SCORE.INTER.POLAR>
-0.979796

>  <SCORE.INTER.ROT>
9

>  <SCORE.INTER.SOLV>
13.2785

>  <SCORE.INTER.VDW>
-15.687

>  <SCORE.INTER.norm>
-0.175956

>  <SCORE.INTRA>
-8.25228

>  <SCORE.INTRA.DIHEDRAL>
-16.5716

>  <SCORE.INTRA.DIHEDRAL.0>
27.8999

>  <SCORE.INTRA.POLAR>
0

>  <SCORE.INTRA.POLAR.0>
0

>  <SCORE.INTRA.REPUL>
0

>  <SCORE.INTRA.REPUL.0>
0

>  <SCORE.INTRA.SOLV>
-3.69399

>  <SCORE.INTRA.SOLV.lig_0>
-104.479

>  <SCORE.INTRA.VDW>
1.88053

>  <SCORE.INTRA.VDW.0>
-6.17816

>  <SCORE.INTRA.norm>
-0.196483

>  <SCORE.RESTR>
0

>  <SCORE.RESTR.CAVITY>
0

>  <SCORE.RESTR.norm>
0

>  <SCORE.SYSTEM>
0

>  <SCORE.SYSTEM.CONST>
0

>  <SCORE.SYSTEM.DIHEDRAL>
0

>  <SCORE.SYSTEM.SOLV>
0

>  <SCORE.SYSTEM.norm>
0

>  <SCORE.heavy>
42

>  <SCORE.norm>
-0.372439

>  <RMSD>
9.767

$$$$
2o3w_lig
 OpenBabel11021811463D
libRbt.so/2013.1/901 2013/11/27
 42 45  0  0  0  0  0  0  0  0999 V2000
    9.5766    4.7323    4.0323 C   0  0  2  0  0  0  0  0  0  0  0  0
   10.5482    5.7706    4.2448 O   0  0  0  0  0  0  0  0  0  0  0  0
   13.7142    5.9604    7.2004 C   0  0  2  0  0  0  0  0  0  0  0  0
   14.4560    6.0428    8.4941 N   0  0  0  0  0  0  0  0  0  0  0  0
   11.1974    2.1860    6.2380 C   0  0  1  0  0  0  0  0  0  0  0  0
   11.1490   -2.2560    6.1141 C   0  0  1  0  0  0  0  0  0  0  0  0
    8.8296    5.0722    2.7077 C   0  0  2  0  0  0  0  0  0  0  0  0
    9.7538    5.3695    1.5995 N   0  0  0  0  0  0  0  0  0  0  0  0
   12.8776    7.2760    6.9337 C   0  0  0  0  0  0  0  0  0  0  0  0
    9.9131    1.3099    6.3553 C   0  0  2  0  0  0  0  0  0  0  0  0
    9.4327    1.1470    7.7124 O   0  0  0  0  0  0  0  0  0  0  0  0
   11.7645   -3.2493    7.1644 C   0  0  2  0  0  0  0  0  0  0  0  0
   13.0574   -2.7265    7.6992 N   0  0  0  0  0  0  0  0  0  0  0  0
    7.9047    6.2944    2.8556 C   0  0  1  0  0  0  0  0  0  0  0  0
    7.2119    6.5449    1.6316 O   0  0  0  0  0  0  0  0  0  0  0  0
   12.1381    7.1385    5.5492 C   0  0  2  0  0  0  0  0  0  0  0  0
   11.3511    8.3673    5.2588 N   0  0  0  0  0  0  0  0  0  0  0  0
   10.3632    0.0276    5.6537 C   0  0  2  0  0  0  0  0  0  0  0  0
   10.9617   -0.9191    6.5952 O   0  0  0  0  0  0  0  0  0  0  0  0
   11.9628   -4.6849    6.4813 C   0  0  1  0  0  0  0  0  0  0  0  0
   10.6695   -5.3114    6.3268 O   0  0  0  0  0  0  0  0  0  0  0  0
    6.9200    6.0576    4.0232 C   0  0  2  0  0  0  0  0  0  0  0  0
    6.0550    7.1609    4.1611 O   0  0  0  0  0  0  0  0  0  0  0  0
   11.1791    5.8831    5.5523 C   0  0  2  0  0  0  0  0  0  0  0  0
   11.3764    0.4633    4.5818 C   0  0  2  0  0  0  0  0  0  0  0  0
   11.9765    1.6206    5.1590 O   0  0  0  0  0  0  0  0  0  0  0  0
   12.6912   -4.6006    5.0566 C   0  0  2  0  0  0  0  0  0  0  0  0
   14.0457   -4.2155    5.2873 O   0  0  0  0  0  0  0  0  0  0  0  0
    7.7348    5.8259    5.3393 C   0  0  2  0  0  0  0  0  0  0  0  0
    8.6313    4.6828    5.1679 O   0  0  0  0  0  0  0  0  0  0  0  0
   11.9201    4.5642    5.8630 C   0  0  2  0  0  0  0  0  0  0  0  0
   10.8748    3.5636    6.0072 O   0  0  0  0  0  0  0  0  0  0  0  0
   10.7592    0.7880    3.1861 C   0  0  0  0  0  0  0  0  0  0  0  0
   10.1787   -0.3935    2.6421 O   0  0  0  0  0  0  0  0  0  0  0  0
   11.9756   -3.5481    4.1280 C   0  0  1  0  0  0  0  0  0  0  0  0
   12.0005   -2.2711    4.8620 O   0  0  0  0  0  0  0  0  0  0  0  0
    6.8471    5.5787    6.5369 C   0  0  0  0  0  0  0  0  0  0  0  0
    6.0694    6.7194    6.8079 O   0  0  0  0  0  0  0  0  0  0  0  0
   12.7523    4.7053    7.2059 C   0  0  1  0  0  0  0  0  0  0  0  0
   13.5557    3.5403    7.4132 O   0  0  0  0  0  0  0  0  0  0  0  0
   12.6558   -3.3752    2.7011 C   0  0  0  0  0  0  0  0  0  0  0  0
   14.0743   -2.9232    2.7163 N   0  0  0  0  0  0  0  0  0  0  0  0
  1  2  1  1  0  0  0
  1  7  1  0  0  0  0
  1 30  1  0  0  0  0
  3  4  1  1  0  0  0
  3  9  1  0  0  0  0
  3 39  1  0  0  0  0
  5 10  1  0  0  0  0
  5 26  1  0  0  0  0
  5 32  1  6  0  0  0
  6 12  1  0  0  0  0
  6 36  1  0  0  0  0
  6 19  1  1  0  0  0
  7  8  1  6  0  0  0
  7 14  1  0  0  0  0
  9 16  1  0  0  0  0
 10 11  1  1  0  0  0
 10 18  1  0  0  0  0
 12 13  1  6  0  0  0
 12 20  1  0  0  0  0
 14 15  1  6  0  0  0
 14 22  1  0  0  0  0
 16 17  1  1  0  0  0
 16 24  1  0  0  0  0
 18 19  1  1  0  0  0
 18 25  1  0  0  0  0
 20 21  1  6  0  0  0
 20 27  1  0  0  0  0
 22 23  1  1  0  0  0
 22 29  1  0  0  0  0
 24  2  1  6  0  0  0
 24 31  1  0  0  0  0
 25 26  1  0  0  0  0
 25 33  1  6  0  0  0
 27 28  1  1  0  0  0
 27 35  1  0  0  0  0
 29 30  1  0  0  0  0
 29 37  1  1  0  0  0
 31 32  1  1  0  0  0
 31 39  1  0  0  0  0
 33 34  1  0  0  0  0
 35 36  1  0  0  0  0
 35 41  1  6  0  0  0
 37 38  1  0  0  0  0
 39 40  1  6  0  0  0
 41 42  1  0  0  0  0
M  END
>  <CHROM.1>
166.04251927,-179.91476514,-178.71627833,166.75733901,-176.95452236,-63.88854894
-64.09630710,176.89153527,-60.03046508,10.75868347,2.22497651,5.26528354
1.94152387,-0.60461363,0.17167722

>  <Name>
2o3w_lig

>  <RI>
0

>  <Rbt.Current_Directory>
/home/itssahil/PROJECTS/Mol_Feturizer/New_Systems/rnas/2o3w

>  <Rbt.Executable>
rbdock ($Id: //depot/dev/client3/rdock/2013.1/src/exe/rbdock.cxx#4 $)

>  <Rbt.Library>
libRbt.so (2013.1, Build901 2013/11/27)

>  <Rbt.Parameter_File>
/export/apps/rDock/src/rDock_2013.1_src/data/scripts/dock_solv.prm

>  <Rbt.Receptor>
prm/pocket_docking_7.prm

>  <SCORE>
-18.1905

>  <SCORE.INTER>
-5.92991

>  <SCORE.INTER.CONST>
1

>  <SCORE.INTER.POLAR>
-1.83251

>  <SCORE.INTER.ROT>
9

>  <SCORE.INTER.SOLV>
8.07934

>  <SCORE.INTER.VDW>
-10.138

>  <SCORE.INTER.norm>
-0.141188

>  <SCORE.INTRA>
-12.2606

>  <SCORE.INTRA.DIHEDRAL>
-25.7844

>  <SCORE.INTRA.DIHEDRAL.0>
27.8999

>  <SCORE.INTRA.POLAR>
0

>  <SCORE.INTRA.POLAR.0>
0

>  <SCORE.INTRA.REPUL>
0.00320698

>  <SCORE.INTRA.REPUL.0>
0

>  <SCORE.INTRA.SOLV>
-4.0898

>  <SCORE.INTRA.SOLV.lig_0>
-104.479

>  <SCORE.INTRA.VDW>
2.66045

>  <SCORE.INTRA.VDW.0>
-6.17816

>  <SCORE.INTRA.norm>
-0.29192

>  <SCORE.RESTR>
0

>  <SCORE.RESTR.CAVITY>
0

>  <SCORE.RESTR.norm>
0

>  <SCORE.SYSTEM>
0

>  <SCORE.SYSTEM.CONST>
0

>  <SCORE.SYSTEM.DIHEDRAL>
0

>  <SCORE.SYSTEM.SOLV>
0

>  <SCORE.SYSTEM.norm>
0

>  <SCORE.heavy>
42

>  <SCORE.norm>
-0.433108

>  <RMSD>
9.786

$$$$
2o3w_lig
 OpenBabel11021811463D
libRbt.so/2013.1/901 2013/11/27
 42 45  0  0  0  0  0  0  0  0999 V2000
    8.5690    4.1318    3.0263 C   0  0  2  0  0  0  0  0  0  0  0  0
    7.5511    5.0435    3.4733 O   0  0  0  0  0  0  0  0  0  0  0  0
    3.2432    4.5803    3.3188 C   0  0  2  0  0  0  0  0  0  0  0  0
    1.8397    4.4388    2.8284 N   0  0  0  0  0  0  0  0  0  0  0  0
    6.5587    1.2268    2.7303 C   0  0  1  0  0  0  0  0  0  0  0  0
    8.0087   -2.9812    3.0956 C   0  0  1  0  0  0  0  0  0  0  0  0
    9.8777    4.5027    3.7865 C   0  0  2  0  0  0  0  0  0  0  0  0
    9.6704    4.6238    5.2401 N   0  0  0  0  0  0  0  0  0  0  0  0
    3.8450    5.9924    2.9370 C   0  0  0  0  0  0  0  0  0  0  0  0
    7.3200    0.4259    1.6305 C   0  0  2  0  0  0  0  0  0  0  0  0
    6.4622   -0.1185    0.5976 O   0  0  0  0  0  0  0  0  0  0  0  0
    9.1067   -3.4777    2.0873 C   0  0  2  0  0  0  0  0  0  0  0  0
    8.5173   -3.7300    0.7383 N   0  0  0  0  0  0  0  0  0  0  0  0
   10.4716    5.8407    3.3090 C   0  0  1  0  0  0  0  0  0  0  0  0
   11.6885    6.1206    4.0031 O   0  0  0  0  0  0  0  0  0  0  0  0
    5.3138    6.0899    3.4987 C   0  0  2  0  0  0  0  0  0  0  0  0
    5.9068    7.4141    3.1696 N   0  0  0  0  0  0  0  0  0  0  0  0
    8.0707   -0.6025    2.4780 C   0  0  2  0  0  0  0  0  0  0  0  0
    7.2842   -1.8219    2.6659 O   0  0  0  0  0  0  0  0  0  0  0  0
    9.7996   -4.8000    2.6690 C   0  0  1  0  0  0  0  0  0  0  0  0
   10.6668   -4.4298    3.7644 O   0  0  0  0  0  0  0  0  0  0  0  0
   10.6928    5.7902    1.7800 C   0  0  2  0  0  0  0  0  0  0  0  0
   11.2519    7.0021    1.3293 O   0  0  0  0  0  0  0  0  0  0  0  0
    6.2170    4.9408    2.8989 C   0  0  2  0  0  0  0  0  0  0  0  0
    8.3611    0.0860    3.8222 C   0  0  2  0  0  0  0  0  0  0  0  0
    7.2590    0.9780    3.9708 O   0  0  0  0  0  0  0  0  0  0  0  0
    8.7372   -5.8894    3.1711 C   0  0  2  0  0  0  0  0  0  0  0  0
    8.0755   -6.4091    2.0185 O   0  0  0  0  0  0  0  0  0  0  0  0
    9.3225    5.5173    1.0747 C   0  0  2  0  0  0  0  0  0  0  0  0
    8.7583    4.2601    1.5657 O   0  0  0  0  0  0  0  0  0  0  0  0
    5.6588    3.5295    3.1848 C   0  0  2  0  0  0  0  0  0  0  0  0
    6.4971    2.6240    2.4155 O   0  0  0  0  0  0  0  0  0  0  0  0
    9.7176    0.8539    3.8889 C   0  0  0  0  0  0  0  0  0  0  0  0
   10.7747   -0.0253    3.5166 O   0  0  0  0  0  0  0  0  0  0  0  0
    7.6917   -5.2355    4.1517 C   0  0  1  0  0  0  0  0  0  0  0  0
    7.0693   -4.1275    3.4066 O   0  0  0  0  0  0  0  0  0  0  0  0
    9.4470    5.4453   -0.4297 C   0  0  0  0  0  0  0  0  0  0  0  0
    9.7730    6.7109   -0.9504 O   0  0  0  0  0  0  0  0  0  0  0  0
    4.1469    3.4315    2.7152 C   0  0  1  0  0  0  0  0  0  0  0  0
    3.5859    2.1785    3.1162 O   0  0  0  0  0  0  0  0  0  0  0  0
    6.5765   -6.2415    4.6739 C   0  0  0  0  0  0  0  0  0  0  0  0
    7.0746   -7.3922    5.4767 N   0  0  0  0  0  0  0  0  0  0  0  0
  1  2  1  1  0  0  0
  1  7  1  0  0  0  0
  1 30  1  0  0  0  0
  3  4  1  6  0  0  0
  3  9  1  0  0  0  0
  3 39  1  0  0  0  0
  5 10  1  0  0  0  0
  5 26  1  0  0  0  0
  5 32  1  6  0  0  0
  6 12  1  0  0  0  0
  6 36  1  0  0  0  0
  6 19  1  6  0  0  0
  7  8  1  1  0  0  0
  7 14  1  0  0  0  0
  9 16  1  0  0  0  0
 10 11  1  6  0  0  0
 10 18  1  0  0  0  0
 12 13  1  6  0  0  0
 12 20  1  0  0  0  0
 14 15  1  1  0  0  0
 14 22  1  0  0  0  0
 16 17  1  6  0  0  0
 16 24  1  0  0  0  0
 18 19  1  1  0  0  0
 18 25  1  0  0  0  0
 20 21  1  1  0  0  0
 20 27  1  0  0  0  0
 22 23  1  6  0  0  0
 22 29  1  0  0  0  0
 24  2  1  1  0  0  0
 24 31  1  0  0  0  0
 25 26  1  0  0  0  0
 25 33  1  6  0  0  0
 27 28  1  6  0  0  0
 27 35  1  0  0  0  0
 29 30  1  0  0  0  0
 29 37  1  6  0  0  0
 31 32  1  6  0  0  0
 31 39  1  0  0  0  0
 33 34  1  0  0  0  0
 35 36  1  0  0  0  0
 35 41  1  6  0  0  0
 37 38  1  0  0  0  0
 39 40  1  1  0  0  0
 41 42  1  0  0  0  0
M  END
>  <CHROM.1>
178.75902429,170.20347123,-62.36859857,162.51463583,-177.21647737,-53.92419421
-67.92949067,160.70748787,62.31123000,7.79993221,1.33981433,2.78934196,-1.59864738
-0.11193819,3.05274197

>  <Name>
2o3w_lig

>  <RI>
0

>  <Rbt.Current_Directory>
/home/itssahil/PROJECTS/Mol_Feturizer/New_Systems/rnas/2o3w

>  <Rbt.Executable>
rbdock ($Id: //depot/dev/client3/rdock/2013.1/src/exe/rbdock.cxx#4 $)

>  <Rbt.Library>
libRbt.so (2013.1, Build901 2013/11/27)

>  <Rbt.Parameter_File>
/export/apps/rDock/src/rDock_2013.1_src/data/scripts/dock_solv.prm

>  <Rbt.Receptor>
prm/pocket_docking_4.prm

>  <SCORE>
-14.7831

>  <SCORE.INTER>
-2.58515

>  <SCORE.INTER.CONST>
1

>  <SCORE.INTER.POLAR>
-0.979796

>  <SCORE.INTER.ROT>
9

>  <SCORE.INTER.SOLV>
9.14425

>  <SCORE.INTER.VDW>
-11.1055

>  <SCORE.INTER.norm>
-0.0615511

>  <SCORE.INTRA>
-12.2131

>  <SCORE.INTRA.DIHEDRAL>
-23.7646

>  <SCORE.INTRA.DIHEDRAL.0>
27.8999

>  <SCORE.INTRA.POLAR>
0

>  <SCORE.INTRA.POLAR.0>
0

>  <SCORE.INTRA.REPUL>
0

>  <SCORE.INTRA.REPUL.0>
0

>  <SCORE.INTRA.SOLV>
-4.95097

>  <SCORE.INTRA.SOLV.lig_0>
-104.479

>  <SCORE.INTRA.VDW>
2.14466

>  <SCORE.INTRA.VDW.0>
-6.17816

>  <SCORE.INTRA.norm>
-0.290788

>  <SCORE.RESTR>
0.0151378

>  <SCORE.RESTR.CAVITY>
0.0151378

>  <SCORE.RESTR.norm>
0.000360423

>  <SCORE.SYSTEM>
0

>  <SCORE.SYSTEM.CONST>
0

>  <SCORE.SYSTEM.DIHEDRAL>
0

>  <SCORE.SYSTEM.SOLV>
0

>  <SCORE.SYSTEM.norm>
0

>  <SCORE.heavy>
42

>  <SCORE.norm>
-0.351979

>  <RMSD>
9.879

$$$$
2o3w_lig
 OpenBabel11021811463D
libRbt.so/2013.1/901 2013/11/27
 42 45  0  0  0  0  0  0  0  0999 V2000
    6.7114    5.3545   -0.4148 C   0  0  2  0  0  0  0  0  0  0  0  0
    6.2740    6.2720    0.6022 O   0  0  0  0  0  0  0  0  0  0  0  0
    3.4488    5.9649    3.8763 C   0  0  2  0  0  0  0  0  0  0  0  0
    2.2169    5.7012    4.6784 N   0  0  0  0  0  0  0  0  0  0  0  0
    5.7823    2.4050    2.0498 C   0  0  1  0  0  0  0  0  0  0  0  0
    7.5581   -1.5900    2.8410 C   0  0  1  0  0  0  0  0  0  0  0  0
    8.2564    5.5151   -0.5386 C   0  0  2  0  0  0  0  0  0  0  0  0
    8.9363    5.4507    0.7669 N   0  0  0  0  0  0  0  0  0  0  0  0
    3.1977    7.0883    2.7914 C   0  0  0  0  0  0  0  0  0  0  0  0
    6.0242    1.3129    0.9637 C   0  0  2  0  0  0  0  0  0  0  0  0
    4.8351    0.5687    0.6013 O   0  0  0  0  0  0  0  0  0  0  0  0
    8.0337   -2.5554    1.6961 C   0  0  2  0  0  0  0  0  0  0  0  0
    6.8676   -3.2154    1.0362 N   0  0  0  0  0  0  0  0  0  0  0  0
    8.6548    6.8561   -1.1818 C   0  0  1  0  0  0  0  0  0  0  0  0
   10.0749    6.9431   -1.3115 O   0  0  0  0  0  0  0  0  0  0  0  0
    4.5345    7.3368    1.9954 C   0  0  2  0  0  0  0  0  0  0  0  0
    4.3383    8.4005    0.9738 N   0  0  0  0  0  0  0  0  0  0  0  0
    7.1456    0.4965    1.6080 C   0  0  2  0  0  0  0  0  0  0  0  0
    6.6152   -0.5931    2.4279 O   0  0  0  0  0  0  0  0  0  0  0  0
    9.0412   -3.6420    2.3053 C   0  0  1  0  0  0  0  0  0  0  0  0
   10.3064   -3.0014    2.5842 O   0  0  0  0  0  0  0  0  0  0  0  0
    7.9532    6.9996   -2.5516 C   0  0  2  0  0  0  0  0  0  0  0  0
    8.3208    8.2151   -3.1613 O   0  0  0  0  0  0  0  0  0  0  0  0
    5.0186    6.0081    1.2911 C   0  0  2  0  0  0  0  0  0  0  0  0
    7.9585    1.4881    2.4573 C   0  0  2  0  0  0  0  0  0  0  0  0
    6.9801    2.4439    2.8592 O   0  0  0  0  0  0  0  0  0  0  0  0
    8.4822   -4.3287    3.6407 C   0  0  2  0  0  0  0  0  0  0  0  0
    7.3776   -5.1533    3.2714 O   0  0  0  0  0  0  0  0  0  0  0  0
    6.4037    6.9329   -2.3410 C   0  0  2  0  0  0  0  0  0  0  0  0
    6.0486    5.6676   -1.6987 O   0  0  0  0  0  0  0  0  0  0  0  0
    5.2309    4.8460    2.2860 C   0  0  2  0  0  0  0  0  0  0  0  0
    5.4877    3.6776    1.4593 O   0  0  0  0  0  0  0  0  0  0  0  0
    9.1429    2.1770    1.7112 C   0  0  0  0  0  0  0  0  0  0  0  0
   10.1909    1.2319    1.5183 O   0  0  0  0  0  0  0  0  0  0  0  0
    8.0235   -3.2352    4.6780 C   0  0  1  0  0  0  0  0  0  0  0  0
    7.0130   -2.4149    3.9878 O   0  0  0  0  0  0  0  0  0  0  0  0
    5.6349    7.0592   -3.6359 C   0  0  0  0  0  0  0  0  0  0  0  0
    4.2514    7.0146   -3.3847 O   0  0  0  0  0  0  0  0  0  0  0  0
    3.9305    4.6351    3.1692 C   0  0  1  0  0  0  0  0  0  0  0  0
    4.1790    3.6637    4.1891 O   0  0  0  0  0  0  0  0  0  0  0  0
    7.4218   -3.8311    6.0239 C   0  0  0  0  0  0  0  0  0  0  0  0
    7.1182   -2.8351    7.0880 N   0  0  0  0  0  0  0  0  0  0  0  0
  1  2  1  1  0  0  0
  1  7  1  0  0  0  0
  1 30  1  0  0  0  0
  3  4  1  6  0  0  0
  3  9  1  0  0  0  0
  3 39  1  0  0  0  0
  5 10  1  0  0  0  0
  5 26  1  0  0  0  0
  5 32  1  6  0  0  0
  6 12  1  0  0  0  0
  6 36  1  0  0  0  0
  6 19  1  6  0  0  0
  7  8  1  1  0  0  0
  7 14  1  0  0  0  0
  9 16  1  0  0  0  0
 10 11  1  1  0  0  0
 10 18  1  0  0  0  0
 12 13  1  1  0  0  0
 12 20  1  0  0  0  0
 14 15  1  6  0  0  0
 14 22  1  0  0  0  0
 16 17  1  6  0  0  0
 16 24  1  0  0  0  0
 18 19  1  1  0  0  0
 18 25  1  0  0  0  0
 20 21  1  1  0  0  0
 20 27  1  0  0  0  0
 22 23  1  1  0  0  0
 22 29  1  0  0  0  0
 24  2  1  1  0  0  0
 24 31  1  0  0  0  0
 25 26  1  0  0  0  0
 25 33  1  6  0  0  0
 27 28  1  6  0  0  0
 27 35  1  0  0  0  0
 29 30  1  0  0  0  0
 29 37  1  6  0  0  0
 31 32  1  6  0  0  0
 31 39  1  0  0  0  0
 33 34  1  0  0  0  0
 35 36  1  0  0  0  0
 35 41  1  1  0  0  0
 37 38  1  0  0  0  0
 39 40  1  1  0  0  0
 41 42  1  0  0  0  0
M  END
>  <CHROM.1>
-156.79616179,-179.80688855,-72.58478399,166.94782874,-162.18845467,-72.80222502
-179.04554933,177.69993678,173.46826736,6.70345556,2.64149749,1.48249383
-1.79280192,-0.74268737,2.58374360

>  <Name>
2o3w_lig

>  <RI>
0

>  <Rbt.Current_Directory>
/home/itssahil/PROJECTS/Mol_Feturizer/New_Systems/rnas/2o3w

>  <Rbt.Executable>
rbdock ($Id: //depot/dev/client3/rdock/2013.1/src/exe/rbdock.cxx#4 $)

>  <Rbt.Library>
libRbt.so (2013.1, Build901 2013/11/27)

>  <Rbt.Parameter_File>
/export/apps/rDock/src/rDock_2013.1_src/data/scripts/dock_solv.prm

>  <Rbt.Receptor>
prm/pocket_docking_5.prm

>  <SCORE>
-18.8353

>  <SCORE.INTER>
-7.42178

>  <SCORE.INTER.CONST>
1

>  <SCORE.INTER.POLAR>
-1.7227

>  <SCORE.INTER.ROT>
9

>  <SCORE.INTER.SOLV>
16.8482

>  <SCORE.INTER.VDW>
-14.4216

>  <SCORE.INTER.norm>
-0.176709

>  <SCORE.INTRA>
-11.4135

>  <SCORE.INTRA.DIHEDRAL>
-21.6554

>  <SCORE.INTRA.DIHEDRAL.0>
27.8999

>  <SCORE.INTRA.POLAR>
0

>  <SCORE.INTRA.POLAR.0>
0

>  <SCORE.INTRA.REPUL>
0

>  <SCORE.INTRA.REPUL.0>
0

>  <SCORE.INTRA.SOLV>
-4.81716

>  <SCORE.INTRA.SOLV.lig_0>
-104.479

>  <SCORE.INTRA.VDW>
1.82278

>  <SCORE.INTRA.VDW.0>
-6.17816

>  <SCORE.INTRA.norm>
-0.27175

>  <SCORE.RESTR>
0

>  <SCORE.RESTR.CAVITY>
0

>  <SCORE.RESTR.norm>
0

>  <SCORE.SYSTEM>
0

>  <SCORE.SYSTEM.CONST>
0

>  <SCORE.SYSTEM.DIHEDRAL>
0

>  <SCORE.SYSTEM.SOLV>
0

>  <SCORE.SYSTEM.norm>
0

>  <SCORE.heavy>
42

>  <SCORE.norm>
-0.448459

>  <RMSD>
9.982

$$$$
2o3w_lig
 OpenBabel11021811463D
libRbt.so/2013.1/901 2013/11/27
 42 45  0  0  0  0  0  0  0  0999 V2000
    8.8544    3.3553    2.4017 C   0  0  2  0  0  0  0  0  0  0  0  0
    7.4380    3.2404    2.1827 O   0  0  0  0  0  0  0  0  0  0  0  0
    5.0547   -0.0814    0.7399 C   0  0  2  0  0  0  0  0  0  0  0  0
    4.5020   -1.1788   -0.1090 N   0  0  0  0  0  0  0  0  0  0  0  0
    9.4507    0.6488    3.0872 C   0  0  1  0  0  0  0  0  0  0  0  0
   12.0753   -0.6119    6.3450 C   0  0  1  0  0  0  0  0  0  0  0  0
    9.0544    4.3820    3.5568 C   0  0  2  0  0  0  0  0  0  0  0  0
    8.2117    4.0842    4.7280 N   0  0  0  0  0  0  0  0  0  0  0  0
    4.8265    1.3330    0.0696 C   0  0  0  0  0  0  0  0  0  0  0  0
    9.2719   -0.7309    3.7909 C   0  0  2  0  0  0  0  0  0  0  0  0
    8.1939   -0.7637    4.7583 O   0  0  0  0  0  0  0  0  0  0  0  0
   12.4702   -2.1172    6.5619 C   0  0  2  0  0  0  0  0  0  0  0  0
   11.4087   -2.8430    7.3218 N   0  0  0  0  0  0  0  0  0  0  0  0
    8.7209    5.8214    3.1234 C   0  0  1  0  0  0  0  0  0  0  0  0
    8.9559    6.7318    4.1989 O   0  0  0  0  0  0  0  0  0  0  0  0
    5.4086    2.4475    1.0191 C   0  0  2  0  0  0  0  0  0  0  0  0
    5.1977    3.7952    0.4251 N   0  0  0  0  0  0  0  0  0  0  0  0
   10.6750   -0.9607    4.3547 C   0  0  2  0  0  0  0  0  0  0  0  0
   10.8085   -0.4134    5.7050 O   0  0  0  0  0  0  0  0  0  0  0  0
   13.8766   -2.1900    7.3258 C   0  0  1  0  0  0  0  0  0  0  0  0
   14.9282   -1.8237    6.4044 O   0  0  0  0  0  0  0  0  0  0  0  0
    9.5574    6.1917    1.8775 C   0  0  2  0  0  0  0  0  0  0  0  0
    9.2760    7.5129    1.4779 O   0  0  0  0  0  0  0  0  0  0  0  0
    6.9508    2.2147    1.2711 C   0  0  2  0  0  0  0  0  0  0  0  0
   11.6432   -0.2740    3.3768 C   0  0  2  0  0  0  0  0  0  0  0  0
   10.8710    0.8120    2.8700 O   0  0  0  0  0  0  0  0  0  0  0  0
   13.9356   -1.2372    8.6127 C   0  0  2  0  0  0  0  0  0  0  0  0
   13.0591   -1.7862    9.5959 O   0  0  0  0  0  0  0  0  0  0  0  0
    9.2309    5.1840    0.7253 C   0  0  2  0  0  0  0  0  0  0  0  0
    9.5219    3.8203    1.1673 O   0  0  0  0  0  0  0  0  0  0  0  0
    7.2560    0.8262    1.8745 C   0  0  2  0  0  0  0  0  0  0  0  0
    8.7059    0.7156    1.8641 O   0  0  0  0  0  0  0  0  0  0  0  0
   12.1629   -1.1815    2.2190 C   0  0  0  0  0  0  0  0  0  0  0  0
   11.0641   -1.5827    1.4063 O   0  0  0  0  0  0  0  0  0  0  0  0
   13.4891    0.2273    8.2409 C   0  0  1  0  0  0  0  0  0  0  0  0
   12.1342    0.1106    7.6745 O   0  0  0  0  0  0  0  0  0  0  0  0
   10.0133    5.4691   -0.5357 C   0  0  0  0  0  0  0  0  0  0  0  0
    9.9332    6.8363   -0.8574 O   0  0  0  0  0  0  0  0  0  0  0  0
    6.5989   -0.3137    0.9888 C   0  0  1  0  0  0  0  0  0  0  0  0
    6.7519   -1.5844    1.6271 O   0  0  0  0  0  0  0  0  0  0  0  0
   13.4857    1.2352    9.4708 C   0  0  0  0  0  0  0  0  0  0  0  0
   14.8184    1.5232   10.0688 N   0  0  0  0  0  0  0  0  0  0  0  0
  1  2  1  6  0  0  0
  1  7  1  0  0  0  0
  1 30  1  0  0  0  0
  3  4  1  6  0  0  0
  3  9  1  0  0  0  0
  3 39  1  0  0  0  0
  5 10  1  0  0  0  0
  5 26  1  0  0  0  0
  5 32  1  6  0  0  0
  6 12  1  0  0  0  0
  6 36  1  0  0  0  0
  6 19  1  1  0  0  0
  7  8  1  1  0  0  0
  7 14  1  0  0  0  0
  9 16  1  0  0  0  0
 10 11  1  1  0  0  0
 10 18  1  0  0  0  0
 12 13  1  1  0  0  0
 12 20  1  0  0  0  0
 14 15  1  1  0  0  0
 14 22  1  0  0  0  0
 16 17  1  6  0  0  0
 16 24  1  0  0  0  0
 18 19  1  1  0  0  0
 18 25  1  0  0  0  0
 20 21  1  6  0  0  0
 20 27  1  0  0  0  0
 22 23  1  6  0  0  0
 22 29  1  0  0  0  0
 24  2  1  1  0  0  0
 24 31  1  0  0  0  0
 25 26  1  0  0  0  0
 25 33  1  6  0  0  0
 27 28  1  1  0  0  0
 27 35  1  0  0  0  0
 29 30  1  0  0  0  0
 29 37  1  6  0  0  0
 31 32  1  6  0  0  0
 31 39  1  0  0  0  0
 33 34  1  0  0  0  0
 35 36  1  0  0  0  0
 35 41  1  1  0  0  0
 37 38  1  0  0  0  0
 39 40  1  1  0  0  0
 41 42  1  0  0  0  0
M  END
>  <CHROM.1>
-172.15541565,72.53282019,-61.30866589,178.11098626,-170.71406011,63.04399083
-48.15032284,114.47055442,65.30065777,9.77802086,1.36793412,3.63973290,-2.50540384
0.77663351,2.92316322

>  <Name>
2o3w_lig

>  <RI>
0

>  <Rbt.Current_Directory>
/home/itssahil/PROJECTS/Mol_Feturizer/New_Systems/rnas/2o3w

>  <Rbt.Executable>
rbdock ($Id: //depot/dev/client3/rdock/2013.1/src/exe/rbdock.cxx#4 $)

>  <Rbt.Library>
libRbt.so (2013.1, Build901 2013/11/27)

>  <Rbt.Parameter_File>
/export/apps/rDock/src/rDock_2013.1_src/data/scripts/dock_solv.prm

>  <Rbt.Receptor>
prm/pocket_docking_6.prm

>  <SCORE>
-17.8789

>  <SCORE.INTER>
-9.95457

>  <SCORE.INTER.CONST>
1

>  <SCORE.INTER.POLAR>
-0.892622

>  <SCORE.INTER.ROT>
9

>  <SCORE.INTER.SOLV>
8.79373

>  <SCORE.INTER.VDW>
-16.1922

>  <SCORE.INTER.norm>
-0.237014

>  <SCORE.INTRA>
-7.92437

>  <SCORE.INTRA.DIHEDRAL>
-18.5894

>  <SCORE.INTRA.DIHEDRAL.0>
27.8999

>  <SCORE.INTRA.POLAR>
0

>  <SCORE.INTRA.POLAR.0>
0

>  <SCORE.INTRA.REPUL>
0

>  <SCORE.INTRA.REPUL.0>
0

>  <SCORE.INTRA.SOLV>
-4.13729

>  <SCORE.INTRA.SOLV.lig_0>
-104.479

>  <SCORE.INTRA.VDW>
3.43898

>  <SCORE.INTRA.VDW.0>
-6.17816

>  <SCORE.INTRA.norm>
-0.188675

>  <SCORE.RESTR>
0

>  <SCORE.RESTR.CAVITY>
0

>  <SCORE.RESTR.norm>
0

>  <SCORE.SYSTEM>
0

>  <SCORE.SYSTEM.CONST>
0

>  <SCORE.SYSTEM.DIHEDRAL>
0

>  <SCORE.SYSTEM.SOLV>
0

>  <SCORE.SYSTEM.norm>
0

>  <SCORE.heavy>
42

>  <SCORE.norm>
-0.425689

>  <RMSD>
10.004

$$$$
2o3w_lig
 OpenBabel11021811463D
libRbt.so/2013.1/901 2013/11/27
 42 45  0  0  0  0  0  0  0  0999 V2000
    5.3293    9.1737   -2.6784 C   0  0  2  0  0  0  0  0  0  0  0  0
    6.5303    8.8408   -1.9614 O   0  0  0  0  0  0  0  0  0  0  0  0
    6.8989    4.7463   -3.3381 C   0  0  2  0  0  0  0  0  0  0  0  0
    7.3856    3.3506   -3.5511 N   0  0  0  0  0  0  0  0  0  0  0  0
    7.3715    6.5717    0.6931 C   0  0  1  0  0  0  0  0  0  0  0  0
   10.5256    6.8216    3.5696 C   0  0  1  0  0  0  0  0  0  0  0  0
    5.1056   10.7060   -2.5047 C   0  0  2  0  0  0  0  0  0  0  0  0
    6.3144   11.4905   -2.8109 N   0  0  0  0  0  0  0  0  0  0  0  0
    7.9311    5.8059   -3.8979 C   0  0  0  0  0  0  0  0  0  0  0  0
    8.1914    7.8946    0.7854 C   0  0  2  0  0  0  0  0  0  0  0  0
    9.1908    8.0421   -0.2531 O   0  0  0  0  0  0  0  0  0  0  0  0
   12.0927    6.7918    3.6800 C   0  0  2  0  0  0  0  0  0  0  0  0
   12.6800    5.8485    2.6819 N   0  0  0  0  0  0  0  0  0  0  0  0
    4.6865   11.0765   -1.0701 C   0  0  1  0  0  0  0  0  0  0  0  0
    4.4542   12.4823   -0.9671 O   0  0  0  0  0  0  0  0  0  0  0  0
    7.3536    7.2533   -3.6652 C   0  0  2  0  0  0  0  0  0  0  0  0
    8.2946    8.2771   -4.1942 N   0  0  0  0  0  0  0  0  0  0  0  0
    8.7290    7.8118    2.2148 C   0  0  2  0  0  0  0  0  0  0  0  0
   10.0250    7.1345    2.2638 O   0  0  0  0  0  0  0  0  0  0  0  0
   12.5099    6.3840    5.1722 C   0  0  1  0  0  0  0  0  0  0  0  0
   12.2548    7.5028    6.0509 O   0  0  0  0  0  0  0  0  0  0  0  0
    3.4309   10.2665   -0.6743 C   0  0  2  0  0  0  0  0  0  0  0  0
    3.0245   10.6065    0.6309 O   0  0  0  0  0  0  0  0  0  0  0  0
    7.0997    7.5109   -2.1273 C   0  0  2  0  0  0  0  0  0  0  0  0
    7.6688    7.0452    3.0233 C   0  0  2  0  0  0  0  0  0  0  0  0
    7.0983    6.1685    2.0547 O   0  0  0  0  0  0  0  0  0  0  0  0
   11.7255    5.0930    5.7066 C   0  0  2  0  0  0  0  0  0  0  0  0
   12.1985    3.9659    4.9701 O   0  0  0  0  0  0  0  0  0  0  0  0
    3.7573    8.7388   -0.7716 C   0  0  2  0  0  0  0  0  0  0  0  0
    4.1855    8.4129   -2.1318 O   0  0  0  0  0  0  0  0  0  0  0  0
    6.1415    6.4766   -1.4970 C   0  0  2  0  0  0  0  0  0  0  0  0
    6.1704    6.7496   -0.0690 O   0  0  0  0  0  0  0  0  0  0  0  0
    6.5741    7.9378    3.6861 C   0  0  0  0  0  0  0  0  0  0  0  0
    7.1509    8.6653    4.7664 O   0  0  0  0  0  0  0  0  0  0  0  0
   10.1723    5.2634    5.5048 C   0  0  1  0  0  0  0  0  0  0  0  0
    9.9705    5.5028    4.0653 O   0  0  0  0  0  0  0  0  0  0  0  0
    2.5776    7.8678   -0.4061 C   0  0  0  0  0  0  0  0  0  0  0  0
    2.2772    8.0070    0.9612 O   0  0  0  0  0  0  0  0  0  0  0  0
    6.6481    5.0041   -1.7982 C   0  0  1  0  0  0  0  0  0  0  0  0
    5.6842    4.0487   -1.3469 O   0  0  0  0  0  0  0  0  0  0  0  0
    9.3164    4.0098    5.9788 C   0  0  0  0  0  0  0  0  0  0  0  0
    9.5490    2.7497    5.2209 N   0  0  0  0  0  0  0  0  0  0  0  0
  1  2  1  1  0  0  0
  1  7  1  0  0  0  0
  1 30  1  0  0  0  0
  3  4  1  1  0  0  0
  3  9  1  0  0  0  0
  3 39  1  0  0  0  0
  5 10  1  0  0  0  0
  5 26  1  0  0  0  0
  5 32  1  6  0  0  0
  6 12  1  0  0  0  0
  6 36  1  0  0  0  0
  6 19  1  6  0  0  0
  7  8  1  1  0  0  0
  7 14  1  0  0  0  0
  9 16  1  0  0  0  0
 10 11  1  6  0  0  0
 10 18  1  0  0  0  0
 12 13  1  6  0  0  0
 12 20  1  0  0  0  0
 14 15  1  6  0  0  0
 14 22  1  0  0  0  0
 16 17  1  1  0  0  0
 16 24  1  0  0  0  0
 18 19  1  6  0  0  0
 18 25  1  0  0  0  0
 20 21  1  1  0  0  0
 20 27  1  0  0  0  0
 22 23  1  1  0  0  0
 22 29  1  0  0  0  0
 24  2  1  6  0  0  0
 24 31  1  0  0  0  0
 25 26  1  0  0  0  0
 25 33  1  6  0  0  0
 27 28  1  6  0  0  0
 27 35  1  0  0  0  0
 29 30  1  0  0  0  0
 29 37  1  6  0  0  0
 31 32  1  1  0  0  0
 31 39  1  0  0  0  0
 33 34  1  0  0  0  0
 35 36  1  0  0  0  0
 35 41  1  6  0  0  0
 37 38  1  0  0  0  0
 39 40  1  6  0  0  0
 41 42  1  0  0  0  0
M  END
>  <CHROM.1>
-170.30375545,92.79338109,-150.59987668,-170.88121918,55.60554210,-71.29981924
-67.31685091,-64.56524847,-64.39656442,7.50898420,7.25113157,0.79613183,-2.62272784
-0.76541722,1.14913180

>  <Name>
2o3w_lig

>  <RI>
0

>  <Rbt.Current_Directory>
/home/itssahil/PROJECTS/Mol_Feturizer/New_Systems/rnas/2o3w

>  <Rbt.Executable>
rbdock ($Id: //depot/dev/client3/rdock/2013.1/src/exe/rbdock.cxx#4 $)

>  <Rbt.Library>
libRbt.so (2013.1, Build901 2013/11/27)

>  <Rbt.Parameter_File>
/export/apps/rDock/src/rDock_2013.1_src/data/scripts/dock_solv.prm

>  <Rbt.Receptor>
prm/pocket_docking_8.prm

>  <SCORE>
-17.5344

>  <SCORE.INTER>
-9.23836

>  <SCORE.INTER.CONST>
1

>  <SCORE.INTER.POLAR>
-1.85104

>  <SCORE.INTER.ROT>
9

>  <SCORE.INTER.SOLV>
29.0075

>  <SCORE.INTER.VDW>
-19.258

>  <SCORE.INTER.norm>
-0.219961

>  <SCORE.INTRA>
-8.30315

>  <SCORE.INTRA.DIHEDRAL>
-18.4339

>  <SCORE.INTRA.DIHEDRAL.0>
27.8999

>  <SCORE.INTRA.POLAR>
0

>  <SCORE.INTRA.POLAR.0>
0

>  <SCORE.INTRA.REPUL>
0

>  <SCORE.INTRA.REPUL.0>
0

>  <SCORE.INTRA.SOLV>
-2.73427

>  <SCORE.INTRA.SOLV.lig_0>
-104.479

>  <SCORE.INTRA.VDW>
2.28094

>  <SCORE.INTRA.VDW.0>
-6.17816

>  <SCORE.INTRA.norm>
-0.197694

>  <SCORE.RESTR>
0.00707908

>  <SCORE.RESTR.CAVITY>
0.00707908

>  <SCORE.RESTR.norm>
0.00016855

>  <SCORE.SYSTEM>
0

>  <SCORE.SYSTEM.CONST>
0

>  <SCORE.SYSTEM.DIHEDRAL>
0

>  <SCORE.SYSTEM.SOLV>
0

>  <SCORE.SYSTEM.norm>
0

>  <SCORE.heavy>
42

>  <SCORE.norm>
-0.417486

>  <RMSD>
10.028

$$$$
2o3w_lig
 OpenBabel11021811463D
libRbt.so/2013.1/901 2013/11/27
 42 45  0  0  0  0  0  0  0  0999 V2000
    6.1442    6.1210    2.9819 C   0  0  2  0  0  0  0  0  0  0  0  0
    4.8593    6.5817    2.5302 O   0  0  0  0  0  0  0  0  0  0  0  0
    1.5496    4.2082    1.0440 C   0  0  2  0  0  0  0  0  0  0  0  0
    0.6940    3.3252    0.1964 N   0  0  0  0  0  0  0  0  0  0  0  0
    5.3748    2.4469    2.9072 C   0  0  1  0  0  0  0  0  0  0  0  0
    6.9713   -1.0161    5.1846 C   0  0  1  0  0  0  0  0  0  0  0  0
    6.7206    7.2258    3.9175 C   0  0  2  0  0  0  0  0  0  0  0  0
    5.7563    7.6529    4.9462 N   0  0  0  0  0  0  0  0  0  0  0  0
    1.8550    5.5799    0.3180 C   0  0  0  0  0  0  0  0  0  0  0  0
    6.8847    2.0690    2.9979 C   0  0  2  0  0  0  0  0  0  0  0  0
    7.3884    1.3705    1.8328 O   0  0  0  0  0  0  0  0  0  0  0  0
    8.4627   -0.9783    5.6776 C   0  0  2  0  0  0  0  0  0  0  0  0
    9.4033   -1.2715    4.5550 N   0  0  0  0  0  0  0  0  0  0  0  0
    7.1337    8.4906    3.1426 C   0  0  1  0  0  0  0  0  0  0  0  0
    7.6920    9.4589    4.0324 O   0  0  0  0  0  0  0  0  0  0  0  0
    2.7392    6.4740    1.2675 C   0  0  2  0  0  0  0  0  0  0  0  0
    3.0342    7.7809    0.6206 N   0  0  0  0  0  0  0  0  0  0  0  0
    6.9152    1.2799    4.3077 C   0  0  2  0  0  0  0  0  0  0  0  0
    6.6851   -0.1472    4.0815 O   0  0  0  0  0  0  0  0  0  0  0  0
    8.6506   -2.0265    6.8746 C   0  0  1  0  0  0  0  0  0  0  0  0
    8.0193   -1.4976    8.0622 O   0  0  0  0  0  0  0  0  0  0  0  0
    8.1320    8.1083    2.0261 C   0  0  2  0  0  0  0  0  0  0  0  0
    8.5330    9.2580    1.3178 O   0  0  0  0  0  0  0  0  0  0  0  0
    4.0928    5.7404    1.6219 C   0  0  2  0  0  0  0  0  0  0  0  0
    5.8161    1.8878    5.1952 C   0  0  2  0  0  0  0  0  0  0  0  0
    4.8464    2.3296    4.2481 O   0  0  0  0  0  0  0  0  0  0  0  0
    8.0391   -3.4692    6.5397 C   0  0  2  0  0  0  0  0  0  0  0  0
    8.8538   -4.0581    5.5270 O   0  0  0  0  0  0  0  0  0  0  0  0
    7.4529    7.0758    1.0657 C   0  0  2  0  0  0  0  0  0  0  0  0
    7.0374    5.8968    1.8253 O   0  0  0  0  0  0  0  0  0  0  0  0
    3.8718    4.3633    2.2851 C   0  0  2  0  0  0  0  0  0  0  0  0
    5.1936    3.7628    2.3683 O   0  0  0  0  0  0  0  0  0  0  0  0
    6.2833    3.0625    6.1097 C   0  0  0  0  0  0  0  0  0  0  0  0
    6.5908    4.1943    5.3013 O   0  0  0  0  0  0  0  0  0  0  0  0
    6.5519   -3.3392    6.0361 C   0  0  1  0  0  0  0  0  0  0  0  0
    6.5932   -2.4471    4.8645 O   0  0  0  0  0  0  0  0  0  0  0  0
    8.3647    6.6399   -0.0579 C   0  0  0  0  0  0  0  0  0  0  0  0
    9.0385    7.7521   -0.5948 O   0  0  0  0  0  0  0  0  0  0  0  0
    2.9054    3.4743    1.3955 C   0  0  1  0  0  0  0  0  0  0  0  0
    2.5806    2.2615    2.0806 O   0  0  0  0  0  0  0  0  0  0  0  0
    5.8761   -4.7253    5.6479 C   0  0  0  0  0  0  0  0  0  0  0  0
    5.6211   -5.6554    6.7821 N   0  0  0  0  0  0  0  0  0  0  0  0
  1  2  1  6  0  0  0
  1  7  1  0  0  0  0
  1 30  1  0  0  0  0
  3  4  1  6  0  0  0
  3  9  1  0  0  0  0
  3 39  1  0  0  0  0
  5 10  1  0  0  0  0
  5 26  1  0  0  0  0
  5 32  1  1  0  0  0
  6 12  1  0  0  0  0
  6 36  1  0  0  0  0
  6 19  1  6  0  0  0
  7  8  1  1  0  0  0
  7 14  1  0  0  0  0
  9 16  1  0  0  0  0
 10 11  1  6  0  0  0
 10 18  1  0  0  0  0
 12 13  1  6  0  0  0
 12 20  1  0  0  0  0
 14 15  1  1  0  0  0
 14 22  1  0  0  0  0
 16 17  1  6  0  0  0
 16 24  1  0  0  0  0
 18 19  1  6  0  0  0
 18 25  1  0  0  0  0
 20 21  1  1  0  0  0
 20 27  1  0  0  0  0
 22 23  1  6  0  0  0
 22 29  1  0  0  0  0
 24  2  1  1  0  0  0
 24 31  1  0  0  0  0
 25 26  1  0  0  0  0
 25 33  1  6  0  0  0
 27 28  1  6  0  0  0
 27 35  1  0  0  0  0
 29 30  1  0  0  0  0
 29 37  1  6  0  0  0
 31 32  1  6  0  0  0
 31 39  1  0  0  0  0
 33 34  1  0  0  0  0
 35 36  1  0  0  0  0
 35 41  1  6  0  0  0
 37 38  1  0  0  0  0
 39 40  1  1  0  0  0
 41 42  1  0  0  0  0
M  END
>  <CHROM.1>
179.46510345,-175.40016598,-60.23794995,167.18244102,-179.38064341,68.97395632
-43.57373966,-178.40724463,67.96761556,6.10754018,2.98934281,3.40262687,-1.71753778
0.39757820,2.79868192

>  <Name>
2o3w_lig

>  <RI>
0

>  <Rbt.Current_Directory>
/home/itssahil/PROJECTS/Mol_Feturizer/New_Systems/rnas/2o3w

>  <Rbt.Executable>
rbdock ($Id: //depot/dev/client3/rdock/2013.1/src/exe/rbdock.cxx#4 $)

>  <Rbt.Library>
libRbt.so (2013.1, Build901 2013/11/27)

>  <Rbt.Parameter_File>
/export/apps/rDock/src/rDock_2013.1_src/data/scripts/dock_solv.prm

>  <Rbt.Receptor>
prm/pocket_docking_5.prm

>  <SCORE>
-17.2958

>  <SCORE.INTER>
-6.11391

>  <SCORE.INTER.CONST>
1

>  <SCORE.INTER.POLAR>
-1.29928

>  <SCORE.INTER.ROT>
9

>  <SCORE.INTER.SOLV>
12.6998

>  <SCORE.INTER.VDW>
-13.5783

>  <SCORE.INTER.norm>
-0.145569

>  <SCORE.INTRA>
-11.1819

>  <SCORE.INTRA.DIHEDRAL>
-25.4264

>  <SCORE.INTRA.DIHEDRAL.0>
27.8999

>  <SCORE.INTRA.POLAR>
0

>  <SCORE.INTRA.POLAR.0>
0

>  <SCORE.INTRA.REPUL>
0

>  <SCORE.INTRA.REPUL.0>
0

>  <SCORE.INTRA.SOLV>
-4.01134

>  <SCORE.INTRA.SOLV.lig_0>
-104.479

>  <SCORE.INTRA.VDW>
3.53696

>  <SCORE.INTRA.VDW.0>
-6.17816

>  <SCORE.INTRA.norm>
-0.266235

>  <SCORE.RESTR>
0

>  <SCORE.RESTR.CAVITY>
0

>  <SCORE.RESTR.norm>
0

>  <SCORE.SYSTEM>
0

>  <SCORE.SYSTEM.CONST>
0

>  <SCORE.SYSTEM.DIHEDRAL>
0

>  <SCORE.SYSTEM.SOLV>
0

>  <SCORE.SYSTEM.norm>
0

>  <SCORE.heavy>
42

>  <SCORE.norm>
-0.411805

>  <RMSD>
10.077

$$$$
2o3w_lig
 OpenBabel11021811463D
libRbt.so/2013.1/901 2013/11/27
 42 45  0  0  0  0  0  0  0  0999 V2000
   10.3440    4.3478    5.0926 C   0  0  2  0  0  0  0  0  0  0  0  0
    9.0811    4.5678    5.7438 O   0  0  0  0  0  0  0  0  0  0  0  0
    5.4721    2.1798    5.4828 C   0  0  2  0  0  0  0  0  0  0  0  0
    4.2392    1.5076    4.9744 N   0  0  0  0  0  0  0  0  0  0  0  0
    9.6018    0.9235    3.8071 C   0  0  1  0  0  0  0  0  0  0  0  0
   12.1413   -2.5741    3.1077 C   0  0  1  0  0  0  0  0  0  0  0  0
   11.4118    5.1615    5.8837 C   0  0  2  0  0  0  0  0  0  0  0  0
   11.3479    4.9144    7.3347 N   0  0  0  0  0  0  0  0  0  0  0  0
    5.3149    3.7536    5.4693 C   0  0  0  0  0  0  0  0  0  0  0  0
   10.8061    0.9651    2.8177 C   0  0  2  0  0  0  0  0  0  0  0  0
   10.4272    0.8587    1.4234 O   0  0  0  0  0  0  0  0  0  0  0  0
   13.6781   -2.4087    2.8249 C   0  0  2  0  0  0  0  0  0  0  0  0
   13.9243   -2.0881    1.3870 N   0  0  0  0  0  0  0  0  0  0  0  0
   11.2551    6.6803    5.6839 C   0  0  1  0  0  0  0  0  0  0  0  0
   12.2765    7.3833    6.3934 O   0  0  0  0  0  0  0  0  0  0  0  0
    6.6340    4.4031    6.0356 C   0  0  2  0  0  0  0  0  0  0  0  0
    6.5153    5.8861    6.0508 N   0  0  0  0  0  0  0  0  0  0  0  0
   11.6731   -0.1736    3.3571 C   0  0  2  0  0  0  0  0  0  0  0  0
   11.3395   -1.4500    2.7244 O   0  0  0  0  0  0  0  0  0  0  0  0
   14.4420   -3.7498    3.2546 C   0  0  1  0  0  0  0  0  0  0  0  0
   14.4959   -3.8150    4.6974 O   0  0  0  0  0  0  0  0  0  0  0  0
   11.2893    7.0079    4.1737 C   0  0  2  0  0  0  0  0  0  0  0  0
   11.1638    8.3967    3.9745 O   0  0  0  0  0  0  0  0  0  0  0  0
    7.8818    3.9801    5.1638 C   0  0  2  0  0  0  0  0  0  0  0  0
   11.4182   -0.2197    4.8731 C   0  0  2  0  0  0  0  0  0  0  0  0
   10.0694    0.2282    4.9856 O   0  0  0  0  0  0  0  0  0  0  0  0
   13.7430   -5.0739    2.6840 C   0  0  2  0  0  0  0  0  0  0  0  0
   13.9355   -5.0878    1.2701 O   0  0  0  0  0  0  0  0  0  0  0  0
   10.1287    6.2394    3.4582 C   0  0  2  0  0  0  0  0  0  0  0  0
   10.2755    4.8022    3.6874 O   0  0  0  0  0  0  0  0  0  0  0  0
    8.0656    2.4487    5.0847 C   0  0  2  0  0  0  0  0  0  0  0  0
    9.1250    2.2410    4.1106 O   0  0  0  0  0  0  0  0  0  0  0  0
   12.3767    0.6651    5.7289 C   0  0  0  0  0  0  0  0  0  0  0  0
   12.0654    0.4975    7.1087 O   0  0  0  0  0  0  0  0  0  0  0  0
   12.2048   -5.0814    3.0249 C   0  0  1  0  0  0  0  0  0  0  0  0
   11.6514   -3.8450    2.4461 O   0  0  0  0  0  0  0  0  0  0  0  0
   10.0910    6.4979    1.9697 C   0  0  0  0  0  0  0  0  0  0  0  0
    8.9862    5.8460    1.3921 O   0  0  0  0  0  0  0  0  0  0  0  0
    6.7198    1.7582    4.6076 C   0  0  1  0  0  0  0  0  0  0  0  0
    6.8429    0.3351    4.6797 O   0  0  0  0  0  0  0  0  0  0  0  0
   11.4236   -6.3482    2.4649 C   0  0  0  0  0  0  0  0  0  0  0  0
    9.9581   -6.3664    2.7270 N   0  0  0  0  0  0  0  0  0  0  0  0
  1  2  1  1  0  0  0
  1  7  1  0  0  0  0
  1 30  1  0  0  0  0
  3  4  1  6  0  0  0
  3  9  1  0  0  0  0
  3 39  1  0  0  0  0
  5 10  1  0  0  0  0
  5 26  1  0  0  0  0
  5 32  1  1  0  0  0
  6 12  1  0  0  0  0
  6 36  1  0  0  0  0
  6 19  1  6  0  0  0
  7  8  1  1  0  0  0
  7 14  1  0  0  0  0
  9 16  1  0  0  0  0
 10 11  1  6  0  0  0
 10 18  1  0  0  0  0
 12 13  1  6  0  0  0
 12 20  1  0  0  0  0
 14 15  1  1  0  0  0
 14 22  1  0  0  0  0
 16 17  1  6  0  0  0
 16 24  1  0  0  0  0
 18 19  1  6  0  0  0
 18 25  1  0  0  0  0
 20 21  1  1  0  0  0
 20 27  1  0  0  0  0
 22 23  1  1  0  0  0
 22 29  1  0  0  0  0
 24  2  1  1  0  0  0
 24 31  1  0  0  0  0
 25 26  1  0  0  0  0
 25 33  1  1  0  0  0
 27 28  1  6  0  0  0
 27 35  1  0  0  0  0
 29 30  1  0  0  0  0
 29 37  1  6  0  0  0
 31 32  1  6  0  0  0
 31 39  1  0  0  0  0
 33 34  1  0  0  0  0
 35 36  1  0  0  0  0
 35 41  1  6  0  0  0
 37 38  1  0  0  0  0
 39 40  1  1  0  0  0
 41 42  1  0  0  0  0
M  END
>  <CHROM.1>
176.57643522,-175.73490236,-58.96411393,176.88230338,-178.30021916,-178.03077901
-176.63522883,177.90766383,-177.96152056,10.39564005,1.34307418,4.10913630
-1.91475853,-0.14916779,-2.98216229

>  <Name>
2o3w_lig

>  <RI>
0

>  <Rbt.Current_Directory>
/home/itssahil/PROJECTS/Mol_Feturizer/New_Systems/rnas/2o3w

>  <Rbt.Executable>
rbdock ($Id: //depot/dev/client3/rdock/2013.1/src/exe/rbdock.cxx#4 $)

>  <Rbt.Library>
libRbt.so (2013.1, Build901 2013/11/27)

>  <Rbt.Parameter_File>
/export/apps/rDock/src/rDock_2013.1_src/data/scripts/dock_solv.prm

>  <Rbt.Receptor>
prm/pocket_docking_8.prm

>  <SCORE>
-18.8704

>  <SCORE.INTER>
-4.9289

>  <SCORE.INTER.CONST>
1

>  <SCORE.INTER.POLAR>
-0.894427

>  <SCORE.INTER.ROT>
9

>  <SCORE.INTER.SOLV>
11.2112

>  <SCORE.INTER.VDW>
-13.6416

>  <SCORE.INTER.norm>
-0.117355

>  <SCORE.INTRA>
-13.9415

>  <SCORE.INTRA.DIHEDRAL>
-27.4438

>  <SCORE.INTRA.DIHEDRAL.0>
27.8999

>  <SCORE.INTRA.POLAR>
0

>  <SCORE.INTRA.POLAR.0>
0

>  <SCORE.INTRA.REPUL>
0

>  <SCORE.INTRA.REPUL.0>
0

>  <SCORE.INTRA.SOLV>
-6.33056

>  <SCORE.INTRA.SOLV.lig_0>
-104.479

>  <SCORE.INTRA.VDW>
2.94571

>  <SCORE.INTRA.VDW.0>
-6.17816

>  <SCORE.INTRA.norm>
-0.331939

>  <SCORE.RESTR>
0

>  <SCORE.RESTR.CAVITY>
0

>  <SCORE.RESTR.norm>
0

>  <SCORE.SYSTEM>
0

>  <SCORE.SYSTEM.CONST>
0

>  <SCORE.SYSTEM.DIHEDRAL>
0

>  <SCORE.SYSTEM.SOLV>
0

>  <SCORE.SYSTEM.norm>
0

>  <SCORE.heavy>
42

>  <SCORE.norm>
-0.449294

>  <RMSD>
10.148

$$$$
2o3w_lig
 OpenBabel11021811463D
libRbt.so/2013.1/901 2013/11/27
 42 45  0  0  0  0  0  0  0  0999 V2000
    5.9000    6.9921   -4.3368 C   0  0  2  0  0  0  0  0  0  0  0  0
    5.2004    6.1599   -3.3959 O   0  0  0  0  0  0  0  0  0  0  0  0
    1.3136    4.3564   -4.0566 C   0  0  2  0  0  0  0  0  0  0  0  0
    0.2242    3.4350   -4.4978 N   0  0  0  0  0  0  0  0  0  0  0  0
    4.8324    3.6015   -0.7101 C   0  0  1  0  0  0  0  0  0  0  0  0
    6.3818    3.5745    3.2315 C   0  0  1  0  0  0  0  0  0  0  0  0
    7.4004    6.9924   -3.9161 C   0  0  2  0  0  0  0  0  0  0  0  0
    7.9246    5.6332   -3.6963 N   0  0  0  0  0  0  0  0  0  0  0  0
    2.0311    5.0310   -5.2944 C   0  0  0  0  0  0  0  0  0  0  0  0
    5.7956    2.4369   -0.3268 C   0  0  2  0  0  0  0  0  0  0  0  0
    5.1225    1.1883   -0.0319 O   0  0  0  0  0  0  0  0  0  0  0  0
    7.8700    3.2947    3.6508 C   0  0  2  0  0  0  0  0  0  0  0  0
    8.0809    1.8431    3.9324 N   0  0  0  0  0  0  0  0  0  0  0  0
    7.6421    7.7783   -2.6142 C   0  0  1  0  0  0  0  0  0  0  0  0
    9.0331    7.7858   -2.2887 O   0  0  0  0  0  0  0  0  0  0  0  0
    3.1512    6.0052   -4.7662 C   0  0  2  0  0  0  0  0  0  0  0  0
    3.8386    6.6696   -5.9062 N   0  0  0  0  0  0  0  0  0  0  0  0
    6.5701    3.0620    0.8345 C   0  0  2  0  0  0  0  0  0  0  0  0
    5.9194    2.7994    2.1184 O   0  0  0  0  0  0  0  0  0  0  0  0
    8.2360    4.1881    4.9294 C   0  0  1  0  0  0  0  0  0  0  0  0
    8.3867    5.5632    4.5108 O   0  0  0  0  0  0  0  0  0  0  0  0
    7.0909    9.2141   -2.7688 C   0  0  2  0  0  0  0  0  0  0  0  0
    7.3194    9.9520   -1.5908 O   0  0  0  0  0  0  0  0  0  0  0  0
    4.2086    5.2180   -3.8955 C   0  0  2  0  0  0  0  0  0  0  0  0
    6.6329    4.5702    0.5398 C   0  0  2  0  0  0  0  0  0  0  0  0
    5.4227    4.8083   -0.1751 O   0  0  0  0  0  0  0  0  0  0  0  0
    7.1323    4.0982    6.0875 C   0  0  2  0  0  0  0  0  0  0  0  0
    7.1951    2.7847    6.6417 O   0  0  0  0  0  0  0  0  0  0  0  0
    5.5604    9.1418   -3.0879 C   0  0  2  0  0  0  0  0  0  0  0  0
    5.3486    8.3635   -4.3082 O   0  0  0  0  0  0  0  0  0  0  0  0
    3.5696    4.4844   -2.6960 C   0  0  2  0  0  0  0  0  0  0  0  0
    4.6380    3.6778   -2.1283 O   0  0  0  0  0  0  0  0  0  0  0  0
    7.8734    5.0279   -0.2884 C   0  0  0  0  0  0  0  0  0  0  0  0
    7.9682    4.2374   -1.4695 O   0  0  0  0  0  0  0  0  0  0  0  0
    5.6942    4.3771    5.5076 C   0  0  1  0  0  0  0  0  0  0  0  0
    5.4853    3.3866    4.4374 O   0  0  0  0  0  0  0  0  0  0  0  0
    4.9376   10.5076   -3.2622 C   0  0  0  0  0  0  0  0  0  0  0  0
    3.5592   10.3833   -3.5153 O   0  0  0  0  0  0  0  0  0  0  0  0
    2.3731    3.5668   -3.1879 C   0  0  1  0  0  0  0  0  0  0  0  0
    1.6867    3.0070   -2.0649 O   0  0  0  0  0  0  0  0  0  0  0  0
    4.5300    4.2748    6.5860 C   0  0  0  0  0  0  0  0  0  0  0  0
    4.1828    2.8960    7.0273 N   0  0  0  0  0  0  0  0  0  0  0  0
  1  2  1  1  0  0  0
  1  7  1  0  0  0  0
  1 30  1  0  0  0  0
  3  4  1  6  0  0  0
  3  9  1  0  0  0  0
  3 39  1  0  0  0  0
  5 10  1  0  0  0  0
  5 26  1  0  0  0  0
  5 32  1  6  0  0  0
  6 12  1  0  0  0  0
  6 36  1  0  0  0  0
  6 19  1  6  0  0  0
  7  8  1  1  0  0  0
  7 14  1  0  0  0  0
  9 16  1  0  0  0  0
 10 11  1  1  0  0  0
 10 18  1  0  0  0  0
 12 13  1  1  0  0  0
 12 20  1  0  0  0  0
 14 15  1  6  0  0  0
 14 22  1  0  0  0  0
 16 17  1  6  0  0  0
 16 24  1  0  0  0  0
 18 19  1  1  0  0  0
 18 25  1  0  0  0  0
 20 21  1  6  0  0  0
 20 27  1  0  0  0  0
 22 23  1  1  0  0  0
 22 29  1  0  0  0  0
 24  2  1  1  0  0  0
 24 31  1  0  0  0  0
 25 26  1  0  0  0  0
 25 33  1  6  0  0  0
 27 28  1  6  0  0  0
 27 35  1  0  0  0  0
 29 30  1  0  0  0  0
 29 37  1  6  0  0  0
 31 32  1  6  0  0  0
 31 39  1  0  0  0  0
 33 34  1  0  0  0  0
 35 36  1  0  0  0  0
 35 41  1  1  0  0  0
 37 38  1  0  0  0  0
 39 40  1  1  0  0  0
 41 42  1  0  0  0  0
M  END
>  <CHROM.1>
-136.48773767,166.49915693,-65.46649644,-166.65102372,-54.76839746,52.41869864
-178.62407901,136.74120140,-73.36887490,5.56588971,5.15989418,-0.46630823
-1.87023468,0.75128795,2.15472075

>  <Name>
2o3w_lig

>  <RI>
0

>  <Rbt.Current_Directory>
/home/itssahil/PROJECTS/Mol_Feturizer/New_Systems/rnas/2o3w

>  <Rbt.Executable>
rbdock ($Id: //depot/dev/client3/rdock/2013.1/src/exe/rbdock.cxx#4 $)

>  <Rbt.Library>
libRbt.so (2013.1, Build901 2013/11/27)

>  <Rbt.Parameter_File>
/export/apps/rDock/src/rDock_2013.1_src/data/scripts/dock_solv.prm

>  <Rbt.Receptor>
prm/pocket_docking_8.prm

>  <SCORE>
-11.2926

>  <SCORE.INTER>
-7.60285

>  <SCORE.INTER.CONST>
1

>  <SCORE.INTER.POLAR>
-1.80249

>  <SCORE.INTER.ROT>
9

>  <SCORE.INTER.SOLV>
19.512

>  <SCORE.INTER.VDW>
-15.1643

>  <SCORE.INTER.norm>
-0.18102

>  <SCORE.INTRA>
-3.68971

>  <SCORE.INTRA.DIHEDRAL>
-13.094

>  <SCORE.INTRA.DIHEDRAL.0>
27.8999

>  <SCORE.INTRA.POLAR>
0

>  <SCORE.INTRA.POLAR.0>
0

>  <SCORE.INTRA.REPUL>
0

>  <SCORE.INTRA.REPUL.0>
0

>  <SCORE.INTRA.SOLV>
0.567088

>  <SCORE.INTRA.SOLV.lig_0>
-104.479

>  <SCORE.INTRA.VDW>
2.57373

>  <SCORE.INTRA.VDW.0>
-6.17816

>  <SCORE.INTRA.norm>
-0.0878502

>  <SCORE.RESTR>
0

>  <SCORE.RESTR.CAVITY>
0

>  <SCORE.RESTR.norm>
0

>  <SCORE.SYSTEM>
0

>  <SCORE.SYSTEM.CONST>
0

>  <SCORE.SYSTEM.DIHEDRAL>
0

>  <SCORE.SYSTEM.SOLV>
0

>  <SCORE.SYSTEM.norm>
0

>  <SCORE.heavy>
42

>  <SCORE.norm>
-0.26887

>  <RMSD>
10.447

$$$$
2o3w_lig
 OpenBabel11021811463D
libRbt.so/2013.1/901 2013/11/27
 42 45  0  0  0  0  0  0  0  0999 V2000
    7.8631    4.5040   -1.3483 C   0  0  2  0  0  0  0  0  0  0  0  0
    6.5707    4.1292   -0.8417 O   0  0  0  0  0  0  0  0  0  0  0  0
    2.5410    3.8182   -2.4104 C   0  0  2  0  0  0  0  0  0  0  0  0
    1.3725    3.5405   -3.2980 N   0  0  0  0  0  0  0  0  0  0  0  0
    4.9739    0.2611   -0.7915 C   0  0  1  0  0  0  0  0  0  0  0  0
    4.6960   -3.8521    0.8066 C   0  0  1  0  0  0  0  0  0  0  0  0
    8.8749    4.3484   -0.1735 C   0  0  2  0  0  0  0  0  0  0  0  0
    8.7650    3.0406    0.4958 N   0  0  0  0  0  0  0  0  0  0  0  0
    3.4927    4.9134   -3.0403 C   0  0  0  0  0  0  0  0  0  0  0  0
    5.9153   -0.9013   -1.2316 C   0  0  2  0  0  0  0  0  0  0  0  0
    5.5632   -1.4945   -2.5057 O   0  0  0  0  0  0  0  0  0  0  0  0
    3.7633   -5.0581    0.4266 C   0  0  2  0  0  0  0  0  0  0  0  0
    2.3753   -4.5884    0.1370 N   0  0  0  0  0  0  0  0  0  0  0  0
    8.6785    5.4219    0.9128 C   0  0  1  0  0  0  0  0  0  0  0  0
    9.6504    5.2655    1.9481 O   0  0  0  0  0  0  0  0  0  0  0  0
    4.6902    5.1787   -2.0513 C   0  0  2  0  0  0  0  0  0  0  0  0
    5.5998    6.2167   -2.6068 N   0  0  0  0  0  0  0  0  0  0  0  0
    5.8251   -1.8311   -0.0206 C   0  0  2  0  0  0  0  0  0  0  0  0
    4.7401   -2.8017   -0.1671 O   0  0  0  0  0  0  0  0  0  0  0  0
    3.7716   -6.1289    1.6184 C   0  0  1  0  0  0  0  0  0  0  0  0
    5.0372   -6.8267    1.6107 O   0  0  0  0  0  0  0  0  0  0  0  0
    8.7585    6.8257    0.2709 C   0  0  2  0  0  0  0  0  0  0  0  0
    8.5972    7.8204    1.2553 O   0  0  0  0  0  0  0  0  0  0  0  0
    5.5012    3.8485   -1.7891 C   0  0  2  0  0  0  0  0  0  0  0  0
    5.5976   -0.9206    1.1978 C   0  0  2  0  0  0  0  0  0  0  0  0
    4.8696    0.1751    0.6482 O   0  0  0  0  0  0  0  0  0  0  0  0
    3.5363   -5.4614    3.0560 C   0  0  2  0  0  0  0  0  0  0  0  0
    2.1847   -5.0062    3.1037 O   0  0  0  0  0  0  0  0  0  0  0  0
    7.6497    6.9491   -0.8268 C   0  0  2  0  0  0  0  0  0  0  0  0
    7.8327    5.9011   -1.8308 O   0  0  0  0  0  0  0  0  0  0  0  0
    4.6211    2.7119   -1.2245 C   0  0  2  0  0  0  0  0  0  0  0  0
    5.4736    1.5339   -1.2220 O   0  0  0  0  0  0  0  0  0  0  0  0
    6.8989   -0.4312    1.9058 C   0  0  0  0  0  0  0  0  0  0  0  0
    7.6226   -1.5579    2.3911 O   0  0  0  0  0  0  0  0  0  0  0  0
    4.5259   -4.2557    3.2777 C   0  0  1  0  0  0  0  0  0  0  0  0
    4.2875   -3.3207    2.1645 O   0  0  0  0  0  0  0  0  0  0  0  0
    7.6592    8.2948   -1.5142 C   0  0  0  0  0  0  0  0  0  0  0  0
    8.9633    8.6162   -1.9330 O   0  0  0  0  0  0  0  0  0  0  0  0
    3.3538    2.4868   -2.1513 C   0  0  1  0  0  0  0  0  0  0  0  0
    2.4641    1.5422   -1.5498 O   0  0  0  0  0  0  0  0  0  0  0  0
    4.3382   -3.5115    4.6703 C   0  0  0  0  0  0  0  0  0  0  0  0
    3.0148   -2.8621    4.8782 N   0  0  0  0  0  0  0  0  0  0  0  0
  1  2  1  1  0  0  0
  1  7  1  0  0  0  0
  1 30  1  0  0  0  0
  3  4  1  6  0  0  0
  3  9  1  0  0  0  0
  3 39  1  0  0  0  0
  5 10  1  0  0  0  0
  5 26  1  0  0  0  0
  5 32  1  1  0  0  0
  6 12  1  0  0  0  0
  6 36  1  0  0  0  0
  6 19  1  6  0  0  0
  7  8  1  1  0  0  0
  7 14  1  0  0  0  0
  9 16  1  0  0  0  0
 10 11  1  6  0  0  0
 10 18  1  0  0  0  0
 12 13  1  1  0  0  0
 12 20  1  0  0  0  0
 14 15  1  1  0  0  0
 14 22  1  0  0  0  0
 16 17  1  6  0  0  0
 16 24  1  0  0  0  0
 18 19  1  6  0  0  0
 18 25  1  0  0  0  0
 20 21  1  1  0  0  0
 20 27  1  0  0  0  0
 22 23  1  1  0  0  0
 22 29  1  0  0  0  0
 24  2  1  1  0  0  0
 24 31  1  0  0  0  0
 25 26  1  0  0  0  0
 25 33  1  6  0  0  0
 27 28  1  6  0  0  0
 27 35  1  0  0  0  0
 29 30  1  0  0  0  0
 29 37  1  6  0  0  0
 31 32  1  6  0  0  0
 31 39  1  0  0  0  0
 33 34  1  0  0  0  0
 35 36  1  0  0  0  0
 35 41  1  1  0  0  0
 37 38  1  0  0  0  0
 39 40  1  1  0  0  0
 41 42  1  0  0  0  0
M  END
>  <CHROM.1>
-164.45032776,164.54872246,-165.48037476,170.56167132,-91.95071196,-61.15118914
49.51389190,-178.20826445,-62.49243177,5.55723419,1.10812884,0.06704651,-1.20058408
0.65838231,2.63355666

>  <Name>
2o3w_lig

>  <RI>
0

>  <Rbt.Current_Directory>
/home/itssahil/PROJECTS/Mol_Feturizer/New_Systems/rnas/2o3w

>  <Rbt.Executable>
rbdock ($Id: //depot/dev/client3/rdock/2013.1/src/exe/rbdock.cxx#4 $)

>  <Rbt.Library>
libRbt.so (2013.1, Build901 2013/11/27)

>  <Rbt.Parameter_File>
/export/apps/rDock/src/rDock_2013.1_src/data/scripts/dock_solv.prm

>  <Rbt.Receptor>
prm/pocket_docking_6.prm

>  <SCORE>
-16.0184

>  <SCORE.INTER>
-9.18149

>  <SCORE.INTER.CONST>
1

>  <SCORE.INTER.POLAR>
-1.47334

>  <SCORE.INTER.ROT>
9

>  <SCORE.INTER.SOLV>
10.2075

>  <SCORE.INTER.VDW>
-14.2123

>  <SCORE.INTER.norm>
-0.218607

>  <SCORE.INTRA>
-6.83689

>  <SCORE.INTRA.DIHEDRAL>
-19.7495

>  <SCORE.INTRA.DIHEDRAL.0>
27.8999

>  <SCORE.INTRA.POLAR>
0

>  <SCORE.INTRA.POLAR.0>
0

>  <SCORE.INTRA.REPUL>
0

>  <SCORE.INTRA.REPUL.0>
0

>  <SCORE.INTRA.SOLV>
-0.0751254

>  <SCORE.INTRA.SOLV.lig_0>
-104.479

>  <SCORE.INTRA.VDW>
3.07541

>  <SCORE.INTRA.VDW.0>
-6.17816

>  <SCORE.INTRA.norm>
-0.162783

>  <SCORE.RESTR>
0

>  <SCORE.RESTR.CAVITY>
0

>  <SCORE.RESTR.norm>
0

>  <SCORE.SYSTEM>
0

>  <SCORE.SYSTEM.CONST>
0

>  <SCORE.SYSTEM.DIHEDRAL>
0

>  <SCORE.SYSTEM.SOLV>
0

>  <SCORE.SYSTEM.norm>
0

>  <SCORE.heavy>
42

>  <SCORE.norm>
-0.38139

>  <RMSD>
10.798

$$$$
2o3w_lig
 OpenBabel11021811463D
libRbt.so/2013.1/901 2013/11/27
 42 45  0  0  0  0  0  0  0  0999 V2000
    4.0733    9.6743   -3.7567 C   0  0  2  0  0  0  0  0  0  0  0  0
    4.6768    8.6015   -4.4997 O   0  0  0  0  0  0  0  0  0  0  0  0
    1.3891    5.7799   -4.3380 C   0  0  2  0  0  0  0  0  0  0  0  0
    0.4987    4.6095   -4.5982 N   0  0  0  0  0  0  0  0  0  0  0  0
    5.6511    5.3694   -2.3016 C   0  0  1  0  0  0  0  0  0  0  0  0
    8.2041    3.3880    0.7474 C   0  0  1  0  0  0  0  0  0  0  0  0
    5.2302   10.5975   -3.2694 C   0  0  2  0  0  0  0  0  0  0  0  0
    6.1542   10.9649   -4.3565 N   0  0  0  0  0  0  0  0  0  0  0  0
    1.4928    6.7160   -5.6088 C   0  0  0  0  0  0  0  0  0  0  0  0
    6.6119    4.1762   -2.5914 C   0  0  2  0  0  0  0  0  0  0  0  0
    5.9467    2.8922   -2.6803 O   0  0  0  0  0  0  0  0  0  0  0  0
    7.8650    2.2839    1.8127 C   0  0  2  0  0  0  0  0  0  0  0  0
    6.5406    2.5473    2.4509 N   0  0  0  0  0  0  0  0  0  0  0  0
    6.0797    9.9376   -2.1676 C   0  0  1  0  0  0  0  0  0  0  0  0
    7.1012   10.8325   -1.7242 O   0  0  0  0  0  0  0  0  0  0  0  0
    2.4238    7.9401   -5.2663 C   0  0  2  0  0  0  0  0  0  0  0  0
    2.5324    8.8511   -6.4375 N   0  0  0  0  0  0  0  0  0  0  0  0
    7.6196    4.3224   -1.4501 C   0  0  2  0  0  0  0  0  0  0  0  0
    7.2094    3.5618   -0.2695 O   0  0  0  0  0  0  0  0  0  0  0  0
    9.0320    2.2311    2.9092 C   0  0  1  0  0  0  0  0  0  0  0  0
   10.1975    1.6106    2.3215 O   0  0  0  0  0  0  0  0  0  0  0  0
    5.1638    9.5038   -1.0006 C   0  0  2  0  0  0  0  0  0  0  0  0
    5.9288    8.9127    0.0240 O   0  0  0  0  0  0  0  0  0  0  0  0
    3.8635    7.4441   -4.8453 C   0  0  2  0  0  0  0  0  0  0  0  0
    7.6986    5.8275   -1.1437 C   0  0  2  0  0  0  0  0  0  0  0  0
    6.3887    6.2896   -1.4647 O   0  0  0  0  0  0  0  0  0  0  0  0
    9.4224    3.6796    3.4722 C   0  0  2  0  0  0  0  0  0  0  0  0
    8.3265    4.1463    4.2581 O   0  0  0  0  0  0  0  0  0  0  0  0
    4.0912    8.4994   -1.5396 C   0  0  2  0  0  0  0  0  0  0  0  0
    3.3174    9.1323   -2.6075 O   0  0  0  0  0  0  0  0  0  0  0  0
    3.8355    6.4775   -3.6411 C   0  0  2  0  0  0  0  0  0  0  0  0
    5.1981    5.9861   -3.5139 O   0  0  0  0  0  0  0  0  0  0  0  0
    8.7823    6.6074   -1.9508 C   0  0  0  0  0  0  0  0  0  0  0  0
    9.2236    7.7258   -1.1869 O   0  0  0  0  0  0  0  0  0  0  0  0
    9.7080    4.6781    2.2874 C   0  0  1  0  0  0  0  0  0  0  0  0
    8.4881    4.6927    1.4616 O   0  0  0  0  0  0  0  0  0  0  0  0
    3.1442    8.0259   -0.4613 C   0  0  0  0  0  0  0  0  0  0  0  0
    3.8417    7.2711    0.4994 O   0  0  0  0  0  0  0  0  0  0  0  0
    2.8306    5.2823   -3.9197 C   0  0  1  0  0  0  0  0  0  0  0  0
    2.6904    4.4725   -2.7492 O   0  0  0  0  0  0  0  0  0  0  0  0
   10.0716    6.1532    2.7570 C   0  0  0  0  0  0  0  0  0  0  0  0
   11.2801    6.2735    3.6182 N   0  0  0  0  0  0  0  0  0  0  0  0
  1  2  1  1  0  0  0
  1  7  1  0  0  0  0
  1 30  1  0  0  0  0
  3  4  1  6  0  0  0
  3  9  1  0  0  0  0
  3 39  1  0  0  0  0
  5 10  1  0  0  0  0
  5 26  1  0  0  0  0
  5 32  1  6  0  0  0
  6 12  1  0  0  0  0
  6 36  1  0  0  0  0
  6 19  1  6  0  0  0
  7  8  1  6  0  0  0
  7 14  1  0  0  0  0
  9 16  1  0  0  0  0
 10 11  1  1  0  0  0
 10 18  1  0  0  0  0
 12 13  1  1  0  0  0
 12 20  1  0  0  0  0
 14 15  1  1  0  0  0
 14 22  1  0  0  0  0
 16 17  1  6  0  0  0
 16 24  1  0  0  0  0
 18 19  1  1  0  0  0
 18 25  1  0  0  0  0
 20 21  1  6  0  0  0
 20 27  1  0  0  0  0
 22 23  1  1  0  0  0
 22 29  1  0  0  0  0
 24  2  1  1  0  0  0
 24 31  1  0  0  0  0
 25 26  1  0  0  0  0
 25 33  1  6  0  0  0
 27 28  1  6  0  0  0
 27 35  1  0  0  0  0
 29 30  1  0  0  0  0
 29 37  1  1  0  0  0
 31 32  1  6  0  0  0
 31 39  1  0  0  0  0
 33 34  1  0  0  0  0
 35 36  1  0  0  0  0
 35 41  1  1  0  0  0
 37 38  1  0  0  0  0
 39 40  1  1  0  0  0
 41 42  1  0  0  0  0
M  END
>  <CHROM.1>
167.73220012,142.30143491,-165.28581254,166.93999639,40.13845627,-151.45461976
-65.21842807,162.24544725,59.97188933,5.96942819,6.28268362,-1.32070298,-2.51820554
0.72899538,2.88382740

>  <Name>
2o3w_lig

>  <RI>
0

>  <Rbt.Current_Directory>
/home/itssahil/PROJECTS/Mol_Feturizer/New_Systems/rnas/2o3w

>  <Rbt.Executable>
rbdock ($Id: //depot/dev/client3/rdock/2013.1/src/exe/rbdock.cxx#4 $)

>  <Rbt.Library>
libRbt.so (2013.1, Build901 2013/11/27)

>  <Rbt.Parameter_File>
/export/apps/rDock/src/rDock_2013.1_src/data/scripts/dock_solv.prm

>  <Rbt.Receptor>
prm/pocket_docking_7.prm

>  <SCORE>
-23.9375

>  <SCORE.INTER>
-15.6356

>  <SCORE.INTER.CONST>
1

>  <SCORE.INTER.POLAR>
-2.66867

>  <SCORE.INTER.ROT>
9

>  <SCORE.INTER.SOLV>
11.4562

>  <SCORE.INTER.VDW>
-14.9469

>  <SCORE.INTER.norm>
-0.372275

>  <SCORE.INTRA>
-8.30242

>  <SCORE.INTRA.DIHEDRAL>
-14.5278

>  <SCORE.INTRA.DIHEDRAL.0>
27.8999

>  <SCORE.INTRA.POLAR>
0

>  <SCORE.INTRA.POLAR.0>
0

>  <SCORE.INTRA.REPUL>
0

>  <SCORE.INTRA.REPUL.0>
0

>  <SCORE.INTRA.SOLV>
-3.43494

>  <SCORE.INTRA.SOLV.lig_0>
-104.479

>  <SCORE.INTRA.VDW>
0.67896

>  <SCORE.INTRA.VDW.0>
-6.17816

>  <SCORE.INTRA.norm>
-0.197677

>  <SCORE.RESTR>
0.000439953

>  <SCORE.RESTR.CAVITY>
0.000439953

>  <SCORE.RESTR.norm>
1.04751e-05

>  <SCORE.SYSTEM>
0

>  <SCORE.SYSTEM.CONST>
0

>  <SCORE.SYSTEM.DIHEDRAL>
0

>  <SCORE.SYSTEM.SOLV>
0

>  <SCORE.SYSTEM.norm>
0

>  <SCORE.heavy>
42

>  <SCORE.norm>
-0.569941

>  <RMSD>
10.987

$$$$
2o3w_lig
 OpenBabel11021811463D
libRbt.so/2013.1/901 2013/11/27
 42 45  0  0  0  0  0  0  0  0999 V2000
    4.0515   -1.5509   14.5859 C   0  0  2  0  0  0  0  0  0  0  0  0
    2.9625   -2.1811   15.2817 O   0  0  0  0  0  0  0  0  0  0  0  0
    0.4469   -1.4665   18.7396 C   0  0  2  0  0  0  0  0  0  0  0  0
   -0.3110   -0.7986   19.8396 N   0  0  0  0  0  0  0  0  0  0  0  0
    0.3148    0.5866   14.8875 C   0  0  1  0  0  0  0  0  0  0  0  0
   -1.1944    4.5352   13.3459 C   0  0  1  0  0  0  0  0  0  0  0  0
    4.4840   -2.5200   13.4448 C   0  0  2  0  0  0  0  0  0  0  0  0
    3.3431   -2.9831   12.6358 N   0  0  0  0  0  0  0  0  0  0  0  0
    2.0059   -1.2605   18.9094 C   0  0  0  0  0  0  0  0  0  0  0  0
   -0.3697    1.0783   13.5758 C   0  0  2  0  0  0  0  0  0  0  0  0
    0.5607    1.4602   12.5329 O   0  0  0  0  0  0  0  0  0  0  0  0
   -1.8197    5.6857   14.2143 C   0  0  2  0  0  0  0  0  0  0  0  0
   -2.7946    5.1372   15.2041 N   0  0  0  0  0  0  0  0  0  0  0  0
    5.1877   -3.7794   13.9831 C   0  0  1  0  0  0  0  0  0  0  0  0
    5.6011   -4.6182   12.9031 O   0  0  0  0  0  0  0  0  0  0  0  0
    2.7496   -2.0040   17.7361 C   0  0  2  0  0  0  0  0  0  0  0  0
    4.2224   -1.8430   17.8729 N   0  0  0  0  0  0  0  0  0  0  0  0
   -1.2632    2.1993   14.1092 C   0  0  2  0  0  0  0  0  0  0  0  0
   -0.5715    3.4886   14.1010 O   0  0  0  0  0  0  0  0  0  0  0  0
   -2.5200    6.7557   13.2491 C   0  0  1  0  0  0  0  0  0  0  0  0
   -1.4941    7.5248   12.5819 O   0  0  0  0  0  0  0  0  0  0  0  0
    6.3867   -3.3628   14.8651 C   0  0  2  0  0  0  0  0  0  0  0  0
    7.0520   -4.5049   15.3523 O   0  0  0  0  0  0  0  0  0  0  0  0
    2.2826   -1.4414   16.3357 C   0  0  2  0  0  0  0  0  0  0  0  0
   -1.6551    1.7863   15.5379 C   0  0  2  0  0  0  0  0  0  0  0  0
   -0.5262    1.0337   15.9756 O   0  0  0  0  0  0  0  0  0  0  0  0
   -3.4760    6.0764   12.1572 C   0  0  2  0  0  0  0  0  0  0  0  0
   -4.6070    5.5446   12.8460 O   0  0  0  0  0  0  0  0  0  0  0  0
    5.8678   -2.4785   16.0476 C   0  0  2  0  0  0  0  0  0  0  0  0
    5.1734   -1.3055   15.5168 O   0  0  0  0  0  0  0  0  0  0  0  0
    0.7575   -1.5578   16.1219 C   0  0  2  0  0  0  0  0  0  0  0  0
    0.4885   -0.8364   14.8884 O   0  0  0  0  0  0  0  0  0  0  0  0
   -2.9653    0.9458   15.6439 C   0  0  0  0  0  0  0  0  0  0  0  0
   -4.0196    1.6317   14.9753 O   0  0  0  0  0  0  0  0  0  0  0  0
   -2.7161    4.9295   11.3897 C   0  0  1  0  0  0  0  0  0  0  0  0
   -2.2573    3.9818   12.4201 O   0  0  0  0  0  0  0  0  0  0  0  0
    6.9801   -2.0189   16.9616 C   0  0  0  0  0  0  0  0  0  0  0  0
    8.1461   -1.7647   16.2166 O   0  0  0  0  0  0  0  0  0  0  0  0
   -0.0191   -0.9003   17.3386 C   0  0  1  0  0  0  0  0  0  0  0  0
   -1.4236   -1.1413   17.2155 O   0  0  0  0  0  0  0  0  0  0  0  0
   -3.6040    4.1764   10.3066 C   0  0  0  0  0  0  0  0  0  0  0  0
   -3.0588    2.8799    9.8182 N   0  0  0  0  0  0  0  0  0  0  0  0
  1  2  1  1  0  0  0
  1  7  1  0  0  0  0
  1 30  1  0  0  0  0
  3  4  1  1  0  0  0
  3  9  1  0  0  0  0
  3 39  1  0  0  0  0
  5 10  1  0  0  0  0
  5 26  1  0  0  0  0
  5 32  1  6  0  0  0
  6 12  1  0  0  0  0
  6 36  1  0  0  0  0
  6 19  1  1  0  0  0
  7  8  1  1  0  0  0
  7 14  1  0  0  0  0
  9 16  1  0  0  0  0
 10 11  1  6  0  0  0
 10 18  1  0  0  0  0
 12 13  1  1  0  0  0
 12 20  1  0  0  0  0
 14 15  1  6  0  0  0
 14 22  1  0  0  0  0
 16 17  1  1  0  0  0
 16 24  1  0  0  0  0
 18 19  1  1  0  0  0
 18 25  1  0  0  0  0
 20 21  1  6  0  0  0
 20 27  1  0  0  0  0
 22 23  1  1  0  0  0
 22 29  1  0  0  0  0
 24  2  1  6  0  0  0
 24 31  1  0  0  0  0
 25 26  1  0  0  0  0
 25 33  1  6  0  0  0
 27 28  1  1  0  0  0
 27 35  1  0  0  0  0
 29 30  1  0  0  0  0
 29 37  1  6  0  0  0
 31 32  1  6  0  0  0
 31 39  1  0  0  0  0
 33 34  1  0  0  0  0
 35 36  1  0  0  0  0
 35 41  1  6  0  0  0
 37 38  1  0  0  0  0
 39 40  1  6  0  0  0
 41 42  1  0  0  0  0
M  END
>  <CHROM.1>
-174.87182910,-162.98585797,109.34438582,122.08155223,-104.37107659,-52.91655587
35.49395924,-83.71793219,-164.69014434,0.87473717,0.59587725,14.78616900
-0.55972126,0.58923466,-1.08428660

>  <Name>
2o3w_lig

>  <RI>
0

>  <Rbt.Current_Directory>
/home/itssahil/PROJECTS/Mol_Feturizer/New_Systems/rnas/2o3w

>  <Rbt.Executable>
rbdock ($Id: //depot/dev/client3/rdock/2013.1/src/exe/rbdock.cxx#4 $)

>  <Rbt.Library>
libRbt.so (2013.1, Build901 2013/11/27)

>  <Rbt.Parameter_File>
/export/apps/rDock/src/rDock_2013.1_src/data/scripts/dock_solv.prm

>  <Rbt.Receptor>
prm/blind_docking_40.prm

>  <SCORE>
30.1415

>  <SCORE.INTER>
3.57589

>  <SCORE.INTER.CONST>
1

>  <SCORE.INTER.POLAR>
-0.469702

>  <SCORE.INTER.ROT>
9

>  <SCORE.INTER.SOLV>
31.4526

>  <SCORE.INTER.VDW>
-16.1346

>  <SCORE.INTER.norm>
0.0851402

>  <SCORE.INTRA>
7.87625

>  <SCORE.INTRA.DIHEDRAL>
-1.29412

>  <SCORE.INTRA.DIHEDRAL.0>
27.8999

>  <SCORE.INTRA.POLAR>
0

>  <SCORE.INTRA.POLAR.0>
0

>  <SCORE.INTRA.REPUL>
0

>  <SCORE.INTRA.REPUL.0>
0

>  <SCORE.INTRA.SOLV>
0.769733

>  <SCORE.INTRA.SOLV.lig_0>
-104.479

>  <SCORE.INTRA.VDW>
8.13845

>  <SCORE.INTRA.VDW.0>
-6.17816

>  <SCORE.INTRA.norm>
0.18753

>  <SCORE.RESTR>
18.6894

>  <SCORE.RESTR.CAVITY>
18.6894

>  <SCORE.RESTR.norm>
0.444985

>  <SCORE.SYSTEM>
0

>  <SCORE.SYSTEM.CONST>
0

>  <SCORE.SYSTEM.DIHEDRAL>
0

>  <SCORE.SYSTEM.SOLV>
0

>  <SCORE.SYSTEM.norm>
0

>  <SCORE.heavy>
42

>  <SCORE.norm>
0.717655

>  <RMSD>
14.157

$$$$
2o3w_lig
 OpenBabel11021811463D
libRbt.so/2013.1/901 2013/11/27
 42 45  0  0  0  0  0  0  0  0999 V2000
   -3.5631    1.0261   14.1033 C   0  0  2  0  0  0  0  0  0  0  0  0
   -2.9657    0.8697   12.8048 O   0  0  0  0  0  0  0  0  0  0  0  0
    1.1722    0.6373   14.0773 C   0  0  2  0  0  0  0  0  0  0  0  0
    2.6553    0.4617   14.0850 N   0  0  0  0  0  0  0  0  0  0  0  0
   -1.5571    4.1935   12.0257 C   0  0  1  0  0  0  0  0  0  0  0  0
   -2.9865    8.2485   11.4570 C   0  0  1  0  0  0  0  0  0  0  0  0
   -4.7867    1.9753   13.9299 C   0  0  2  0  0  0  0  0  0  0  0  0
   -5.6696    1.5610   12.8256 N   0  0  0  0  0  0  0  0  0  0  0  0
    0.4358   -0.7162   13.7199 C   0  0  0  0  0  0  0  0  0  0  0  0
   -0.8428    5.1484   11.0213 C   0  0  2  0  0  0  0  0  0  0  0  0
    0.3851    5.7259   11.5288 O   0  0  0  0  0  0  0  0  0  0  0  0
   -2.6868    9.3422   10.3694 C   0  0  2  0  0  0  0  0  0  0  0  0
   -1.3978   10.0402   10.6558 N   0  0  0  0  0  0  0  0  0  0  0  0
   -4.3635    3.4271   13.6401 C   0  0  1  0  0  0  0  0  0  0  0  0
   -5.5133    4.2675   13.5283 O   0  0  0  0  0  0  0  0  0  0  0  0
   -1.1207   -0.4735   13.7496 C   0  0  2  0  0  0  0  0  0  0  0  0
   -1.8468   -1.7325   13.4315 N   0  0  0  0  0  0  0  0  0  0  0  0
   -1.9626    6.1423   10.7089 C   0  0  2  0  0  0  0  0  0  0  0  0
   -1.9459    7.2786   11.6306 O   0  0  0  0  0  0  0  0  0  0  0  0
   -3.9046   10.3819   10.3157 C   0  0  1  0  0  0  0  0  0  0  0  0
   -5.0335    9.7466    9.6746 O   0  0  0  0  0  0  0  0  0  0  0  0
   -3.4113    3.9187   14.7541 C   0  0  2  0  0  0  0  0  0  0  0  0
   -3.0278    5.2525   14.5123 O   0  0  0  0  0  0  0  0  0  0  0  0
   -1.5290    0.6496   12.7163 C   0  0  2  0  0  0  0  0  0  0  0  0
   -3.2765    5.3513   10.8233 C   0  0  2  0  0  0  0  0  0  0  0  0
   -2.9766    4.3723   11.8154 O   0  0  0  0  0  0  0  0  0  0  0  0
   -4.3380   10.9078   11.7659 C   0  0  2  0  0  0  0  0  0  0  0  0
   -3.2865   11.7397   12.2546 O   0  0  0  0  0  0  0  0  0  0  0  0
   -2.1576    2.9831   14.8038 C   0  0  2  0  0  0  0  0  0  0  0  0
   -2.5821    1.6044   15.0461 O   0  0  0  0  0  0  0  0  0  0  0  0
   -0.8033    1.9892   12.9698 C   0  0  2  0  0  0  0  0  0  0  0  0
   -1.1502    2.8319   11.8367 O   0  0  0  0  0  0  0  0  0  0  0  0
   -3.7579    4.6799    9.4998 C   0  0  0  0  0  0  0  0  0  0  0  0
   -4.1662    5.6894    8.5816 O   0  0  0  0  0  0  0  0  0  0  0  0
   -4.5773    9.6986   12.7471 C   0  0  1  0  0  0  0  0  0  0  0  0
   -3.3192    8.9322   12.7664 O   0  0  0  0  0  0  0  0  0  0  0  0
   -1.1715    3.3887   15.8747 C   0  0  0  0  0  0  0  0  0  0  0  0
   -0.5347    4.5912   15.5171 O   0  0  0  0  0  0  0  0  0  0  0  0
    0.7644    1.7594   13.0404 C   0  0  1  0  0  0  0  0  0  0  0  0
    1.4237    2.9691   13.4244 O   0  0  0  0  0  0  0  0  0  0  0  0
   -4.9796   10.1320   14.2232 C   0  0  0  0  0  0  0  0  0  0  0  0
   -5.1447    9.0182   15.1971 N   0  0  0  0  0  0  0  0  0  0  0  0
  1  2  1  6  0  0  0
  1  7  1  0  0  0  0
  1 30  1  0  0  0  0
  3  4  1  6  0  0  0
  3  9  1  0  0  0  0
  3 39  1  0  0  0  0
  5 10  1  0  0  0  0
  5 26  1  0  0  0  0
  5 32  1  6  0  0  0
  6 12  1  0  0  0  0
  6 36  1  0  0  0  0
  6 19  1  1  0  0  0
  7  8  1  6  0  0  0
  7 14  1  0  0  0  0
  9 16  1  0  0  0  0
 10 11  1  1  0  0  0
 10 18  1  0  0  0  0
 12 13  1  1  0  0  0
 12 20  1  0  0  0  0
 14 15  1  1  0  0  0
 14 22  1  0  0  0  0
 16 17  1  6  0  0  0
 16 24  1  0  0  0  0
 18 19  1  1  0  0  0
 18 25  1  0  0  0  0
 20 21  1  1  0  0  0
 20 27  1  0  0  0  0
 22 23  1  6  0  0  0
 22 29  1  0  0  0  0
 24  2  1  1  0  0  0
 24 31  1  0  0  0  0
 25 26  1  0  0  0  0
 25 33  1  6  0  0  0
 27 28  1  1  0  0  0
 27 35  1  0  0  0  0
 29 30  1  0  0  0  0
 29 37  1  1  0  0  0
 31 32  1  6  0  0  0
 31 39  1  0  0  0  0
 33 34  1  0  0  0  0
 35 36  1  0  0  0  0
 35 41  1  1  0  0  0
 37 38  1  0  0  0  0
 39 40  1  1  0  0  0
 41 42  1  0  0  0  0
M  END
>  <CHROM.1>
149.11301523,134.48450314,-84.58935212,-177.79780905,47.43266884,-68.98515885
-70.51226438,134.22098043,-176.94724438,-2.41951320,4.79805409,12.69550266
1.25815324,-0.24754031,2.82126807

>  <Name>
2o3w_lig

>  <RI>
0

>  <Rbt.Current_Directory>
/home/itssahil/PROJECTS/Mol_Feturizer/New_Systems/rnas/2o3w

>  <Rbt.Executable>
rbdock ($Id: //depot/dev/client3/rdock/2013.1/src/exe/rbdock.cxx#4 $)

>  <Rbt.Library>
libRbt.so (2013.1, Build901 2013/11/27)

>  <Rbt.Parameter_File>
/export/apps/rDock/src/rDock_2013.1_src/data/scripts/dock_solv.prm

>  <Rbt.Receptor>
prm/blind_docking_60.prm

>  <SCORE>
32.7023

>  <SCORE.INTER>
16.9274

>  <SCORE.INTER.CONST>
1

>  <SCORE.INTER.POLAR>
-2.24477

>  <SCORE.INTER.ROT>
9

>  <SCORE.INTER.SOLV>
37.6482

>  <SCORE.INTER.VDW>
-3.38193

>  <SCORE.INTER.norm>
0.403033

>  <SCORE.INTRA>
4.43547

>  <SCORE.INTRA.DIHEDRAL>
-7.50031

>  <SCORE.INTRA.DIHEDRAL.0>
27.8999

>  <SCORE.INTRA.POLAR>
0

>  <SCORE.INTRA.POLAR.0>
0

>  <SCORE.INTRA.REPUL>
0

>  <SCORE.INTRA.REPUL.0>
0

>  <SCORE.INTRA.SOLV>
-1.95352

>  <SCORE.INTRA.SOLV.lig_0>
-104.479

>  <SCORE.INTRA.VDW>
9.16239

>  <SCORE.INTRA.VDW.0>
-6.17816

>  <SCORE.INTRA.norm>
0.105607

>  <SCORE.RESTR>
11.3395

>  <SCORE.RESTR.CAVITY>
11.3395

>  <SCORE.RESTR.norm>
0.269987

>  <SCORE.SYSTEM>
0

>  <SCORE.SYSTEM.CONST>
0

>  <SCORE.SYSTEM.DIHEDRAL>
0

>  <SCORE.SYSTEM.SOLV>
0

>  <SCORE.SYSTEM.norm>
0

>  <SCORE.heavy>
42

>  <SCORE.norm>
0.778626

>  <RMSD>
14.258

$$$$
2o3w_lig
 OpenBabel11021811463D
libRbt.so/2013.1/901 2013/11/27
 42 45  0  0  0  0  0  0  0  0999 V2000
   -4.8204    4.6474   13.6773 C   0  0  2  0  0  0  0  0  0  0  0  0
   -3.6426    4.5459   12.8590 O   0  0  0  0  0  0  0  0  0  0  0  0
   -0.0318    3.0531   14.7377 C   0  0  2  0  0  0  0  0  0  0  0  0
    1.0944    2.1703   15.1652 N   0  0  0  0  0  0  0  0  0  0  0  0
   -2.2090    4.8555   10.4449 C   0  0  1  0  0  0  0  0  0  0  0  0
   -4.1746    5.8495    8.4499 C   0  0  1  0  0  0  0  0  0  0  0  0
   -6.0006    4.0523   12.8520 C   0  0  2  0  0  0  0  0  0  0  0  0
   -5.6827    2.7294   12.2868 N   0  0  0  0  0  0  0  0  0  0  0  0
   -1.4179    2.5187   15.2806 C   0  0  0  0  0  0  0  0  0  0  0  0
   -3.6621    4.9565   11.0009 C   0  0  2  0  0  0  0  0  0  0  0  0
   -4.6019    4.0591   10.3601 O   0  0  0  0  0  0  0  0  0  0  0  0
   -4.7879    6.2224    7.0522 C   0  0  2  0  0  0  0  0  0  0  0  0
   -6.2765    6.3160    7.1307 N   0  0  0  0  0  0  0  0  0  0  0  0
   -6.4019    4.9556   11.6713 C   0  0  1  0  0  0  0  0  0  0  0  0
   -7.5104    4.3919   10.9682 O   0  0  0  0  0  0  0  0  0  0  0  0
   -2.5600    3.5003   14.8175 C   0  0  2  0  0  0  0  0  0  0  0  0
   -3.8793    3.0349   15.3241 N   0  0  0  0  0  0  0  0  0  0  0  0
   -3.9451    6.4490   10.8230 C   0  0  2  0  0  0  0  0  0  0  0  0
   -4.5427    6.7315    9.5177 O   0  0  0  0  0  0  0  0  0  0  0  0
   -4.3361    5.1320    5.9688 C   0  0  1  0  0  0  0  0  0  0  0  0
   -2.9411    5.3381    5.6521 O   0  0  0  0  0  0  0  0  0  0  0  0
   -6.7269    6.3734   12.1940 C   0  0  2  0  0  0  0  0  0  0  0  0
   -7.1124    7.2084   11.1270 O   0  0  0  0  0  0  0  0  0  0  0  0
   -2.6029    3.6009   13.2414 C   0  0  2  0  0  0  0  0  0  0  0  0
   -2.5904    7.1597   10.9813 C   0  0  2  0  0  0  0  0  0  0  0  0
   -1.6620    6.1932   10.4950 O   0  0  0  0  0  0  0  0  0  0  0  0
   -4.5545    3.6267    6.4728 C   0  0  2  0  0  0  0  0  0  0  0  0
   -5.9608    3.3915    6.5309 O   0  0  0  0  0  0  0  0  0  0  0  0
   -5.4669    6.9509   12.9209 C   0  0  2  0  0  0  0  0  0  0  0  0
   -5.0811    6.0624   14.0171 O   0  0  0  0  0  0  0  0  0  0  0  0
   -1.2606    4.0643   12.6342 C   0  0  2  0  0  0  0  0  0  0  0  0
   -1.4224    3.9217   11.1962 O   0  0  0  0  0  0  0  0  0  0  0  0
   -2.2397    7.5909   12.4391 C   0  0  0  0  0  0  0  0  0  0  0  0
   -2.1496    6.4328   13.2635 O   0  0  0  0  0  0  0  0  0  0  0  0
   -3.9074    3.4170    7.8939 C   0  0  1  0  0  0  0  0  0  0  0  0
   -4.5318    4.4153    8.7792 O   0  0  0  0  0  0  0  0  0  0  0  0
   -5.6986    8.3388   13.4720 C   0  0  0  0  0  0  0  0  0  0  0  0
   -4.5034    8.8544   14.0057 O   0  0  0  0  0  0  0  0  0  0  0  0
   -0.0756    3.1504   13.1600 C   0  0  1  0  0  0  0  0  0  0  0  0
    1.1817    3.6709   12.7195 O   0  0  0  0  0  0  0  0  0  0  0  0
   -4.1069    1.9551    8.4870 C   0  0  0  0  0  0  0  0  0  0  0  0
   -3.4356    1.6935    9.7898 N   0  0  0  0  0  0  0  0  0  0  0  0
  1  2  1  6  0  0  0
  1  7  1  0  0  0  0
  1 30  1  0  0  0  0
  3  4  1  6  0  0  0
  3  9  1  0  0  0  0
  3 39  1  0  0  0  0
  5 10  1  0  0  0  0
  5 26  1  0  0  0  0
  5 32  1  1  0  0  0
  6 12  1  0  0  0  0
  6 36  1  0  0  0  0
  6 19  1  1  0  0  0
  7  8  1  6  0  0  0
  7 14  1  0  0  0  0
  9 16  1  0  0  0  0
 10 11  1  6  0  0  0
 10 18  1  0  0  0  0
 12 13  1  1  0  0  0
 12 20  1  0  0  0  0
 14 15  1  1  0  0  0
 14 22  1  0  0  0  0
 16 17  1  6  0  0  0
 16 24  1  0  0  0  0
 18 19  1  6  0  0  0
 18 25  1  0  0  0  0
 20 21  1  1  0  0  0
 20 27  1  0  0  0  0
 22 23  1  6  0  0  0
 22 29  1  0  0  0  0
 24  2  1  1  0  0  0
 24 31  1  0  0  0  0
 25 26  1  0  0  0  0
 25 33  1  1  0  0  0
 27 28  1  1  0  0  0
 27 35  1  0  0  0  0
 29 30  1  0  0  0  0
 29 37  1  1  0  0  0
 31 32  1  6  0  0  0
 31 39  1  0  0  0  0
 33 34  1  0  0  0  0
 35 36  1  0  0  0  0
 35 41  1  1  0  0  0
 37 38  1  0  0  0  0
 39 40  1  1  0  0  0
 41 42  1  0  0  0  0
M  END
>  <CHROM.1>
-110.34813138,-56.12941102,-177.49678918,-29.87989031,-32.93134690,62.14901572
-174.71712989,75.22898811,176.29474743,-3.72885661,4.87188316,11.21968208
0.95615045,-0.62801551,1.33803306

>  <Name>
2o3w_lig

>  <RI>
0

>  <Rbt.Current_Directory>
/home/itssahil/PROJECTS/Mol_Feturizer/New_Systems/rnas/2o3w

>  <Rbt.Executable>
rbdock ($Id: //depot/dev/client3/rdock/2013.1/src/exe/rbdock.cxx#4 $)

>  <Rbt.Library>
libRbt.so (2013.1, Build901 2013/11/27)

>  <Rbt.Parameter_File>
/export/apps/rDock/src/rDock_2013.1_src/data/scripts/dock_solv.prm

>  <Rbt.Receptor>
prm/blind_docking_20.prm

>  <SCORE>
90.9159

>  <SCORE.INTER>
15.6747

>  <SCORE.INTER.CONST>
1

>  <SCORE.INTER.POLAR>
0

>  <SCORE.INTER.ROT>
9

>  <SCORE.INTER.SOLV>
28.5878

>  <SCORE.INTER.VDW>
-8.67947

>  <SCORE.INTER.norm>
0.373207

>  <SCORE.INTRA>
49.0123

>  <SCORE.INTRA.DIHEDRAL>
-13.0148

>  <SCORE.INTRA.DIHEDRAL.0>
27.8999

>  <SCORE.INTRA.POLAR>
0

>  <SCORE.INTRA.POLAR.0>
0

>  <SCORE.INTRA.REPUL>
0.0361994

>  <SCORE.INTRA.REPUL.0>
0

>  <SCORE.INTRA.SOLV>
11.7004

>  <SCORE.INTRA.SOLV.lig_0>
-104.479

>  <SCORE.INTRA.VDW>
49.4885

>  <SCORE.INTRA.VDW.0>
-6.17816

>  <SCORE.INTRA.norm>
1.16696

>  <SCORE.RESTR>
26.2289

>  <SCORE.RESTR.CAVITY>
26.2289

>  <SCORE.RESTR.norm>
0.624498

>  <SCORE.SYSTEM>
0

>  <SCORE.SYSTEM.CONST>
0

>  <SCORE.SYSTEM.DIHEDRAL>
0

>  <SCORE.SYSTEM.SOLV>
0

>  <SCORE.SYSTEM.norm>
0

>  <SCORE.heavy>
42

>  <SCORE.norm>
2.16467

>  <RMSD>
14.978

$$$$
2o3w_lig
 OpenBabel11021811463D
libRbt.so/2013.1/901 2013/11/27
 42 45  0  0  0  0  0  0  0  0999 V2000
   -0.6649    3.8389   12.4004 C   0  0  2  0  0  0  0  0  0  0  0  0
   -1.6461    4.1156   11.3865 O   0  0  0  0  0  0  0  0  0  0  0  0
   -3.2609    7.7453   13.1224 C   0  0  2  0  0  0  0  0  0  0  0  0
   -4.1168    8.9381   13.3967 N   0  0  0  0  0  0  0  0  0  0  0  0
   -4.8893    3.7848   11.4872 C   0  0  1  0  0  0  0  0  0  0  0  0
   -5.5166    3.8182    8.5926 C   0  0  1  0  0  0  0  0  0  0  0  0
   -0.7845    2.3247   12.7483 C   0  0  2  0  0  0  0  0  0  0  0  0
   -0.7768    1.4685   11.5494 N   0  0  0  0  0  0  0  0  0  0  0  0
   -2.5589    7.8553   11.7093 C   0  0  0  0  0  0  0  0  0  0  0  0
   -4.4825    2.4596   10.7736 C   0  0  2  0  0  0  0  0  0  0  0  0
   -3.4202    2.6162    9.8009 O   0  0  0  0  0  0  0  0  0  0  0  0
   -6.2154    4.9988    9.3586 C   0  0  2  0  0  0  0  0  0  0  0  0
   -7.6855    5.0098    9.0947 N   0  0  0  0  0  0  0  0  0  0  0  0
   -2.0792    2.0022   13.5168 C   0  0  1  0  0  0  0  0  0  0  0  0
   -2.1277    0.6136   13.8488 O   0  0  0  0  0  0  0  0  0  0  0  0
   -1.6556    6.5834   11.4879 C   0  0  2  0  0  0  0  0  0  0  0  0
   -0.9671    6.6607   10.1712 N   0  0  0  0  0  0  0  0  0  0  0  0
   -5.8292    1.9976   10.2149 C   0  0  2  0  0  0  0  0  0  0  0  0
   -6.0617    2.5220    8.8688 O   0  0  0  0  0  0  0  0  0  0  0  0
   -5.5417    6.3850    8.9210 C   0  0  1  0  0  0  0  0  0  0  0  0
   -4.2336    6.4809    9.5281 O   0  0  0  0  0  0  0  0  0  0  0  0
   -2.1628    2.8879   14.7808 C   0  0  2  0  0  0  0  0  0  0  0  0
   -3.3347    2.5929   15.5047 O   0  0  0  0  0  0  0  0  0  0  0  0
   -2.5236    5.2652   11.5556 C   0  0  2  0  0  0  0  0  0  0  0  0
   -6.8945    2.5041   11.2018 C   0  0  2  0  0  0  0  0  0  0  0  0
   -6.3154    3.7027   11.7121 O   0  0  0  0  0  0  0  0  0  0  0  0
   -5.4075    6.5370    7.3316 C   0  0  2  0  0  0  0  0  0  0  0  0
   -6.7232    6.6900    6.8006 O   0  0  0  0  0  0  0  0  0  0  0  0
   -2.1418    4.3930   14.3518 C   0  0  2  0  0  0  0  0  0  0  0  0
   -0.9216    4.6717   13.5947 O   0  0  0  0  0  0  0  0  0  0  0  0
   -3.2858    5.1180   12.8908 C   0  0  2  0  0  0  0  0  0  0  0  0
   -4.1598    3.9704   12.7072 O   0  0  0  0  0  0  0  0  0  0  0  0
   -7.2457    1.5148   12.3560 C   0  0  0  0  0  0  0  0  0  0  0  0
   -6.1182    1.3752   13.2153 O   0  0  0  0  0  0  0  0  0  0  0  0
   -4.7123    5.2678    6.7086 C   0  0  1  0  0  0  0  0  0  0  0  0
   -5.5357    4.1131    7.1075 O   0  0  0  0  0  0  0  0  0  0  0  0
   -2.2138    5.3349   15.5314 C   0  0  0  0  0  0  0  0  0  0  0  0
   -0.9464    5.4612   16.1291 O   0  0  0  0  0  0  0  0  0  0  0  0
   -4.1314    6.4267   13.1874 C   0  0  1  0  0  0  0  0  0  0  0  0
   -4.7147    6.3524   14.4911 O   0  0  0  0  0  0  0  0  0  0  0  0
   -4.5684    5.3196    5.1258 C   0  0  0  0  0  0  0  0  0  0  0  0
   -3.9124    4.1378    4.5016 N   0  0  0  0  0  0  0  0  0  0  0  0
  1  2  1  6  0  0  0
  1  7  1  0  0  0  0
  1 30  1  0  0  0  0
  3  4  1  6  0  0  0
  3  9  1  0  0  0  0
  3 39  1  0  0  0  0
  5 10  1  0  0  0  0
  5 26  1  0  0  0  0
  5 32  1  1  0  0  0
  6 12  1  0  0  0  0
  6 36  1  0  0  0  0
  6 19  1  6  0  0  0
  7  8  1  6  0  0  0
  7 14  1  0  0  0  0
  9 16  1  0  0  0  0
 10 11  1  6  0  0  0
 10 18  1  0  0  0  0
 12 13  1  6  0  0  0
 12 20  1  0  0  0  0
 14 15  1  1  0  0  0
 14 22  1  0  0  0  0
 16 17  1  6  0  0  0
 16 24  1  0  0  0  0
 18 19  1  6  0  0  0
 18 25  1  0  0  0  0
 20 21  1  1  0  0  0
 20 27  1  0  0  0  0
 22 23  1  6  0  0  0
 22 29  1  0  0  0  0
 24  2  1  1  0  0  0
 24 31  1  0  0  0  0
 25 26  1  0  0  0  0
 25 33  1  1  0  0  0
 27 28  1  6  0  0  0
 27 35  1  0  0  0  0
 29 30  1  0  0  0  0
 29 37  1  1  0  0  0
 31 32  1  6  0  0  0
 31 39  1  0  0  0  0
 33 34  1  0  0  0  0
 35 36  1  0  0  0  0
 35 41  1  6  0  0  0
 37 38  1  0  0  0  0
 39 40  1  1  0  0  0
 41 42  1  0  0  0  0
M  END
>  <CHROM.1>
131.40585305,118.69199681,-69.01180953,-33.00865807,65.84887520,67.11882076
79.98802299,-42.70382651,179.84570727,-3.87788790,4.40251981,11.27871440
-0.65255839,-0.98321552,-0.62013328

>  <Name>
2o3w_lig

>  <RI>
0

>  <Rbt.Current_Directory>
/home/itssahil/PROJECTS/Mol_Feturizer/New_Systems/rnas/2o3w

>  <Rbt.Executable>
rbdock ($Id: //depot/dev/client3/rdock/2013.1/src/exe/rbdock.cxx#4 $)

>  <Rbt.Library>
libRbt.so (2013.1, Build901 2013/11/27)

>  <Rbt.Parameter_File>
/export/apps/rDock/src/rDock_2013.1_src/data/scripts/dock_solv.prm

>  <Rbt.Receptor>
prm/blind_docking_20.prm

>  <SCORE>
68.1023

>  <SCORE.INTER>
12.7496

>  <SCORE.INTER.CONST>
1

>  <SCORE.INTER.POLAR>
0

>  <SCORE.INTER.ROT>
9

>  <SCORE.INTER.SOLV>
28.4393

>  <SCORE.INTER.VDW>
-10.58

>  <SCORE.INTER.norm>
0.303563

>  <SCORE.INTRA>
21.0811

>  <SCORE.INTRA.DIHEDRAL>
-7.53569

>  <SCORE.INTRA.DIHEDRAL.0>
27.8999

>  <SCORE.INTRA.POLAR>
0

>  <SCORE.INTRA.POLAR.0>
0

>  <SCORE.INTRA.REPUL>
0

>  <SCORE.INTRA.REPUL.0>
0

>  <SCORE.INTRA.SOLV>
3.24261

>  <SCORE.INTRA.SOLV.lig_0>
-104.479

>  <SCORE.INTRA.VDW>
23.2277

>  <SCORE.INTRA.VDW.0>
-6.17816

>  <SCORE.INTRA.norm>
0.501932

>  <SCORE.RESTR>
34.2716

>  <SCORE.RESTR.CAVITY>
34.2716

>  <SCORE.RESTR.norm>
0.81599

>  <SCORE.SYSTEM>
0

>  <SCORE.SYSTEM.CONST>
0

>  <SCORE.SYSTEM.DIHEDRAL>
0

>  <SCORE.SYSTEM.SOLV>
0

>  <SCORE.SYSTEM.norm>
0

>  <SCORE.heavy>
42

>  <SCORE.norm>
1.62148

>  <RMSD>
15.028

$$$$
2o3w_lig
 OpenBabel11021811463D
libRbt.so/2013.1/901 2013/11/27
 42 45  0  0  0  0  0  0  0  0999 V2000
   -2.5601    4.2238   14.6101 C   0  0  2  0  0  0  0  0  0  0  0  0
   -1.9910    4.3402   13.2949 O   0  0  0  0  0  0  0  0  0  0  0  0
   -3.2311    4.5811    9.1475 C   0  0  2  0  0  0  0  0  0  0  0  0
   -4.0608    4.6578    7.9081 N   0  0  0  0  0  0  0  0  0  0  0  0
   -3.6122    8.0524   12.0075 C   0  0  1  0  0  0  0  0  0  0  0  0
   -3.8852   10.6869   10.6299 C   0  0  1  0  0  0  0  0  0  0  0  0
   -1.4486    3.6470   15.5375 C   0  0  2  0  0  0  0  0  0  0  0  0
   -0.1759    4.3788   15.4146 N   0  0  0  0  0  0  0  0  0  0  0  0
   -3.4530    3.2091    9.9028 C   0  0  0  0  0  0  0  0  0  0  0  0
   -5.1010    8.1507   11.5550 C   0  0  2  0  0  0  0  0  0  0  0  0
   -5.2987    7.9561   10.1330 O   0  0  0  0  0  0  0  0  0  0  0  0
   -2.8084   10.9303   11.7479 C   0  0  2  0  0  0  0  0  0  0  0  0
   -3.1442   12.1395   12.5578 N   0  0  0  0  0  0  0  0  0  0  0  0
   -1.1428    2.1688   15.2333 C   0  0  1  0  0  0  0  0  0  0  0  0
   -0.1490    1.6716   16.1312 O   0  0  0  0  0  0  0  0  0  0  0  0
   -2.5375    3.1785   11.1848 C   0  0  2  0  0  0  0  0  0  0  0  0
   -2.7104    1.8928   11.9134 N   0  0  0  0  0  0  0  0  0  0  0  0
   -5.4850    9.5294   12.0944 C   0  0  2  0  0  0  0  0  0  0  0  0
   -5.2313   10.5820   11.1102 O   0  0  0  0  0  0  0  0  0  0  0  0
   -1.3646   11.0752   11.0688 C   0  0  1  0  0  0  0  0  0  0  0  0
   -0.9232    9.7719   10.6269 O   0  0  0  0  0  0  0  0  0  0  0  0
   -2.4469    1.3437   15.3217 C   0  0  2  0  0  0  0  0  0  0  0  0
   -2.1810   -0.0151   15.0623 O   0  0  0  0  0  0  0  0  0  0  0  0
   -2.8845    4.3833   12.1459 C   0  0  2  0  0  0  0  0  0  0  0  0
   -4.6420    9.7385   13.3637 C   0  0  2  0  0  0  0  0  0  0  0  0
   -3.4518    9.0057   13.0830 O   0  0  0  0  0  0  0  0  0  0  0  0
   -1.3591   12.0915    9.8300 C   0  0  2  0  0  0  0  0  0  0  0  0
   -1.5524   13.4062   10.3503 O   0  0  0  0  0  0  0  0  0  0  0  0
   -3.4808    1.9112   14.2929 C   0  0  2  0  0  0  0  0  0  0  0  0
   -3.7327    3.3239   14.5770 O   0  0  0  0  0  0  0  0  0  0  0  0
   -2.7442    5.7585   11.4570 C   0  0  2  0  0  0  0  0  0  0  0  0
   -3.2725    6.7196   12.4118 O   0  0  0  0  0  0  0  0  0  0  0  0
   -5.3078    9.2429   14.6849 C   0  0  0  0  0  0  0  0  0  0  0  0
   -5.1619    7.8295   14.7838 O   0  0  0  0  0  0  0  0  0  0  0  0
   -2.5072   11.7335    8.8123 C   0  0  1  0  0  0  0  0  0  0  0  0
   -3.7629   11.7729    9.5817 O   0  0  0  0  0  0  0  0  0  0  0  0
   -4.7941    1.1639   14.3160 C   0  0  0  0  0  0  0  0  0  0  0  0
   -5.6161    1.5953   13.2588 O   0  0  0  0  0  0  0  0  0  0  0  0
   -3.5814    5.7857   10.1102 C   0  0  1  0  0  0  0  0  0  0  0  0
   -3.3312    7.0006    9.3981 O   0  0  0  0  0  0  0  0  0  0  0  0
   -2.5961   12.7154    7.5646 C   0  0  0  0  0  0  0  0  0  0  0  0
   -2.7625   14.1579    7.8932 N   0  0  0  0  0  0  0  0  0  0  0  0
  1  2  1  6  0  0  0
  1  7  1  0  0  0  0
  1 30  1  0  0  0  0
  3  4  1  6  0  0  0
  3  9  1  0  0  0  0
  3 39  1  0  0  0  0
  5 10  1  0  0  0  0
  5 26  1  0  0  0  0
  5 32  1  1  0  0  0
  6 12  1  0  0  0  0
  6 36  1  0  0  0  0
  6 19  1  1  0  0  0
  7  8  1  6  0  0  0
  7 14  1  0  0  0  0
  9 16  1  0  0  0  0
 10 11  1  6  0  0  0
 10 18  1  0  0  0  0
 12 13  1  6  0  0  0
 12 20  1  0  0  0  0
 14 15  1  1  0  0  0
 14 22  1  0  0  0  0
 16 17  1  1  0  0  0
 16 24  1  0  0  0  0
 18 19  1  6  0  0  0
 18 25  1  0  0  0  0
 20 21  1  6  0  0  0
 20 27  1  0  0  0  0
 22 23  1  6  0  0  0
 22 29  1  0  0  0  0
 24  2  1  1  0  0  0
 24 31  1  0  0  0  0
 25 26  1  0  0  0  0
 25 33  1  1  0  0  0
 27 28  1  1  0  0  0
 27 35  1  0  0  0  0
 29 30  1  0  0  0  0
 29 37  1  1  0  0  0
 31 32  1  1  0  0  0
 31 39  1  0  0  0  0
 33 34  1  0  0  0  0
 35 36  1  0  0  0  0
 35 41  1  6  0  0  0
 37 38  1  0  0  0  0
 39 40  1  6  0  0  0
 41 42  1  0  0  0  0
M  END
>  <CHROM.1>
158.07016221,90.64350971,-58.02405100,-57.35802289,-120.92381179,79.17238901
-172.21529517,-164.47305341,-56.32167398,-3.14116727,6.84382918,12.06517854
-1.33927357,-1.40013461,-0.17657088

>  <Name>
2o3w_lig

>  <RI>
0

>  <Rbt.Current_Directory>
/home/itssahil/PROJECTS/Mol_Feturizer/New_Systems/rnas/2o3w

>  <Rbt.Executable>
rbdock ($Id: //depot/dev/client3/rdock/2013.1/src/exe/rbdock.cxx#4 $)

>  <Rbt.Library>
libRbt.so (2013.1, Build901 2013/11/27)

>  <Rbt.Parameter_File>
/export/apps/rDock/src/rDock_2013.1_src/data/scripts/dock_solv.prm

>  <Rbt.Receptor>
prm/blind_docking_60.prm

>  <SCORE>
31.8436

>  <SCORE.INTER>
8.23508

>  <SCORE.INTER.CONST>
1

>  <SCORE.INTER.POLAR>
-0.415822

>  <SCORE.INTER.ROT>
9

>  <SCORE.INTER.SOLV>
30.1086

>  <SCORE.INTER.VDW>
-12.7601

>  <SCORE.INTER.norm>
0.196073

>  <SCORE.INTRA>
8.45286

>  <SCORE.INTRA.DIHEDRAL>
-12.1458

>  <SCORE.INTRA.DIHEDRAL.0>
27.8999

>  <SCORE.INTRA.POLAR>
0

>  <SCORE.INTRA.POLAR.0>
0

>  <SCORE.INTRA.REPUL>
0.00973857

>  <SCORE.INTRA.REPUL.0>
0

>  <SCORE.INTRA.SOLV>
5.5185

>  <SCORE.INTRA.SOLV.lig_0>
-104.479

>  <SCORE.INTRA.VDW>
11.7178

>  <SCORE.INTRA.VDW.0>
-6.17816

>  <SCORE.INTRA.norm>
0.201259

>  <SCORE.RESTR>
15.1557

>  <SCORE.RESTR.CAVITY>
15.1557

>  <SCORE.RESTR.norm>
0.36085

>  <SCORE.SYSTEM>
0

>  <SCORE.SYSTEM.CONST>
0

>  <SCORE.SYSTEM.DIHEDRAL>
0

>  <SCORE.SYSTEM.SOLV>
0

>  <SCORE.SYSTEM.norm>
0

>  <SCORE.heavy>
42

>  <SCORE.norm>
0.758181

>  <RMSD>
15.065

$$$$
2o3w_lig
 OpenBabel11021811463D
libRbt.so/2013.1/901 2013/11/27
 42 45  0  0  0  0  0  0  0  0999 V2000
   -0.3047    3.9249   12.4557 C   0  0  2  0  0  0  0  0  0  0  0  0
   -1.1761    4.1382   11.3322 O   0  0  0  0  0  0  0  0  0  0  0  0
   -4.2050    6.4551   13.3948 C   0  0  2  0  0  0  0  0  0  0  0  0
   -5.4489    7.2192   13.7097 N   0  0  0  0  0  0  0  0  0  0  0  0
   -4.5289    2.9330   10.7085 C   0  0  1  0  0  0  0  0  0  0  0  0
   -6.1058    3.4572    8.0931 C   0  0  1  0  0  0  0  0  0  0  0  0
   -0.3805    2.4091   12.8090 C   0  0  2  0  0  0  0  0  0  0  0  0
   -0.1879    1.5454   11.6311 N   0  0  0  0  0  0  0  0  0  0  0  0
   -3.3459    7.1883   12.2875 C   0  0  0  0  0  0  0  0  0  0  0  0
   -4.6961    1.5136   10.0856 C   0  0  2  0  0  0  0  0  0  0  0  0
   -3.7365    1.2108    9.0431 O   0  0  0  0  0  0  0  0  0  0  0  0
   -4.8210    3.8400    7.2736 C   0  0  2  0  0  0  0  0  0  0  0  0
   -3.5977    3.2458    7.8912 N   0  0  0  0  0  0  0  0  0  0  0  0
   -1.7356    2.0205   13.4285 C   0  0  1  0  0  0  0  0  0  0  0  0
   -1.7461    0.6340   13.7723 O   0  0  0  0  0  0  0  0  0  0  0  0
   -2.0405    6.3488   12.0155 C   0  0  2  0  0  0  0  0  0  0  0  0
   -1.1996    7.0185   10.9869 N   0  0  0  0  0  0  0  0  0  0  0  0
   -6.1607    1.5526    9.6466 C   0  0  2  0  0  0  0  0  0  0  0  0
   -6.2989    2.0492    8.2773 O   0  0  0  0  0  0  0  0  0  0  0  0
   -4.7050    5.4356    7.1872 C   0  0  1  0  0  0  0  0  0  0  0  0
   -5.7021    5.9271    6.2636 O   0  0  0  0  0  0  0  0  0  0  0  0
   -2.0127    2.9100   14.6619 C   0  0  2  0  0  0  0  0  0  0  0  0
   -3.2423    2.5555   15.2506 O   0  0  0  0  0  0  0  0  0  0  0  0
   -2.4070    4.8899   11.5328 C   0  0  2  0  0  0  0  0  0  0  0  0
   -6.8797    2.4720   10.6480 C   0  0  2  0  0  0  0  0  0  0  0  0
   -5.8619    3.3976   11.0220 O   0  0  0  0  0  0  0  0  0  0  0  0
   -4.8923    6.1508    8.6088 C   0  0  2  0  0  0  0  0  0  0  0  0
   -3.7507    5.8340    9.4043 O   0  0  0  0  0  0  0  0  0  0  0  0
   -2.0248    4.4105   14.2169 C   0  0  2  0  0  0  0  0  0  0  0  0
   -0.7426    4.7512   13.6008 O   0  0  0  0  0  0  0  0  0  0  0  0
   -3.2955    4.1306   12.5424 C   0  0  2  0  0  0  0  0  0  0  0  0
   -3.6813    2.9035   11.8643 O   0  0  0  0  0  0  0  0  0  0  0  0
   -7.4686    1.7496   11.8993 C   0  0  0  0  0  0  0  0  0  0  0  0
   -8.1968    0.5998   11.4792 O   0  0  0  0  0  0  0  0  0  0  0  0
   -6.2067    5.6463    9.3159 C   0  0  1  0  0  0  0  0  0  0  0  0
   -6.0783    4.1826    9.4220 O   0  0  0  0  0  0  0  0  0  0  0  0
   -2.2837    5.3560   15.3670 C   0  0  0  0  0  0  0  0  0  0  0  0
   -1.1110    5.5310   16.1242 O   0  0  0  0  0  0  0  0  0  0  0  0
   -4.5732    4.9961   12.9087 C   0  0  1  0  0  0  0  0  0  0  0  0
   -5.3155    4.3620   13.9540 O   0  0  0  0  0  0  0  0  0  0  0  0
   -6.4541    6.2820   10.7523 C   0  0  0  0  0  0  0  0  0  0  0  0
   -6.1858    7.7422   10.8633 N   0  0  0  0  0  0  0  0  0  0  0  0
  1  2  1  6  0  0  0
  1  7  1  0  0  0  0
  1 30  1  0  0  0  0
  3  4  1  6  0  0  0
  3  9  1  0  0  0  0
  3 39  1  0  0  0  0
  5 10  1  0  0  0  0
  5 26  1  0  0  0  0
  5 32  1  1  0  0  0
  6 12  1  0  0  0  0
  6 36  1  0  0  0  0
  6 19  1  1  0  0  0
  7  8  1  6  0  0  0
  7 14  1  0  0  0  0
  9 16  1  0  0  0  0
 10 11  1  6  0  0  0
 10 18  1  0  0  0  0
 12 13  1  1  0  0  0
 12 20  1  0  0  0  0
 14 15  1  1  0  0  0
 14 22  1  0  0  0  0
 16 17  1  6  0  0  0
 16 24  1  0  0  0  0
 18 19  1  6  0  0  0
 18 25  1  0  0  0  0
 20 21  1  6  0  0  0
 20 27  1  0  0  0  0
 22 23  1  6  0  0  0
 22 29  1  0  0  0  0
 24  2  1  1  0  0  0
 24 31  1  0  0  0  0
 25 26  1  0  0  0  0
 25 33  1  1  0  0  0
 27 28  1  1  0  0  0
 27 35  1  0  0  0  0
 29 30  1  0  0  0  0
 29 37  1  1  0  0  0
 31 32  1  6  0  0  0
 31 39  1  0  0  0  0
 33 34  1  0  0  0  0
 35 36  1  0  0  0  0
 35 41  1  1  0  0  0
 37 38  1  0  0  0  0
 39 40  1  1  0  0  0
 41 42  1  0  0  0  0
M  END
>  <CHROM.1>
110.18015575,174.86932491,112.32001676,-74.05490892,61.36529338,-47.79530880
78.49500617,-66.29013225,42.58743613,-3.93361202,4.04301000,11.38752348,0.09616808
0.89674115,2.97125147

>  <Name>
2o3w_lig

>  <RI>
0

>  <Rbt.Current_Directory>
/home/itssahil/PROJECTS/Mol_Feturizer/New_Systems/rnas/2o3w

>  <Rbt.Executable>
rbdock ($Id: //depot/dev/client3/rdock/2013.1/src/exe/rbdock.cxx#4 $)

>  <Rbt.Library>
libRbt.so (2013.1, Build901 2013/11/27)

>  <Rbt.Parameter_File>
/export/apps/rDock/src/rDock_2013.1_src/data/scripts/dock_solv.prm

>  <Rbt.Receptor>
prm/blind_docking_20.prm

>  <SCORE>
97.655

>  <SCORE.INTER>
12.8688

>  <SCORE.INTER.CONST>
1

>  <SCORE.INTER.POLAR>
-0.323349

>  <SCORE.INTER.ROT>
9

>  <SCORE.INTER.SOLV>
28.4716

>  <SCORE.INTER.VDW>
-9.43351

>  <SCORE.INTER.norm>
0.306399

>  <SCORE.INTRA>
54.5262

>  <SCORE.INTRA.DIHEDRAL>
-10.2809

>  <SCORE.INTRA.DIHEDRAL.0>
27.8999

>  <SCORE.INTRA.POLAR>
0

>  <SCORE.INTRA.POLAR.0>
0

>  <SCORE.INTRA.REPUL>
0.0327225

>  <SCORE.INTRA.REPUL.0>
0

>  <SCORE.INTRA.SOLV>
12.3261

>  <SCORE.INTRA.SOLV.lig_0>
-104.479

>  <SCORE.INTRA.VDW>
53.34

>  <SCORE.INTRA.VDW.0>
-6.17816

>  <SCORE.INTRA.norm>
1.29824

>  <SCORE.RESTR>
30.2601

>  <SCORE.RESTR.CAVITY>
30.2601

>  <SCORE.RESTR.norm>
0.720478

>  <SCORE.SYSTEM>
0

>  <SCORE.SYSTEM.CONST>
0

>  <SCORE.SYSTEM.DIHEDRAL>
0

>  <SCORE.SYSTEM.SOLV>
0

>  <SCORE.SYSTEM.norm>
0

>  <SCORE.heavy>
42

>  <SCORE.norm>
2.32512

>  <RMSD>
15.111

$$$$
2o3w_lig
 OpenBabel11021811463D
libRbt.so/2013.1/901 2013/11/27
 42 45  0  0  0  0  0  0  0  0999 V2000
   -3.3571    6.7980   13.6733 C   0  0  2  0  0  0  0  0  0  0  0  0
   -3.8542    5.4781   13.9524 O   0  0  0  0  0  0  0  0  0  0  0  0
   -0.1449    3.2537   13.6532 C   0  0  2  0  0  0  0  0  0  0  0  0
    0.8965    2.1912   13.7832 N   0  0  0  0  0  0  0  0  0  0  0  0
   -4.3026    3.1943   11.0365 C   0  0  1  0  0  0  0  0  0  0  0  0
   -5.7284    3.6288    8.2049 C   0  0  1  0  0  0  0  0  0  0  0  0
   -4.5523    7.6252   13.1118 C   0  0  2  0  0  0  0  0  0  0  0  0
   -5.7557    7.5209   13.9554 N   0  0  0  0  0  0  0  0  0  0  0  0
   -0.5287    3.8569   15.0642 C   0  0  0  0  0  0  0  0  0  0  0  0
   -3.1510    2.9498   10.0143 C   0  0  2  0  0  0  0  0  0  0  0  0
   -2.4818    4.1592    9.5801 O   0  0  0  0  0  0  0  0  0  0  0  0
   -6.2807    4.6095    7.1085 C   0  0  2  0  0  0  0  0  0  0  0  0
   -5.3042    5.7055    6.8324 N   0  0  0  0  0  0  0  0  0  0  0  0
   -4.9607    7.1754   11.6970 C   0  0  1  0  0  0  0  0  0  0  0  0
   -6.0310    7.9850   11.2072 O   0  0  0  0  0  0  0  0  0  0  0  0
   -1.6109    4.9838   14.8601 C   0  0  2  0  0  0  0  0  0  0  0  0
   -1.9854    5.5846   16.1686 N   0  0  0  0  0  0  0  0  0  0  0  0
   -3.8841    2.1699    8.9219 C   0  0  2  0  0  0  0  0  0  0  0  0
   -4.4457    3.0629    7.9080 O   0  0  0  0  0  0  0  0  0  0  0  0
   -7.6894    5.2015    7.5901 C   0  0  1  0  0  0  0  0  0  0  0  0
   -8.6935    4.1680    7.4780 O   0  0  0  0  0  0  0  0  0  0  0  0
   -3.7320    7.2379   10.7613 C   0  0  2  0  0  0  0  0  0  0  0  0
   -4.0931    6.8450    9.4576 O   0  0  0  0  0  0  0  0  0  0  0  0
   -2.8990    4.3983   14.1575 C   0  0  2  0  0  0  0  0  0  0  0  0
   -4.9889    1.3741    9.6371 C   0  0  2  0  0  0  0  0  0  0  0  0
   -5.3193    2.2081   10.7451 O   0  0  0  0  0  0  0  0  0  0  0  0
   -7.6515    5.7510    9.0948 C   0  0  2  0  0  0  0  0  0  0  0  0
   -6.8410    6.9254    9.1044 O   0  0  0  0  0  0  0  0  0  0  0  0
   -2.6100    6.3060   11.3290 C   0  0  2  0  0  0  0  0  0  0  0  0
   -2.2596    6.7277   12.6851 O   0  0  0  0  0  0  0  0  0  0  0  0
   -2.5910    3.7400   12.7947 C   0  0  2  0  0  0  0  0  0  0  0  0
   -3.8338    3.1039   12.3882 O   0  0  0  0  0  0  0  0  0  0  0  0
   -4.5702   -0.0516   10.1129 C   0  0  0  0  0  0  0  0  0  0  0  0
   -5.6872   -0.6907   10.7233 O   0  0  0  0  0  0  0  0  0  0  0  0
   -7.0517    4.6665   10.0676 C   0  0  1  0  0  0  0  0  0  0  0  0
   -5.7149    4.3398    9.5418 O   0  0  0  0  0  0  0  0  0  0  0  0
   -1.3628    6.3111   10.4756 C   0  0  0  0  0  0  0  0  0  0  0  0
   -0.5494    5.2098   10.7992 O   0  0  0  0  0  0  0  0  0  0  0  0
   -1.4350    2.6657   12.9528 C   0  0  1  0  0  0  0  0  0  0  0  0
   -1.0462    2.1668   11.6700 O   0  0  0  0  0  0  0  0  0  0  0  0
   -6.9458    5.1421   11.5813 C   0  0  0  0  0  0  0  0  0  0  0  0
   -6.3343    4.1625   12.5209 N   0  0  0  0  0  0  0  0  0  0  0  0
  1  2  1  6  0  0  0
  1  7  1  0  0  0  0
  1 30  1  0  0  0  0
  3  4  1  1  0  0  0
  3  9  1  0  0  0  0
  3 39  1  0  0  0  0
  5 10  1  0  0  0  0
  5 26  1  0  0  0  0
  5 32  1  1  0  0  0
  6 12  1  0  0  0  0
  6 36  1  0  0  0  0
  6 19  1  6  0  0  0
  7  8  1  1  0  0  0
  7 14  1  0  0  0  0
  9 16  1  0  0  0  0
 10 11  1  6  0  0  0
 10 18  1  0  0  0  0
 12 13  1  1  0  0  0
 12 20  1  0  0  0  0
 14 15  1  6  0  0  0
 14 22  1  0  0  0  0
 16 17  1  1  0  0  0
 16 24  1  0  0  0  0
 18 19  1  6  0  0  0
 18 25  1  0  0  0  0
 20 21  1  1  0  0  0
 20 27  1  0  0  0  0
 22 23  1  6  0  0  0
 22 29  1  0  0  0  0
 24  2  1  6  0  0  0
 24 31  1  0  0  0  0
 25 26  1  0  0  0  0
 25 33  1  1  0  0  0
 27 28  1  6  0  0  0
 27 35  1  0  0  0  0
 29 30  1  0  0  0  0
 29 37  1  6  0  0  0
 31 32  1  1  0  0  0
 31 39  1  0  0  0  0
 33 34  1  0  0  0  0
 35 36  1  0  0  0  0
 35 41  1  1  0  0  0
 37 38  1  0  0  0  0
 39 40  1  6  0  0  0
 41 42  1  0  0  0  0
M  END
>  <CHROM.1>
164.27819470,44.51701026,178.55067414,-84.32825314,33.58748508,-178.45806316
-163.64963674,136.98041481,-177.71915009,-4.09058611,4.51157820,11.12486878
0.30535958,-0.74522584,0.45421910

>  <Name>
2o3w_lig

>  <RI>
0

>  <Rbt.Current_Directory>
/home/itssahil/PROJECTS/Mol_Feturizer/New_Systems/rnas/2o3w

>  <Rbt.Executable>
rbdock ($Id: //depot/dev/client3/rdock/2013.1/src/exe/rbdock.cxx#4 $)

>  <Rbt.Library>
libRbt.so (2013.1, Build901 2013/11/27)

>  <Rbt.Parameter_File>
/export/apps/rDock/src/rDock_2013.1_src/data/scripts/dock_solv.prm

>  <Rbt.Receptor>
prm/blind_docking_20.prm

>  <SCORE>
56.9869

>  <SCORE.INTER>
17.1501

>  <SCORE.INTER.CONST>
1

>  <SCORE.INTER.POLAR>
0

>  <SCORE.INTER.ROT>
9

>  <SCORE.INTER.SOLV>
31.353

>  <SCORE.INTER.VDW>
-8.61761

>  <SCORE.INTER.norm>
0.408335

>  <SCORE.INTRA>
8.04615

>  <SCORE.INTRA.DIHEDRAL>
-13.2244

>  <SCORE.INTRA.DIHEDRAL.0>
27.8999

>  <SCORE.INTRA.POLAR>
0

>  <SCORE.INTRA.POLAR.0>
0

>  <SCORE.INTRA.REPUL>
0

>  <SCORE.INTRA.REPUL.0>
0

>  <SCORE.INTRA.SOLV>
10.4001

>  <SCORE.INTRA.SOLV.lig_0>
-104.479

>  <SCORE.INTRA.VDW>
9.4583

>  <SCORE.INTRA.VDW.0>
-6.17816

>  <SCORE.INTRA.norm>
0.191575

>  <SCORE.RESTR>
31.7907

>  <SCORE.RESTR.CAVITY>
31.7907

>  <SCORE.RESTR.norm>
0.756921

>  <SCORE.SYSTEM>
0

>  <SCORE.SYSTEM.CONST>
0

>  <SCORE.SYSTEM.DIHEDRAL>
0

>  <SCORE.SYSTEM.SOLV>
0

>  <SCORE.SYSTEM.norm>
0

>  <SCORE.heavy>
42

>  <SCORE.norm>
1.35683

>  <RMSD>
15.159

$$$$
2o3w_lig
 OpenBabel11021811463D
libRbt.so/2013.1/901 2013/11/27
 42 45  0  0  0  0  0  0  0  0999 V2000
   -2.6072    6.9525   13.6335 C   0  0  2  0  0  0  0  0  0  0  0  0
   -3.4105    5.9123   14.2165 O   0  0  0  0  0  0  0  0  0  0  0  0
   -0.5192    2.6846   14.0809 C   0  0  2  0  0  0  0  0  0  0  0  0
    0.1895    1.3923   14.3220 N   0  0  0  0  0  0  0  0  0  0  0  0
   -4.7048    3.2766   11.7095 C   0  0  1  0  0  0  0  0  0  0  0  0
   -5.4312    3.4991    8.8092 C   0  0  1  0  0  0  0  0  0  0  0  0
   -3.5889    8.0058   13.0377 C   0  0  2  0  0  0  0  0  0  0  0  0
   -4.6290    8.4136   13.9981 N   0  0  0  0  0  0  0  0  0  0  0  0
   -0.5856    3.5574   15.3983 C   0  0  0  0  0  0  0  0  0  0  0  0
   -4.0977    2.0131   11.0272 C   0  0  2  0  0  0  0  0  0  0  0  0
   -2.9010    2.2781   10.2547 O   0  0  0  0  0  0  0  0  0  0  0  0
   -6.8817    4.0716    9.0017 C   0  0  2  0  0  0  0  0  0  0  0  0
   -7.8317    3.4569    8.0267 N   0  0  0  0  0  0  0  0  0  0  0  0
   -4.3189    7.4823   11.7871 C   0  0  1  0  0  0  0  0  0  0  0  0
   -5.1765    8.4922   11.2526 O   0  0  0  0  0  0  0  0  0  0  0  0
   -1.3219    4.9125   15.0762 C   0  0  2  0  0  0  0  0  0  0  0  0
   -1.3896    5.7665   16.2926 N   0  0  0  0  0  0  0  0  0  0  0  0
   -5.2988    1.4988   10.2321 C   0  0  2  0  0  0  0  0  0  0  0  0
   -5.3380    2.0712    8.8862 O   0  0  0  0  0  0  0  0  0  0  0  0
   -6.8463    5.6656    8.8438 C   0  0  1  0  0  0  0  0  0  0  0  0
   -6.2325    6.2381   10.0204 O   0  0  0  0  0  0  0  0  0  0  0  0
   -3.2807    7.0128   10.7427 C   0  0  2  0  0  0  0  0  0  0  0  0
   -3.9329    6.5460    9.5846 O   0  0  0  0  0  0  0  0  0  0  0  0
   -2.7821    4.6389   14.5387 C   0  0  2  0  0  0  0  0  0  0  0  0
   -6.5449    1.8940   11.0423 C   0  0  2  0  0  0  0  0  0  0  0  0
   -6.1398    3.0995   11.6866 O   0  0  0  0  0  0  0  0  0  0  0  0
   -6.0507    6.1437    7.5377 C   0  0  2  0  0  0  0  0  0  0  0  0
   -6.8269    5.7710    6.3998 O   0  0  0  0  0  0  0  0  0  0  0  0
   -2.3972    5.8848   11.3725 C   0  0  2  0  0  0  0  0  0  0  0  0
   -1.7390    6.3904   12.5771 O   0  0  0  0  0  0  0  0  0  0  0  0
   -2.7992    3.7426   13.2811 C   0  0  2  0  0  0  0  0  0  0  0  0
   -4.2027    3.4475   13.0413 O   0  0  0  0  0  0  0  0  0  0  0  0
   -7.0169    0.8323   12.0836 C   0  0  0  0  0  0  0  0  0  0  0  0
   -8.0501    1.3908   12.8895 O   0  0  0  0  0  0  0  0  0  0  0  0
   -4.6295    5.4667    7.4737 C   0  0  1  0  0  0  0  0  0  0  0  0
   -4.8670    4.0131    7.5013 O   0  0  0  0  0  0  0  0  0  0  0  0
   -1.3453    5.3689   10.4180 C   0  0  0  0  0  0  0  0  0  0  0  0
   -0.3782    6.3623   10.1791 O   0  0  0  0  0  0  0  0  0  0  0  0
   -1.9817    2.4095   13.5460 C   0  0  1  0  0  0  0  0  0  0  0  0
   -1.8694    1.6513   12.3384 O   0  0  0  0  0  0  0  0  0  0  0  0
   -3.7817    5.8608    6.1874 C   0  0  0  0  0  0  0  0  0  0  0  0
   -2.4540    5.1983    6.0655 N   0  0  0  0  0  0  0  0  0  0  0  0
  1  2  1  6  0  0  0
  1  7  1  0  0  0  0
  1 30  1  0  0  0  0
  3  4  1  1  0  0  0
  3  9  1  0  0  0  0
  3 39  1  0  0  0  0
  5 10  1  0  0  0  0
  5 26  1  0  0  0  0
  5 32  1  1  0  0  0
  6 12  1  0  0  0  0
  6 36  1  0  0  0  0
  6 19  1  6  0  0  0
  7  8  1  1  0  0  0
  7 14  1  0  0  0  0
  9 16  1  0  0  0  0
 10 11  1  6  0  0  0
 10 18  1  0  0  0  0
 12 13  1  6  0  0  0
 12 20  1  0  0  0  0
 14 15  1  6  0  0  0
 14 22  1  0  0  0  0
 16 17  1  1  0  0  0
 16 24  1  0  0  0  0
 18 19  1  6  0  0  0
 18 25  1  0  0  0  0
 20 21  1  1  0  0  0
 20 27  1  0  0  0  0
 22 23  1  6  0  0  0
 22 29  1  0  0  0  0
 24  2  1  6  0  0  0
 24 31  1  0  0  0  0
 25 26  1  0  0  0  0
 25 33  1  1  0  0  0
 27 28  1  6  0  0  0
 27 35  1  0  0  0  0
 29 30  1  0  0  0  0
 29 37  1  6  0  0  0
 31 32  1  1  0  0  0
 31 39  1  0  0  0  0
 33 34  1  0  0  0  0
 35 36  1  0  0  0  0
 35 41  1  6  0  0  0
 37 38  1  0  0  0  0
 39 40  1  6  0  0  0
 41 42  1  0  0  0  0
M  END
>  <CHROM.1>
164.29585631,65.68063102,-80.89407663,-59.92957413,37.40254790,171.87006703
68.19681714,147.09125435,-177.69103074,-3.96955929,4.54063814,11.17334269
-0.47745236,-0.89186813,-0.55969500

>  <Name>
2o3w_lig

>  <RI>
0

>  <Rbt.Current_Directory>
/home/itssahil/PROJECTS/Mol_Feturizer/New_Systems/rnas/2o3w

>  <Rbt.Executable>
rbdock ($Id: //depot/dev/client3/rdock/2013.1/src/exe/rbdock.cxx#4 $)

>  <Rbt.Library>
libRbt.so (2013.1, Build901 2013/11/27)

>  <Rbt.Parameter_File>
/export/apps/rDock/src/rDock_2013.1_src/data/scripts/dock_solv.prm

>  <Rbt.Receptor>
prm/blind_docking_20.prm

>  <SCORE>
46.9384

>  <SCORE.INTER>
11.7125

>  <SCORE.INTER.CONST>
1

>  <SCORE.INTER.POLAR>
-0.0690159

>  <SCORE.INTER.ROT>
9

>  <SCORE.INTER.SOLV>
25.4536

>  <SCORE.INTER.VDW>
-10.0461

>  <SCORE.INTER.norm>
0.27887

>  <SCORE.INTRA>
-1.87391

>  <SCORE.INTRA.DIHEDRAL>
-17.6585

>  <SCORE.INTRA.DIHEDRAL.0>
27.8999

>  <SCORE.INTRA.POLAR>
0

>  <SCORE.INTRA.POLAR.0>
0

>  <SCORE.INTRA.REPUL>
0

>  <SCORE.INTRA.REPUL.0>
0

>  <SCORE.INTRA.SOLV>
0.532523

>  <SCORE.INTRA.SOLV.lig_0>
-104.479

>  <SCORE.INTRA.VDW>
6.6891

>  <SCORE.INTRA.VDW.0>
-6.17816

>  <SCORE.INTRA.norm>
-0.0446168

>  <SCORE.RESTR>
37.0997

>  <SCORE.RESTR.CAVITY>
37.0997

>  <SCORE.RESTR.norm>
0.883327

>  <SCORE.SYSTEM>
0

>  <SCORE.SYSTEM.CONST>
0

>  <SCORE.SYSTEM.DIHEDRAL>
0

>  <SCORE.SYSTEM.SOLV>
0

>  <SCORE.SYSTEM.norm>
0

>  <SCORE.heavy>
42

>  <SCORE.norm>
1.11758

>  <RMSD>
15.200

$$$$
2o3w_lig
 OpenBabel11021811463D
libRbt.so/2013.1/901 2013/11/27
 42 45  0  0  0  0  0  0  0  0999 V2000
   -5.1729    3.4050   12.9896 C   0  0  2  0  0  0  0  0  0  0  0  0
   -3.9849    3.7107   12.2396 O   0  0  0  0  0  0  0  0  0  0  0  0
   -1.1429    3.4793   15.5055 C   0  0  2  0  0  0  0  0  0  0  0  0
    0.0967    3.5983   16.3298 N   0  0  0  0  0  0  0  0  0  0  0  0
   -3.8117    6.2140   12.1966 C   0  0  1  0  0  0  0  0  0  0  0  0
   -5.0012    6.2459    8.9535 C   0  0  1  0  0  0  0  0  0  0  0  0
   -5.5946    1.9556   12.6032 C   0  0  2  0  0  0  0  0  0  0  0  0
   -4.4760    1.0007   12.6908 N   0  0  0  0  0  0  0  0  0  0  0  0
   -0.9186    2.5220   14.2664 C   0  0  0  0  0  0  0  0  0  0  0  0
   -4.9177    7.3128   12.2017 C   0  0  2  0  0  0  0  0  0  0  0  0
   -6.2325    6.8239   12.5642 O   0  0  0  0  0  0  0  0  0  0  0  0
   -5.7325    6.0371    7.5786 C   0  0  2  0  0  0  0  0  0  0  0  0
   -7.1479    5.6079    7.7870 N   0  0  0  0  0  0  0  0  0  0  0  0
   -6.1412    1.8695   11.1662 C   0  0  1  0  0  0  0  0  0  0  0  0
   -6.5515    0.5337   10.8693 O   0  0  0  0  0  0  0  0  0  0  0  0
   -2.2629    2.4192   13.4511 C   0  0  2  0  0  0  0  0  0  0  0  0
   -2.0919    1.5129   12.2836 N   0  0  0  0  0  0  0  0  0  0  0  0
   -4.7868    7.8725   10.7843 C   0  0  2  0  0  0  0  0  0  0  0  0
   -5.6524    7.1614    9.8430 O   0  0  0  0  0  0  0  0  0  0  0  0
   -4.9264    4.9595    6.7092 C   0  0  1  0  0  0  0  0  0  0  0  0
   -3.7133    5.5706    6.2155 O   0  0  0  0  0  0  0  0  0  0  0  0
   -7.3082    2.8690   10.9978 C   0  0  2  0  0  0  0  0  0  0  0  0
   -7.8309    2.7906    9.6921 O   0  0  0  0  0  0  0  0  0  0  0  0
   -2.7220    3.8460   12.9518 C   0  0  2  0  0  0  0  0  0  0  0  0
   -3.3047    7.7200   10.4028 C   0  0  2  0  0  0  0  0  0  0  0  0
   -2.9064    6.5550   11.1217 O   0  0  0  0  0  0  0  0  0  0  0  0
   -4.5616    3.6382    7.5390 C   0  0  2  0  0  0  0  0  0  0  0  0
   -5.7788    2.9363    7.7886 O   0  0  0  0  0  0  0  0  0  0  0  0
   -6.7900    4.3145   11.3003 C   0  0  2  0  0  0  0  0  0  0  0  0
   -6.2442    4.3678   12.6564 O   0  0  0  0  0  0  0  0  0  0  0  0
   -2.9071    4.8539   14.1072 C   0  0  2  0  0  0  0  0  0  0  0  0
   -3.1426    6.1356   13.4620 O   0  0  0  0  0  0  0  0  0  0  0  0
   -2.4026    8.9398   10.7667 C   0  0  0  0  0  0  0  0  0  0  0  0
   -2.1444    8.9327   12.1675 O   0  0  0  0  0  0  0  0  0  0  0  0
   -3.8590    4.0120    8.8987 C   0  0  1  0  0  0  0  0  0  0  0  0
   -4.7945    4.8983    9.6125 O   0  0  0  0  0  0  0  0  0  0  0  0
   -7.8724    5.3604   11.1651 C   0  0  0  0  0  0  0  0  0  0  0  0
   -8.4597    5.2884    9.8887 O   0  0  0  0  0  0  0  0  0  0  0  0
   -1.5997    4.9076   15.0036 C   0  0  1  0  0  0  0  0  0  0  0  0
   -1.8248    5.7239   16.1562 O   0  0  0  0  0  0  0  0  0  0  0  0
   -3.4913    2.7574    9.8040 C   0  0  0  0  0  0  0  0  0  0  0  0
   -2.8362    1.6239    9.0951 N   0  0  0  0  0  0  0  0  0  0  0  0
  1  2  1  6  0  0  0
  1  7  1  0  0  0  0
  1 30  1  0  0  0  0
  3  4  1  6  0  0  0
  3  9  1  0  0  0  0
  3 39  1  0  0  0  0
  5 10  1  0  0  0  0
  5 26  1  0  0  0  0
  5 32  1  1  0  0  0
  6 12  1  0  0  0  0
  6 36  1  0  0  0  0
  6 19  1  1  0  0  0
  7  8  1  6  0  0  0
  7 14  1  0  0  0  0
  9 16  1  0  0  0  0
 10 11  1  6  0  0  0
 10 18  1  0  0  0  0
 12 13  1  1  0  0  0
 12 20  1  0  0  0  0
 14 15  1  1  0  0  0
 14 22  1  0  0  0  0
 16 17  1  6  0  0  0
 16 24  1  0  0  0  0
 18 19  1  6  0  0  0
 18 25  1  0  0  0  0
 20 21  1  1  0  0  0
 20 27  1  0  0  0  0
 22 23  1  6  0  0  0
 22 29  1  0  0  0  0
 24  2  1  1  0  0  0
 24 31  1  0  0  0  0
 25 26  1  0  0  0  0
 25 33  1  1  0  0  0
 27 28  1  1  0  0  0
 27 35  1  0  0  0  0
 29 30  1  0  0  0  0
 29 37  1  1  0  0  0
 31 32  1  6  0  0  0
 31 39  1  0  0  0  0
 33 34  1  0  0  0  0
 35 36  1  0  0  0  0
 35 41  1  1  0  0  0
 37 38  1  0  0  0  0
 39 40  1  1  0  0  0
 41 42  1  0  0  0  0
M  END
>  <CHROM.1>
-111.10544095,133.19082005,-151.80927995,-105.15471558,70.85766641,75.93127905
-55.28518971,31.60665509,46.12920823,-4.38369968,4.60113023,11.26728110,0.33924184
0.91172458,2.78956301

>  <Name>
2o3w_lig

>  <RI>
0

>  <Rbt.Current_Directory>
/home/itssahil/PROJECTS/Mol_Feturizer/New_Systems/rnas/2o3w

>  <Rbt.Executable>
rbdock ($Id: //depot/dev/client3/rdock/2013.1/src/exe/rbdock.cxx#4 $)

>  <Rbt.Library>
libRbt.so (2013.1, Build901 2013/11/27)

>  <Rbt.Parameter_File>
/export/apps/rDock/src/rDock_2013.1_src/data/scripts/dock_solv.prm

>  <Rbt.Receptor>
prm/blind_docking_20.prm

>  <SCORE>
78.2744

>  <SCORE.INTER>
27.5762

>  <SCORE.INTER.CONST>
1

>  <SCORE.INTER.POLAR>
-0.00672017

>  <SCORE.INTER.ROT>
9

>  <SCORE.INTER.SOLV>
23.6217

>  <SCORE.INTER.VDW>
0.932627

>  <SCORE.INTER.norm>
0.656576

>  <SCORE.INTRA>
16.5785

>  <SCORE.INTRA.DIHEDRAL>
0.232757

>  <SCORE.INTRA.DIHEDRAL.0>
27.8999

>  <SCORE.INTRA.POLAR>
0

>  <SCORE.INTRA.POLAR.0>
0

>  <SCORE.INTRA.REPUL>
0.604337

>  <SCORE.INTRA.REPUL.0>
0

>  <SCORE.INTRA.SOLV>
11.9997

>  <SCORE.INTRA.SOLV.lig_0>
-104.479

>  <SCORE.INTRA.VDW>
7.44057

>  <SCORE.INTRA.VDW.0>
-6.17816

>  <SCORE.INTRA.norm>
0.394726

>  <SCORE.RESTR>
34.1197

>  <SCORE.RESTR.CAVITY>
34.1197

>  <SCORE.RESTR.norm>
0.812373

>  <SCORE.SYSTEM>
0

>  <SCORE.SYSTEM.CONST>
0

>  <SCORE.SYSTEM.DIHEDRAL>
0

>  <SCORE.SYSTEM.SOLV>
0

>  <SCORE.SYSTEM.norm>
0

>  <SCORE.heavy>
42

>  <SCORE.norm>
1.86368

>  <RMSD>
15.246

$$$$
2o3w_lig
 OpenBabel11021811463D
libRbt.so/2013.1/901 2013/11/27
 42 45  0  0  0  0  0  0  0  0999 V2000
   -2.5977    6.9798   13.5913 C   0  0  2  0  0  0  0  0  0  0  0  0
   -3.3921    5.9508   14.2056 O   0  0  0  0  0  0  0  0  0  0  0  0
   -0.4672    2.7526   14.0946 C   0  0  2  0  0  0  0  0  0  0  0  0
    0.2426    1.4590   14.3256 N   0  0  0  0  0  0  0  0  0  0  0  0
   -4.5812    3.5205   11.5663 C   0  0  1  0  0  0  0  0  0  0  0  0
   -6.1272    3.7416    8.4753 C   0  0  1  0  0  0  0  0  0  0  0  0
   -3.5874    8.0435   13.0281 C   0  0  2  0  0  0  0  0  0  0  0  0
   -4.5874    8.4662   14.0240 N   0  0  0  0  0  0  0  0  0  0  0  0
   -0.5989    3.5823   15.4348 C   0  0  0  0  0  0  0  0  0  0  0  0
   -4.0119    2.3133   10.7604 C   0  0  2  0  0  0  0  0  0  0  0  0
   -2.7836    2.6058   10.0499 O   0  0  0  0  0  0  0  0  0  0  0  0
   -6.0573    4.5013    7.1017 C   0  0  2  0  0  0  0  0  0  0  0  0
   -4.6769    5.0099    6.8431 N   0  0  0  0  0  0  0  0  0  0  0  0
   -4.3681    7.5260   11.8060 C   0  0  1  0  0  0  0  0  0  0  0  0
   -5.2321    8.5449   11.2998 O   0  0  0  0  0  0  0  0  0  0  0  0
   -1.3334    4.9410   15.1237 C   0  0  2  0  0  0  0  0  0  0  0  0
   -1.4618    5.7552   16.3623 N   0  0  0  0  0  0  0  0  0  0  0  0
   -5.2120    1.9478    9.8855 C   0  0  2  0  0  0  0  0  0  0  0  0
   -5.1884    2.6675    8.6118 O   0  0  0  0  0  0  0  0  0  0  0  0
   -7.1208    5.6995    7.1055 C   0  0  1  0  0  0  0  0  0  0  0  0
   -8.4494    5.1454    6.9760 O   0  0  0  0  0  0  0  0  0  0  0  0
   -3.3738    7.0414   10.7263 C   0  0  2  0  0  0  0  0  0  0  0  0
   -4.0728    6.5798    9.5937 O   0  0  0  0  0  0  0  0  0  0  0  0
   -2.7662    4.6729   14.5147 C   0  0  2  0  0  0  0  0  0  0  0  0
   -6.4614    2.3089   10.7065 C   0  0  2  0  0  0  0  0  0  0  0  0
   -6.0214    3.4149   11.4911 O   0  0  0  0  0  0  0  0  0  0  0  0
   -7.0414    6.5975    8.4302 C   0  0  2  0  0  0  0  0  0  0  0  0
   -5.8117    7.3203    8.3877 O   0  0  0  0  0  0  0  0  0  0  0  0
   -2.4819    5.9042   11.3272 C   0  0  2  0  0  0  0  0  0  0  0  0
   -1.7749    6.4046   12.5060 O   0  0  0  0  0  0  0  0  0  0  0  0
   -2.7202    3.8170   13.2299 C   0  0  2  0  0  0  0  0  0  0  0  0
   -4.1092    3.5184   12.9199 O   0  0  0  0  0  0  0  0  0  0  0  0
   -7.0089    1.1616   11.6110 C   0  0  0  0  0  0  0  0  0  0  0  0
   -6.1798    1.0339   12.7622 O   0  0  0  0  0  0  0  0  0  0  0  0
   -7.0980    5.6931    9.7190 C   0  0  1  0  0  0  0  0  0  0  0  0
   -5.9784    4.7428    9.6015 O   0  0  0  0  0  0  0  0  0  0  0  0
   -1.4713    5.3733   10.3370 C   0  0  0  0  0  0  0  0  0  0  0  0
   -2.1271    4.7151    9.2806 O   0  0  0  0  0  0  0  0  0  0  0  0
   -1.9024    2.4828   13.4880 C   0  0  1  0  0  0  0  0  0  0  0  0
   -1.7308    1.7645   12.2632 O   0  0  0  0  0  0  0  0  0  0  0  0
   -6.9909    6.5026   11.0835 C   0  0  0  0  0  0  0  0  0  0  0  0
   -6.7563    5.6797   12.3018 N   0  0  0  0  0  0  0  0  0  0  0  0
  1  2  1  6  0  0  0
  1  7  1  0  0  0  0
  1 30  1  0  0  0  0
  3  4  1  1  0  0  0
  3  9  1  0  0  0  0
  3 39  1  0  0  0  0
  5 10  1  0  0  0  0
  5 26  1  0  0  0  0
  5 32  1  1  0  0  0
  6 12  1  0  0  0  0
  6 36  1  0  0  0  0
  6 19  1  6  0  0  0
  7  8  1  1  0  0  0
  7 14  1  0  0  0  0
  9 16  1  0  0  0  0
 10 11  1  6  0  0  0
 10 18  1  0  0  0  0
 12 13  1  1  0  0  0
 12 20  1  0  0  0  0
 14 15  1  6  0  0  0
 14 22  1  0  0  0  0
 16 17  1  1  0  0  0
 16 24  1  0  0  0  0
 18 19  1  6  0  0  0
 18 25  1  0  0  0  0
 20 21  1  1  0  0  0
 20 27  1  0  0  0  0
 22 23  1  6  0  0  0
 22 29  1  0  0  0  0
 24  2  1  6  0  0  0
 24 31  1  0  0  0  0
 25 26  1  0  0  0  0
 25 33  1  1  0  0  0
 27 28  1  6  0  0  0
 27 35  1  0  0  0  0
 29 30  1  0  0  0  0
 29 37  1  6  0  0  0
 31 32  1  1  0  0  0
 31 39  1  0  0  0  0
 33 34  1  0  0  0  0
 35 36  1  0  0  0  0
 35 41  1  1  0  0  0
 37 38  1  0  0  0  0
 39 40  1  6  0  0  0
 41 42  1  0  0  0  0
M  END
>  <CHROM.1>
164.59305027,70.30807968,179.21677341,-105.79793727,42.35268196,76.36384880
-66.41777824,140.66494844,-167.80290002,-4.19251994,4.70465563,11.32776846
-0.03120134,-0.87451235,0.12010588

>  <Name>
2o3w_lig

>  <RI>
0

>  <Rbt.Current_Directory>
/home/itssahil/PROJECTS/Mol_Feturizer/New_Systems/rnas/2o3w

>  <Rbt.Executable>
rbdock ($Id: //depot/dev/client3/rdock/2013.1/src/exe/rbdock.cxx#4 $)

>  <Rbt.Library>
libRbt.so (2013.1, Build901 2013/11/27)

>  <Rbt.Parameter_File>
/export/apps/rDock/src/rDock_2013.1_src/data/scripts/dock_solv.prm

>  <Rbt.Receptor>
prm/blind_docking_20.prm

>  <SCORE>
59.9237

>  <SCORE.INTER>
17.7192

>  <SCORE.INTER.CONST>
1

>  <SCORE.INTER.POLAR>
0

>  <SCORE.INTER.ROT>
9

>  <SCORE.INTER.SOLV>
30.2534

>  <SCORE.INTER.VDW>
-7.87165

>  <SCORE.INTER.norm>
0.421886

>  <SCORE.INTRA>
9.21898

>  <SCORE.INTRA.DIHEDRAL>
-11.6422

>  <SCORE.INTRA.DIHEDRAL.0>
27.8999

>  <SCORE.INTRA.POLAR>
0

>  <SCORE.INTRA.POLAR.0>
0

>  <SCORE.INTRA.REPUL>
0.0682678

>  <SCORE.INTRA.REPUL.0>
0

>  <SCORE.INTRA.SOLV>
9.31184

>  <SCORE.INTRA.SOLV.lig_0>
-104.479

>  <SCORE.INTRA.VDW>
10.0428

>  <SCORE.INTRA.VDW.0>
-6.17816

>  <SCORE.INTRA.norm>
0.219499

>  <SCORE.RESTR>
32.9855

>  <SCORE.RESTR.CAVITY>
32.9855

>  <SCORE.RESTR.norm>
0.78537

>  <SCORE.SYSTEM>
0

>  <SCORE.SYSTEM.CONST>
0

>  <SCORE.SYSTEM.DIHEDRAL>
0

>  <SCORE.SYSTEM.SOLV>
0

>  <SCORE.SYSTEM.norm>
0

>  <SCORE.heavy>
42

>  <SCORE.norm>
1.42676

>  <RMSD>
15.331

$$$$
2o3w_lig
 OpenBabel11021811463D
libRbt.so/2013.1/901 2013/11/27
 42 45  0  0  0  0  0  0  0  0999 V2000
   -5.4563    2.4014    8.3580 C   0  0  2  0  0  0  0  0  0  0  0  0
   -4.8939    2.8291    9.6102 O   0  0  0  0  0  0  0  0  0  0  0  0
   -8.5796    4.1668   11.4602 C   0  0  2  0  0  0  0  0  0  0  0  0
   -9.5654    4.7550   12.4155 N   0  0  0  0  0  0  0  0  0  0  0  0
   -4.0580    5.4007   10.5735 C   0  0  1  0  0  0  0  0  0  0  0  0
   -1.3802    4.8967   12.5234 C   0  0  1  0  0  0  0  0  0  0  0  0
   -4.4152    1.4521    7.6922 C   0  0  2  0  0  0  0  0  0  0  0  0
   -3.9388    0.4043    8.6117 N   0  0  0  0  0  0  0  0  0  0  0  0
   -7.8610    2.9027   12.0828 C   0  0  0  0  0  0  0  0  0  0  0  0
   -2.8559    5.5415    9.5907 C   0  0  2  0  0  0  0  0  0  0  0  0
   -2.4482    4.2946    8.9758 O   0  0  0  0  0  0  0  0  0  0  0  0
   -0.3551    4.0001   13.3071 C   0  0  2  0  0  0  0  0  0  0  0  0
   -0.0648    2.7416   12.5570 N   0  0  0  0  0  0  0  0  0  0  0  0
   -3.1691    2.2080    7.1954 C   0  0  1  0  0  0  0  0  0  0  0  0
   -2.2620    1.3069    6.5582 O   0  0  0  0  0  0  0  0  0  0  0  0
   -6.8533    2.3153   11.0235 C   0  0  2  0  0  0  0  0  0  0  0  0
   -6.1686    1.1135   11.5717 N   0  0  0  0  0  0  0  0  0  0  0  0
   -1.8137    6.2084   10.4898 C   0  0  2  0  0  0  0  0  0  0  0  0
   -0.9887    5.2185   11.1829 O   0  0  0  0  0  0  0  0  0  0  0  0
   -0.9390    3.6799   14.7643 C   0  0  1  0  0  0  0  0  0  0  0  0
   -0.8461    4.8714   15.5771 O   0  0  0  0  0  0  0  0  0  0  0  0
   -3.6017    3.3432    6.2396 C   0  0  2  0  0  0  0  0  0  0  0  0
   -2.4708    4.0345    5.7626 O   0  0  0  0  0  0  0  0  0  0  0  0
   -5.7779    3.3989   10.6173 C   0  0  2  0  0  0  0  0  0  0  0  0
   -2.6040    7.0720   11.4874 C   0  0  2  0  0  0  0  0  0  0  0  0
   -3.8260    6.3530   11.6367 O   0  0  0  0  0  0  0  0  0  0  0  0
   -2.4587    3.1732   14.7279 C   0  0  2  0  0  0  0  0  0  0  0  0
   -2.4659    1.8745   14.1365 O   0  0  0  0  0  0  0  0  0  0  0  0
   -4.5626    4.3147    7.0027 C   0  0  2  0  0  0  0  0  0  0  0  0
   -5.7226    3.5725    7.4958 O   0  0  0  0  0  0  0  0  0  0  0  0
   -6.4116    4.6888   10.0515 C   0  0  2  0  0  0  0  0  0  0  0  0
   -5.3087    5.6259    9.9100 O   0  0  0  0  0  0  0  0  0  0  0  0
   -2.8683    8.5380   11.0236 C   0  0  0  0  0  0  0  0  0  0  0  0
   -1.6273    9.1639   10.7120 O   0  0  0  0  0  0  0  0  0  0  0  0
   -3.3538    4.1602   13.8872 C   0  0  1  0  0  0  0  0  0  0  0  0
   -2.7399    4.2309   12.5499 O   0  0  0  0  0  0  0  0  0  0  0  0
   -5.0421    5.4570    6.1373 C   0  0  0  0  0  0  0  0  0  0  0  0
   -3.9437    6.1707    5.6240 O   0  0  0  0  0  0  0  0  0  0  0  0
   -7.5018    5.2514   11.0568 C   0  0  1  0  0  0  0  0  0  0  0  0
   -8.1934    6.3558   10.4671 O   0  0  0  0  0  0  0  0  0  0  0  0
   -4.8757    3.7144   13.7705 C   0  0  0  0  0  0  0  0  0  0  0  0
   -5.1011    2.2877   13.4095 N   0  0  0  0  0  0  0  0  0  0  0  0
  1  2  1  1  0  0  0
  1  7  1  0  0  0  0
  1 30  1  0  0  0  0
  3  4  1  1  0  0  0
  3  9  1  0  0  0  0
  3 39  1  0  0  0  0
  5 10  1  0  0  0  0
  5 26  1  0  0  0  0
  5 32  1  6  0  0  0
  6 12  1  0  0  0  0
  6 36  1  0  0  0  0
  6 19  1  6  0  0  0
  7  8  1  1  0  0  0
  7 14  1  0  0  0  0
  9 16  1  0  0  0  0
 10 11  1  1  0  0  0
 10 18  1  0  0  0  0
 12 13  1  6  0  0  0
 12 20  1  0  0  0  0
 14 15  1  6  0  0  0
 14 22  1  0  0  0  0
 16 17  1  1  0  0  0
 16 24  1  0  0  0  0
 18 19  1  1  0  0  0
 18 25  1  0  0  0  0
 20 21  1  1  0  0  0
 20 27  1  0  0  0  0
 22 23  1  1  0  0  0
 22 29  1  0  0  0  0
 24  2  1  6  0  0  0
 24 31  1  0  0  0  0
 25 26  1  0  0  0  0
 25 33  1  6  0  0  0
 27 28  1  6  0  0  0
 27 35  1  0  0  0  0
 29 30  1  0  0  0  0
 29 37  1  6  0  0  0
 31 32  1  1  0  0  0
 31 39  1  0  0  0  0
 33 34  1  0  0  0  0
 35 36  1  0  0  0  0
 35 41  1  6  0  0  0
 37 38  1  0  0  0  0
 39 40  1  6  0  0  0
 41 42  1  0  0  0  0
M  END
>  <CHROM.1>
-162.35923561,130.26898142,-171.26108834,-97.13723345,61.04844482,-55.71209631
-56.75732749,-16.19401357,-47.12626136,-4.00447783,4.20598864,10.53940837
1.99876992,-0.25157247,-1.56765172

>  <Name>
2o3w_lig

>  <RI>
0

>  <Rbt.Current_Directory>
/home/itssahil/PROJECTS/Mol_Feturizer/New_Systems/rnas/2o3w

>  <Rbt.Executable>
rbdock ($Id: //depot/dev/client3/rdock/2013.1/src/exe/rbdock.cxx#4 $)

>  <Rbt.Library>
libRbt.so (2013.1, Build901 2013/11/27)

>  <Rbt.Parameter_File>
/export/apps/rDock/src/rDock_2013.1_src/data/scripts/dock_solv.prm

>  <Rbt.Receptor>
prm/blind_docking_20.prm

>  <SCORE>
47.6539

>  <SCORE.INTER>
6.77124

>  <SCORE.INTER.CONST>
1

>  <SCORE.INTER.POLAR>
-1.27227

>  <SCORE.INTER.ROT>
9

>  <SCORE.INTER.SOLV>
20.1069

>  <SCORE.INTER.VDW>
-7.54725

>  <SCORE.INTER.norm>
0.16122

>  <SCORE.INTRA>
5.97083

>  <SCORE.INTRA.DIHEDRAL>
-7.70625

>  <SCORE.INTRA.DIHEDRAL.0>
27.8999

>  <SCORE.INTRA.POLAR>
0

>  <SCORE.INTRA.POLAR.0>
0

>  <SCORE.INTRA.REPUL>
0.178649

>  <SCORE.INTRA.REPUL.0>
0

>  <SCORE.INTRA.SOLV>
6.50321

>  <SCORE.INTRA.SOLV.lig_0>
-104.479

>  <SCORE.INTRA.VDW>
5.6791

>  <SCORE.INTRA.VDW.0>
-6.17816

>  <SCORE.INTRA.norm>
0.142163

>  <SCORE.RESTR>
34.9119

>  <SCORE.RESTR.CAVITY>
34.9119

>  <SCORE.RESTR.norm>
0.831235

>  <SCORE.SYSTEM>
0

>  <SCORE.SYSTEM.CONST>
0

>  <SCORE.SYSTEM.DIHEDRAL>
0

>  <SCORE.SYSTEM.SOLV>
0

>  <SCORE.SYSTEM.norm>
0

>  <SCORE.heavy>
42

>  <SCORE.norm>
1.13462

>  <RMSD>
15.516

$$$$
2o3w_lig
 OpenBabel11021811463D
libRbt.so/2013.1/901 2013/11/27
 42 45  0  0  0  0  0  0  0  0999 V2000
   -6.8638    4.5193    8.4299 C   0  0  2  0  0  0  0  0  0  0  0  0
   -5.5099    4.7859    8.0258 O   0  0  0  0  0  0  0  0  0  0  0  0
   -3.9937    0.7652    7.4509 C   0  0  2  0  0  0  0  0  0  0  0  0
   -3.2156   -0.4095    6.9559 N   0  0  0  0  0  0  0  0  0  0  0  0
   -2.8890    4.9723   10.0413 C   0  0  1  0  0  0  0  0  0  0  0  0
   -2.5394    5.7009   12.8809 C   0  0  1  0  0  0  0  0  0  0  0  0
   -7.4265    5.8402    9.0353 C   0  0  2  0  0  0  0  0  0  0  0  0
   -7.1996    7.0032    8.1597 N   0  0  0  0  0  0  0  0  0  0  0  0
   -4.8915    1.3832    6.3047 C   0  0  0  0  0  0  0  0  0  0  0  0
   -1.6127    5.8453   10.2403 C   0  0  2  0  0  0  0  0  0  0  0  0
   -0.5621    5.1903   10.9929 O   0  0  0  0  0  0  0  0  0  0  0  0
   -4.0120    5.5475   13.4072 C   0  0  2  0  0  0  0  0  0  0  0  0
   -4.3279    6.5971   14.4218 N   0  0  0  0  0  0  0  0  0  0  0  0
   -6.7898    6.1771   10.3962 C   0  0  1  0  0  0  0  0  0  0  0  0
   -7.3625    7.3715   10.9312 O   0  0  0  0  0  0  0  0  0  0  0  0
   -5.7021    2.6001    6.8917 C   0  0  2  0  0  0  0  0  0  0  0  0
   -6.5704    3.1980    5.8418 N   0  0  0  0  0  0  0  0  0  0  0  0
   -2.2073    7.0980   10.8856 C   0  0  2  0  0  0  0  0  0  0  0  0
   -2.2288    6.9930   12.3448 O   0  0  0  0  0  0  0  0  0  0  0  0
   -4.2045    4.0793   14.0189 C   0  0  1  0  0  0  0  0  0  0  0  0
   -4.2645    3.1256   12.9346 O   0  0  0  0  0  0  0  0  0  0  0  0
   -6.9718    4.9828   11.3603 C   0  0  2  0  0  0  0  0  0  0  0  0
   -6.4088    5.2819   12.6165 O   0  0  0  0  0  0  0  0  0  0  0  0
   -4.7212    3.7011    7.4587 C   0  0  2  0  0  0  0  0  0  0  0  0
   -3.6292    7.2349   10.3157 C   0  0  2  0  0  0  0  0  0  0  0  0
   -4.0124    5.8820   10.0805 O   0  0  0  0  0  0  0  0  0  0  0  0
   -3.0316    3.6681   15.0302 C   0  0  2  0  0  0  0  0  0  0  0  0
   -3.1685    4.4742   16.1997 O   0  0  0  0  0  0  0  0  0  0  0  0
   -6.2945    3.7165   10.7381 C   0  0  2  0  0  0  0  0  0  0  0  0
   -6.8887    3.4325    9.4319 O   0  0  0  0  0  0  0  0  0  0  0  0
   -3.7716    3.1540    8.5469 C   0  0  2  0  0  0  0  0  0  0  0  0
   -2.8346    4.2335    8.8140 O   0  0  0  0  0  0  0  0  0  0  0  0
   -3.7365    8.0836    9.0110 C   0  0  0  0  0  0  0  0  0  0  0  0
   -5.1024    8.1688    8.6162 O   0  0  0  0  0  0  0  0  0  0  0  0
   -1.6206    3.9014   14.3693 C   0  0  1  0  0  0  0  0  0  0  0  0
   -1.5775    5.3237   13.9879 O   0  0  0  0  0  0  0  0  0  0  0  0
   -6.4305    2.4938   11.6158 C   0  0  0  0  0  0  0  0  0  0  0  0
   -5.4940    1.5159   11.2334 O   0  0  0  0  0  0  0  0  0  0  0  0
   -3.0108    1.8678    8.0153 C   0  0  1  0  0  0  0  0  0  0  0  0
   -2.2483    1.2745    9.0700 O   0  0  0  0  0  0  0  0  0  0  0  0
   -0.3945    3.5496   15.3188 C   0  0  0  0  0  0  0  0  0  0  0  0
    0.8549    3.1309   14.6258 N   0  0  0  0  0  0  0  0  0  0  0  0
  1  2  1  1  0  0  0
  1  7  1  0  0  0  0
  1 30  1  0  0  0  0
  3  4  1  6  0  0  0
  3  9  1  0  0  0  0
  3 39  1  0  0  0  0
  5 10  1  0  0  0  0
  5 26  1  0  0  0  0
  5 32  1  6  0  0  0
  6 12  1  0  0  0  0
  6 36  1  0  0  0  0
  6 19  1  1  0  0  0
  7  8  1  6  0  0  0
  7 14  1  0  0  0  0
  9 16  1  0  0  0  0
 10 11  1  1  0  0  0
 10 18  1  0  0  0  0
 12 13  1  1  0  0  0
 12 20  1  0  0  0  0
 14 15  1  1  0  0  0
 14 22  1  0  0  0  0
 16 17  1  6  0  0  0
 16 24  1  0  0  0  0
 18 19  1  1  0  0  0
 18 25  1  0  0  0  0
 20 21  1  6  0  0  0
 20 27  1  0  0  0  0
 22 23  1  1  0  0  0
 22 29  1  0  0  0  0
 24  2  1  1  0  0  0
 24 31  1  0  0  0  0
 25 26  1  0  0  0  0
 25 33  1  6  0  0  0
 27 28  1  1  0  0  0
 27 35  1  0  0  0  0
 29 30  1  0  0  0  0
 29 37  1  1  0  0  0
 31 32  1  6  0  0  0
 31 39  1  0  0  0  0
 33 34  1  0  0  0  0
 35 36  1  0  0  0  0
 35 41  1  1  0  0  0
 37 38  1  0  0  0  0
 39 40  1  1  0  0  0
 41 42  1  0  0  0  0
M  END
>  <CHROM.1>
178.08343886,167.25161145,-102.10521697,-37.90395750,22.18079662,-178.06410489
-162.39031627,108.46542085,152.29958129,-4.15775624,4.47743706,10.66936954
2.27736603,0.79124598,-2.32672731

>  <Name>
2o3w_lig

>  <RI>
0

>  <Rbt.Current_Directory>
/home/itssahil/PROJECTS/Mol_Feturizer/New_Systems/rnas/2o3w

>  <Rbt.Executable>
rbdock ($Id: //depot/dev/client3/rdock/2013.1/src/exe/rbdock.cxx#4 $)

>  <Rbt.Library>
libRbt.so (2013.1, Build901 2013/11/27)

>  <Rbt.Parameter_File>
/export/apps/rDock/src/rDock_2013.1_src/data/scripts/dock_solv.prm

>  <Rbt.Receptor>
prm/blind_docking_20.prm

>  <SCORE>
67.4431

>  <SCORE.INTER>
30.5215

>  <SCORE.INTER.CONST>
1

>  <SCORE.INTER.POLAR>
-0.359599

>  <SCORE.INTER.ROT>
9

>  <SCORE.INTER.SOLV>
26.4865

>  <SCORE.INTER.VDW>
3.11749

>  <SCORE.INTER.norm>
0.726702

>  <SCORE.INTRA>
4.1836

>  <SCORE.INTRA.DIHEDRAL>
-4.25128

>  <SCORE.INTRA.DIHEDRAL.0>
27.8999

>  <SCORE.INTRA.POLAR>
0

>  <SCORE.INTRA.POLAR.0>
0

>  <SCORE.INTRA.REPUL>
0.189052

>  <SCORE.INTRA.REPUL.0>
0

>  <SCORE.INTRA.SOLV>
2.89626

>  <SCORE.INTRA.SOLV.lig_0>
-104.479

>  <SCORE.INTRA.VDW>
3.91585

>  <SCORE.INTRA.VDW.0>
-6.17816

>  <SCORE.INTRA.norm>
0.0996095

>  <SCORE.RESTR>
32.7381

>  <SCORE.RESTR.CAVITY>
32.7381

>  <SCORE.RESTR.norm>
0.779478

>  <SCORE.SYSTEM>
0

>  <SCORE.SYSTEM.CONST>
0

>  <SCORE.SYSTEM.DIHEDRAL>
0

>  <SCORE.SYSTEM.SOLV>
0

>  <SCORE.SYSTEM.norm>
0

>  <SCORE.heavy>
42

>  <SCORE.norm>
1.60579

>  <RMSD>
15.595

$$$$
2o3w_lig
 OpenBabel11021811463D
libRbt.so/2013.1/901 2013/11/27
 42 45  0  0  0  0  0  0  0  0999 V2000
   -1.6538    4.1794   11.9931 C   0  0  2  0  0  0  0  0  0  0  0  0
   -3.0533    4.4881   11.8771 O   0  0  0  0  0  0  0  0  0  0  0  0
   -3.1573    8.6606   13.0499 C   0  0  2  0  0  0  0  0  0  0  0  0
   -3.5249   10.1041   13.1577 N   0  0  0  0  0  0  0  0  0  0  0  0
   -5.7235    4.6078   12.2035 C   0  0  1  0  0  0  0  0  0  0  0  0
   -5.6917    2.9494    9.7629 C   0  0  1  0  0  0  0  0  0  0  0  0
   -1.5276    2.6263   11.9780 C   0  0  2  0  0  0  0  0  0  0  0  0
   -2.2645    2.0117   10.8600 N   0  0  0  0  0  0  0  0  0  0  0  0
   -2.6033    8.3155   11.6091 C   0  0  0  0  0  0  0  0  0  0  0  0
   -5.8250    3.1054   12.6076 C   0  0  2  0  0  0  0  0  0  0  0  0
   -4.6098    2.3503   12.3790 O   0  0  0  0  0  0  0  0  0  0  0  0
   -6.2497    4.2907    9.1642 C   0  0  2  0  0  0  0  0  0  0  0  0
   -7.4281    4.0322    8.2836 N   0  0  0  0  0  0  0  0  0  0  0  0
   -2.0637    1.9839   13.2706 C   0  0  1  0  0  0  0  0  0  0  0  0
   -1.8920    0.5662   13.2297 O   0  0  0  0  0  0  0  0  0  0  0  0
   -2.2130    6.7896   11.5645 C   0  0  2  0  0  0  0  0  0  0  0  0
   -1.6732    6.4326   10.2248 N   0  0  0  0  0  0  0  0  0  0  0  0
   -7.0431    2.6613   11.7963 C   0  0  2  0  0  0  0  0  0  0  0  0
   -6.6578    2.1659   10.4746 O   0  0  0  0  0  0  0  0  0  0  0  0
   -5.0823    5.0364    8.3593 C   0  0  1  0  0  0  0  0  0  0  0  0
   -4.1466    5.5981    9.3069 O   0  0  0  0  0  0  0  0  0  0  0  0
   -1.3459    2.6044   14.4908 C   0  0  2  0  0  0  0  0  0  0  0  0
   -1.8136    2.0147   15.6816 O   0  0  0  0  0  0  0  0  0  0  0  0
   -3.4663    5.8844   11.8895 C   0  0  2  0  0  0  0  0  0  0  0  0
   -7.9524    3.8967   11.6850 C   0  0  2  0  0  0  0  0  0  0  0  0
   -7.0253    4.9797   11.6954 O   0  0  0  0  0  0  0  0  0  0  0  0
   -4.3046    4.0654    7.3495 C   0  0  2  0  0  0  0  0  0  0  0  0
   -5.2028    3.7361    6.2907 O   0  0  0  0  0  0  0  0  0  0  0  0
   -1.5997    4.1487   14.5016 C   0  0  2  0  0  0  0  0  0  0  0  0
   -1.1149    4.7356   13.2525 O   0  0  0  0  0  0  0  0  0  0  0  0
   -4.0969    6.2052   13.2623 C   0  0  2  0  0  0  0  0  0  0  0  0
   -5.3226    5.4243   13.3115 O   0  0  0  0  0  0  0  0  0  0  0  0
   -9.0027    4.0460   12.8290 C   0  0  0  0  0  0  0  0  0  0  0  0
   -9.8037    5.1983   12.5848 O   0  0  0  0  0  0  0  0  0  0  0  0
   -3.8313    2.7575    8.0897 C   0  0  1  0  0  0  0  0  0  0  0  0
   -5.0461    2.1447    8.6545 O   0  0  0  0  0  0  0  0  0  0  0  0
   -0.9254    4.8407   15.6635 C   0  0  0  0  0  0  0  0  0  0  0  0
   -1.8054    5.7663   16.2537 O   0  0  0  0  0  0  0  0  0  0  0  0
   -4.4132    7.7556   13.3723 C   0  0  1  0  0  0  0  0  0  0  0  0
   -4.8549    8.0765   14.6942 O   0  0  0  0  0  0  0  0  0  0  0  0
   -3.0773    1.7189    7.1509 C   0  0  0  0  0  0  0  0  0  0  0  0
   -2.0929    2.3080    6.2019 N   0  0  0  0  0  0  0  0  0  0  0  0
  1  2  1  1  0  0  0
  1  7  1  0  0  0  0
  1 30  1  0  0  0  0
  3  4  1  6  0  0  0
  3  9  1  0  0  0  0
  3 39  1  0  0  0  0
  5 10  1  0  0  0  0
  5 26  1  0  0  0  0
  5 32  1  1  0  0  0
  6 12  1  0  0  0  0
  6 36  1  0  0  0  0
  6 19  1  6  0  0  0
  7  8  1  6  0  0  0
  7 14  1  0  0  0  0
  9 16  1  0  0  0  0
 10 11  1  6  0  0  0
 10 18  1  0  0  0  0
 12 13  1  6  0  0  0
 12 20  1  0  0  0  0
 14 15  1  6  0  0  0
 14 22  1  0  0  0  0
 16 17  1  6  0  0  0
 16 24  1  0  0  0  0
 18 19  1  6  0  0  0
 18 25  1  0  0  0  0
 20 21  1  1  0  0  0
 20 27  1  0  0  0  0
 22 23  1  1  0  0  0
 22 29  1  0  0  0  0
 24  2  1  1  0  0  0
 24 31  1  0  0  0  0
 25 26  1  0  0  0  0
 25 33  1  1  0  0  0
 27 28  1  6  0  0  0
 27 35  1  0  0  0  0
 29 30  1  0  0  0  0
 29 37  1  1  0  0  0
 31 32  1  6  0  0  0
 31 39  1  0  0  0  0
 33 34  1  0  0  0  0
 35 36  1  0  0  0  0
 35 41  1  6  0  0  0
 37 38  1  0  0  0  0
 39 40  1  1  0  0  0
 41 42  1  0  0  0  0
M  END
>  <CHROM.1>
178.89520635,119.45880169,-74.20661822,-44.58559086,18.27475829,-178.12636942
-135.76860049,-1.48238576,42.76053708,-4.11714741,4.39537586,11.59756259
-1.05428914,0.46811283,-2.21955556

>  <Name>
2o3w_lig

>  <RI>
0

>  <Rbt.Current_Directory>
/home/itssahil/PROJECTS/Mol_Feturizer/New_Systems/rnas/2o3w

>  <Rbt.Executable>
rbdock ($Id: //depot/dev/client3/rdock/2013.1/src/exe/rbdock.cxx#4 $)

>  <Rbt.Library>
libRbt.so (2013.1, Build901 2013/11/27)

>  <Rbt.Parameter_File>
/export/apps/rDock/src/rDock_2013.1_src/data/scripts/dock_solv.prm

>  <Rbt.Receptor>
prm/blind_docking_20.prm

>  <SCORE>
47.6021

>  <SCORE.INTER>
8.91792

>  <SCORE.INTER.CONST>
1

>  <SCORE.INTER.POLAR>
0

>  <SCORE.INTER.ROT>
9

>  <SCORE.INTER.SOLV>
20.7142

>  <SCORE.INTER.VDW>
-10.5594

>  <SCORE.INTER.norm>
0.212331

>  <SCORE.INTRA>
9.02347

>  <SCORE.INTRA.DIHEDRAL>
-0.271609

>  <SCORE.INTRA.DIHEDRAL.0>
27.8999

>  <SCORE.INTRA.POLAR>
0

>  <SCORE.INTRA.POLAR.0>
0

>  <SCORE.INTRA.REPUL>
0

>  <SCORE.INTRA.REPUL.0>
0

>  <SCORE.INTRA.SOLV>
4.89269

>  <SCORE.INTRA.SOLV.lig_0>
-104.479

>  <SCORE.INTRA.VDW>
6.71293

>  <SCORE.INTRA.VDW.0>
-6.17816

>  <SCORE.INTRA.norm>
0.214844

>  <SCORE.RESTR>
29.6607

>  <SCORE.RESTR.CAVITY>
29.6607

>  <SCORE.RESTR.norm>
0.706206

>  <SCORE.SYSTEM>
0

>  <SCORE.SYSTEM.CONST>
0

>  <SCORE.SYSTEM.DIHEDRAL>
0

>  <SCORE.SYSTEM.SOLV>
0

>  <SCORE.SYSTEM.norm>
0

>  <SCORE.heavy>
42

>  <SCORE.norm>
1.13338

>  <RMSD>
15.614

$$$$
2o3w_lig
 OpenBabel11021811463D
libRbt.so/2013.1/901 2013/11/27
 42 45  0  0  0  0  0  0  0  0999 V2000
   -5.2531    2.1684    8.4108 C   0  0  2  0  0  0  0  0  0  0  0  0
   -4.6498    2.5711    9.6522 O   0  0  0  0  0  0  0  0  0  0  0  0
   -8.0843    4.6346   11.3082 C   0  0  2  0  0  0  0  0  0  0  0  0
   -8.9767    5.4281   12.2051 N   0  0  0  0  0  0  0  0  0  0  0  0
   -3.6571    5.5291   10.9834 C   0  0  1  0  0  0  0  0  0  0  0  0
   -1.6990    5.1392   13.2239 C   0  0  1  0  0  0  0  0  0  0  0  0
   -4.2103    1.2832    7.6642 C   0  0  2  0  0  0  0  0  0  0  0  0
   -3.6556    0.2212    8.5214 N   0  0  0  0  0  0  0  0  0  0  0  0
   -7.6401    3.2798   11.9929 C   0  0  0  0  0  0  0  0  0  0  0  0
   -2.4686    6.4883   10.6698 C   0  0  2  0  0  0  0  0  0  0  0  0
   -1.2909    5.8189   10.1560 O   0  0  0  0  0  0  0  0  0  0  0  0
   -2.4725    4.9929   14.5837 C   0  0  2  0  0  0  0  0  0  0  0  0
   -1.7033    5.6123   15.7043 N   0  0  0  0  0  0  0  0  0  0  0  0
   -3.0158    2.1024    7.1418 C   0  0  1  0  0  0  0  0  0  0  0  0
   -2.1071    1.2594    6.4315 O   0  0  0  0  0  0  0  0  0  0  0  0
   -6.7221    2.4797   10.9931 C   0  0  2  0  0  0  0  0  0  0  0  0
   -6.2966    1.1899   11.6006 N   0  0  0  0  0  0  0  0  0  0  0  0
   -2.2946    7.1953   12.0148 C   0  0  2  0  0  0  0  0  0  0  0  0
   -1.3499    6.4853   12.8776 O   0  0  0  0  0  0  0  0  0  0  0  0
   -2.7541    3.4414   14.8674 C   0  0  1  0  0  0  0  0  0  0  0  0
   -3.7978    2.9856   13.9776 O   0  0  0  0  0  0  0  0  0  0  0  0
   -3.5314    3.2546    6.2497 C   0  0  2  0  0  0  0  0  0  0  0  0
   -2.4487    4.0044    5.7497 O   0  0  0  0  0  0  0  0  0  0  0  0
   -5.4477    3.3291   10.6057 C   0  0  2  0  0  0  0  0  0  0  0  0
   -3.6946    7.2516   12.6491 C   0  0  2  0  0  0  0  0  0  0  0  0
   -4.3229    6.0752   12.1452 O   0  0  0  0  0  0  0  0  0  0  0  0
   -1.4513    2.5280   14.6778 C   0  0  2  0  0  0  0  0  0  0  0  0
   -0.5469    2.8422   15.7360 O   0  0  0  0  0  0  0  0  0  0  0  0
   -4.4905    4.1614    7.0907 C   0  0  2  0  0  0  0  0  0  0  0  0
   -5.5999    3.3592    7.6061 O   0  0  0  0  0  0  0  0  0  0  0  0
   -5.8059    4.6952    9.9806 C   0  0  2  0  0  0  0  0  0  0  0  0
   -4.5420    5.4044    9.8625 O   0  0  0  0  0  0  0  0  0  0  0  0
   -4.5250    8.5252   12.2990 C   0  0  0  0  0  0  0  0  0  0  0  0
   -5.7884    8.4576   12.9532 O   0  0  0  0  0  0  0  0  0  0  0  0
   -0.7754    2.8066   13.2822 C   0  0  1  0  0  0  0  0  0  0  0  0
   -0.4748    4.2485   13.2537 O   0  0  0  0  0  0  0  0  0  0  0  0
   -5.0492    5.3157    6.2912 C   0  0  0  0  0  0  0  0  0  0  0  0
   -6.1138    4.8758    5.4834 O   0  0  0  0  0  0  0  0  0  0  0  0
   -6.8075    5.4847   10.9236 C   0  0  1  0  0  0  0  0  0  0  0  0
   -7.2566    6.6788   10.2769 O   0  0  0  0  0  0  0  0  0  0  0  0
    0.5482    1.9640   13.0239 C   0  0  0  0  0  0  0  0  0  0  0  0
    0.3723    0.4860   12.9904 N   0  0  0  0  0  0  0  0  0  0  0  0
  1  2  1  1  0  0  0
  1  7  1  0  0  0  0
  1 30  1  0  0  0  0
  3  4  1  1  0  0  0
  3  9  1  0  0  0  0
  3 39  1  0  0  0  0
  5 10  1  0  0  0  0
  5 26  1  0  0  0  0
  5 32  1  6  0  0  0
  6 12  1  0  0  0  0
  6 36  1  0  0  0  0
  6 19  1  1  0  0  0
  7  8  1  1  0  0  0
  7 14  1  0  0  0  0
  9 16  1  0  0  0  0
 10 11  1  1  0  0  0
 10 18  1  0  0  0  0
 12 13  1  1  0  0  0
 12 20  1  0  0  0  0
 14 15  1  6  0  0  0
 14 22  1  0  0  0  0
 16 17  1  1  0  0  0
 16 24  1  0  0  0  0
 18 19  1  1  0  0  0
 18 25  1  0  0  0  0
 20 21  1  6  0  0  0
 20 27  1  0  0  0  0
 22 23  1  1  0  0  0
 22 29  1  0  0  0  0
 24  2  1  6  0  0  0
 24 31  1  0  0  0  0
 25 26  1  0  0  0  0
 25 33  1  6  0  0  0
 27 28  1  1  0  0  0
 27 35  1  0  0  0  0
 29 30  1  0  0  0  0
 29 37  1  6  0  0  0
 31 32  1  1  0  0  0
 31 39  1  0  0  0  0
 33 34  1  0  0  0  0
 35 36  1  0  0  0  0
 35 41  1  1  0  0  0
 37 38  1  0  0  0  0
 39 40  1  6  0  0  0
 41 42  1  0  0  0  0
M  END
>  <CHROM.1>
-175.31050464,-172.24873205,-93.79253202,-60.45504776,58.57489357,-179.57119384
79.45062411,-51.20160811,62.38055263,-3.83908879,4.21424769,10.88544157,-2.15329501
-0.60916001,1.07788408

>  <Name>
2o3w_lig

>  <RI>
0

>  <Rbt.Current_Directory>
/home/itssahil/PROJECTS/Mol_Feturizer/New_Systems/rnas/2o3w

>  <Rbt.Executable>
rbdock ($Id: //depot/dev/client3/rdock/2013.1/src/exe/rbdock.cxx#4 $)

>  <Rbt.Library>
libRbt.so (2013.1, Build901 2013/11/27)

>  <Rbt.Parameter_File>
/export/apps/rDock/src/rDock_2013.1_src/data/scripts/dock_solv.prm

>  <Rbt.Receptor>
prm/blind_docking_20.prm

>  <SCORE>
31.9405

>  <SCORE.INTER>
3.69763

>  <SCORE.INTER.CONST>
1

>  <SCORE.INTER.POLAR>
0

>  <SCORE.INTER.ROT>
9

>  <SCORE.INTER.SOLV>
19.8095

>  <SCORE.INTER.VDW>
-13.7381

>  <SCORE.INTER.norm>
0.0880388

>  <SCORE.INTRA>
-9.70354

>  <SCORE.INTRA.DIHEDRAL>
-21.4391

>  <SCORE.INTRA.DIHEDRAL.0>
27.8999

>  <SCORE.INTRA.POLAR>
0

>  <SCORE.INTRA.POLAR.0>
0

>  <SCORE.INTRA.REPUL>
0

>  <SCORE.INTRA.REPUL.0>
0

>  <SCORE.INTRA.SOLV>
-2.87711

>  <SCORE.INTRA.SOLV.lig_0>
-104.479

>  <SCORE.INTRA.VDW>
2.45457

>  <SCORE.INTRA.VDW.0>
-6.17816

>  <SCORE.INTRA.norm>
-0.231037

>  <SCORE.RESTR>
37.9464

>  <SCORE.RESTR.CAVITY>
37.9464

>  <SCORE.RESTR.norm>
0.903486

>  <SCORE.SYSTEM>
0

>  <SCORE.SYSTEM.CONST>
0

>  <SCORE.SYSTEM.DIHEDRAL>
0

>  <SCORE.SYSTEM.SOLV>
0

>  <SCORE.SYSTEM.norm>
0

>  <SCORE.heavy>
42

>  <SCORE.norm>
0.760488

>  <RMSD>
15.658

$$$$
2o3w_lig
 OpenBabel11021811463D
libRbt.so/2013.1/901 2013/11/27
 42 45  0  0  0  0  0  0  0  0999 V2000
   -5.0759    2.0085    9.2240 C   0  0  2  0  0  0  0  0  0  0  0  0
   -4.5868    2.9604   10.1842 O   0  0  0  0  0  0  0  0  0  0  0  0
   -8.2649    5.1557   10.8537 C   0  0  2  0  0  0  0  0  0  0  0  0
   -9.3005    6.0624   11.4332 N   0  0  0  0  0  0  0  0  0  0  0  0
   -3.6979    5.8722   11.0484 C   0  0  1  0  0  0  0  0  0  0  0  0
   -1.8562    5.4126   13.3848 C   0  0  1  0  0  0  0  0  0  0  0  0
   -3.9686    0.9258    9.0519 C   0  0  2  0  0  0  0  0  0  0  0  0
   -3.4899    0.3989   10.3418 N   0  0  0  0  0  0  0  0  0  0  0  0
   -7.9313    3.9627   11.8372 C   0  0  0  0  0  0  0  0  0  0  0  0
   -2.4900    6.8292   10.8119 C   0  0  2  0  0  0  0  0  0  0  0  0
   -1.2973    6.1642   10.3277 O   0  0  0  0  0  0  0  0  0  0  0  0
   -2.3905    5.2213   14.8500 C   0  0  2  0  0  0  0  0  0  0  0  0
   -1.3900    5.7013   15.8496 N   0  0  0  0  0  0  0  0  0  0  0  0
   -2.7342    1.4657    8.3065 C   0  0  1  0  0  0  0  0  0  0  0  0
   -1.7637    0.4312    8.1367 O   0  0  0  0  0  0  0  0  0  0  0  0
   -6.8533    3.0320   11.1633 C   0  0  2  0  0  0  0  0  0  0  0  0
   -6.5258    1.8884   12.0569 N   0  0  0  0  0  0  0  0  0  0  0  0
   -2.3662    7.4957   12.1830 C   0  0  2  0  0  0  0  0  0  0  0  0
   -1.4637    6.7527   13.0628 O   0  0  0  0  0  0  0  0  0  0  0  0
   -2.7445    3.6767   15.0862 C   0  0  1  0  0  0  0  0  0  0  0  0
   -3.9610    3.3617   14.3720 O   0  0  0  0  0  0  0  0  0  0  0  0
   -3.1710    2.0584    6.9474 C   0  0  2  0  0  0  0  0  0  0  0  0
   -2.0498    2.5421    6.2450 O   0  0  0  0  0  0  0  0  0  0  0  0
   -5.5384    3.8460   10.8404 C   0  0  2  0  0  0  0  0  0  0  0  0
   -3.7908    7.5464   12.7604 C   0  0  2  0  0  0  0  0  0  0  0  0
   -4.4069    6.3907   12.1972 O   0  0  0  0  0  0  0  0  0  0  0  0
   -1.5739    2.6907   14.6118 C   0  0  2  0  0  0  0  0  0  0  0  0
   -0.4765    2.8622   15.5078 O   0  0  0  0  0  0  0  0  0  0  0  0
   -4.2035    3.2072    7.1996 C   0  0  2  0  0  0  0  0  0  0  0  0
   -5.3524    2.6828    7.9377 O   0  0  0  0  0  0  0  0  0  0  0  0
   -5.7972    5.0640    9.9267 C   0  0  2  0  0  0  0  0  0  0  0  0
   -4.5366    5.7878    9.8888 O   0  0  0  0  0  0  0  0  0  0  0  0
   -4.5960    8.8370   12.4136 C   0  0  0  0  0  0  0  0  0  0  0  0
   -5.6601    8.9928   13.3476 O   0  0  0  0  0  0  0  0  0  0  0  0
   -1.1308    3.0230   13.1369 C   0  0  1  0  0  0  0  0  0  0  0  0
   -0.7226    4.4385   13.1414 O   0  0  0  0  0  0  0  0  0  0  0  0
   -4.6915    3.8422    5.9180 C   0  0  0  0  0  0  0  0  0  0  0  0
   -4.6489    5.2444    6.0247 O   0  0  0  0  0  0  0  0  0  0  0  0
   -6.9482    5.9709   10.5338 C   0  0  1  0  0  0  0  0  0  0  0  0
   -7.2917    7.0124    9.6159 O   0  0  0  0  0  0  0  0  0  0  0  0
    0.0541    2.1111   12.5956 C   0  0  0  0  0  0  0  0  0  0  0  0
   -0.3232    0.7181   12.2299 N   0  0  0  0  0  0  0  0  0  0  0  0
  1  2  1  1  0  0  0
  1  7  1  0  0  0  0
  1 30  1  0  0  0  0
  3  4  1  1  0  0  0
  3  9  1  0  0  0  0
  3 39  1  0  0  0  0
  5 10  1  0  0  0  0
  5 26  1  0  0  0  0
  5 32  1  6  0  0  0
  6 12  1  0  0  0  0
  6 36  1  0  0  0  0
  6 19  1  1  0  0  0
  7  8  1  1  0  0  0
  7 14  1  0  0  0  0
  9 16  1  0  0  0  0
 10 11  1  1  0  0  0
 10 18  1  0  0  0  0
 12 13  1  1  0  0  0
 12 20  1  0  0  0  0
 14 15  1  6  0  0  0
 14 22  1  0  0  0  0
 16 17  1  1  0  0  0
 16 24  1  0  0  0  0
 18 19  1  1  0  0  0
 18 25  1  0  0  0  0
 20 21  1  6  0  0  0
 20 27  1  0  0  0  0
 22 23  1  1  0  0  0
 22 29  1  0  0  0  0
 24  2  1  6  0  0  0
 24 31  1  0  0  0  0
 25 26  1  0  0  0  0
 25 33  1  6  0  0  0
 27 28  1  1  0  0  0
 27 35  1  0  0  0  0
 29 30  1  0  0  0  0
 29 37  1  6  0  0  0
 31 32  1  1  0  0  0
 31 39  1  0  0  0  0
 33 34  1  0  0  0  0
 35 36  1  0  0  0  0
 35 41  1  1  0  0  0
 37 38  1  0  0  0  0
 39 40  1  6  0  0  0
 41 42  1  0  0  0  0
M  END
>  <CHROM.1>
-161.75262379,-173.50148009,-106.30714389,-62.11094422,39.19376248,-159.66353534
-133.02648419,-36.40523478,74.91796547,-3.81250142,4.29779897,11.08925785
-2.07733696,-0.64976946,0.91995868

>  <Name>
2o3w_lig

>  <RI>
0

>  <Rbt.Current_Directory>
/home/itssahil/PROJECTS/Mol_Feturizer/New_Systems/rnas/2o3w

>  <Rbt.Executable>
rbdock ($Id: //depot/dev/client3/rdock/2013.1/src/exe/rbdock.cxx#4 $)

>  <Rbt.Library>
libRbt.so (2013.1, Build901 2013/11/27)

>  <Rbt.Parameter_File>
/export/apps/rDock/src/rDock_2013.1_src/data/scripts/dock_solv.prm

>  <Rbt.Receptor>
prm/blind_docking_20.prm

>  <SCORE>
38.8088

>  <SCORE.INTER>
5.81442

>  <SCORE.INTER.CONST>
1

>  <SCORE.INTER.POLAR>
0

>  <SCORE.INTER.ROT>
9

>  <SCORE.INTER.SOLV>
20.7593

>  <SCORE.INTER.VDW>
-12.6435

>  <SCORE.INTER.norm>
0.138439

>  <SCORE.INTRA>
-2.52665

>  <SCORE.INTRA.DIHEDRAL>
-8.68354

>  <SCORE.INTRA.DIHEDRAL.0>
27.8999

>  <SCORE.INTRA.POLAR>
0

>  <SCORE.INTRA.POLAR.0>
0

>  <SCORE.INTRA.REPUL>
0

>  <SCORE.INTRA.REPUL.0>
0

>  <SCORE.INTRA.SOLV>
-2.16417

>  <SCORE.INTRA.SOLV.lig_0>
-104.479

>  <SCORE.INTRA.VDW>
2.89721

>  <SCORE.INTRA.VDW.0>
-6.17816

>  <SCORE.INTRA.norm>
-0.0601583

>  <SCORE.RESTR>
35.521

>  <SCORE.RESTR.CAVITY>
35.521

>  <SCORE.RESTR.norm>
0.845739

>  <SCORE.SYSTEM>
0

>  <SCORE.SYSTEM.CONST>
0

>  <SCORE.SYSTEM.DIHEDRAL>
0

>  <SCORE.SYSTEM.SOLV>
0

>  <SCORE.SYSTEM.norm>
0

>  <SCORE.heavy>
42

>  <SCORE.norm>
0.924019

>  <RMSD>
15.660

$$$$
2o3w_lig
 OpenBabel11021811463D
libRbt.so/2013.1/901 2013/11/27
 42 45  0  0  0  0  0  0  0  0999 V2000
   -3.4018    4.8849   14.4065 C   0  0  2  0  0  0  0  0  0  0  0  0
   -3.2080    6.2529   14.0086 O   0  0  0  0  0  0  0  0  0  0  0  0
   -4.3013    8.7990   10.6742 C   0  0  2  0  0  0  0  0  0  0  0  0
   -4.6608    9.2876    9.3095 N   0  0  0  0  0  0  0  0  0  0  0  0
   -5.7240    4.7751   11.9963 C   0  0  1  0  0  0  0  0  0  0  0  0
   -5.2134    2.1531    9.4390 C   0  0  1  0  0  0  0  0  0  0  0  0
   -2.1210    4.4503   15.1804 C   0  0  2  0  0  0  0  0  0  0  0  0
   -1.7432    5.4121   16.2305 N   0  0  0  0  0  0  0  0  0  0  0  0
   -2.8279    8.2248   10.7086 C   0  0  0  0  0  0  0  0  0  0  0  0
   -7.1311    4.4040   11.4366 C   0  0  2  0  0  0  0  0  0  0  0  0
   -7.8467    3.4324   12.2385 O   0  0  0  0  0  0  0  0  0  0  0  0
   -4.9992    2.4854    7.9183 C   0  0  2  0  0  0  0  0  0  0  0  0
   -6.0712    1.8683    7.0812 N   0  0  0  0  0  0  0  0  0  0  0  0
   -0.9005    4.3016   14.2534 C   0  0  1  0  0  0  0  0  0  0  0  0
    0.2384    3.8645   14.9969 O   0  0  0  0  0  0  0  0  0  0  0  0
   -2.5002    7.7476   12.1741 C   0  0  2  0  0  0  0  0  0  0  0  0
   -1.1134    7.2136   12.2464 N   0  0  0  0  0  0  0  0  0  0  0  0
   -6.7780    3.9593   10.0164 C   0  0  2  0  0  0  0  0  0  0  0  0
   -6.4972    2.5246    9.9561 O   0  0  0  0  0  0  0  0  0  0  0  0
   -3.5496    1.9755    7.4648 C   0  0  1  0  0  0  0  0  0  0  0  0
   -2.5490    2.8584    8.0197 O   0  0  0  0  0  0  0  0  0  0  0  0
   -1.2387    3.3190   13.1092 C   0  0  2  0  0  0  0  0  0  0  0  0
   -0.1255    3.1589   12.2608 O   0  0  0  0  0  0  0  0  0  0  0  0
   -3.5214    6.6355   12.6391 C   0  0  2  0  0  0  0  0  0  0  0  0
   -5.5474    4.7856    9.6065 C   0  0  2  0  0  0  0  0  0  0  0  0
   -4.8766    4.9993   10.8462 O   0  0  0  0  0  0  0  0  0  0  0  0
   -3.2487    0.4696    7.9223 C   0  0  2  0  0  0  0  0  0  0  0  0
   -4.0947   -0.3898    7.1593 O   0  0  0  0  0  0  0  0  0  0  0  0
   -2.4679    3.8682   12.3112 C   0  0  2  0  0  0  0  0  0  0  0  0
   -3.6064    4.0346   13.2145 O   0  0  0  0  0  0  0  0  0  0  0  0
   -4.9905    7.1080   12.5775 C   0  0  2  0  0  0  0  0  0  0  0  0
   -5.7851    5.9220   12.8541 O   0  0  0  0  0  0  0  0  0  0  0  0
   -5.8691    6.1399    8.9017 C   0  0  0  0  0  0  0  0  0  0  0  0
   -4.7046    6.6079    8.2280 O   0  0  0  0  0  0  0  0  0  0  0  0
   -3.5335    0.2889    9.4613 C   0  0  1  0  0  0  0  0  0  0  0  0
   -4.9386    0.6814    9.6663 O   0  0  0  0  0  0  0  0  0  0  0  0
   -2.8734    2.9621   11.1718 C   0  0  0  0  0  0  0  0  0  0  0  0
   -3.0717    3.7153   10.0002 O   0  0  0  0  0  0  0  0  0  0  0  0
   -5.3222    7.6837   11.1373 C   0  0  1  0  0  0  0  0  0  0  0  0
   -6.6318    8.2584   11.1252 O   0  0  0  0  0  0  0  0  0  0  0  0
   -3.2923   -1.1894    9.9953 C   0  0  0  0  0  0  0  0  0  0  0  0
   -4.0155   -2.2636    9.2608 N   0  0  0  0  0  0  0  0  0  0  0  0
  1  2  1  6  0  0  0
  1  7  1  0  0  0  0
  1 30  1  0  0  0  0
  3  4  1  6  0  0  0
  3  9  1  0  0  0  0
  3 39  1  0  0  0  0
  5 10  1  0  0  0  0
  5 26  1  0  0  0  0
  5 32  1  1  0  0  0
  6 12  1  0  0  0  0
  6 36  1  0  0  0  0
  6 19  1  6  0  0  0
  7  8  1  1  0  0  0
  7 14  1  0  0  0  0
  9 16  1  0  0  0  0
 10 11  1  1  0  0  0
 10 18  1  0  0  0  0
 12 13  1  6  0  0  0
 12 20  1  0  0  0  0
 14 15  1  1  0  0  0
 14 22  1  0  0  0  0
 16 17  1  6  0  0  0
 16 24  1  0  0  0  0
 18 19  1  1  0  0  0
 18 25  1  0  0  0  0
 20 21  1  1  0  0  0
 20 27  1  0  0  0  0
 22 23  1  6  0  0  0
 22 29  1  0  0  0  0
 24  2  1  1  0  0  0
 24 31  1  0  0  0  0
 25 26  1  0  0  0  0
 25 33  1  1  0  0  0
 27 28  1  6  0  0  0
 27 35  1  0  0  0  0
 29 30  1  0  0  0  0
 29 37  1  6  0  0  0
 31 32  1  6  0  0  0
 31 39  1  0  0  0  0
 33 34  1  0  0  0  0
 35 36  1  0  0  0  0
 35 41  1  6  0  0  0
 37 38  1  0  0  0  0
 39 40  1  1  0  0  0
 41 42  1  0  0  0  0
M  END
>  <CHROM.1>
133.46813955,-122.64051970,-66.52633879,-123.04044733,-145.41186235,-162.77952823
-132.97207755,-61.31216685,-53.76293111,-3.97327543,4.21304869,11.02223702
-1.33797877,0.81226341,-2.68506271

>  <Name>
2o3w_lig

>  <RI>
0

>  <Rbt.Current_Directory>
/home/itssahil/PROJECTS/Mol_Feturizer/New_Systems/rnas/2o3w

>  <Rbt.Executable>
rbdock ($Id: //depot/dev/client3/rdock/2013.1/src/exe/rbdock.cxx#4 $)

>  <Rbt.Library>
libRbt.so (2013.1, Build901 2013/11/27)

>  <Rbt.Parameter_File>
/export/apps/rDock/src/rDock_2013.1_src/data/scripts/dock_solv.prm

>  <Rbt.Receptor>
prm/blind_docking_20.prm

>  <SCORE>
64.0738

>  <SCORE.INTER>
12.0375

>  <SCORE.INTER.CONST>
1

>  <SCORE.INTER.POLAR>
-1.01186

>  <SCORE.INTER.ROT>
9

>  <SCORE.INTER.SOLV>
26.9755

>  <SCORE.INTER.VDW>
-7.19401

>  <SCORE.INTER.norm>
0.286606

>  <SCORE.INTRA>
16.1481

>  <SCORE.INTRA.DIHEDRAL>
3.30963

>  <SCORE.INTRA.DIHEDRAL.0>
27.8999

>  <SCORE.INTRA.POLAR>
0

>  <SCORE.INTRA.POLAR.0>
0

>  <SCORE.INTRA.REPUL>
0

>  <SCORE.INTRA.REPUL.0>
0

>  <SCORE.INTRA.SOLV>
5.19307

>  <SCORE.INTRA.SOLV.lig_0>
-104.479

>  <SCORE.INTRA.VDW>
11.8967

>  <SCORE.INTRA.VDW.0>
-6.17816

>  <SCORE.INTRA.norm>
0.384478

>  <SCORE.RESTR>
35.8882

>  <SCORE.RESTR.CAVITY>
35.8882

>  <SCORE.RESTR.norm>
0.854482

>  <SCORE.SYSTEM>
0

>  <SCORE.SYSTEM.CONST>
0

>  <SCORE.SYSTEM.DIHEDRAL>
0

>  <SCORE.SYSTEM.SOLV>
0

>  <SCORE.SYSTEM.norm>
0

>  <SCORE.heavy>
42

>  <SCORE.norm>
1.52557

>  <RMSD>
15.670

$$$$
2o3w_lig
 OpenBabel11021811463D
libRbt.so/2013.1/901 2013/11/27
 42 45  0  0  0  0  0  0  0  0999 V2000
   -1.7450    4.1980   12.0477 C   0  0  2  0  0  0  0  0  0  0  0  0
   -3.1447    4.5234   12.0014 O   0  0  0  0  0  0  0  0  0  0  0  0
   -3.2467    8.7278   13.0544 C   0  0  2  0  0  0  0  0  0  0  0  0
   -3.5980   10.1785   13.1042 N   0  0  0  0  0  0  0  0  0  0  0  0
   -5.8567    4.7374   12.1609 C   0  0  1  0  0  0  0  0  0  0  0  0
   -5.8158    3.0722    9.7225 C   0  0  1  0  0  0  0  0  0  0  0  0
   -1.6329    2.6500   11.9083 C   0  0  2  0  0  0  0  0  0  0  0  0
   -2.4104    2.1286   10.7707 N   0  0  0  0  0  0  0  0  0  0  0  0
   -2.6252    8.3355   11.6538 C   0  0  0  0  0  0  0  0  0  0  0  0
   -6.1314    3.2572   12.5665 C   0  0  2  0  0  0  0  0  0  0  0  0
   -4.9785    2.3885   12.4423 O   0  0  0  0  0  0  0  0  0  0  0  0
   -6.2624    4.3826    8.9794 C   0  0  2  0  0  0  0  0  0  0  0  0
   -7.3524    4.0950    7.9995 N   0  0  0  0  0  0  0  0  0  0  0  0
   -2.1330    1.9125   13.1641 C   0  0  1  0  0  0  0  0  0  0  0  0
   -1.9751    0.5013   13.0080 O   0  0  0  0  0  0  0  0  0  0  0  0
   -2.2556    6.8040   11.6705 C   0  0  2  0  0  0  0  0  0  0  0  0
   -1.6536    6.4028   10.3704 N   0  0  0  0  0  0  0  0  0  0  0  0
   -7.3174    2.9169   11.6627 C   0  0  2  0  0  0  0  0  0  0  0  0
   -6.8765    2.3679   10.3802 O   0  0  0  0  0  0  0  0  0  0  0  0
   -4.9933    5.0371    8.2528 C   0  0  1  0  0  0  0  0  0  0  0  0
   -4.1410    5.6385    9.2532 O   0  0  0  0  0  0  0  0  0  0  0  0
   -1.3714    2.4319   14.4047 C   0  0  2  0  0  0  0  0  0  0  0  0
   -1.8060    1.7545   15.5609 O   0  0  0  0  0  0  0  0  0  0  0  0
   -3.5371    5.9249   11.9550 C   0  0  2  0  0  0  0  0  0  0  0  0
   -8.0943    4.2301   11.4693 C   0  0  2  0  0  0  0  0  0  0  0  0
   -7.0729    5.2217   11.5466 O   0  0  0  0  0  0  0  0  0  0  0  0
   -4.1502    3.9760    7.3980 C   0  0  2  0  0  0  0  0  0  0  0  0
   -4.9458    3.5974    6.2754 O   0  0  0  0  0  0  0  0  0  0  0  0
   -1.6112    3.9723   14.5432 C   0  0  2  0  0  0  0  0  0  0  0  0
   -1.1614    4.6514   13.3282 O   0  0  0  0  0  0  0  0  0  0  0  0
   -4.2321    6.2920   13.2844 C   0  0  2  0  0  0  0  0  0  0  0  0
   -5.4701    5.5293   13.2916 O   0  0  0  0  0  0  0  0  0  0  0  0
   -9.2137    4.4940   12.5236 C   0  0  0  0  0  0  0  0  0  0  0  0
   -8.7528    4.0915   13.8098 O   0  0  0  0  0  0  0  0  0  0  0  0
   -3.8012    2.7113    8.2703 C   0  0  1  0  0  0  0  0  0  0  0  0
   -5.0881    2.1736    8.7447 O   0  0  0  0  0  0  0  0  0  0  0  0
   -0.8942    4.5678   15.7327 C   0  0  0  0  0  0  0  0  0  0  0  0
   -1.3958    5.8532   16.0076 O   0  0  0  0  0  0  0  0  0  0  0  0
   -4.5307    7.8489   13.3361 C   0  0  1  0  0  0  0  0  0  0  0  0
   -5.0344    8.2122   14.6245 O   0  0  0  0  0  0  0  0  0  0  0  0
   -2.9913    1.5884    7.4880 C   0  0  0  0  0  0  0  0  0  0  0  0
   -2.4444    0.4879    8.3284 N   0  0  0  0  0  0  0  0  0  0  0  0
  1  2  1  1  0  0  0
  1  7  1  0  0  0  0
  1 30  1  0  0  0  0
  3  4  1  6  0  0  0
  3  9  1  0  0  0  0
  3 39  1  0  0  0  0
  5 10  1  0  0  0  0
  5 26  1  0  0  0  0
  5 32  1  1  0  0  0
  6 12  1  0  0  0  0
  6 36  1  0  0  0  0
  6 19  1  6  0  0  0
  7  8  1  6  0  0  0
  7 14  1  0  0  0  0
  9 16  1  0  0  0  0
 10 11  1  6  0  0  0
 10 18  1  0  0  0  0
 12 13  1  6  0  0  0
 12 20  1  0  0  0  0
 14 15  1  6  0  0  0
 14 22  1  0  0  0  0
 16 17  1  6  0  0  0
 16 24  1  0  0  0  0
 18 19  1  6  0  0  0
 18 25  1  0  0  0  0
 20 21  1  1  0  0  0
 20 27  1  0  0  0  0
 22 23  1  1  0  0  0
 22 29  1  0  0  0  0
 24  2  1  1  0  0  0
 24 31  1  0  0  0  0
 25 26  1  0  0  0  0
 25 33  1  1  0  0  0
 27 28  1  6  0  0  0
 27 35  1  0  0  0  0
 29 30  1  0  0  0  0
 29 37  1  1  0  0  0
 31 32  1  6  0  0  0
 31 39  1  0  0  0  0
 33 34  1  0  0  0  0
 35 36  1  0  0  0  0
 35 41  1  6  0  0  0
 37 38  1  0  0  0  0
 39 40  1  1  0  0  0
 41 42  1  0  0  0  0
M  END
>  <CHROM.1>
-172.98985854,125.26153806,-78.13961049,-46.51943383,11.43973930,39.78734318
-165.40997932,-4.45832567,170.06523068,-4.14965206,4.35870225,11.64822251
-1.00554589,0.57704731,-2.37286124

>  <Name>
2o3w_lig

>  <RI>
0

>  <Rbt.Current_Directory>
/home/itssahil/PROJECTS/Mol_Feturizer/New_Systems/rnas/2o3w

>  <Rbt.Executable>
rbdock ($Id: //depot/dev/client3/rdock/2013.1/src/exe/rbdock.cxx#4 $)

>  <Rbt.Library>
libRbt.so (2013.1, Build901 2013/11/27)

>  <Rbt.Parameter_File>
/export/apps/rDock/src/rDock_2013.1_src/data/scripts/dock_solv.prm

>  <Rbt.Receptor>
prm/blind_docking_20.prm

>  <SCORE>
42.0532

>  <SCORE.INTER>
4.22008

>  <SCORE.INTER.CONST>
1

>  <SCORE.INTER.POLAR>
0

>  <SCORE.INTER.ROT>
9

>  <SCORE.INTER.SOLV>
19.8184

>  <SCORE.INTER.VDW>
-13.3928

>  <SCORE.INTER.norm>
0.100478

>  <SCORE.INTRA>
8.11553

>  <SCORE.INTRA.DIHEDRAL>
-2.07135

>  <SCORE.INTRA.DIHEDRAL.0>
27.8999

>  <SCORE.INTRA.POLAR>
0

>  <SCORE.INTRA.POLAR.0>
0

>  <SCORE.INTRA.REPUL>
0

>  <SCORE.INTRA.REPUL.0>
0

>  <SCORE.INTRA.SOLV>
6.39055

>  <SCORE.INTRA.SOLV.lig_0>
-104.479

>  <SCORE.INTRA.VDW>
5.95593

>  <SCORE.INTRA.VDW.0>
-6.17816

>  <SCORE.INTRA.norm>
0.193227

>  <SCORE.RESTR>
29.7176

>  <SCORE.RESTR.CAVITY>
29.7176

>  <SCORE.RESTR.norm>
0.707562

>  <SCORE.SYSTEM>
0

>  <SCORE.SYSTEM.CONST>
0

>  <SCORE.SYSTEM.DIHEDRAL>
0

>  <SCORE.SYSTEM.SOLV>
0

>  <SCORE.SYSTEM.norm>
0

>  <SCORE.heavy>
42

>  <SCORE.norm>
1.00127

>  <RMSD>
15.674

$$$$
2o3w_lig
 OpenBabel11021811463D
libRbt.so/2013.1/901 2013/11/27
 42 45  0  0  0  0  0  0  0  0999 V2000
   -3.0202    5.0103   13.9559 C   0  0  2  0  0  0  0  0  0  0  0  0
   -2.5390    6.2395   13.3861 O   0  0  0  0  0  0  0  0  0  0  0  0
   -5.5177    9.3559   12.9263 C   0  0  2  0  0  0  0  0  0  0  0  0
   -6.5294   10.2888   12.3461 N   0  0  0  0  0  0  0  0  0  0  0  0
   -5.1489    5.1585   11.3614 C   0  0  1  0  0  0  0  0  0  0  0  0
   -4.9656    3.9859    8.4802 C   0  0  1  0  0  0  0  0  0  0  0  0
   -1.9378    4.5220   14.9649 C   0  0  2  0  0  0  0  0  0  0  0  0
   -1.5193    5.5814   15.8993 N   0  0  0  0  0  0  0  0  0  0  0  0
   -4.0812    9.6164   12.3177 C   0  0  0  0  0  0  0  0  0  0  0  0
   -6.1248    6.0534   10.5383 C   0  0  2  0  0  0  0  0  0  0  0  0
   -7.4366    5.4702   10.3433 O   0  0  0  0  0  0  0  0  0  0  0  0
   -4.6714    3.1648    7.1733 C   0  0  2  0  0  0  0  0  0  0  0  0
   -5.9136    2.9895    6.3625 N   0  0  0  0  0  0  0  0  0  0  0  0
   -0.6637    4.0229   14.2589 C   0  0  1  0  0  0  0  0  0  0  0  0
    0.2832    3.5491   15.2180 O   0  0  0  0  0  0  0  0  0  0  0  0
   -3.0571    8.6207   12.9827 C   0  0  2  0  0  0  0  0  0  0  0  0
   -1.6894    8.8480   12.4429 N   0  0  0  0  0  0  0  0  0  0  0  0
   -5.3094    6.2898    9.2661 C   0  0  2  0  0  0  0  0  0  0  0  0
   -5.5756    5.2634    8.2579 O   0  0  0  0  0  0  0  0  0  0  0  0
   -4.0388    1.7474    7.5705 C   0  0  1  0  0  0  0  0  0  0  0  0
   -2.6759    1.9500    8.0071 O   0  0  0  0  0  0  0  0  0  0  0  0
   -1.0362    2.9205   13.2415 C   0  0  2  0  0  0  0  0  0  0  0  0
    0.1218    2.4410   12.5983 O   0  0  0  0  0  0  0  0  0  0  0  0
   -3.4874    7.1230   12.7226 C   0  0  2  0  0  0  0  0  0  0  0  0
   -3.8337    6.2761    9.6990 C   0  0  2  0  0  0  0  0  0  0  0  0
   -3.8320    5.3770   10.8054 O   0  0  0  0  0  0  0  0  0  0  0  0
   -4.8644    0.9983    8.7214 C   0  0  2  0  0  0  0  0  0  0  0  0
   -6.1142    0.5955    8.1626 O   0  0  0  0  0  0  0  0  0  0  0  0
   -2.0449    3.5079   12.1988 C   0  0  2  0  0  0  0  0  0  0  0  0
   -3.2329    4.0072   12.8909 O   0  0  0  0  0  0  0  0  0  0  0  0
   -4.9077    6.8092   13.2417 C   0  0  2  0  0  0  0  0  0  0  0  0
   -5.2033    5.4695   12.7598 O   0  0  0  0  0  0  0  0  0  0  0  0
   -3.2539    7.6666   10.1049 C   0  0  0  0  0  0  0  0  0  0  0  0
   -1.8688    7.5287   10.4071 O   0  0  0  0  0  0  0  0  0  0  0  0
   -5.0999    1.9562    9.9499 C   0  0  1  0  0  0  0  0  0  0  0  0
   -5.7993    3.1388    9.4185 O   0  0  0  0  0  0  0  0  0  0  0  0
   -2.4700    2.4913   11.1646 C   0  0  0  0  0  0  0  0  0  0  0  0
   -3.1324    1.4163   11.7849 O   0  0  0  0  0  0  0  0  0  0  0  0
   -5.9479    7.8572   12.6625 C   0  0  1  0  0  0  0  0  0  0  0  0
   -7.2321    7.6599   13.2605 O   0  0  0  0  0  0  0  0  0  0  0  0
   -5.9434    1.3023   11.1287 C   0  0  0  0  0  0  0  0  0  0  0  0
   -6.3640    2.2342   12.2110 N   0  0  0  0  0  0  0  0  0  0  0  0
  1  2  1  6  0  0  0
  1  7  1  0  0  0  0
  1 30  1  0  0  0  0
  3  4  1  6  0  0  0
  3  9  1  0  0  0  0
  3 39  1  0  0  0  0
  5 10  1  0  0  0  0
  5 26  1  0  0  0  0
  5 32  1  1  0  0  0
  6 12  1  0  0  0  0
  6 36  1  0  0  0  0
  6 19  1  6  0  0  0
  7  8  1  1  0  0  0
  7 14  1  0  0  0  0
  9 16  1  0  0  0  0
 10 11  1  6  0  0  0
 10 18  1  0  0  0  0
 12 13  1  1  0  0  0
 12 20  1  0  0  0  0
 14 15  1  1  0  0  0
 14 22  1  0  0  0  0
 16 17  1  6  0  0  0
 16 24  1  0  0  0  0
 18 19  1  6  0  0  0
 18 25  1  0  0  0  0
 20 21  1  1  0  0  0
 20 27  1  0  0  0  0
 22 23  1  6  0  0  0
 22 29  1  0  0  0  0
 24  2  1  1  0  0  0
 24 31  1  0  0  0  0
 25 26  1  0  0  0  0
 25 33  1  1  0  0  0
 27 28  1  6  0  0  0
 27 35  1  0  0  0  0
 29 30  1  0  0  0  0
 29 37  1  6  0  0  0
 31 32  1  6  0  0  0
 31 39  1  0  0  0  0
 33 34  1  0  0  0  0
 35 36  1  0  0  0  0
 35 41  1  1  0  0  0
 37 38  1  0  0  0  0
 39 40  1  1  0  0  0
 41 42  1  0  0  0  0
M  END
>  <CHROM.1>
-161.94761676,-58.57367440,-152.23110604,-75.99236125,145.17494094,-176.65024931
61.78219796,-56.68689677,-171.04042122,-3.98710991,4.88446910,11.35578495
-1.25682650,0.75824099,-2.63092958

>  <Name>
2o3w_lig

>  <RI>
0

>  <Rbt.Current_Directory>
/home/itssahil/PROJECTS/Mol_Feturizer/New_Systems/rnas/2o3w

>  <Rbt.Executable>
rbdock ($Id: //depot/dev/client3/rdock/2013.1/src/exe/rbdock.cxx#4 $)

>  <Rbt.Library>
libRbt.so (2013.1, Build901 2013/11/27)

>  <Rbt.Parameter_File>
/export/apps/rDock/src/rDock_2013.1_src/data/scripts/dock_solv.prm

>  <Rbt.Receptor>
prm/blind_docking_20.prm

>  <SCORE>
35.6499

>  <SCORE.INTER>
-4.76067

>  <SCORE.INTER.CONST>
1

>  <SCORE.INTER.POLAR>
-2.50858

>  <SCORE.INTER.ROT>
9

>  <SCORE.INTER.SOLV>
26.9009

>  <SCORE.INTER.VDW>
-13.3788

>  <SCORE.INTER.norm>
-0.113349

>  <SCORE.INTRA>
6.71404

>  <SCORE.INTRA.DIHEDRAL>
-17.0857

>  <SCORE.INTRA.DIHEDRAL.0>
27.8999

>  <SCORE.INTRA.POLAR>
0

>  <SCORE.INTRA.POLAR.0>
0

>  <SCORE.INTRA.REPUL>
0.0841366

>  <SCORE.INTRA.REPUL.0>
0

>  <SCORE.INTRA.SOLV>
4.70943

>  <SCORE.INTRA.SOLV.lig_0>
-104.479

>  <SCORE.INTRA.VDW>
12.4815

>  <SCORE.INTRA.VDW.0>
-6.17816

>  <SCORE.INTRA.norm>
0.159858

>  <SCORE.RESTR>
33.6965

>  <SCORE.RESTR.CAVITY>
33.6965

>  <SCORE.RESTR.norm>
0.802297

>  <SCORE.SYSTEM>
0

>  <SCORE.SYSTEM.CONST>
0

>  <SCORE.SYSTEM.DIHEDRAL>
0

>  <SCORE.SYSTEM.SOLV>
0

>  <SCORE.SYSTEM.norm>
0

>  <SCORE.heavy>
42

>  <SCORE.norm>
0.848806

>  <RMSD>
15.687

$$$$
2o3w_lig
 OpenBabel11021811463D
libRbt.so/2013.1/901 2013/11/27
 42 45  0  0  0  0  0  0  0  0999 V2000
   -5.1238    1.8342    9.3012 C   0  0  2  0  0  0  0  0  0  0  0  0
   -4.6364    2.7047   10.3365 O   0  0  0  0  0  0  0  0  0  0  0  0
   -8.1999    5.1329   10.7858 C   0  0  2  0  0  0  0  0  0  0  0  0
   -9.1878    6.1410   11.2737 N   0  0  0  0  0  0  0  0  0  0  0  0
   -3.5719    5.5754   10.9019 C   0  0  1  0  0  0  0  0  0  0  0  0
   -1.7422    5.1284   13.2581 C   0  0  1  0  0  0  0  0  0  0  0  0
   -3.8892    1.0805    8.7217 C   0  0  2  0  0  0  0  0  0  0  0  0
   -3.0525    0.4769    9.7735 N   0  0  0  0  0  0  0  0  0  0  0  0
   -7.9224    4.0249   11.8800 C   0  0  0  0  0  0  0  0  0  0  0  0
   -2.2643    6.3489   10.5518 C   0  0  2  0  0  0  0  0  0  0  0  0
   -1.1756    5.4985   10.1151 O   0  0  0  0  0  0  0  0  0  0  0  0
   -2.4048    5.2143   14.6801 C   0  0  2  0  0  0  0  0  0  0  0  0
   -1.4402    5.7503   15.6867 N   0  0  0  0  0  0  0  0  0  0  0  0
   -2.9724    2.0056    7.9004 C   0  0  1  0  0  0  0  0  0  0  0  0
   -1.8777    1.2660    7.3568 O   0  0  0  0  0  0  0  0  0  0  0  0
   -6.8936    2.9817   11.3004 C   0  0  2  0  0  0  0  0  0  0  0  0
   -6.6200    1.9145   12.3003 N   0  0  0  0  0  0  0  0  0  0  0  0
   -2.0209    7.1230   11.8482 C   0  0  2  0  0  0  0  0  0  0  0  0
   -1.1899    6.3618   12.7814 O   0  0  0  0  0  0  0  0  0  0  0  0
   -2.9334    3.7629   15.1056 C   0  0  1  0  0  0  0  0  0  0  0  0
   -4.1171    3.4528   14.3365 O   0  0  0  0  0  0  0  0  0  0  0  0
   -3.7966    2.6933    6.7883 C   0  0  2  0  0  0  0  0  0  0  0  0
   -2.9680    3.5313    6.0165 O   0  0  0  0  0  0  0  0  0  0  0  0
   -5.5412    3.6951   10.9029 C   0  0  2  0  0  0  0  0  0  0  0  0
   -3.4114    7.4042   12.4422 C   0  0  2  0  0  0  0  0  0  0  0  0
   -4.1791    6.2849   12.0060 O   0  0  0  0  0  0  0  0  0  0  0  0
   -1.8377    2.6139   14.8897 C   0  0  2  0  0  0  0  0  0  0  0  0
   -0.8009    2.8216   15.8479 O   0  0  0  0  0  0  0  0  0  0  0  0
   -4.9554    3.5147    7.4455 C   0  0  2  0  0  0  0  0  0  0  0  0
   -5.7950    2.6255    8.2481 O   0  0  0  0  0  0  0  0  0  0  0  0
   -5.7426    4.8310    9.8760 C   0  0  2  0  0  0  0  0  0  0  0  0
   -4.4480    5.4847    9.7708 O   0  0  0  0  0  0  0  0  0  0  0  0
   -4.0639    8.7452   11.9838 C   0  0  0  0  0  0  0  0  0  0  0  0
   -3.3170    9.8367   12.5127 O   0  0  0  0  0  0  0  0  0  0  0  0
   -1.2502    2.6735   13.4291 C   0  0  1  0  0  0  0  0  0  0  0  0
   -0.6998    4.0300   13.2645 O   0  0  0  0  0  0  0  0  0  0  0  0
   -5.8203    4.2186    6.4255 C   0  0  0  0  0  0  0  0  0  0  0  0
   -6.6262    5.1838    7.0565 O   0  0  0  0  0  0  0  0  0  0  0  0
   -6.8456    5.8476   10.3913 C   0  0  1  0  0  0  0  0  0  0  0  0
   -7.1402    6.8119    9.3768 O   0  0  0  0  0  0  0  0  0  0  0  0
   -0.1275    1.5857   13.1377 C   0  0  0  0  0  0  0  0  0  0  0  0
    0.0143    1.1746   11.7138 N   0  0  0  0  0  0  0  0  0  0  0  0
  1  2  1  1  0  0  0
  1  7  1  0  0  0  0
  1 30  1  0  0  0  0
  3  4  1  1  0  0  0
  3  9  1  0  0  0  0
  3 39  1  0  0  0  0
  5 10  1  0  0  0  0
  5 26  1  0  0  0  0
  5 32  1  6  0  0  0
  6 12  1  0  0  0  0
  6 36  1  0  0  0  0
  6 19  1  1  0  0  0
  7  8  1  1  0  0  0
  7 14  1  0  0  0  0
  9 16  1  0  0  0  0
 10 11  1  1  0  0  0
 10 18  1  0  0  0  0
 12 13  1  1  0  0  0
 12 20  1  0  0  0  0
 14 15  1  6  0  0  0
 14 22  1  0  0  0  0
 16 17  1  1  0  0  0
 16 24  1  0  0  0  0
 18 19  1  1  0  0  0
 18 25  1  0  0  0  0
 20 21  1  6  0  0  0
 20 27  1  0  0  0  0
 22 23  1  1  0  0  0
 22 29  1  0  0  0  0
 24  2  1  6  0  0  0
 24 31  1  0  0  0  0
 25 26  1  0  0  0  0
 25 33  1  6  0  0  0
 27 28  1  1  0  0  0
 27 35  1  0  0  0  0
 29 30  1  0  0  0  0
 29 37  1  6  0  0  0
 31 32  1  1  0  0  0
 31 39  1  0  0  0  0
 33 34  1  0  0  0  0
 35 36  1  0  0  0  0
 35 41  1  1  0  0  0
 37 38  1  0  0  0  0
 39 40  1  6  0  0  0
 41 42  1  0  0  0  0
M  END
>  <CHROM.1>
169.91207371,-178.56176955,-98.85312129,-63.13382004,49.60251604,-67.32529786
-165.78794422,-33.03643670,153.29114881,-3.85074643,4.29430847,11.02122909
-2.40696578,-0.68198145,0.82545872

>  <Name>
2o3w_lig

>  <RI>
0

>  <Rbt.Current_Directory>
/home/itssahil/PROJECTS/Mol_Feturizer/New_Systems/rnas/2o3w

>  <Rbt.Executable>
rbdock ($Id: //depot/dev/client3/rdock/2013.1/src/exe/rbdock.cxx#4 $)

>  <Rbt.Library>
libRbt.so (2013.1, Build901 2013/11/27)

>  <Rbt.Parameter_File>
/export/apps/rDock/src/rDock_2013.1_src/data/scripts/dock_solv.prm

>  <Rbt.Receptor>
prm/blind_docking_20.prm

>  <SCORE>
40.3632

>  <SCORE.INTER>
11.4123

>  <SCORE.INTER.CONST>
1

>  <SCORE.INTER.POLAR>
0

>  <SCORE.INTER.ROT>
9

>  <SCORE.INTER.SOLV>
28.0351

>  <SCORE.INTER.VDW>
-11.3369

>  <SCORE.INTER.norm>
0.271721

>  <SCORE.INTRA>
-5.55809

>  <SCORE.INTRA.DIHEDRAL>
-15.447

>  <SCORE.INTRA.DIHEDRAL.0>
27.8999

>  <SCORE.INTRA.POLAR>
0

>  <SCORE.INTRA.POLAR.0>
0

>  <SCORE.INTRA.REPUL>
0

>  <SCORE.INTRA.REPUL.0>
0

>  <SCORE.INTRA.SOLV>
-2.33727

>  <SCORE.INTRA.SOLV.lig_0>
-104.479

>  <SCORE.INTRA.VDW>
3.33404

>  <SCORE.INTRA.VDW.0>
-6.17816

>  <SCORE.INTRA.norm>
-0.132335

>  <SCORE.RESTR>
34.509

>  <SCORE.RESTR.CAVITY>
34.509

>  <SCORE.RESTR.norm>
0.821643

>  <SCORE.SYSTEM>
0

>  <SCORE.SYSTEM.CONST>
0

>  <SCORE.SYSTEM.DIHEDRAL>
0

>  <SCORE.SYSTEM.SOLV>
0

>  <SCORE.SYSTEM.norm>
0

>  <SCORE.heavy>
42

>  <SCORE.norm>
0.961029

>  <RMSD>
15.692

$$$$
2o3w_lig
 OpenBabel11021811463D
libRbt.so/2013.1/901 2013/11/27
 42 45  0  0  0  0  0  0  0  0999 V2000
   -1.9211    4.3822   11.9353 C   0  0  2  0  0  0  0  0  0  0  0  0
   -3.2518    4.7152   11.5044 O   0  0  0  0  0  0  0  0  0  0  0  0
   -3.3834    8.8075   12.9300 C   0  0  2  0  0  0  0  0  0  0  0  0
   -3.7870   10.2272   13.1576 N   0  0  0  0  0  0  0  0  0  0  0  0
   -5.9557    4.8146   12.0508 C   0  0  1  0  0  0  0  0  0  0  0  0
   -5.9378    3.3292    9.4432 C   0  0  1  0  0  0  0  0  0  0  0  0
   -1.8534    2.8292   12.0440 C   0  0  2  0  0  0  0  0  0  0  0  0
   -2.3601    2.1567   10.8350 N   0  0  0  0  0  0  0  0  0  0  0  0
   -2.9564    8.5662   11.4262 C   0  0  0  0  0  0  0  0  0  0  0  0
   -5.7920    3.2676   12.1557 C   0  0  2  0  0  0  0  0  0  0  0  0
   -4.5847    2.7595   11.5368 O   0  0  0  0  0  0  0  0  0  0  0  0
   -6.3973    4.6902    8.8064 C   0  0  2  0  0  0  0  0  0  0  0  0
   -7.5265    4.4782    7.8519 N   0  0  0  0  0  0  0  0  0  0  0  0
   -2.6744    2.2901   13.2299 C   0  0  1  0  0  0  0  0  0  0  0  0
   -2.5517    0.8693   13.3148 O   0  0  0  0  0  0  0  0  0  0  0  0
   -2.5215    7.0615   11.2544 C   0  0  2  0  0  0  0  0  0  0  0  0
   -2.0987    6.8021    9.8517 N   0  0  0  0  0  0  0  0  0  0  0  0
   -7.1059    2.7873   11.5374 C   0  0  2  0  0  0  0  0  0  0  0  0
   -6.9808    2.5919   10.0928 O   0  0  0  0  0  0  0  0  0  0  0  0
   -5.1491    5.3807    8.0769 C   0  0  1  0  0  0  0  0  0  0  0  0
   -4.2531    5.9065    9.0817 O   0  0  0  0  0  0  0  0  0  0  0  0
   -2.2077    2.9759   14.5342 C   0  0  2  0  0  0  0  0  0  0  0  0
   -2.9385    2.4809   15.6321 O   0  0  0  0  0  0  0  0  0  0  0  0
   -3.7079    6.0916   11.6385 C   0  0  2  0  0  0  0  0  0  0  0  0
   -8.1495    3.8684   11.8652 C   0  0  2  0  0  0  0  0  0  0  0  0
   -7.3727    5.0631   11.9044 O   0  0  0  0  0  0  0  0  0  0  0  0
   -4.3506    4.3717    7.1219 C   0  0  2  0  0  0  0  0  0  0  0  0
   -5.1920    4.0759    6.0079 O   0  0  0  0  0  0  0  0  0  0  0  0
   -2.3995    4.5229   14.3944 C   0  0  2  0  0  0  0  0  0  0  0  0
   -1.6399    5.0108   13.2435 O   0  0  0  0  0  0  0  0  0  0  0  0
   -4.2168    6.3095   13.0803 C   0  0  2  0  0  0  0  0  0  0  0  0
   -5.4058    5.4803   13.1951 O   0  0  0  0  0  0  0  0  0  0  0  0
   -8.9193    3.6551   13.2054 C   0  0  0  0  0  0  0  0  0  0  0  0
   -8.7609    2.3045   13.6291 O   0  0  0  0  0  0  0  0  0  0  0  0
   -3.9833    3.0486    7.8943 C   0  0  1  0  0  0  0  0  0  0  0  0
   -5.2574    2.4916    8.3808 O   0  0  0  0  0  0  0  0  0  0  0  0
   -1.9603    5.2771   15.6282 C   0  0  0  0  0  0  0  0  0  0  0  0
   -0.6701    4.8686   16.0125 O   0  0  0  0  0  0  0  0  0  0  0  0
   -4.5727    7.8377   13.3117 C   0  0  1  0  0  0  0  0  0  0  0  0
   -4.8983    8.0659   14.6856 O   0  0  0  0  0  0  0  0  0  0  0  0
   -3.2161    1.9735    7.0088 C   0  0  0  0  0  0  0  0  0  0  0  0
   -2.0447    2.4872    6.2469 N   0  0  0  0  0  0  0  0  0  0  0  0
  1  2  1  1  0  0  0
  1  7  1  0  0  0  0
  1 30  1  0  0  0  0
  3  4  1  6  0  0  0
  3  9  1  0  0  0  0
  3 39  1  0  0  0  0
  5 10  1  0  0  0  0
  5 26  1  0  0  0  0
  5 32  1  1  0  0  0
  6 12  1  0  0  0  0
  6 36  1  0  0  0  0
  6 19  1  6  0  0  0
  7  8  1  6  0  0  0
  7 14  1  0  0  0  0
  9 16  1  0  0  0  0
 10 11  1  6  0  0  0
 10 18  1  0  0  0  0
 12 13  1  6  0  0  0
 12 20  1  0  0  0  0
 14 15  1  1  0  0  0
 14 22  1  0  0  0  0
 16 17  1  6  0  0  0
 16 24  1  0  0  0  0
 18 19  1  6  0  0  0
 18 25  1  0  0  0  0
 20 21  1  1  0  0  0
 20 27  1  0  0  0  0
 22 23  1  1  0  0  0
 22 29  1  0  0  0  0
 24  2  1  1  0  0  0
 24 31  1  0  0  0  0
 25 26  1  0  0  0  0
 25 33  1  1  0  0  0
 27 28  1  6  0  0  0
 27 35  1  0  0  0  0
 29 30  1  0  0  0  0
 29 37  1  1  0  0  0
 31 32  1  6  0  0  0
 31 39  1  0  0  0  0
 33 34  1  0  0  0  0
 35 36  1  0  0  0  0
 35 41  1  6  0  0  0
 37 38  1  0  0  0  0
 39 40  1  1  0  0  0
 41 42  1  0  0  0  0
M  END
>  <CHROM.1>
164.69676241,111.81158212,-95.32961781,-23.43941833,40.03933392,-17.11782277
50.05014009,-7.51665150,49.70352947,-4.31808709,4.52001045,11.47307358,-1.06305341
-0.77437954,-1.55521003

>  <Name>
2o3w_lig

>  <RI>
0

>  <Rbt.Current_Directory>
/home/itssahil/PROJECTS/Mol_Feturizer/New_Systems/rnas/2o3w

>  <Rbt.Executable>
rbdock ($Id: //depot/dev/client3/rdock/2013.1/src/exe/rbdock.cxx#4 $)

>  <Rbt.Library>
libRbt.so (2013.1, Build901 2013/11/27)

>  <Rbt.Parameter_File>
/export/apps/rDock/src/rDock_2013.1_src/data/scripts/dock_solv.prm

>  <Rbt.Receptor>
prm/blind_docking_20.prm

>  <SCORE>
59.9309

>  <SCORE.INTER>
13.6861

>  <SCORE.INTER.CONST>
1

>  <SCORE.INTER.POLAR>
0

>  <SCORE.INTER.ROT>
9

>  <SCORE.INTER.SOLV>
20.0847

>  <SCORE.INTER.VDW>
-7.17086

>  <SCORE.INTER.norm>
0.325859

>  <SCORE.INTRA>
16.0706

>  <SCORE.INTRA.DIHEDRAL>
3.16316

>  <SCORE.INTRA.DIHEDRAL.0>
27.8999

>  <SCORE.INTRA.POLAR>
0

>  <SCORE.INTRA.POLAR.0>
0

>  <SCORE.INTRA.REPUL>
0

>  <SCORE.INTRA.REPUL.0>
0

>  <SCORE.INTRA.SOLV>
4.9164

>  <SCORE.INTRA.SOLV.lig_0>
-104.479

>  <SCORE.INTRA.VDW>
12.0308

>  <SCORE.INTRA.VDW.0>
-6.17816

>  <SCORE.INTRA.norm>
0.382633

>  <SCORE.RESTR>
30.1743

>  <SCORE.RESTR.CAVITY>
30.1743

>  <SCORE.RESTR.norm>
0.718435

>  <SCORE.SYSTEM>
0

>  <SCORE.SYSTEM.CONST>
0

>  <SCORE.SYSTEM.DIHEDRAL>
0

>  <SCORE.SYSTEM.SOLV>
0

>  <SCORE.SYSTEM.norm>
0

>  <SCORE.heavy>
42

>  <SCORE.norm>
1.42693

>  <RMSD>
15.692

$$$$
2o3w_lig
 OpenBabel11021811463D
libRbt.so/2013.1/901 2013/11/27
 42 45  0  0  0  0  0  0  0  0999 V2000
   -5.1586    1.8808    9.3842 C   0  0  2  0  0  0  0  0  0  0  0  0
   -4.6932    2.7974   10.3895 O   0  0  0  0  0  0  0  0  0  0  0  0
   -8.2190    5.3139   10.5699 C   0  0  2  0  0  0  0  0  0  0  0  0
   -9.2054    6.3621   10.9682 N   0  0  0  0  0  0  0  0  0  0  0  0
   -3.5800    5.6416   10.8728 C   0  0  1  0  0  0  0  0  0  0  0  0
   -1.8112    5.2014   13.2729 C   0  0  1  0  0  0  0  0  0  0  0  0
   -3.9088    1.1195    8.8489 C   0  0  2  0  0  0  0  0  0  0  0  0
   -3.0775    0.5680    9.9330 N   0  0  0  0  0  0  0  0  0  0  0  0
   -8.0155    4.2497   11.7223 C   0  0  0  0  0  0  0  0  0  0  0  0
   -2.2782    6.4449   10.5717 C   0  0  2  0  0  0  0  0  0  0  0  0
   -1.1593    5.6214   10.1608 O   0  0  0  0  0  0  0  0  0  0  0  0
   -2.4454    5.2281   14.7102 C   0  0  2  0  0  0  0  0  0  0  0  0
   -1.4632    5.7295   15.7175 N   0  0  0  0  0  0  0  0  0  0  0  0
   -2.9932    2.0223    8.0017 C   0  0  1  0  0  0  0  0  0  0  0  0
   -1.8839    1.2749    7.5001 O   0  0  0  0  0  0  0  0  0  0  0  0
   -6.9849    3.1616   11.2360 C   0  0  2  0  0  0  0  0  0  0  0  0
   -6.7801    2.1342   12.2924 N   0  0  0  0  0  0  0  0  0  0  0  0
   -2.0911    7.2097   11.8830 C   0  0  2  0  0  0  0  0  0  0  0  0
   -1.2742    6.4554   12.8340 O   0  0  0  0  0  0  0  0  0  0  0  0
   -2.9587    3.7584   15.0890 C   0  0  1  0  0  0  0  0  0  0  0  0
   -4.1562    3.4723   14.3320 O   0  0  0  0  0  0  0  0  0  0  0  0
   -3.8124    2.6556    6.8541 C   0  0  2  0  0  0  0  0  0  0  0  0
   -2.9845    3.4721    6.0589 O   0  0  0  0  0  0  0  0  0  0  0  0
   -5.6006    3.8296   10.8707 C   0  0  2  0  0  0  0  0  0  0  0  0
   -3.5049    7.4565   12.4358 C   0  0  2  0  0  0  0  0  0  0  0  0
   -4.2357    6.3267   11.9645 O   0  0  0  0  0  0  0  0  0  0  0  0
   -1.8623    2.6246   14.8064 C   0  0  2  0  0  0  0  0  0  0  0  0
   -0.8074    2.8003   15.7512 O   0  0  0  0  0  0  0  0  0  0  0  0
   -4.9881    3.4885    7.4652 C   0  0  2  0  0  0  0  0  0  0  0  0
   -5.8266    2.6218    8.2931 O   0  0  0  0  0  0  0  0  0  0  0  0
   -5.7305    4.9230    9.7877 C   0  0  2  0  0  0  0  0  0  0  0  0
   -4.4184    5.5454    9.7140 O   0  0  0  0  0  0  0  0  0  0  0  0
   -4.1701    8.7890   11.9709 C   0  0  0  0  0  0  0  0  0  0  0  0
   -3.3702    9.8878   12.3970 O   0  0  0  0  0  0  0  0  0  0  0  0
   -1.3046    2.7444   13.3378 C   0  0  1  0  0  0  0  0  0  0  0  0
   -0.7638    4.1092   13.2155 O   0  0  0  0  0  0  0  0  0  0  0  0
   -5.8491    4.1411    6.4086 C   0  0  0  0  0  0  0  0  0  0  0  0
   -6.7326    5.0606    7.0029 O   0  0  0  0  0  0  0  0  0  0  0  0
   -6.8329    5.9833   10.2076 C   0  0  1  0  0  0  0  0  0  0  0  0
   -7.0603    6.9077    9.1402 O   0  0  0  0  0  0  0  0  0  0  0  0
   -0.1831    1.6748   12.9817 C   0  0  0  0  0  0  0  0  0  0  0  0
   -0.1586    1.2172   11.5652 N   0  0  0  0  0  0  0  0  0  0  0  0
  1  2  1  1  0  0  0
  1  7  1  0  0  0  0
  1 30  1  0  0  0  0
  3  4  1  1  0  0  0
  3  9  1  0  0  0  0
  3 39  1  0  0  0  0
  5 10  1  0  0  0  0
  5 26  1  0  0  0  0
  5 32  1  6  0  0  0
  6 12  1  0  0  0  0
  6 36  1  0  0  0  0
  6 19  1  1  0  0  0
  7  8  1  1  0  0  0
  7 14  1  0  0  0  0
  9 16  1  0  0  0  0
 10 11  1  1  0  0  0
 10 18  1  0  0  0  0
 12 13  1  1  0  0  0
 12 20  1  0  0  0  0
 14 15  1  6  0  0  0
 14 22  1  0  0  0  0
 16 17  1  1  0  0  0
 16 24  1  0  0  0  0
 18 19  1  1  0  0  0
 18 25  1  0  0  0  0
 20 21  1  6  0  0  0
 20 27  1  0  0  0  0
 22 23  1  1  0  0  0
 22 29  1  0  0  0  0
 24  2  1  6  0  0  0
 24 31  1  0  0  0  0
 25 26  1  0  0  0  0
 25 33  1  6  0  0  0
 27 28  1  1  0  0  0
 27 35  1  0  0  0  0
 29 30  1  0  0  0  0
 29 37  1  6  0  0  0
 31 32  1  1  0  0  0
 31 39  1  0  0  0  0
 33 34  1  0  0  0  0
 35 36  1  0  0  0  0
 35 41  1  1  0  0  0
 37 38  1  0  0  0  0
 39 40  1  6  0  0  0
 41 42  1  0  0  0  0
M  END
>  <CHROM.1>
167.68907948,-175.48899877,-102.50717585,-62.68418508,48.77763002,-60.28270528
-169.48878518,-31.63655674,147.33592942,-3.89190943,4.35287585,10.99263130
-2.45086014,-0.69367313,0.79647349

>  <Name>
2o3w_lig

>  <RI>
0

>  <Rbt.Current_Directory>
/home/itssahil/PROJECTS/Mol_Feturizer/New_Systems/rnas/2o3w

>  <Rbt.Executable>
rbdock ($Id: //depot/dev/client3/rdock/2013.1/src/exe/rbdock.cxx#4 $)

>  <Rbt.Library>
libRbt.so (2013.1, Build901 2013/11/27)

>  <Rbt.Parameter_File>
/export/apps/rDock/src/rDock_2013.1_src/data/scripts/dock_solv.prm

>  <Rbt.Receptor>
prm/blind_docking_20.prm

>  <SCORE>
40.0489

>  <SCORE.INTER>
9.59403

>  <SCORE.INTER.CONST>
1

>  <SCORE.INTER.POLAR>
0

>  <SCORE.INTER.ROT>
9

>  <SCORE.INTER.SOLV>
28.1941

>  <SCORE.INTER.VDW>
-12.602

>  <SCORE.INTER.norm>
0.228429

>  <SCORE.INTRA>
-4.11624

>  <SCORE.INTRA.DIHEDRAL>
-13.9072

>  <SCORE.INTRA.DIHEDRAL.0>
27.8999

>  <SCORE.INTRA.POLAR>
0

>  <SCORE.INTRA.POLAR.0>
0

>  <SCORE.INTRA.REPUL>
0.000542446

>  <SCORE.INTRA.REPUL.0>
0

>  <SCORE.INTRA.SOLV>
-1.65431

>  <SCORE.INTRA.SOLV.lig_0>
-104.479

>  <SCORE.INTRA.VDW>
3.6618

>  <SCORE.INTRA.VDW.0>
-6.17816

>  <SCORE.INTRA.norm>
-0.0980058

>  <SCORE.RESTR>
34.5711

>  <SCORE.RESTR.CAVITY>
34.5711

>  <SCORE.RESTR.norm>
0.823122

>  <SCORE.SYSTEM>
0

>  <SCORE.SYSTEM.CONST>
0

>  <SCORE.SYSTEM.DIHEDRAL>
0

>  <SCORE.SYSTEM.SOLV>
0

>  <SCORE.SYSTEM.norm>
0

>  <SCORE.heavy>
42

>  <SCORE.norm>
0.953546

>  <RMSD>
15.709

$$$$
2o3w_lig
 OpenBabel11021811463D
libRbt.so/2013.1/901 2013/11/27
 42 45  0  0  0  0  0  0  0  0999 V2000
   -1.8573    4.4176   11.9239 C   0  0  2  0  0  0  0  0  0  0  0  0
   -3.1975    4.7924   11.5621 O   0  0  0  0  0  0  0  0  0  0  0  0
   -3.3024    8.8220   13.1582 C   0  0  2  0  0  0  0  0  0  0  0  0
   -3.6614   10.2505   13.4047 N   0  0  0  0  0  0  0  0  0  0  0  0
   -5.8526    4.8699   11.8381 C   0  0  1  0  0  0  0  0  0  0  0  0
   -5.9665    3.0927    9.4257 C   0  0  1  0  0  0  0  0  0  0  0  0
   -1.8277    2.8621   12.0116 C   0  0  2  0  0  0  0  0  0  0  0  0
   -2.4109    2.2192   10.8212 N   0  0  0  0  0  0  0  0  0  0  0  0
   -2.7088    8.6217   11.7058 C   0  0  0  0  0  0  0  0  0  0  0  0
   -7.0172    3.8695   12.1094 C   0  0  2  0  0  0  0  0  0  0  0  0
   -6.5775    2.5388   12.4769 O   0  0  0  0  0  0  0  0  0  0  0  0
   -5.6692    4.2174    8.3695 C   0  0  2  0  0  0  0  0  0  0  0  0
   -6.5231    4.0486    7.1557 N   0  0  0  0  0  0  0  0  0  0  0  0
   -2.6051    2.3307   13.2299 C   0  0  1  0  0  0  0  0  0  0  0  0
   -2.5181    0.9061   13.2926 O   0  0  0  0  0  0  0  0  0  0  0  0
   -2.3297    7.1044   11.5143 C   0  0  2  0  0  0  0  0  0  0  0  0
   -1.7533    6.8820   10.1608 N   0  0  0  0  0  0  0  0  0  0  0  0
   -7.8051    3.9693   10.8023 C   0  0  2  0  0  0  0  0  0  0  0  0
   -7.3410    2.9909    9.8183 O   0  0  0  0  0  0  0  0  0  0  0  0
   -4.1135    4.1862    7.9877 C   0  0  1  0  0  0  0  0  0  0  0  0
   -3.3506    4.7226    9.0918 O   0  0  0  0  0  0  0  0  0  0  0  0
   -2.0570    2.9869   14.5176 C   0  0  2  0  0  0  0  0  0  0  0  0
   -2.7473    2.4981   15.6441 O   0  0  0  0  0  0  0  0  0  0  0  0
   -3.5993    6.1844   11.7076 C   0  0  2  0  0  0  0  0  0  0  0  0
   -7.6056    5.4074   10.2951 C   0  0  2  0  0  0  0  0  0  0  0  0
   -6.3048    5.7394   10.7747 O   0  0  0  0  0  0  0  0  0  0  0  0
   -3.5882    2.7132    7.6387 C   0  0  2  0  0  0  0  0  0  0  0  0
   -4.1837    2.3253    6.4012 O   0  0  0  0  0  0  0  0  0  0  0  0
   -2.2121    4.5402   14.4049 C   0  0  2  0  0  0  0  0  0  0  0  0
   -1.4957    5.0217   13.2239 O   0  0  0  0  0  0  0  0  0  0  0  0
   -4.2678    6.3684   13.0876 C   0  0  2  0  0  0  0  0  0  0  0  0
   -5.5007    5.6003   13.0203 O   0  0  0  0  0  0  0  0  0  0  0  0
   -8.6675    6.4351   10.7955 C   0  0  0  0  0  0  0  0  0  0  0  0
   -8.2342    6.9953   12.0313 O   0  0  0  0  0  0  0  0  0  0  0  0
   -3.9840    1.6978    8.7764 C   0  0  1  0  0  0  0  0  0  0  0  0
   -5.4504    1.7706    8.8978 O   0  0  0  0  0  0  0  0  0  0  0  0
   -1.6929    5.2664   15.6242 C   0  0  0  0  0  0  0  0  0  0  0  0
   -0.4690    4.7082   16.0365 O   0  0  0  0  0  0  0  0  0  0  0  0
   -4.5747    7.9024   13.3488 C   0  0  1  0  0  0  0  0  0  0  0  0
   -5.0527    8.0897   14.6837 O   0  0  0  0  0  0  0  0  0  0  0  0
   -3.5296    0.2002    8.4947 C   0  0  0  0  0  0  0  0  0  0  0  0
   -2.0599   -0.0376    8.5047 N   0  0  0  0  0  0  0  0  0  0  0  0
  1  2  1  1  0  0  0
  1  7  1  0  0  0  0
  1 30  1  0  0  0  0
  3  4  1  6  0  0  0
  3  9  1  0  0  0  0
  3 39  1  0  0  0  0
  5 10  1  0  0  0  0
  5 26  1  0  0  0  0
  5 32  1  1  0  0  0
  6 12  1  0  0  0  0
  6 36  1  0  0  0  0
  6 19  1  6  0  0  0
  7  8  1  6  0  0  0
  7 14  1  0  0  0  0
  9 16  1  0  0  0  0
 10 11  1  6  0  0  0
 10 18  1  0  0  0  0
 12 13  1  6  0  0  0
 12 20  1  0  0  0  0
 14 15  1  1  0  0  0
 14 22  1  0  0  0  0
 16 17  1  6  0  0  0
 16 24  1  0  0  0  0
 18 19  1  6  0  0  0
 18 25  1  0  0  0  0
 20 21  1  1  0  0  0
 20 27  1  0  0  0  0
 22 23  1  1  0  0  0
 22 29  1  0  0  0  0
 24  2  1  1  0  0  0
 24 31  1  0  0  0  0
 25 26  1  0  0  0  0
 25 33  1  1  0  0  0
 27 28  1  6  0  0  0
 27 35  1  0  0  0  0
 29 30  1  0  0  0  0
 29 37  1  1  0  0  0
 31 32  1  6  0  0  0
 31 39  1  0  0  0  0
 33 34  1  0  0  0  0
 35 36  1  0  0  0  0
 35 41  1  6  0  0  0
 37 38  1  0  0  0  0
 39 40  1  1  0  0  0
 41 42  1  0  0  0  0
M  END
>  <CHROM.1>
165.96656776,166.49318588,-79.38686848,-59.99189098,29.54159163,88.78231934
43.00062826,0.67906978,67.45332963,-4.19413977,4.50881073,11.44805976,-1.19669918
0.67082858,-2.44818611

>  <Name>
2o3w_lig

>  <RI>
0

>  <Rbt.Current_Directory>
/home/itssahil/PROJECTS/Mol_Feturizer/New_Systems/rnas/2o3w

>  <Rbt.Executable>
rbdock ($Id: //depot/dev/client3/rdock/2013.1/src/exe/rbdock.cxx#4 $)

>  <Rbt.Library>
libRbt.so (2013.1, Build901 2013/11/27)

>  <Rbt.Parameter_File>
/export/apps/rDock/src/rDock_2013.1_src/data/scripts/dock_solv.prm

>  <Rbt.Receptor>
prm/blind_docking_20.prm

>  <SCORE>
45.3723

>  <SCORE.INTER>
8.57513

>  <SCORE.INTER.CONST>
1

>  <SCORE.INTER.POLAR>
0

>  <SCORE.INTER.ROT>
9

>  <SCORE.INTER.SOLV>
20.8684

>  <SCORE.INTER.VDW>
-10.8394

>  <SCORE.INTER.norm>
0.20417

>  <SCORE.INTRA>
4.65197

>  <SCORE.INTRA.DIHEDRAL>
-9.85424

>  <SCORE.INTRA.DIHEDRAL.0>
27.8999

>  <SCORE.INTRA.POLAR>
0

>  <SCORE.INTRA.POLAR.0>
0

>  <SCORE.INTRA.REPUL>
0

>  <SCORE.INTRA.REPUL.0>
0

>  <SCORE.INTRA.SOLV>
5.88577

>  <SCORE.INTRA.SOLV.lig_0>
-104.479

>  <SCORE.INTRA.VDW>
6.6362

>  <SCORE.INTRA.VDW.0>
-6.17816

>  <SCORE.INTRA.norm>
0.110761

>  <SCORE.RESTR>
32.1452

>  <SCORE.RESTR.CAVITY>
32.1452

>  <SCORE.RESTR.norm>
0.765363

>  <SCORE.SYSTEM>
0

>  <SCORE.SYSTEM.CONST>
0

>  <SCORE.SYSTEM.DIHEDRAL>
0

>  <SCORE.SYSTEM.SOLV>
0

>  <SCORE.SYSTEM.norm>
0

>  <SCORE.heavy>
42

>  <SCORE.norm>
1.08029

>  <RMSD>
15.710

$$$$
2o3w_lig
 OpenBabel11021811463D
libRbt.so/2013.1/901 2013/11/27
 42 45  0  0  0  0  0  0  0  0999 V2000
   -5.3390    2.4629   10.1219 C   0  0  2  0  0  0  0  0  0  0  0  0
   -4.9104    3.6704   10.7742 O   0  0  0  0  0  0  0  0  0  0  0  0
   -8.2043    6.2520    9.6424 C   0  0  2  0  0  0  0  0  0  0  0  0
   -9.1742    7.3863    9.5853 N   0  0  0  0  0  0  0  0  0  0  0  0
   -3.5531    6.1268   10.8381 C   0  0  1  0  0  0  0  0  0  0  0  0
   -1.9785    5.4102   13.3636 C   0  0  1  0  0  0  0  0  0  0  0  0
   -4.2930    1.3616   10.4700 C   0  0  2  0  0  0  0  0  0  0  0  0
   -4.0131    1.2863   11.9145 N   0  0  0  0  0  0  0  0  0  0  0  0
   -8.3249    5.4620   11.0074 C   0  0  0  0  0  0  0  0  0  0  0  0
   -2.3309    7.0946   10.8142 C   0  0  2  0  0  0  0  0  0  0  0  0
   -1.1051    6.4842   10.3409 O   0  0  0  0  0  0  0  0  0  0  0  0
   -2.6238    5.2195   14.7835 C   0  0  2  0  0  0  0  0  0  0  0  0
   -1.6646    5.6053   15.8615 N   0  0  0  0  0  0  0  0  0  0  0  0
   -2.9430    1.5949    9.7671 C   0  0  1  0  0  0  0  0  0  0  0  0
   -2.0296    0.5428   10.0825 O   0  0  0  0  0  0  0  0  0  0  0  0
   -7.2963    4.2684   10.9987 C   0  0  2  0  0  0  0  0  0  0  0  0
   -7.3928    3.4930   12.2648 N   0  0  0  0  0  0  0  0  0  0  0  0
   -2.3108    7.5834   12.2633 C   0  0  2  0  0  0  0  0  0  0  0  0
   -1.4768    6.7281   13.1081 O   0  0  0  0  0  0  0  0  0  0  0  0
   -3.0948    3.6972   14.9500 C   0  0  1  0  0  0  0  0  0  0  0  0
   -4.2775    3.4837   14.1473 O   0  0  0  0  0  0  0  0  0  0  0  0
   -3.1686    1.7082    8.2421 C   0  0  2  0  0  0  0  0  0  0  0  0
   -1.9397    1.9053    7.5822 O   0  0  0  0  0  0  0  0  0  0  0  0
   -5.8217    4.8053   10.8169 C   0  0  2  0  0  0  0  0  0  0  0  0
   -3.7747    7.5748   12.7346 C   0  0  2  0  0  0  0  0  0  0  0  0
   -4.3465    6.5042   11.9866 O   0  0  0  0  0  0  0  0  0  0  0  0
   -1.9623    2.6458   14.5263 C   0  0  2  0  0  0  0  0  0  0  0  0
   -0.9201    2.7199   15.4982 O   0  0  0  0  0  0  0  0  0  0  0  0
   -4.1461    2.8969    7.9575 C   0  0  2  0  0  0  0  0  0  0  0  0
   -5.4095    2.6740    8.6604 O   0  0  0  0  0  0  0  0  0  0  0  0
   -5.6419    5.6373    9.5282 C   0  0  2  0  0  0  0  0  0  0  0  0
   -4.3022    6.1956    9.6178 O   0  0  0  0  0  0  0  0  0  0  0  0
   -4.5518    8.9060   12.4930 C   0  0  0  0  0  0  0  0  0  0  0  0
   -4.6859    9.1249   11.0920 O   0  0  0  0  0  0  0  0  0  0  0  0
   -1.3979    2.9837   13.0947 C   0  0  1  0  0  0  0  0  0  0  0  0
   -0.8980    4.3675   13.1681 O   0  0  0  0  0  0  0  0  0  0  0  0
   -4.4291    3.0771    6.4840 C   0  0  0  0  0  0  0  0  0  0  0  0
   -3.2859    3.5681    5.8272 O   0  0  0  0  0  0  0  0  0  0  0  0
   -6.7285    6.7909    9.4635 C   0  0  1  0  0  0  0  0  0  0  0  0
   -6.6592    7.4640    8.2034 O   0  0  0  0  0  0  0  0  0  0  0  0
   -0.2417    2.0068   12.6073 C   0  0  0  0  0  0  0  0  0  0  0  0
   -0.6453    0.5895   12.3952 N   0  0  0  0  0  0  0  0  0  0  0  0
  1  2  1  1  0  0  0
  1  7  1  0  0  0  0
  1 30  1  0  0  0  0
  3  4  1  1  0  0  0
  3  9  1  0  0  0  0
  3 39  1  0  0  0  0
  5 10  1  0  0  0  0
  5 26  1  0  0  0  0
  5 32  1  6  0  0  0
  6 12  1  0  0  0  0
  6 36  1  0  0  0  0
  6 19  1  1  0  0  0
  7  8  1  1  0  0  0
  7 14  1  0  0  0  0
  9 16  1  0  0  0  0
 10 11  1  1  0  0  0
 10 18  1  0  0  0  0
 12 13  1  1  0  0  0
 12 20  1  0  0  0  0
 14 15  1  6  0  0  0
 14 22  1  0  0  0  0
 16 17  1  1  0  0  0
 16 24  1  0  0  0  0
 18 19  1  1  0  0  0
 18 25  1  0  0  0  0
 20 21  1  6  0  0  0
 20 27  1  0  0  0  0
 22 23  1  6  0  0  0
 22 29  1  0  0  0  0
 24  2  1  6  0  0  0
 24 31  1  0  0  0  0
 25 26  1  0  0  0  0
 25 33  1  6  0  0  0
 27 28  1  1  0  0  0
 27 35  1  0  0  0  0
 29 30  1  0  0  0  0
 29 37  1  6  0  0  0
 31 32  1  1  0  0  0
 31 39  1  0  0  0  0
 33 34  1  0  0  0  0
 35 36  1  0  0  0  0
 35 41  1  1  0  0  0
 37 38  1  0  0  0  0
 39 40  1  6  0  0  0
 41 42  1  0  0  0  0
M  END
>  <CHROM.1>
-169.32448554,-165.12912197,-102.38376134,-69.53986508,36.51857444,65.71330790
-70.43603820,-11.33551676,65.05617122,-3.85616259,4.51557991,11.14395341
-2.98235110,-0.79228403,0.74058160

>  <Name>
2o3w_lig

>  <RI>
0

>  <Rbt.Current_Directory>
/home/itssahil/PROJECTS/Mol_Feturizer/New_Systems/rnas/2o3w

>  <Rbt.Executable>
rbdock ($Id: //depot/dev/client3/rdock/2013.1/src/exe/rbdock.cxx#4 $)

>  <Rbt.Library>
libRbt.so (2013.1, Build901 2013/11/27)

>  <Rbt.Parameter_File>
/export/apps/rDock/src/rDock_2013.1_src/data/scripts/dock_solv.prm

>  <Rbt.Receptor>
prm/blind_docking_20.prm

>  <SCORE>
40.4851

>  <SCORE.INTER>
3.20795

>  <SCORE.INTER.CONST>
1

>  <SCORE.INTER.POLAR>
-0.0458152

>  <SCORE.INTER.ROT>
9

>  <SCORE.INTER.SOLV>
24.0543

>  <SCORE.INTER.VDW>
-15.3268

>  <SCORE.INTER.norm>
0.0763797

>  <SCORE.INTRA>
2.23734

>  <SCORE.INTRA.DIHEDRAL>
-10.5132

>  <SCORE.INTRA.DIHEDRAL.0>
27.8999

>  <SCORE.INTRA.POLAR>
0

>  <SCORE.INTRA.POLAR.0>
0

>  <SCORE.INTRA.REPUL>
0.0716352

>  <SCORE.INTRA.REPUL.0>
0

>  <SCORE.INTRA.SOLV>
4.50449

>  <SCORE.INTRA.SOLV.lig_0>
-104.479

>  <SCORE.INTRA.VDW>
4.8835

>  <SCORE.INTRA.VDW.0>
-6.17816

>  <SCORE.INTRA.norm>
0.0532699

>  <SCORE.RESTR>
35.0398

>  <SCORE.RESTR.CAVITY>
35.0398

>  <SCORE.RESTR.norm>
0.83428

>  <SCORE.SYSTEM>
0

>  <SCORE.SYSTEM.CONST>
0

>  <SCORE.SYSTEM.DIHEDRAL>
0

>  <SCORE.SYSTEM.SOLV>
0

>  <SCORE.SYSTEM.norm>
0

>  <SCORE.heavy>
42

>  <SCORE.norm>
0.96393

>  <RMSD>
15.715

$$$$
2o3w_lig
 OpenBabel11021811463D
libRbt.so/2013.1/901 2013/11/27
 42 45  0  0  0  0  0  0  0  0999 V2000
   -5.1460    1.8828    9.3559 C   0  0  2  0  0  0  0  0  0  0  0  0
   -4.6699    2.7649   10.3866 O   0  0  0  0  0  0  0  0  0  0  0  0
   -8.2187    5.2295   10.7452 C   0  0  2  0  0  0  0  0  0  0  0  0
   -9.2106    6.2439   11.2113 N   0  0  0  0  0  0  0  0  0  0  0  0
   -3.6487    5.7343   11.0433 C   0  0  1  0  0  0  0  0  0  0  0  0
   -1.8714    5.4255   13.4160 C   0  0  1  0  0  0  0  0  0  0  0  0
   -3.9016    1.1423    8.7801 C   0  0  2  0  0  0  0  0  0  0  0  0
   -3.0570    0.5551    9.8349 N   0  0  0  0  0  0  0  0  0  0  0  0
   -7.9897    4.1071   11.8360 C   0  0  0  0  0  0  0  0  0  0  0  0
   -2.3928    6.6160   10.7670 C   0  0  2  0  0  0  0  0  0  0  0  0
   -1.2056    5.8596   10.4244 O   0  0  0  0  0  0  0  0  0  0  0  0
   -2.3211    5.2477   14.9110 C   0  0  2  0  0  0  0  0  0  0  0  0
   -1.2582    5.7206   15.8477 N   0  0  0  0  0  0  0  0  0  0  0  0
   -2.9971    2.0752    7.9540 C   0  0  1  0  0  0  0  0  0  0  0  0
   -1.8928    1.3472    7.4140 O   0  0  0  0  0  0  0  0  0  0  0  0
   -6.9543    3.0581   11.2792 C   0  0  2  0  0  0  0  0  0  0  0  0
   -6.7256    1.9776   12.2761 N   0  0  0  0  0  0  0  0  0  0  0  0
   -2.3101    7.4287   12.0600 C   0  0  2  0  0  0  0  0  0  0  0  0
   -1.4829    6.7593   13.0642 O   0  0  0  0  0  0  0  0  0  0  0  0
   -2.6786    3.7086   15.1760 C   0  0  1  0  0  0  0  0  0  0  0  0
   -3.9384    3.4046   14.5361 O   0  0  0  0  0  0  0  0  0  0  0  0
   -3.8303    2.7463    6.8384 C   0  0  2  0  0  0  0  0  0  0  0  0
   -3.0128    3.5911    6.0623 O   0  0  0  0  0  0  0  0  0  0  0  0
   -5.5816    3.7598   10.9338 C   0  0  2  0  0  0  0  0  0  0  0  0
   -3.7582    7.5937   12.5510 C   0  0  2  0  0  0  0  0  0  0  0  0
   -4.3919    6.4037   12.0876 O   0  0  0  0  0  0  0  0  0  0  0  0
   -1.5493    2.7064   14.6394 C   0  0  2  0  0  0  0  0  0  0  0  0
   -0.3994    2.8692   15.4686 O   0  0  0  0  0  0  0  0  0  0  0  0
   -4.9998    3.5559    7.4916 C   0  0  2  0  0  0  0  0  0  0  0  0
   -5.8276    2.6598    8.2988 O   0  0  0  0  0  0  0  0  0  0  0  0
   -5.7364    4.9085    9.9130 C   0  0  2  0  0  0  0  0  0  0  0  0
   -4.4318    5.5482    9.8571 O   0  0  0  0  0  0  0  0  0  0  0  0
   -4.4925    8.8638   12.0202 C   0  0  0  0  0  0  0  0  0  0  0  0
   -4.5895    8.7924   10.6009 O   0  0  0  0  0  0  0  0  0  0  0  0
   -1.1896    3.0263   13.1393 C   0  0  1  0  0  0  0  0  0  0  0  0
   -0.7654    4.4369   13.1121 O   0  0  0  0  0  0  0  0  0  0  0  0
   -5.8739    4.2431    6.4681 C   0  0  0  0  0  0  0  0  0  0  0  0
   -6.7529    5.1386    7.1042 O   0  0  0  0  0  0  0  0  0  0  0  0
   -6.8442    5.9325   10.4028 C   0  0  1  0  0  0  0  0  0  0  0  0
   -7.0946    6.9105    9.3896 O   0  0  0  0  0  0  0  0  0  0  0  0
   -0.0491    2.0977   12.5346 C   0  0  0  0  0  0  0  0  0  0  0  0
   -0.4832    0.7356   12.1188 N   0  0  0  0  0  0  0  0  0  0  0  0
  1  2  1  1  0  0  0
  1  7  1  0  0  0  0
  1 30  1  0  0  0  0
  3  4  1  1  0  0  0
  3  9  1  0  0  0  0
  3 39  1  0  0  0  0
  5 10  1  0  0  0  0
  5 26  1  0  0  0  0
  5 32  1  6  0  0  0
  6 12  1  0  0  0  0
  6 36  1  0  0  0  0
  6 19  1  1  0  0  0
  7  8  1  1  0  0  0
  7 14  1  0  0  0  0
  9 16  1  0  0  0  0
 10 11  1  1  0  0  0
 10 18  1  0  0  0  0
 12 13  1  1  0  0  0
 12 20  1  0  0  0  0
 14 15  1  6  0  0  0
 14 22  1  0  0  0  0
 16 17  1  1  0  0  0
 16 24  1  0  0  0  0
 18 19  1  1  0  0  0
 18 25  1  0  0  0  0
 20 21  1  6  0  0  0
 20 27  1  0  0  0  0
 22 23  1  1  0  0  0
 22 29  1  0  0  0  0
 24  2  1  6  0  0  0
 24 31  1  0  0  0  0
 25 26  1  0  0  0  0
 25 33  1  6  0  0  0
 27 28  1  1  0  0  0
 27 35  1  0  0  0  0
 29 30  1  0  0  0  0
 29 37  1  6  0  0  0
 31 32  1  1  0  0  0
 31 39  1  0  0  0  0
 33 34  1  0  0  0  0
 35 36  1  0  0  0  0
 35 41  1  1  0  0  0
 37 38  1  0  0  0  0
 39 40  1  6  0  0  0
 41 42  1  0  0  0  0
M  END
>  <CHROM.1>
168.98543072,-171.88905159,-116.12188769,-56.23901121,47.67098069,62.23355441
-169.58441624,-39.22663260,78.65511921,-3.92367617,4.37267891,11.00700715
-2.48709934,-0.68004697,0.82858980

>  <Name>
2o3w_lig

>  <RI>
0

>  <Rbt.Current_Directory>
/home/itssahil/PROJECTS/Mol_Feturizer/New_Systems/rnas/2o3w

>  <Rbt.Executable>
rbdock ($Id: //depot/dev/client3/rdock/2013.1/src/exe/rbdock.cxx#4 $)

>  <Rbt.Library>
libRbt.so (2013.1, Build901 2013/11/27)

>  <Rbt.Parameter_File>
/export/apps/rDock/src/rDock_2013.1_src/data/scripts/dock_solv.prm

>  <Rbt.Receptor>
prm/blind_docking_20.prm

>  <SCORE>
38.5713

>  <SCORE.INTER>
10.28

>  <SCORE.INTER.CONST>
1

>  <SCORE.INTER.POLAR>
0

>  <SCORE.INTER.ROT>
9

>  <SCORE.INTER.SOLV>
22.9809

>  <SCORE.INTER.VDW>
-10.407

>  <SCORE.INTER.norm>
0.244761

>  <SCORE.INTRA>
-5.7382

>  <SCORE.INTRA.DIHEDRAL>
-15.5523

>  <SCORE.INTRA.DIHEDRAL.0>
27.8999

>  <SCORE.INTRA.POLAR>
0

>  <SCORE.INTRA.POLAR.0>
0

>  <SCORE.INTRA.REPUL>
0

>  <SCORE.INTRA.REPUL.0>
0

>  <SCORE.INTRA.SOLV>
-0.856191

>  <SCORE.INTRA.SOLV.lig_0>
-104.479

>  <SCORE.INTRA.VDW>
2.46604

>  <SCORE.INTRA.VDW.0>
-6.17816

>  <SCORE.INTRA.norm>
-0.136624

>  <SCORE.RESTR>
34.0295

>  <SCORE.RESTR.CAVITY>
34.0295

>  <SCORE.RESTR.norm>
0.810227

>  <SCORE.SYSTEM>
0

>  <SCORE.SYSTEM.CONST>
0

>  <SCORE.SYSTEM.DIHEDRAL>
0

>  <SCORE.SYSTEM.SOLV>
0

>  <SCORE.SYSTEM.norm>
0

>  <SCORE.heavy>
42

>  <SCORE.norm>
0.918365

>  <RMSD>
15.720

$$$$
2o3w_lig
 OpenBabel11021811463D
libRbt.so/2013.1/901 2013/11/27
 42 45  0  0  0  0  0  0  0  0999 V2000
   -5.5051    2.6092   10.6647 C   0  0  2  0  0  0  0  0  0  0  0  0
   -5.1461    3.8952   11.1983 O   0  0  0  0  0  0  0  0  0  0  0  0
   -7.7154    6.3270    8.6921 C   0  0  2  0  0  0  0  0  0  0  0  0
   -8.4629    7.4812    8.1094 N   0  0  0  0  0  0  0  0  0  0  0  0
   -3.4193    6.0159   10.8888 C   0  0  1  0  0  0  0  0  0  0  0  0
   -2.1561    5.5806   13.5412 C   0  0  1  0  0  0  0  0  0  0  0  0
   -4.3601    1.6231   11.0448 C   0  0  2  0  0  0  0  0  0  0  0  0
   -4.0119    1.6877   12.4749 N   0  0  0  0  0  0  0  0  0  0  0  0
   -8.2118    6.0031   10.1585 C   0  0  0  0  0  0  0  0  0  0  0  0
   -2.1049    6.8542   10.9072 C   0  0  2  0  0  0  0  0  0  0  0  0
   -0.8976    6.0595   10.8073 O   0  0  0  0  0  0  0  0  0  0  0  0
   -2.6711    5.2653   14.9918 C   0  0  2  0  0  0  0  0  0  0  0  0
   -1.6283    5.5905   16.0105 N   0  0  0  0  0  0  0  0  0  0  0  0
   -3.0652    1.9003   10.2589 C   0  0  1  0  0  0  0  0  0  0  0  0
   -2.0576    0.9501   10.6094 O   0  0  0  0  0  0  0  0  0  0  0  0
   -7.4048    4.7669   10.7091 C   0  0  2  0  0  0  0  0  0  0  0  0
   -7.8572    4.4246   12.0845 N   0  0  0  0  0  0  0  0  0  0  0  0
   -2.2733    7.6422   12.2072 C   0  0  2  0  0  0  0  0  0  0  0  0
   -1.7024    6.9261   13.3482 O   0  0  0  0  0  0  0  0  0  0  0  0
   -3.0984    3.7236   15.0777 C   0  0  1  0  0  0  0  0  0  0  0  0
   -4.3428    3.5433   14.3651 O   0  0  0  0  0  0  0  0  0  0  0  0
   -3.3659    1.8710    8.7430 C   0  0  2  0  0  0  0  0  0  0  0  0
   -2.1869    2.1065    8.0089 O   0  0  0  0  0  0  0  0  0  0  0  0
   -5.8552    5.0744   10.7219 C   0  0  2  0  0  0  0  0  0  0  0  0
   -3.7866    7.8535   12.3825 C   0  0  2  0  0  0  0  0  0  0  0  0
   -4.3459    6.6957   11.7666 O   0  0  0  0  0  0  0  0  0  0  0  0
   -1.9887    2.7361   14.4767 C   0  0  2  0  0  0  0  0  0  0  0  0
   -0.8669    2.7609   15.3584 O   0  0  0  0  0  0  0  0  0  0  0  0
   -4.4469    2.9545    8.4159 C   0  0  2  0  0  0  0  0  0  0  0  0
   -5.6563    2.6942    9.1965 O   0  0  0  0  0  0  0  0  0  0  0  0
   -5.3087    5.4553    9.3285 C   0  0  2  0  0  0  0  0  0  0  0  0
   -3.9368    5.8785    9.5590 O   0  0  0  0  0  0  0  0  0  0  0  0
   -4.3480    9.1587   11.7378 C   0  0  0  0  0  0  0  0  0  0  0  0
   -3.7173   10.2874   12.3354 O   0  0  0  0  0  0  0  0  0  0  0  0
   -1.5579    3.1970   13.0330 C   0  0  1  0  0  0  0  0  0  0  0  0
   -1.0784    4.5830   13.1720 O   0  0  0  0  0  0  0  0  0  0  0  0
   -4.8077    2.9915    6.9489 C   0  0  0  0  0  0  0  0  0  0  0  0
   -5.4267    1.7859    6.5712 O   0  0  0  0  0  0  0  0  0  0  0  0
   -6.1649    6.6371    8.7073 C   0  0  1  0  0  0  0  0  0  0  0  0
   -5.7563    6.8869    7.3596 O   0  0  0  0  0  0  0  0  0  0  0  0
   -0.4315    2.2893   12.3727 C   0  0  0  0  0  0  0  0  0  0  0  0
    0.8970    2.3245   13.0439 N   0  0  0  0  0  0  0  0  0  0  0  0
  1  2  1  6  0  0  0
  1  7  1  0  0  0  0
  1 30  1  0  0  0  0
  3  4  1  1  0  0  0
  3  9  1  0  0  0  0
  3 39  1  0  0  0  0
  5 10  1  0  0  0  0
  5 26  1  0  0  0  0
  5 32  1  6  0  0  0
  6 12  1  0  0  0  0
  6 36  1  0  0  0  0
  6 19  1  1  0  0  0
  7  8  1  1  0  0  0
  7 14  1  0  0  0  0
  9 16  1  0  0  0  0
 10 11  1  1  0  0  0
 10 18  1  0  0  0  0
 12 13  1  1  0  0  0
 12 20  1  0  0  0  0
 14 15  1  6  0  0  0
 14 22  1  0  0  0  0
 16 17  1  1  0  0  0
 16 24  1  0  0  0  0
 18 19  1  1  0  0  0
 18 25  1  0  0  0  0
 20 21  1  6  0  0  0
 20 27  1  0  0  0  0
 22 23  1  6  0  0  0
 22 29  1  0  0  0  0
 24  2  1  6  0  0  0
 24 31  1  0  0  0  0
 25 26  1  0  0  0  0
 25 33  1  6  0  0  0
 27 28  1  1  0  0  0
 27 35  1  0  0  0  0
 29 30  1  0  0  0  0
 29 37  1  6  0  0  0
 31 32  1  1  0  0  0
 31 39  1  0  0  0  0
 33 34  1  0  0  0  0
 35 36  1  0  0  0  0
 35 41  1  1  0  0  0
 37 38  1  0  0  0  0
 39 40  1  6  0  0  0
 41 42  1  0  0  0  0
M  END
>  <CHROM.1>
164.95353199,-163.59420430,-128.37928850,-53.48984304,45.91147598,-60.73664657
65.02290087,-6.83087475,-65.79300255,-3.83473103,4.64545277,11.20928840,-2.94014779
-0.81496946,0.48086205

>  <Name>
2o3w_lig

>  <RI>
0

>  <Rbt.Current_Directory>
/home/itssahil/PROJECTS/Mol_Feturizer/New_Systems/rnas/2o3w

>  <Rbt.Executable>
rbdock ($Id: //depot/dev/client3/rdock/2013.1/src/exe/rbdock.cxx#4 $)

>  <Rbt.Library>
libRbt.so (2013.1, Build901 2013/11/27)

>  <Rbt.Parameter_File>
/export/apps/rDock/src/rDock_2013.1_src/data/scripts/dock_solv.prm

>  <Rbt.Receptor>
prm/blind_docking_20.prm

>  <SCORE>
43.4606

>  <SCORE.INTER>
5.02275

>  <SCORE.INTER.CONST>
1

>  <SCORE.INTER.POLAR>
-0.505278

>  <SCORE.INTER.ROT>
9

>  <SCORE.INTER.SOLV>
30.6661

>  <SCORE.INTER.VDW>
-14.7893

>  <SCORE.INTER.norm>
0.119589

>  <SCORE.INTRA>
6.18694

>  <SCORE.INTRA.DIHEDRAL>
-10.3748

>  <SCORE.INTRA.DIHEDRAL.0>
27.8999

>  <SCORE.INTRA.POLAR>
0

>  <SCORE.INTRA.POLAR.0>
0

>  <SCORE.INTRA.REPUL>
0.354852

>  <SCORE.INTRA.REPUL.0>
0

>  <SCORE.INTRA.SOLV>
3.11495

>  <SCORE.INTRA.SOLV.lig_0>
-104.479

>  <SCORE.INTRA.VDW>
8.04261

>  <SCORE.INTRA.VDW.0>
-6.17816

>  <SCORE.INTRA.norm>
0.147308

>  <SCORE.RESTR>
32.2509

>  <SCORE.RESTR.CAVITY>
32.2509

>  <SCORE.RESTR.norm>
0.767879

>  <SCORE.SYSTEM>
0

>  <SCORE.SYSTEM.CONST>
0

>  <SCORE.SYSTEM.DIHEDRAL>
0

>  <SCORE.SYSTEM.SOLV>
0

>  <SCORE.SYSTEM.norm>
0

>  <SCORE.heavy>
42

>  <SCORE.norm>
1.03478

>  <RMSD>
15.747

$$$$
2o3w_lig
 OpenBabel11021811463D
libRbt.so/2013.1/901 2013/11/27
 42 45  0  0  0  0  0  0  0  0999 V2000
   -3.4393    5.4038   14.5520 C   0  0  2  0  0  0  0  0  0  0  0  0
   -2.8727    6.0020   13.3737 O   0  0  0  0  0  0  0  0  0  0  0  0
   -5.7200    9.1349   12.4386 C   0  0  2  0  0  0  0  0  0  0  0  0
   -6.6259   10.0671   11.7034 N   0  0  0  0  0  0  0  0  0  0  0  0
   -4.9773    4.8541   11.0676 C   0  0  1  0  0  0  0  0  0  0  0  0
   -4.6086    3.6978    8.3192 C   0  0  1  0  0  0  0  0  0  0  0  0
   -2.2529    4.8467   15.3949 C   0  0  2  0  0  0  0  0  0  0  0  0
   -1.1837    5.8414   15.5897 N   0  0  0  0  0  0  0  0  0  0  0  0
   -4.2070    9.3748   12.0445 C   0  0  0  0  0  0  0  0  0  0  0  0
   -4.8531    6.0822   10.1152 C   0  0  2  0  0  0  0  0  0  0  0  0
   -6.0452    6.3461    9.3354 O   0  0  0  0  0  0  0  0  0  0  0  0
   -3.7175    2.5911    8.9900 C   0  0  2  0  0  0  0  0  0  0  0  0
   -2.4650    2.3680    8.2075 N   0  0  0  0  0  0  0  0  0  0  0  0
   -1.6003    3.6143   14.7420 C   0  0  1  0  0  0  0  0  0  0  0  0
   -0.5460    3.1145   15.5663 O   0  0  0  0  0  0  0  0  0  0  0  0
   -3.3019    8.3809   12.8663 C   0  0  2  0  0  0  0  0  0  0  0  0
   -1.8675    8.5893   12.5304 N   0  0  0  0  0  0  0  0  0  0  0  0
   -3.6054    5.7105    9.3124 C   0  0  2  0  0  0  0  0  0  0  0  0
   -3.9464    4.9512    8.1091 O   0  0  0  0  0  0  0  0  0  0  0  0
   -4.5642    1.2371    9.1194 C   0  0  1  0  0  0  0  0  0  0  0  0
   -5.5394    1.3950   10.1743 O   0  0  0  0  0  0  0  0  0  0  0  0
   -2.6770    2.5352   14.4865 C   0  0  2  0  0  0  0  0  0  0  0  0
   -2.0925    1.3934   13.9042 O   0  0  0  0  0  0  0  0  0  0  0  0
   -3.7044    6.8830   12.5660 C   0  0  2  0  0  0  0  0  0  0  0  0
   -2.7210    4.8839   10.2609 C   0  0  2  0  0  0  0  0  0  0  0  0
   -3.6716    4.2335   11.1011 O   0  0  0  0  0  0  0  0  0  0  0  0
   -5.3076    0.8359    7.7578 C   0  0  2  0  0  0  0  0  0  0  0  0
   -4.3063    0.4463    6.8187 O   0  0  0  0  0  0  0  0  0  0  0  0
   -3.7827    3.1286   13.5512 C   0  0  2  0  0  0  0  0  0  0  0  0
   -4.3670    4.3170   14.1726 O   0  0  0  0  0  0  0  0  0  0  0  0
   -5.1887    6.5884   12.8748 C   0  0  2  0  0  0  0  0  0  0  0  0
   -5.4238    5.2440   12.3729 O   0  0  0  0  0  0  0  0  0  0  0  0
   -1.7033    5.7144   11.1029 C   0  0  0  0  0  0  0  0  0  0  0  0
   -1.6137    7.0312   10.5674 O   0  0  0  0  0  0  0  0  0  0  0  0
   -6.1365    2.0530    7.1976 C   0  0  1  0  0  0  0  0  0  0  0  0
   -5.1763    3.1566    7.0238 O   0  0  0  0  0  0  0  0  0  0  0  0
   -4.8847    2.1385   13.2527 C   0  0  0  0  0  0  0  0  0  0  0  0
   -5.9024    2.7569   12.5035 O   0  0  0  0  0  0  0  0  0  0  0  0
   -6.1218    7.6360   12.1348 C   0  0  1  0  0  0  0  0  0  0  0  0
   -7.4819    7.4579   12.5400 O   0  0  0  0  0  0  0  0  0  0  0  0
   -6.8822    1.7521    5.8258 C   0  0  0  0  0  0  0  0  0  0  0  0
   -8.0799    0.8734    5.9251 N   0  0  0  0  0  0  0  0  0  0  0  0
  1  2  1  6  0  0  0
  1  7  1  0  0  0  0
  1 30  1  0  0  0  0
  3  4  1  6  0  0  0
  3  9  1  0  0  0  0
  3 39  1  0  0  0  0
  5 10  1  0  0  0  0
  5 26  1  0  0  0  0
  5 32  1  1  0  0  0
  6 12  1  0  0  0  0
  6 36  1  0  0  0  0
  6 19  1  6  0  0  0
  7  8  1  6  0  0  0
  7 14  1  0  0  0  0
  9 16  1  0  0  0  0
 10 11  1  6  0  0  0
 10 18  1  0  0  0  0
 12 13  1  6  0  0  0
 12 20  1  0  0  0  0
 14 15  1  1  0  0  0
 14 22  1  0  0  0  0
 16 17  1  6  0  0  0
 16 24  1  0  0  0  0
 18 19  1  6  0  0  0
 18 25  1  0  0  0  0
 20 21  1  1  0  0  0
 20 27  1  0  0  0  0
 22 23  1  6  0  0  0
 22 29  1  0  0  0  0
 24  2  1  1  0  0  0
 24 31  1  0  0  0  0
 25 26  1  0  0  0  0
 25 33  1  1  0  0  0
 27 28  1  6  0  0  0
 27 35  1  0  0  0  0
 29 30  1  0  0  0  0
 29 37  1  1  0  0  0
 31 32  1  6  0  0  0
 31 39  1  0  0  0  0
 33 34  1  0  0  0  0
 35 36  1  0  0  0  0
 35 41  1  6  0  0  0
 37 38  1  0  0  0  0
 39 40  1  1  0  0  0
 41 42  1  0  0  0  0
M  END
>  <CHROM.1>
-165.22393445,-25.54628814,-68.31636631,-61.08847163,102.79865466,-13.56855028
175.10482736,-46.90626951,73.64102133,-4.17419381,4.60796740,11.21987508
-1.00904465,1.01000438,-2.68720277

>  <Name>
2o3w_lig

>  <RI>
0

>  <Rbt.Current_Directory>
/home/itssahil/PROJECTS/Mol_Feturizer/New_Systems/rnas/2o3w

>  <Rbt.Executable>
rbdock ($Id: //depot/dev/client3/rdock/2013.1/src/exe/rbdock.cxx#4 $)

>  <Rbt.Library>
libRbt.so (2013.1, Build901 2013/11/27)

>  <Rbt.Parameter_File>
/export/apps/rDock/src/rDock_2013.1_src/data/scripts/dock_solv.prm

>  <Rbt.Receptor>
prm/blind_docking_20.prm

>  <SCORE>
45.2443

>  <SCORE.INTER>
-3.56936

>  <SCORE.INTER.CONST>
1

>  <SCORE.INTER.POLAR>
-2.00713

>  <SCORE.INTER.ROT>
9

>  <SCORE.INTER.SOLV>
29.2956

>  <SCORE.INTER.VDW>
-15.0543

>  <SCORE.INTER.norm>
-0.0849847

>  <SCORE.INTRA>
12.1374

>  <SCORE.INTRA.DIHEDRAL>
-10.0653

>  <SCORE.INTRA.DIHEDRAL.0>
27.8999

>  <SCORE.INTRA.POLAR>
0

>  <SCORE.INTRA.POLAR.0>
0

>  <SCORE.INTRA.REPUL>
0

>  <SCORE.INTRA.REPUL.0>
0

>  <SCORE.INTRA.SOLV>
3.41347

>  <SCORE.INTRA.SOLV.lig_0>
-104.479

>  <SCORE.INTRA.VDW>
15.4634

>  <SCORE.INTRA.VDW.0>
-6.17816

>  <SCORE.INTRA.norm>
0.288987

>  <SCORE.RESTR>
36.6762

>  <SCORE.RESTR.CAVITY>
36.6762

>  <SCORE.RESTR.norm>
0.873243

>  <SCORE.SYSTEM>
0

>  <SCORE.SYSTEM.CONST>
0

>  <SCORE.SYSTEM.DIHEDRAL>
0

>  <SCORE.SYSTEM.SOLV>
0

>  <SCORE.SYSTEM.norm>
0

>  <SCORE.heavy>
42

>  <SCORE.norm>
1.07725

>  <RMSD>
15.747

$$$$
2o3w_lig
 OpenBabel11021811463D
libRbt.so/2013.1/901 2013/11/27
 42 45  0  0  0  0  0  0  0  0999 V2000
   -3.2755    5.1812   14.6966 C   0  0  2  0  0  0  0  0  0  0  0  0
   -2.7323    5.7448   13.4905 O   0  0  0  0  0  0  0  0  0  0  0  0
   -5.3647    9.1013   12.7151 C   0  0  2  0  0  0  0  0  0  0  0  0
   -6.2384   10.1019   12.0326 N   0  0  0  0  0  0  0  0  0  0  0  0
   -5.2927    4.8446   11.2935 C   0  0  1  0  0  0  0  0  0  0  0  0
   -4.6115    3.8030    8.1142 C   0  0  1  0  0  0  0  0  0  0  0  0
   -2.0858    4.5491   15.4795 C   0  0  2  0  0  0  0  0  0  0  0  0
   -0.9478    5.4743   15.6192 N   0  0  0  0  0  0  0  0  0  0  0  0
   -3.8683    9.2095   12.2142 C   0  0  0  0  0  0  0  0  0  0  0  0
   -6.1808    5.7604   10.3972 C   0  0  2  0  0  0  0  0  0  0  0  0
   -7.5083    5.2350   10.1507 O   0  0  0  0  0  0  0  0  0  0  0  0
   -5.0014    2.6388    7.1336 C   0  0  2  0  0  0  0  0  0  0  0  0
   -6.3538    2.0960    7.4611 N   0  0  0  0  0  0  0  0  0  0  0  0
   -1.5454    3.2794   14.7963 C   0  0  1  0  0  0  0  0  0  0  0  0
   -0.4846    2.7127   15.5673 O   0  0  0  0  0  0  0  0  0  0  0  0
   -2.9945    8.1481   12.9839 C   0  0  2  0  0  0  0  0  0  0  0  0
   -1.5748    8.2319   12.5470 N   0  0  0  0  0  0  0  0  0  0  0  0
   -5.2919    5.9199    9.1628 C   0  0  2  0  0  0  0  0  0  0  0  0
   -5.5574    4.8780    8.1704 O   0  0  0  0  0  0  0  0  0  0  0  0
   -3.8870    1.4900    7.2072 C   0  0  1  0  0  0  0  0  0  0  0  0
   -2.6961    1.9504    6.5298 O   0  0  0  0  0  0  0  0  0  0  0  0
   -2.6993    2.2705   14.5965 C   0  0  2  0  0  0  0  0  0  0  0  0
   -2.2176    1.0954   13.9870 O   0  0  0  0  0  0  0  0  0  0  0  0
   -3.5416    6.6877   12.7312 C   0  0  2  0  0  0  0  0  0  0  0  0
   -3.8422    5.8484    9.6715 C   0  0  2  0  0  0  0  0  0  0  0  0
   -3.9404    4.9834   10.8004 O   0  0  0  0  0  0  0  0  0  0  0  0
   -3.5213    1.0735    8.7106 C   0  0  2  0  0  0  0  0  0  0  0  0
   -4.6521    0.3962    9.2573 O   0  0  0  0  0  0  0  0  0  0  0  0
   -3.8110    2.9340   13.7171 C   0  0  2  0  0  0  0  0  0  0  0  0
   -4.2876    4.1555   14.3655 O   0  0  0  0  0  0  0  0  0  0  0  0
   -5.0201    6.5220   13.1457 C   0  0  2  0  0  0  0  0  0  0  0  0
   -5.4018    5.1990   12.6783 O   0  0  0  0  0  0  0  0  0  0  0  0
   -3.2158    7.2210   10.0689 C   0  0  0  0  0  0  0  0  0  0  0  0
   -1.8640    7.0222   10.4716 O   0  0  0  0  0  0  0  0  0  0  0  0
   -3.1793    2.3472    9.5727 C   0  0  1  0  0  0  0  0  0  0  0  0
   -4.3593    3.2254    9.4910 O   0  0  0  0  0  0  0  0  0  0  0  0
   -4.9866    2.0156   13.4755 C   0  0  0  0  0  0  0  0  0  0  0  0
   -4.5573    0.8346   12.8427 O   0  0  0  0  0  0  0  0  0  0  0  0
   -5.9114    7.6398   12.4589 C   0  0  1  0  0  0  0  0  0  0  0  0
   -7.2498    7.5803   12.9594 O   0  0  0  0  0  0  0  0  0  0  0  0
   -2.8361    2.0277   11.0921 C   0  0  0  0  0  0  0  0  0  0  0  0
   -1.4828    1.4581   11.3387 N   0  0  0  0  0  0  0  0  0  0  0  0
  1  2  1  6  0  0  0
  1  7  1  0  0  0  0
  1 30  1  0  0  0  0
  3  4  1  6  0  0  0
  3  9  1  0  0  0  0
  3 39  1  0  0  0  0
  5 10  1  0  0  0  0
  5 26  1  0  0  0  0
  5 32  1  1  0  0  0
  6 12  1  0  0  0  0
  6 36  1  0  0  0  0
  6 19  1  1  0  0  0
  7  8  1  6  0  0  0
  7 14  1  0  0  0  0
  9 16  1  0  0  0  0
 10 11  1  6  0  0  0
 10 18  1  0  0  0  0
 12 13  1  1  0  0  0
 12 20  1  0  0  0  0
 14 15  1  1  0  0  0
 14 22  1  0  0  0  0
 16 17  1  6  0  0  0
 16 24  1  0  0  0  0
 18 19  1  6  0  0  0
 18 25  1  0  0  0  0
 20 21  1  1  0  0  0
 20 27  1  0  0  0  0
 22 23  1  6  0  0  0
 22 29  1  0  0  0  0
 24  2  1  1  0  0  0
 24 31  1  0  0  0  0
 25 26  1  0  0  0  0
 25 33  1  1  0  0  0
 27 28  1  1  0  0  0
 27 35  1  0  0  0  0
 29 30  1  0  0  0  0
 29 37  1  1  0  0  0
 31 32  1  6  0  0  0
 31 39  1  0  0  0  0
 33 34  1  0  0  0  0
 35 36  1  0  0  0  0
 35 41  1  1  0  0  0
 37 38  1  0  0  0  0
 39 40  1  1  0  0  0
 41 42  1  0  0  0  0
M  END
>  <CHROM.1>
-164.64583460,-60.78459221,174.50981901,-102.09645859,104.21416600,-177.80875698
-58.51922016,-57.76668357,76.16555414,-3.95800794,4.55706850,11.55055703
-1.40542025,1.05525307,-2.50143428

>  <Name>
2o3w_lig

>  <RI>
0

>  <Rbt.Current_Directory>
/home/itssahil/PROJECTS/Mol_Feturizer/New_Systems/rnas/2o3w

>  <Rbt.Executable>
rbdock ($Id: //depot/dev/client3/rdock/2013.1/src/exe/rbdock.cxx#4 $)

>  <Rbt.Library>
libRbt.so (2013.1, Build901 2013/11/27)

>  <Rbt.Parameter_File>
/export/apps/rDock/src/rDock_2013.1_src/data/scripts/dock_solv.prm

>  <Rbt.Receptor>
prm/blind_docking_20.prm

>  <SCORE>
51.6976

>  <SCORE.INTER>
5.0254

>  <SCORE.INTER.CONST>
1

>  <SCORE.INTER.POLAR>
-1.10361

>  <SCORE.INTER.ROT>
9

>  <SCORE.INTER.SOLV>
28.4951

>  <SCORE.INTER.VDW>
-12.0694

>  <SCORE.INTER.norm>
0.119652

>  <SCORE.INTRA>
14.723

>  <SCORE.INTRA.DIHEDRAL>
-13.8651

>  <SCORE.INTRA.DIHEDRAL.0>
27.8999

>  <SCORE.INTRA.POLAR>
0

>  <SCORE.INTRA.POLAR.0>
0

>  <SCORE.INTRA.REPUL>
0

>  <SCORE.INTRA.REPUL.0>
0

>  <SCORE.INTRA.SOLV>
5.10881

>  <SCORE.INTRA.SOLV.lig_0>
-104.479

>  <SCORE.INTRA.VDW>
19.1011

>  <SCORE.INTRA.VDW.0>
-6.17816

>  <SCORE.INTRA.norm>
0.350547

>  <SCORE.RESTR>
31.9492

>  <SCORE.RESTR.CAVITY>
31.9492

>  <SCORE.RESTR.norm>
0.760695

>  <SCORE.SYSTEM>
0

>  <SCORE.SYSTEM.CONST>
0

>  <SCORE.SYSTEM.DIHEDRAL>
0

>  <SCORE.SYSTEM.SOLV>
0

>  <SCORE.SYSTEM.norm>
0

>  <SCORE.heavy>
42

>  <SCORE.norm>
1.23089

>  <RMSD>
15.754

$$$$
2o3w_lig
 OpenBabel11021811463D
libRbt.so/2013.1/901 2013/11/27
 42 45  0  0  0  0  0  0  0  0999 V2000
   -2.6080    7.0551   13.5394 C   0  0  2  0  0  0  0  0  0  0  0  0
   -3.7043    6.3338   14.1269 O   0  0  0  0  0  0  0  0  0  0  0  0
   -1.9860    2.3577   14.3111 C   0  0  2  0  0  0  0  0  0  0  0  0
   -1.6964    0.9445   14.6980 N   0  0  0  0  0  0  0  0  0  0  0  0
   -5.9415    4.2669   12.0602 C   0  0  1  0  0  0  0  0  0  0  0  0
   -6.5846    4.1783    9.1657 C   0  0  1  0  0  0  0  0  0  0  0  0
   -3.1874    7.8687   12.3434 C   0  0  2  0  0  0  0  0  0  0  0  0
   -4.3837    8.6438   12.7158 N   0  0  0  0  0  0  0  0  0  0  0  0
   -1.6599    3.3551   15.4947 C   0  0  0  0  0  0  0  0  0  0  0  0
   -7.1217    3.2638   11.8829 C   0  0  2  0  0  0  0  0  0  0  0  0
   -6.7401    2.0069   11.2715 O   0  0  0  0  0  0  0  0  0  0  0  0
   -6.5005    4.8113    7.7300 C   0  0  2  0  0  0  0  0  0  0  0  0
   -7.2606    3.9909    6.7400 N   0  0  0  0  0  0  0  0  0  0  0  0
   -3.5920    6.9656   11.1637 C   0  0  1  0  0  0  0  0  0  0  0  0
   -4.0795    7.7550   10.0774 O   0  0  0  0  0  0  0  0  0  0  0  0
   -1.9632    4.8266   15.0201 C   0  0  2  0  0  0  0  0  0  0  0  0
   -1.6532    5.7948   16.1064 N   0  0  0  0  0  0  0  0  0  0  0  0
   -8.1157    4.1120   11.0880 C   0  0  2  0  0  0  0  0  0  0  0  0
   -7.9175    3.9631    9.6460 O   0  0  0  0  0  0  0  0  0  0  0  0
   -4.9627    4.9500    7.3026 C   0  0  1  0  0  0  0  0  0  0  0  0
   -4.3661    6.0340    8.0496 O   0  0  0  0  0  0  0  0  0  0  0  0
   -2.3828    6.1029   10.7364 C   0  0  2  0  0  0  0  0  0  0  0  0
   -2.7321    5.2822    9.6460 O   0  0  0  0  0  0  0  0  0  0  0  0
   -3.4777    4.9737   14.5950 C   0  0  2  0  0  0  0  0  0  0  0  0
   -7.8857    5.5656   11.5348 C   0  0  2  0  0  0  0  0  0  0  0  0
   -6.4972    5.5865   11.8574 O   0  0  0  0  0  0  0  0  0  0  0  0
   -4.1253    3.6059    7.5475 C   0  0  2  0  0  0  0  0  0  0  0  0
   -4.5858    2.6344    6.6092 O   0  0  0  0  0  0  0  0  0  0  0  0
   -1.9179    5.2366   11.9541 C   0  0  2  0  0  0  0  0  0  0  0  0
   -1.5704    6.1098   13.0750 O   0  0  0  0  0  0  0  0  0  0  0  0
   -3.8846    3.9880   13.4779 C   0  0  2  0  0  0  0  0  0  0  0  0
   -5.3257    4.1320   13.3477 O   0  0  0  0  0  0  0  0  0  0  0  0
   -8.7509    6.0256   12.7490 C   0  0  0  0  0  0  0  0  0  0  0  0
   -8.8622    4.9536   13.6803 O   0  0  0  0  0  0  0  0  0  0  0  0
   -4.3315    3.0830    9.0193 C   0  0  1  0  0  0  0  0  0  0  0  0
   -5.7828    2.8939    9.1869 O   0  0  0  0  0  0  0  0  0  0  0  0
   -0.7297    4.3623   11.6259 C   0  0  0  0  0  0  0  0  0  0  0  0
   -0.9521    3.0504   12.0829 O   0  0  0  0  0  0  0  0  0  0  0  0
   -3.5028    2.5044   13.8890 C   0  0  1  0  0  0  0  0  0  0  0  0
   -3.7400    1.6130   12.7959 O   0  0  0  0  0  0  0  0  0  0  0  0
   -3.5603    1.7298    9.3398 C   0  0  0  0  0  0  0  0  0  0  0  0
   -2.6103    1.7877   10.4847 N   0  0  0  0  0  0  0  0  0  0  0  0
  1  2  1  6  0  0  0
  1  7  1  0  0  0  0
  1 30  1  0  0  0  0
  3  4  1  1  0  0  0
  3  9  1  0  0  0  0
  3 39  1  0  0  0  0
  5 10  1  0  0  0  0
  5 26  1  0  0  0  0
  5 32  1  1  0  0  0
  6 12  1  0  0  0  0
  6 36  1  0  0  0  0
  6 19  1  6  0  0  0
  7  8  1  1  0  0  0
  7 14  1  0  0  0  0
  9 16  1  0  0  0  0
 10 11  1  6  0  0  0
 10 18  1  0  0  0  0
 12 13  1  6  0  0  0
 12 20  1  0  0  0  0
 14 15  1  6  0  0  0
 14 22  1  0  0  0  0
 16 17  1  1  0  0  0
 16 24  1  0  0  0  0
 18 19  1  6  0  0  0
 18 25  1  0  0  0  0
 20 21  1  1  0  0  0
 20 27  1  0  0  0  0
 22 23  1  6  0  0  0
 22 29  1  0  0  0  0
 24  2  1  6  0  0  0
 24 31  1  0  0  0  0
 25 26  1  0  0  0  0
 25 33  1  1  0  0  0
 27 28  1  6  0  0  0
 27 35  1  0  0  0  0
 29 30  1  0  0  0  0
 29 37  1  6  0  0  0
 31 32  1  1  0  0  0
 31 39  1  0  0  0  0
 33 34  1  0  0  0  0
 35 36  1  0  0  0  0
 35 41  1  6  0  0  0
 37 38  1  0  0  0  0
 39 40  1  6  0  0  0
 41 42  1  0  0  0  0
M  END
>  <CHROM.1>
141.02960237,129.54961888,-146.83633113,-52.41242108,28.43811183,38.22774944
-132.85658440,133.33111514,122.79912451,-4.37990584,4.48372228,11.49983939
0.86307143,-0.37497050,1.18650385

>  <Name>
2o3w_lig

>  <RI>
0

>  <Rbt.Current_Directory>
/home/itssahil/PROJECTS/Mol_Feturizer/New_Systems/rnas/2o3w

>  <Rbt.Executable>
rbdock ($Id: //depot/dev/client3/rdock/2013.1/src/exe/rbdock.cxx#4 $)

>  <Rbt.Library>
libRbt.so (2013.1, Build901 2013/11/27)

>  <Rbt.Parameter_File>
/export/apps/rDock/src/rDock_2013.1_src/data/scripts/dock_solv.prm

>  <Rbt.Receptor>
prm/blind_docking_20.prm

>  <SCORE>
57.358

>  <SCORE.INTER>
12.0103

>  <SCORE.INTER.CONST>
1

>  <SCORE.INTER.POLAR>
0

>  <SCORE.INTER.ROT>
9

>  <SCORE.INTER.SOLV>
23.7674

>  <SCORE.INTER.VDW>
-9.51561

>  <SCORE.INTER.norm>
0.285959

>  <SCORE.INTRA>
17.7399

>  <SCORE.INTRA.DIHEDRAL>
10.3327

>  <SCORE.INTRA.DIHEDRAL.0>
27.8999

>  <SCORE.INTRA.POLAR>
0

>  <SCORE.INTRA.POLAR.0>
0

>  <SCORE.INTRA.REPUL>
0.0229887

>  <SCORE.INTRA.REPUL.0>
0

>  <SCORE.INTRA.SOLV>
7.94066

>  <SCORE.INTRA.SOLV.lig_0>
-104.479

>  <SCORE.INTRA.VDW>
8.4883

>  <SCORE.INTRA.VDW.0>
-6.17816

>  <SCORE.INTRA.norm>
0.422378

>  <SCORE.RESTR>
27.6078

>  <SCORE.RESTR.CAVITY>
27.6078

>  <SCORE.RESTR.norm>
0.657328

>  <SCORE.SYSTEM>
0

>  <SCORE.SYSTEM.CONST>
0

>  <SCORE.SYSTEM.DIHEDRAL>
0

>  <SCORE.SYSTEM.SOLV>
0

>  <SCORE.SYSTEM.norm>
0

>  <SCORE.heavy>
42

>  <SCORE.norm>
1.36567

>  <RMSD>
15.762

$$$$
2o3w_lig
 OpenBabel11021811463D
libRbt.so/2013.1/901 2013/11/27
 42 45  0  0  0  0  0  0  0  0999 V2000
   -1.8637    4.5016   11.9026 C   0  0  2  0  0  0  0  0  0  0  0  0
   -3.2375    4.8123   11.6140 O   0  0  0  0  0  0  0  0  0  0  0  0
   -3.3878    8.8787   13.1100 C   0  0  2  0  0  0  0  0  0  0  0  0
   -3.7907   10.2961   13.3528 N   0  0  0  0  0  0  0  0  0  0  0  0
   -5.8075    4.7090   12.1688 C   0  0  1  0  0  0  0  0  0  0  0  0
   -5.7656    2.9669    9.7823 C   0  0  1  0  0  0  0  0  0  0  0  0
   -1.7483    2.9483   11.9483 C   0  0  2  0  0  0  0  0  0  0  0  0
   -2.3537    2.3031   10.7703 N   0  0  0  0  0  0  0  0  0  0  0  0
   -2.9225    8.6624   11.6138 C   0  0  0  0  0  0  0  0  0  0  0  0
   -6.0231    3.2372   12.6357 C   0  0  2  0  0  0  0  0  0  0  0  0
   -4.8422    2.4050   12.5256 O   0  0  0  0  0  0  0  0  0  0  0  0
   -6.2947    4.2369    9.0235 C   0  0  2  0  0  0  0  0  0  0  0  0
   -7.4074    3.8778    8.0940 N   0  0  0  0  0  0  0  0  0  0  0  0
   -2.4369    2.3475   13.1875 C   0  0  1  0  0  0  0  0  0  0  0  0
   -2.2724    0.9286   13.2090 O   0  0  0  0  0  0  0  0  0  0  0  0
   -2.4902    7.1590   11.4260 C   0  0  2  0  0  0  0  0  0  0  0  0
   -2.0319    6.9228   10.0304 N   0  0  0  0  0  0  0  0  0  0  0  0
   -7.2103    2.8205   11.7661 C   0  0  2  0  0  0  0  0  0  0  0  0
   -6.7701    2.2376   10.4983 O   0  0  0  0  0  0  0  0  0  0  0  0
   -5.0825    4.9231    8.2320 C   0  0  1  0  0  0  0  0  0  0  0  0
   -4.2196    5.5864    9.1830 O   0  0  0  0  0  0  0  0  0  0  0  0
   -1.8624    3.0017   14.4647 C   0  0  2  0  0  0  0  0  0  0  0  0
   -2.4709    2.4503   15.6093 O   0  0  0  0  0  0  0  0  0  0  0  0
   -3.6907    6.1882   11.7612 C   0  0  2  0  0  0  0  0  0  0  0  0
   -8.0362    4.0972   11.5354 C   0  0  2  0  0  0  0  0  0  0  0  0
   -7.0496    5.1262   11.5570 O   0  0  0  0  0  0  0  0  0  0  0  0
   -4.2278    3.8748    7.3730 C   0  0  2  0  0  0  0  0  0  0  0  0
   -5.0480    3.4331    6.2920 O   0  0  0  0  0  0  0  0  0  0  0  0
   -2.1041    4.5467   14.3998 C   0  0  2  0  0  0  0  0  0  0  0  0
   -1.4719    5.0936   13.1994 O   0  0  0  0  0  0  0  0  0  0  0  0
   -4.2363    6.3826   13.1929 C   0  0  2  0  0  0  0  0  0  0  0  0
   -5.4317    5.5575   13.2614 O   0  0  0  0  0  0  0  0  0  0  0  0
   -9.1477    4.3630   12.5976 C   0  0  0  0  0  0  0  0  0  0  0  0
   -9.8772    5.5308   12.2331 O   0  0  0  0  0  0  0  0  0  0  0  0
   -3.7932    2.6499    8.2635 C   0  0  1  0  0  0  0  0  0  0  0  0
   -5.0375    2.0727    8.8008 O   0  0  0  0  0  0  0  0  0  0  0  0
   -1.5654    5.2709   15.6119 C   0  0  0  0  0  0  0  0  0  0  0  0
   -0.3001    4.7625   15.9578 O   0  0  0  0  0  0  0  0  0  0  0  0
   -4.5911    7.9082   13.4427 C   0  0  1  0  0  0  0  0  0  0  0  0
   -4.9517    8.1132   14.8115 O   0  0  0  0  0  0  0  0  0  0  0  0
   -2.9663    1.5405    7.4798 C   0  0  0  0  0  0  0  0  0  0  0  0
   -3.6246    0.9881    6.2641 N   0  0  0  0  0  0  0  0  0  0  0  0
  1  2  1  1  0  0  0
  1  7  1  0  0  0  0
  1 30  1  0  0  0  0
  3  4  1  6  0  0  0
  3  9  1  0  0  0  0
  3 39  1  0  0  0  0
  5 10  1  0  0  0  0
  5 26  1  0  0  0  0
  5 32  1  1  0  0  0
  6 12  1  0  0  0  0
  6 36  1  0  0  0  0
  6 19  1  6  0  0  0
  7  8  1  6  0  0  0
  7 14  1  0  0  0  0
  9 16  1  0  0  0  0
 10 11  1  6  0  0  0
 10 18  1  0  0  0  0
 12 13  1  6  0  0  0
 12 20  1  0  0  0  0
 14 15  1  1  0  0  0
 14 22  1  0  0  0  0
 16 17  1  6  0  0  0
 16 24  1  0  0  0  0
 18 19  1  6  0  0  0
 18 25  1  0  0  0  0
 20 21  1  1  0  0  0
 20 27  1  0  0  0  0
 22 23  1  1  0  0  0
 22 29  1  0  0  0  0
 24  2  1  1  0  0  0
 24 31  1  0  0  0  0
 25 26  1  0  0  0  0
 25 33  1  1  0  0  0
 27 28  1  6  0  0  0
 27 35  1  0  0  0  0
 29 30  1  0  0  0  0
 29 37  1  1  0  0  0
 31 32  1  6  0  0  0
 31 39  1  0  0  0  0
 33 34  1  0  0  0  0
 35 36  1  0  0  0  0
 35 41  1  6  0  0  0
 37 38  1  0  0  0  0
 39 40  1  1  0  0  0
 41 42  1  0  0  0  0
M  END
>  <CHROM.1>
168.48224300,126.51749488,-76.63833058,-47.78008145,31.67705931,-177.11193026
42.54049743,4.86503943,-55.16248307,-4.28386513,4.49734675,11.55178423,-1.09153539
0.51429994,-2.32878450

>  <Name>
2o3w_lig

>  <RI>
0

>  <Rbt.Current_Directory>
/home/itssahil/PROJECTS/Mol_Feturizer/New_Systems/rnas/2o3w

>  <Rbt.Executable>
rbdock ($Id: //depot/dev/client3/rdock/2013.1/src/exe/rbdock.cxx#4 $)

>  <Rbt.Library>
libRbt.so (2013.1, Build901 2013/11/27)

>  <Rbt.Parameter_File>
/export/apps/rDock/src/rDock_2013.1_src/data/scripts/dock_solv.prm

>  <Rbt.Receptor>
prm/blind_docking_20.prm

>  <SCORE>
45.1598

>  <SCORE.INTER>
7.61477

>  <SCORE.INTER.CONST>
1

>  <SCORE.INTER.POLAR>
0

>  <SCORE.INTER.ROT>
9

>  <SCORE.INTER.SOLV>
20.9697

>  <SCORE.INTER.VDW>
-11.5134

>  <SCORE.INTER.norm>
0.181304

>  <SCORE.INTRA>
7.52339

>  <SCORE.INTRA.DIHEDRAL>
-6.69808

>  <SCORE.INTRA.DIHEDRAL.0>
27.8999

>  <SCORE.INTRA.POLAR>
0

>  <SCORE.INTRA.POLAR.0>
0

>  <SCORE.INTRA.REPUL>
0

>  <SCORE.INTRA.REPUL.0>
0

>  <SCORE.INTRA.SOLV>
6.6813

>  <SCORE.INTRA.SOLV.lig_0>
-104.479

>  <SCORE.INTRA.VDW>
7.53178

>  <SCORE.INTRA.VDW.0>
-6.17816

>  <SCORE.INTRA.norm>
0.179128

>  <SCORE.RESTR>
30.0217

>  <SCORE.RESTR.CAVITY>
30.0217

>  <SCORE.RESTR.norm>
0.714802

>  <SCORE.SYSTEM>
0

>  <SCORE.SYSTEM.CONST>
0

>  <SCORE.SYSTEM.DIHEDRAL>
0

>  <SCORE.SYSTEM.SOLV>
0

>  <SCORE.SYSTEM.norm>
0

>  <SCORE.heavy>
42

>  <SCORE.norm>
1.07523

>  <RMSD>
15.762

$$$$
2o3w_lig
 OpenBabel11021811463D
libRbt.so/2013.1/901 2013/11/27
 42 45  0  0  0  0  0  0  0  0999 V2000
   -1.8764    4.5313   11.9399 C   0  0  2  0  0  0  0  0  0  0  0  0
   -3.2477    4.8444   11.6421 O   0  0  0  0  0  0  0  0  0  0  0  0
   -3.4101    8.9113   13.1353 C   0  0  2  0  0  0  0  0  0  0  0  0
   -3.8118   10.3304   13.3704 N   0  0  0  0  0  0  0  0  0  0  0  0
   -5.8259    4.7483   12.1487 C   0  0  1  0  0  0  0  0  0  0  0  0
   -5.7613    3.0166    9.7519 C   0  0  1  0  0  0  0  0  0  0  0  0
   -1.7623    2.9777   11.9782 C   0  0  2  0  0  0  0  0  0  0  0  0
   -2.3587    2.3392   10.7919 N   0  0  0  0  0  0  0  0  0  0  0  0
   -2.9168    8.6932   11.6484 C   0  0  0  0  0  0  0  0  0  0  0  0
   -6.0511    3.2774   12.6143 C   0  0  2  0  0  0  0  0  0  0  0  0
   -4.8688    2.4445   12.5281 O   0  0  0  0  0  0  0  0  0  0  0  0
   -6.3054    4.2789    8.9905 C   0  0  2  0  0  0  0  0  0  0  0  0
   -7.4101    3.9041    8.0577 N   0  0  0  0  0  0  0  0  0  0  0  0
   -2.4613    2.3706   13.2086 C   0  0  1  0  0  0  0  0  0  0  0  0
   -2.2977    0.9515   13.2237 O   0  0  0  0  0  0  0  0  0  0  0  0
   -2.4872    7.1880   11.4690 C   0  0  2  0  0  0  0  0  0  0  0  0
   -2.0028    6.9500   10.0825 N   0  0  0  0  0  0  0  0  0  0  0  0
   -7.2219    2.8597   11.7232 C   0  0  2  0  0  0  0  0  0  0  0  0
   -6.7582    2.2741   10.4651 O   0  0  0  0  0  0  0  0  0  0  0  0
   -5.1001    4.9812    8.2025 C   0  0  1  0  0  0  0  0  0  0  0  0
   -4.2493    5.6566    9.1559 O   0  0  0  0  0  0  0  0  0  0  0  0
   -1.8967    3.0175   14.4938 C   0  0  2  0  0  0  0  0  0  0  0  0
   -2.5146    2.4603   15.6305 O   0  0  0  0  0  0  0  0  0  0  0  0
   -3.6980    6.2222   11.7806 C   0  0  2  0  0  0  0  0  0  0  0  0
   -8.0426    4.1364   11.4745 C   0  0  2  0  0  0  0  0  0  0  0  0
   -7.0560    5.1649   11.5128 O   0  0  0  0  0  0  0  0  0  0  0  0
   -4.2284    3.9441    7.3469 C   0  0  2  0  0  0  0  0  0  0  0  0
   -5.0390    3.4906    6.2636 O   0  0  0  0  0  0  0  0  0  0  0  0
   -2.1369    4.5630   14.4354 C   0  0  2  0  0  0  0  0  0  0  0  0
   -1.4947    5.1159   13.2431 O   0  0  0  0  0  0  0  0  0  0  0  0
   -4.2705    6.4188   13.2015 C   0  0  2  0  0  0  0  0  0  0  0  0
   -5.4704    5.5987   13.2467 O   0  0  0  0  0  0  0  0  0  0  0  0
   -9.1738    4.4047   12.5150 C   0  0  0  0  0  0  0  0  0  0  0  0
   -9.8634    5.6001   12.1624 O   0  0  0  0  0  0  0  0  0  0  0  0
   -3.7800    2.7257    8.2395 C   0  0  1  0  0  0  0  0  0  0  0  0
   -5.0180    2.1319    8.7732 O   0  0  0  0  0  0  0  0  0  0  0  0
   -1.6075    5.2802   15.6557 C   0  0  0  0  0  0  0  0  0  0  0  0
   -0.3919    4.7040   16.0676 O   0  0  0  0  0  0  0  0  0  0  0  0
   -4.6237    7.9459   13.4445 C   0  0  1  0  0  0  0  0  0  0  0  0
   -5.0100    8.1523   14.8061 O   0  0  0  0  0  0  0  0  0  0  0  0
   -2.9355    1.6273    7.4592 C   0  0  0  0  0  0  0  0  0  0  0  0
   -3.5557    1.1091    6.2088 N   0  0  0  0  0  0  0  0  0  0  0  0
  1  2  1  1  0  0  0
  1  7  1  0  0  0  0
  1 30  1  0  0  0  0
  3  4  1  6  0  0  0
  3  9  1  0  0  0  0
  3 39  1  0  0  0  0
  5 10  1  0  0  0  0
  5 26  1  0  0  0  0
  5 32  1  1  0  0  0
  6 12  1  0  0  0  0
  6 36  1  0  0  0  0
  6 19  1  6  0  0  0
  7  8  1  6  0  0  0
  7 14  1  0  0  0  0
  9 16  1  0  0  0  0
 10 11  1  6  0  0  0
 10 18  1  0  0  0  0
 12 13  1  6  0  0  0
 12 20  1  0  0  0  0
 14 15  1  1  0  0  0
 14 22  1  0  0  0  0
 16 17  1  6  0  0  0
 16 24  1  0  0  0  0
 18 19  1  6  0  0  0
 18 25  1  0  0  0  0
 20 21  1  1  0  0  0
 20 27  1  0  0  0  0
 22 23  1  1  0  0  0
 22 29  1  0  0  0  0
 24  2  1  1  0  0  0
 24 31  1  0  0  0  0
 25 26  1  0  0  0  0
 25 33  1  1  0  0  0
 27 28  1  6  0  0  0
 27 35  1  0  0  0  0
 29 30  1  0  0  0  0
 29 37  1  1  0  0  0
 31 32  1  6  0  0  0
 31 39  1  0  0  0  0
 33 34  1  0  0  0  0
 35 36  1  0  0  0  0
 35 41  1  6  0  0  0
 37 38  1  0  0  0  0
 39 40  1  1  0  0  0
 41 42  1  0  0  0  0
M  END
>  <CHROM.1>
169.07169013,126.25746960,-75.93429041,-49.12699930,30.85077057,-179.28274601
38.23054752,5.08421248,-52.56032219,-4.29726094,4.53595334,11.54954051,-1.08979820
0.53703597,-2.31986663

>  <Name>
2o3w_lig

>  <RI>
0

>  <Rbt.Current_Directory>
/home/itssahil/PROJECTS/Mol_Feturizer/New_Systems/rnas/2o3w

>  <Rbt.Executable>
rbdock ($Id: //depot/dev/client3/rdock/2013.1/src/exe/rbdock.cxx#4 $)

>  <Rbt.Library>
libRbt.so (2013.1, Build901 2013/11/27)

>  <Rbt.Parameter_File>
/export/apps/rDock/src/rDock_2013.1_src/data/scripts/dock_solv.prm

>  <Rbt.Receptor>
prm/blind_docking_20.prm

>  <SCORE>
44.901

>  <SCORE.INTER>
7.39975

>  <SCORE.INTER.CONST>
1

>  <SCORE.INTER.POLAR>
0

>  <SCORE.INTER.ROT>
9

>  <SCORE.INTER.SOLV>
20.197

>  <SCORE.INTER.VDW>
-11.3992

>  <SCORE.INTER.norm>
0.176185

>  <SCORE.INTRA>
7.48003

>  <SCORE.INTRA.DIHEDRAL>
-6.24826

>  <SCORE.INTRA.DIHEDRAL.0>
27.8999

>  <SCORE.INTRA.POLAR>
0

>  <SCORE.INTRA.POLAR.0>
0

>  <SCORE.INTRA.REPUL>
0

>  <SCORE.INTRA.REPUL.0>
0

>  <SCORE.INTRA.SOLV>
6.48875

>  <SCORE.INTRA.SOLV.lig_0>
-104.479

>  <SCORE.INTRA.VDW>
7.35979

>  <SCORE.INTRA.VDW.0>
-6.17816

>  <SCORE.INTRA.norm>
0.178096

>  <SCORE.RESTR>
30.0212

>  <SCORE.RESTR.CAVITY>
30.0212

>  <SCORE.RESTR.norm>
0.714791

>  <SCORE.SYSTEM>
0

>  <SCORE.SYSTEM.CONST>
0

>  <SCORE.SYSTEM.DIHEDRAL>
0

>  <SCORE.SYSTEM.SOLV>
0

>  <SCORE.SYSTEM.norm>
0

>  <SCORE.heavy>
42

>  <SCORE.norm>
1.06907

>  <RMSD>
15.770

$$$$
2o3w_lig
 OpenBabel11021811463D
libRbt.so/2013.1/901 2013/11/27
 42 45  0  0  0  0  0  0  0  0999 V2000
   -5.1575    1.9479    9.4685 C   0  0  2  0  0  0  0  0  0  0  0  0
   -4.7059    2.9185   10.4283 O   0  0  0  0  0  0  0  0  0  0  0  0
   -8.2221    5.4547   10.4338 C   0  0  2  0  0  0  0  0  0  0  0  0
   -9.2213    6.5084   10.7828 N   0  0  0  0  0  0  0  0  0  0  0  0
   -3.6244    5.8040   10.9772 C   0  0  1  0  0  0  0  0  0  0  0  0
   -1.9273    5.4197   13.4102 C   0  0  1  0  0  0  0  0  0  0  0  0
   -3.8974    1.1748    8.9758 C   0  0  2  0  0  0  0  0  0  0  0  0
   -3.0642    0.6873   10.0888 N   0  0  0  0  0  0  0  0  0  0  0  0
   -8.0822    4.3893   11.5945 C   0  0  0  0  0  0  0  0  0  0  0  0
   -2.3644    6.6969   10.7626 C   0  0  2  0  0  0  0  0  0  0  0  0
   -1.1692    5.9556   10.4148 O   0  0  0  0  0  0  0  0  0  0  0  0
   -2.3679    5.2238   14.9057 C   0  0  2  0  0  0  0  0  0  0  0  0
   -1.2824    5.6453   15.8411 N   0  0  0  0  0  0  0  0  0  0  0  0
   -2.9886    2.0444    8.0876 C   0  0  1  0  0  0  0  0  0  0  0  0
   -1.8693    1.2852    7.6274 O   0  0  0  0  0  0  0  0  0  0  0  0
   -7.0348    3.2956   11.1597 C   0  0  2  0  0  0  0  0  0  0  0  0
   -6.8886    2.2669   12.2247 N   0  0  0  0  0  0  0  0  0  0  0  0
   -2.3099    7.4571   12.0887 C   0  0  2  0  0  0  0  0  0  0  0  0
   -1.5027    6.7485   13.0822 O   0  0  0  0  0  0  0  0  0  0  0  0
   -2.7684    3.6907   15.1423 C   0  0  1  0  0  0  0  0  0  0  0  0
   -4.0427    3.4376   14.5091 O   0  0  0  0  0  0  0  0  0  0  0  0
   -3.8104    2.6105    6.9072 C   0  0  2  0  0  0  0  0  0  0  0  0
   -2.9885    3.3956    6.0749 O   0  0  0  0  0  0  0  0  0  0  0  0
   -5.6303    3.9558   10.8641 C   0  0  2  0  0  0  0  0  0  0  0  0
   -3.7681    7.6013   12.5556 C   0  0  2  0  0  0  0  0  0  0  0  0
   -4.3903    6.4304   12.0317 O   0  0  0  0  0  0  0  0  0  0  0  0
   -1.6746    2.6671   14.5736 C   0  0  2  0  0  0  0  0  0  0  0  0
   -0.5125    2.7784   15.3942 O   0  0  0  0  0  0  0  0  0  0  0  0
   -4.9974    3.4598    7.4723 C   0  0  2  0  0  0  0  0  0  0  0  0
   -5.8295    2.6261    8.3397 O   0  0  0  0  0  0  0  0  0  0  0  0
   -5.7000    5.0500    9.7764 C   0  0  2  0  0  0  0  0  0  0  0  0
   -4.3824    5.6651    9.7684 O   0  0  0  0  0  0  0  0  0  0  0  0
   -4.4931    8.8912   12.0609 C   0  0  0  0  0  0  0  0  0  0  0  0
   -5.8553    8.8538   12.4757 O   0  0  0  0  0  0  0  0  0  0  0  0
   -1.3199    3.0078   13.0768 C   0  0  1  0  0  0  0  0  0  0  0  0
   -0.8542    4.4054   13.0746 O   0  0  0  0  0  0  0  0  0  0  0  0
   -5.8615    4.0492    6.3817 C   0  0  0  0  0  0  0  0  0  0  0  0
   -6.6916    5.0544    6.9108 O   0  0  0  0  0  0  0  0  0  0  0  0
   -6.8160    6.1164   10.1412 C   0  0  1  0  0  0  0  0  0  0  0  0
   -6.9848    7.0421    9.0641 O   0  0  0  0  0  0  0  0  0  0  0  0
   -0.2134    2.0588   12.4414 C   0  0  0  0  0  0  0  0  0  0  0  0
    1.1126    2.0756   13.1182 N   0  0  0  0  0  0  0  0  0  0  0  0
  1  2  1  1  0  0  0
  1  7  1  0  0  0  0
  1 30  1  0  0  0  0
  3  4  1  1  0  0  0
  3  9  1  0  0  0  0
  3 39  1  0  0  0  0
  5 10  1  0  0  0  0
  5 26  1  0  0  0  0
  5 32  1  6  0  0  0
  6 12  1  0  0  0  0
  6 36  1  0  0  0  0
  6 19  1  1  0  0  0
  7  8  1  1  0  0  0
  7 14  1  0  0  0  0
  9 16  1  0  0  0  0
 10 11  1  1  0  0  0
 10 18  1  0  0  0  0
 12 13  1  1  0  0  0
 12 20  1  0  0  0  0
 14 15  1  6  0  0  0
 14 22  1  0  0  0  0
 16 17  1  1  0  0  0
 16 24  1  0  0  0  0
 18 19  1  1  0  0  0
 18 25  1  0  0  0  0
 20 21  1  6  0  0  0
 20 27  1  0  0  0  0
 22 23  1  6  0  0  0
 22 29  1  0  0  0  0
 24  2  1  6  0  0  0
 24 31  1  0  0  0  0
 25 26  1  0  0  0  0
 25 33  1  6  0  0  0
 27 28  1  1  0  0  0
 27 35  1  0  0  0  0
 29 30  1  0  0  0  0
 29 37  1  6  0  0  0
 31 32  1  1  0  0  0
 31 39  1  0  0  0  0
 33 34  1  0  0  0  0
 35 36  1  0  0  0  0
 35 41  1  1  0  0  0
 37 38  1  0  0  0  0
 39 40  1  6  0  0  0
 41 42  1  0  0  0  0
M  END
>  <CHROM.1>
168.26469895,-170.47875411,-116.83366784,-58.57196823,44.50559037,175.67632532
-165.36286103,-34.12250956,-60.59349798,-3.94206983,4.44279740,11.03981232
-2.50603211,-0.63437634,0.87547931

>  <Name>
2o3w_lig

>  <RI>
0

>  <Rbt.Current_Directory>
/home/itssahil/PROJECTS/Mol_Feturizer/New_Systems/rnas/2o3w

>  <Rbt.Executable>
rbdock ($Id: //depot/dev/client3/rdock/2013.1/src/exe/rbdock.cxx#4 $)

>  <Rbt.Library>
libRbt.so (2013.1, Build901 2013/11/27)

>  <Rbt.Parameter_File>
/export/apps/rDock/src/rDock_2013.1_src/data/scripts/dock_solv.prm

>  <Rbt.Receptor>
prm/blind_docking_20.prm

>  <SCORE>
37.2457

>  <SCORE.INTER>
8.53744

>  <SCORE.INTER.CONST>
1

>  <SCORE.INTER.POLAR>
0

>  <SCORE.INTER.ROT>
9

>  <SCORE.INTER.SOLV>
27.8585

>  <SCORE.INTER.VDW>
-13.1945

>  <SCORE.INTER.norm>
0.203272

>  <SCORE.INTRA>
-5.13343

>  <SCORE.INTRA.DIHEDRAL>
-14.8518

>  <SCORE.INTRA.DIHEDRAL.0>
27.8999

>  <SCORE.INTRA.POLAR>
0

>  <SCORE.INTRA.POLAR.0>
0

>  <SCORE.INTRA.REPUL>
0

>  <SCORE.INTRA.REPUL.0>
0

>  <SCORE.INTRA.SOLV>
-0.756812

>  <SCORE.INTRA.SOLV.lig_0>
-104.479

>  <SCORE.INTRA.VDW>
2.67088

>  <SCORE.INTRA.VDW.0>
-6.17816

>  <SCORE.INTRA.norm>
-0.122224

>  <SCORE.RESTR>
33.8417

>  <SCORE.RESTR.CAVITY>
33.8417

>  <SCORE.RESTR.norm>
0.805755

>  <SCORE.SYSTEM>
0

>  <SCORE.SYSTEM.CONST>
0

>  <SCORE.SYSTEM.DIHEDRAL>
0

>  <SCORE.SYSTEM.SOLV>
0

>  <SCORE.SYSTEM.norm>
0

>  <SCORE.heavy>
42

>  <SCORE.norm>
0.886803

>  <RMSD>
15.771

$$$$
2o3w_lig
 OpenBabel11021811463D
libRbt.so/2013.1/901 2013/11/27
 42 45  0  0  0  0  0  0  0  0999 V2000
   -5.2438    6.1586    8.7679 C   0  0  2  0  0  0  0  0  0  0  0  0
   -4.1411    5.2390    8.6929 O   0  0  0  0  0  0  0  0  0  0  0  0
   -5.6761    2.1220    6.0998 C   0  0  2  0  0  0  0  0  0  0  0  0
   -5.7808    1.0432    5.0724 N   0  0  0  0  0  0  0  0  0  0  0  0
   -3.2750    2.7862   10.5401 C   0  0  1  0  0  0  0  0  0  0  0  0
   -2.9644    3.5503   13.7144 C   0  0  1  0  0  0  0  0  0  0  0  0
   -4.7122    7.4513    9.4569 C   0  0  2  0  0  0  0  0  0  0  0  0
   -3.4635    7.9419    8.8480 N   0  0  0  0  0  0  0  0  0  0  0  0
   -5.3008    3.5093    5.4392 C   0  0  0  0  0  0  0  0  0  0  0  0
   -4.4625    2.0303   11.2103 C   0  0  2  0  0  0  0  0  0  0  0  0
   -5.6681    2.8234   11.3396 O   0  0  0  0  0  0  0  0  0  0  0  0
   -3.1567    4.5522   14.9094 C   0  0  2  0  0  0  0  0  0  0  0  0
   -4.4790    5.2411   14.8204 N   0  0  0  0  0  0  0  0  0  0  0  0
   -4.4232    7.2386   10.9543 C   0  0  1  0  0  0  0  0  0  0  0  0
   -3.9770    8.4568   11.5526 O   0  0  0  0  0  0  0  0  0  0  0  0
   -5.2275    4.6079    6.5663 C   0  0  2  0  0  0  0  0  0  0  0  0
   -4.8900    5.9318    5.9772 N   0  0  0  0  0  0  0  0  0  0  0  0
   -3.8232    1.5781   12.5242 C   0  0  2  0  0  0  0  0  0  0  0  0
   -4.0044    2.5734   13.5812 O   0  0  0  0  0  0  0  0  0  0  0  0
   -1.9548    5.6116   14.9098 C   0  0  1  0  0  0  0  0  0  0  0  0
   -0.7534    4.9549   15.3725 O   0  0  0  0  0  0  0  0  0  0  0  0
   -5.6919    6.6985   11.6526 C   0  0  2  0  0  0  0  0  0  0  0  0
   -5.4489    6.5142   13.0279 O   0  0  0  0  0  0  0  0  0  0  0  0
   -4.1477    4.2202    7.6525 C   0  0  2  0  0  0  0  0  0  0  0  0
   -2.3326    1.3567   12.2168 C   0  0  2  0  0  0  0  0  0  0  0  0
   -2.0731    2.3057   11.1850 O   0  0  0  0  0  0  0  0  0  0  0  0
   -1.6920    6.2546   13.4658 C   0  0  2  0  0  0  0  0  0  0  0  0
   -2.8024    7.0974   13.1607 O   0  0  0  0  0  0  0  0  0  0  0  0
   -6.1100    5.3489   10.9792 C   0  0  2  0  0  0  0  0  0  0  0  0
   -6.3472    5.5640    9.5519 O   0  0  0  0  0  0  0  0  0  0  0  0
   -4.4191    2.8459    8.3027 C   0  0  2  0  0  0  0  0  0  0  0  0
   -3.2494    2.5736    9.1227 O   0  0  0  0  0  0  0  0  0  0  0  0
   -1.9629   -0.0876   11.7568 C   0  0  0  0  0  0  0  0  0  0  0  0
   -0.8713   -0.0256   10.8439 O   0  0  0  0  0  0  0  0  0  0  0  0
   -1.5462    5.1282   12.3740 C   0  0  1  0  0  0  0  0  0  0  0  0
   -2.7880    4.3379   12.4331 O   0  0  0  0  0  0  0  0  0  0  0  0
   -7.3516    4.7501   11.5986 C   0  0  0  0  0  0  0  0  0  0  0  0
   -8.4398    5.6293   11.4501 O   0  0  0  0  0  0  0  0  0  0  0  0
   -4.5929    1.7343    7.1847 C   0  0  1  0  0  0  0  0  0  0  0  0
   -4.9930    0.4960    7.7780 O   0  0  0  0  0  0  0  0  0  0  0  0
   -1.3158    5.6803   10.9006 C   0  0  0  0  0  0  0  0  0  0  0  0
   -1.6688    7.1110   10.6884 N   0  0  0  0  0  0  0  0  0  0  0  0
  1  2  1  1  0  0  0
  1  7  1  0  0  0  0
  1 30  1  0  0  0  0
  3  4  1  6  0  0  0
  3  9  1  0  0  0  0
  3 39  1  0  0  0  0
  5 10  1  0  0  0  0
  5 26  1  0  0  0  0
  5 32  1  6  0  0  0
  6 12  1  0  0  0  0
  6 36  1  0  0  0  0
  6 19  1  6  0  0  0
  7  8  1  6  0  0  0
  7 14  1  0  0  0  0
  9 16  1  0  0  0  0
 10 11  1  1  0  0  0
 10 18  1  0  0  0  0
 12 13  1  6  0  0  0
 12 20  1  0  0  0  0
 14 15  1  1  0  0  0
 14 22  1  0  0  0  0
 16 17  1  6  0  0  0
 16 24  1  0  0  0  0
 18 19  1  1  0  0  0
 18 25  1  0  0  0  0
 20 21  1  6  0  0  0
 20 27  1  0  0  0  0
 22 23  1  1  0  0  0
 22 29  1  0  0  0  0
 24  2  1  1  0  0  0
 24 31  1  0  0  0  0
 25 26  1  0  0  0  0
 25 33  1  6  0  0  0
 27 28  1  6  0  0  0
 27 35  1  0  0  0  0
 29 30  1  0  0  0  0
 29 37  1  1  0  0  0
 31 32  1  1  0  0  0
 31 39  1  0  0  0  0
 33 34  1  0  0  0  0
 35 36  1  0  0  0  0
 35 41  1  6  0  0  0
 37 38  1  0  0  0  0
 39 40  1  1  0  0  0
 41 42  1  0  0  0  0
M  END
>  <CHROM.1>
-154.59578665,54.00207218,-176.80597692,-91.34042120,15.23482504,147.93867263
61.04222134,100.60084004,-17.48962994,-3.98118908,4.30292221,10.69015814
2.26458862,1.04998969,-2.52524169

>  <Name>
2o3w_lig

>  <RI>
0

>  <Rbt.Current_Directory>
/home/itssahil/PROJECTS/Mol_Feturizer/New_Systems/rnas/2o3w

>  <Rbt.Executable>
rbdock ($Id: //depot/dev/client3/rdock/2013.1/src/exe/rbdock.cxx#4 $)

>  <Rbt.Library>
libRbt.so (2013.1, Build901 2013/11/27)

>  <Rbt.Parameter_File>
/export/apps/rDock/src/rDock_2013.1_src/data/scripts/dock_solv.prm

>  <Rbt.Receptor>
prm/blind_docking_20.prm

>  <SCORE>
64.7025

>  <SCORE.INTER>
12.5404

>  <SCORE.INTER.CONST>
1

>  <SCORE.INTER.POLAR>
-0.592376

>  <SCORE.INTER.ROT>
9

>  <SCORE.INTER.SOLV>
24.783

>  <SCORE.INTER.VDW>
-7.52613

>  <SCORE.INTER.norm>
0.298582

>  <SCORE.INTRA>
17.2062

>  <SCORE.INTRA.DIHEDRAL>
-2.22807

>  <SCORE.INTRA.DIHEDRAL.0>
27.8999

>  <SCORE.INTRA.POLAR>
0

>  <SCORE.INTRA.POLAR.0>
0

>  <SCORE.INTRA.REPUL>
0.678132

>  <SCORE.INTRA.REPUL.0>
0

>  <SCORE.INTRA.SOLV>
10.6446

>  <SCORE.INTRA.SOLV.lig_0>
-104.479

>  <SCORE.INTRA.VDW>
9.60725

>  <SCORE.INTRA.VDW.0>
-6.17816

>  <SCORE.INTRA.norm>
0.409671

>  <SCORE.RESTR>
34.9559

>  <SCORE.RESTR.CAVITY>
34.9559

>  <SCORE.RESTR.norm>
0.832283

>  <SCORE.SYSTEM>
0

>  <SCORE.SYSTEM.CONST>
0

>  <SCORE.SYSTEM.DIHEDRAL>
0

>  <SCORE.SYSTEM.SOLV>
0

>  <SCORE.SYSTEM.norm>
0

>  <SCORE.heavy>
42

>  <SCORE.norm>
1.54054

>  <RMSD>
15.778

$$$$
2o3w_lig
 OpenBabel11021811463D
libRbt.so/2013.1/901 2013/11/27
 42 45  0  0  0  0  0  0  0  0999 V2000
   -5.4708    2.5103   10.5988 C   0  0  2  0  0  0  0  0  0  0  0  0
   -5.1377    3.7939   11.1545 O   0  0  0  0  0  0  0  0  0  0  0  0
   -7.9466    6.1928    8.8848 C   0  0  2  0  0  0  0  0  0  0  0  0
   -8.7827    7.3288    8.3940 N   0  0  0  0  0  0  0  0  0  0  0  0
   -3.5482    6.0239   10.8869 C   0  0  1  0  0  0  0  0  0  0  0  0
   -2.2153    5.5638   13.5237 C   0  0  1  0  0  0  0  0  0  0  0  0
   -4.3065    1.5408   10.9630 C   0  0  2  0  0  0  0  0  0  0  0  0
   -3.9603    1.5880   12.3942 N   0  0  0  0  0  0  0  0  0  0  0  0
   -8.3599    5.7675   10.3511 C   0  0  0  0  0  0  0  0  0  0  0  0
   -2.2975    6.9547   10.9011 C   0  0  2  0  0  0  0  0  0  0  0  0
   -1.0424    6.2584   10.7039 O   0  0  0  0  0  0  0  0  0  0  0  0
   -2.7320    5.2479   14.9735 C   0  0  2  0  0  0  0  0  0  0  0  0
   -1.7029    5.6037   15.9959 N   0  0  0  0  0  0  0  0  0  0  0  0
   -3.0172    1.8571   10.1829 C   0  0  1  0  0  0  0  0  0  0  0  0
   -1.9910    0.9214   10.5179 O   0  0  0  0  0  0  0  0  0  0  0  0
   -7.4611    4.5549   10.8031 C   0  0  2  0  0  0  0  0  0  0  0  0
   -7.8335    4.1184   12.1759 N   0  0  0  0  0  0  0  0  0  0  0  0
   -2.4624    7.6531   12.2518 C   0  0  2  0  0  0  0  0  0  0  0  0
   -1.7902    6.9176   13.3233 O   0  0  0  0  0  0  0  0  0  0  0  0
   -3.1257    3.6978   15.0684 C   0  0  1  0  0  0  0  0  0  0  0  0
   -4.3615    3.4848   14.3498 O   0  0  0  0  0  0  0  0  0  0  0  0
   -3.3165    1.8476    8.6665 C   0  0  2  0  0  0  0  0  0  0  0  0
   -2.1422    2.1190    7.9373 O   0  0  0  0  0  0  0  0  0  0  0  0
   -5.9324    4.9518   10.7695 C   0  0  2  0  0  0  0  0  0  0  0  0
   -3.9773    7.7415   12.5019 C   0  0  2  0  0  0  0  0  0  0  0  0
   -4.4799    6.5824   11.8414 O   0  0  0  0  0  0  0  0  0  0  0  0
   -1.9908    2.7307   14.4815 C   0  0  2  0  0  0  0  0  0  0  0  0
   -0.8753    2.7868   15.3696 O   0  0  0  0  0  0  0  0  0  0  0  0
   -4.4188    2.9148    8.3570 C   0  0  2  0  0  0  0  0  0  0  0  0
   -5.6231    2.6172    9.1321 O   0  0  0  0  0  0  0  0  0  0  0  0
   -5.4691    5.4332    9.3771 C   0  0  2  0  0  0  0  0  0  0  0  0
   -4.1146    5.9243    9.5738 O   0  0  0  0  0  0  0  0  0  0  0  0
   -4.6593    9.0361   11.9604 C   0  0  0  0  0  0  0  0  0  0  0  0
   -6.0438    9.0134   12.2942 O   0  0  0  0  0  0  0  0  0  0  0  0
   -1.5615    3.1904   13.0370 C   0  0  1  0  0  0  0  0  0  0  0  0
   -1.1135    4.5876   13.1684 O   0  0  0  0  0  0  0  0  0  0  0  0
   -4.7797    2.9695    6.8905 C   0  0  0  0  0  0  0  0  0  0  0  0
   -3.6885    3.4440    6.1400 O   0  0  0  0  0  0  0  0  0  0  0  0
   -6.4169    6.5923    8.8537 C   0  0  1  0  0  0  0  0  0  0  0  0
   -6.0818    6.9327    7.5055 O   0  0  0  0  0  0  0  0  0  0  0  0
   -0.4113    2.3030   12.3902 C   0  0  0  0  0  0  0  0  0  0  0  0
    0.9024    2.3451   13.0896 N   0  0  0  0  0  0  0  0  0  0  0  0
  1  2  1  6  0  0  0
  1  7  1  0  0  0  0
  1 30  1  0  0  0  0
  3  4  1  1  0  0  0
  3  9  1  0  0  0  0
  3 39  1  0  0  0  0
  5 10  1  0  0  0  0
  5 26  1  0  0  0  0
  5 32  1  6  0  0  0
  6 12  1  0  0  0  0
  6 36  1  0  0  0  0
  6 19  1  1  0  0  0
  7  8  1  1  0  0  0
  7 14  1  0  0  0  0
  9 16  1  0  0  0  0
 10 11  1  1  0  0  0
 10 18  1  0  0  0  0
 12 13  1  1  0  0  0
 12 20  1  0  0  0  0
 14 15  1  6  0  0  0
 14 22  1  0  0  0  0
 16 17  1  1  0  0  0
 16 24  1  0  0  0  0
 18 19  1  1  0  0  0
 18 25  1  0  0  0  0
 20 21  1  6  0  0  0
 20 27  1  0  0  0  0
 22 23  1  6  0  0  0
 22 29  1  0  0  0  0
 24  2  1  6  0  0  0
 24 31  1  0  0  0  0
 25 26  1  0  0  0  0
 25 33  1  6  0  0  0
 27 28  1  1  0  0  0
 27 35  1  0  0  0  0
 29 30  1  0  0  0  0
 29 37  1  6  0  0  0
 31 32  1  1  0  0  0
 31 39  1  0  0  0  0
 33 34  1  0  0  0  0
 35 36  1  0  0  0  0
 35 41  1  1  0  0  0
 37 38  1  0  0  0  0
 39 40  1  6  0  0  0
 41 42  1  0  0  0  0
M  END
>  <CHROM.1>
169.27707695,-162.66422093,-122.80191060,-58.34157188,44.12962130,-178.08945651
-66.65268667,-6.76640783,-64.27181959,-3.91925710,4.61405406,11.21479175
-2.86612260,-0.77182800,0.74361462

>  <Name>
2o3w_lig

>  <RI>
0

>  <Rbt.Current_Directory>
/home/itssahil/PROJECTS/Mol_Feturizer/New_Systems/rnas/2o3w

>  <Rbt.Executable>
rbdock ($Id: //depot/dev/client3/rdock/2013.1/src/exe/rbdock.cxx#4 $)

>  <Rbt.Library>
libRbt.so (2013.1, Build901 2013/11/27)

>  <Rbt.Parameter_File>
/export/apps/rDock/src/rDock_2013.1_src/data/scripts/dock_solv.prm

>  <Rbt.Receptor>
prm/blind_docking_20.prm

>  <SCORE>
41.4212

>  <SCORE.INTER>
4.87733

>  <SCORE.INTER.CONST>
1

>  <SCORE.INTER.POLAR>
-0.479078

>  <SCORE.INTER.ROT>
9

>  <SCORE.INTER.SOLV>
30.2568

>  <SCORE.INTER.VDW>
-14.8371

>  <SCORE.INTER.norm>
0.116127

>  <SCORE.INTRA>
4.77462

>  <SCORE.INTRA.DIHEDRAL>
-10.3897

>  <SCORE.INTRA.DIHEDRAL.0>
27.8999

>  <SCORE.INTRA.POLAR>
0

>  <SCORE.INTRA.POLAR.0>
0

>  <SCORE.INTRA.REPUL>
0.293198

>  <SCORE.INTRA.REPUL.0>
0

>  <SCORE.INTRA.SOLV>
2.91468

>  <SCORE.INTRA.SOLV.lig_0>
-104.479

>  <SCORE.INTRA.VDW>
7.04615

>  <SCORE.INTRA.VDW.0>
-6.17816

>  <SCORE.INTRA.norm>
0.113681

>  <SCORE.RESTR>
31.7693

>  <SCORE.RESTR.CAVITY>
31.7693

>  <SCORE.RESTR.norm>
0.756412

>  <SCORE.SYSTEM>
0

>  <SCORE.SYSTEM.CONST>
0

>  <SCORE.SYSTEM.DIHEDRAL>
0

>  <SCORE.SYSTEM.SOLV>
0

>  <SCORE.SYSTEM.norm>
0

>  <SCORE.heavy>
42

>  <SCORE.norm>
0.98622

>  <RMSD>
15.803

$$$$
2o3w_lig
 OpenBabel11021811463D
libRbt.so/2013.1/901 2013/11/27
 42 45  0  0  0  0  0  0  0  0999 V2000
   -1.9494    4.5846   11.8959 C   0  0  2  0  0  0  0  0  0  0  0  0
   -3.3043    4.9415   11.5731 O   0  0  0  0  0  0  0  0  0  0  0  0
   -3.3843    8.9620   13.1934 C   0  0  2  0  0  0  0  0  0  0  0  0
   -3.7582   10.3803   13.4744 N   0  0  0  0  0  0  0  0  0  0  0  0
   -5.9521    4.9835   12.0427 C   0  0  1  0  0  0  0  0  0  0  0  0
   -6.0653    3.3349    9.5934 C   0  0  1  0  0  0  0  0  0  0  0  0
   -1.8837    3.0281   11.9261 C   0  0  2  0  0  0  0  0  0  0  0  0
   -2.4756    2.4154   10.7241 N   0  0  0  0  0  0  0  0  0  0  0  0
   -2.9005    8.7814   11.6984 C   0  0  0  0  0  0  0  0  0  0  0  0
   -6.5764    3.6030   12.4108 C   0  0  2  0  0  0  0  0  0  0  0  0
   -5.6328    2.5039   12.3851 O   0  0  0  0  0  0  0  0  0  0  0  0
   -6.1971    4.6329    8.7179 C   0  0  2  0  0  0  0  0  0  0  0  0
   -7.2048    4.4437    7.6318 N   0  0  0  0  0  0  0  0  0  0  0  0
   -2.6253    2.4354   13.1384 C   0  0  1  0  0  0  0  0  0  0  0  0
   -2.5056    1.0118   13.1474 O   0  0  0  0  0  0  0  0  0  0  0  0
   -2.5001    7.2747   11.4702 C   0  0  2  0  0  0  0  0  0  0  0  0
   -2.0252    7.0712   10.0749 N   0  0  0  0  0  0  0  0  0  0  0  0
   -7.7218    3.5163   11.4009 C   0  0  2  0  0  0  0  0  0  0  0  0
   -7.2966    2.8690   10.1595 O   0  0  0  0  0  0  0  0  0  0  0  0
   -4.7625    5.0104    8.1126 C   0  0  1  0  0  0  0  0  0  0  0  0
   -3.9364    5.5482    9.1695 O   0  0  0  0  0  0  0  0  0  0  0  0
   -2.0669    3.0569   14.4388 C   0  0  2  0  0  0  0  0  0  0  0  0
   -2.7241    2.5122   15.5594 O   0  0  0  0  0  0  0  0  0  0  0  0
   -3.7278    6.3226   11.7565 C   0  0  2  0  0  0  0  0  0  0  0  0
   -8.1749    4.9640   11.1476 C   0  0  2  0  0  0  0  0  0  0  0  0
   -6.9741    5.7119   11.3244 O   0  0  0  0  0  0  0  0  0  0  0  0
   -4.0231    3.7588    7.4385 C   0  0  2  0  0  0  0  0  0  0  0  0
   -4.7422    3.4206    6.2532 O   0  0  0  0  0  0  0  0  0  0  0  0
   -2.2584    4.6094   14.3859 C   0  0  2  0  0  0  0  0  0  0  0  0
   -1.5759    5.1494   13.2101 O   0  0  0  0  0  0  0  0  0  0  0  0
   -4.2914    6.4853   13.1852 C   0  0  2  0  0  0  0  0  0  0  0  0
   -5.5065    5.6869   13.2097 O   0  0  0  0  0  0  0  0  0  0  0  0
   -9.3008    5.4770   12.0982 C   0  0  0  0  0  0  0  0  0  0  0  0
   -9.4147    6.8912   11.9721 O   0  0  0  0  0  0  0  0  0  0  0  0
   -3.9933    2.5324    8.4270 C   0  0  1  0  0  0  0  0  0  0  0  0
   -5.3975    2.2515    8.7729 O   0  0  0  0  0  0  0  0  0  0  0  0
   -1.7318    5.3027   15.6210 C   0  0  0  0  0  0  0  0  0  0  0  0
   -0.4584    4.8040   15.9513 O   0  0  0  0  0  0  0  0  0  0  0  0
   -4.6148    8.0103   13.4773 C   0  0  1  0  0  0  0  0  0  0  0  0
   -4.9923    8.1812   14.8462 O   0  0  0  0  0  0  0  0  0  0  0  0
   -3.3049    1.2317    7.8246 C   0  0  0  0  0  0  0  0  0  0  0  0
   -1.8198    1.2764    7.7298 N   0  0  0  0  0  0  0  0  0  0  0  0
  1  2  1  1  0  0  0
  1  7  1  0  0  0  0
  1 30  1  0  0  0  0
  3  4  1  6  0  0  0
  3  9  1  0  0  0  0
  3 39  1  0  0  0  0
  5 10  1  0  0  0  0
  5 26  1  0  0  0  0
  5 32  1  1  0  0  0
  6 12  1  0  0  0  0
  6 36  1  0  0  0  0
  6 19  1  6  0  0  0
  7  8  1  6  0  0  0
  7 14  1  0  0  0  0
  9 16  1  0  0  0  0
 10 11  1  6  0  0  0
 10 18  1  0  0  0  0
 12 13  1  6  0  0  0
 12 20  1  0  0  0  0
 14 15  1  1  0  0  0
 14 22  1  0  0  0  0
 16 17  1  6  0  0  0
 16 24  1  0  0  0  0
 18 19  1  6  0  0  0
 18 25  1  0  0  0  0
 20 21  1  1  0  0  0
 20 27  1  0  0  0  0
 22 23  1  1  0  0  0
 22 29  1  0  0  0  0
 24  2  1  1  0  0  0
 24 31  1  0  0  0  0
 25 26  1  0  0  0  0
 25 33  1  1  0  0  0
 27 28  1  6  0  0  0
 27 35  1  0  0  0  0
 29 30  1  0  0  0  0
 29 37  1  1  0  0  0
 31 32  1  6  0  0  0
 31 39  1  0  0  0  0
 33 34  1  0  0  0  0
 35 36  1  0  0  0  0
 35 41  1  6  0  0  0
 37 38  1  0  0  0  0
 39 40  1  1  0  0  0
 41 42  1  0  0  0  0
M  END
>  <CHROM.1>
166.94068466,142.88069537,-82.90590783,-47.55701753,32.80791180,166.86679731
45.90163404,-1.17461118,74.50146402,-4.33944229,4.71945293,11.51231960,-1.09815958
0.55919652,-2.33174703

>  <Name>
2o3w_lig

>  <RI>
0

>  <Rbt.Current_Directory>
/home/itssahil/PROJECTS/Mol_Feturizer/New_Systems/rnas/2o3w

>  <Rbt.Executable>
rbdock ($Id: //depot/dev/client3/rdock/2013.1/src/exe/rbdock.cxx#4 $)

>  <Rbt.Library>
libRbt.so (2013.1, Build901 2013/11/27)

>  <Rbt.Parameter_File>
/export/apps/rDock/src/rDock_2013.1_src/data/scripts/dock_solv.prm

>  <Rbt.Receptor>
prm/blind_docking_20.prm

>  <SCORE>
47.3506

>  <SCORE.INTER>
11.4487

>  <SCORE.INTER.CONST>
1

>  <SCORE.INTER.POLAR>
-0.252235

>  <SCORE.INTER.ROT>
9

>  <SCORE.INTER.SOLV>
26.9598

>  <SCORE.INTER.VDW>
-10.1134

>  <SCORE.INTER.norm>
0.272588

>  <SCORE.INTRA>
5.20515

>  <SCORE.INTRA.DIHEDRAL>
-6.79841

>  <SCORE.INTRA.DIHEDRAL.0>
27.8999

>  <SCORE.INTRA.POLAR>
0

>  <SCORE.INTRA.POLAR.0>
0

>  <SCORE.INTRA.REPUL>
0

>  <SCORE.INTRA.REPUL.0>
0

>  <SCORE.INTRA.SOLV>
5.60981

>  <SCORE.INTRA.SOLV.lig_0>
-104.479

>  <SCORE.INTRA.VDW>
5.79945

>  <SCORE.INTRA.VDW.0>
-6.17816

>  <SCORE.INTRA.norm>
0.123932

>  <SCORE.RESTR>
30.6968

>  <SCORE.RESTR.CAVITY>
30.6968

>  <SCORE.RESTR.norm>
0.730876

>  <SCORE.SYSTEM>
0

>  <SCORE.SYSTEM.CONST>
0

>  <SCORE.SYSTEM.DIHEDRAL>
0

>  <SCORE.SYSTEM.SOLV>
0

>  <SCORE.SYSTEM.norm>
0

>  <SCORE.heavy>
42

>  <SCORE.norm>
1.1274

>  <RMSD>
15.806

$$$$
2o3w_lig
 OpenBabel11021811463D
libRbt.so/2013.1/901 2013/11/27
 42 45  0  0  0  0  0  0  0  0999 V2000
   -3.3695    5.4560   14.6202 C   0  0  2  0  0  0  0  0  0  0  0  0
   -2.7800    5.9991   13.4265 O   0  0  0  0  0  0  0  0  0  0  0  0
   -5.7047    8.9624   12.2177 C   0  0  2  0  0  0  0  0  0  0  0  0
   -6.6115    9.8216   11.3993 N   0  0  0  0  0  0  0  0  0  0  0  0
   -4.7104    4.6582   11.0866 C   0  0  1  0  0  0  0  0  0  0  0  0
   -3.9798    3.3279    8.4361 C   0  0  1  0  0  0  0  0  0  0  0  0
   -2.2006    4.9294   15.5059 C   0  0  2  0  0  0  0  0  0  0  0  0
   -1.1284    5.9256   15.6750 N   0  0  0  0  0  0  0  0  0  0  0  0
   -4.1856    9.2497   11.8835 C   0  0  0  0  0  0  0  0  0  0  0  0
   -4.5859    5.8440   10.0820 C   0  0  2  0  0  0  0  0  0  0  0  0
   -5.7423    6.0151    9.2261 O   0  0  0  0  0  0  0  0  0  0  0  0
   -3.8130    2.3413    7.2246 C   0  0  2  0  0  0  0  0  0  0  0  0
   -4.4812    2.8799    6.0022 N   0  0  0  0  0  0  0  0  0  0  0  0
   -1.5454    3.6661   14.9181 C   0  0  1  0  0  0  0  0  0  0  0  0
   -0.5079    3.1966   15.7807 O   0  0  0  0  0  0  0  0  0  0  0  0
   -3.2812    8.3327   12.7911 C   0  0  2  0  0  0  0  0  0  0  0  0
   -1.8420    8.5877   12.5128 N   0  0  0  0  0  0  0  0  0  0  0  0
   -3.2798    5.4925    9.3680 C   0  0  2  0  0  0  0  0  0  0  0  0
   -3.5187    4.6618    8.1874 O   0  0  0  0  0  0  0  0  0  0  0  0
   -4.4101    0.9090    7.6232 C   0  0  1  0  0  0  0  0  0  0  0  0
   -3.5047    0.2664    8.5485 O   0  0  0  0  0  0  0  0  0  0  0  0
   -2.6247    2.5830   14.6920 C   0  0  2  0  0  0  0  0  0  0  0  0
   -2.0382    1.4136   14.1696 O   0  0  0  0  0  0  0  0  0  0  0  0
   -3.6072    6.8072   12.5415 C   0  0  2  0  0  0  0  0  0  0  0  0
   -2.4154    4.7537   10.4036 C   0  0  2  0  0  0  0  0  0  0  0  0
   -3.3829    4.1009   11.2222 O   0  0  0  0  0  0  0  0  0  0  0  0
   -5.8689    1.0040    8.2793 C   0  0  2  0  0  0  0  0  0  0  0  0
   -6.7770    1.4059    7.2545 O   0  0  0  0  0  0  0  0  0  0  0  0
   -3.7112    3.1414   13.7136 C   0  0  2  0  0  0  0  0  0  0  0  0
   -4.2979    4.3591   14.2730 O   0  0  0  0  0  0  0  0  0  0  0  0
   -5.0913    6.4628   12.7945 C   0  0  2  0  0  0  0  0  0  0  0  0
   -5.2467    5.0888   12.3444 O   0  0  0  0  0  0  0  0  0  0  0  0
   -1.4842    5.6694   11.2570 C   0  0  0  0  0  0  0  0  0  0  0  0
   -0.7315    4.8645   12.1595 O   0  0  0  0  0  0  0  0  0  0  0  0
   -5.8809    2.0483    9.4589 C   0  0  1  0  0  0  0  0  0  0  0  0
   -5.4276    3.3248    8.8798 O   0  0  0  0  0  0  0  0  0  0  0  0
   -4.8145    2.1455   13.4402 C   0  0  0  0  0  0  0  0  0  0  0  0
   -5.7972    2.7244   12.6165 O   0  0  0  0  0  0  0  0  0  0  0  0
   -6.0297    7.4357   11.9647 C   0  0  1  0  0  0  0  0  0  0  0  0
   -7.3993    7.2172   12.3143 O   0  0  0  0  0  0  0  0  0  0  0  0
   -7.3025    2.2312   10.1474 C   0  0  0  0  0  0  0  0  0  0  0  0
   -7.5710    1.3435   11.3121 N   0  0  0  0  0  0  0  0  0  0  0  0
  1  2  1  6  0  0  0
  1  7  1  0  0  0  0
  1 30  1  0  0  0  0
  3  4  1  6  0  0  0
  3  9  1  0  0  0  0
  3 39  1  0  0  0  0
  5 10  1  0  0  0  0
  5 26  1  0  0  0  0
  5 32  1  1  0  0  0
  6 12  1  0  0  0  0
  6 36  1  0  0  0  0
  6 19  1  6  0  0  0
  7  8  1  6  0  0  0
  7 14  1  0  0  0  0
  9 16  1  0  0  0  0
 10 11  1  6  0  0  0
 10 18  1  0  0  0  0
 12 13  1  6  0  0  0
 12 20  1  0  0  0  0
 14 15  1  1  0  0  0
 14 22  1  0  0  0  0
 16 17  1  6  0  0  0
 16 24  1  0  0  0  0
 18 19  1  6  0  0  0
 18 25  1  0  0  0  0
 20 21  1  1  0  0  0
 20 27  1  0  0  0  0
 22 23  1  6  0  0  0
 22 29  1  0  0  0  0
 24  2  1  1  0  0  0
 24 31  1  0  0  0  0
 25 26  1  0  0  0  0
 25 33  1  1  0  0  0
 27 28  1  6  0  0  0
 27 35  1  0  0  0  0
 29 30  1  0  0  0  0
 29 37  1  1  0  0  0
 31 32  1  6  0  0  0
 31 39  1  0  0  0  0
 33 34  1  0  0  0  0
 35 36  1  0  0  0  0
 35 41  1  6  0  0  0
 37 38  1  0  0  0  0
 39 40  1  1  0  0  0
 41 42  1  0  0  0  0
M  END
>  <CHROM.1>
-167.52167559,-25.96280925,-162.35747986,-68.63801627,101.32027962,-179.30189617
176.78531067,-46.26722729,91.12100973,-4.11348439,4.50639214,11.47010822
-0.93262636,0.99447949,-2.75417417

>  <Name>
2o3w_lig

>  <RI>
0

>  <Rbt.Current_Directory>
/home/itssahil/PROJECTS/Mol_Feturizer/New_Systems/rnas/2o3w

>  <Rbt.Executable>
rbdock ($Id: //depot/dev/client3/rdock/2013.1/src/exe/rbdock.cxx#4 $)

>  <Rbt.Library>
libRbt.so (2013.1, Build901 2013/11/27)

>  <Rbt.Parameter_File>
/export/apps/rDock/src/rDock_2013.1_src/data/scripts/dock_solv.prm

>  <Rbt.Receptor>
prm/blind_docking_20.prm

>  <SCORE>
48.9991

>  <SCORE.INTER>
5.35719

>  <SCORE.INTER.CONST>
1

>  <SCORE.INTER.POLAR>
-0.917522

>  <SCORE.INTER.ROT>
9

>  <SCORE.INTER.SOLV>
26.0249

>  <SCORE.INTER.VDW>
-11.6451

>  <SCORE.INTER.norm>
0.127552

>  <SCORE.INTRA>
10.2963

>  <SCORE.INTRA.DIHEDRAL>
-11.6077

>  <SCORE.INTRA.DIHEDRAL.0>
27.8999

>  <SCORE.INTRA.POLAR>
0

>  <SCORE.INTRA.POLAR.0>
0

>  <SCORE.INTRA.REPUL>
0

>  <SCORE.INTRA.REPUL.0>
0

>  <SCORE.INTRA.SOLV>
3.50544

>  <SCORE.INTRA.SOLV.lig_0>
-104.479

>  <SCORE.INTRA.VDW>
14.3475

>  <SCORE.INTRA.VDW.0>
-6.17816

>  <SCORE.INTRA.norm>
0.24515

>  <SCORE.RESTR>
33.3456

>  <SCORE.RESTR.CAVITY>
33.3456

>  <SCORE.RESTR.norm>
0.793943

>  <SCORE.SYSTEM>
0

>  <SCORE.SYSTEM.CONST>
0

>  <SCORE.SYSTEM.DIHEDRAL>
0

>  <SCORE.SYSTEM.SOLV>
0

>  <SCORE.SYSTEM.norm>
0

>  <SCORE.heavy>
42

>  <SCORE.norm>
1.16665

>  <RMSD>
15.809

$$$$
2o3w_lig
 OpenBabel11021811463D
libRbt.so/2013.1/901 2013/11/27
 42 45  0  0  0  0  0  0  0  0999 V2000
   -3.9109    4.0808    8.2030 C   0  0  2  0  0  0  0  0  0  0  0  0
   -5.3042    4.3327    8.4529 O   0  0  0  0  0  0  0  0  0  0  0  0
   -8.1450    4.3096   11.7279 C   0  0  2  0  0  0  0  0  0  0  0  0
   -8.7502    4.2487   13.0919 N   0  0  0  0  0  0  0  0  0  0  0  0
   -4.2035    6.3172   11.2374 C   0  0  1  0  0  0  0  0  0  0  0  0
   -2.0131    5.4126   13.3039 C   0  0  1  0  0  0  0  0  0  0  0  0
   -3.8372    3.0343    7.0508 C   0  0  2  0  0  0  0  0  0  0  0  0
   -4.6740    3.4065    5.8967 N   0  0  0  0  0  0  0  0  0  0  0  0
   -7.4530    2.9398   11.3453 C   0  0  0  0  0  0  0  0  0  0  0  0
   -3.0760    7.3790   11.0585 C   0  0  2  0  0  0  0  0  0  0  0  0
   -2.0011    6.9556   10.1842 O   0  0  0  0  0  0  0  0  0  0  0  0
   -2.5812    5.2635   14.7612 C   0  0  2  0  0  0  0  0  0  0  0  0
   -1.6046    5.7742   15.7694 N   0  0  0  0  0  0  0  0  0  0  0  0
   -4.2976    1.6357    7.5013 C   0  0  1  0  0  0  0  0  0  0  0  0
   -4.1761    0.7020    6.4270 O   0  0  0  0  0  0  0  0  0  0  0  0
   -6.8551    3.0584    9.8924 C   0  0  2  0  0  0  0  0  0  0  0  0
   -6.2075    1.7797    9.4933 N   0  0  0  0  0  0  0  0  0  0  0  0
   -2.6822    7.6420   12.5128 C   0  0  2  0  0  0  0  0  0  0  0  0
   -1.6144    6.7433   12.9520 O   0  0  0  0  0  0  0  0  0  0  0  0
   -2.9392    3.7259   15.0343 C   0  0  1  0  0  0  0  0  0  0  0  0
   -4.1384    3.3882   14.3017 O   0  0  0  0  0  0  0  0  0  0  0  0
   -3.4722    1.1923    8.7306 C   0  0  2  0  0  0  0  0  0  0  0  0
   -3.8702   -0.0938    9.1454 O   0  0  0  0  0  0  0  0  0  0  0  0
   -5.8005    4.2324    9.8182 C   0  0  2  0  0  0  0  0  0  0  0  0
   -3.9606    7.4358   13.3427 C   0  0  2  0  0  0  0  0  0  0  0  0
   -4.6690    6.4460   12.6004 O   0  0  0  0  0  0  0  0  0  0  0  0
   -1.7570    2.7283   14.6164 C   0  0  2  0  0  0  0  0  0  0  0  0
   -0.6809    2.9277   15.5322 O   0  0  0  0  0  0  0  0  0  0  0  0
   -3.6737    2.2321    9.8829 C   0  0  2  0  0  0  0  0  0  0  0  0
   -3.2629    3.5593    9.4253 O   0  0  0  0  0  0  0  0  0  0  0  0
   -6.3929    5.5967   10.2344 C   0  0  2  0  0  0  0  0  0  0  0  0
   -5.2591    6.5057   10.2859 O   0  0  0  0  0  0  0  0  0  0  0  0
   -4.8293    8.7163   13.5423 C   0  0  0  0  0  0  0  0  0  0  0  0
   -5.9451    8.4033   14.3705 O   0  0  0  0  0  0  0  0  0  0  0  0
   -1.2800    3.0180   13.1431 C   0  0  1  0  0  0  0  0  0  0  0  0
   -0.8733    4.4336   13.1156 O   0  0  0  0  0  0  0  0  0  0  0  0
   -2.8935    1.8787   11.1280 C   0  0  0  0  0  0  0  0  0  0  0  0
   -3.6944    2.0612   12.2702 O   0  0  0  0  0  0  0  0  0  0  0  0
   -7.0874    5.4830   11.6558 C   0  0  1  0  0  0  0  0  0  0  0  0
   -7.7653    6.7019   11.9726 O   0  0  0  0  0  0  0  0  0  0  0  0
   -0.0820    2.0924   12.6565 C   0  0  0  0  0  0  0  0  0  0  0  0
    0.2436    0.9432   13.5453 N   0  0  0  0  0  0  0  0  0  0  0  0
  1  2  1  1  0  0  0
  1  7  1  0  0  0  0
  1 30  1  0  0  0  0
  3  4  1  1  0  0  0
  3  9  1  0  0  0  0
  3 39  1  0  0  0  0
  5 10  1  0  0  0  0
  5 26  1  0  0  0  0
  5 32  1  6  0  0  0
  6 12  1  0  0  0  0
  6 36  1  0  0  0  0
  6 19  1  1  0  0  0
  7  8  1  6  0  0  0
  7 14  1  0  0  0  0
  9 16  1  0  0  0  0
 10 11  1  6  0  0  0
 10 18  1  0  0  0  0
 12 13  1  1  0  0  0
 12 20  1  0  0  0  0
 14 15  1  6  0  0  0
 14 22  1  0  0  0  0
 16 17  1  1  0  0  0
 16 24  1  0  0  0  0
 18 19  1  1  0  0  0
 18 25  1  0  0  0  0
 20 21  1  6  0  0  0
 20 27  1  0  0  0  0
 22 23  1  1  0  0  0
 22 29  1  0  0  0  0
 24  2  1  6  0  0  0
 24 31  1  0  0  0  0
 25 26  1  0  0  0  0
 25 33  1  6  0  0  0
 27 28  1  1  0  0  0
 27 35  1  0  0  0  0
 29 30  1  0  0  0  0
 29 37  1  1  0  0  0
 31 32  1  1  0  0  0
 31 39  1  0  0  0  0
 33 34  1  0  0  0  0
 35 36  1  0  0  0  0
 35 41  1  1  0  0  0
 37 38  1  0  0  0  0
 39 40  1  6  0  0  0
 41 42  1  0  0  0  0
M  END
>  <CHROM.1>
128.56465452,177.60456122,-82.18762694,-78.95239509,-116.44833208,-177.52030489
-136.12509313,-64.56291332,10.70458411,-3.97514697,4.25974476,11.46621916
1.95146104,0.61895678,-2.32273943

>  <Name>
2o3w_lig

>  <RI>
0

>  <Rbt.Current_Directory>
/home/itssahil/PROJECTS/Mol_Feturizer/New_Systems/rnas/2o3w

>  <Rbt.Executable>
rbdock ($Id: //depot/dev/client3/rdock/2013.1/src/exe/rbdock.cxx#4 $)

>  <Rbt.Library>
libRbt.so (2013.1, Build901 2013/11/27)

>  <Rbt.Parameter_File>
/export/apps/rDock/src/rDock_2013.1_src/data/scripts/dock_solv.prm

>  <Rbt.Receptor>
prm/blind_docking_20.prm

>  <SCORE>
44.6962

>  <SCORE.INTER>
6.50594

>  <SCORE.INTER.CONST>
1

>  <SCORE.INTER.POLAR>
-0.0405784

>  <SCORE.INTER.ROT>
9

>  <SCORE.INTER.SOLV>
21.2028

>  <SCORE.INTER.VDW>
-12.195

>  <SCORE.INTER.norm>
0.154903

>  <SCORE.INTRA>
8.16573

>  <SCORE.INTRA.DIHEDRAL>
-0.670119

>  <SCORE.INTRA.DIHEDRAL.0>
27.8999

>  <SCORE.INTRA.POLAR>
0

>  <SCORE.INTRA.POLAR.0>
0

>  <SCORE.INTRA.REPUL>
0

>  <SCORE.INTRA.REPUL.0>
0

>  <SCORE.INTRA.SOLV>
5.77559

>  <SCORE.INTRA.SOLV.lig_0>
-104.479

>  <SCORE.INTRA.VDW>
5.61299

>  <SCORE.INTRA.VDW.0>
-6.17816

>  <SCORE.INTRA.norm>
0.194422

>  <SCORE.RESTR>
30.0245

>  <SCORE.RESTR.CAVITY>
30.0245

>  <SCORE.RESTR.norm>
0.714869

>  <SCORE.SYSTEM>
0

>  <SCORE.SYSTEM.CONST>
0

>  <SCORE.SYSTEM.DIHEDRAL>
0

>  <SCORE.SYSTEM.SOLV>
0

>  <SCORE.SYSTEM.norm>
0

>  <SCORE.heavy>
42

>  <SCORE.norm>
1.06419

>  <RMSD>
15.815

$$$$
2o3w_lig
 OpenBabel11021811463D
libRbt.so/2013.1/901 2013/11/27
 42 45  0  0  0  0  0  0  0  0999 V2000
   -3.0822    4.4503   14.7483 C   0  0  2  0  0  0  0  0  0  0  0  0
   -2.7018    4.9579   13.4580 O   0  0  0  0  0  0  0  0  0  0  0  0
   -4.7917    8.7462   13.1799 C   0  0  2  0  0  0  0  0  0  0  0  0
   -5.6073    9.8929   12.6795 N   0  0  0  0  0  0  0  0  0  0  0  0
   -5.6770    4.4617   11.9676 C   0  0  1  0  0  0  0  0  0  0  0  0
   -5.9631    3.9641    8.8909 C   0  0  1  0  0  0  0  0  0  0  0  0
   -1.7755    3.9821   15.4563 C   0  0  2  0  0  0  0  0  0  0  0  0
   -0.7160    5.0052   15.4184 N   0  0  0  0  0  0  0  0  0  0  0  0
   -3.4640    8.5755   12.3374 C   0  0  0  0  0  0  0  0  0  0  0  0
   -4.9557    3.0966   11.7505 C   0  0  2  0  0  0  0  0  0  0  0  0
   -3.5880    3.2197   11.2886 O   0  0  0  0  0  0  0  0  0  0  0  0
   -6.1164    4.0388    7.3289 C   0  0  2  0  0  0  0  0  0  0  0  0
   -4.8643    3.5921    6.6481 N   0  0  0  0  0  0  0  0  0  0  0  0
   -1.1884    2.7100   14.8175 C   0  0  1  0  0  0  0  0  0  0  0  0
   -0.0165    2.2953   15.5214 O   0  0  0  0  0  0  0  0  0  0  0  0
   -2.6384    7.3689   12.9250 C   0  0  2  0  0  0  0  0  0  0  0  0
   -1.3730    7.1883   12.1636 N   0  0  0  0  0  0  0  0  0  0  0  0
   -5.9197    2.4012   10.7880 C   0  0  2  0  0  0  0  0  0  0  0  0
   -5.5791    2.6777    9.3922 O   0  0  0  0  0  0  0  0  0  0  0  0
   -6.4986    5.5362    6.9062 C   0  0  1  0  0  0  0  0  0  0  0  0
   -7.8751    5.7870    7.2684 O   0  0  0  0  0  0  0  0  0  0  0  0
   -2.2615    1.5977   14.8033 C   0  0  2  0  0  0  0  0  0  0  0  0
   -1.7344    0.4207   14.2365 O   0  0  0  0  0  0  0  0  0  0  0  0
   -3.4847    6.0360   12.8704 C   0  0  2  0  0  0  0  0  0  0  0  0
   -7.3214    2.9303   11.1350 C   0  0  2  0  0  0  0  0  0  0  0  0
   -7.0596    4.2526   11.5991 O   0  0  0  0  0  0  0  0  0  0  0  0
   -5.5553    6.6357    7.5908 C   0  0  2  0  0  0  0  0  0  0  0  0
   -4.2565    6.5091    7.0133 O   0  0  0  0  0  0  0  0  0  0  0  0
   -3.5023    2.0957   13.9897 C   0  0  2  0  0  0  0  0  0  0  0  0
   -4.0250    3.3224   14.5913 O   0  0  0  0  0  0  0  0  0  0  0  0
   -4.8264    6.1471   13.6273 C   0  0  2  0  0  0  0  0  0  0  0  0
   -5.5414    4.9188   13.3195 O   0  0  0  0  0  0  0  0  0  0  0  0
   -8.0909    2.1006   12.2090 C   0  0  0  0  0  0  0  0  0  0  0  0
   -7.1536    1.4222   13.0398 O   0  0  0  0  0  0  0  0  0  0  0  0
   -5.4833    6.4138    9.1489 C   0  0  1  0  0  0  0  0  0  0  0  0
   -4.9958    5.0374    9.3441 O   0  0  0  0  0  0  0  0  0  0  0  0
   -4.6088    1.0682   13.9295 C   0  0  0  0  0  0  0  0  0  0  0  0
   -4.2455    0.0141   13.0715 O   0  0  0  0  0  0  0  0  0  0  0  0
   -5.6387    7.4122   13.1219 C   0  0  1  0  0  0  0  0  0  0  0  0
   -6.8070    7.6014   13.9249 O   0  0  0  0  0  0  0  0  0  0  0  0
   -4.5385    7.4441    9.9068 C   0  0  0  0  0  0  0  0  0  0  0  0
   -3.0785    7.2658    9.6767 N   0  0  0  0  0  0  0  0  0  0  0  0
  1  2  1  6  0  0  0
  1  7  1  0  0  0  0
  1 30  1  0  0  0  0
  3  4  1  6  0  0  0
  3  9  1  0  0  0  0
  3 39  1  0  0  0  0
  5 10  1  0  0  0  0
  5 26  1  0  0  0  0
  5 32  1  1  0  0  0
  6 12  1  0  0  0  0
  6 36  1  0  0  0  0
  6 19  1  6  0  0  0
  7  8  1  6  0  0  0
  7 14  1  0  0  0  0
  9 16  1  0  0  0  0
 10 11  1  6  0  0  0
 10 18  1  0  0  0  0
 12 13  1  6  0  0  0
 12 20  1  0  0  0  0
 14 15  1  1  0  0  0
 14 22  1  0  0  0  0
 16 17  1  6  0  0  0
 16 24  1  0  0  0  0
 18 19  1  6  0  0  0
 18 25  1  0  0  0  0
 20 21  1  1  0  0  0
 20 27  1  0  0  0  0
 22 23  1  6  0  0  0
 22 29  1  0  0  0  0
 24  2  1  1  0  0  0
 24 31  1  0  0  0  0
 25 26  1  0  0  0  0
 25 33  1  1  0  0  0
 27 28  1  6  0  0  0
 27 35  1  0  0  0  0
 29 30  1  0  0  0  0
 29 37  1  1  0  0  0
 31 32  1  6  0  0  0
 31 39  1  0  0  0  0
 33 34  1  0  0  0  0
 35 36  1  0  0  0  0
 35 41  1  1  0  0  0
 37 38  1  0  0  0  0
 39 40  1  1  0  0  0
 41 42  1  0  0  0  0
M  END
>  <CHROM.1>
-148.67502768,116.24163236,-156.97599742,-77.44978900,107.77709175,25.66672435
-72.63051181,-49.37966735,-71.10431199,-4.49738358,4.58844786,11.83966264
-0.60901443,-0.98607111,-0.23413525

>  <Name>
2o3w_lig

>  <RI>
0

>  <Rbt.Current_Directory>
/home/itssahil/PROJECTS/Mol_Feturizer/New_Systems/rnas/2o3w

>  <Rbt.Executable>
rbdock ($Id: //depot/dev/client3/rdock/2013.1/src/exe/rbdock.cxx#4 $)

>  <Rbt.Library>
libRbt.so (2013.1, Build901 2013/11/27)

>  <Rbt.Parameter_File>
/export/apps/rDock/src/rDock_2013.1_src/data/scripts/dock_solv.prm

>  <Rbt.Receptor>
prm/blind_docking_20.prm

>  <SCORE>
51.876

>  <SCORE.INTER>
5.35844

>  <SCORE.INTER.CONST>
1

>  <SCORE.INTER.POLAR>
-0.627437

>  <SCORE.INTER.ROT>
9

>  <SCORE.INTER.SOLV>
28.7749

>  <SCORE.INTER.VDW>
-13.5279

>  <SCORE.INTER.norm>
0.127582

>  <SCORE.INTRA>
8.11467

>  <SCORE.INTRA.DIHEDRAL>
-1.94006

>  <SCORE.INTRA.DIHEDRAL.0>
27.8999

>  <SCORE.INTRA.POLAR>
0

>  <SCORE.INTRA.POLAR.0>
0

>  <SCORE.INTRA.REPUL>
0.00488155

>  <SCORE.INTRA.REPUL.0>
0

>  <SCORE.INTRA.SOLV>
6.2014

>  <SCORE.INTRA.SOLV.lig_0>
-104.479

>  <SCORE.INTRA.VDW>
5.95959

>  <SCORE.INTRA.VDW.0>
-6.17816

>  <SCORE.INTRA.norm>
0.193206

>  <SCORE.RESTR>
38.4029

>  <SCORE.RESTR.CAVITY>
38.4029

>  <SCORE.RESTR.norm>
0.914354

>  <SCORE.SYSTEM>
0

>  <SCORE.SYSTEM.CONST>
0

>  <SCORE.SYSTEM.DIHEDRAL>
0

>  <SCORE.SYSTEM.SOLV>
0

>  <SCORE.SYSTEM.norm>
0

>  <SCORE.heavy>
42

>  <SCORE.norm>
1.23514

>  <RMSD>
15.831

$$$$
2o3w_lig
 OpenBabel11021811463D
libRbt.so/2013.1/901 2013/11/27
 42 45  0  0  0  0  0  0  0  0999 V2000
   -5.5331    2.5498   10.5613 C   0  0  2  0  0  0  0  0  0  0  0  0
   -5.1984    3.8269   11.1308 O   0  0  0  0  0  0  0  0  0  0  0  0
   -7.9892    6.2516    8.8662 C   0  0  2  0  0  0  0  0  0  0  0  0
   -8.8145    7.3957    8.3760 N   0  0  0  0  0  0  0  0  0  0  0  0
   -3.5815    6.0279   10.8513 C   0  0  1  0  0  0  0  0  0  0  0  0
   -2.2387    5.5455   13.4834 C   0  0  1  0  0  0  0  0  0  0  0  0
   -4.3816    1.5689   10.9356 C   0  0  2  0  0  0  0  0  0  0  0  0
   -4.0560    1.6035   12.3720 N   0  0  0  0  0  0  0  0  0  0  0  0
   -8.4017    5.8341   10.3350 C   0  0  0  0  0  0  0  0  0  0  0  0
   -2.3335    6.9621   10.8669 C   0  0  2  0  0  0  0  0  0  0  0  0
   -1.0779    6.2719   10.6517 O   0  0  0  0  0  0  0  0  0  0  0  0
   -2.7546    5.2297   14.9335 C   0  0  2  0  0  0  0  0  0  0  0  0
   -1.7220    5.5785   15.9548 N   0  0  0  0  0  0  0  0  0  0  0  0
   -3.0786    1.8806   10.1766 C   0  0  1  0  0  0  0  0  0  0  0  0
   -2.0646    0.9347   10.5199 O   0  0  0  0  0  0  0  0  0  0  0  0
   -7.5146    4.6127   10.7864 C   0  0  2  0  0  0  0  0  0  0  0  0
   -7.8866    4.1833   12.1615 N   0  0  0  0  0  0  0  0  0  0  0  0
   -2.4898    7.6438   12.2272 C   0  0  2  0  0  0  0  0  0  0  0  0
   -1.8073    6.8975   13.2845 O   0  0  0  0  0  0  0  0  0  0  0  0
   -3.1558    3.6814   15.0265 C   0  0  1  0  0  0  0  0  0  0  0  0
   -4.3939    3.4758   14.3096 O   0  0  0  0  0  0  0  0  0  0  0  0
   -3.3559    1.8838    8.6560 C   0  0  2  0  0  0  0  0  0  0  0  0
   -2.1690    2.1512    7.9459 O   0  0  0  0  0  0  0  0  0  0  0  0
   -5.9817    4.9926   10.7461 C   0  0  2  0  0  0  0  0  0  0  0  0
   -4.0030    7.7248   12.4900 C   0  0  2  0  0  0  0  0  0  0  0  0
   -4.5074    6.5721   11.8196 O   0  0  0  0  0  0  0  0  0  0  0  0
   -2.0268    2.7097   14.4359 C   0  0  2  0  0  0  0  0  0  0  0  0
   -0.9095    2.7587   15.3222 O   0  0  0  0  0  0  0  0  0  0  0  0
   -4.4453    2.9616    8.3379 C   0  0  2  0  0  0  0  0  0  0  0  0
   -5.6631    2.6679    9.0934 O   0  0  0  0  0  0  0  0  0  0  0  0
   -5.5184    5.4658    9.3509 C   0  0  2  0  0  0  0  0  0  0  0  0
   -4.1578    5.9423    9.5415 O   0  0  0  0  0  0  0  0  0  0  0  0
   -4.6928    9.0237   11.9694 C   0  0  0  0  0  0  0  0  0  0  0  0
   -6.0886    8.9582   12.2456 O   0  0  0  0  0  0  0  0  0  0  0  0
   -1.5976    3.1696   12.9915 C   0  0  1  0  0  0  0  0  0  0  0  0
   -1.1425    4.5644   13.1246 O   0  0  0  0  0  0  0  0  0  0  0  0
   -4.7843    3.0292    6.8668 C   0  0  0  0  0  0  0  0  0  0  0  0
   -5.2781    1.7880    6.4254 O   0  0  0  0  0  0  0  0  0  0  0  0
   -6.4553    6.6342    8.8284 C   0  0  1  0  0  0  0  0  0  0  0  0
   -6.1216    6.9678    7.4783 O   0  0  0  0  0  0  0  0  0  0  0  0
   -0.4530    2.2777   12.3412 C   0  0  0  0  0  0  0  0  0  0  0  0
    0.8550    2.2930   13.0522 N   0  0  0  0  0  0  0  0  0  0  0  0
  1  2  1  1  0  0  0
  1  7  1  0  0  0  0
  1 30  1  0  0  0  0
  3  4  1  1  0  0  0
  3  9  1  0  0  0  0
  3 39  1  0  0  0  0
  5 10  1  0  0  0  0
  5 26  1  0  0  0  0
  5 32  1  6  0  0  0
  6 12  1  0  0  0  0
  6 36  1  0  0  0  0
  6 19  1  1  0  0  0
  7  8  1  1  0  0  0
  7 14  1  0  0  0  0
  9 16  1  0  0  0  0
 10 11  1  1  0  0  0
 10 18  1  0  0  0  0
 12 13  1  1  0  0  0
 12 20  1  0  0  0  0
 14 15  1  6  0  0  0
 14 22  1  0  0  0  0
 16 17  1  1  0  0  0
 16 24  1  0  0  0  0
 18 19  1  1  0  0  0
 18 25  1  0  0  0  0
 20 21  1  6  0  0  0
 20 27  1  0  0  0  0
 22 23  1  6  0  0  0
 22 29  1  0  0  0  0
 24  2  1  6  0  0  0
 24 31  1  0  0  0  0
 25 26  1  0  0  0  0
 25 33  1  6  0  0  0
 27 28  1  1  0  0  0
 27 35  1  0  0  0  0
 29 30  1  0  0  0  0
 29 37  1  6  0  0  0
 31 32  1  1  0  0  0
 31 39  1  0  0  0  0
 33 34  1  0  0  0  0
 35 36  1  0  0  0  0
 35 41  1  1  0  0  0
 37 38  1  0  0  0  0
 39 40  1  6  0  0  0
 41 42  1  0  0  0  0
M  END
>  <CHROM.1>
169.50134396,-161.87005899,-122.02303450,-59.11195692,45.19709667,178.60189307
60.08696008,-6.23264213,-63.22791409,-4.00072669,4.58123062,11.19506077,-2.89821869
-0.76229296,0.66140507

>  <Name>
2o3w_lig

>  <RI>
0

>  <Rbt.Current_Directory>
/home/itssahil/PROJECTS/Mol_Feturizer/New_Systems/rnas/2o3w

>  <Rbt.Executable>
rbdock ($Id: //depot/dev/client3/rdock/2013.1/src/exe/rbdock.cxx#4 $)

>  <Rbt.Library>
libRbt.so (2013.1, Build901 2013/11/27)

>  <Rbt.Parameter_File>
/export/apps/rDock/src/rDock_2013.1_src/data/scripts/dock_solv.prm

>  <Rbt.Receptor>
prm/blind_docking_20.prm

>  <SCORE>
41.5131

>  <SCORE.INTER>
3.42447

>  <SCORE.INTER.CONST>
1

>  <SCORE.INTER.POLAR>
-0.565881

>  <SCORE.INTER.ROT>
9

>  <SCORE.INTER.SOLV>
29.8907

>  <SCORE.INTER.VDW>
-15.3943

>  <SCORE.INTER.norm>
0.0815351

>  <SCORE.INTRA>
5.42279

>  <SCORE.INTRA.DIHEDRAL>
-10.5774

>  <SCORE.INTRA.DIHEDRAL.0>
27.8999

>  <SCORE.INTRA.POLAR>
0

>  <SCORE.INTRA.POLAR.0>
0

>  <SCORE.INTRA.REPUL>
0.315219

>  <SCORE.INTRA.REPUL.0>
0

>  <SCORE.INTRA.SOLV>
2.96572

>  <SCORE.INTRA.SOLV.lig_0>
-104.479

>  <SCORE.INTRA.VDW>
7.65255

>  <SCORE.INTRA.VDW.0>
-6.17816

>  <SCORE.INTRA.norm>
0.129114

>  <SCORE.RESTR>
32.6658

>  <SCORE.RESTR.CAVITY>
32.6658

>  <SCORE.RESTR.norm>
0.777757

>  <SCORE.SYSTEM>
0

>  <SCORE.SYSTEM.CONST>
0

>  <SCORE.SYSTEM.DIHEDRAL>
0

>  <SCORE.SYSTEM.SOLV>
0

>  <SCORE.SYSTEM.norm>
0

>  <SCORE.heavy>
42

>  <SCORE.norm>
0.988406

>  <RMSD>
15.838

$$$$
2o3w_lig
 OpenBabel11021811463D
libRbt.so/2013.1/901 2013/11/27
 42 45  0  0  0  0  0  0  0  0999 V2000
   -2.0233    4.9041   11.8169 C   0  0  2  0  0  0  0  0  0  0  0  0
   -3.3857    5.3015   11.5865 O   0  0  0  0  0  0  0  0  0  0  0  0
   -3.3074    9.2675   13.3360 C   0  0  2  0  0  0  0  0  0  0  0  0
   -3.6295   10.6875   13.6683 N   0  0  0  0  0  0  0  0  0  0  0  0
   -5.9439    5.2863   12.1482 C   0  0  1  0  0  0  0  0  0  0  0  0
   -6.0020    3.6151    9.7046 C   0  0  1  0  0  0  0  0  0  0  0  0
   -1.9870    3.3474   11.7571 C   0  0  2  0  0  0  0  0  0  0  0  0
   -2.6524    2.8137   10.5558 N   0  0  0  0  0  0  0  0  0  0  0  0
   -2.8520    9.1198   11.8285 C   0  0  0  0  0  0  0  0  0  0  0  0
   -6.3866    3.8520   12.5697 C   0  0  2  0  0  0  0  0  0  0  0  0
   -5.3224    2.8699   12.5254 O   0  0  0  0  0  0  0  0  0  0  0  0
   -6.3584    4.9608    8.9761 C   0  0  2  0  0  0  0  0  0  0  0  0
   -7.4746    4.7616    8.0038 N   0  0  0  0  0  0  0  0  0  0  0  0
   -2.6764    2.6998   12.9721 C   0  0  1  0  0  0  0  0  0  0  0  0
   -2.5847    1.2762   12.8956 O   0  0  0  0  0  0  0  0  0  0  0  0
   -2.5056    7.6090   11.5457 C   0  0  2  0  0  0  0  0  0  0  0  0
   -2.0585    7.4355   10.1373 N   0  0  0  0  0  0  0  0  0  0  0  0
   -7.5535    3.6077   11.6116 C   0  0  2  0  0  0  0  0  0  0  0  0
   -7.1055    2.9840   10.3662 O   0  0  0  0  0  0  0  0  0  0  0  0
   -5.0512    5.5277    8.2434 C   0  0  1  0  0  0  0  0  0  0  0  0
   -4.1491    6.0569    9.2409 O   0  0  0  0  0  0  0  0  0  0  0  0
   -2.0391    3.2373   14.2737 C   0  0  2  0  0  0  0  0  0  0  0  0
   -2.6480    2.6413   15.3954 O   0  0  0  0  0  0  0  0  0  0  0  0
   -3.7602    6.6891   11.8208 C   0  0  2  0  0  0  0  0  0  0  0  0
   -8.1832    4.9862   11.3495 C   0  0  2  0  0  0  0  0  0  0  0  0
   -7.0723    5.8729   11.4600 O   0  0  0  0  0  0  0  0  0  0  0  0
   -4.2947    4.4155    7.3726 C   0  0  2  0  0  0  0  0  0  0  0  0
   -5.1250    4.1054    6.2543 O   0  0  0  0  0  0  0  0  0  0  0  0
   -2.2023    4.7933   14.3173 C   0  0  2  0  0  0  0  0  0  0  0  0
   -1.5711    5.3873   13.1389 O   0  0  0  0  0  0  0  0  0  0  0  0
   -4.2968    6.8236   13.2627 C   0  0  2  0  0  0  0  0  0  0  0  0
   -5.5374    6.0652   13.2809 O   0  0  0  0  0  0  0  0  0  0  0  0
   -9.3224    5.3879   12.3370 C   0  0  0  0  0  0  0  0  0  0  0  0
   -8.8962    5.1389   13.6732 O   0  0  0  0  0  0  0  0  0  0  0  0
   -4.0312    3.1213    8.2316 C   0  0  1  0  0  0  0  0  0  0  0  0
   -5.3498    2.6745    8.7133 O   0  0  0  0  0  0  0  0  0  0  0  0
   -1.5986    5.4067   15.5595 C   0  0  0  0  0  0  0  0  0  0  0  0
   -0.5006    4.6417   15.9935 O   0  0  0  0  0  0  0  0  0  0  0  0
   -4.5647    8.3481   13.6087 C   0  0  1  0  0  0  0  0  0  0  0  0
   -4.9159    8.4867   14.9882 O   0  0  0  0  0  0  0  0  0  0  0  0
   -3.3117    1.9494    7.4331 C   0  0  0  0  0  0  0  0  0  0  0  0
   -1.8918    1.6976    7.8032 N   0  0  0  0  0  0  0  0  0  0  0  0
  1  2  1  1  0  0  0
  1  7  1  0  0  0  0
  1 30  1  0  0  0  0
  3  4  1  6  0  0  0
  3  9  1  0  0  0  0
  3 39  1  0  0  0  0
  5 10  1  0  0  0  0
  5 26  1  0  0  0  0
  5 32  1  1  0  0  0
  6 12  1  0  0  0  0
  6 36  1  0  0  0  0
  6 19  1  6  0  0  0
  7  8  1  6  0  0  0
  7 14  1  0  0  0  0
  9 16  1  0  0  0  0
 10 11  1  6  0  0  0
 10 18  1  0  0  0  0
 12 13  1  6  0  0  0
 12 20  1  0  0  0  0
 14 15  1  6  0  0  0
 14 22  1  0  0  0  0
 16 17  1  6  0  0  0
 16 24  1  0  0  0  0
 18 19  1  6  0  0  0
 18 25  1  0  0  0  0
 20 21  1  1  0  0  0
 20 27  1  0  0  0  0
 22 23  1  1  0  0  0
 22 29  1  0  0  0  0
 24  2  1  1  0  0  0
 24 31  1  0  0  0  0
 25 26  1  0  0  0  0
 25 33  1  1  0  0  0
 27 28  1  6  0  0  0
 27 35  1  0  0  0  0
 29 30  1  0  0  0  0
 29 37  1  1  0  0  0
 31 32  1  6  0  0  0
 31 39  1  0  0  0  0
 33 34  1  0  0  0  0
 35 36  1  0  0  0  0
 35 41  1  6  0  0  0
 37 38  1  0  0  0  0
 39 40  1  1  0  0  0
 41 42  1  0  0  0  0
M  END
>  <CHROM.1>
169.21102978,132.28220042,-74.09956940,-50.50574281,29.94623152,47.48226873
30.57714614,6.26077148,108.26721905,-4.34648425,4.97150629,11.59238341,-1.12338291
0.51290956,-2.29333474

>  <Name>
2o3w_lig

>  <RI>
0

>  <Rbt.Current_Directory>
/home/itssahil/PROJECTS/Mol_Feturizer/New_Systems/rnas/2o3w

>  <Rbt.Executable>
rbdock ($Id: //depot/dev/client3/rdock/2013.1/src/exe/rbdock.cxx#4 $)

>  <Rbt.Library>
libRbt.so (2013.1, Build901 2013/11/27)

>  <Rbt.Parameter_File>
/export/apps/rDock/src/rDock_2013.1_src/data/scripts/dock_solv.prm

>  <Rbt.Receptor>
prm/blind_docking_20.prm

>  <SCORE>
49.3956

>  <SCORE.INTER>
10.631

>  <SCORE.INTER.CONST>
1

>  <SCORE.INTER.POLAR>
-0.423277

>  <SCORE.INTER.ROT>
9

>  <SCORE.INTER.SOLV>
27.4613

>  <SCORE.INTER.VDW>
-10.2555

>  <SCORE.INTER.norm>
0.253119

>  <SCORE.INTRA>
10.5336

>  <SCORE.INTRA.DIHEDRAL>
-0.888586

>  <SCORE.INTRA.DIHEDRAL.0>
27.8999

>  <SCORE.INTRA.POLAR>
0

>  <SCORE.INTRA.POLAR.0>
0

>  <SCORE.INTRA.REPUL>
0

>  <SCORE.INTRA.REPUL.0>
0

>  <SCORE.INTRA.SOLV>
7.46342

>  <SCORE.INTRA.SOLV.lig_0>
-104.479

>  <SCORE.INTRA.VDW>
7.24621

>  <SCORE.INTRA.VDW.0>
-6.17816

>  <SCORE.INTRA.norm>
0.250801

>  <SCORE.RESTR>
28.231

>  <SCORE.RESTR.CAVITY>
28.231

>  <SCORE.RESTR.norm>
0.672167

>  <SCORE.SYSTEM>
0

>  <SCORE.SYSTEM.CONST>
0

>  <SCORE.SYSTEM.DIHEDRAL>
0

>  <SCORE.SYSTEM.SOLV>
0

>  <SCORE.SYSTEM.norm>
0

>  <SCORE.heavy>
42

>  <SCORE.norm>
1.17609

>  <RMSD>
15.843

$$$$
2o3w_lig
 OpenBabel11021811463D
libRbt.so/2013.1/901 2013/11/27
 42 45  0  0  0  0  0  0  0  0999 V2000
   -2.3357    4.5688   11.2626 C   0  0  2  0  0  0  0  0  0  0  0  0
   -3.6175    5.1422   10.9539 O   0  0  0  0  0  0  0  0  0  0  0  0
   -3.3390    8.7958   13.2710 C   0  0  2  0  0  0  0  0  0  0  0  0
   -3.5644   10.1788   13.7878 N   0  0  0  0  0  0  0  0  0  0  0  0
   -6.0075    4.8033   11.6497 C   0  0  1  0  0  0  0  0  0  0  0  0
   -6.4023    2.6171    9.0374 C   0  0  1  0  0  0  0  0  0  0  0  0
   -2.5510    3.0341   11.4254 C   0  0  2  0  0  0  0  0  0  0  0  0
   -3.3003    2.4474   10.3007 N   0  0  0  0  0  0  0  0  0  0  0  0
   -2.7823    8.8198   11.7907 C   0  0  0  0  0  0  0  0  0  0  0  0
   -6.8089    3.6157   12.2647 C   0  0  2  0  0  0  0  0  0  0  0  0
   -5.9770    2.5828   12.8479 O   0  0  0  0  0  0  0  0  0  0  0  0
   -5.6463    1.5049    8.2248 C   0  0  2  0  0  0  0  0  0  0  0  0
   -4.5975    0.8512    9.0636 N   0  0  0  0  0  0  0  0  0  0  0  0
   -3.3290    2.6860   12.7078 C   0  0  1  0  0  0  0  0  0  0  0  0
   -3.4682    1.2700   12.8363 O   0  0  0  0  0  0  0  0  0  0  0  0
   -2.5444    7.3380   11.3110 C   0  0  2  0  0  0  0  0  0  0  0  0
   -2.0058    7.3233    9.9242 N   0  0  0  0  0  0  0  0  0  0  0  0
   -7.6621    3.1835   11.0711 C   0  0  2  0  0  0  0  0  0  0  0  0
   -6.9853    2.1661   10.2664 O   0  0  0  0  0  0  0  0  0  0  0  0
   -5.0070    2.1551    6.9074 C   0  0  1  0  0  0  0  0  0  0  0  0
   -6.0647    2.4295    5.9614 O   0  0  0  0  0  0  0  0  0  0  0  0
   -2.6062    3.2953   13.9308 C   0  0  2  0  0  0  0  0  0  0  0  0
   -3.2970    2.9714   15.1150 O   0  0  0  0  0  0  0  0  0  0  0  0
   -3.8900    6.5120   11.3658 C   0  0  2  0  0  0  0  0  0  0  0  0
   -7.9234    4.4588   10.2521 C   0  0  2  0  0  0  0  0  0  0  0  0
   -6.7537    5.2384   10.4900 O   0  0  0  0  0  0  0  0  0  0  0  0
   -4.1956    3.5032    7.2101 C   0  0  2  0  0  0  0  0  0  0  0  0
   -3.0218    3.1453    7.9385 O   0  0  0  0  0  0  0  0  0  0  0  0
   -2.5164    4.8473   13.7497 C   0  0  2  0  0  0  0  0  0  0  0  0
   -1.8043    5.1576   12.5102 O   0  0  0  0  0  0  0  0  0  0  0  0
   -4.5235    6.4921   12.7742 C   0  0  2  0  0  0  0  0  0  0  0  0
   -5.8216    5.8603   12.6002 O   0  0  0  0  0  0  0  0  0  0  0  0
   -9.2116    5.2440   10.6499 C   0  0  0  0  0  0  0  0  0  0  0  0
   -9.1403    5.5978   12.0278 O   0  0  0  0  0  0  0  0  0  0  0  0
   -5.0748    4.5044    8.0507 C   0  0  1  0  0  0  0  0  0  0  0  0
   -5.4626    3.7807    9.2739 O   0  0  0  0  0  0  0  0  0  0  0  0
   -1.8150    5.5276   14.9025 C   0  0  0  0  0  0  0  0  0  0  0  0
   -2.6403    5.5249   16.0419 O   0  0  0  0  0  0  0  0  0  0  0  0
   -4.6872    7.9710   13.3234 C   0  0  1  0  0  0  0  0  0  0  0  0
   -5.1313    7.9462   14.6828 O   0  0  0  0  0  0  0  0  0  0  0  0
   -4.3330    5.8599    8.4260 C   0  0  0  0  0  0  0  0  0  0  0  0
   -5.2014    6.9355    8.9789 N   0  0  0  0  0  0  0  0  0  0  0  0
  1  2  1  1  0  0  0
  1  7  1  0  0  0  0
  1 30  1  0  0  0  0
  3  4  1  6  0  0  0
  3  9  1  0  0  0  0
  3 39  1  0  0  0  0
  5 10  1  0  0  0  0
  5 26  1  0  0  0  0
  5 32  1  1  0  0  0
  6 12  1  0  0  0  0
  6 36  1  0  0  0  0
  6 19  1  1  0  0  0
  7  8  1  6  0  0  0
  7 14  1  0  0  0  0
  9 16  1  0  0  0  0
 10 11  1  6  0  0  0
 10 18  1  0  0  0  0
 12 13  1  1  0  0  0
 12 20  1  0  0  0  0
 14 15  1  1  0  0  0
 14 22  1  0  0  0  0
 16 17  1  6  0  0  0
 16 24  1  0  0  0  0
 18 19  1  6  0  0  0
 18 25  1  0  0  0  0
 20 21  1  6  0  0  0
 20 27  1  0  0  0  0
 22 23  1  1  0  0  0
 22 29  1  0  0  0  0
 24  2  1  1  0  0  0
 24 31  1  0  0  0  0
 25 26  1  0  0  0  0
 25 33  1  1  0  0  0
 27 28  1  1  0  0  0
 27 35  1  0  0  0  0
 29 30  1  0  0  0  0
 29 37  1  1  0  0  0
 31 32  1  6  0  0  0
 31 39  1  0  0  0  0
 33 34  1  0  0  0  0
 35 36  1  0  0  0  0
 35 41  1  1  0  0  0
 37 38  1  0  0  0  0
 39 40  1  1  0  0  0
 41 42  1  0  0  0  0
M  END
>  <CHROM.1>
150.62116839,133.98102143,178.15769496,-103.24047674,32.63693100,57.72542562
-72.40622919,34.99694431,168.37775489,-4.61294972,4.69398764,11.24533884
-1.04171454,0.80214624,-2.63111859

>  <Name>
2o3w_lig

>  <RI>
0

>  <Rbt.Current_Directory>
/home/itssahil/PROJECTS/Mol_Feturizer/New_Systems/rnas/2o3w

>  <Rbt.Executable>
rbdock ($Id: //depot/dev/client3/rdock/2013.1/src/exe/rbdock.cxx#4 $)

>  <Rbt.Library>
libRbt.so (2013.1, Build901 2013/11/27)

>  <Rbt.Parameter_File>
/export/apps/rDock/src/rDock_2013.1_src/data/scripts/dock_solv.prm

>  <Rbt.Receptor>
prm/blind_docking_20.prm

>  <SCORE>
68.7403

>  <SCORE.INTER>
17.0016

>  <SCORE.INTER.CONST>
1

>  <SCORE.INTER.POLAR>
-0.847703

>  <SCORE.INTER.ROT>
9

>  <SCORE.INTER.SOLV>
19.0484

>  <SCORE.INTER.VDW>
-1.78941

>  <SCORE.INTER.norm>
0.4048

>  <SCORE.INTRA>
22.205

>  <SCORE.INTRA.DIHEDRAL>
-5.33368

>  <SCORE.INTRA.DIHEDRAL.0>
27.8999

>  <SCORE.INTRA.POLAR>
0

>  <SCORE.INTRA.POLAR.0>
0

>  <SCORE.INTRA.REPUL>
1

>  <SCORE.INTRA.REPUL.0>
0

>  <SCORE.INTRA.SOLV>
16.1235

>  <SCORE.INTRA.SOLV.lig_0>
-104.479

>  <SCORE.INTRA.VDW>
11.8101

>  <SCORE.INTRA.VDW.0>
-6.17816

>  <SCORE.INTRA.norm>
0.52869

>  <SCORE.RESTR>
29.5337

>  <SCORE.RESTR.CAVITY>
29.5337

>  <SCORE.RESTR.norm>
0.703184

>  <SCORE.SYSTEM>
0

>  <SCORE.SYSTEM.CONST>
0

>  <SCORE.SYSTEM.DIHEDRAL>
0

>  <SCORE.SYSTEM.SOLV>
0

>  <SCORE.SYSTEM.norm>
0

>  <SCORE.heavy>
42

>  <SCORE.norm>
1.63667

>  <RMSD>
15.851

$$$$
2o3w_lig
 OpenBabel11021811463D
libRbt.so/2013.1/901 2013/11/27
 42 45  0  0  0  0  0  0  0  0999 V2000
   -2.7888    6.7794   10.1941 C   0  0  2  0  0  0  0  0  0  0  0  0
   -3.5244    5.5876    9.8688 O   0  0  0  0  0  0  0  0  0  0  0  0
   -7.5003    7.3099   10.0155 C   0  0  2  0  0  0  0  0  0  0  0  0
   -8.9845    7.4756   10.0227 N   0  0  0  0  0  0  0  0  0  0  0  0
   -4.8051    3.7177   11.6267 C   0  0  1  0  0  0  0  0  0  0  0  0
   -3.6432    1.7222    9.6915 C   0  0  1  0  0  0  0  0  0  0  0  0
   -1.3840    6.3252   10.6927 C   0  0  2  0  0  0  0  0  0  0  0  0
   -0.7439    5.3652    9.7766 N   0  0  0  0  0  0  0  0  0  0  0  0
   -6.9919    6.7512    8.6258 C   0  0  0  0  0  0  0  0  0  0  0  0
   -3.2725    3.4546   11.7395 C   0  0  2  0  0  0  0  0  0  0  0  0
   -2.5233    3.8185   10.5540 O   0  0  0  0  0  0  0  0  0  0  0  0
   -5.1746    1.5385    9.3917 C   0  0  2  0  0  0  0  0  0  0  0  0
   -5.5508    0.0931    9.4035 N   0  0  0  0  0  0  0  0  0  0  0  0
   -1.4450    5.6484   12.0744 C   0  0  1  0  0  0  0  0  0  0  0  0
   -0.1334    5.2851   12.5087 O   0  0  0  0  0  0  0  0  0  0  0  0
   -5.4225    6.6199    8.6719 C   0  0  2  0  0  0  0  0  0  0  0  0
   -4.9075    6.1094    7.3728 N   0  0  0  0  0  0  0  0  0  0  0  0
   -3.2521    1.9698   12.1059 C   0  0  2  0  0  0  0  0  0  0  0  0
   -3.1982    1.1223   10.9144 O   0  0  0  0  0  0  0  0  0  0  0  0
   -5.5215    2.2120    7.9799 C   0  0  1  0  0  0  0  0  0  0  0  0
   -5.5041    3.6493    8.1311 O   0  0  0  0  0  0  0  0  0  0  0  0
   -2.1310    6.5973   13.0835 C   0  0  2  0  0  0  0  0  0  0  0  0
   -2.1798    5.9990   14.3578 O   0  0  0  0  0  0  0  0  0  0  0  0
   -4.9789    5.6487    9.8364 C   0  0  2  0  0  0  0  0  0  0  0  0
   -4.5357    1.7144   12.9138 C   0  0  2  0  0  0  0  0  0  0  0  0
   -5.4538    2.6564   12.3642 O   0  0  0  0  0  0  0  0  0  0  0  0
   -4.5037    1.7828    6.8192 C   0  0  2  0  0  0  0  0  0  0  0  0
   -4.7348    0.4043    6.5314 O   0  0  0  0  0  0  0  0  0  0  0  0
   -3.5728    6.9295   12.5730 C   0  0  2  0  0  0  0  0  0  0  0  0
   -3.4962    7.5402   11.2460 O   0  0  0  0  0  0  0  0  0  0  0  0
   -5.4894    6.1022   11.2216 C   0  0  2  0  0  0  0  0  0  0  0  0
   -5.1541    5.0149   12.1271 O   0  0  0  0  0  0  0  0  0  0  0  0
   -4.3917    1.9049   14.4556 C   0  0  0  0  0  0  0  0  0  0  0  0
   -4.0041    3.2478   14.7296 O   0  0  0  0  0  0  0  0  0  0  0  0
   -3.0126    2.0013    7.2786 C   0  0  1  0  0  0  0  0  0  0  0  0
   -2.8441    1.2118    8.5108 O   0  0  0  0  0  0  0  0  0  0  0  0
   -4.3176    7.8618   13.5003 C   0  0  0  0  0  0  0  0  0  0  0  0
   -4.9612    7.1267   14.5126 O   0  0  0  0  0  0  0  0  0  0  0  0
   -7.0577    6.3352   11.1794 C   0  0  1  0  0  0  0  0  0  0  0  0
   -7.5063    6.8987   12.4150 O   0  0  0  0  0  0  0  0  0  0  0  0
   -1.9313    1.5680    6.1961 C   0  0  0  0  0  0  0  0  0  0  0  0
   -1.7677    2.4971    5.0443 N   0  0  0  0  0  0  0  0  0  0  0  0
  1  2  1  1  0  0  0
  1  7  1  0  0  0  0
  1 30  1  0  0  0  0
  3  4  1  6  0  0  0
  3  9  1  0  0  0  0
  3 39  1  0  0  0  0
  5 10  1  0  0  0  0
  5 26  1  0  0  0  0
  5 32  1  1  0  0  0
  6 12  1  0  0  0  0
  6 36  1  0  0  0  0
  6 19  1  1  0  0  0
  7  8  1  6  0  0  0
  7 14  1  0  0  0  0
  9 16  1  0  0  0  0
 10 11  1  6  0  0  0
 10 18  1  0  0  0  0
 12 13  1  6  0  0  0
 12 20  1  0  0  0  0
 14 15  1  1  0  0  0
 14 22  1  0  0  0  0
 16 17  1  6  0  0  0
 16 24  1  0  0  0  0
 18 19  1  6  0  0  0
 18 25  1  0  0  0  0
 20 21  1  1  0  0  0
 20 27  1  0  0  0  0
 22 23  1  1  0  0  0
 22 29  1  0  0  0  0
 24  2  1  1  0  0  0
 24 31  1  0  0  0  0
 25 26  1  0  0  0  0
 25 33  1  1  0  0  0
 27 28  1  1  0  0  0
 27 35  1  0  0  0  0
 29 30  1  0  0  0  0
 29 37  1  1  0  0  0
 31 32  1  1  0  0  0
 31 39  1  0  0  0  0
 33 34  1  0  0  0  0
 35 36  1  0  0  0  0
 35 41  1  6  0  0  0
 37 38  1  0  0  0  0
 39 40  1  1  0  0  0
 41 42  1  0  0  0  0
M  END
>  <CHROM.1>
158.36171829,105.18749551,-90.24319422,-21.38451038,64.71321183,60.45360022
-86.24278317,-16.02596993,75.18549173,-4.13926811,4.36370199,10.56946665
1.71564401,-0.80461095,0.91736375

>  <Name>
2o3w_lig

>  <RI>
0

>  <Rbt.Current_Directory>
/home/itssahil/PROJECTS/Mol_Feturizer/New_Systems/rnas/2o3w

>  <Rbt.Executable>
rbdock ($Id: //depot/dev/client3/rdock/2013.1/src/exe/rbdock.cxx#4 $)

>  <Rbt.Library>
libRbt.so (2013.1, Build901 2013/11/27)

>  <Rbt.Parameter_File>
/export/apps/rDock/src/rDock_2013.1_src/data/scripts/dock_solv.prm

>  <Rbt.Receptor>
prm/blind_docking_20.prm

>  <SCORE>
86.8084

>  <SCORE.INTER>
26.0768

>  <SCORE.INTER.CONST>
1

>  <SCORE.INTER.POLAR>
0

>  <SCORE.INTER.ROT>
9

>  <SCORE.INTER.SOLV>
24.3728

>  <SCORE.INTER.VDW>
-0.339727

>  <SCORE.INTER.norm>
0.620877

>  <SCORE.INTRA>
25.8756

>  <SCORE.INTRA.DIHEDRAL>
-1.75959

>  <SCORE.INTRA.DIHEDRAL.0>
27.8999

>  <SCORE.INTRA.POLAR>
0

>  <SCORE.INTRA.POLAR.0>
0

>  <SCORE.INTRA.REPUL>
0

>  <SCORE.INTRA.REPUL.0>
0

>  <SCORE.INTRA.SOLV>
4.37504

>  <SCORE.INTRA.SOLV.lig_0>
-104.479

>  <SCORE.INTRA.VDW>
24.5679

>  <SCORE.INTRA.VDW.0>
-6.17816

>  <SCORE.INTRA.norm>
0.616085

>  <SCORE.RESTR>
34.856

>  <SCORE.RESTR.CAVITY>
34.856

>  <SCORE.RESTR.norm>
0.829904

>  <SCORE.SYSTEM>
0

>  <SCORE.SYSTEM.CONST>
0

>  <SCORE.SYSTEM.DIHEDRAL>
0

>  <SCORE.SYSTEM.SOLV>
0

>  <SCORE.SYSTEM.norm>
0

>  <SCORE.heavy>
42

>  <SCORE.norm>
2.06687

>  <RMSD>
15.900

$$$$
2o3w_lig
 OpenBabel11021811463D
libRbt.so/2013.1/901 2013/11/27
 42 45  0  0  0  0  0  0  0  0999 V2000
   -7.2960    5.1822    9.9390 C   0  0  2  0  0  0  0  0  0  0  0  0
   -6.2508    5.7421    9.1256 O   0  0  0  0  0  0  0  0  0  0  0  0
   -4.6905    2.0801    7.4077 C   0  0  2  0  0  0  0  0  0  0  0  0
   -3.9765    1.1076    6.5274 N   0  0  0  0  0  0  0  0  0  0  0  0
   -2.9158    5.4648   10.5578 C   0  0  1  0  0  0  0  0  0  0  0  0
   -1.6406    5.2037   13.2770 C   0  0  1  0  0  0  0  0  0  0  0  0
   -7.5592    6.1895   11.0984 C   0  0  2  0  0  0  0  0  0  0  0  0
   -7.7447    7.5690   10.6156 N   0  0  0  0  0  0  0  0  0  0  0  0
   -5.8397    2.8298    6.6210 C   0  0  0  0  0  0  0  0  0  0  0  0
   -1.8061    6.5594   10.5930 C   0  0  2  0  0  0  0  0  0  0  0  0
   -0.4643    6.0442   10.4112 O   0  0  0  0  0  0  0  0  0  0  0  0
   -2.5183    4.9564   14.5565 C   0  0  2  0  0  0  0  0  0  0  0  0
   -1.8791    5.5560   15.7660 N   0  0  0  0  0  0  0  0  0  0  0  0
   -6.4031    6.2257   12.1148 C   0  0  1  0  0  0  0  0  0  0  0  0
   -6.7041    7.1306   13.1785 O   0  0  0  0  0  0  0  0  0  0  0  0
   -6.5682    3.8219    7.6048 C   0  0  2  0  0  0  0  0  0  0  0  0
   -7.6673    4.5353    6.9001 N   0  0  0  0  0  0  0  0  0  0  0  0
   -2.0842    7.2210   11.9436 C   0  0  2  0  0  0  0  0  0  0  0  0
   -1.3314    6.5796   13.0220 O   0  0  0  0  0  0  0  0  0  0  0  0
   -2.7447    3.3817   14.7461 C   0  0  1  0  0  0  0  0  0  0  0  0
   -3.6849    2.9215   13.7495 O   0  0  0  0  0  0  0  0  0  0  0  0
   -6.1386    4.7984   12.6459 C   0  0  2  0  0  0  0  0  0  0  0  0
   -5.0936    4.8169   13.5904 O   0  0  0  0  0  0  0  0  0  0  0  0
   -5.5462    4.8728    8.1939 C   0  0  2  0  0  0  0  0  0  0  0  0
   -3.6000    7.0979   12.1725 C   0  0  2  0  0  0  0  0  0  0  0  0
   -3.9287    5.8841   11.5010 O   0  0  0  0  0  0  0  0  0  0  0  0
   -1.3863    2.5397   14.6305 C   0  0  2  0  0  0  0  0  0  0  0  0
   -0.5919    2.8440   15.7763 O   0  0  0  0  0  0  0  0  0  0  0  0
   -5.7799    3.8642   11.4424 C   0  0  2  0  0  0  0  0  0  0  0  0
   -6.8747    3.8693   10.4724 O   0  0  0  0  0  0  0  0  0  0  0  0
   -4.3621    4.2087    8.9302 C   0  0  2  0  0  0  0  0  0  0  0  0
   -3.4452    5.2950    9.2365 O   0  0  0  0  0  0  0  0  0  0  0  0
   -4.4470    8.2888   11.6259 C   0  0  0  0  0  0  0  0  0  0  0  0
   -4.0690    9.4842   12.3019 O   0  0  0  0  0  0  0  0  0  0  0  0
   -0.6093    2.9162   13.3127 C   0  0  1  0  0  0  0  0  0  0  0  0
   -0.3801    4.3701   13.3740 O   0  0  0  0  0  0  0  0  0  0  0  0
   -5.5107    2.4404   11.8717 C   0  0  0  0  0  0  0  0  0  0  0  0
   -5.0884    1.6736   10.7703 O   0  0  0  0  0  0  0  0  0  0  0  0
   -3.6671    3.1333    7.9942 C   0  0  1  0  0  0  0  0  0  0  0  0
   -2.6705    2.4135    8.7252 O   0  0  0  0  0  0  0  0  0  0  0  0
    0.7721    2.1491   13.1337 C   0  0  0  0  0  0  0  0  0  0  0  0
    1.7531    2.7975   12.2206 N   0  0  0  0  0  0  0  0  0  0  0  0
  1  2  1  6  0  0  0
  1  7  1  0  0  0  0
  1 30  1  0  0  0  0
  3  4  1  6  0  0  0
  3  9  1  0  0  0  0
  3 39  1  0  0  0  0
  5 10  1  0  0  0  0
  5 26  1  0  0  0  0
  5 32  1  6  0  0  0
  6 12  1  0  0  0  0
  6 36  1  0  0  0  0
  6 19  1  1  0  0  0
  7  8  1  6  0  0  0
  7 14  1  0  0  0  0
  9 16  1  0  0  0  0
 10 11  1  1  0  0  0
 10 18  1  0  0  0  0
 12 13  1  1  0  0  0
 12 20  1  0  0  0  0
 14 15  1  1  0  0  0
 14 22  1  0  0  0  0
 16 17  1  6  0  0  0
 16 24  1  0  0  0  0
 18 19  1  1  0  0  0
 18 25  1  0  0  0  0
 20 21  1  6  0  0  0
 20 27  1  0  0  0  0
 22 23  1  1  0  0  0
 22 29  1  0  0  0  0
 24  2  1  1  0  0  0
 24 31  1  0  0  0  0
 25 26  1  0  0  0  0
 25 33  1  6  0  0  0
 27 28  1  1  0  0  0
 27 35  1  0  0  0  0
 29 30  1  0  0  0  0
 29 37  1  1  0  0  0
 31 32  1  6  0  0  0
 31 39  1  0  0  0  0
 33 34  1  0  0  0  0
 35 36  1  0  0  0  0
 35 41  1  1  0  0  0
 37 38  1  0  0  0  0
 39 40  1  1  0  0  0
 41 42  1  0  0  0  0
M  END
>  <CHROM.1>
163.34992401,171.75419836,-104.05071505,-62.82879023,35.72154155,-62.33338484
-175.21049796,130.43507406,-158.45192918,-3.84920917,4.67868094,11.30432243
2.58858183,0.59661548,-2.28731334

>  <Name>
2o3w_lig

>  <RI>
0

>  <Rbt.Current_Directory>
/home/itssahil/PROJECTS/Mol_Feturizer/New_Systems/rnas/2o3w

>  <Rbt.Executable>
rbdock ($Id: //depot/dev/client3/rdock/2013.1/src/exe/rbdock.cxx#4 $)

>  <Rbt.Library>
libRbt.so (2013.1, Build901 2013/11/27)

>  <Rbt.Parameter_File>
/export/apps/rDock/src/rDock_2013.1_src/data/scripts/dock_solv.prm

>  <Rbt.Receptor>
prm/blind_docking_20.prm

>  <SCORE>
35.3446

>  <SCORE.INTER>
2.38543

>  <SCORE.INTER.CONST>
1

>  <SCORE.INTER.POLAR>
-0.524987

>  <SCORE.INTER.ROT>
9

>  <SCORE.INTER.SOLV>
21.9957

>  <SCORE.INTER.VDW>
-13.5916

>  <SCORE.INTER.norm>
0.0567959

>  <SCORE.INTRA>
1.94907

>  <SCORE.INTRA.DIHEDRAL>
-9.37151

>  <SCORE.INTRA.DIHEDRAL.0>
27.8999

>  <SCORE.INTRA.POLAR>
0

>  <SCORE.INTRA.POLAR.0>
0

>  <SCORE.INTRA.REPUL>
0

>  <SCORE.INTRA.REPUL.0>
0

>  <SCORE.INTRA.SOLV>
1.64388

>  <SCORE.INTRA.SOLV.lig_0>
-104.479

>  <SCORE.INTRA.VDW>
5.81288

>  <SCORE.INTRA.VDW.0>
-6.17816

>  <SCORE.INTRA.norm>
0.0464064

>  <SCORE.RESTR>
31.0101

>  <SCORE.RESTR.CAVITY>
31.0101

>  <SCORE.RESTR.norm>
0.738336

>  <SCORE.SYSTEM>
0

>  <SCORE.SYSTEM.CONST>
0

>  <SCORE.SYSTEM.DIHEDRAL>
0

>  <SCORE.SYSTEM.SOLV>
0

>  <SCORE.SYSTEM.norm>
0

>  <SCORE.heavy>
42

>  <SCORE.norm>
0.841539

>  <RMSD>
15.907

$$$$
2o3w_lig
 OpenBabel11021811463D
libRbt.so/2013.1/901 2013/11/27
 42 45  0  0  0  0  0  0  0  0999 V2000
   -7.1328    5.0450   10.2099 C   0  0  2  0  0  0  0  0  0  0  0  0
   -6.1950    5.6661    9.3143 O   0  0  0  0  0  0  0  0  0  0  0  0
   -4.6460    2.0852    7.4239 C   0  0  2  0  0  0  0  0  0  0  0  0
   -3.9496    1.1525    6.4883 N   0  0  0  0  0  0  0  0  0  0  0  0
   -3.0033    5.5381   10.6698 C   0  0  1  0  0  0  0  0  0  0  0  0
   -2.0148    5.4510   13.4853 C   0  0  1  0  0  0  0  0  0  0  0  0
   -7.5185    6.1127   11.2772 C   0  0  2  0  0  0  0  0  0  0  0  0
   -7.9111    7.3977   10.6728 N   0  0  0  0  0  0  0  0  0  0  0  0
   -5.8310    2.8441    6.7016 C   0  0  0  0  0  0  0  0  0  0  0  0
   -1.7902    6.5155   10.7323 C   0  0  2  0  0  0  0  0  0  0  0  0
   -0.5028    5.8538   10.7934 O   0  0  0  0  0  0  0  0  0  0  0  0
   -2.2711    5.1686   15.0095 C   0  0  2  0  0  0  0  0  0  0  0  0
   -1.0747    5.5300   15.8275 N   0  0  0  0  0  0  0  0  0  0  0  0
   -6.3616    6.4129   12.2480 C   0  0  1  0  0  0  0  0  0  0  0  0
   -6.7715    7.3652   13.2309 O   0  0  0  0  0  0  0  0  0  0  0  0
   -6.5386    3.7928    7.7417 C   0  0  2  0  0  0  0  0  0  0  0  0
   -7.6702    4.5133    7.0984 N   0  0  0  0  0  0  0  0  0  0  0  0
   -2.1562    7.3658   11.9499 C   0  0  2  0  0  0  0  0  0  0  0  0
   -1.6191    6.7953   13.1855 O   0  0  0  0  0  0  0  0  0  0  0  0
   -2.6563    3.6256   15.2039 C   0  0  1  0  0  0  0  0  0  0  0  0
   -4.0012    3.4151   14.7184 O   0  0  0  0  0  0  0  0  0  0  0  0
   -5.8829    5.0969   12.9023 C   0  0  2  0  0  0  0  0  0  0  0  0
   -4.8348    5.3568   13.8069 O   0  0  0  0  0  0  0  0  0  0  0  0
   -5.5110    4.8381    8.3310 C   0  0  2  0  0  0  0  0  0  0  0  0
   -3.6929    7.4202   11.9831 C   0  0  2  0  0  0  0  0  0  0  0  0
   -4.0709    6.1691   11.4137 O   0  0  0  0  0  0  0  0  0  0  0  0
   -1.6516    2.6335   14.4464 C   0  0  2  0  0  0  0  0  0  0  0  0
   -0.3966    2.6918   15.1231 O   0  0  0  0  0  0  0  0  0  0  0  0
   -5.4142    4.1104   11.7813 C   0  0  2  0  0  0  0  0  0  0  0  0
   -6.5156    3.8642   10.8507 O   0  0  0  0  0  0  0  0  0  0  0  0
   -4.2941    4.1670    9.0048 C   0  0  2  0  0  0  0  0  0  0  0  0
   -3.3816    5.2555    9.3163 O   0  0  0  0  0  0  0  0  0  0  0  0
   -4.3265    8.6093   11.1965 C   0  0  0  0  0  0  0  0  0  0  0  0
   -3.8933    9.8381   11.7720 O   0  0  0  0  0  0  0  0  0  0  0  0
   -1.4790    3.0608   12.9398 C   0  0  1  0  0  0  0  0  0  0  0  0
   -1.0020    4.4544   12.9618 O   0  0  0  0  0  0  0  0  0  0  0  0
   -4.9333    2.7885   12.3337 C   0  0  0  0  0  0  0  0  0  0  0  0
   -4.1402    2.1243   11.3803 O   0  0  0  0  0  0  0  0  0  0  0  0
   -3.6172    3.1330    8.0107 C   0  0  1  0  0  0  0  0  0  0  0  0
   -2.5871    2.4036    8.6835 O   0  0  0  0  0  0  0  0  0  0  0  0
   -0.4690    2.1470   12.1191 C   0  0  0  0  0  0  0  0  0  0  0  0
    0.8765    1.9675   12.7305 N   0  0  0  0  0  0  0  0  0  0  0  0
  1  2  1  6  0  0  0
  1  7  1  0  0  0  0
  1 30  1  0  0  0  0
  3  4  1  6  0  0  0
  3  9  1  0  0  0  0
  3 39  1  0  0  0  0
  5 10  1  0  0  0  0
  5 26  1  0  0  0  0
  5 32  1  6  0  0  0
  6 12  1  0  0  0  0
  6 36  1  0  0  0  0
  6 19  1  1  0  0  0
  7  8  1  6  0  0  0
  7 14  1  0  0  0  0
  9 16  1  0  0  0  0
 10 11  1  1  0  0  0
 10 18  1  0  0  0  0
 12 13  1  1  0  0  0
 12 20  1  0  0  0  0
 14 15  1  1  0  0  0
 14 22  1  0  0  0  0
 16 17  1  6  0  0  0
 16 24  1  0  0  0  0
 18 19  1  1  0  0  0
 18 25  1  0  0  0  0
 20 21  1  6  0  0  0
 20 27  1  0  0  0  0
 22 23  1  1  0  0  0
 22 29  1  0  0  0  0
 24  2  1  1  0  0  0
 24 31  1  0  0  0  0
 25 26  1  0  0  0  0
 25 33  1  6  0  0  0
 27 28  1  1  0  0  0
 27 35  1  0  0  0  0
 29 30  1  0  0  0  0
 29 37  1  1  0  0  0
 31 32  1  6  0  0  0
 31 39  1  0  0  0  0
 33 34  1  0  0  0  0
 35 36  1  0  0  0  0
 35 41  1  1  0  0  0
 37 38  1  0  0  0  0
 39 40  1  1  0  0  0
 41 42  1  0  0  0  0
M  END
>  <CHROM.1>
170.95343099,167.09249022,-142.32313012,-57.28655469,40.27425886,-61.84163271
-160.99142923,118.83654980,-52.45290646,-3.85584559,4.77005871,11.38458748
2.53128529,0.67095778,-2.30766863

>  <Name>
2o3w_lig

>  <RI>
0

>  <Rbt.Current_Directory>
/home/itssahil/PROJECTS/Mol_Feturizer/New_Systems/rnas/2o3w

>  <Rbt.Executable>
rbdock ($Id: //depot/dev/client3/rdock/2013.1/src/exe/rbdock.cxx#4 $)

>  <Rbt.Library>
libRbt.so (2013.1, Build901 2013/11/27)

>  <Rbt.Parameter_File>
/export/apps/rDock/src/rDock_2013.1_src/data/scripts/dock_solv.prm

>  <Rbt.Receptor>
prm/blind_docking_20.prm

>  <SCORE>
40.99

>  <SCORE.INTER>
8.96951

>  <SCORE.INTER.CONST>
1

>  <SCORE.INTER.POLAR>
-0.468619

>  <SCORE.INTER.ROT>
9

>  <SCORE.INTER.SOLV>
28.7641

>  <SCORE.INTER.VDW>
-11.6463

>  <SCORE.INTER.norm>
0.21356

>  <SCORE.INTRA>
4.41778

>  <SCORE.INTRA.DIHEDRAL>
-11.2419

>  <SCORE.INTRA.DIHEDRAL.0>
27.8999

>  <SCORE.INTRA.POLAR>
0

>  <SCORE.INTRA.POLAR.0>
0

>  <SCORE.INTRA.REPUL>
0

>  <SCORE.INTRA.REPUL.0>
0

>  <SCORE.INTRA.SOLV>
3.33749

>  <SCORE.INTRA.SOLV.lig_0>
-104.479

>  <SCORE.INTRA.VDW>
8.37

>  <SCORE.INTRA.VDW.0>
-6.17816

>  <SCORE.INTRA.norm>
0.105185

>  <SCORE.RESTR>
27.6027

>  <SCORE.RESTR.CAVITY>
27.6027

>  <SCORE.RESTR.norm>
0.657208

>  <SCORE.SYSTEM>
0

>  <SCORE.SYSTEM.CONST>
0

>  <SCORE.SYSTEM.DIHEDRAL>
0

>  <SCORE.SYSTEM.SOLV>
0

>  <SCORE.SYSTEM.norm>
0

>  <SCORE.heavy>
42

>  <SCORE.norm>
0.975953

>  <RMSD>
15.922

$$$$
2o3w_lig
 OpenBabel11021811463D
libRbt.so/2013.1/901 2013/11/27
 42 45  0  0  0  0  0  0  0  0999 V2000
   -7.3237    5.3692    9.7735 C   0  0  2  0  0  0  0  0  0  0  0  0
   -6.2376    5.9017    8.9962 O   0  0  0  0  0  0  0  0  0  0  0  0
   -4.6353    2.1775    7.4605 C   0  0  2  0  0  0  0  0  0  0  0  0
   -3.8797    1.1745    6.6521 N   0  0  0  0  0  0  0  0  0  0  0  0
   -3.0476    5.6003   10.6812 C   0  0  1  0  0  0  0  0  0  0  0  0
   -2.0623    5.3898   13.5204 C   0  0  1  0  0  0  0  0  0  0  0  0
   -7.6238    6.4005   10.9024 C   0  0  2  0  0  0  0  0  0  0  0  0
   -7.7710    7.7731   10.3876 N   0  0  0  0  0  0  0  0  0  0  0  0
   -5.7066    2.9362    6.5782 C   0  0  0  0  0  0  0  0  0  0  0  0
   -1.8609    6.6070   10.7767 C   0  0  2  0  0  0  0  0  0  0  0  0
   -0.5543    5.9813   10.7560 O   0  0  0  0  0  0  0  0  0  0  0  0
   -2.2856    5.0835   15.0452 C   0  0  2  0  0  0  0  0  0  0  0  0
   -1.0534    5.3814   15.8351 N   0  0  0  0  0  0  0  0  0  0  0  0
   -6.5121    6.4417   11.9670 C   0  0  1  0  0  0  0  0  0  0  0  0
   -6.8471    7.3694   13.0004 O   0  0  0  0  0  0  0  0  0  0  0  0
   -6.4838    3.9610    7.4884 C   0  0  2  0  0  0  0  0  0  0  0  0
   -7.5120    4.6839    6.6922 N   0  0  0  0  0  0  0  0  0  0  0  0
   -2.2138    7.3613   12.0595 C   0  0  2  0  0  0  0  0  0  0  0  0
   -1.6241    6.7245   13.2375 O   0  0  0  0  0  0  0  0  0  0  0  0
   -2.7239    3.5522   15.2182 C   0  0  1  0  0  0  0  0  0  0  0  0
   -4.0892    3.4033   14.7680 O   0  0  0  0  0  0  0  0  0  0  0  0
   -6.2885    5.0214   12.5342 C   0  0  2  0  0  0  0  0  0  0  0  0
   -5.2849    5.0449   13.5225 O   0  0  0  0  0  0  0  0  0  0  0  0
   -5.4853    5.0011    8.1341 C   0  0  2  0  0  0  0  0  0  0  0  0
   -3.7496    7.3674   12.1395 C   0  0  2  0  0  0  0  0  0  0  0  0
   -4.1095    6.1471   11.4962 O   0  0  0  0  0  0  0  0  0  0  0  0
   -1.7799    2.5400   14.4109 C   0  0  2  0  0  0  0  0  0  0  0  0
   -0.5048    2.5359   15.0516 O   0  0  0  0  0  0  0  0  0  0  0  0
   -5.8902    4.0612   11.3642 C   0  0  2  0  0  0  0  0  0  0  0  0
   -6.9422    4.0614   10.3478 O   0  0  0  0  0  0  0  0  0  0  0  0
   -4.3737    4.3264    8.9673 C   0  0  2  0  0  0  0  0  0  0  0  0
   -3.4583    5.3990    9.3226 O   0  0  0  0  0  0  0  0  0  0  0  0
   -4.4395    8.5877   11.4545 C   0  0  0  0  0  0  0  0  0  0  0  0
   -3.9279    9.7931   12.0151 O   0  0  0  0  0  0  0  0  0  0  0  0
   -1.6341    2.9937   12.9092 C   0  0  1  0  0  0  0  0  0  0  0  0
   -1.1037    4.3676   12.9465 O   0  0  0  0  0  0  0  0  0  0  0  0
   -5.6576    2.6424   11.8299 C   0  0  0  0  0  0  0  0  0  0  0  0
   -4.4201    2.5462   12.4923 O   0  0  0  0  0  0  0  0  0  0  0  0
   -3.6352    3.2199    8.1037 C   0  0  1  0  0  0  0  0  0  0  0  0
   -2.7114    2.4932    8.9185 O   0  0  0  0  0  0  0  0  0  0  0  0
   -0.6837    2.0610   12.0401 C   0  0  0  0  0  0  0  0  0  0  0  0
   -1.3508    0.9116   11.3691 N   0  0  0  0  0  0  0  0  0  0  0  0
  1  2  1  6  0  0  0
  1  7  1  0  0  0  0
  1 30  1  0  0  0  0
  3  4  1  6  0  0  0
  3  9  1  0  0  0  0
  3 39  1  0  0  0  0
  5 10  1  0  0  0  0
  5 26  1  0  0  0  0
  5 32  1  6  0  0  0
  6 12  1  0  0  0  0
  6 36  1  0  0  0  0
  6 19  1  1  0  0  0
  7  8  1  6  0  0  0
  7 14  1  0  0  0  0
  9 16  1  0  0  0  0
 10 11  1  1  0  0  0
 10 18  1  0  0  0  0
 12 13  1  1  0  0  0
 12 20  1  0  0  0  0
 14 15  1  1  0  0  0
 14 22  1  0  0  0  0
 16 17  1  6  0  0  0
 16 24  1  0  0  0  0
 18 19  1  1  0  0  0
 18 25  1  0  0  0  0
 20 21  1  6  0  0  0
 20 27  1  0  0  0  0
 22 23  1  1  0  0  0
 22 29  1  0  0  0  0
 24  2  1  1  0  0  0
 24 31  1  0  0  0  0
 25 26  1  0  0  0  0
 25 33  1  6  0  0  0
 27 28  1  1  0  0  0
 27 35  1  0  0  0  0
 29 30  1  0  0  0  0
 29 37  1  1  0  0  0
 31 32  1  6  0  0  0
 31 39  1  0  0  0  0
 33 34  1  0  0  0  0
 35 36  1  0  0  0  0
 35 41  1  6  0  0  0
 37 38  1  0  0  0  0
 39 40  1  1  0  0  0
 41 42  1  0  0  0  0
M  END
>  <CHROM.1>
161.98591870,168.54079560,-140.01693888,-62.49526405,37.79557829,-56.36072747
-75.37595447,129.04203480,89.31397186,-4.01475039,4.78479692,11.29726432
2.56542300,0.74384199,-2.35089337

>  <Name>
2o3w_lig

>  <RI>
0

>  <Rbt.Current_Directory>
/home/itssahil/PROJECTS/Mol_Feturizer/New_Systems/rnas/2o3w

>  <Rbt.Executable>
rbdock ($Id: //depot/dev/client3/rdock/2013.1/src/exe/rbdock.cxx#4 $)

>  <Rbt.Library>
libRbt.so (2013.1, Build901 2013/11/27)

>  <Rbt.Parameter_File>
/export/apps/rDock/src/rDock_2013.1_src/data/scripts/dock_solv.prm

>  <Rbt.Receptor>
prm/blind_docking_20.prm

>  <SCORE>
38.1261

>  <SCORE.INTER>
6.10918

>  <SCORE.INTER.CONST>
1

>  <SCORE.INTER.POLAR>
-0.309639

>  <SCORE.INTER.ROT>
9

>  <SCORE.INTER.SOLV>
25.2221

>  <SCORE.INTER.VDW>
-12.9024

>  <SCORE.INTER.norm>
0.145457

>  <SCORE.INTRA>
2.81462

>  <SCORE.INTRA.DIHEDRAL>
-7.95304

>  <SCORE.INTRA.DIHEDRAL.0>
27.8999

>  <SCORE.INTRA.POLAR>
0

>  <SCORE.INTRA.POLAR.0>
0

>  <SCORE.INTRA.REPUL>
0.0768246

>  <SCORE.INTRA.REPUL.0>
0

>  <SCORE.INTRA.SOLV>
2.89711

>  <SCORE.INTRA.SOLV.lig_0>
-104.479

>  <SCORE.INTRA.VDW>
4.95846

>  <SCORE.INTRA.VDW.0>
-6.17816

>  <SCORE.INTRA.norm>
0.0670147

>  <SCORE.RESTR>
29.2023

>  <SCORE.RESTR.CAVITY>
29.2023

>  <SCORE.RESTR.norm>
0.695293

>  <SCORE.SYSTEM>
0

>  <SCORE.SYSTEM.CONST>
0

>  <SCORE.SYSTEM.DIHEDRAL>
0

>  <SCORE.SYSTEM.SOLV>
0

>  <SCORE.SYSTEM.norm>
0

>  <SCORE.heavy>
42

>  <SCORE.norm>
0.907765

>  <RMSD>
15.991

$$$$
2o3w_lig
 OpenBabel11021811463D
libRbt.so/2013.1/901 2013/11/27
 42 45  0  0  0  0  0  0  0  0999 V2000
   -1.8482    5.7319   12.0556 C   0  0  2  0  0  0  0  0  0  0  0  0
   -3.2736    5.9142   12.0083 O   0  0  0  0  0  0  0  0  0  0  0  0
   -3.7966    9.7418   13.9759 C   0  0  2  0  0  0  0  0  0  0  0  0
   -4.3042   11.0944   14.3545 N   0  0  0  0  0  0  0  0  0  0  0  0
   -6.1494    5.9857   12.2340 C   0  0  1  0  0  0  0  0  0  0  0  0
   -6.2858    4.6488    9.5778 C   0  0  1  0  0  0  0  0  0  0  0  0
   -1.5310    4.4207   11.2757 C   0  0  2  0  0  0  0  0  0  0  0  0
   -2.1731    4.3837    9.9502 N   0  0  0  0  0  0  0  0  0  0  0  0
   -3.1950    9.7433   12.5131 C   0  0  0  0  0  0  0  0  0  0  0  0
   -6.8802    4.6087   12.2558 C   0  0  2  0  0  0  0  0  0  0  0  0
   -6.0286    3.4843   11.9249 O   0  0  0  0  0  0  0  0  0  0  0  0
   -5.9696    5.7010    8.4546 C   0  0  2  0  0  0  0  0  0  0  0  0
   -6.7582    5.4153    7.2187 N   0  0  0  0  0  0  0  0  0  0  0  0
   -1.9989    3.1635   12.0317 C   0  0  1  0  0  0  0  0  0  0  0  0
   -1.6530    1.9859   11.3006 O   0  0  0  0  0  0  0  0  0  0  0  0
   -2.6576    8.2999   12.1809 C   0  0  2  0  0  0  0  0  0  0  0  0
   -2.0701    8.2683   10.8144 N   0  0  0  0  0  0  0  0  0  0  0  0
   -8.0365    4.8707   11.2895 C   0  0  2  0  0  0  0  0  0  0  0  0
   -7.6743    4.5324    9.9128 O   0  0  0  0  0  0  0  0  0  0  0  0
   -4.3969    5.6914    8.1488 C   0  0  1  0  0  0  0  0  0  0  0  0
   -3.7042    6.3324    9.2434 O   0  0  0  0  0  0  0  0  0  0  0  0
   -1.3776    3.1519   13.4470 C   0  0  2  0  0  0  0  0  0  0  0  0
   -1.7830    1.9982   14.1465 O   0  0  0  0  0  0  0  0  0  0  0  0
   -3.8206    7.2355   12.2827 C   0  0  2  0  0  0  0  0  0  0  0  0
   -8.3733    6.3652   11.4258 C   0  0  2  0  0  0  0  0  0  0  0  0
   -7.1148    6.9493   11.7535 O   0  0  0  0  0  0  0  0  0  0  0  0
   -3.8134    4.2142    7.9370 C   0  0  2  0  0  0  0  0  0  0  0  0
   -4.3367    3.7166    6.7061 O   0  0  0  0  0  0  0  0  0  0  0  0
   -1.8203    4.4450   14.2095 C   0  0  2  0  0  0  0  0  0  0  0  0
   -1.3970    5.6275   13.4596 O   0  0  0  0  0  0  0  0  0  0  0  0
   -4.4954    7.2167   13.6718 C   0  0  2  0  0  0  0  0  0  0  0  0
   -5.6398    6.3311   13.5286 O   0  0  0  0  0  0  0  0  0  0  0  0
   -9.4469    6.7019   12.5066 C   0  0  0  0  0  0  0  0  0  0  0  0
   -8.9689    6.2981   13.7863 O   0  0  0  0  0  0  0  0  0  0  0  0
   -4.2351    3.2738    9.1286 C   0  0  1  0  0  0  0  0  0  0  0  0
   -5.7071    3.3084    9.1759 O   0  0  0  0  0  0  0  0  0  0  0  0
   -1.2504    4.5198   15.6071 C   0  0  0  0  0  0  0  0  0  0  0  0
   -1.4474    5.8057   16.1429 O   0  0  0  0  0  0  0  0  0  0  0  0
   -4.9623    8.6779   14.0751 C   0  0  1  0  0  0  0  0  0  0  0  0
   -5.4484    8.6869   15.4202 O   0  0  0  0  0  0  0  0  0  0  0  0
   -3.7250    1.7748    8.9824 C   0  0  0  0  0  0  0  0  0  0  0  0
   -4.1285    1.0783    7.7300 N   0  0  0  0  0  0  0  0  0  0  0  0
  1  2  1  1  0  0  0
  1  7  1  0  0  0  0
  1 30  1  0  0  0  0
  3  4  1  6  0  0  0
  3  9  1  0  0  0  0
  3 39  1  0  0  0  0
  5 10  1  0  0  0  0
  5 26  1  0  0  0  0
  5 32  1  1  0  0  0
  6 12  1  0  0  0  0
  6 36  1  0  0  0  0
  6 19  1  6  0  0  0
  7  8  1  6  0  0  0
  7 14  1  0  0  0  0
  9 16  1  0  0  0  0
 10 11  1  6  0  0  0
 10 18  1  0  0  0  0
 12 13  1  6  0  0  0
 12 20  1  0  0  0  0
 14 15  1  6  0  0  0
 14 22  1  0  0  0  0
 16 17  1  6  0  0  0
 16 24  1  0  0  0  0
 18 19  1  6  0  0  0
 18 25  1  0  0  0  0
 20 21  1  1  0  0  0
 20 27  1  0  0  0  0
 22 23  1  1  0  0  0
 22 29  1  0  0  0  0
 24  2  1  1  0  0  0
 24 31  1  0  0  0  0
 25 26  1  0  0  0  0
 25 33  1  1  0  0  0
 27 28  1  6  0  0  0
 27 35  1  0  0  0  0
 29 30  1  0  0  0  0
 29 37  1  1  0  0  0
 31 32  1  6  0  0  0
 31 39  1  0  0  0  0
 33 34  1  0  0  0  0
 35 36  1  0  0  0  0
 35 41  1  6  0  0  0
 37 38  1  0  0  0  0
 39 40  1  1  0  0  0
 41 42  1  0  0  0  0
M  END
>  <CHROM.1>
-161.23388287,153.97884066,-118.06470675,-28.57252617,15.99710072,61.47749047
168.04958725,-17.30681278,-56.04829446,-4.38417209,5.48430835,11.63681618
-1.40713391,0.45325280,-2.30595744

>  <Name>
2o3w_lig

>  <RI>
0

>  <Rbt.Current_Directory>
/home/itssahil/PROJECTS/Mol_Feturizer/New_Systems/rnas/2o3w

>  <Rbt.Executable>
rbdock ($Id: //depot/dev/client3/rdock/2013.1/src/exe/rbdock.cxx#4 $)

>  <Rbt.Library>
libRbt.so (2013.1, Build901 2013/11/27)

>  <Rbt.Parameter_File>
/export/apps/rDock/src/rDock_2013.1_src/data/scripts/dock_solv.prm

>  <Rbt.Receptor>
prm/blind_docking_20.prm

>  <SCORE>
61.6087

>  <SCORE.INTER>
15.6913

>  <SCORE.INTER.CONST>
1

>  <SCORE.INTER.POLAR>
-0.625162

>  <SCORE.INTER.ROT>
9

>  <SCORE.INTER.SOLV>
20.9785

>  <SCORE.INTER.VDW>
-4.04811

>  <SCORE.INTER.norm>
0.373601

>  <SCORE.INTRA>
12.5781

>  <SCORE.INTRA.DIHEDRAL>
-0.0479695

>  <SCORE.INTRA.DIHEDRAL.0>
27.8999

>  <SCORE.INTRA.POLAR>
0

>  <SCORE.INTRA.POLAR.0>
0

>  <SCORE.INTRA.REPUL>
0

>  <SCORE.INTRA.REPUL.0>
0

>  <SCORE.INTRA.SOLV>
6.58684

>  <SCORE.INTRA.SOLV.lig_0>
-104.479

>  <SCORE.INTRA.VDW>
9.30867

>  <SCORE.INTRA.VDW.0>
-6.17816

>  <SCORE.INTRA.norm>
0.299479

>  <SCORE.RESTR>
33.3393

>  <SCORE.RESTR.CAVITY>
33.3393

>  <SCORE.RESTR.norm>
0.793793

>  <SCORE.SYSTEM>
0

>  <SCORE.SYSTEM.CONST>
0

>  <SCORE.SYSTEM.DIHEDRAL>
0

>  <SCORE.SYSTEM.SOLV>
0

>  <SCORE.SYSTEM.norm>
0

>  <SCORE.heavy>
42

>  <SCORE.norm>
1.46687

>  <RMSD>
15.997

$$$$
2o3w_lig
 OpenBabel11021811463D
libRbt.so/2013.1/901 2013/11/27
 42 45  0  0  0  0  0  0  0  0999 V2000
   -6.3787    6.0954    9.0147 C   0  0  2  0  0  0  0  0  0  0  0  0
   -4.9999    6.1625    8.6124 O   0  0  0  0  0  0  0  0  0  0  0  0
   -4.4209    2.0290    7.4397 C   0  0  2  0  0  0  0  0  0  0  0  0
   -3.8732    0.7835    6.8240 N   0  0  0  0  0  0  0  0  0  0  0  0
   -2.5906    4.8820   11.0427 C   0  0  1  0  0  0  0  0  0  0  0  0
   -1.9584    4.1475   13.8358 C   0  0  1  0  0  0  0  0  0  0  0  0
   -6.6515    7.3391    9.9131 C   0  0  2  0  0  0  0  0  0  0  0  0
   -6.1885    8.5936    9.2949 N   0  0  0  0  0  0  0  0  0  0  0  0
   -4.9212    3.0437    6.3343 C   0  0  0  0  0  0  0  0  0  0  0  0
   -1.1602    5.3474   11.4528 C   0  0  2  0  0  0  0  0  0  0  0  0
   -0.2371    4.2602   11.7076 O   0  0  0  0  0  0  0  0  0  0  0  0
   -3.5081    4.0286   13.6055 C   0  0  2  0  0  0  0  0  0  0  0  0
   -4.2622    4.7823   14.6515 N   0  0  0  0  0  0  0  0  0  0  0  0
   -5.9554    7.2347   11.2825 C   0  0  1  0  0  0  0  0  0  0  0  0
   -6.2646    8.3748   12.0859 O   0  0  0  0  0  0  0  0  0  0  0  0
   -5.5063    4.3232    7.0434 C   0  0  2  0  0  0  0  0  0  0  0  0
   -6.0007    5.2952    6.0313 N   0  0  0  0  0  0  0  0  0  0  0  0
   -1.4721    6.2458   12.6507 C   0  0  2  0  0  0  0  0  0  0  0  0
   -1.4666    5.4918   13.9046 O   0  0  0  0  0  0  0  0  0  0  0  0
   -3.9243    2.4814   13.5984 C   0  0  1  0  0  0  0  0  0  0  0  0
   -3.4776    1.8831   12.3609 O   0  0  0  0  0  0  0  0  0  0  0  0
   -6.3808    5.9217   11.9785 C   0  0  2  0  0  0  0  0  0  0  0  0
   -5.7648    5.8190   13.2412 O   0  0  0  0  0  0  0  0  0  0  0  0
   -4.4075    5.0110    7.9464 C   0  0  2  0  0  0  0  0  0  0  0  0
   -2.8562    6.8568   12.3740 C   0  0  2  0  0  0  0  0  0  0  0  0
   -3.5085    5.8428   11.6132 O   0  0  0  0  0  0  0  0  0  0  0  0
   -3.3156    1.6679   14.8374 C   0  0  2  0  0  0  0  0  0  0  0  0
   -3.9737    2.1251   16.0182 O   0  0  0  0  0  0  0  0  0  0  0  0
   -5.9846    4.7106   11.0697 C   0  0  2  0  0  0  0  0  0  0  0  0
   -6.6280    4.8449    9.7629 O   0  0  0  0  0  0  0  0  0  0  0  0
   -3.8301    4.0590    9.0168 C   0  0  2  0  0  0  0  0  0  0  0  0
   -2.7243    4.7867    9.6186 O   0  0  0  0  0  0  0  0  0  0  0  0
   -2.8347    8.2120   11.6012 C   0  0  0  0  0  0  0  0  0  0  0  0
   -2.2122    8.0214   10.3344 O   0  0  0  0  0  0  0  0  0  0  0  0
   -1.7627    1.9079   14.9510 C   0  0  1  0  0  0  0  0  0  0  0  0
   -1.5819    3.3646   15.0761 O   0  0  0  0  0  0  0  0  0  0  0  0
   -6.3711    3.3800   11.6730 C   0  0  0  0  0  0  0  0  0  0  0  0
   -5.6690    2.3382   11.0397 O   0  0  0  0  0  0  0  0  0  0  0  0
   -3.3192    2.7182    8.3407 C   0  0  1  0  0  0  0  0  0  0  0  0
   -2.9255    1.7785    9.3445 O   0  0  0  0  0  0  0  0  0  0  0  0
   -1.0801    1.1619   16.1783 C   0  0  0  0  0  0  0  0  0  0  0  0
    0.3337    0.7441   15.9701 N   0  0  0  0  0  0  0  0  0  0  0  0
  1  2  1  1  0  0  0
  1  7  1  0  0  0  0
  1 30  1  0  0  0  0
  3  4  1  6  0  0  0
  3  9  1  0  0  0  0
  3 39  1  0  0  0  0
  5 10  1  0  0  0  0
  5 26  1  0  0  0  0
  5 32  1  6  0  0  0
  6 12  1  0  0  0  0
  6 36  1  0  0  0  0
  6 19  1  1  0  0  0
  7  8  1  6  0  0  0
  7 14  1  0  0  0  0
  9 16  1  0  0  0  0
 10 11  1  1  0  0  0
 10 18  1  0  0  0  0
 12 13  1  1  0  0  0
 12 20  1  0  0  0  0
 14 15  1  1  0  0  0
 14 22  1  0  0  0  0
 16 17  1  6  0  0  0
 16 24  1  0  0  0  0
 18 19  1  1  0  0  0
 18 25  1  0  0  0  0
 20 21  1  6  0  0  0
 20 27  1  0  0  0  0
 22 23  1  1  0  0  0
 22 29  1  0  0  0  0
 24  2  1  1  0  0  0
 24 31  1  0  0  0  0
 25 26  1  0  0  0  0
 25 33  1  6  0  0  0
 27 28  1  1  0  0  0
 27 35  1  0  0  0  0
 29 30  1  0  0  0  0
 29 37  1  1  0  0  0
 31 32  1  6  0  0  0
 31 39  1  0  0  0  0
 33 34  1  0  0  0  0
 35 36  1  0  0  0  0
 35 41  1  1  0  0  0
 37 38  1  0  0  0  0
 39 40  1  1  0  0  0
 41 42  1  0  0  0  0
M  END
>  <CHROM.1>
169.93721197,164.14226660,-70.37399831,-35.35629038,34.63970232,60.15993717
-162.88259894,131.41335501,149.16229281,-3.84545883,4.48324957,11.32894058
2.81076813,1.07998849,-2.38240796

>  <Name>
2o3w_lig

>  <RI>
0

>  <Rbt.Current_Directory>
/home/itssahil/PROJECTS/Mol_Feturizer/New_Systems/rnas/2o3w

>  <Rbt.Executable>
rbdock ($Id: //depot/dev/client3/rdock/2013.1/src/exe/rbdock.cxx#4 $)

>  <Rbt.Library>
libRbt.so (2013.1, Build901 2013/11/27)

>  <Rbt.Parameter_File>
/export/apps/rDock/src/rDock_2013.1_src/data/scripts/dock_solv.prm

>  <Rbt.Receptor>
prm/blind_docking_20.prm

>  <SCORE>
38.6955

>  <SCORE.INTER>
3.71833

>  <SCORE.INTER.CONST>
1

>  <SCORE.INTER.POLAR>
0

>  <SCORE.INTER.ROT>
9

>  <SCORE.INTER.SOLV>
18.3174

>  <SCORE.INTER.VDW>
-13.2269

>  <SCORE.INTER.norm>
0.0885316

>  <SCORE.INTRA>
1.84061

>  <SCORE.INTRA.DIHEDRAL>
-9.96024

>  <SCORE.INTRA.DIHEDRAL.0>
27.8999

>  <SCORE.INTRA.POLAR>
0

>  <SCORE.INTRA.POLAR.0>
0

>  <SCORE.INTRA.REPUL>
0.272255

>  <SCORE.INTRA.REPUL.0>
0

>  <SCORE.INTRA.SOLV>
4.63736

>  <SCORE.INTRA.SOLV.lig_0>
-104.479

>  <SCORE.INTRA.VDW>
3.14078

>  <SCORE.INTRA.VDW.0>
-6.17816

>  <SCORE.INTRA.norm>
0.043824

>  <SCORE.RESTR>
33.1366

>  <SCORE.RESTR.CAVITY>
33.1366

>  <SCORE.RESTR.norm>
0.788967

>  <SCORE.SYSTEM>
0

>  <SCORE.SYSTEM.CONST>
0

>  <SCORE.SYSTEM.DIHEDRAL>
0

>  <SCORE.SYSTEM.SOLV>
0

>  <SCORE.SYSTEM.norm>
0

>  <SCORE.heavy>
42

>  <SCORE.norm>
0.921323

>  <RMSD>
16.045

$$$$
2o3w_lig
 OpenBabel11021811463D
libRbt.so/2013.1/901 2013/11/27
 42 45  0  0  0  0  0  0  0  0999 V2000
   -3.6600    4.6661   14.2491 C   0  0  2  0  0  0  0  0  0  0  0  0
   -3.3207    4.7132   12.8527 O   0  0  0  0  0  0  0  0  0  0  0  0
   -3.3823    8.9430   11.9037 C   0  0  2  0  0  0  0  0  0  0  0  0
   -3.6363   10.2507   11.2284 N   0  0  0  0  0  0  0  0  0  0  0  0
   -6.1610    5.1584   11.9310 C   0  0  1  0  0  0  0  0  0  0  0  0
   -5.7299    2.9776    9.9097 C   0  0  1  0  0  0  0  0  0  0  0  0
   -2.3686    5.0256   15.0437 C   0  0  2  0  0  0  0  0  0  0  0  0
   -1.7241    6.2534   14.5462 N   0  0  0  0  0  0  0  0  0  0  0  0
   -2.4767    8.0024   11.0110 C   0  0  0  0  0  0  0  0  0  0  0  0
   -6.2640    3.6995   12.4710 C   0  0  2  0  0  0  0  0  0  0  0  0
   -5.0339    2.9420   12.3603 O   0  0  0  0  0  0  0  0  0  0  0  0
   -5.7824    4.2197    8.9488 C   0  0  2  0  0  0  0  0  0  0  0  0
   -6.7055    3.9683    7.8019 N   0  0  0  0  0  0  0  0  0  0  0  0
   -1.3107    3.9089   14.9753 C   0  0  1  0  0  0  0  0  0  0  0  0
   -0.1627    4.2633   15.7483 O   0  0  0  0  0  0  0  0  0  0  0  0
   -2.2262    6.6523   11.7836 C   0  0  2  0  0  0  0  0  0  0  0  0
   -1.3638    5.7470   10.9772 N   0  0  0  0  0  0  0  0  0  0  0  0
   -7.4458    3.1654   11.6602 C   0  0  2  0  0  0  0  0  0  0  0  0
   -7.0052    2.5530   10.4065 O   0  0  0  0  0  0  0  0  0  0  0  0
   -4.3022    4.5528    8.4340 C   0  0  1  0  0  0  0  0  0  0  0  0
   -3.5546    5.1512    9.5165 O   0  0  0  0  0  0  0  0  0  0  0  0
   -1.9313    2.5800   15.4632 C   0  0  2  0  0  0  0  0  0  0  0  0
   -0.9704    1.5507   15.4226 O   0  0  0  0  0  0  0  0  0  0  0  0
   -3.5952    5.9325   12.1056 C   0  0  2  0  0  0  0  0  0  0  0  0
   -8.3615    4.3731   11.3988 C   0  0  2  0  0  0  0  0  0  0  0  0
   -7.4456    5.4641   11.3417 O   0  0  0  0  0  0  0  0  0  0  0  0
   -3.5246    3.2588    7.8968 C   0  0  2  0  0  0  0  0  0  0  0  0
   -4.1538    2.8513    6.6825 O   0  0  0  0  0  0  0  0  0  0  0  0
   -3.1585    2.2270   14.5582 C   0  0  2  0  0  0  0  0  0  0  0  0
   -4.1364    3.3137   14.6095 O   0  0  0  0  0  0  0  0  0  0  0  0
   -4.5570    6.8161   12.9300 C   0  0  2  0  0  0  0  0  0  0  0  0
   -5.8107    6.0805   12.9713 O   0  0  0  0  0  0  0  0  0  0  0  0
   -9.4565    4.6157   12.4834 C   0  0  0  0  0  0  0  0  0  0  0  0
   -8.8451    5.1316   13.6620 O   0  0  0  0  0  0  0  0  0  0  0  0
   -3.5820    2.0956    8.9577 C   0  0  1  0  0  0  0  0  0  0  0  0
   -5.0111    1.8427    9.2109 O   0  0  0  0  0  0  0  0  0  0  0  0
   -3.8334    0.9391   14.9700 C   0  0  0  0  0  0  0  0  0  0  0  0
   -4.3861    1.0714   16.2570 O   0  0  0  0  0  0  0  0  0  0  0  0
   -4.7531    8.2221   12.2226 C   0  0  1  0  0  0  0  0  0  0  0  0
   -5.5200    9.0926   13.0591 O   0  0  0  0  0  0  0  0  0  0  0  0
   -2.8613    0.7572    8.4909 C   0  0  0  0  0  0  0  0  0  0  0  0
   -1.3820    0.7327    8.6571 N   0  0  0  0  0  0  0  0  0  0  0  0
  1  2  1  6  0  0  0
  1  7  1  0  0  0  0
  1 30  1  0  0  0  0
  3  4  1  6  0  0  0
  3  9  1  0  0  0  0
  3 39  1  0  0  0  0
  5 10  1  0  0  0  0
  5 26  1  0  0  0  0
  5 32  1  1  0  0  0
  6 12  1  0  0  0  0
  6 36  1  0  0  0  0
  6 19  1  6  0  0  0
  7  8  1  6  0  0  0
  7 14  1  0  0  0  0
  9 16  1  0  0  0  0
 10 11  1  6  0  0  0
 10 18  1  0  0  0  0
 12 13  1  6  0  0  0
 12 20  1  0  0  0  0
 14 15  1  1  0  0  0
 14 22  1  0  0  0  0
 16 17  1  6  0  0  0
 16 24  1  0  0  0  0
 18 19  1  6  0  0  0
 18 25  1  0  0  0  0
 20 21  1  1  0  0  0
 20 27  1  0  0  0  0
 22 23  1  6  0  0  0
 22 29  1  0  0  0  0
 24  2  1  1  0  0  0
 24 31  1  0  0  0  0
 25 26  1  0  0  0  0
 25 33  1  1  0  0  0
 27 28  1  6  0  0  0
 27 35  1  0  0  0  0
 29 30  1  0  0  0  0
 29 37  1  1  0  0  0
 31 32  1  6  0  0  0
 31 39  1  0  0  0  0
 33 34  1  0  0  0  0
 35 36  1  0  0  0  0
 35 41  1  6  0  0  0
 37 38  1  0  0  0  0
 39 40  1  1  0  0  0
 41 42  1  0  0  0  0
M  END
>  <CHROM.1>
-95.76216381,116.12905205,-89.95267818,-22.78682109,108.41454962,72.93695383
64.36883061,-26.72222276,81.30520987,-4.32343908,4.39577671,11.95448008,0.55724103
-0.95890943,0.56410872

>  <Name>
2o3w_lig

>  <RI>
0

>  <Rbt.Current_Directory>
/home/itssahil/PROJECTS/Mol_Feturizer/New_Systems/rnas/2o3w

>  <Rbt.Executable>
rbdock ($Id: //depot/dev/client3/rdock/2013.1/src/exe/rbdock.cxx#4 $)

>  <Rbt.Library>
libRbt.so (2013.1, Build901 2013/11/27)

>  <Rbt.Parameter_File>
/export/apps/rDock/src/rDock_2013.1_src/data/scripts/dock_solv.prm

>  <Rbt.Receptor>
prm/blind_docking_20.prm

>  <SCORE>
50.3312

>  <SCORE.INTER>
4.26973

>  <SCORE.INTER.CONST>
1

>  <SCORE.INTER.POLAR>
0

>  <SCORE.INTER.ROT>
9

>  <SCORE.INTER.SOLV>
22.9143

>  <SCORE.INTER.VDW>
-14.3916

>  <SCORE.INTER.norm>
0.10166

>  <SCORE.INTRA>
13.1623

>  <SCORE.INTRA.DIHEDRAL>
5.30807

>  <SCORE.INTRA.DIHEDRAL.0>
27.8999

>  <SCORE.INTRA.POLAR>
0

>  <SCORE.INTRA.POLAR.0>
0

>  <SCORE.INTRA.REPUL>
0

>  <SCORE.INTRA.REPUL.0>
0

>  <SCORE.INTRA.SOLV>
3.94178

>  <SCORE.INTRA.SOLV.lig_0>
-104.479

>  <SCORE.INTRA.VDW>
8.53739

>  <SCORE.INTRA.VDW.0>
-6.17816

>  <SCORE.INTRA.norm>
0.313389

>  <SCORE.RESTR>
32.8991

>  <SCORE.RESTR.CAVITY>
32.8991

>  <SCORE.RESTR.norm>
0.783313

>  <SCORE.SYSTEM>
0

>  <SCORE.SYSTEM.CONST>
0

>  <SCORE.SYSTEM.DIHEDRAL>
0

>  <SCORE.SYSTEM.SOLV>
0

>  <SCORE.SYSTEM.norm>
0

>  <SCORE.heavy>
42

>  <SCORE.norm>
1.19836

>  <RMSD>
16.052

$$$$
2o3w_lig
 OpenBabel11021811463D
libRbt.so/2013.1/901 2013/11/27
 42 45  0  0  0  0  0  0  0  0999 V2000
   -4.5581    4.3711    8.4849 C   0  0  2  0  0  0  0  0  0  0  0  0
   -5.9482    4.1175    8.7507 O   0  0  0  0  0  0  0  0  0  0  0  0
   -8.7502    4.9832   11.9438 C   0  0  2  0  0  0  0  0  0  0  0  0
   -9.3512    5.2168   13.2908 N   0  0  0  0  0  0  0  0  0  0  0  0
   -4.5342    6.2684   11.1436 C   0  0  1  0  0  0  0  0  0  0  0  0
   -2.2873    5.2406   13.1982 C   0  0  1  0  0  0  0  0  0  0  0  0
   -4.1946    3.5945    7.1837 C   0  0  2  0  0  0  0  0  0  0  0  0
   -5.1488    3.8486    6.0903 N   0  0  0  0  0  0  0  0  0  0  0  0
   -8.2493    3.4908   11.7897 C   0  0  0  0  0  0  0  0  0  0  0  0
   -3.5073    7.4413   11.1670 C   0  0  2  0  0  0  0  0  0  0  0  0
   -2.4000    7.2735   10.2479 O   0  0  0  0  0  0  0  0  0  0  0  0
   -3.0997    4.9797   14.5176 C   0  0  2  0  0  0  0  0  0  0  0  0
   -2.4004    5.5670   15.6995 N   0  0  0  0  0  0  0  0  0  0  0  0
   -4.1639    2.0706    7.4021 C   0  0  1  0  0  0  0  0  0  0  0  0
   -3.7885    1.4028    6.1963 O   0  0  0  0  0  0  0  0  0  0  0  0
   -7.6482    3.3008   10.3457 C   0  0  2  0  0  0  0  0  0  0  0  0
   -7.1792    1.9010   10.1605 N   0  0  0  0  0  0  0  0  0  0  0  0
   -3.1364    7.4817   12.6503 C   0  0  2  0  0  0  0  0  0  0  0  0
   -1.9912    6.6192   12.9423 O   0  0  0  0  0  0  0  0  0  0  0  0
   -3.3165    3.4030   14.7019 C   0  0  1  0  0  0  0  0  0  0  0  0
   -4.3057    2.9529   13.7492 O   0  0  0  0  0  0  0  0  0  0  0  0
   -3.1948    1.7349    8.5585 C   0  0  2  0  0  0  0  0  0  0  0  0
   -3.1425    0.3416    8.7601 O   0  0  0  0  0  0  0  0  0  0  0  0
   -6.4466    4.2984   10.1069 C   0  0  2  0  0  0  0  0  0  0  0  0
   -4.3896    7.0216   13.4139 C   0  0  2  0  0  0  0  0  0  0  0  0
   -5.0072    6.1166   12.5017 O   0  0  0  0  0  0  0  0  0  0  0  0
   -1.9658    2.5628   14.5096 C   0  0  2  0  0  0  0  0  0  0  0  0
   -1.1148    2.8555   15.6171 O   0  0  0  0  0  0  0  0  0  0  0  0
   -3.6771    2.4639    9.8568 C   0  0  2  0  0  0  0  0  0  0  0  0
   -3.7321    3.9062    9.6195 O   0  0  0  0  0  0  0  0  0  0  0  0
   -6.8493    5.7773   10.2966 C   0  0  2  0  0  0  0  0  0  0  0  0
   -5.6040    6.5245   10.2243 O   0  0  0  0  0  0  0  0  0  0  0  0
   -5.3699    8.1654   13.8200 C   0  0  0  0  0  0  0  0  0  0  0  0
   -4.8571    9.4110   13.3569 O   0  0  0  0  0  0  0  0  0  0  0  0
   -1.2559    2.9532   13.1584 C   0  0  1  0  0  0  0  0  0  0  0  0
   -1.0237    4.4065   13.2232 O   0  0  0  0  0  0  0  0  0  0  0  0
   -2.7791    2.1951   11.0422 C   0  0  0  0  0  0  0  0  0  0  0  0
   -3.0395    0.9163   11.5677 O   0  0  0  0  0  0  0  0  0  0  0  0
   -7.5457    5.9800   11.7071 C   0  0  1  0  0  0  0  0  0  0  0  0
   -8.0531    7.3125   11.8199 O   0  0  0  0  0  0  0  0  0  0  0  0
    0.1146    2.1885   12.9023 C   0  0  0  0  0  0  0  0  0  0  0  0
   -0.0105    0.7494   12.5421 N   0  0  0  0  0  0  0  0  0  0  0  0
  1  2  1  1  0  0  0
  1  7  1  0  0  0  0
  1 30  1  0  0  0  0
  3  4  1  1  0  0  0
  3  9  1  0  0  0  0
  3 39  1  0  0  0  0
  5 10  1  0  0  0  0
  5 26  1  0  0  0  0
  5 32  1  6  0  0  0
  6 12  1  0  0  0  0
  6 36  1  0  0  0  0
  6 19  1  1  0  0  0
  7  8  1  6  0  0  0
  7 14  1  0  0  0  0
  9 16  1  0  0  0  0
 10 11  1  6  0  0  0
 10 18  1  0  0  0  0
 12 13  1  1  0  0  0
 12 20  1  0  0  0  0
 14 15  1  6  0  0  0
 14 22  1  0  0  0  0
 16 17  1  1  0  0  0
 16 24  1  0  0  0  0
 18 19  1  6  0  0  0
 18 25  1  0  0  0  0
 20 21  1  6  0  0  0
 20 27  1  0  0  0  0
 22 23  1  1  0  0  0
 22 29  1  0  0  0  0
 24  2  1  6  0  0  0
 24 31  1  0  0  0  0
 25 26  1  0  0  0  0
 25 33  1  6  0  0  0
 27 28  1  1  0  0  0
 27 35  1  0  0  0  0
 29 30  1  0  0  0  0
 29 37  1  1  0  0  0
 31 32  1  1  0  0  0
 31 39  1  0  0  0  0
 33 34  1  0  0  0  0
 35 36  1  0  0  0  0
 35 41  1  1  0  0  0
 37 38  1  0  0  0  0
 39 40  1  6  0  0  0
 41 42  1  0  0  0  0
M  END
>  <CHROM.1>
158.28480759,-162.63966238,-66.68442461,-85.56651840,-150.11218900,0.59714965
-77.39208012,-59.28397480,72.65890770,-4.23486498,4.37195579,11.43469186
1.86130243,0.59140927,-2.25546784

>  <Name>
2o3w_lig

>  <RI>
0

>  <Rbt.Current_Directory>
/home/itssahil/PROJECTS/Mol_Feturizer/New_Systems/rnas/2o3w

>  <Rbt.Executable>
rbdock ($Id: //depot/dev/client3/rdock/2013.1/src/exe/rbdock.cxx#4 $)

>  <Rbt.Library>
libRbt.so (2013.1, Build901 2013/11/27)

>  <Rbt.Parameter_File>
/export/apps/rDock/src/rDock_2013.1_src/data/scripts/dock_solv.prm

>  <Rbt.Receptor>
prm/blind_docking_20.prm

>  <SCORE>
37.712

>  <SCORE.INTER>
1.01922

>  <SCORE.INTER.CONST>
1

>  <SCORE.INTER.POLAR>
0

>  <SCORE.INTER.ROT>
9

>  <SCORE.INTER.SOLV>
16.6225

>  <SCORE.INTER.VDW>
-14.4614

>  <SCORE.INTER.norm>
0.0242672

>  <SCORE.INTRA>
2.32067

>  <SCORE.INTRA.DIHEDRAL>
-10.9645

>  <SCORE.INTRA.DIHEDRAL.0>
27.8999

>  <SCORE.INTRA.POLAR>
0

>  <SCORE.INTRA.POLAR.0>
0

>  <SCORE.INTRA.REPUL>
0

>  <SCORE.INTRA.REPUL.0>
0

>  <SCORE.INTRA.SOLV>
1.49827

>  <SCORE.INTRA.SOLV.lig_0>
-104.479

>  <SCORE.INTRA.VDW>
7.0538

>  <SCORE.INTRA.VDW.0>
-6.17816

>  <SCORE.INTRA.norm>
0.055254

>  <SCORE.RESTR>
34.3721

>  <SCORE.RESTR.CAVITY>
34.3721

>  <SCORE.RESTR.norm>
0.818383

>  <SCORE.SYSTEM>
0

>  <SCORE.SYSTEM.CONST>
0

>  <SCORE.SYSTEM.DIHEDRAL>
0

>  <SCORE.SYSTEM.SOLV>
0

>  <SCORE.SYSTEM.norm>
0

>  <SCORE.heavy>
42

>  <SCORE.norm>
0.897904

>  <RMSD>
16.063

$$$$
2o3w_lig
 OpenBabel11021811463D
libRbt.so/2013.1/901 2013/11/27
 42 45  0  0  0  0  0  0  0  0999 V2000
   -5.3687    4.8569    7.4840 C   0  0  2  0  0  0  0  0  0  0  0  0
   -4.2350    4.7536    8.3622 O   0  0  0  0  0  0  0  0  0  0  0  0
   -5.7081    1.5186   10.8442 C   0  0  2  0  0  0  0  0  0  0  0  0
   -5.8683    0.5264   11.9489 N   0  0  0  0  0  0  0  0  0  0  0  0
   -4.2164    5.6323   11.7787 C   0  0  1  0  0  0  0  0  0  0  0  0
   -1.7369    5.2707   13.3359 C   0  0  1  0  0  0  0  0  0  0  0  0
   -5.0747    6.0263    6.4970 C   0  0  2  0  0  0  0  0  0  0  0  0
   -3.7447    5.9165    5.8729 N   0  0  0  0  0  0  0  0  0  0  0  0
   -4.3608    1.2813   10.0504 C   0  0  0  0  0  0  0  0  0  0  0  0
   -3.0300    6.3096   11.0274 C   0  0  2  0  0  0  0  0  0  0  0  0
   -2.0661    5.3746   10.4836 O   0  0  0  0  0  0  0  0  0  0  0  0
   -2.2498    5.1281   14.8142 C   0  0  2  0  0  0  0  0  0  0  0  0
   -1.2967    5.7628   15.7731 N   0  0  0  0  0  0  0  0  0  0  0  0
   -5.1298    7.4015    7.1875 C   0  0  1  0  0  0  0  0  0  0  0  0
   -4.8941    8.4439    6.2394 O   0  0  0  0  0  0  0  0  0  0  0  0
   -4.2599    2.3404    8.8883 C   0  0  2  0  0  0  0  0  0  0  0  0
   -3.0083    2.1368    8.1099 N   0  0  0  0  0  0  0  0  0  0  0  0
   -2.4988    7.2572   12.1041 C   0  0  2  0  0  0  0  0  0  0  0  0
   -1.4698    6.6171   12.9240 O   0  0  0  0  0  0  0  0  0  0  0  0
   -2.4598    3.5764   15.1535 C   0  0  1  0  0  0  0  0  0  0  0  0
   -3.6428    3.1047   14.4703 O   0  0  0  0  0  0  0  0  0  0  0  0
   -6.4976    7.5731    7.8866 C   0  0  2  0  0  0  0  0  0  0  0  0
   -6.5704    8.8344    8.5096 O   0  0  0  0  0  0  0  0  0  0  0  0
   -4.2898    3.8092    9.4693 C   0  0  2  0  0  0  0  0  0  0  0  0
   -3.7164    7.6606   12.9526 C   0  0  2  0  0  0  0  0  0  0  0  0
   -4.5568    6.5117   12.8750 O   0  0  0  0  0  0  0  0  0  0  0  0
   -1.2038    2.6730   14.7365 C   0  0  2  0  0  0  0  0  0  0  0  0
   -0.1260    3.0033   15.6114 O   0  0  0  0  0  0  0  0  0  0  0  0
   -6.6821    6.4264    8.9358 C   0  0  2  0  0  0  0  0  0  0  0  0
   -6.5931    5.1286    8.2669 O   0  0  0  0  0  0  0  0  0  0  0  0
   -5.5553    4.0963   10.3067 C   0  0  2  0  0  0  0  0  0  0  0  0
   -5.3294    5.4023   10.9049 O   0  0  0  0  0  0  0  0  0  0  0  0
   -4.4658    8.9383   12.4627 C   0  0  0  0  0  0  0  0  0  0  0  0
   -5.6656    9.0971   13.2137 O   0  0  0  0  0  0  0  0  0  0  0  0
   -0.7947    2.9468   13.2399 C   0  0  1  0  0  0  0  0  0  0  0  0
   -0.5187    4.3910   13.1488 O   0  0  0  0  0  0  0  0  0  0  0  0
   -8.0025    6.5131    9.6657 C   0  0  0  0  0  0  0  0  0  0  0  0
   -8.0367    5.5805   10.7185 O   0  0  0  0  0  0  0  0  0  0  0  0
   -5.7351    2.9882   11.4273 C   0  0  1  0  0  0  0  0  0  0  0  0
   -6.9831    3.1672   12.1025 O   0  0  0  0  0  0  0  0  0  0  0  0
    0.4686    2.1138   12.7511 C   0  0  0  0  0  0  0  0  0  0  0  0
    1.7688    2.4994   13.3652 N   0  0  0  0  0  0  0  0  0  0  0  0
  1  2  1  1  0  0  0
  1  7  1  0  0  0  0
  1 30  1  0  0  0  0
  3  4  1  1  0  0  0
  3  9  1  0  0  0  0
  3 39  1  0  0  0  0
  5 10  1  0  0  0  0
  5 26  1  0  0  0  0
  5 32  1  6  0  0  0
  6 12  1  0  0  0  0
  6 36  1  0  0  0  0
  6 19  1  1  0  0  0
  7  8  1  1  0  0  0
  7 14  1  0  0  0  0
  9 16  1  0  0  0  0
 10 11  1  1  0  0  0
 10 18  1  0  0  0  0
 12 13  1  1  0  0  0
 12 20  1  0  0  0  0
 14 15  1  6  0  0  0
 14 22  1  0  0  0  0
 16 17  1  1  0  0  0
 16 24  1  0  0  0  0
 18 19  1  1  0  0  0
 18 25  1  0  0  0  0
 20 21  1  6  0  0  0
 20 27  1  0  0  0  0
 22 23  1  1  0  0  0
 22 29  1  0  0  0  0
 24  2  1  6  0  0  0
 24 31  1  0  0  0  0
 25 26  1  0  0  0  0
 25 33  1  6  0  0  0
 27 28  1  1  0  0  0
 27 35  1  0  0  0  0
 29 30  1  0  0  0  0
 29 37  1  6  0  0  0
 31 32  1  1  0  0  0
 31 39  1  0  0  0  0
 33 34  1  0  0  0  0
 35 36  1  0  0  0  0
 35 41  1  1  0  0  0
 37 38  1  0  0  0  0
 39 40  1  6  0  0  0
 41 42  1  0  0  0  0
M  END
>  <CHROM.1>
174.72259011,98.74165337,-100.85719429,-43.38041299,68.93961260,172.11643206
-171.77156418,-60.17605984,-68.96683380,-3.95446865,5.00078399,11.10577742
3.06372912,-0.93899899,0.34119878

>  <Name>
2o3w_lig

>  <RI>
0

>  <Rbt.Current_Directory>
/home/itssahil/PROJECTS/Mol_Feturizer/New_Systems/rnas/2o3w

>  <Rbt.Executable>
rbdock ($Id: //depot/dev/client3/rdock/2013.1/src/exe/rbdock.cxx#4 $)

>  <Rbt.Library>
libRbt.so (2013.1, Build901 2013/11/27)

>  <Rbt.Parameter_File>
/export/apps/rDock/src/rDock_2013.1_src/data/scripts/dock_solv.prm

>  <Rbt.Receptor>
prm/blind_docking_20.prm

>  <SCORE>
39.3131

>  <SCORE.INTER>
3.60105

>  <SCORE.INTER.CONST>
1

>  <SCORE.INTER.POLAR>
-0.446967

>  <SCORE.INTER.ROT>
9

>  <SCORE.INTER.SOLV>
22.4628

>  <SCORE.INTER.VDW>
-13.197

>  <SCORE.INTER.norm>
0.0857393

>  <SCORE.INTRA>
-3.08036

>  <SCORE.INTRA.DIHEDRAL>
-14.56

>  <SCORE.INTRA.DIHEDRAL.0>
27.8999

>  <SCORE.INTRA.POLAR>
0

>  <SCORE.INTRA.POLAR.0>
0

>  <SCORE.INTRA.REPUL>
0

>  <SCORE.INTRA.REPUL.0>
0

>  <SCORE.INTRA.SOLV>
-1.27599

>  <SCORE.INTRA.SOLV.lig_0>
-104.479

>  <SCORE.INTRA.VDW>
4.83764

>  <SCORE.INTRA.VDW.0>
-6.17816

>  <SCORE.INTRA.norm>
-0.073342

>  <SCORE.RESTR>
38.7924

>  <SCORE.RESTR.CAVITY>
38.7924

>  <SCORE.RESTR.norm>
0.923628

>  <SCORE.SYSTEM>
0

>  <SCORE.SYSTEM.CONST>
0

>  <SCORE.SYSTEM.DIHEDRAL>
0

>  <SCORE.SYSTEM.SOLV>
0

>  <SCORE.SYSTEM.norm>
0

>  <SCORE.heavy>
42

>  <SCORE.norm>
0.936025

>  <RMSD>
16.084

$$$$
2o3w_lig
 OpenBabel11021811463D
libRbt.so/2013.1/901 2013/11/27
 42 45  0  0  0  0  0  0  0  0999 V2000
   -4.6461    7.1859    9.7020 C   0  0  2  0  0  0  0  0  0  0  0  0
   -3.6918    8.0660    9.0839 O   0  0  0  0  0  0  0  0  0  0  0  0
   -1.8058   11.8758    9.9353 C   0  0  2  0  0  0  0  0  0  0  0  0
   -1.5321   13.2474   10.4590 N   0  0  0  0  0  0  0  0  0  0  0  0
   -2.7909    7.1570   11.7017 C   0  0  1  0  0  0  0  0  0  0  0  0
   -1.9004    2.9203   12.9994 C   0  0  1  0  0  0  0  0  0  0  0  0
   -4.2371    5.7314    9.3209 C   0  0  2  0  0  0  0  0  0  0  0  0
   -2.8102    5.4632    9.5708 N   0  0  0  0  0  0  0  0  0  0  0  0
   -3.0474   11.8728    8.9554 C   0  0  0  0  0  0  0  0  0  0  0  0
   -1.6867    6.6052   12.6542 C   0  0  2  0  0  0  0  0  0  0  0  0
   -0.3970    6.4249   12.0192 O   0  0  0  0  0  0  0  0  0  0  0  0
   -2.1105    2.9819   14.5553 C   0  0  2  0  0  0  0  0  0  0  0  0
   -1.1966    3.9862   15.1776 N   0  0  0  0  0  0  0  0  0  0  0  0
   -4.4940    5.4227    7.8344 C   0  0  1  0  0  0  0  0  0  0  0  0
   -4.1427    4.0698    7.5395 O   0  0  0  0  0  0  0  0  0  0  0  0
   -3.2717   10.4078    8.4204 C   0  0  2  0  0  0  0  0  0  0  0  0
   -4.4258   10.3706    7.4821 N   0  0  0  0  0  0  0  0  0  0  0  0
   -2.3529    5.3303   13.1741 C   0  0  2  0  0  0  0  0  0  0  0  0
   -2.0434    4.1779   12.3274 O   0  0  0  0  0  0  0  0  0  0  0  0
   -1.8747    1.5251   15.1788 C   0  0  1  0  0  0  0  0  0  0  0  0
   -3.0024    0.6854   14.8439 O   0  0  0  0  0  0  0  0  0  0  0  0
   -5.9754    5.7075    7.4972 C   0  0  2  0  0  0  0  0  0  0  0  0
   -6.2310    5.4138    6.1434 O   0  0  0  0  0  0  0  0  0  0  0  0
   -3.5301    9.4109    9.6184 C   0  0  2  0  0  0  0  0  0  0  0  0
   -3.8635    5.6182   13.1931 C   0  0  2  0  0  0  0  0  0  0  0  0
   -4.0294    6.5343   12.1134 O   0  0  0  0  0  0  0  0  0  0  0  0
   -0.5227    0.8383   14.6611 C   0  0  2  0  0  0  0  0  0  0  0  0
    0.5710    1.5603   15.2259 O   0  0  0  0  0  0  0  0  0  0  0  0
   -6.2897    7.2092    7.8062 C   0  0  2  0  0  0  0  0  0  0  0  0
   -6.0077    7.4914    9.2135 O   0  0  0  0  0  0  0  0  0  0  0  0
   -2.3800    9.4024   10.6491 C   0  0  2  0  0  0  0  0  0  0  0  0
   -2.8624    8.5878   11.7529 O   0  0  0  0  0  0  0  0  0  0  0  0
   -4.4021    6.2203   14.5279 C   0  0  0  0  0  0  0  0  0  0  0  0
   -5.1392    7.4060   14.2455 O   0  0  0  0  0  0  0  0  0  0  0  0
   -0.4470    0.8764   13.0879 C   0  0  1  0  0  0  0  0  0  0  0  0
   -0.5522    2.2957   12.7075 O   0  0  0  0  0  0  0  0  0  0  0  0
   -7.7256    7.5756    7.5101 C   0  0  0  0  0  0  0  0  0  0  0  0
   -8.5953    6.8184    8.3160 O   0  0  0  0  0  0  0  0  0  0  0  0
   -2.0675   10.8795   11.1351 C   0  0  1  0  0  0  0  0  0  0  0  0
   -0.9071   10.8887   11.9712 O   0  0  0  0  0  0  0  0  0  0  0  0
    0.8829    0.2437   12.4881 C   0  0  0  0  0  0  0  0  0  0  0  0
    1.9996    0.0598   13.4554 N   0  0  0  0  0  0  0  0  0  0  0  0
  1  2  1  6  0  0  0
  1  7  1  0  0  0  0
  1 30  1  0  0  0  0
  3  4  1  1  0  0  0
  3  9  1  0  0  0  0
  3 39  1  0  0  0  0
  5 10  1  0  0  0  0
  5 26  1  0  0  0  0
  5 32  1  1  0  0  0
  6 12  1  0  0  0  0
  6 36  1  0  0  0  0
  6 19  1  1  0  0  0
  7  8  1  6  0  0  0
  7 14  1  0  0  0  0
  9 16  1  0  0  0  0
 10 11  1  6  0  0  0
 10 18  1  0  0  0  0
 12 13  1  1  0  0  0
 12 20  1  0  0  0  0
 14 15  1  1  0  0  0
 14 22  1  0  0  0  0
 16 17  1  6  0  0  0
 16 24  1  0  0  0  0
 18 19  1  6  0  0  0
 18 25  1  0  0  0  0
 20 21  1  6  0  0  0
 20 27  1  0  0  0  0
 22 23  1  6  0  0  0
 22 29  1  0  0  0  0
 24  2  1  6  0  0  0
 24 31  1  0  0  0  0
 25 26  1  0  0  0  0
 25 33  1  1  0  0  0
 27 28  1  1  0  0  0
 27 35  1  0  0  0  0
 29 30  1  0  0  0  0
 29 37  1  1  0  0  0
 31 32  1  1  0  0  0
 31 39  1  0  0  0  0
 33 34  1  0  0  0  0
 35 36  1  0  0  0  0
 35 41  1  1  0  0  0
 37 38  1  0  0  0  0
 39 40  1  1  0  0  0
 41 42  1  0  0  0  0
M  END
>  <CHROM.1>
-158.89971879,107.36958893,0.36090241,145.18953520,-143.33470744,127.61476013
61.62293468,81.89360661,-16.17479153,-3.00719606,6.08958786,11.19834976,2.13948144
-0.80267609,-0.17303095

>  <Name>
2o3w_lig

>  <RI>
0

>  <Rbt.Current_Directory>
/home/itssahil/PROJECTS/Mol_Feturizer/New_Systems/rnas/2o3w

>  <Rbt.Executable>
rbdock ($Id: //depot/dev/client3/rdock/2013.1/src/exe/rbdock.cxx#4 $)

>  <Rbt.Library>
libRbt.so (2013.1, Build901 2013/11/27)

>  <Rbt.Parameter_File>
/export/apps/rDock/src/rDock_2013.1_src/data/scripts/dock_solv.prm

>  <Rbt.Receptor>
prm/blind_docking_60.prm

>  <SCORE>
40.9371

>  <SCORE.INTER>
11.7096

>  <SCORE.INTER.CONST>
1

>  <SCORE.INTER.POLAR>
0

>  <SCORE.INTER.ROT>
9

>  <SCORE.INTER.SOLV>
32.5041

>  <SCORE.INTER.VDW>
-12.6283

>  <SCORE.INTER.norm>
0.2788

>  <SCORE.INTRA>
13.3127

>  <SCORE.INTRA.DIHEDRAL>
8.55941

>  <SCORE.INTRA.DIHEDRAL.0>
27.8999

>  <SCORE.INTRA.POLAR>
0

>  <SCORE.INTRA.POLAR.0>
0

>  <SCORE.INTRA.REPUL>
0

>  <SCORE.INTRA.REPUL.0>
0

>  <SCORE.INTRA.SOLV>
4.70515

>  <SCORE.INTRA.SOLV.lig_0>
-104.479

>  <SCORE.INTRA.VDW>
6.68039

>  <SCORE.INTRA.VDW.0>
-6.17816

>  <SCORE.INTRA.norm>
0.316968

>  <SCORE.RESTR>
15.9148

>  <SCORE.RESTR.CAVITY>
15.9148

>  <SCORE.RESTR.norm>
0.378924

>  <SCORE.SYSTEM>
0

>  <SCORE.SYSTEM.CONST>
0

>  <SCORE.SYSTEM.DIHEDRAL>
0

>  <SCORE.SYSTEM.SOLV>
0

>  <SCORE.SYSTEM.norm>
0

>  <SCORE.heavy>
42

>  <SCORE.norm>
0.974692

>  <RMSD>
16.109

$$$$
2o3w_lig
 OpenBabel11021811463D
libRbt.so/2013.1/901 2013/11/27
 42 45  0  0  0  0  0  0  0  0999 V2000
   -7.3705    5.9276    9.6070 C   0  0  2  0  0  0  0  0  0  0  0  0
   -6.2109    6.3881    8.8926 O   0  0  0  0  0  0  0  0  0  0  0  0
   -4.9567    2.5984    7.2011 C   0  0  2  0  0  0  0  0  0  0  0  0
   -4.2697    1.5626    6.3731 N   0  0  0  0  0  0  0  0  0  0  0  0
   -2.6954    5.1837   10.4633 C   0  0  1  0  0  0  0  0  0  0  0  0
   -0.9938    4.3978   13.6607 C   0  0  1  0  0  0  0  0  0  0  0  0
   -7.5397    6.8562   10.8469 C   0  0  2  0  0  0  0  0  0  0  0  0
   -7.4882    8.2852   10.4921 N   0  0  0  0  0  0  0  0  0  0  0  0
   -5.8643    3.5374    6.3088 C   0  0  0  0  0  0  0  0  0  0  0  0
   -1.5166    6.1926   10.6157 C   0  0  2  0  0  0  0  0  0  0  0  0
   -0.3102    5.7993    9.9162 O   0  0  0  0  0  0  0  0  0  0  0  0
    0.0623    3.4143   14.2821 C   0  0  2  0  0  0  0  0  0  0  0  0
    0.7462    2.6228   13.2159 N   0  0  0  0  0  0  0  0  0  0  0  0
   -6.4472    6.6213   11.9062 C   0  0  1  0  0  0  0  0  0  0  0  0
   -6.6641    7.4637   13.0395 O   0  0  0  0  0  0  0  0  0  0  0  0
   -6.5774    4.5910    7.2382 C   0  0  2  0  0  0  0  0  0  0  0  0
   -7.4527    5.4838    6.4318 N   0  0  0  0  0  0  0  0  0  0  0  0
   -1.3994    6.2847   12.1379 C   0  0  2  0  0  0  0  0  0  0  0  0
   -0.4689    5.2873   12.6672 O   0  0  0  0  0  0  0  0  0  0  0  0
   -0.6670    2.4519   15.3351 C   0  0  1  0  0  0  0  0  0  0  0  0
   -0.9779    3.2114   16.5248 O   0  0  0  0  0  0  0  0  0  0  0  0
   -6.4305    5.1287   12.3074 C   0  0  2  0  0  0  0  0  0  0  0  0
   -5.4465    4.9002   13.2893 O   0  0  0  0  0  0  0  0  0  0  0  0
   -5.5112    5.4575    8.0182 C   0  0  2  0  0  0  0  0  0  0  0  0
   -2.8197    6.0685   12.6868 C   0  0  2  0  0  0  0  0  0  0  0  0
   -3.4084    5.2005   11.7212 O   0  0  0  0  0  0  0  0  0  0  0  0
   -2.0076    1.7953   14.7528 C   0  0  2  0  0  0  0  0  0  0  0  0
   -1.6268    0.8613   13.7433 O   0  0  0  0  0  0  0  0  0  0  0  0
   -6.1537    4.2610   11.0346 C   0  0  2  0  0  0  0  0  0  0  0  0
   -7.1819    4.5229   10.0276 O   0  0  0  0  0  0  0  0  0  0  0  0
   -4.5501    4.5998    8.8703 C   0  0  2  0  0  0  0  0  0  0  0  0
   -3.5415    5.5268    9.3581 O   0  0  0  0  0  0  0  0  0  0  0  0
   -3.6633    7.3695   12.8603 C   0  0  0  0  0  0  0  0  0  0  0  0
   -4.4321    7.2757   14.0557 O   0  0  0  0  0  0  0  0  0  0  0  0
   -2.9497    2.9018   14.1444 C   0  0  1  0  0  0  0  0  0  0  0  0
   -2.1556    3.5945   13.1149 O   0  0  0  0  0  0  0  0  0  0  0  0
   -6.1264    2.7802   11.3350 C   0  0  0  0  0  0  0  0  0  0  0  0
   -5.4863    2.0857   10.2923 O   0  0  0  0  0  0  0  0  0  0  0  0
   -3.8884    3.4671    7.9788 C   0  0  1  0  0  0  0  0  0  0  0  0
   -3.1182    2.5822    8.7970 O   0  0  0  0  0  0  0  0  0  0  0  0
   -4.2929    2.3325   13.5117 C   0  0  0  0  0  0  0  0  0  0  0  0
   -4.8937    1.1690   14.2200 N   0  0  0  0  0  0  0  0  0  0  0  0
  1  2  1  1  0  0  0
  1  7  1  0  0  0  0
  1 30  1  0  0  0  0
  3  4  1  6  0  0  0
  3  9  1  0  0  0  0
  3 39  1  0  0  0  0
  5 10  1  0  0  0  0
  5 26  1  0  0  0  0
  5 32  1  6  0  0  0
  6 12  1  0  0  0  0
  6 36  1  0  0  0  0
  6 19  1  6  0  0  0
  7  8  1  6  0  0  0
  7 14  1  0  0  0  0
  9 16  1  0  0  0  0
 10 11  1  6  0  0  0
 10 18  1  0  0  0  0
 12 13  1  6  0  0  0
 12 20  1  0  0  0  0
 14 15  1  1  0  0  0
 14 22  1  0  0  0  0
 16 17  1  6  0  0  0
 16 24  1  0  0  0  0
 18 19  1  1  0  0  0
 18 25  1  0  0  0  0
 20 21  1  1  0  0  0
 20 27  1  0  0  0  0
 22 23  1  1  0  0  0
 22 29  1  0  0  0  0
 24  2  1  1  0  0  0
 24 31  1  0  0  0  0
 25 26  1  0  0  0  0
 25 33  1  6  0  0  0
 27 28  1  6  0  0  0
 27 35  1  0  0  0  0
 29 30  1  0  0  0  0
 29 37  1  1  0  0  0
 31 32  1  6  0  0  0
 31 39  1  0  0  0  0
 33 34  1  0  0  0  0
 35 36  1  0  0  0  0
 35 41  1  6  0  0  0
 37 38  1  0  0  0  0
 39 40  1  1  0  0  0
 41 42  1  0  0  0  0
M  END
>  <CHROM.1>
156.75574869,168.31871189,-175.59275640,-123.64150372,40.59396969,-141.30904443
-162.04797748,162.86678874,35.94998703,-4.00368258,4.47866940,11.29573637
2.56804144,0.70536832,-2.07399327

>  <Name>
2o3w_lig

>  <RI>
0

>  <Rbt.Current_Directory>
/home/itssahil/PROJECTS/Mol_Feturizer/New_Systems/rnas/2o3w

>  <Rbt.Executable>
rbdock ($Id: //depot/dev/client3/rdock/2013.1/src/exe/rbdock.cxx#4 $)

>  <Rbt.Library>
libRbt.so (2013.1, Build901 2013/11/27)

>  <Rbt.Parameter_File>
/export/apps/rDock/src/rDock_2013.1_src/data/scripts/dock_solv.prm

>  <Rbt.Receptor>
prm/blind_docking_20.prm

>  <SCORE>
43.7874

>  <SCORE.INTER>
3.74805

>  <SCORE.INTER.CONST>
1

>  <SCORE.INTER.POLAR>
-0.152467

>  <SCORE.INTER.ROT>
9

>  <SCORE.INTER.SOLV>
22.8385

>  <SCORE.INTER.VDW>
-14.2059

>  <SCORE.INTER.norm>
0.0892394

>  <SCORE.INTRA>
4.60213

>  <SCORE.INTRA.DIHEDRAL>
-7.84733

>  <SCORE.INTRA.DIHEDRAL.0>
27.8999

>  <SCORE.INTRA.POLAR>
0

>  <SCORE.INTRA.POLAR.0>
0

>  <SCORE.INTRA.REPUL>
0

>  <SCORE.INTRA.REPUL.0>
0

>  <SCORE.INTRA.SOLV>
2.09752

>  <SCORE.INTRA.SOLV.lig_0>
-104.479

>  <SCORE.INTRA.VDW>
7.47703

>  <SCORE.INTRA.VDW.0>
-6.17816

>  <SCORE.INTRA.norm>
0.109574

>  <SCORE.RESTR>
35.4373

>  <SCORE.RESTR.CAVITY>
35.4373

>  <SCORE.RESTR.norm>
0.843744

>  <SCORE.SYSTEM>
0

>  <SCORE.SYSTEM.CONST>
0

>  <SCORE.SYSTEM.DIHEDRAL>
0

>  <SCORE.SYSTEM.SOLV>
0

>  <SCORE.SYSTEM.norm>
0

>  <SCORE.heavy>
42

>  <SCORE.norm>
1.04256

>  <RMSD>
16.114

$$$$
2o3w_lig
 OpenBabel11021811463D
libRbt.so/2013.1/901 2013/11/27
 42 45  0  0  0  0  0  0  0  0999 V2000
   -4.9556    2.4062    8.8100 C   0  0  2  0  0  0  0  0  0  0  0  0
   -4.5091    3.0416   10.0201 O   0  0  0  0  0  0  0  0  0  0  0  0
   -8.3215    3.1235   12.0828 C   0  0  2  0  0  0  0  0  0  0  0  0
   -9.3779    3.3045   13.1228 N   0  0  0  0  0  0  0  0  0  0  0  0
   -4.4317    5.6769   11.5320 C   0  0  1  0  0  0  0  0  0  0  0  0
   -1.9581    5.1319   13.0695 C   0  0  1  0  0  0  0  0  0  0  0  0
   -3.9591    2.8186    7.6852 C   0  0  2  0  0  0  0  0  0  0  0  0
   -2.5530    2.6158    8.0755 N   0  0  0  0  0  0  0  0  0  0  0  0
   -7.2769    2.0163   12.5123 C   0  0  0  0  0  0  0  0  0  0  0  0
   -3.2453    6.3138   10.7461 C   0  0  2  0  0  0  0  0  0  0  0  0
   -2.3817    5.3478   10.0979 O   0  0  0  0  0  0  0  0  0  0  0  0
   -2.5001    5.1557   14.5441 C   0  0  2  0  0  0  0  0  0  0  0  0
   -1.5040    5.7755   15.4686 N   0  0  0  0  0  0  0  0  0  0  0  0
   -4.1023    4.3004    7.2921 C   0  0  1  0  0  0  0  0  0  0  0  0
   -3.1995    4.6236    6.2331 O   0  0  0  0  0  0  0  0  0  0  0  0
   -6.2045    1.8556   11.3692 C   0  0  2  0  0  0  0  0  0  0  0  0
   -5.2118    0.8092   11.7343 N   0  0  0  0  0  0  0  0  0  0  0  0
   -2.5888    7.1627   11.8359 C   0  0  2  0  0  0  0  0  0  0  0  0
   -1.5623    6.4109   12.5583 O   0  0  0  0  0  0  0  0  0  0  0  0
   -2.8571    3.6620   15.0004 C   0  0  1  0  0  0  0  0  0  0  0  0
   -4.0703    3.2471   14.3333 O   0  0  0  0  0  0  0  0  0  0  0  0
   -5.5673    4.5886    6.8925 C   0  0  2  0  0  0  0  0  0  0  0  0
   -5.7116    5.9378    6.5137 O   0  0  0  0  0  0  0  0  0  0  0  0
   -5.4600    3.2243   11.1076 C   0  0  2  0  0  0  0  0  0  0  0  0
   -3.7250    7.5993   12.7760 C   0  0  2  0  0  0  0  0  0  0  0  0
   -4.6469    6.5152   12.6905 O   0  0  0  0  0  0  0  0  0  0  0  0
   -1.6853    2.6170   14.6804 C   0  0  2  0  0  0  0  0  0  0  0  0
   -0.5922    2.9164   15.5475 O   0  0  0  0  0  0  0  0  0  0  0  0
   -6.5022    4.2506    8.1013 C   0  0  2  0  0  0  0  0  0  0  0  0
   -6.3274    2.8490    8.4815 O   0  0  0  0  0  0  0  0  0  0  0  0
   -6.4266    4.3705   10.7370 C   0  0  2  0  0  0  0  0  0  0  0  0
   -5.6058    5.5706   10.7164 O   0  0  0  0  0  0  0  0  0  0  0  0
   -4.4096    8.9494   12.3983 C   0  0  0  0  0  0  0  0  0  0  0  0
   -3.4326    9.9858   12.3888 O   0  0  0  0  0  0  0  0  0  0  0  0
   -1.2343    2.7314   13.1751 C   0  0  1  0  0  0  0  0  0  0  0  0
   -0.8245    4.1323   12.9761 O   0  0  0  0  0  0  0  0  0  0  0  0
   -7.9612    4.4980    7.7950 C   0  0  0  0  0  0  0  0  0  0  0  0
   -8.7701    3.6401    8.5625 O   0  0  0  0  0  0  0  0  0  0  0  0
   -7.5750    4.4933   11.8241 C   0  0  1  0  0  0  0  0  0  0  0  0
   -8.5515    5.4502   11.4043 O   0  0  0  0  0  0  0  0  0  0  0  0
   -0.0478    1.7499   12.7782 C   0  0  0  0  0  0  0  0  0  0  0  0
    1.2051    1.9050   13.5674 N   0  0  0  0  0  0  0  0  0  0  0  0
  1  2  1  1  0  0  0
  1  7  1  0  0  0  0
  1 30  1  0  0  0  0
  3  4  1  1  0  0  0
  3  9  1  0  0  0  0
  3 39  1  0  0  0  0
  5 10  1  0  0  0  0
  5 26  1  0  0  0  0
  5 32  1  6  0  0  0
  6 12  1  0  0  0  0
  6 36  1  0  0  0  0
  6 19  1  1  0  0  0
  7  8  1  1  0  0  0
  7 14  1  0  0  0  0
  9 16  1  0  0  0  0
 10 11  1  1  0  0  0
 10 18  1  0  0  0  0
 12 13  1  1  0  0  0
 12 20  1  0  0  0  0
 14 15  1  6  0  0  0
 14 22  1  0  0  0  0
 16 17  1  1  0  0  0
 16 24  1  0  0  0  0
 18 19  1  1  0  0  0
 18 25  1  0  0  0  0
 20 21  1  6  0  0  0
 20 27  1  0  0  0  0
 22 23  1  1  0  0  0
 22 29  1  0  0  0  0
 24  2  1  6  0  0  0
 24 31  1  0  0  0  0
 25 26  1  0  0  0  0
 25 33  1  6  0  0  0
 27 28  1  1  0  0  0
 27 35  1  0  0  0  0
 29 30  1  0  0  0  0
 29 37  1  6  0  0  0
 31 32  1  1  0  0  0
 31 39  1  0  0  0  0
 33 34  1  0  0  0  0
 35 36  1  0  0  0  0
 35 41  1  1  0  0  0
 37 38  1  0  0  0  0
 39 40  1  6  0  0  0
 41 42  1  0  0  0  0
M  END
>  <CHROM.1>
159.05295739,137.17949067,-92.10015225,-51.29852922,48.93312791,-58.77735878
151.83374132,-28.08366283,-58.24695213,-4.29790643,4.38292165,11.25151786
2.61299824,-0.60853691,-0.85287930

>  <Name>
2o3w_lig

>  <RI>
0

>  <Rbt.Current_Directory>
/home/itssahil/PROJECTS/Mol_Feturizer/New_Systems/rnas/2o3w

>  <Rbt.Executable>
rbdock ($Id: //depot/dev/client3/rdock/2013.1/src/exe/rbdock.cxx#4 $)

>  <Rbt.Library>
libRbt.so (2013.1, Build901 2013/11/27)

>  <Rbt.Parameter_File>
/export/apps/rDock/src/rDock_2013.1_src/data/scripts/dock_solv.prm

>  <Rbt.Receptor>
prm/blind_docking_20.prm

>  <SCORE>
51.181

>  <SCORE.INTER>
13.4662

>  <SCORE.INTER.CONST>
1

>  <SCORE.INTER.POLAR>
-0.761676

>  <SCORE.INTER.ROT>
9

>  <SCORE.INTER.SOLV>
27.1647

>  <SCORE.INTER.VDW>
-7.13853

>  <SCORE.INTER.norm>
0.320623

>  <SCORE.INTRA>
1.2694

>  <SCORE.INTRA.DIHEDRAL>
-8.73816

>  <SCORE.INTRA.DIHEDRAL.0>
27.8999

>  <SCORE.INTRA.POLAR>
0

>  <SCORE.INTRA.POLAR.0>
0

>  <SCORE.INTRA.REPUL>
0

>  <SCORE.INTRA.REPUL.0>
0

>  <SCORE.INTRA.SOLV>
0.380952

>  <SCORE.INTRA.SOLV.lig_0>
-104.479

>  <SCORE.INTRA.VDW>
5.44801

>  <SCORE.INTRA.VDW.0>
-6.17816

>  <SCORE.INTRA.norm>
0.0302238

>  <SCORE.RESTR>
36.4455

>  <SCORE.RESTR.CAVITY>
36.4455

>  <SCORE.RESTR.norm>
0.867749

>  <SCORE.SYSTEM>
0

>  <SCORE.SYSTEM.CONST>
0

>  <SCORE.SYSTEM.DIHEDRAL>
0

>  <SCORE.SYSTEM.SOLV>
0

>  <SCORE.SYSTEM.norm>
0

>  <SCORE.heavy>
42

>  <SCORE.norm>
1.2186

>  <RMSD>
16.173

$$$$
2o3w_lig
 OpenBabel11021811463D
libRbt.so/2013.1/901 2013/11/27
 42 45  0  0  0  0  0  0  0  0999 V2000
   -3.2829    5.5311    9.2244 C   0  0  2  0  0  0  0  0  0  0  0  0
   -3.3424    4.1243    9.5152 O   0  0  0  0  0  0  0  0  0  0  0  0
   -5.8480    2.8610    6.2103 C   0  0  2  0  0  0  0  0  0  0  0  0
   -6.7931    2.0884    5.3500 N   0  0  0  0  0  0  0  0  0  0  0  0
   -5.5713    3.4349   10.9967 C   0  0  1  0  0  0  0  0  0  0  0  0
   -3.9478    2.7656   13.3688 C   0  0  1  0  0  0  0  0  0  0  0  0
   -2.1915    6.1421   10.1538 C   0  0  2  0  0  0  0  0  0  0  0  0
   -0.9262    5.3889   10.1083 N   0  0  0  0  0  0  0  0  0  0  0  0
   -4.5194    2.0459    6.4791 C   0  0  0  0  0  0  0  0  0  0  0  0
   -6.4739    3.5128   12.2655 C   0  0  2  0  0  0  0  0  0  0  0  0
   -6.1648    4.6249   13.1412 O   0  0  0  0  0  0  0  0  0  0  0  0
   -2.8617    1.8195   12.7409 C   0  0  2  0  0  0  0  0  0  0  0  0
   -2.5050    0.7174   13.6838 N   0  0  0  0  0  0  0  0  0  0  0  0
   -2.6339    6.1799   11.6282 C   0  0  1  0  0  0  0  0  0  0  0  0
   -1.6213    6.7825   12.4359 O   0  0  0  0  0  0  0  0  0  0  0  0
   -3.5566    2.9187    7.3701 C   0  0  2  0  0  0  0  0  0  0  0  0
   -2.2879    2.1867    7.6311 N   0  0  0  0  0  0  0  0  0  0  0  0
   -6.2658    2.1208   12.8640 C   0  0  2  0  0  0  0  0  0  0  0  0
   -5.1415    2.1003   13.8001 O   0  0  0  0  0  0  0  0  0  0  0  0
   -1.5701    2.6834   12.3504 C   0  0  1  0  0  0  0  0  0  0  0  0
   -1.8721    3.4708   11.1766 O   0  0  0  0  0  0  0  0  0  0  0  0
   -3.9752    6.9392   11.7448 C   0  0  2  0  0  0  0  0  0  0  0  0
   -4.3856    6.9971   13.0911 O   0  0  0  0  0  0  0  0  0  0  0  0
   -4.2483    3.2865    8.7420 C   0  0  2  0  0  0  0  0  0  0  0  0
   -6.0169    1.1796   11.6734 C   0  0  2  0  0  0  0  0  0  0  0  0
   -5.3802    2.0282   10.7210 O   0  0  0  0  0  0  0  0  0  0  0  0
   -1.0867    3.6493   13.5340 C   0  0  2  0  0  0  0  0  0  0  0  0
   -0.5633    2.8261   14.5754 O   0  0  0  0  0  0  0  0  0  0  0  0
   -5.0506    6.2132   10.8695 C   0  0  2  0  0  0  0  0  0  0  0  0
   -4.5976    6.1573    9.4797 O   0  0  0  0  0  0  0  0  0  0  0  0
   -5.5850    4.0375    8.5563 C   0  0  2  0  0  0  0  0  0  0  0  0
   -6.1609    4.1273    9.8885 O   0  0  0  0  0  0  0  0  0  0  0  0
   -7.2993    0.5248   11.0728 C   0  0  0  0  0  0  0  0  0  0  0  0
   -8.0274    1.5040   10.3379 O   0  0  0  0  0  0  0  0  0  0  0  0
   -2.2894    4.5123   14.0734 C   0  0  1  0  0  0  0  0  0  0  0  0
   -3.3221    3.5527   14.5010 O   0  0  0  0  0  0  0  0  0  0  0  0
   -6.3982    6.8953   10.9198 C   0  0  0  0  0  0  0  0  0  0  0  0
   -7.3865    6.0572   10.3720 O   0  0  0  0  0  0  0  0  0  0  0  0
   -6.5402    3.2259    7.5844 C   0  0  1  0  0  0  0  0  0  0  0  0
   -7.7130    3.9909    7.2929 O   0  0  0  0  0  0  0  0  0  0  0  0
   -1.9049    5.4784   15.2765 C   0  0  0  0  0  0  0  0  0  0  0  0
   -0.8455    4.9732   16.1925 N   0  0  0  0  0  0  0  0  0  0  0  0
  1  2  1  1  0  0  0
  1  7  1  0  0  0  0
  1 30  1  0  0  0  0
  3  4  1  6  0  0  0
  3  9  1  0  0  0  0
  3 39  1  0  0  0  0
  5 10  1  0  0  0  0
  5 26  1  0  0  0  0
  5 32  1  6  0  0  0
  6 12  1  0  0  0  0
  6 36  1  0  0  0  0
  6 19  1  1  0  0  0
  7  8  1  1  0  0  0
  7 14  1  0  0  0  0
  9 16  1  0  0  0  0
 10 11  1  1  0  0  0
 10 18  1  0  0  0  0
 12 13  1  1  0  0  0
 12 20  1  0  0  0  0
 14 15  1  1  0  0  0
 14 22  1  0  0  0  0
 16 17  1  1  0  0  0
 16 24  1  0  0  0  0
 18 19  1  1  0  0  0
 18 25  1  0  0  0  0
 20 21  1  6  0  0  0
 20 27  1  0  0  0  0
 22 23  1  1  0  0  0
 22 29  1  0  0  0  0
 24  2  1  1  0  0  0
 24 31  1  0  0  0  0
 25 26  1  0  0  0  0
 25 33  1  6  0  0  0
 27 28  1  1  0  0  0
 27 35  1  0  0  0  0
 29 30  1  0  0  0  0
 29 37  1  6  0  0  0
 31 32  1  1  0  0  0
 31 39  1  0  0  0  0
 33 34  1  0  0  0  0
 35 36  1  0  0  0  0
 35 41  1  1  0  0  0
 37 38  1  0  0  0  0
 39 40  1  6  0  0  0
 41 42  1  0  0  0  0
M  END
>  <CHROM.1>
-177.36346888,-171.73054837,-97.05999306,-45.09978519,81.60182097,73.48257646
-166.96551805,-7.79585581,-32.60815269,-4.26549728,3.86400376,11.04943254
-2.48481961,0.80581577,2.11641245

>  <Name>
2o3w_lig

>  <RI>
0

>  <Rbt.Current_Directory>
/home/itssahil/PROJECTS/Mol_Feturizer/New_Systems/rnas/2o3w

>  <Rbt.Executable>
rbdock ($Id: //depot/dev/client3/rdock/2013.1/src/exe/rbdock.cxx#4 $)

>  <Rbt.Library>
libRbt.so (2013.1, Build901 2013/11/27)

>  <Rbt.Parameter_File>
/export/apps/rDock/src/rDock_2013.1_src/data/scripts/dock_solv.prm

>  <Rbt.Receptor>
prm/blind_docking_20.prm

>  <SCORE>
84.4681

>  <SCORE.INTER>
35.2974

>  <SCORE.INTER.CONST>
1

>  <SCORE.INTER.POLAR>
-0.699807

>  <SCORE.INTER.ROT>
9

>  <SCORE.INTER.SOLV>
32.7095

>  <SCORE.INTER.VDW>
5.36116

>  <SCORE.INTER.norm>
0.840415

>  <SCORE.INTRA>
15.4443

>  <SCORE.INTRA.DIHEDRAL>
-9.08519

>  <SCORE.INTRA.DIHEDRAL.0>
27.8999

>  <SCORE.INTRA.POLAR>
0

>  <SCORE.INTRA.POLAR.0>
0

>  <SCORE.INTRA.REPUL>
1

>  <SCORE.INTRA.REPUL.0>
0

>  <SCORE.INTRA.SOLV>
5.99327

>  <SCORE.INTRA.SOLV.lig_0>
-104.479

>  <SCORE.INTRA.VDW>
11.9902

>  <SCORE.INTRA.VDW.0>
-6.17816

>  <SCORE.INTRA.norm>
0.36772

>  <SCORE.RESTR>
33.7264

>  <SCORE.RESTR.CAVITY>
33.7264

>  <SCORE.RESTR.norm>
0.80301

>  <SCORE.SYSTEM>
0

>  <SCORE.SYSTEM.CONST>
0

>  <SCORE.SYSTEM.DIHEDRAL>
0

>  <SCORE.SYSTEM.SOLV>
0

>  <SCORE.SYSTEM.norm>
0

>  <SCORE.heavy>
42

>  <SCORE.norm>
2.01115

>  <RMSD>
16.235

$$$$
2o3w_lig
 OpenBabel11021811463D
libRbt.so/2013.1/901 2013/11/27
 42 45  0  0  0  0  0  0  0  0999 V2000
   -5.9729    5.3535   11.6540 C   0  0  2  0  0  0  0  0  0  0  0  0
   -5.1849    6.1843   12.5235 O   0  0  0  0  0  0  0  0  0  0  0  0
   -5.4634    9.8735   10.2633 C   0  0  2  0  0  0  0  0  0  0  0  0
   -5.3735   11.3071    9.8545 N   0  0  0  0  0  0  0  0  0  0  0  0
   -2.3588    6.0494   11.6992 C   0  0  1  0  0  0  0  0  0  0  0  0
   -0.2380    2.2810   12.7764 C   0  0  1  0  0  0  0  0  0  0  0  0
   -5.4195    3.9028   11.7863 C   0  0  2  0  0  0  0  0  0  0  0  0
   -5.2860    3.4761   13.1901 N   0  0  0  0  0  0  0  0  0  0  0  0
   -6.4447    9.6868   11.4897 C   0  0  0  0  0  0  0  0  0  0  0  0
   -0.8256    5.9192   11.9502 C   0  0  2  0  0  0  0  0  0  0  0  0
   -0.0337    5.8521   10.7388 O   0  0  0  0  0  0  0  0  0  0  0  0
   -0.0027    1.0116   11.8809 C   0  0  2  0  0  0  0  0  0  0  0  0
   -1.2137    0.7044   11.0623 N   0  0  0  0  0  0  0  0  0  0  0  0
   -4.0307    3.7460   11.1398 C   0  0  1  0  0  0  0  0  0  0  0  0
   -3.5808    2.3946   11.2494 O   0  0  0  0  0  0  0  0  0  0  0  0
   -6.5149    8.1566   11.8587 C   0  0  2  0  0  0  0  0  0  0  0  0
   -7.4426    7.9421   13.0020 N   0  0  0  0  0  0  0  0  0  0  0  0
   -0.7751    4.6791   12.8439 C   0  0  2  0  0  0  0  0  0  0  0  0
   -0.6385    3.4536   12.0564 O   0  0  0  0  0  0  0  0  0  0  0  0
    0.3903   -0.2291   12.8152 C   0  0  1  0  0  0  0  0  0  0  0  0
    1.7439   -0.0473   13.2884 O   0  0  0  0  0  0  0  0  0  0  0  0
   -4.0945    4.2018    9.6642 C   0  0  2  0  0  0  0  0  0  0  0  0
   -2.8344    4.0487    9.0532 O   0  0  0  0  0  0  0  0  0  0  0  0
   -5.0810    7.6066   12.2291 C   0  0  2  0  0  0  0  0  0  0  0  0
   -2.0862    4.6817   13.6479 C   0  0  2  0  0  0  0  0  0  0  0  0
   -3.0072    5.3083   12.7582 O   0  0  0  0  0  0  0  0  0  0  0  0
   -0.5959   -0.4027   14.0661 C   0  0  2  0  0  0  0  0  0  0  0  0
   -1.8613   -0.8275   13.5614 O   0  0  0  0  0  0  0  0  0  0  0  0
   -4.5570    5.6960    9.6109 C   0  0  2  0  0  0  0  0  0  0  0  0
   -5.8615    5.8306   10.2592 O   0  0  0  0  0  0  0  0  0  0  0  0
   -4.0516    7.8068   11.0953 C   0  0  2  0  0  0  0  0  0  0  0  0
   -2.7720    7.4218   11.6689 O   0  0  0  0  0  0  0  0  0  0  0  0
   -2.0206    5.4372   15.0114 C   0  0  0  0  0  0  0  0  0  0  0  0
   -3.3150    5.4482   15.6059 O   0  0  0  0  0  0  0  0  0  0  0  0
   -0.7488    0.9574   14.8464 C   0  0  1  0  0  0  0  0  0  0  0  0
   -1.2359    1.9406   13.8633 O   0  0  0  0  0  0  0  0  0  0  0  0
   -4.6537    6.2248    8.1986 C   0  0  0  0  0  0  0  0  0  0  0  0
   -4.9986    7.5887    8.2140 O   0  0  0  0  0  0  0  0  0  0  0  0
   -4.0281    9.3250   10.6368 C   0  0  1  0  0  0  0  0  0  0  0  0
   -3.1888    9.4809    9.4893 O   0  0  0  0  0  0  0  0  0  0  0  0
   -1.7399    0.8840   16.0877 C   0  0  0  0  0  0  0  0  0  0  0  0
   -1.3122   -0.0095   17.1991 N   0  0  0  0  0  0  0  0  0  0  0  0
  1  2  1  1  0  0  0
  1  7  1  0  0  0  0
  1 30  1  0  0  0  0
  3  4  1  1  0  0  0
  3  9  1  0  0  0  0
  3 39  1  0  0  0  0
  5 10  1  0  0  0  0
  5 26  1  0  0  0  0
  5 32  1  1  0  0  0
  6 12  1  0  0  0  0
  6 36  1  0  0  0  0
  6 19  1  6  0  0  0
  7  8  1  1  0  0  0
  7 14  1  0  0  0  0
  9 16  1  0  0  0  0
 10 11  1  6  0  0  0
 10 18  1  0  0  0  0
 12 13  1  1  0  0  0
 12 20  1  0  0  0  0
 14 15  1  6  0  0  0
 14 22  1  0  0  0  0
 16 17  1  1  0  0  0
 16 24  1  0  0  0  0
 18 19  1  6  0  0  0
 18 25  1  0  0  0  0
 20 21  1  1  0  0  0
 20 27  1  0  0  0  0
 22 23  1  1  0  0  0
 22 29  1  0  0  0  0
 24  2  1  6  0  0  0
 24 31  1  0  0  0  0
 25 26  1  0  0  0  0
 25 33  1  1  0  0  0
 27 28  1  6  0  0  0
 27 35  1  0  0  0  0
 29 30  1  0  0  0  0
 29 37  1  6  0  0  0
 31 32  1  1  0  0  0
 31 39  1  0  0  0  0
 33 34  1  0  0  0  0
 35 36  1  0  0  0  0
 35 41  1  1  0  0  0
 37 38  1  0  0  0  0
 39 40  1  6  0  0  0
 41 42  1  0  0  0  0
M  END
>  <CHROM.1>
155.12153853,162.88835892,-175.82093531,164.44712678,44.34643860,175.82311008
-176.67254076,84.24883464,64.70983459,-3.04707975,4.76126256,12.03469521
2.39165458,0.85904375,-1.09145879

>  <Name>
2o3w_lig

>  <RI>
0

>  <Rbt.Current_Directory>
/home/itssahil/PROJECTS/Mol_Feturizer/New_Systems/rnas/2o3w

>  <Rbt.Executable>
rbdock ($Id: //depot/dev/client3/rdock/2013.1/src/exe/rbdock.cxx#4 $)

>  <Rbt.Library>
libRbt.so (2013.1, Build901 2013/11/27)

>  <Rbt.Parameter_File>
/export/apps/rDock/src/rDock_2013.1_src/data/scripts/dock_solv.prm

>  <Rbt.Receptor>
prm/blind_docking_60.prm

>  <SCORE>
32.2376

>  <SCORE.INTER>
17.7681

>  <SCORE.INTER.CONST>
1

>  <SCORE.INTER.POLAR>
-0.566109

>  <SCORE.INTER.ROT>
9

>  <SCORE.INTER.SOLV>
27.5021

>  <SCORE.INTER.VDW>
-5.03492

>  <SCORE.INTER.norm>
0.42305

>  <SCORE.INTRA>
-0.750043

>  <SCORE.INTRA.DIHEDRAL>
-18.6915

>  <SCORE.INTRA.DIHEDRAL.0>
27.8999

>  <SCORE.INTRA.POLAR>
0

>  <SCORE.INTRA.POLAR.0>
0

>  <SCORE.INTRA.REPUL>
0.373321

>  <SCORE.INTRA.REPUL.0>
0

>  <SCORE.INTRA.SOLV>
2.51945

>  <SCORE.INTRA.SOLV.lig_0>
-104.479

>  <SCORE.INTRA.VDW>
5.46937

>  <SCORE.INTRA.VDW.0>
-6.17816

>  <SCORE.INTRA.norm>
-0.0178582

>  <SCORE.RESTR>
15.2195

>  <SCORE.RESTR.CAVITY>
15.2195

>  <SCORE.RESTR.norm>
0.36237

>  <SCORE.SYSTEM>
0

>  <SCORE.SYSTEM.CONST>
0

>  <SCORE.SYSTEM.DIHEDRAL>
0

>  <SCORE.SYSTEM.SOLV>
0

>  <SCORE.SYSTEM.norm>
0

>  <SCORE.heavy>
42

>  <SCORE.norm>
0.767562

>  <RMSD>
16.235

$$$$
2o3w_lig
 OpenBabel11021811463D
libRbt.so/2013.1/901 2013/11/27
 42 45  0  0  0  0  0  0  0  0999 V2000
   -4.8583    6.2543   12.7863 C   0  0  2  0  0  0  0  0  0  0  0  0
   -5.6980    6.5774   11.6648 O   0  0  0  0  0  0  0  0  0  0  0  0
   -7.1840    4.5217    8.1488 C   0  0  2  0  0  0  0  0  0  0  0  0
   -7.2945    3.6232    6.9610 N   0  0  0  0  0  0  0  0  0  0  0  0
   -4.9013    3.1869   11.7789 C   0  0  1  0  0  0  0  0  0  0  0  0
   -1.9435    2.1982   12.0076 C   0  0  1  0  0  0  0  0  0  0  0  0
   -4.6603    7.5685   13.5999 C   0  0  2  0  0  0  0  0  0  0  0  0
   -5.9337    8.2527   13.8844 N   0  0  0  0  0  0  0  0  0  0  0  0
   -6.0553    5.6103    7.9418 C   0  0  0  0  0  0  0  0  0  0  0  0
   -4.9857    1.6852   11.3686 C   0  0  2  0  0  0  0  0  0  0  0  0
   -5.0483    0.7704   12.4904 O   0  0  0  0  0  0  0  0  0  0  0  0
   -0.5156    1.8361   12.5542 C   0  0  2  0  0  0  0  0  0  0  0  0
   -0.5553    0.5775   13.3574 N   0  0  0  0  0  0  0  0  0  0  0  0
   -3.7654    8.5823   12.8636 C   0  0  1  0  0  0  0  0  0  0  0  0
   -3.5791    9.7527   13.6614 O   0  0  0  0  0  0  0  0  0  0  0  0
   -6.0022    6.5386    9.2139 C   0  0  2  0  0  0  0  0  0  0  0  0
   -4.9586    7.5858    9.0471 N   0  0  0  0  0  0  0  0  0  0  0  0
   -3.7526    1.5520   10.4736 C   0  0  2  0  0  0  0  0  0  0  0  0
   -2.5700    1.1618   11.2415 O   0  0  0  0  0  0  0  0  0  0  0  0
    0.0421    3.0584   13.4270 C   0  0  1  0  0  0  0  0  0  0  0  0
    0.4199    4.1333   12.5377 O   0  0  0  0  0  0  0  0  0  0  0  0
   -2.4147    7.9180   12.5122 C   0  0  2  0  0  0  0  0  0  0  0  0
   -1.5772    8.8385   11.8522 O   0  0  0  0  0  0  0  0  0  0  0  0
   -5.6984    5.6892   10.5109 C   0  0  2  0  0  0  0  0  0  0  0  0
   -3.5584    2.9265    9.8113 C   0  0  2  0  0  0  0  0  0  0  0  0
   -4.0610    3.8298   10.7931 O   0  0  0  0  0  0  0  0  0  0  0  0
   -1.0233    3.5965   14.4960 C   0  0  2  0  0  0  0  0  0  0  0  0
   -1.1758    2.5903   15.4964 O   0  0  0  0  0  0  0  0  0  0  0  0
   -2.6806    6.6669   11.6102 C   0  0  2  0  0  0  0  0  0  0  0  0
   -3.5590    5.7317   12.3127 O   0  0  0  0  0  0  0  0  0  0  0  0
   -6.7320    4.5661   10.7470 C   0  0  2  0  0  0  0  0  0  0  0  0
   -6.2018    3.7855   11.8533 O   0  0  0  0  0  0  0  0  0  0  0  0
   -4.2962    3.1108    8.4490 C   0  0  0  0  0  0  0  0  0  0  0  0
   -3.5626    2.4484    7.4234 O   0  0  0  0  0  0  0  0  0  0  0  0
   -2.4071    3.8899   13.8023 C   0  0  1  0  0  0  0  0  0  0  0  0
   -2.8208    2.6280   13.1645 O   0  0  0  0  0  0  0  0  0  0  0  0
   -1.4087    5.9489   11.2222 C   0  0  0  0  0  0  0  0  0  0  0  0
   -1.6329    5.1419   10.0919 O   0  0  0  0  0  0  0  0  0  0  0  0
   -6.8767    3.6709    9.4457 C   0  0  1  0  0  0  0  0  0  0  0  0
   -7.9394    2.7280    9.6112 O   0  0  0  0  0  0  0  0  0  0  0  0
   -3.5367    4.3978   14.7996 C   0  0  0  0  0  0  0  0  0  0  0  0
   -3.1283    5.4830   15.7335 N   0  0  0  0  0  0  0  0  0  0  0  0
  1  2  1  6  0  0  0
  1  7  1  0  0  0  0
  1 30  1  0  0  0  0
  3  4  1  6  0  0  0
  3  9  1  0  0  0  0
  3 39  1  0  0  0  0
  5 10  1  0  0  0  0
  5 26  1  0  0  0  0
  5 32  1  6  0  0  0
  6 12  1  0  0  0  0
  6 36  1  0  0  0  0
  6 19  1  1  0  0  0
  7  8  1  6  0  0  0
  7 14  1  0  0  0  0
  9 16  1  0  0  0  0
 10 11  1  1  0  0  0
 10 18  1  0  0  0  0
 12 13  1  1  0  0  0
 12 20  1  0  0  0  0
 14 15  1  1  0  0  0
 14 22  1  0  0  0  0
 16 17  1  6  0  0  0
 16 24  1  0  0  0  0
 18 19  1  1  0  0  0
 18 25  1  0  0  0  0
 20 21  1  6  0  0  0
 20 27  1  0  0  0  0
 22 23  1  6  0  0  0
 22 29  1  0  0  0  0
 24  2  1  1  0  0  0
 24 31  1  0  0  0  0
 25 26  1  0  0  0  0
 25 33  1  6  0  0  0
 27 28  1  1  0  0  0
 27 35  1  0  0  0  0
 29 30  1  0  0  0  0
 29 37  1  1  0  0  0
 31 32  1  1  0  0  0
 31 39  1  0  0  0  0
 33 34  1  0  0  0  0
 35 36  1  0  0  0  0
 35 41  1  1  0  0  0
 37 38  1  0  0  0  0
 39 40  1  1  0  0  0
 41 42  1  0  0  0  0
M  END
>  <CHROM.1>
159.96975304,-97.79124318,-166.97186528,-77.16204630,-149.95439576,-77.86799725
-160.35982380,-57.29259978,47.46233057,-3.79468294,4.52758154,11.59401297
2.96897674,0.76295083,-2.82360080

>  <Name>
2o3w_lig

>  <RI>
0

>  <Rbt.Current_Directory>
/home/itssahil/PROJECTS/Mol_Feturizer/New_Systems/rnas/2o3w

>  <Rbt.Executable>
rbdock ($Id: //depot/dev/client3/rdock/2013.1/src/exe/rbdock.cxx#4 $)

>  <Rbt.Library>
libRbt.so (2013.1, Build901 2013/11/27)

>  <Rbt.Parameter_File>
/export/apps/rDock/src/rDock_2013.1_src/data/scripts/dock_solv.prm

>  <Rbt.Receptor>
prm/blind_docking_20.prm

>  <SCORE>
33.3933

>  <SCORE.INTER>
-0.573339

>  <SCORE.INTER.CONST>
1

>  <SCORE.INTER.POLAR>
-1.09545

>  <SCORE.INTER.ROT>
9

>  <SCORE.INTER.SOLV>
24.0903

>  <SCORE.INTER.VDW>
-14.3608

>  <SCORE.INTER.norm>
-0.0136509

>  <SCORE.INTRA>
1.62897

>  <SCORE.INTRA.DIHEDRAL>
-12.2572

>  <SCORE.INTRA.DIHEDRAL.0>
27.8999

>  <SCORE.INTRA.POLAR>
0

>  <SCORE.INTRA.POLAR.0>
0

>  <SCORE.INTRA.REPUL>
0.134455

>  <SCORE.INTRA.REPUL.0>
0

>  <SCORE.INTRA.SOLV>
4.47827

>  <SCORE.INTRA.SOLV.lig_0>
-104.479

>  <SCORE.INTRA.VDW>
4.84615

>  <SCORE.INTRA.VDW.0>
-6.17816

>  <SCORE.INTRA.norm>
0.0387849

>  <SCORE.RESTR>
32.3377

>  <SCORE.RESTR.CAVITY>
32.3377

>  <SCORE.RESTR.norm>
0.769946

>  <SCORE.SYSTEM>
0

>  <SCORE.SYSTEM.CONST>
0

>  <SCORE.SYSTEM.DIHEDRAL>
0

>  <SCORE.SYSTEM.SOLV>
0

>  <SCORE.SYSTEM.norm>
0

>  <SCORE.heavy>
42

>  <SCORE.norm>
0.79508

>  <RMSD>
16.355

$$$$
2o3w_lig
 OpenBabel11021811463D
libRbt.so/2013.1/901 2013/11/27
 42 45  0  0  0  0  0  0  0  0999 V2000
   -5.7833    8.4639   11.6093 C   0  0  2  0  0  0  0  0  0  0  0  0
   -4.7615    8.6262   12.6078 O   0  0  0  0  0  0  0  0  0  0  0  0
   -2.5344   11.8464   10.7459 C   0  0  2  0  0  0  0  0  0  0  0  0
   -1.5931   12.9823   10.5131 N   0  0  0  0  0  0  0  0  0  0  0  0
   -2.3344    6.9153   12.1212 C   0  0  1  0  0  0  0  0  0  0  0  0
   -2.1070    2.4213   12.2998 C   0  0  1  0  0  0  0  0  0  0  0  0
   -6.7098    7.3070   12.0902 C   0  0  2  0  0  0  0  0  0  0  0  0
   -7.1502    7.4803   13.4854 N   0  0  0  0  0  0  0  0  0  0  0  0
   -3.6579   12.2365   11.7886 C   0  0  0  0  0  0  0  0  0  0  0  0
   -1.0874    6.0005   11.9236 C   0  0  2  0  0  0  0  0  0  0  0  0
   -0.7448    5.7630   10.5360 O   0  0  0  0  0  0  0  0  0  0  0  0
   -3.1347    1.9938   13.4088 C   0  0  2  0  0  0  0  0  0  0  0  0
   -3.0251    2.8786   14.6071 N   0  0  0  0  0  0  0  0  0  0  0  0
   -6.0191    5.9332   12.0092 C   0  0  1  0  0  0  0  0  0  0  0  0
   -6.9162    4.9005   12.4210 O   0  0  0  0  0  0  0  0  0  0  0  0
   -4.6294   11.0101   11.9747 C   0  0  2  0  0  0  0  0  0  0  0  0
   -5.7097   11.3476   12.9404 N   0  0  0  0  0  0  0  0  0  0  0  0
   -1.4959    4.7641   12.7258 C   0  0  2  0  0  0  0  0  0  0  0  0
   -2.2039    3.7919   11.8926 O   0  0  0  0  0  0  0  0  0  0  0  0
   -2.8828    0.4608   13.8004 C   0  0  1  0  0  0  0  0  0  0  0  0
   -3.3634   -0.3804   12.7278 O   0  0  0  0  0  0  0  0  0  0  0  0
   -5.5088    5.6967   10.5695 C   0  0  2  0  0  0  0  0  0  0  0  0
   -4.8885    4.4355   10.4746 O   0  0  0  0  0  0  0  0  0  0  0  0
   -3.8360    9.7440   12.4881 C   0  0  2  0  0  0  0  0  0  0  0  0
   -2.3903    5.2754   13.8677 C   0  0  2  0  0  0  0  0  0  0  0  0
   -3.0176    6.4208   13.2959 O   0  0  0  0  0  0  0  0  0  0  0  0
   -1.3395    0.1370   14.0850 C   0  0  2  0  0  0  0  0  0  0  0  0
   -0.9780    0.7947   15.2988 O   0  0  0  0  0  0  0  0  0  0  0  0
   -4.5057    6.8364   10.1897 C   0  0  2  0  0  0  0  0  0  0  0  0
   -5.1696    8.1348   10.3051 O   0  0  0  0  0  0  0  0  0  0  0  0
   -2.6826    9.3371   11.5450 C   0  0  2  0  0  0  0  0  0  0  0  0
   -1.9602    8.2928   12.2536 O   0  0  0  0  0  0  0  0  0  0  0  0
   -1.6336    5.6467   15.1806 C   0  0  0  0  0  0  0  0  0  0  0  0
   -0.7996    4.5584   15.5668 O   0  0  0  0  0  0  0  0  0  0  0  0
   -0.4367    0.6468   12.8988 C   0  0  1  0  0  0  0  0  0  0  0  0
   -0.7064    2.0894   12.7700 O   0  0  0  0  0  0  0  0  0  0  0  0
   -3.9593    6.6871    8.7886 C   0  0  0  0  0  0  0  0  0  0  0  0
   -3.5658    5.3558    8.5610 O   0  0  0  0  0  0  0  0  0  0  0  0
   -1.7396   10.5808   11.2628 C   0  0  1  0  0  0  0  0  0  0  0  0
   -0.7627   10.2448   10.2736 O   0  0  0  0  0  0  0  0  0  0  0  0
    1.1186    0.3956   13.1145 C   0  0  0  0  0  0  0  0  0  0  0  0
    1.5510   -1.0284   13.0735 N   0  0  0  0  0  0  0  0  0  0  0  0
  1  2  1  1  0  0  0
  1  7  1  0  0  0  0
  1 30  1  0  0  0  0
  3  4  1  1  0  0  0
  3  9  1  0  0  0  0
  3 39  1  0  0  0  0
  5 10  1  0  0  0  0
  5 26  1  0  0  0  0
  5 32  1  1  0  0  0
  6 12  1  0  0  0  0
  6 36  1  0  0  0  0
  6 19  1  1  0  0  0
  7  8  1  1  0  0  0
  7 14  1  0  0  0  0
  9 16  1  0  0  0  0
 10 11  1  6  0  0  0
 10 18  1  0  0  0  0
 12 13  1  1  0  0  0
 12 20  1  0  0  0  0
 14 15  1  6  0  0  0
 14 22  1  0  0  0  0
 16 17  1  1  0  0  0
 16 24  1  0  0  0  0
 18 19  1  6  0  0  0
 18 25  1  0  0  0  0
 20 21  1  6  0  0  0
 20 27  1  0  0  0  0
 22 23  1  1  0  0  0
 22 29  1  0  0  0  0
 24  2  1  6  0  0  0
 24 31  1  0  0  0  0
 25 26  1  0  0  0  0
 25 33  1  1  0  0  0
 27 28  1  1  0  0  0
 27 35  1  0  0  0  0
 29 30  1  0  0  0  0
 29 37  1  6  0  0  0
 31 32  1  1  0  0  0
 31 39  1  0  0  0  0
 33 34  1  0  0  0  0
 35 36  1  0  0  0  0
 35 41  1  1  0  0  0
 37 38  1  0  0  0  0
 39 40  1  6  0  0  0
 41 42  1  0  0  0  0
M  END
>  <CHROM.1>
-173.31135616,135.42391825,83.78143940,152.74812853,38.71468277,-51.52038172
-45.87860435,88.56281714,68.79370504,-2.96362999,5.84455551,12.23391924,1.84820359
-0.09878430,-0.19710589

>  <Name>
2o3w_lig

>  <RI>
0

>  <Rbt.Current_Directory>
/home/itssahil/PROJECTS/Mol_Feturizer/New_Systems/rnas/2o3w

>  <Rbt.Executable>
rbdock ($Id: //depot/dev/client3/rdock/2013.1/src/exe/rbdock.cxx#4 $)

>  <Rbt.Library>
libRbt.so (2013.1, Build901 2013/11/27)

>  <Rbt.Parameter_File>
/export/apps/rDock/src/rDock_2013.1_src/data/scripts/dock_solv.prm

>  <Rbt.Receptor>
prm/blind_docking_60.prm

>  <SCORE>
12.7318

>  <SCORE.INTER>
3.73412

>  <SCORE.INTER.CONST>
1

>  <SCORE.INTER.POLAR>
-1.0091

>  <SCORE.INTER.ROT>
9

>  <SCORE.INTER.SOLV>
31.217

>  <SCORE.INTER.VDW>
-14.1526

>  <SCORE.INTER.norm>
0.0889077

>  <SCORE.INTRA>
-0.745769

>  <SCORE.INTRA.DIHEDRAL>
-9.42689

>  <SCORE.INTRA.DIHEDRAL.0>
27.8999

>  <SCORE.INTRA.POLAR>
0

>  <SCORE.INTRA.POLAR.0>
0

>  <SCORE.INTRA.REPUL>
0.386149

>  <SCORE.INTRA.REPUL.0>
0

>  <SCORE.INTRA.SOLV>
0.95203

>  <SCORE.INTRA.SOLV.lig_0>
-104.479

>  <SCORE.INTRA.VDW>
1.56091

>  <SCORE.INTRA.VDW.0>
-6.17816

>  <SCORE.INTRA.norm>
-0.0177564

>  <SCORE.RESTR>
9.74341

>  <SCORE.RESTR.CAVITY>
9.74341

>  <SCORE.RESTR.norm>
0.231986

>  <SCORE.SYSTEM>
0

>  <SCORE.SYSTEM.CONST>
0

>  <SCORE.SYSTEM.DIHEDRAL>
0

>  <SCORE.SYSTEM.SOLV>
0

>  <SCORE.SYSTEM.norm>
0

>  <SCORE.heavy>
42

>  <SCORE.norm>
0.303137

>  <RMSD>
16.452

$$$$
2o3w_lig
 OpenBabel11021811463D
libRbt.so/2013.1/901 2013/11/27
 42 45  0  0  0  0  0  0  0  0999 V2000
   -5.8510    6.2851   12.4783 C   0  0  2  0  0  0  0  0  0  0  0  0
   -4.8735    6.5970   13.4855 O   0  0  0  0  0  0  0  0  0  0  0  0
   -3.9033   10.6215   12.1978 C   0  0  2  0  0  0  0  0  0  0  0  0
   -3.3704   12.0159   12.1522 N   0  0  0  0  0  0  0  0  0  0  0  0
   -2.1874    5.8079   12.6942 C   0  0  1  0  0  0  0  0  0  0  0  0
   -1.0721    1.5141   12.4480 C   0  0  1  0  0  0  0  0  0  0  0  0
   -5.6750    4.7777   12.1248 C   0  0  2  0  0  0  0  0  0  0  0  0
   -5.6398    3.9184   13.3210 N   0  0  0  0  0  0  0  0  0  0  0  0
   -4.9806   10.4560   13.3441 C   0  0  0  0  0  0  0  0  0  0  0  0
   -0.8033    5.2790   12.2091 C   0  0  2  0  0  0  0  0  0  0  0  0
   -0.6486    5.2677   10.7686 O   0  0  0  0  0  0  0  0  0  0  0  0
   -2.2961    0.7909   13.1170 C   0  0  2  0  0  0  0  0  0  0  0  0
   -2.8058    1.5730   14.2830 N   0  0  0  0  0  0  0  0  0  0  0  0
   -4.3748    4.5083   11.3452 C   0  0  1  0  0  0  0  0  0  0  0  0
   -4.2745    3.1236   11.0084 O   0  0  0  0  0  0  0  0  0  0  0  0
   -5.5200    8.9756   13.3275 C   0  0  2  0  0  0  0  0  0  0  0  0
   -6.5483    8.7878   14.3861 N   0  0  0  0  0  0  0  0  0  0  0  0
   -0.7524    3.9110   12.8913 C   0  0  2  0  0  0  0  0  0  0  0  0
   -1.3255    2.8653   12.0434 O   0  0  0  0  0  0  0  0  0  0  0  0
   -1.8599   -0.6855   13.5609 C   0  0  1  0  0  0  0  0  0  0  0  0
   -1.7417   -1.5122   12.3813 O   0  0  0  0  0  0  0  0  0  0  0  0
   -4.3359    5.4003   10.0834 C   0  0  2  0  0  0  0  0  0  0  0  0
   -3.1590    5.1535    9.3496 O   0  0  0  0  0  0  0  0  0  0  0  0
   -4.3387    7.9500   13.5479 C   0  0  2  0  0  0  0  0  0  0  0  0
   -1.5426    4.0607   14.2022 C   0  0  2  0  0  0  0  0  0  0  0  0
   -2.5209    5.0453   13.8767 O   0  0  0  0  0  0  0  0  0  0  0  0
   -0.4783   -0.7084   14.3721 C   0  0  2  0  0  0  0  0  0  0  0  0
   -0.7129   -0.0972   15.6401 O   0  0  0  0  0  0  0  0  0  0  0  0
   -4.4124    6.9021   10.5173 C   0  0  2  0  0  0  0  0  0  0  0  0
   -5.6365    7.1307   11.2848 O   0  0  0  0  0  0  0  0  0  0  0  0
   -3.2181    8.0918   12.4946 C   0  0  2  0  0  0  0  0  0  0  0  0
   -2.1504    7.2174   12.9528 O   0  0  0  0  0  0  0  0  0  0  0  0
   -0.6938    4.4991   15.4358 C   0  0  0  0  0  0  0  0  0  0  0  0
   -1.3027    5.6325   16.0469 O   0  0  0  0  0  0  0  0  0  0  0  0
    0.6402    0.0761   13.5873 C   0  0  1  0  0  0  0  0  0  0  0  0
    0.1173    1.4380   13.3820 O   0  0  0  0  0  0  0  0  0  0  0  0
   -4.3866    7.8495    9.3402 C   0  0  0  0  0  0  0  0  0  0  0  0
   -5.4889    7.6087    8.4998 O   0  0  0  0  0  0  0  0  0  0  0  0
   -2.7205    9.5961   12.4216 C   0  0  1  0  0  0  0  0  0  0  0  0
   -1.7932    9.7573   11.3448 O   0  0  0  0  0  0  0  0  0  0  0  0
    2.0404    0.1324   14.3388 C   0  0  0  0  0  0  0  0  0  0  0  0
    2.1184    1.0842   15.4810 N   0  0  0  0  0  0  0  0  0  0  0  0
  1  2  1  1  0  0  0
  1  7  1  0  0  0  0
  1 30  1  0  0  0  0
  3  4  1  1  0  0  0
  3  9  1  0  0  0  0
  3 39  1  0  0  0  0
  5 10  1  0  0  0  0
  5 26  1  0  0  0  0
  5 32  1  1  0  0  0
  6 12  1  0  0  0  0
  6 36  1  0  0  0  0
  6 19  1  1  0  0  0
  7  8  1  1  0  0  0
  7 14  1  0  0  0  0
  9 16  1  0  0  0  0
 10 11  1  6  0  0  0
 10 18  1  0  0  0  0
 12 13  1  1  0  0  0
 12 20  1  0  0  0  0
 14 15  1  6  0  0  0
 14 22  1  0  0  0  0
 16 17  1  1  0  0  0
 16 24  1  0  0  0  0
 18 19  1  6  0  0  0
 18 25  1  0  0  0  0
 20 21  1  6  0  0  0
 20 27  1  0  0  0  0
 22 23  1  1  0  0  0
 22 29  1  0  0  0  0
 24  2  1  6  0  0  0
 24 31  1  0  0  0  0
 25 26  1  0  0  0  0
 25 33  1  1  0  0  0
 27 28  1  1  0  0  0
 27 35  1  0  0  0  0
 29 30  1  0  0  0  0
 29 37  1  6  0  0  0
 31 32  1  1  0  0  0
 31 39  1  0  0  0  0
 33 34  1  0  0  0  0
 35 36  1  0  0  0  0
 35 41  1  1  0  0  0
 37 38  1  0  0  0  0
 39 40  1  6  0  0  0
 41 42  1  0  0  0  0
M  END
>  <CHROM.1>
150.06252730,135.51488520,104.45187817,166.92231274,41.59209359,127.71144455
60.68988544,81.55786966,-75.78402856,-2.71194751,4.95672021,12.69231056,2.18815388
-0.73819756,0.20523007

>  <Name>
2o3w_lig

>  <RI>
0

>  <Rbt.Current_Directory>
/home/itssahil/PROJECTS/Mol_Feturizer/New_Systems/rnas/2o3w

>  <Rbt.Executable>
rbdock ($Id: //depot/dev/client3/rdock/2013.1/src/exe/rbdock.cxx#4 $)

>  <Rbt.Library>
libRbt.so (2013.1, Build901 2013/11/27)

>  <Rbt.Parameter_File>
/export/apps/rDock/src/rDock_2013.1_src/data/scripts/dock_solv.prm

>  <Rbt.Receptor>
prm/blind_docking_60.prm

>  <SCORE>
11.1567

>  <SCORE.INTER>
-5.29378

>  <SCORE.INTER.CONST>
1

>  <SCORE.INTER.POLAR>
-1.15228

>  <SCORE.INTER.ROT>
9

>  <SCORE.INTER.SOLV>
32.1684

>  <SCORE.INTER.VDW>
-20.0111

>  <SCORE.INTER.norm>
-0.126042

>  <SCORE.INTRA>
6.41166

>  <SCORE.INTRA.DIHEDRAL>
-1.84913

>  <SCORE.INTRA.DIHEDRAL.0>
27.8999

>  <SCORE.INTRA.POLAR>
0

>  <SCORE.INTRA.POLAR.0>
0

>  <SCORE.INTRA.REPUL>
0.241613

>  <SCORE.INTRA.REPUL.0>
0

>  <SCORE.INTRA.SOLV>
4.23245

>  <SCORE.INTRA.SOLV.lig_0>
-104.479

>  <SCORE.INTRA.VDW>
4.01193

>  <SCORE.INTRA.VDW.0>
-6.17816

>  <SCORE.INTRA.norm>
0.152659

>  <SCORE.RESTR>
10.0389

>  <SCORE.RESTR.CAVITY>
10.0389

>  <SCORE.RESTR.norm>
0.239021

>  <SCORE.SYSTEM>
0

>  <SCORE.SYSTEM.CONST>
0

>  <SCORE.SYSTEM.DIHEDRAL>
0

>  <SCORE.SYSTEM.SOLV>
0

>  <SCORE.SYSTEM.norm>
0

>  <SCORE.heavy>
42

>  <SCORE.norm>
0.265637

>  <RMSD>
16.475

$$$$
2o3w_lig
 OpenBabel11021811463D
libRbt.so/2013.1/901 2013/11/27
 42 45  0  0  0  0  0  0  0  0999 V2000
   -4.7489    5.2153   11.4438 C   0  0  2  0  0  0  0  0  0  0  0  0
   -4.0980    5.9245   10.3758 O   0  0  0  0  0  0  0  0  0  0  0  0
   -2.7560    9.9469    9.4727 C   0  0  2  0  0  0  0  0  0  0  0  0
   -2.5843   11.4304    9.4840 N   0  0  0  0  0  0  0  0  0  0  0  0
   -1.5822    6.3970   12.7908 C   0  0  1  0  0  0  0  0  0  0  0  0
    0.2551    2.7059   14.6436 C   0  0  1  0  0  0  0  0  0  0  0  0
   -6.2525    5.0875   11.0552 C   0  0  2  0  0  0  0  0  0  0  0  0
   -6.4395    4.5704    9.6884 N   0  0  0  0  0  0  0  0  0  0  0  0
   -4.2179    9.5417    9.0250 C   0  0  0  0  0  0  0  0  0  0  0  0
   -2.1154    5.4581   13.9155 C   0  0  2  0  0  0  0  0  0  0  0  0
   -1.8776    5.9513   15.2568 O   0  0  0  0  0  0  0  0  0  0  0  0
    0.8503    1.8044   13.5026 C   0  0  2  0  0  0  0  0  0  0  0  0
   -0.0939    1.7115   12.3490 N   0  0  0  0  0  0  0  0  0  0  0  0
   -6.9908    6.4370   11.1250 C   0  0  1  0  0  0  0  0  0  0  0  0
   -8.3714    6.2660   10.8002 O   0  0  0  0  0  0  0  0  0  0  0  0
   -4.3302    7.9701    9.0112 C   0  0  2  0  0  0  0  0  0  0  0  0
   -5.6914    7.5524    8.5795 N   0  0  0  0  0  0  0  0  0  0  0  0
   -1.4190    4.1436   13.5601 C   0  0  2  0  0  0  0  0  0  0  0  0
   -0.1223    4.0241   14.2273 O   0  0  0  0  0  0  0  0  0  0  0  0
    1.1810    0.3526   14.0940 C   0  0  1  0  0  0  0  0  0  0  0  0
    2.3572    0.4451   14.9289 O   0  0  0  0  0  0  0  0  0  0  0  0
   -6.8138    7.0492   12.5332 C   0  0  2  0  0  0  0  0  0  0  0  0
   -7.4981    8.2776   12.6188 O   0  0  0  0  0  0  0  0  0  0  0  0
   -4.0228    7.3771   10.4428 C   0  0  2  0  0  0  0  0  0  0  0  0
   -1.2603    4.1474   12.0303 C   0  0  2  0  0  0  0  0  0  0  0  0
   -1.1244    5.5333   11.7251 O   0  0  0  0  0  0  0  0  0  0  0  0
   -0.0307   -0.2646   14.9416 C   0  0  2  0  0  0  0  0  0  0  0  0
   -1.0829   -0.5721   14.0280 O   0  0  0  0  0  0  0  0  0  0  0  0
   -5.2871    7.2457   12.8163 C   0  0  2  0  0  0  0  0  0  0  0  0
   -4.5980    5.9596   12.7122 O   0  0  0  0  0  0  0  0  0  0  0  0
   -2.6286    7.7800   10.9712 C   0  0  2  0  0  0  0  0  0  0  0  0
   -2.5921    7.3129   12.3478 O   0  0  0  0  0  0  0  0  0  0  0  0
   -2.4492    3.5133   11.2437 C   0  0  0  0  0  0  0  0  0  0  0  0
   -3.0115    2.4550   12.0135 O   0  0  0  0  0  0  0  0  0  0  0  0
   -0.5321    0.7640   16.0246 C   0  0  1  0  0  0  0  0  0  0  0  0
   -0.9090    1.9828   15.2878 O   0  0  0  0  0  0  0  0  0  0  0  0
   -5.0203    7.8368   14.1813 C   0  0  0  0  0  0  0  0  0  0  0  0
   -5.6036    9.1133   14.2794 O   0  0  0  0  0  0  0  0  0  0  0  0
   -2.4512    9.3548   10.9070 C   0  0  1  0  0  0  0  0  0  0  0  0
   -1.1107    9.7148   11.2520 O   0  0  0  0  0  0  0  0  0  0  0  0
   -1.7595    0.2445   16.8919 C   0  0  0  0  0  0  0  0  0  0  0  0
   -3.0428    0.0808   16.1552 N   0  0  0  0  0  0  0  0  0  0  0  0
  1  2  1  6  0  0  0
  1  7  1  0  0  0  0
  1 30  1  0  0  0  0
  3  4  1  1  0  0  0
  3  9  1  0  0  0  0
  3 39  1  0  0  0  0
  5 10  1  0  0  0  0
  5 26  1  0  0  0  0
  5 32  1  6  0  0  0
  6 12  1  0  0  0  0
  6 36  1  0  0  0  0
  6 19  1  6  0  0  0
  7  8  1  6  0  0  0
  7 14  1  0  0  0  0
  9 16  1  0  0  0  0
 10 11  1  1  0  0  0
 10 18  1  0  0  0  0
 12 13  1  6  0  0  0
 12 20  1  0  0  0  0
 14 15  1  1  0  0  0
 14 22  1  0  0  0  0
 16 17  1  1  0  0  0
 16 24  1  0  0  0  0
 18 19  1  1  0  0  0
 18 25  1  0  0  0  0
 20 21  1  1  0  0  0
 20 27  1  0  0  0  0
 22 23  1  6  0  0  0
 22 29  1  0  0  0  0
 24  2  1  6  0  0  0
 24 31  1  0  0  0  0
 25 26  1  0  0  0  0
 25 33  1  6  0  0  0
 27 28  1  6  0  0  0
 27 35  1  0  0  0  0
 29 30  1  0  0  0  0
 29 37  1  1  0  0  0
 31 32  1  1  0  0  0
 31 39  1  0  0  0  0
 33 34  1  0  0  0  0
 35 36  1  0  0  0  0
 35 41  1  6  0  0  0
 37 38  1  0  0  0  0
 39 40  1  6  0  0  0
 41 42  1  0  0  0  0
M  END
>  <CHROM.1>
90.17639840,-148.36540051,80.66489361,144.66301844,-137.82745476,-32.78513000
-61.71774986,122.12024210,-67.65403456,-2.90554134,5.18527434,12.52031656
2.08686263,-0.06765020,-0.46384968

>  <Name>
2o3w_lig

>  <RI>
0

>  <Rbt.Current_Directory>
/home/itssahil/PROJECTS/Mol_Feturizer/New_Systems/rnas/2o3w

>  <Rbt.Executable>
rbdock ($Id: //depot/dev/client3/rdock/2013.1/src/exe/rbdock.cxx#4 $)

>  <Rbt.Library>
libRbt.so (2013.1, Build901 2013/11/27)

>  <Rbt.Parameter_File>
/export/apps/rDock/src/rDock_2013.1_src/data/scripts/dock_solv.prm

>  <Rbt.Receptor>
prm/blind_docking_60.prm

>  <SCORE>
18.3097

>  <SCORE.INTER>
-0.11735

>  <SCORE.INTER.CONST>
1

>  <SCORE.INTER.POLAR>
0

>  <SCORE.INTER.ROT>
9

>  <SCORE.INTER.SOLV>
20.5291

>  <SCORE.INTER.VDW>
-16.5213

>  <SCORE.INTER.norm>
-0.00279405

>  <SCORE.INTRA>
7.70043

>  <SCORE.INTRA.DIHEDRAL>
1.5296

>  <SCORE.INTRA.DIHEDRAL.0>
27.8999

>  <SCORE.INTRA.POLAR>
0

>  <SCORE.INTRA.POLAR.0>
0

>  <SCORE.INTRA.REPUL>
7.10721e-05

>  <SCORE.INTRA.REPUL.0>
0

>  <SCORE.INTRA.SOLV>
5.72338

>  <SCORE.INTRA.SOLV.lig_0>
-104.479

>  <SCORE.INTRA.VDW>
4.07358

>  <SCORE.INTRA.VDW.0>
-6.17816

>  <SCORE.INTRA.norm>
0.183343

>  <SCORE.RESTR>
10.7266

>  <SCORE.RESTR.CAVITY>
10.7266

>  <SCORE.RESTR.norm>
0.255396

>  <SCORE.SYSTEM>
0

>  <SCORE.SYSTEM.CONST>
0

>  <SCORE.SYSTEM.DIHEDRAL>
0

>  <SCORE.SYSTEM.SOLV>
0

>  <SCORE.SYSTEM.norm>
0

>  <SCORE.heavy>
42

>  <SCORE.norm>
0.435945

>  <RMSD>
16.568

$$$$
2o3w_lig
 OpenBabel11021811463D
libRbt.so/2013.1/901 2013/11/27
 42 45  0  0  0  0  0  0  0  0999 V2000
   -5.0200    7.7699   13.1329 C   0  0  2  0  0  0  0  0  0  0  0  0
   -5.7898    7.8472   11.9210 O   0  0  0  0  0  0  0  0  0  0  0  0
   -5.7179    6.3776    7.8428 C   0  0  2  0  0  0  0  0  0  0  0  0
   -5.3140    5.6879    6.5812 N   0  0  0  0  0  0  0  0  0  0  0  0
   -5.1170    4.0104   11.4411 C   0  0  1  0  0  0  0  0  0  0  0  0
   -1.2750    1.7921   11.6764 C   0  0  1  0  0  0  0  0  0  0  0  0
   -4.6210    9.2276   13.5123 C   0  0  2  0  0  0  0  0  0  0  0  0
   -5.7712   10.1482   13.5002 N   0  0  0  0  0  0  0  0  0  0  0  0
   -4.6839    7.5084    8.2351 C   0  0  0  0  0  0  0  0  0  0  0  0
   -3.7580    4.5325   10.8830 C   0  0  2  0  0  0  0  0  0  0  0  0
   -3.6107    4.3770    9.4501 O   0  0  0  0  0  0  0  0  0  0  0  0
   -1.4927    0.2553   11.9202 C   0  0  2  0  0  0  0  0  0  0  0  0
   -2.6936    0.0158   12.7755 N   0  0  0  0  0  0  0  0  0  0  0  0
   -3.5711    9.8150   12.5513 C   0  0  1  0  0  0  0  0  0  0  0  0
   -3.2064   11.1346   12.9593 O   0  0  0  0  0  0  0  0  0  0  0  0
   -5.1743    8.2120    9.5569 C   0  0  2  0  0  0  0  0  0  0  0  0
   -4.2305    9.2936    9.9481 N   0  0  0  0  0  0  0  0  0  0  0  0
   -2.7637    3.7475   11.7399 C   0  0  2  0  0  0  0  0  0  0  0  0
   -2.4044    2.4736   11.1164 O   0  0  0  0  0  0  0  0  0  0  0  0
   -0.1762   -0.3655   12.5898 C   0  0  1  0  0  0  0  0  0  0  0  0
    0.8611   -0.4530   11.5872 O   0  0  0  0  0  0  0  0  0  0  0  0
   -2.3409    8.8806   12.4980 C   0  0  2  0  0  0  0  0  0  0  0  0
   -1.3630    9.4129   11.6350 O   0  0  0  0  0  0  0  0  0  0  0  0
   -5.2969    7.1644   10.7330 C   0  0  2  0  0  0  0  0  0  0  0  0
   -3.4532    3.5287   13.0972 C   0  0  2  0  0  0  0  0  0  0  0  0
   -4.8340    3.4613   12.7486 O   0  0  0  0  0  0  0  0  0  0  0  0
    0.3527    0.4935   13.8347 C   0  0  2  0  0  0  0  0  0  0  0  0
   -0.5920    0.3442   14.8938 O   0  0  0  0  0  0  0  0  0  0  0  0
   -2.7962    7.4644   12.0114 C   0  0  2  0  0  0  0  0  0  0  0  0
   -3.8172    6.9378   12.9171 O   0  0  0  0  0  0  0  0  0  0  0  0
   -6.2505    5.9967   10.3979 C   0  0  2  0  0  0  0  0  0  0  0  0
   -6.0991    5.0533   11.4941 O   0  0  0  0  0  0  0  0  0  0  0  0
   -3.1951    4.6467   14.1544 C   0  0  0  0  0  0  0  0  0  0  0  0
   -3.7433    4.2458   15.4064 O   0  0  0  0  0  0  0  0  0  0  0  0
    0.4953    2.0125   13.4414 C   0  0  1  0  0  0  0  0  0  0  0  0
   -0.8340    2.4401   12.9720 O   0  0  0  0  0  0  0  0  0  0  0  0
   -1.6521    6.4800   11.9356 C   0  0  0  0  0  0  0  0  0  0  0  0
   -1.0548    6.5280   10.6628 O   0  0  0  0  0  0  0  0  0  0  0  0
   -5.8371    5.3285    9.0200 C   0  0  1  0  0  0  0  0  0  0  0  0
   -6.8066    4.3496    8.6359 O   0  0  0  0  0  0  0  0  0  0  0  0
    0.9846    2.9465   14.6317 C   0  0  0  0  0  0  0  0  0  0  0  0
   -0.0923    3.6562   15.3754 N   0  0  0  0  0  0  0  0  0  0  0  0
  1  2  1  6  0  0  0
  1  7  1  0  0  0  0
  1 30  1  0  0  0  0
  3  4  1  6  0  0  0
  3  9  1  0  0  0  0
  3 39  1  0  0  0  0
  5 10  1  0  0  0  0
  5 26  1  0  0  0  0
  5 32  1  1  0  0  0
  6 12  1  0  0  0  0
  6 36  1  0  0  0  0
  6 19  1  1  0  0  0
  7  8  1  6  0  0  0
  7 14  1  0  0  0  0
  9 16  1  0  0  0  0
 10 11  1  6  0  0  0
 10 18  1  0  0  0  0
 12 13  1  1  0  0  0
 12 20  1  0  0  0  0
 14 15  1  1  0  0  0
 14 22  1  0  0  0  0
 16 17  1  1  0  0  0
 16 24  1  0  0  0  0
 18 19  1  6  0  0  0
 18 25  1  0  0  0  0
 20 21  1  6  0  0  0
 20 27  1  0  0  0  0
 22 23  1  6  0  0  0
 22 29  1  0  0  0  0
 24  2  1  1  0  0  0
 24 31  1  0  0  0  0
 25 26  1  0  0  0  0
 25 33  1  1  0  0  0
 27 28  1  1  0  0  0
 27 35  1  0  0  0  0
 29 30  1  0  0  0  0
 29 37  1  1  0  0  0
 31 32  1  1  0  0  0
 31 39  1  0  0  0  0
 33 34  1  0  0  0  0
 35 36  1  0  0  0  0
 35 41  1  1  0  0  0
 37 38  1  0  0  0  0
 39 40  1  6  0  0  0
 41 42  1  0  0  0  0
M  END
>  <CHROM.1>
119.28475527,42.74851806,134.09141924,166.99924500,-124.19857192,-172.76210685
-89.62181871,-89.97765182,-96.53102137,-3.17475594,5.10387377,11.85715583
-2.38005073,0.85034284,-2.77352823

>  <Name>
2o3w_lig

>  <RI>
0

>  <Rbt.Current_Directory>
/home/itssahil/PROJECTS/Mol_Feturizer/New_Systems/rnas/2o3w

>  <Rbt.Executable>
rbdock ($Id: //depot/dev/client3/rdock/2013.1/src/exe/rbdock.cxx#4 $)

>  <Rbt.Library>
libRbt.so (2013.1, Build901 2013/11/27)

>  <Rbt.Parameter_File>
/export/apps/rDock/src/rDock_2013.1_src/data/scripts/dock_solv.prm

>  <Rbt.Receptor>
prm/blind_docking_60.prm

>  <SCORE>
22.0909

>  <SCORE.INTER>
-2.05179

>  <SCORE.INTER.CONST>
1

>  <SCORE.INTER.POLAR>
-1.52957

>  <SCORE.INTER.ROT>
9

>  <SCORE.INTER.SOLV>
23.7195

>  <SCORE.INTER.VDW>
-13.7758

>  <SCORE.INTER.norm>
-0.0488522

>  <SCORE.INTRA>
12.331

>  <SCORE.INTRA.DIHEDRAL>
4.6814

>  <SCORE.INTRA.DIHEDRAL.0>
27.8999

>  <SCORE.INTRA.POLAR>
0

>  <SCORE.INTRA.POLAR.0>
0

>  <SCORE.INTRA.REPUL>
0

>  <SCORE.INTRA.REPUL.0>
0

>  <SCORE.INTRA.SOLV>
6.8371

>  <SCORE.INTRA.SOLV.lig_0>
-104.479

>  <SCORE.INTRA.VDW>
6.57175

>  <SCORE.INTRA.VDW.0>
-6.17816

>  <SCORE.INTRA.norm>
0.293595

>  <SCORE.RESTR>
11.8117

>  <SCORE.RESTR.CAVITY>
11.8117

>  <SCORE.RESTR.norm>
0.281231

>  <SCORE.SYSTEM>
0

>  <SCORE.SYSTEM.CONST>
0

>  <SCORE.SYSTEM.DIHEDRAL>
0

>  <SCORE.SYSTEM.SOLV>
0

>  <SCORE.SYSTEM.norm>
0

>  <SCORE.heavy>
42

>  <SCORE.norm>
0.525974

>  <RMSD>
16.570

$$$$
2o3w_lig
 OpenBabel11021811463D
libRbt.so/2013.1/901 2013/11/27
 42 45  0  0  0  0  0  0  0  0999 V2000
   -3.5789    8.4648   11.3638 C   0  0  2  0  0  0  0  0  0  0  0  0
   -4.7350    8.4549   10.5090 O   0  0  0  0  0  0  0  0  0  0  0  0
   -5.6383    5.2780    7.7006 C   0  0  2  0  0  0  0  0  0  0  0  0
   -5.6444    4.4002    6.4924 N   0  0  0  0  0  0  0  0  0  0  0  0
   -2.0381    5.6948   10.9036 C   0  0  1  0  0  0  0  0  0  0  0  0
   -0.9679    3.0205   13.9294 C   0  0  1  0  0  0  0  0  0  0  0  0
   -4.0827    8.7669   12.8071 C   0  0  2  0  0  0  0  0  0  0  0  0
   -5.2086    7.9034   13.2036 N   0  0  0  0  0  0  0  0  0  0  0  0
   -6.1539    6.7330    7.3555 C   0  0  0  0  0  0  0  0  0  0  0  0
   -2.2370    6.2046   12.3636 C   0  0  2  0  0  0  0  0  0  0  0  0
   -1.1956    7.1018   12.8215 O   0  0  0  0  0  0  0  0  0  0  0  0
    0.1004    2.6805   15.0304 C   0  0  2  0  0  0  0  0  0  0  0  0
    1.4520    3.1770   14.6335 N   0  0  0  0  0  0  0  0  0  0  0  0
   -4.5606   10.2220   12.9665 C   0  0  1  0  0  0  0  0  0  0  0  0
   -4.9752   10.4647   14.3119 O   0  0  0  0  0  0  0  0  0  0  0  0
   -6.1458    7.6023    8.6696 C   0  0  2  0  0  0  0  0  0  0  0  0
   -6.6399    8.9763    8.3841 N   0  0  0  0  0  0  0  0  0  0  0  0
   -2.3556    4.8838   13.1257 C   0  0  2  0  0  0  0  0  0  0  0  0
   -1.0504    4.4094   13.5864 O   0  0  0  0  0  0  0  0  0  0  0  0
    0.1187    1.0978   15.2785 C   0  0  1  0  0  0  0  0  0  0  0  0
   -1.0700    0.7261   16.0118 O   0  0  0  0  0  0  0  0  0  0  0  0
   -3.4292   11.1857   12.5419 C   0  0  2  0  0  0  0  0  0  0  0  0
   -3.8452   12.5226   12.6979 O   0  0  0  0  0  0  0  0  0  0  0  0
   -4.6898    7.6782    9.2782 C   0  0  2  0  0  0  0  0  0  0  0  0
   -2.9980    3.8856   12.1478 C   0  0  2  0  0  0  0  0  0  0  0  0
   -2.5336    4.3365   10.8776 O   0  0  0  0  0  0  0  0  0  0  0  0
    0.1940    0.2557   13.9174 C   0  0  2  0  0  0  0  0  0  0  0  0
    1.4889    0.4615   13.3543 O   0  0  0  0  0  0  0  0  0  0  0  0
   -3.0442   10.8965   11.0527 C   0  0  2  0  0  0  0  0  0  0  0  0
   -2.6256    9.5017   10.9148 O   0  0  0  0  0  0  0  0  0  0  0  0
   -4.0972    6.2863    9.5888 C   0  0  2  0  0  0  0  0  0  0  0  0
   -2.7126    6.5342    9.9572 O   0  0  0  0  0  0  0  0  0  0  0  0
   -4.5567    3.8338   12.1895 C   0  0  0  0  0  0  0  0  0  0  0  0
   -4.9822    3.5358   13.5158 O   0  0  0  0  0  0  0  0  0  0  0  0
   -0.9205    0.7282   12.9090 C   0  0  1  0  0  0  0  0  0  0  0  0
   -0.7022    2.1707   12.7045 O   0  0  0  0  0  0  0  0  0  0  0  0
   -1.9351   11.7938   10.5541 C   0  0  0  0  0  0  0  0  0  0  0  0
   -1.6444   11.5033    9.2086 O   0  0  0  0  0  0  0  0  0  0  0  0
   -4.1800    5.3559    8.3070 C   0  0  1  0  0  0  0  0  0  0  0  0
   -3.7724    4.0250    8.6361 O   0  0  0  0  0  0  0  0  0  0  0  0
   -0.8970   -0.0344   11.5138 C   0  0  0  0  0  0  0  0  0  0  0  0
   -1.9473    0.3741   10.5409 N   0  0  0  0  0  0  0  0  0  0  0  0
  1  2  1  6  0  0  0
  1  7  1  0  0  0  0
  1 30  1  0  0  0  0
  3  4  1  6  0  0  0
  3  9  1  0  0  0  0
  3 39  1  0  0  0  0
  5 10  1  0  0  0  0
  5 26  1  0  0  0  0
  5 32  1  6  0  0  0
  6 12  1  0  0  0  0
  6 36  1  0  0  0  0
  6 19  1  6  0  0  0
  7  8  1  6  0  0  0
  7 14  1  0  0  0  0
  9 16  1  0  0  0  0
 10 11  1  1  0  0  0
 10 18  1  0  0  0  0
 12 13  1  6  0  0  0
 12 20  1  0  0  0  0
 14 15  1  1  0  0  0
 14 22  1  0  0  0  0
 16 17  1  6  0  0  0
 16 24  1  0  0  0  0
 18 19  1  6  0  0  0
 18 25  1  0  0  0  0
 20 21  1  6  0  0  0
 20 27  1  0  0  0  0
 22 23  1  6  0  0  0
 22 29  1  0  0  0  0
 24  2  1  1  0  0  0
 24 31  1  0  0  0  0
 25 26  1  0  0  0  0
 25 33  1  6  0  0  0
 27 28  1  6  0  0  0
 27 35  1  0  0  0  0
 29 30  1  0  0  0  0
 29 37  1  1  0  0  0
 31 32  1  6  0  0  0
 31 39  1  0  0  0  0
 33 34  1  0  0  0  0
 35 36  1  0  0  0  0
 35 41  1  6  0  0  0
 37 38  1  0  0  0  0
 39 40  1  1  0  0  0
 41 42  1  0  0  0  0
M  END
>  <CHROM.1>
-154.36658625,-88.74174944,-150.98568633,-161.08949887,169.22087867,-56.62366711
-179.16367667,148.58533403,179.26858618,-2.84820026,5.80329112,11.63184416
-2.31751620,0.96881577,-2.83529897

>  <Name>
2o3w_lig

>  <RI>
0

>  <Rbt.Current_Directory>
/home/itssahil/PROJECTS/Mol_Feturizer/New_Systems/rnas/2o3w

>  <Rbt.Executable>
rbdock ($Id: //depot/dev/client3/rdock/2013.1/src/exe/rbdock.cxx#4 $)

>  <Rbt.Library>
libRbt.so (2013.1, Build901 2013/11/27)

>  <Rbt.Parameter_File>
/export/apps/rDock/src/rDock_2013.1_src/data/scripts/dock_solv.prm

>  <Rbt.Receptor>
prm/blind_docking_60.prm

>  <SCORE>
7.62016

>  <SCORE.INTER>
-1.5489

>  <SCORE.INTER.CONST>
1

>  <SCORE.INTER.POLAR>
-0.0620566

>  <SCORE.INTER.ROT>
9

>  <SCORE.INTER.SOLV>
25.2566

>  <SCORE.INTER.VDW>
-18.8446

>  <SCORE.INTER.norm>
-0.0368785

>  <SCORE.INTRA>
-3.19625

>  <SCORE.INTRA.DIHEDRAL>
-12.1666

>  <SCORE.INTRA.DIHEDRAL.0>
27.8999

>  <SCORE.INTRA.POLAR>
0

>  <SCORE.INTRA.POLAR.0>
0

>  <SCORE.INTRA.REPUL>
0

>  <SCORE.INTRA.REPUL.0>
0

>  <SCORE.INTRA.SOLV>
-3.00749

>  <SCORE.INTRA.SOLV.lig_0>
-104.479

>  <SCORE.INTRA.VDW>
4.3908

>  <SCORE.INTRA.VDW.0>
-6.17816

>  <SCORE.INTRA.norm>
-0.0761012

>  <SCORE.RESTR>
12.3653

>  <SCORE.RESTR.CAVITY>
12.3653

>  <SCORE.RESTR.norm>
0.294412

>  <SCORE.SYSTEM>
0

>  <SCORE.SYSTEM.CONST>
0

>  <SCORE.SYSTEM.DIHEDRAL>
0

>  <SCORE.SYSTEM.SOLV>
0

>  <SCORE.SYSTEM.norm>
0

>  <SCORE.heavy>
42

>  <SCORE.norm>
0.181432

>  <RMSD>
16.574

$$$$
2o3w_lig
 OpenBabel11021811463D
libRbt.so/2013.1/901 2013/11/27
 42 45  0  0  0  0  0  0  0  0999 V2000
   -4.3705    9.0934    9.7403 C   0  0  2  0  0  0  0  0  0  0  0  0
   -3.6573    7.9113    9.3385 O   0  0  0  0  0  0  0  0  0  0  0  0
   -6.8223    5.0410   10.0733 C   0  0  2  0  0  0  0  0  0  0  0  0
   -7.5772    3.7667   10.2649 N   0  0  0  0  0  0  0  0  0  0  0  0
   -2.7868    5.1470   11.7826 C   0  0  1  0  0  0  0  0  0  0  0  0
    0.1045    2.0391   12.8567 C   0  0  1  0  0  0  0  0  0  0  0  0
   -3.4916   10.3148    9.3353 C   0  0  2  0  0  0  0  0  0  0  0  0
   -3.0372   10.2430    7.9357 N   0  0  0  0  0  0  0  0  0  0  0  0
   -6.2704    5.1647    8.5962 C   0  0  0  0  0  0  0  0  0  0  0  0
   -1.2533    5.4260   11.8187 C   0  0  2  0  0  0  0  0  0  0  0  0
   -0.6251    5.4353   10.5131 O   0  0  0  0  0  0  0  0  0  0  0  0
    0.4650    0.7385   12.0521 C   0  0  2  0  0  0  0  0  0  0  0  0
   -0.7135    0.2466   11.2774 N   0  0  0  0  0  0  0  0  0  0  0  0
   -2.2286   10.4405   10.2070 C   0  0  1  0  0  0  0  0  0  0  0  0
   -1.4751   11.5934    9.8277 O   0  0  0  0  0  0  0  0  0  0  0  0
   -5.5057    6.5346    8.4503 C   0  0  2  0  0  0  0  0  0  0  0  0
   -4.9842    6.6911    7.0657 N   0  0  0  0  0  0  0  0  0  0  0  0
   -0.7750    4.3333   12.7760 C   0  0  2  0  0  0  0  0  0  0  0  0
   -0.4233    3.1068   12.0599 O   0  0  0  0  0  0  0  0  0  0  0  0
    0.9944   -0.3819   13.0678 C   0  0  1  0  0  0  0  0  0  0  0  0
    2.3250   -0.0250   13.5048 O   0  0  0  0  0  0  0  0  0  0  0  0
   -2.6343   10.4967   11.6975 C   0  0  2  0  0  0  0  0  0  0  0  0
   -1.4899   10.6287   12.5083 O   0  0  0  0  0  0  0  0  0  0  0  0
   -4.3100    6.6173    9.4795 C   0  0  2  0  0  0  0  0  0  0  0  0
   -1.9338    4.0924   13.7581 C   0  0  2  0  0  0  0  0  0  0  0  0
   -3.0871    4.3789   12.9705 O   0  0  0  0  0  0  0  0  0  0  0  0
    0.0422   -0.5647   14.3435 C   0  0  2  0  0  0  0  0  0  0  0  0
   -1.1754   -1.1556   13.8912 O   0  0  0  0  0  0  0  0  0  0  0  0
   -3.4227    9.1946   12.0614 C   0  0  2  0  0  0  0  0  0  0  0  0
   -4.5995    9.0753   11.2007 O   0  0  0  0  0  0  0  0  0  0  0  0
   -4.7681    6.4474   10.9446 C   0  0  2  0  0  0  0  0  0  0  0  0
   -3.5414    6.3643   11.7212 O   0  0  0  0  0  0  0  0  0  0  0  0
   -1.8999    4.9739   15.0450 C   0  0  0  0  0  0  0  0  0  0  0  0
   -1.7923    6.3447   14.6735 O   0  0  0  0  0  0  0  0  0  0  0  0
   -0.2469    0.8259   15.0252 C   0  0  1  0  0  0  0  0  0  0  0  0
   -0.8429    1.6774   13.9812 O   0  0  0  0  0  0  0  0  0  0  0  0
   -3.8661    9.1678   13.5059 C   0  0  0  0  0  0  0  0  0  0  0  0
   -4.5331    7.9613   13.7861 O   0  0  0  0  0  0  0  0  0  0  0  0
   -5.6239    5.1213   11.1019 C   0  0  1  0  0  0  0  0  0  0  0  0
   -6.1737    5.0422   12.4199 O   0  0  0  0  0  0  0  0  0  0  0  0
   -1.2145    0.7413   16.2842 C   0  0  0  0  0  0  0  0  0  0  0  0
   -0.9047   -0.3389   17.2609 N   0  0  0  0  0  0  0  0  0  0  0  0
  1  2  1  1  0  0  0
  1  7  1  0  0  0  0
  1 30  1  0  0  0  0
  3  4  1  6  0  0  0
  3  9  1  0  0  0  0
  3 39  1  0  0  0  0
  5 10  1  0  0  0  0
  5 26  1  0  0  0  0
  5 32  1  1  0  0  0
  6 12  1  0  0  0  0
  6 36  1  0  0  0  0
  6 19  1  6  0  0  0
  7  8  1  6  0  0  0
  7 14  1  0  0  0  0
  9 16  1  0  0  0  0
 10 11  1  6  0  0  0
 10 18  1  0  0  0  0
 12 13  1  1  0  0  0
 12 20  1  0  0  0  0
 14 15  1  6  0  0  0
 14 22  1  0  0  0  0
 16 17  1  6  0  0  0
 16 24  1  0  0  0  0
 18 19  1  6  0  0  0
 18 25  1  0  0  0  0
 20 21  1  1  0  0  0
 20 27  1  0  0  0  0
 22 23  1  1  0  0  0
 22 29  1  0  0  0  0
 24  2  1  1  0  0  0
 24 31  1  0  0  0  0
 25 26  1  0  0  0  0
 25 33  1  1  0  0  0
 27 28  1  6  0  0  0
 27 35  1  0  0  0  0
 29 30  1  0  0  0  0
 29 37  1  1  0  0  0
 31 32  1  1  0  0  0
 31 39  1  0  0  0  0
 33 34  1  0  0  0  0
 35 36  1  0  0  0  0
 35 41  1  1  0  0  0
 37 38  1  0  0  0  0
 39 40  1  1  0  0  0
 41 42  1  0  0  0  0
M  END
>  <CHROM.1>
-174.11948025,143.73417629,179.80031515,176.86416612,68.38697499,53.12417113
-178.26812913,-79.02126645,46.19165949,-2.60547895,5.25127360,11.93815477
2.05737794,-0.65706562,-0.12700171

>  <Name>
2o3w_lig

>  <RI>
0

>  <Rbt.Current_Directory>
/home/itssahil/PROJECTS/Mol_Feturizer/New_Systems/rnas/2o3w

>  <Rbt.Executable>
rbdock ($Id: //depot/dev/client3/rdock/2013.1/src/exe/rbdock.cxx#4 $)

>  <Rbt.Library>
libRbt.so (2013.1, Build901 2013/11/27)

>  <Rbt.Parameter_File>
/export/apps/rDock/src/rDock_2013.1_src/data/scripts/dock_solv.prm

>  <Rbt.Receptor>
prm/blind_docking_60.prm

>  <SCORE>
8.7489

>  <SCORE.INTER>
5.43634

>  <SCORE.INTER.CONST>
1

>  <SCORE.INTER.POLAR>
-0.00757508

>  <SCORE.INTER.ROT>
9

>  <SCORE.INTER.SOLV>
30.9877

>  <SCORE.INTER.VDW>
-16.2798

>  <SCORE.INTER.norm>
0.129437

>  <SCORE.INTRA>
-8.71793

>  <SCORE.INTRA.DIHEDRAL>
-19.9518

>  <SCORE.INTRA.DIHEDRAL.0>
27.8999

>  <SCORE.INTRA.POLAR>
0

>  <SCORE.INTRA.POLAR.0>
0

>  <SCORE.INTRA.REPUL>
0

>  <SCORE.INTRA.REPUL.0>
0

>  <SCORE.INTRA.SOLV>
-2.90781

>  <SCORE.INTRA.SOLV.lig_0>
-104.479

>  <SCORE.INTRA.VDW>
2.7119

>  <SCORE.INTRA.VDW.0>
-6.17816

>  <SCORE.INTRA.norm>
-0.20757

>  <SCORE.RESTR>
12.0305

>  <SCORE.RESTR.CAVITY>
12.0305

>  <SCORE.RESTR.norm>
0.28644

>  <SCORE.SYSTEM>
0

>  <SCORE.SYSTEM.CONST>
0

>  <SCORE.SYSTEM.DIHEDRAL>
0

>  <SCORE.SYSTEM.SOLV>
0

>  <SCORE.SYSTEM.norm>
0

>  <SCORE.heavy>
42

>  <SCORE.norm>
0.208307

>  <RMSD>
16.581

$$$$
2o3w_lig
 OpenBabel11021811463D
libRbt.so/2013.1/901 2013/11/27
 42 45  0  0  0  0  0  0  0  0999 V2000
   -2.7148    8.4981   12.4684 C   0  0  2  0  0  0  0  0  0  0  0  0
   -2.5497    7.9128   11.1656 O   0  0  0  0  0  0  0  0  0  0  0  0
   -4.2635   11.0639    8.7306 C   0  0  2  0  0  0  0  0  0  0  0  0
   -4.6080   11.9503    7.5791 N   0  0  0  0  0  0  0  0  0  0  0  0
   -4.2846    6.0953   10.0488 C   0  0  1  0  0  0  0  0  0  0  0  0
   -3.2037    3.1936   12.6130 C   0  0  1  0  0  0  0  0  0  0  0  0
   -2.9000    7.3231   13.4750 C   0  0  2  0  0  0  0  0  0  0  0  0
   -1.8647    6.2854   13.3270 N   0  0  0  0  0  0  0  0  0  0  0  0
   -2.7290   11.1715    9.0987 C   0  0  0  0  0  0  0  0  0  0  0  0
   -3.9672    4.7516    9.3245 C   0  0  2  0  0  0  0  0  0  0  0  0
   -5.1422    3.9844    8.9644 O   0  0  0  0  0  0  0  0  0  0  0  0
   -1.6357    3.1044   12.6592 C   0  0  2  0  0  0  0  0  0  0  0  0
   -1.1427    1.9525   11.8461 N   0  0  0  0  0  0  0  0  0  0  0  0
   -4.2603    6.6208   13.3095 C   0  0  1  0  0  0  0  0  0  0  0  0
   -4.4030    5.5787   14.2762 O   0  0  0  0  0  0  0  0  0  0  0  0
   -2.4328   10.2343   10.3302 C   0  0  2  0  0  0  0  0  0  0  0  0
   -0.9979   10.3218   10.7137 N   0  0  0  0  0  0  0  0  0  0  0  0
   -3.0251    4.0876   10.3299 C   0  0  2  0  0  0  0  0  0  0  0  0
   -3.7588    3.2671   11.2939 O   0  0  0  0  0  0  0  0  0  0  0  0
   -1.1578    2.9794   14.1833 C   0  0  1  0  0  0  0  0  0  0  0  0
   -1.3182    4.2620   14.8299 O   0  0  0  0  0  0  0  0  0  0  0  0
   -5.3962    7.6621   13.4304 C   0  0  2  0  0  0  0  0  0  0  0  0
   -6.6493    7.0323   13.2978 O   0  0  0  0  0  0  0  0  0  0  0  0
   -2.8003    8.7357    9.9907 C   0  0  2  0  0  0  0  0  0  0  0  0
   -2.2754    5.2335   11.0300 C   0  0  2  0  0  0  0  0  0  0  0  0
   -3.2249    6.2967   11.0119 O   0  0  0  0  0  0  0  0  0  0  0  0
   -1.9672    1.8628   14.9993 C   0  0  2  0  0  0  0  0  0  0  0  0
   -1.5823    0.5889   14.4841 O   0  0  0  0  0  0  0  0  0  0  0  0
   -5.2068    8.7547   12.3259 C   0  0  2  0  0  0  0  0  0  0  0  0
   -3.8964    9.3866   12.4787 O   0  0  0  0  0  0  0  0  0  0  0  0
   -4.2751    8.5622    9.5663 C   0  0  2  0  0  0  0  0  0  0  0  0
   -4.3842    7.1826    9.1199 O   0  0  0  0  0  0  0  0  0  0  0  0
   -0.9403    5.6615   10.3453 C   0  0  0  0  0  0  0  0  0  0  0  0
    0.0686    5.8180   11.3385 O   0  0  0  0  0  0  0  0  0  0  0  0
   -3.5202    2.0708   14.8349 C   0  0  1  0  0  0  0  0  0  0  0  0
   -3.7875    2.0302   13.3868 O   0  0  0  0  0  0  0  0  0  0  0  0
   -6.2754    9.8222   12.3747 C   0  0  0  0  0  0  0  0  0  0  0  0
   -5.9291   10.8939   11.5316 O   0  0  0  0  0  0  0  0  0  0  0  0
   -4.6288    9.5639    8.3885 C   0  0  1  0  0  0  0  0  0  0  0  0
   -6.0285    9.5105    8.0990 O   0  0  0  0  0  0  0  0  0  0  0  0
   -4.4026    0.9827   15.5874 C   0  0  0  0  0  0  0  0  0  0  0  0
   -4.1322   -0.4330   15.2143 N   0  0  0  0  0  0  0  0  0  0  0  0
  1  2  1  6  0  0  0
  1  7  1  0  0  0  0
  1 30  1  0  0  0  0
  3  4  1  6  0  0  0
  3  9  1  0  0  0  0
  3 39  1  0  0  0  0
  5 10  1  0  0  0  0
  5 26  1  0  0  0  0
  5 32  1  6  0  0  0
  6 12  1  0  0  0  0
  6 36  1  0  0  0  0
  6 19  1  6  0  0  0
  7  8  1  6  0  0  0
  7 14  1  0  0  0  0
  9 16  1  0  0  0  0
 10 11  1  1  0  0  0
 10 18  1  0  0  0  0
 12 13  1  6  0  0  0
 12 20  1  0  0  0  0
 14 15  1  1  0  0  0
 14 22  1  0  0  0  0
 16 17  1  6  0  0  0
 16 24  1  0  0  0  0
 18 19  1  1  0  0  0
 18 25  1  0  0  0  0
 20 21  1  1  0  0  0
 20 27  1  0  0  0  0
 22 23  1  6  0  0  0
 22 29  1  0  0  0  0
 24  2  1  1  0  0  0
 24 31  1  0  0  0  0
 25 26  1  0  0  0  0
 25 33  1  6  0  0  0
 27 28  1  6  0  0  0
 27 35  1  0  0  0  0
 29 30  1  0  0  0  0
 29 37  1  1  0  0  0
 31 32  1  6  0  0  0
 31 39  1  0  0  0  0
 33 34  1  0  0  0  0
 35 36  1  0  0  0  0
 35 41  1  1  0  0  0
 37 38  1  0  0  0  0
 39 40  1  1  0  0  0
 41 42  1  0  0  0  0
M  END
>  <CHROM.1>
159.71061987,-161.48168564,-39.12845948,-147.48519823,31.23920580,-135.01046000
169.47081006,69.12550234,-56.55881502,-3.43640538,6.21976836,11.75234109
1.81098399,0.79742899,-0.65404551

>  <Name>
2o3w_lig

>  <RI>
0

>  <Rbt.Current_Directory>
/home/itssahil/PROJECTS/Mol_Feturizer/New_Systems/rnas/2o3w

>  <Rbt.Executable>
rbdock ($Id: //depot/dev/client3/rdock/2013.1/src/exe/rbdock.cxx#4 $)

>  <Rbt.Library>
libRbt.so (2013.1, Build901 2013/11/27)

>  <Rbt.Parameter_File>
/export/apps/rDock/src/rDock_2013.1_src/data/scripts/dock_solv.prm

>  <Rbt.Receptor>
prm/blind_docking_60.prm

>  <SCORE>
59.9465

>  <SCORE.INTER>
16.8321

>  <SCORE.INTER.CONST>
1

>  <SCORE.INTER.POLAR>
-0.802203

>  <SCORE.INTER.ROT>
9

>  <SCORE.INTER.SOLV>
25.983

>  <SCORE.INTER.VDW>
-4.36562

>  <SCORE.INTER.norm>
0.400764

>  <SCORE.INTRA>
26.9127

>  <SCORE.INTRA.DIHEDRAL>
-9.7652

>  <SCORE.INTRA.DIHEDRAL.0>
27.8999

>  <SCORE.INTRA.POLAR>
0

>  <SCORE.INTRA.POLAR.0>
0

>  <SCORE.INTRA.REPUL>
0.570818

>  <SCORE.INTRA.REPUL.0>
0

>  <SCORE.INTRA.SOLV>
9.12106

>  <SCORE.INTRA.SOLV.lig_0>
-104.479

>  <SCORE.INTRA.VDW>
24.3807

>  <SCORE.INTRA.VDW.0>
-6.17816

>  <SCORE.INTRA.norm>
0.640778

>  <SCORE.RESTR>
16.2018

>  <SCORE.RESTR.CAVITY>
16.2018

>  <SCORE.RESTR.norm>
0.385757

>  <SCORE.SYSTEM>
0

>  <SCORE.SYSTEM.CONST>
0

>  <SCORE.SYSTEM.DIHEDRAL>
0

>  <SCORE.SYSTEM.SOLV>
0

>  <SCORE.SYSTEM.norm>
0

>  <SCORE.heavy>
42

>  <SCORE.norm>
1.4273

>  <RMSD>
16.602

$$$$
2o3w_lig
 OpenBabel11021811463D
libRbt.so/2013.1/901 2013/11/27
 42 45  0  0  0  0  0  0  0  0999 V2000
   -3.4473    8.1704   12.1309 C   0  0  2  0  0  0  0  0  0  0  0  0
   -4.5819    7.9213   11.2836 O   0  0  0  0  0  0  0  0  0  0  0  0
   -4.9883    5.0957    8.0206 C   0  0  2  0  0  0  0  0  0  0  0  0
   -4.8149    4.3836    6.7193 N   0  0  0  0  0  0  0  0  0  0  0  0
   -1.7859    5.2976   11.6596 C   0  0  1  0  0  0  0  0  0  0  0  0
   -0.9169    2.2606   14.4509 C   0  0  1  0  0  0  0  0  0  0  0  0
   -4.0007    8.6939   13.4902 C   0  0  2  0  0  0  0  0  0  0  0  0
   -5.0718    7.8383   14.0299 N   0  0  0  0  0  0  0  0  0  0  0  0
   -5.5590    6.5550    7.8049 C   0  0  0  0  0  0  0  0  0  0  0  0
   -2.4070    5.4501   13.0814 C   0  0  2  0  0  0  0  0  0  0  0  0
   -1.7061    6.3896   13.9330 O   0  0  0  0  0  0  0  0  0  0  0  0
    0.3127    1.9403   15.3752 C   0  0  2  0  0  0  0  0  0  0  0  0
    1.5491    2.6074   14.8683 N   0  0  0  0  0  0  0  0  0  0  0  0
   -4.5818   10.1152   13.3761 C   0  0  1  0  0  0  0  0  0  0  0  0
   -5.0401   10.5690   14.6508 O   0  0  0  0  0  0  0  0  0  0  0  0
   -5.7405    7.2448    9.2098 C   0  0  2  0  0  0  0  0  0  0  0  0
   -6.2907    8.6173    9.0450 N   0  0  0  0  0  0  0  0  0  0  0  0
   -2.4116    3.9977   13.5608 C   0  0  2  0  0  0  0  0  0  0  0  0
   -1.1717    3.6578   14.2593 O   0  0  0  0  0  0  0  0  0  0  0  0
    0.5096    0.3526   15.4618 C   0  0  1  0  0  0  0  0  0  0  0  0
   -0.5337   -0.2028   16.2936 O   0  0  0  0  0  0  0  0  0  0  0  0
   -3.5116   11.0643   12.7905 C   0  0  2  0  0  0  0  0  0  0  0  0
   -4.0226   12.3736   12.6952 O   0  0  0  0  0  0  0  0  0  0  0  0
   -4.3619    7.3150    9.9781 C   0  0  2  0  0  0  0  0  0  0  0  0
   -2.5958    3.1354   12.3008 C   0  0  2  0  0  0  0  0  0  0  0  0
   -1.9661    3.9126   11.2849 O   0  0  0  0  0  0  0  0  0  0  0  0
    0.4842   -0.3566   14.0251 C   0  0  2  0  0  0  0  0  0  0  0  0
    1.6700    0.0310   13.3323 O   0  0  0  0  0  0  0  0  0  0  0  0
   -3.0766   10.5366   11.3827 C   0  0  2  0  0  0  0  0  0  0  0  0
   -2.5592    9.1740   11.5065 O   0  0  0  0  0  0  0  0  0  0  0  0
   -3.7153    5.9265   10.1761 C   0  0  2  0  0  0  0  0  0  0  0  0
   -2.3941    6.1947   10.7212 O   0  0  0  0  0  0  0  0  0  0  0  0
   -4.0782    2.8212   11.9292 C   0  0  0  0  0  0  0  0  0  0  0  0
   -4.9432    3.4696   12.8566 O   0  0  0  0  0  0  0  0  0  0  0  0
   -0.7912    0.0824   13.2110 C   0  0  1  0  0  0  0  0  0  0  0  0
   -0.7359    1.5521   13.1249 O   0  0  0  0  0  0  0  0  0  0  0  0
   -2.0224   11.4054   10.7363 C   0  0  0  0  0  0  0  0  0  0  0  0
   -1.8131   11.0038    9.4043 O   0  0  0  0  0  0  0  0  0  0  0  0
   -3.6071    5.1682    8.7873 C   0  0  1  0  0  0  0  0  0  0  0  0
   -3.1500    3.8283    8.9910 O   0  0  0  0  0  0  0  0  0  0  0  0
   -0.8795   -0.5504   11.7549 C   0  0  0  0  0  0  0  0  0  0  0  0
    0.4088   -0.6388   11.0138 N   0  0  0  0  0  0  0  0  0  0  0  0
  1  2  1  6  0  0  0
  1  7  1  0  0  0  0
  1 30  1  0  0  0  0
  3  4  1  6  0  0  0
  3  9  1  0  0  0  0
  3 39  1  0  0  0  0
  5 10  1  0  0  0  0
  5 26  1  0  0  0  0
  5 32  1  6  0  0  0
  6 12  1  0  0  0  0
  6 36  1  0  0  0  0
  6 19  1  6  0  0  0
  7  8  1  6  0  0  0
  7 14  1  0  0  0  0
  9 16  1  0  0  0  0
 10 11  1  1  0  0  0
 10 18  1  0  0  0  0
 12 13  1  6  0  0  0
 12 20  1  0  0  0  0
 14 15  1  1  0  0  0
 14 22  1  0  0  0  0
 16 17  1  6  0  0  0
 16 24  1  0  0  0  0
 18 19  1  6  0  0  0
 18 25  1  0  0  0  0
 20 21  1  1  0  0  0
 20 27  1  0  0  0  0
 22 23  1  6  0  0  0
 22 29  1  0  0  0  0
 24  2  1  1  0  0  0
 24 31  1  0  0  0  0
 25 26  1  0  0  0  0
 25 33  1  6  0  0  0
 27 28  1  6  0  0  0
 27 35  1  0  0  0  0
 29 30  1  0  0  0  0
 29 37  1  1  0  0  0
 31 32  1  6  0  0  0
 31 39  1  0  0  0  0
 33 34  1  0  0  0  0
 35 36  1  0  0  0  0
 35 41  1  6  0  0  0
 37 38  1  0  0  0  0
 39 40  1  1  0  0  0
 41 42  1  0  0  0  0
M  END
>  <CHROM.1>
-174.94825118,-76.13057549,-171.82516639,-164.69334480,-175.95189928,1.96394659
-171.34421853,146.40596511,-39.53511622,-2.61322852,5.35988098,12.03014477
-2.46759365,1.04687235,-2.59886643

>  <Name>
2o3w_lig

>  <RI>
0

>  <Rbt.Current_Directory>
/home/itssahil/PROJECTS/Mol_Feturizer/New_Systems/rnas/2o3w

>  <Rbt.Executable>
rbdock ($Id: //depot/dev/client3/rdock/2013.1/src/exe/rbdock.cxx#4 $)

>  <Rbt.Library>
libRbt.so (2013.1, Build901 2013/11/27)

>  <Rbt.Parameter_File>
/export/apps/rDock/src/rDock_2013.1_src/data/scripts/dock_solv.prm

>  <Rbt.Receptor>
prm/blind_docking_60.prm

>  <SCORE>
9.36665

>  <SCORE.INTER>
2.92144

>  <SCORE.INTER.CONST>
1

>  <SCORE.INTER.POLAR>
-0.15203

>  <SCORE.INTER.ROT>
9

>  <SCORE.INTER.SOLV>
29.9908

>  <SCORE.INTER.VDW>
-17.1425

>  <SCORE.INTER.norm>
0.0695581

>  <SCORE.INTRA>
-4.12625

>  <SCORE.INTRA.DIHEDRAL>
-13.7962

>  <SCORE.INTRA.DIHEDRAL.0>
27.8999

>  <SCORE.INTRA.POLAR>
0

>  <SCORE.INTRA.POLAR.0>
0

>  <SCORE.INTRA.REPUL>
0

>  <SCORE.INTRA.REPUL.0>
0

>  <SCORE.INTRA.SOLV>
-2.04812

>  <SCORE.INTRA.SOLV.lig_0>
-104.479

>  <SCORE.INTRA.VDW>
3.79592

>  <SCORE.INTRA.VDW.0>
-6.17816

>  <SCORE.INTRA.norm>
-0.0982441

>  <SCORE.RESTR>
10.5715

>  <SCORE.RESTR.CAVITY>
10.5715

>  <SCORE.RESTR.norm>
0.251701

>  <SCORE.SYSTEM>
0

>  <SCORE.SYSTEM.CONST>
0

>  <SCORE.SYSTEM.DIHEDRAL>
0

>  <SCORE.SYSTEM.SOLV>
0

>  <SCORE.SYSTEM.norm>
0

>  <SCORE.heavy>
42

>  <SCORE.norm>
0.223015

>  <RMSD>
16.625

$$$$
2o3w_lig
 OpenBabel11021811463D
libRbt.so/2013.1/901 2013/11/27
 42 45  0  0  0  0  0  0  0  0999 V2000
   -4.3650    9.4420    9.8047 C   0  0  2  0  0  0  0  0  0  0  0  0
   -3.4379    8.4229    9.3935 O   0  0  0  0  0  0  0  0  0  0  0  0
   -6.0725    5.0995    8.4939 C   0  0  2  0  0  0  0  0  0  0  0  0
   -6.6672    3.8759    7.8778 N   0  0  0  0  0  0  0  0  0  0  0  0
   -2.0614    5.2562   11.1823 C   0  0  1  0  0  0  0  0  0  0  0  0
   -1.5054    3.5772   14.6155 C   0  0  1  0  0  0  0  0  0  0  0  0
   -3.5406   10.5320   10.5533 C   0  0  2  0  0  0  0  0  0  0  0  0
   -2.3554   10.9643    9.7922 N   0  0  0  0  0  0  0  0  0  0  0  0
   -6.0155    6.2937    7.4582 C   0  0  0  0  0  0  0  0  0  0  0  0
   -2.0575    6.3448   12.2984 C   0  0  2  0  0  0  0  0  0  0  0  0
   -0.7918    7.0345   12.4445 O   0  0  0  0  0  0  0  0  0  0  0  0
   -0.2339    2.9694   15.3102 C   0  0  2  0  0  0  0  0  0  0  0  0
    0.9735    3.1276   14.4453 N   0  0  0  0  0  0  0  0  0  0  0  0
   -3.0355   10.0442   11.9237 C   0  0  1  0  0  0  0  0  0  0  0  0
   -2.3206   11.0862   12.5900 O   0  0  0  0  0  0  0  0  0  0  0  0
   -5.4019    7.5580    8.1706 C   0  0  2  0  0  0  0  0  0  0  0  0
   -5.3466    8.7074    7.2275 N   0  0  0  0  0  0  0  0  0  0  0  0
   -2.5111    5.5293   13.5103 C   0  0  2  0  0  0  0  0  0  0  0  0
   -1.3735    4.9497   14.2250 O   0  0  0  0  0  0  0  0  0  0  0  0
   -0.5023    1.4262   15.6471 C   0  0  1  0  0  0  0  0  0  0  0  0
   -1.4160    1.3439   16.7638 O   0  0  0  0  0  0  0  0  0  0  0  0
   -4.2322    9.5512   12.7686 C   0  0  2  0  0  0  0  0  0  0  0  0
   -3.7885    9.1166   14.0330 O   0  0  0  0  0  0  0  0  0  0  0  0
   -3.9503    7.2441    8.7094 C   0  0  2  0  0  0  0  0  0  0  0  0
   -3.4408    4.4342   12.9611 C   0  0  2  0  0  0  0  0  0  0  0  0
   -2.9158    4.1910   11.6581 O   0  0  0  0  0  0  0  0  0  0  0  0
   -1.1015    0.6131   14.4032 C   0  0  2  0  0  0  0  0  0  0  0  0
   -0.0711    0.5060   13.4217 O   0  0  0  0  0  0  0  0  0  0  0  0
   -4.9517    8.3894   12.0056 C   0  0  2  0  0  0  0  0  0  0  0  0
   -5.3940    8.8621   10.6938 O   0  0  0  0  0  0  0  0  0  0  0  0
   -3.9198    6.0484    9.6865 C   0  0  2  0  0  0  0  0  0  0  0  0
   -2.5097    5.7895    9.9294 O   0  0  0  0  0  0  0  0  0  0  0  0
   -4.9499    4.8246   12.8942 C   0  0  0  0  0  0  0  0  0  0  0  0
   -5.7232    3.6650   12.6004 O   0  0  0  0  0  0  0  0  0  0  0  0
   -2.3519    1.3594   13.8018 C   0  0  1  0  0  0  0  0  0  0  0  0
   -1.8863    2.7082   13.4354 O   0  0  0  0  0  0  0  0  0  0  0  0
   -6.1440    7.8487   12.7604 C   0  0  0  0  0  0  0  0  0  0  0  0
   -5.7431    7.3682   14.0204 O   0  0  0  0  0  0  0  0  0  0  0  0
   -4.6185    4.7849    9.0299 C   0  0  1  0  0  0  0  0  0  0  0  0
   -4.7253    3.7273    9.9868 O   0  0  0  0  0  0  0  0  0  0  0  0
   -2.9914    0.6366   12.5379 C   0  0  0  0  0  0  0  0  0  0  0  0
   -4.3713    1.0675   12.1816 N   0  0  0  0  0  0  0  0  0  0  0  0
  1  2  1  1  0  0  0
  1  7  1  0  0  0  0
  1 30  1  0  0  0  0
  3  4  1  6  0  0  0
  3  9  1  0  0  0  0
  3 39  1  0  0  0  0
  5 10  1  0  0  0  0
  5 26  1  0  0  0  0
  5 32  1  6  0  0  0
  6 12  1  0  0  0  0
  6 36  1  0  0  0  0
  6 19  1  6  0  0  0
  7  8  1  6  0  0  0
  7 14  1  0  0  0  0
  9 16  1  0  0  0  0
 10 11  1  1  0  0  0
 10 18  1  0  0  0  0
 12 13  1  6  0  0  0
 12 20  1  0  0  0  0
 14 15  1  1  0  0  0
 14 22  1  0  0  0  0
 16 17  1  6  0  0  0
 16 24  1  0  0  0  0
 18 19  1  6  0  0  0
 18 25  1  0  0  0  0
 20 21  1  1  0  0  0
 20 27  1  0  0  0  0
 22 23  1  1  0  0  0
 22 29  1  0  0  0  0
 24  2  1  1  0  0  0
 24 31  1  0  0  0  0
 25 26  1  0  0  0  0
 25 33  1  6  0  0  0
 27 28  1  6  0  0  0
 27 35  1  0  0  0  0
 29 30  1  0  0  0  0
 29 37  1  1  0  0  0
 31 32  1  6  0  0  0
 31 39  1  0  0  0  0
 33 34  1  0  0  0  0
 35 36  1  0  0  0  0
 35 41  1  6  0  0  0
 37 38  1  0  0  0  0
 39 40  1  1  0  0  0
 41 42  1  0  0  0  0
M  END
>  <CHROM.1>
177.63164355,-76.10972258,176.82051290,-135.14988252,17.54442984,-169.77611615
-58.96398688,149.39968455,163.09352223,-3.31981904,5.62113506,11.87077891
-2.22315929,0.94893099,3.12982781

>  <Name>
2o3w_lig

>  <RI>
0

>  <Rbt.Current_Directory>
/home/itssahil/PROJECTS/Mol_Feturizer/New_Systems/rnas/2o3w

>  <Rbt.Executable>
rbdock ($Id: //depot/dev/client3/rdock/2013.1/src/exe/rbdock.cxx#4 $)

>  <Rbt.Library>
libRbt.so (2013.1, Build901 2013/11/27)

>  <Rbt.Parameter_File>
/export/apps/rDock/src/rDock_2013.1_src/data/scripts/dock_solv.prm

>  <Rbt.Receptor>
prm/blind_docking_60.prm

>  <SCORE>
15.2315

>  <SCORE.INTER>
0.0380199

>  <SCORE.INTER.CONST>
1

>  <SCORE.INTER.POLAR>
-0.593603

>  <SCORE.INTER.ROT>
9

>  <SCORE.INTER.SOLV>
23.7401

>  <SCORE.INTER.VDW>
-15.5093

>  <SCORE.INTER.norm>
0.000905236

>  <SCORE.INTRA>
3.89079

>  <SCORE.INTRA.DIHEDRAL>
-9.5996

>  <SCORE.INTRA.DIHEDRAL.0>
27.8999

>  <SCORE.INTRA.POLAR>
0

>  <SCORE.INTRA.POLAR.0>
0

>  <SCORE.INTRA.REPUL>
0

>  <SCORE.INTRA.REPUL.0>
0

>  <SCORE.INTRA.SOLV>
1.72072

>  <SCORE.INTRA.SOLV.lig_0>
-104.479

>  <SCORE.INTRA.VDW>
7.83023

>  <SCORE.INTRA.VDW.0>
-6.17816

>  <SCORE.INTRA.norm>
0.0926379

>  <SCORE.RESTR>
11.3027

>  <SCORE.RESTR.CAVITY>
11.3027

>  <SCORE.RESTR.norm>
0.269111

>  <SCORE.SYSTEM>
0

>  <SCORE.SYSTEM.CONST>
0

>  <SCORE.SYSTEM.DIHEDRAL>
0

>  <SCORE.SYSTEM.SOLV>
0

>  <SCORE.SYSTEM.norm>
0

>  <SCORE.heavy>
42

>  <SCORE.norm>
0.362655

>  <RMSD>
16.669

$$$$
2o3w_lig
 OpenBabel11021811463D
libRbt.so/2013.1/901 2013/11/27
 42 45  0  0  0  0  0  0  0  0999 V2000
   -3.1350    8.1580   12.3433 C   0  0  2  0  0  0  0  0  0  0  0  0
   -4.2135    7.6201   11.5592 O   0  0  0  0  0  0  0  0  0  0  0  0
   -4.6283    4.8030    8.2899 C   0  0  2  0  0  0  0  0  0  0  0  0
   -4.3824    4.0139    7.0461 N   0  0  0  0  0  0  0  0  0  0  0  0
   -2.1501    4.4674   12.4368 C   0  0  1  0  0  0  0  0  0  0  0  0
   -1.1546    2.2889   14.3651 C   0  0  1  0  0  0  0  0  0  0  0  0
   -3.7791    8.9886   13.4937 C   0  0  2  0  0  0  0  0  0  0  0  0
   -4.8276    8.2414   14.2098 N   0  0  0  0  0  0  0  0  0  0  0  0
   -4.8230    6.3390    7.9661 C   0  0  0  0  0  0  0  0  0  0  0  0
   -2.5413    5.0043   13.8473 C   0  0  2  0  0  0  0  0  0  0  0  0
   -1.4466    5.6238   14.5665 O   0  0  0  0  0  0  0  0  0  0  0  0
   -1.7578    1.1260   13.4975 C   0  0  2  0  0  0  0  0  0  0  0  0
   -2.4740    0.1360   14.3565 N   0  0  0  0  0  0  0  0  0  0  0  0
   -4.4287   10.2880   12.9834 C   0  0  1  0  0  0  0  0  0  0  0  0
   -4.9701   11.0351   14.0740 O   0  0  0  0  0  0  0  0  0  0  0  0
   -5.1002    7.1127    9.3104 C   0  0  2  0  0  0  0  0  0  0  0  0
   -5.3031    8.5618    9.0409 N   0  0  0  0  0  0  0  0  0  0  0  0
   -3.1294    3.7476   14.4909 C   0  0  2  0  0  0  0  0  0  0  0  0
   -2.1053    2.9722   15.1914 O   0  0  0  0  0  0  0  0  0  0  0  0
   -0.5830    0.4227   12.6658 C   0  0  1  0  0  0  0  0  0  0  0  0
   -0.1789    1.3025   11.5927 O   0  0  0  0  0  0  0  0  0  0  0  0
   -3.3838   11.1128   12.1978 C   0  0  2  0  0  0  0  0  0  0  0  0
   -3.9585   12.3139   11.7379 O   0  0  0  0  0  0  0  0  0  0  0  0
   -3.8992    6.9242   10.3193 C   0  0  2  0  0  0  0  0  0  0  0  0
   -3.7551    2.9364   13.3438 C   0  0  2  0  0  0  0  0  0  0  0  0
   -2.9303    3.2677   12.2291 O   0  0  0  0  0  0  0  0  0  0  0  0
    0.6893    0.0612   13.5703 C   0  0  2  0  0  0  0  0  0  0  0  0
    0.3057   -0.9936   14.4516 O   0  0  0  0  0  0  0  0  0  0  0  0
   -2.8554   10.2577   10.9982 C   0  0  2  0  0  0  0  0  0  0  0  0
   -2.2729    9.0132   11.5001 O   0  0  0  0  0  0  0  0  0  0  0  0
   -3.6132    5.4406   10.6394 C   0  0  2  0  0  0  0  0  0  0  0  0
   -2.3848    5.4477   11.4175 O   0  0  0  0  0  0  0  0  0  0  0  0
   -5.2528    3.2598   13.0496 C   0  0  0  0  0  0  0  0  0  0  0  0
   -5.4011    4.6627   12.8521 O   0  0  0  0  0  0  0  0  0  0  0  0
    1.1593    1.3179   14.3961 C   0  0  1  0  0  0  0  0  0  0  0  0
   -0.0062    1.7456   15.1892 O   0  0  0  0  0  0  0  0  0  0  0  0
   -1.8194   10.9880   10.1753 C   0  0  0  0  0  0  0  0  0  0  0  0
   -0.8416   11.5511   11.0156 O   0  0  0  0  0  0  0  0  0  0  0  0
   -3.4242    4.6161    9.2977 C   0  0  1  0  0  0  0  0  0  0  0  0
   -3.3106    3.2203    9.5882 O   0  0  0  0  0  0  0  0  0  0  0  0
    2.4006    1.0387   15.3500 C   0  0  0  0  0  0  0  0  0  0  0  0
    2.2875   -0.1679   16.2147 N   0  0  0  0  0  0  0  0  0  0  0  0
  1  2  1  6  0  0  0
  1  7  1  0  0  0  0
  1 30  1  0  0  0  0
  3  4  1  6  0  0  0
  3  9  1  0  0  0  0
  3 39  1  0  0  0  0
  5 10  1  0  0  0  0
  5 26  1  0  0  0  0
  5 32  1  6  0  0  0
  6 12  1  0  0  0  0
  6 36  1  0  0  0  0
  6 19  1  1  0  0  0
  7  8  1  6  0  0  0
  7 14  1  0  0  0  0
  9 16  1  0  0  0  0
 10 11  1  1  0  0  0
 10 18  1  0  0  0  0
 12 13  1  1  0  0  0
 12 20  1  0  0  0  0
 14 15  1  1  0  0  0
 14 22  1  0  0  0  0
 16 17  1  6  0  0  0
 16 24  1  0  0  0  0
 18 19  1  6  0  0  0
 18 25  1  0  0  0  0
 20 21  1  6  0  0  0
 20 27  1  0  0  0  0
 22 23  1  6  0  0  0
 22 29  1  0  0  0  0
 24  2  1  1  0  0  0
 24 31  1  0  0  0  0
 25 26  1  0  0  0  0
 25 33  1  6  0  0  0
 27 28  1  1  0  0  0
 27 35  1  0  0  0  0
 29 30  1  0  0  0  0
 29 37  1  1  0  0  0
 31 32  1  1  0  0  0
 31 39  1  0  0  0  0
 33 34  1  0  0  0  0
 35 36  1  0  0  0  0
 35 41  1  1  0  0  0
 37 38  1  0  0  0  0
 39 40  1  1  0  0  0
 41 42  1  0  0  0  0
M  END
>  <CHROM.1>
172.95360507,-96.10343643,-66.55981484,-71.26213904,-150.00608013,53.16588880
48.46893070,147.73364237,-49.01669226,-2.59178359,5.26330121,12.32392704
-2.28435554,0.99542609,-2.84020797

>  <Name>
2o3w_lig

>  <RI>
0

>  <Rbt.Current_Directory>
/home/itssahil/PROJECTS/Mol_Feturizer/New_Systems/rnas/2o3w

>  <Rbt.Executable>
rbdock ($Id: //depot/dev/client3/rdock/2013.1/src/exe/rbdock.cxx#4 $)

>  <Rbt.Library>
libRbt.so (2013.1, Build901 2013/11/27)

>  <Rbt.Parameter_File>
/export/apps/rDock/src/rDock_2013.1_src/data/scripts/dock_solv.prm

>  <Rbt.Receptor>
prm/blind_docking_60.prm

>  <SCORE>
1.34768

>  <SCORE.INTER>
-5.82634

>  <SCORE.INTER.CONST>
1

>  <SCORE.INTER.POLAR>
-0.771892

>  <SCORE.INTER.ROT>
9

>  <SCORE.INTER.SOLV>
26.5668

>  <SCORE.INTER.VDW>
-19.7669

>  <SCORE.INTER.norm>
-0.138722

>  <SCORE.INTRA>
-2.79457

>  <SCORE.INTRA.DIHEDRAL>
-13.3218

>  <SCORE.INTRA.DIHEDRAL.0>
27.8999

>  <SCORE.INTRA.POLAR>
0

>  <SCORE.INTRA.POLAR.0>
0

>  <SCORE.INTRA.REPUL>
0

>  <SCORE.INTRA.REPUL.0>
0

>  <SCORE.INTRA.SOLV>
1.39078

>  <SCORE.INTRA.SOLV.lig_0>
-104.479

>  <SCORE.INTRA.VDW>
3.17096

>  <SCORE.INTRA.VDW.0>
-6.17816

>  <SCORE.INTRA.norm>
-0.0665373

>  <SCORE.RESTR>
9.96858

>  <SCORE.RESTR.CAVITY>
9.96858

>  <SCORE.RESTR.norm>
0.237347

>  <SCORE.SYSTEM>
0

>  <SCORE.SYSTEM.CONST>
0

>  <SCORE.SYSTEM.DIHEDRAL>
0

>  <SCORE.SYSTEM.SOLV>
0

>  <SCORE.SYSTEM.norm>
0

>  <SCORE.heavy>
42

>  <SCORE.norm>
0.0320876

>  <RMSD>
16.746

$$$$
2o3w_lig
 OpenBabel11021811463D
libRbt.so/2013.1/901 2013/11/27
 42 45  0  0  0  0  0  0  0  0999 V2000
   -4.0202    8.0890   11.8274 C   0  0  2  0  0  0  0  0  0  0  0  0
   -5.1691    8.2342   10.9753 O   0  0  0  0  0  0  0  0  0  0  0  0
   -6.0155    5.9027    7.4195 C   0  0  2  0  0  0  0  0  0  0  0  0
   -5.9802    5.3532    6.0312 N   0  0  0  0  0  0  0  0  0  0  0  0
   -2.5273    5.2563   10.5964 C   0  0  1  0  0  0  0  0  0  0  0  0
   -0.7126    2.3189   13.1689 C   0  0  1  0  0  0  0  0  0  0  0  0
   -4.4505    8.5466   13.2534 C   0  0  2  0  0  0  0  0  0  0  0  0
   -5.7039    7.9108   13.6953 N   0  0  0  0  0  0  0  0  0  0  0  0
   -6.4555    7.4219    7.4244 C   0  0  0  0  0  0  0  0  0  0  0  0
   -1.2919    5.6542   11.4603 C   0  0  2  0  0  0  0  0  0  0  0  0
   -0.0455    5.6949   10.7228 O   0  0  0  0  0  0  0  0  0  0  0  0
   -0.5994    2.7279   14.6818 C   0  0  2  0  0  0  0  0  0  0  0  0
    0.6680    3.4752   14.9389 N   0  0  0  0  0  0  0  0  0  0  0  0
   -4.6702   10.0683   13.3373 C   0  0  1  0  0  0  0  0  0  0  0  0
   -5.0238   10.4472   14.6686 O   0  0  0  0  0  0  0  0  0  0  0  0
   -6.4956    7.9367    8.9130 C   0  0  2  0  0  0  0  0  0  0  0  0
   -6.9208    9.3618    8.9564 N   0  0  0  0  0  0  0  0  0  0  0  0
   -1.3652    4.6147   12.5799 C   0  0  2  0  0  0  0  0  0  0  0  0
   -0.6052    3.4099   12.2460 O   0  0  0  0  0  0  0  0  0  0  0  0
   -0.6871    1.4129   15.5929 C   0  0  1  0  0  0  0  0  0  0  0  0
   -2.0529    0.9403   15.6008 O   0  0  0  0  0  0  0  0  0  0  0  0
   -3.3944   10.8004   12.8622 C   0  0  2  0  0  0  0  0  0  0  0  0
   -3.5734   12.1950   12.9487 O   0  0  0  0  0  0  0  0  0  0  0  0
   -5.0776    7.7857    9.5930 C   0  0  2  0  0  0  0  0  0  0  0  0
   -2.8584    4.2975   12.7675 C   0  0  2  0  0  0  0  0  0  0  0  0
   -3.3929    4.4831   11.4589 O   0  0  0  0  0  0  0  0  0  0  0  0
    0.2827    0.2411   15.0890 C   0  0  2  0  0  0  0  0  0  0  0  0
    1.6254    0.6576   15.3343 O   0  0  0  0  0  0  0  0  0  0  0  0
   -3.0793   10.3736   11.3897 C   0  0  2  0  0  0  0  0  0  0  0  0
   -2.9075    8.9224   11.3243 O   0  0  0  0  0  0  0  0  0  0  0  0
   -4.5563    6.3320    9.5744 C   0  0  2  0  0  0  0  0  0  0  0  0
   -3.1885    6.4104   10.0616 O   0  0  0  0  0  0  0  0  0  0  0  0
   -3.5964    5.1959   13.8079 C   0  0  0  0  0  0  0  0  0  0  0  0
   -3.0198    4.9961   15.0949 O   0  0  0  0  0  0  0  0  0  0  0  0
    0.0694   -0.0346   13.5526 C   0  0  1  0  0  0  0  0  0  0  0  0
    0.3142    1.2471   12.8689 O   0  0  0  0  0  0  0  0  0  0  0  0
   -1.8377   11.0402   10.8441 C   0  0  0  0  0  0  0  0  0  0  0  0
   -1.7973   10.9176    9.4432 O   0  0  0  0  0  0  0  0  0  0  0  0
   -4.5949    5.7538    8.0979 C   0  0  1  0  0  0  0  0  0  0  0  0
   -4.2570    4.3641    8.1032 O   0  0  0  0  0  0  0  0  0  0  0  0
    1.0188   -1.1640   12.9594 C   0  0  0  0  0  0  0  0  0  0  0  0
    0.9937   -1.3114   11.4781 N   0  0  0  0  0  0  0  0  0  0  0  0
  1  2  1  6  0  0  0
  1  7  1  0  0  0  0
  1 30  1  0  0  0  0
  3  4  1  6  0  0  0
  3  9  1  0  0  0  0
  3 39  1  0  0  0  0
  5 10  1  0  0  0  0
  5 26  1  0  0  0  0
  5 32  1  1  0  0  0
  6 12  1  0  0  0  0
  6 36  1  0  0  0  0
  6 19  1  6  0  0  0
  7  8  1  6  0  0  0
  7 14  1  0  0  0  0
  9 16  1  0  0  0  0
 10 11  1  6  0  0  0
 10 18  1  0  0  0  0
 12 13  1  6  0  0  0
 12 20  1  0  0  0  0
 14 15  1  1  0  0  0
 14 22  1  0  0  0  0
 16 17  1  6  0  0  0
 16 24  1  0  0  0  0
 18 19  1  6  0  0  0
 18 25  1  0  0  0  0
 20 21  1  6  0  0  0
 20 27  1  0  0  0  0
 22 23  1  6  0  0  0
 22 29  1  0  0  0  0
 24  2  1  1  0  0  0
 24 31  1  0  0  0  0
 25 26  1  0  0  0  0
 25 33  1  1  0  0  0
 27 28  1  6  0  0  0
 27 35  1  0  0  0  0
 29 30  1  0  0  0  0
 29 37  1  1  0  0  0
 31 32  1  6  0  0  0
 31 39  1  0  0  0  0
 33 34  1  0  0  0  0
 35 36  1  0  0  0  0
 35 41  1  6  0  0  0
 37 38  1  0  0  0  0
 39 40  1  1  0  0  0
 41 42  1  0  0  0  0
M  END
>  <CHROM.1>
-175.71629419,-161.43655282,-44.66481453,-174.14405926,175.11714624,-62.64735322
-164.20966282,159.31466309,-171.17200874,-2.75970385,5.68453221,11.84302791
-2.67791642,1.01631363,-2.50224775

>  <Name>
2o3w_lig

>  <RI>
0

>  <Rbt.Current_Directory>
/home/itssahil/PROJECTS/Mol_Feturizer/New_Systems/rnas/2o3w

>  <Rbt.Executable>
rbdock ($Id: //depot/dev/client3/rdock/2013.1/src/exe/rbdock.cxx#4 $)

>  <Rbt.Library>
libRbt.so (2013.1, Build901 2013/11/27)

>  <Rbt.Parameter_File>
/export/apps/rDock/src/rDock_2013.1_src/data/scripts/dock_solv.prm

>  <Rbt.Receptor>
prm/blind_docking_60.prm

>  <SCORE>
10.7276

>  <SCORE.INTER>
8.61255

>  <SCORE.INTER.CONST>
1

>  <SCORE.INTER.POLAR>
-0.3312

>  <SCORE.INTER.ROT>
9

>  <SCORE.INTER.SOLV>
29.1832

>  <SCORE.INTER.VDW>
-12.482

>  <SCORE.INTER.norm>
0.205061

>  <SCORE.INTRA>
-10.098

>  <SCORE.INTRA.DIHEDRAL>
-21.6475

>  <SCORE.INTRA.DIHEDRAL.0>
27.8999

>  <SCORE.INTRA.POLAR>
0

>  <SCORE.INTRA.POLAR.0>
0

>  <SCORE.INTRA.REPUL>
0

>  <SCORE.INTRA.REPUL.0>
0

>  <SCORE.INTRA.SOLV>
-4.34442

>  <SCORE.INTRA.SOLV.lig_0>
-104.479

>  <SCORE.INTRA.VDW>
2.89793

>  <SCORE.INTRA.VDW.0>
-6.17816

>  <SCORE.INTRA.norm>
-0.240429

>  <SCORE.RESTR>
12.213

>  <SCORE.RESTR.CAVITY>
12.213

>  <SCORE.RESTR.norm>
0.290786

>  <SCORE.SYSTEM>
0

>  <SCORE.SYSTEM.CONST>
0

>  <SCORE.SYSTEM.DIHEDRAL>
0

>  <SCORE.SYSTEM.SOLV>
0

>  <SCORE.SYSTEM.norm>
0

>  <SCORE.heavy>
42

>  <SCORE.norm>
0.255418

>  <RMSD>
16.756

$$$$
2o3w_lig
 OpenBabel11021811463D
libRbt.so/2013.1/901 2013/11/27
 42 45  0  0  0  0  0  0  0  0999 V2000
   -2.2328    9.0374   10.2602 C   0  0  2  0  0  0  0  0  0  0  0  0
   -2.5853    9.3596   11.6164 O   0  0  0  0  0  0  0  0  0  0  0  0
   -6.0638   10.6044   13.8850 C   0  0  2  0  0  0  0  0  0  0  0  0
   -7.4714   10.8367   14.3267 N   0  0  0  0  0  0  0  0  0  0  0  0
   -3.2424    6.4788   13.4036 C   0  0  1  0  0  0  0  0  0  0  0  0
   -1.1806    3.1274   15.1707 C   0  0  1  0  0  0  0  0  0  0  0  0
   -3.5661    8.8553    9.4745 C   0  0  2  0  0  0  0  0  0  0  0  0
   -4.5000    9.9757    9.6817 N   0  0  0  0  0  0  0  0  0  0  0  0
   -5.7505   11.3731   12.5386 C   0  0  0  0  0  0  0  0  0  0  0  0
   -3.7881    5.8443   14.7190 C   0  0  2  0  0  0  0  0  0  0  0  0
   -3.4652    6.5965   15.9143 O   0  0  0  0  0  0  0  0  0  0  0  0
   -0.0193    3.1217   14.1123 C   0  0  2  0  0  0  0  0  0  0  0  0
   -0.5211    3.5354   12.7676 N   0  0  0  0  0  0  0  0  0  0  0  0
   -4.3136    7.5721    9.8815 C   0  0  1  0  0  0  0  0  0  0  0  0
   -5.5069    7.4257    9.1098 O   0  0  0  0  0  0  0  0  0  0  0  0
   -4.2500   11.1084   12.1371 C   0  0  2  0  0  0  0  0  0  0  0  0
   -3.9158   11.8299   10.8796 N   0  0  0  0  0  0  0  0  0  0  0  0
   -3.1917    4.4381   14.6401 C   0  0  2  0  0  0  0  0  0  0  0  0
   -1.8792    4.3735   15.2836 O   0  0  0  0  0  0  0  0  0  0  0  0
    0.6384    1.6619   14.0570 C   0  0  1  0  0  0  0  0  0  0  0  0
    1.4332    1.4621   15.2475 O   0  0  0  0  0  0  0  0  0  0  0  0
   -3.3777    6.3539    9.7103 C   0  0  2  0  0  0  0  0  0  0  0  0
   -4.0527    5.1689   10.0630 O   0  0  0  0  0  0  0  0  0  0  0  0
   -3.9890    9.5620   11.9464 C   0  0  2  0  0  0  0  0  0  0  0  0
   -3.0952    4.1013   13.1426 C   0  0  2  0  0  0  0  0  0  0  0  0
   -2.8840    5.3759   12.5398 O   0  0  0  0  0  0  0  0  0  0  0  0
   -0.4509    0.4929   13.9374 C   0  0  2  0  0  0  0  0  0  0  0  0
   -1.0367    0.5808   12.6391 O   0  0  0  0  0  0  0  0  0  0  0  0
   -2.1092    6.5550   10.6048 C   0  0  2  0  0  0  0  0  0  0  0  0
   -1.4319    7.7951   10.2263 O   0  0  0  0  0  0  0  0  0  0  0  0
   -4.3282    8.7374   13.2075 C   0  0  2  0  0  0  0  0  0  0  0  0
   -4.2092    7.3471   12.7982 O   0  0  0  0  0  0  0  0  0  0  0  0
   -4.3530    3.3987   12.5437 C   0  0  0  0  0  0  0  0  0  0  0  0
   -4.0172    2.8279   11.2826 O   0  0  0  0  0  0  0  0  0  0  0  0
   -1.5584    0.6496   15.0470 C   0  0  1  0  0  0  0  0  0  0  0  0
   -2.1349    1.9927   14.8629 O   0  0  0  0  0  0  0  0  0  0  0  0
   -1.1316    5.4079   10.4937 C   0  0  0  0  0  0  0  0  0  0  0  0
   -0.0685    5.7577    9.6413 O   0  0  0  0  0  0  0  0  0  0  0  0
   -5.8046    9.0566   13.6914 C   0  0  1  0  0  0  0  0  0  0  0  0
   -6.0649    8.4107   14.9406 O   0  0  0  0  0  0  0  0  0  0  0  0
   -2.7021   -0.4532   14.9808 C   0  0  0  0  0  0  0  0  0  0  0  0
   -2.4161   -1.7196   15.7096 N   0  0  0  0  0  0  0  0  0  0  0  0
  1  2  1  1  0  0  0
  1  7  1  0  0  0  0
  1 30  1  0  0  0  0
  3  4  1  6  0  0  0
  3  9  1  0  0  0  0
  3 39  1  0  0  0  0
  5 10  1  0  0  0  0
  5 26  1  0  0  0  0
  5 32  1  6  0  0  0
  6 12  1  0  0  0  0
  6 36  1  0  0  0  0
  6 19  1  6  0  0  0
  7  8  1  1  0  0  0
  7 14  1  0  0  0  0
  9 16  1  0  0  0  0
 10 11  1  1  0  0  0
 10 18  1  0  0  0  0
 12 13  1  6  0  0  0
 12 20  1  0  0  0  0
 14 15  1  6  0  0  0
 14 22  1  0  0  0  0
 16 17  1  6  0  0  0
 16 24  1  0  0  0  0
 18 19  1  6  0  0  0
 18 25  1  0  0  0  0
 20 21  1  1  0  0  0
 20 27  1  0  0  0  0
 22 23  1  1  0  0  0
 22 29  1  0  0  0  0
 24  2  1  1  0  0  0
 24 31  1  0  0  0  0
 25 26  1  0  0  0  0
 25 33  1  6  0  0  0
 27 28  1  6  0  0  0
 27 35  1  0  0  0  0
 29 30  1  0  0  0  0
 29 37  1  6  0  0  0
 31 32  1  6  0  0  0
 31 39  1  0  0  0  0
 33 34  1  0  0  0  0
 35 36  1  0  0  0  0
 35 41  1  6  0  0  0
 37 38  1  0  0  0  0
 39 40  1  1  0  0  0
 41 42  1  0  0  0  0
M  END
>  <CHROM.1>
-5.24846418,85.24978717,102.97224014,-175.01692578,-105.26574153,-164.65938212
101.01314634,117.72594921,86.48096187,-3.00196602,5.82227575,12.68502220
-2.22897780,-0.93389265,2.28617034

>  <Name>
2o3w_lig

>  <RI>
0

>  <Rbt.Current_Directory>
/home/itssahil/PROJECTS/Mol_Feturizer/New_Systems/rnas/2o3w

>  <Rbt.Executable>
rbdock ($Id: //depot/dev/client3/rdock/2013.1/src/exe/rbdock.cxx#4 $)

>  <Rbt.Library>
libRbt.so (2013.1, Build901 2013/11/27)

>  <Rbt.Parameter_File>
/export/apps/rDock/src/rDock_2013.1_src/data/scripts/dock_solv.prm

>  <Rbt.Receptor>
prm/blind_docking_60.prm

>  <SCORE>
65.5676

>  <SCORE.INTER>
26.4908

>  <SCORE.INTER.CONST>
1

>  <SCORE.INTER.POLAR>
-0.678726

>  <SCORE.INTER.ROT>
9

>  <SCORE.INTER.SOLV>
19.3581

>  <SCORE.INTER.VDW>
3.87026

>  <SCORE.INTER.norm>
0.630734

>  <SCORE.INTRA>
25.5742

>  <SCORE.INTRA.DIHEDRAL>
8.22276

>  <SCORE.INTRA.DIHEDRAL.0>
27.8999

>  <SCORE.INTRA.POLAR>
0

>  <SCORE.INTRA.POLAR.0>
0

>  <SCORE.INTRA.REPUL>
0

>  <SCORE.INTRA.REPUL.0>
0

>  <SCORE.INTRA.SOLV>
8.32654

>  <SCORE.INTRA.SOLV.lig_0>
-104.479

>  <SCORE.INTRA.VDW>
17.2996

>  <SCORE.INTRA.VDW.0>
-6.17816

>  <SCORE.INTRA.norm>
0.60891

>  <SCORE.RESTR>
13.5025

>  <SCORE.RESTR.CAVITY>
13.5025

>  <SCORE.RESTR.norm>
0.321489

>  <SCORE.SYSTEM>
0

>  <SCORE.SYSTEM.CONST>
0

>  <SCORE.SYSTEM.DIHEDRAL>
0

>  <SCORE.SYSTEM.SOLV>
0

>  <SCORE.SYSTEM.norm>
0

>  <SCORE.heavy>
42

>  <SCORE.norm>
1.56113

>  <RMSD>
16.798

$$$$
2o3w_lig
 OpenBabel11021811463D
libRbt.so/2013.1/901 2013/11/27
 42 45  0  0  0  0  0  0  0  0999 V2000
   -3.5832    8.4535   11.2003 C   0  0  2  0  0  0  0  0  0  0  0  0
   -4.7663    8.4633   10.3834 O   0  0  0  0  0  0  0  0  0  0  0  0
   -5.8164    5.3951    7.5059 C   0  0  2  0  0  0  0  0  0  0  0  0
   -5.8664    4.5483    6.2768 N   0  0  0  0  0  0  0  0  0  0  0  0
   -2.1839    5.6004   10.7019 C   0  0  1  0  0  0  0  0  0  0  0  0
   -1.1724    2.9615   13.6810 C   0  0  1  0  0  0  0  0  0  0  0  0
   -4.0452    8.6666   12.6731 C   0  0  2  0  0  0  0  0  0  0  0  0
   -5.1393    7.7579   13.0578 N   0  0  0  0  0  0  0  0  0  0  0  0
   -6.2760    6.8775    7.2008 C   0  0  0  0  0  0  0  0  0  0  0  0
   -2.0919    6.2423   12.1197 C   0  0  2  0  0  0  0  0  0  0  0  0
   -0.8594    6.9648   12.3606 O   0  0  0  0  0  0  0  0  0  0  0  0
   -1.7049    2.6622   15.1287 C   0  0  2  0  0  0  0  0  0  0  0  0
   -0.8744    3.3578   16.1569 N   0  0  0  0  0  0  0  0  0  0  0  0
   -4.5478   10.0999   12.9262 C   0  0  1  0  0  0  0  0  0  0  0  0
   -4.9228   10.2610   14.2953 O   0  0  0  0  0  0  0  0  0  0  0  0
   -6.2236    7.7130    8.5356 C   0  0  2  0  0  0  0  0  0  0  0  0
   -6.6646    9.1122    8.2878 N   0  0  0  0  0  0  0  0  0  0  0  0
   -2.3311    5.0243   13.0133 C   0  0  2  0  0  0  0  0  0  0  0  0
   -1.0766    4.3539   13.3562 O   0  0  0  0  0  0  0  0  0  0  0  0
   -1.7145    1.0786   15.3717 C   0  0  1  0  0  0  0  0  0  0  0  0
   -2.8027    0.4971   14.6191 O   0  0  0  0  0  0  0  0  0  0  0  0
   -3.4513   11.1102   12.5187 C   0  0  2  0  0  0  0  0  0  0  0  0
   -3.8896   12.4271   12.7601 O   0  0  0  0  0  0  0  0  0  0  0  0
   -4.7613    7.7161    9.1336 C   0  0  2  0  0  0  0  0  0  0  0  0
   -3.2624    4.0922   12.2201 C   0  0  2  0  0  0  0  0  0  0  0  0
   -2.9044    4.3573   10.8658 O   0  0  0  0  0  0  0  0  0  0  0  0
   -0.3368    0.3765   14.9514 C   0  0  2  0  0  0  0  0  0  0  0  0
    0.6606    0.7925   15.8833 O   0  0  0  0  0  0  0  0  0  0  0  0
   -3.1097   10.9099   11.0045 C   0  0  2  0  0  0  0  0  0  0  0  0
   -2.6669    9.5342   10.7780 O   0  0  0  0  0  0  0  0  0  0  0  0
   -4.2224    6.2945    9.4053 C   0  0  2  0  0  0  0  0  0  0  0  0
   -2.8263    6.4781    9.7680 O   0  0  0  0  0  0  0  0  0  0  0  0
   -4.7865    4.3295   12.4545 C   0  0  0  0  0  0  0  0  0  0  0  0
   -5.0709    4.2211   13.8459 O   0  0  0  0  0  0  0  0  0  0  0  0
    0.0757    0.7929   13.4890 C   0  0  1  0  0  0  0  0  0  0  0  0
    0.1579    2.2637   13.4901 O   0  0  0  0  0  0  0  0  0  0  0  0
   -2.0365   11.8572   10.5202 C   0  0  0  0  0  0  0  0  0  0  0  0
   -1.6334   11.5085    9.2182 O   0  0  0  0  0  0  0  0  0  0  0  0
   -4.3517    5.4000    8.1018 C   0  0  1  0  0  0  0  0  0  0  0  0
   -3.9950    4.0463    8.3950 O   0  0  0  0  0  0  0  0  0  0  0  0
    1.4533    0.1658   13.0014 C   0  0  0  0  0  0  0  0  0  0  0  0
    1.5098   -1.3218   12.9794 N   0  0  0  0  0  0  0  0  0  0  0  0
  1  2  1  6  0  0  0
  1  7  1  0  0  0  0
  1 30  1  0  0  0  0
  3  4  1  6  0  0  0
  3  9  1  0  0  0  0
  3 39  1  0  0  0  0
  5 10  1  0  0  0  0
  5 26  1  0  0  0  0
  5 32  1  6  0  0  0
  6 12  1  0  0  0  0
  6 36  1  0  0  0  0
  6 19  1  1  0  0  0
  7  8  1  6  0  0  0
  7 14  1  0  0  0  0
  9 16  1  0  0  0  0
 10 11  1  1  0  0  0
 10 18  1  0  0  0  0
 12 13  1  1  0  0  0
 12 20  1  0  0  0  0
 14 15  1  1  0  0  0
 14 22  1  0  0  0  0
 16 17  1  6  0  0  0
 16 24  1  0  0  0  0
 18 19  1  6  0  0  0
 18 25  1  0  0  0  0
 20 21  1  6  0  0  0
 20 27  1  0  0  0  0
 22 23  1  6  0  0  0
 22 29  1  0  0  0  0
 24  2  1  1  0  0  0
 24 31  1  0  0  0  0
 25 26  1  0  0  0  0
 25 33  1  6  0  0  0
 27 28  1  1  0  0  0
 27 35  1  0  0  0  0
 29 30  1  0  0  0  0
 29 37  1  1  0  0  0
 31 32  1  6  0  0  0
 31 39  1  0  0  0  0
 33 34  1  0  0  0  0
 35 36  1  0  0  0  0
 35 41  1  1  0  0  0
 37 38  1  0  0  0  0
 39 40  1  1  0  0  0
 41 42  1  0  0  0  0
M  END
>  <CHROM.1>
-152.24498866,-100.58677945,-77.89737852,-154.69136859,171.90684042,-56.19485667
171.52458703,147.72871222,59.67028192,-2.93464894,5.81225794,11.77076297
-2.41286215,1.02784396,-2.82840573

>  <Name>
2o3w_lig

>  <RI>
0

>  <Rbt.Current_Directory>
/home/itssahil/PROJECTS/Mol_Feturizer/New_Systems/rnas/2o3w

>  <Rbt.Executable>
rbdock ($Id: //depot/dev/client3/rdock/2013.1/src/exe/rbdock.cxx#4 $)

>  <Rbt.Library>
libRbt.so (2013.1, Build901 2013/11/27)

>  <Rbt.Parameter_File>
/export/apps/rDock/src/rDock_2013.1_src/data/scripts/dock_solv.prm

>  <Rbt.Receptor>
prm/blind_docking_60.prm

>  <SCORE>
7.22962

>  <SCORE.INTER>
-2.47718

>  <SCORE.INTER.CONST>
1

>  <SCORE.INTER.POLAR>
-0.0164768

>  <SCORE.INTER.ROT>
9

>  <SCORE.INTER.SOLV>
25.1861

>  <SCORE.INTER.VDW>
-19.5919

>  <SCORE.INTER.norm>
-0.0589804

>  <SCORE.INTRA>
-1.73513

>  <SCORE.INTRA.DIHEDRAL>
-10.2831

>  <SCORE.INTRA.DIHEDRAL.0>
27.8999

>  <SCORE.INTRA.POLAR>
0

>  <SCORE.INTRA.POLAR.0>
0

>  <SCORE.INTRA.REPUL>
0

>  <SCORE.INTRA.REPUL.0>
0

>  <SCORE.INTRA.SOLV>
-2.03997

>  <SCORE.INTRA.SOLV.lig_0>
-104.479

>  <SCORE.INTRA.VDW>
4.42641

>  <SCORE.INTRA.VDW.0>
-6.17816

>  <SCORE.INTRA.norm>
-0.0413125

>  <SCORE.RESTR>
11.4419

>  <SCORE.RESTR.CAVITY>
11.4419

>  <SCORE.RESTR.norm>
0.272427

>  <SCORE.SYSTEM>
0

>  <SCORE.SYSTEM.CONST>
0

>  <SCORE.SYSTEM.DIHEDRAL>
0

>  <SCORE.SYSTEM.SOLV>
0

>  <SCORE.SYSTEM.norm>
0

>  <SCORE.heavy>
42

>  <SCORE.norm>
0.172134

>  <RMSD>
16.802

$$$$
2o3w_lig
 OpenBabel11021811463D
libRbt.so/2013.1/901 2013/11/27
 42 45  0  0  0  0  0  0  0  0999 V2000
   -3.9177    7.9953   11.9049 C   0  0  2  0  0  0  0  0  0  0  0  0
   -5.1049    7.9898   11.0938 O   0  0  0  0  0  0  0  0  0  0  0  0
   -5.9964    6.3353    7.1869 C   0  0  2  0  0  0  0  0  0  0  0  0
   -5.9363    5.9928    5.7345 N   0  0  0  0  0  0  0  0  0  0  0  0
   -2.8914    4.7867   10.5066 C   0  0  1  0  0  0  0  0  0  0  0  0
   -1.1772    1.7864   13.4266 C   0  0  1  0  0  0  0  0  0  0  0  0
   -4.3286    8.5311   13.3092 C   0  0  2  0  0  0  0  0  0  0  0  0
   -5.5134    7.8430   13.8507 N   0  0  0  0  0  0  0  0  0  0  0  0
   -6.2370    7.8838    7.4019 C   0  0  0  0  0  0  0  0  0  0  0  0
   -1.9613    4.9368   11.7488 C   0  0  2  0  0  0  0  0  0  0  0  0
   -0.5496    4.9820   11.4261 O   0  0  0  0  0  0  0  0  0  0  0  0
   -1.0326    2.6111   14.7562 C   0  0  2  0  0  0  0  0  0  0  0  0
   -0.1357    3.7889   14.5586 N   0  0  0  0  0  0  0  0  0  0  0  0
   -4.6590   10.0349   13.2872 C   0  0  1  0  0  0  0  0  0  0  0  0
   -4.9909   10.4905   14.5998 O   0  0  0  0  0  0  0  0  0  0  0  0
   -6.3132    8.1785    8.9478 C   0  0  2  0  0  0  0  0  0  0  0  0
   -6.5538    9.6271    9.1871 N   0  0  0  0  0  0  0  0  0  0  0  0
   -2.4083    3.7472   12.6000 C   0  0  2  0  0  0  0  0  0  0  0  0
   -1.6280    2.5467   12.2987 O   0  0  0  0  0  0  0  0  0  0  0  0
   -0.4780    1.6533   15.9147 C   0  0  1  0  0  0  0  0  0  0  0  0
   -1.5366    0.7614   16.3303 O   0  0  0  0  0  0  0  0  0  0  0  0
   -3.4604   10.8177   12.7043 C   0  0  2  0  0  0  0  0  0  0  0  0
   -3.7406   12.1982   12.6928 O   0  0  0  0  0  0  0  0  0  0  0  0
   -4.9766    7.7375    9.6654 C   0  0  2  0  0  0  0  0  0  0  0  0
   -3.8989    3.5364   12.2854 C   0  0  2  0  0  0  0  0  0  0  0  0
   -4.0053    3.9680   10.9308 O   0  0  0  0  0  0  0  0  0  0  0  0
    0.7960    0.7963   15.4565 C   0  0  2  0  0  0  0  0  0  0  0  0
    1.8891    1.6999   15.2988 O   0  0  0  0  0  0  0  0  0  0  0  0
   -3.1684   10.3005   11.2562 C   0  0  2  0  0  0  0  0  0  0  0  0
   -2.8903    8.8649   11.2934 O   0  0  0  0  0  0  0  0  0  0  0  0
   -4.6463    6.2442    9.4509 C   0  0  2  0  0  0  0  0  0  0  0  0
   -3.3166    6.0628   10.0109 O   0  0  0  0  0  0  0  0  0  0  0  0
   -4.8833    4.3242   13.2044 C   0  0  0  0  0  0  0  0  0  0  0  0
   -6.0950    4.5679   12.4964 O   0  0  0  0  0  0  0  0  0  0  0  0
    0.5051    0.0502   14.0997 C   0  0  1  0  0  0  0  0  0  0  0  0
    0.1368    1.0952   13.1289 O   0  0  0  0  0  0  0  0  0  0  0  0
   -2.0014   11.0102   10.6096 C   0  0  0  0  0  0  0  0  0  0  0  0
   -0.9241   10.1207   10.4443 O   0  0  0  0  0  0  0  0  0  0  0  0
   -4.6569    5.8964    7.9035 C   0  0  1  0  0  0  0  0  0  0  0  0
   -4.5015    4.4874    7.7133 O   0  0  0  0  0  0  0  0  0  0  0  0
    1.7321   -0.8005   13.5525 C   0  0  0  0  0  0  0  0  0  0  0  0
    2.2892   -1.8061   14.4986 N   0  0  0  0  0  0  0  0  0  0  0  0
  1  2  1  6  0  0  0
  1  7  1  0  0  0  0
  1 30  1  0  0  0  0
  3  4  1  6  0  0  0
  3  9  1  0  0  0  0
  3 39  1  0  0  0  0
  5 10  1  0  0  0  0
  5 26  1  0  0  0  0
  5 32  1  1  0  0  0
  6 12  1  0  0  0  0
  6 36  1  0  0  0  0
  6 19  1  6  0  0  0
  7  8  1  6  0  0  0
  7 14  1  0  0  0  0
  9 16  1  0  0  0  0
 10 11  1  6  0  0  0
 10 18  1  0  0  0  0
 12 13  1  6  0  0  0
 12 20  1  0  0  0  0
 14 15  1  1  0  0  0
 14 22  1  0  0  0  0
 16 17  1  6  0  0  0
 16 24  1  0  0  0  0
 18 19  1  6  0  0  0
 18 25  1  0  0  0  0
 20 21  1  6  0  0  0
 20 27  1  0  0  0  0
 22 23  1  6  0  0  0
 22 29  1  0  0  0  0
 24  2  1  1  0  0  0
 24 31  1  0  0  0  0
 25 26  1  0  0  0  0
 25 33  1  1  0  0  0
 27 28  1  6  0  0  0
 27 35  1  0  0  0  0
 29 30  1  0  0  0  0
 29 37  1  1  0  0  0
 31 32  1  6  0  0  0
 31 39  1  0  0  0  0
 33 34  1  0  0  0  0
 35 36  1  0  0  0  0
 35 41  1  6  0  0  0
 37 38  1  0  0  0  0
 39 40  1  1  0  0  0
 41 42  1  0  0  0  0
M  END
>  <CHROM.1>
170.27472629,-144.77783152,-24.99647524,135.62461312,-164.22238300,153.13055163
112.23209376,153.62888811,55.03958907,-2.91498753,5.56972660,11.88570732
-2.60892997,0.97648344,-2.66031278

>  <Name>
2o3w_lig

>  <RI>
0

>  <Rbt.Current_Directory>
/home/itssahil/PROJECTS/Mol_Feturizer/New_Systems/rnas/2o3w

>  <Rbt.Executable>
rbdock ($Id: //depot/dev/client3/rdock/2013.1/src/exe/rbdock.cxx#4 $)

>  <Rbt.Library>
libRbt.so (2013.1, Build901 2013/11/27)

>  <Rbt.Parameter_File>
/export/apps/rDock/src/rDock_2013.1_src/data/scripts/dock_solv.prm

>  <Rbt.Receptor>
prm/blind_docking_60.prm

>  <SCORE>
9.86294

>  <SCORE.INTER>
-4.13545

>  <SCORE.INTER.CONST>
1

>  <SCORE.INTER.POLAR>
-0.544769

>  <SCORE.INTER.ROT>
9

>  <SCORE.INTER.SOLV>
23.4657

>  <SCORE.INTER.VDW>
-18.363

>  <SCORE.INTER.norm>
-0.098463

>  <SCORE.INTRA>
1.2214

>  <SCORE.INTRA.DIHEDRAL>
-0.809513

>  <SCORE.INTRA.DIHEDRAL.0>
27.8999

>  <SCORE.INTRA.POLAR>
0

>  <SCORE.INTRA.POLAR.0>
0

>  <SCORE.INTRA.REPUL>
0

>  <SCORE.INTRA.REPUL.0>
0

>  <SCORE.INTRA.SOLV>
-1.95772

>  <SCORE.INTRA.SOLV.lig_0>
-104.479

>  <SCORE.INTRA.VDW>
2.60502

>  <SCORE.INTRA.VDW.0>
-6.17816

>  <SCORE.INTRA.norm>
0.029081

>  <SCORE.RESTR>
12.777

>  <SCORE.RESTR.CAVITY>
12.777

>  <SCORE.RESTR.norm>
0.304214

>  <SCORE.SYSTEM>
0

>  <SCORE.SYSTEM.CONST>
0

>  <SCORE.SYSTEM.DIHEDRAL>
0

>  <SCORE.SYSTEM.SOLV>
0

>  <SCORE.SYSTEM.norm>
0

>  <SCORE.heavy>
42

>  <SCORE.norm>
0.234832

>  <RMSD>
16.890

$$$$
2o3w_lig
 OpenBabel11021811463D
libRbt.so/2013.1/901 2013/11/27
 42 45  0  0  0  0  0  0  0  0999 V2000
   -3.7800    8.1894   12.6990 C   0  0  2  0  0  0  0  0  0  0  0  0
   -4.8599    7.9382   11.7836 O   0  0  0  0  0  0  0  0  0  0  0  0
   -5.6124    5.8687    8.0490 C   0  0  2  0  0  0  0  0  0  0  0  0
   -5.4838    4.9647    6.8672 N   0  0  0  0  0  0  0  0  0  0  0  0
   -4.3240    4.1998   11.8970 C   0  0  1  0  0  0  0  0  0  0  0  0
   -0.5751    2.1754   12.4784 C   0  0  1  0  0  0  0  0  0  0  0  0
   -4.3460    9.0965   13.8325 C   0  0  2  0  0  0  0  0  0  0  0  0
   -5.6028    8.5750   14.3973 N   0  0  0  0  0  0  0  0  0  0  0  0
   -4.4622    6.9543    8.0692 C   0  0  0  0  0  0  0  0  0  0  0  0
   -3.0338    4.7851   11.2461 C   0  0  2  0  0  0  0  0  0  0  0  0
   -2.9058    4.4994    9.8315 O   0  0  0  0  0  0  0  0  0  0  0  0
   -0.0546    0.8217   11.8738 C   0  0  2  0  0  0  0  0  0  0  0  0
   -1.1940   -0.0685   11.4997 N   0  0  0  0  0  0  0  0  0  0  0  0
   -4.6376   10.5276   13.3448 C   0  0  1  0  0  0  0  0  0  0  0  0
   -5.1160   11.3329   14.4236 O   0  0  0  0  0  0  0  0  0  0  0  0
   -4.6641    7.8884    9.3219 C   0  0  2  0  0  0  0  0  0  0  0  0
   -3.6055    8.9329    9.3643 N   0  0  0  0  0  0  0  0  0  0  0  0
   -1.9501    4.1855   12.1435 C   0  0  2  0  0  0  0  0  0  0  0  0
   -1.4866    2.8933   11.6374 O   0  0  0  0  0  0  0  0  0  0  0  0
    0.9110    0.1061   12.9334 C   0  0  1  0  0  0  0  0  0  0  0  0
    2.1677    0.8186   12.9758 O   0  0  0  0  0  0  0  0  0  0  0  0
   -3.3600   11.1283   12.7155 C   0  0  2  0  0  0  0  0  0  0  0  0
   -3.6059   12.4449   12.2790 O   0  0  0  0  0  0  0  0  0  0  0  0
   -4.6302    7.0446   10.6570 C   0  0  2  0  0  0  0  0  0  0  0  0
   -2.5842    4.0431   13.5374 C   0  0  2  0  0  0  0  0  0  0  0  0
   -3.9601    3.8144   13.2424 O   0  0  0  0  0  0  0  0  0  0  0  0
    0.2808    0.0425   14.4052 C   0  0  2  0  0  0  0  0  0  0  0  0
   -0.8130   -0.8731   14.3666 O   0  0  0  0  0  0  0  0  0  0  0  0
   -2.9063   10.2251   11.5206 C   0  0  2  0  0  0  0  0  0  0  0  0
   -2.6668    8.8629   11.9969 O   0  0  0  0  0  0  0  0  0  0  0  0
   -5.6931    5.9245   10.6848 C   0  0  2  0  0  0  0  0  0  0  0  0
   -5.3989    5.1482   11.8786 O   0  0  0  0  0  0  0  0  0  0  0  0
   -2.4085    5.2814   14.4701 C   0  0  0  0  0  0  0  0  0  0  0  0
   -3.3884    5.2353   15.5029 O   0  0  0  0  0  0  0  0  0  0  0  0
   -0.2163    1.4670   14.8590 C   0  0  1  0  0  0  0  0  0  0  0  0
   -1.1836    1.9070   13.8388 O   0  0  0  0  0  0  0  0  0  0  0  0
   -1.6539   10.7373   10.8474 C   0  0  0  0  0  0  0  0  0  0  0  0
   -1.8997   11.9888   10.2538 O   0  0  0  0  0  0  0  0  0  0  0  0
   -5.5751    5.0234    9.3849 C   0  0  1  0  0  0  0  0  0  0  0  0
   -6.6518    4.0832    9.3369 O   0  0  0  0  0  0  0  0  0  0  0  0
   -0.8885    1.4897   16.2999 C   0  0  0  0  0  0  0  0  0  0  0  0
   -2.1205    0.6667   16.4468 N   0  0  0  0  0  0  0  0  0  0  0  0
  1  2  1  6  0  0  0
  1  7  1  0  0  0  0
  1 30  1  0  0  0  0
  3  4  1  6  0  0  0
  3  9  1  0  0  0  0
  3 39  1  0  0  0  0
  5 10  1  0  0  0  0
  5 26  1  0  0  0  0
  5 32  1  1  0  0  0
  6 12  1  0  0  0  0
  6 36  1  0  0  0  0
  6 19  1  6  0  0  0
  7  8  1  6  0  0  0
  7 14  1  0  0  0  0
  9 16  1  0  0  0  0
 10 11  1  6  0  0  0
 10 18  1  0  0  0  0
 12 13  1  1  0  0  0
 12 20  1  0  0  0  0
 14 15  1  1  0  0  0
 14 22  1  0  0  0  0
 16 17  1  1  0  0  0
 16 24  1  0  0  0  0
 18 19  1  6  0  0  0
 18 25  1  0  0  0  0
 20 21  1  1  0  0  0
 20 27  1  0  0  0  0
 22 23  1  6  0  0  0
 22 29  1  0  0  0  0
 24  2  1  1  0  0  0
 24 31  1  0  0  0  0
 25 26  1  0  0  0  0
 25 33  1  1  0  0  0
 27 28  1  6  0  0  0
 27 35  1  0  0  0  0
 29 30  1  0  0  0  0
 29 37  1  1  0  0  0
 31 32  1  1  0  0  0
 31 39  1  0  0  0  0
 33 34  1  0  0  0  0
 35 36  1  0  0  0  0
 35 41  1  1  0  0  0
 37 38  1  0  0  0  0
 39 40  1  6  0  0  0
 41 42  1  0  0  0  0
M  END
>  <CHROM.1>
-176.48294532,44.89492899,-177.58099304,-173.50381408,-111.61392554,160.05091659
-64.39170982,-78.03551669,-62.06657965,-2.99813831,5.49854426,12.14033414
-2.37211807,1.05183867,-2.66138159

>  <Name>
2o3w_lig

>  <RI>
0

>  <Rbt.Current_Directory>
/home/itssahil/PROJECTS/Mol_Feturizer/New_Systems/rnas/2o3w

>  <Rbt.Executable>
rbdock ($Id: //depot/dev/client3/rdock/2013.1/src/exe/rbdock.cxx#4 $)

>  <Rbt.Library>
libRbt.so (2013.1, Build901 2013/11/27)

>  <Rbt.Parameter_File>
/export/apps/rDock/src/rDock_2013.1_src/data/scripts/dock_solv.prm

>  <Rbt.Receptor>
prm/blind_docking_60.prm

>  <SCORE>
6.52146

>  <SCORE.INTER>
-0.237847

>  <SCORE.INTER.CONST>
1

>  <SCORE.INTER.POLAR>
0

>  <SCORE.INTER.ROT>
9

>  <SCORE.INTER.SOLV>
24.6414

>  <SCORE.INTER.VDW>
-17.9723

>  <SCORE.INTER.norm>
-0.00566303

>  <SCORE.INTRA>
-2.78664

>  <SCORE.INTRA.DIHEDRAL>
-16.7089

>  <SCORE.INTRA.DIHEDRAL.0>
27.8999

>  <SCORE.INTRA.POLAR>
0

>  <SCORE.INTRA.POLAR.0>
0

>  <SCORE.INTRA.REPUL>
0

>  <SCORE.INTRA.REPUL.0>
0

>  <SCORE.INTRA.SOLV>
1.6741

>  <SCORE.INTRA.SOLV.lig_0>
-104.479

>  <SCORE.INTRA.VDW>
4.73074

>  <SCORE.INTRA.VDW.0>
-6.17816

>  <SCORE.INTRA.norm>
-0.0663486

>  <SCORE.RESTR>
9.54595

>  <SCORE.RESTR.CAVITY>
9.54595

>  <SCORE.RESTR.norm>
0.227284

>  <SCORE.SYSTEM>
0

>  <SCORE.SYSTEM.CONST>
0

>  <SCORE.SYSTEM.DIHEDRAL>
0

>  <SCORE.SYSTEM.SOLV>
0

>  <SCORE.SYSTEM.norm>
0

>  <SCORE.heavy>
42

>  <SCORE.norm>
0.155273

>  <RMSD>
16.951

$$$$
2o3w_lig
 OpenBabel11021811463D
libRbt.so/2013.1/901 2013/11/27
 42 45  0  0  0  0  0  0  0  0999 V2000
   -3.7255    8.2420   12.7082 C   0  0  2  0  0  0  0  0  0  0  0  0
   -4.8256    7.9279   11.8373 O   0  0  0  0  0  0  0  0  0  0  0  0
   -5.6306    5.5794    8.2831 C   0  0  2  0  0  0  0  0  0  0  0  0
   -5.5435    4.5567    7.1982 N   0  0  0  0  0  0  0  0  0  0  0  0
   -4.7021    4.1297   12.3030 C   0  0  1  0  0  0  0  0  0  0  0  0
   -1.3588    1.6104   13.2713 C   0  0  1  0  0  0  0  0  0  0  0  0
   -4.2676    9.2235   13.7903 C   0  0  2  0  0  0  0  0  0  0  0  0
   -5.5096    8.7402   14.4183 N   0  0  0  0  0  0  0  0  0  0  0  0
   -4.3863    6.5553    8.2532 C   0  0  0  0  0  0  0  0  0  0  0  0
   -3.2867    4.5095   11.7710 C   0  0  2  0  0  0  0  0  0  0  0  0
   -3.0699    4.1707   10.3791 O   0  0  0  0  0  0  0  0  0  0  0  0
   -0.4189    2.4011   14.2512 C   0  0  2  0  0  0  0  0  0  0  0  0
    0.5513    3.2468   13.4934 N   0  0  0  0  0  0  0  0  0  0  0  0
   -4.5743   10.6178   13.2133 C   0  0  1  0  0  0  0  0  0  0  0  0
   -5.0298   11.4940   14.2456 O   0  0  0  0  0  0  0  0  0  0  0  0
   -4.5460    7.6213    9.4025 C   0  0  2  0  0  0  0  0  0  0  0  0
   -3.3974    8.5668    9.3945 N   0  0  0  0  0  0  0  0  0  0  0  0
   -2.3880    3.7874   12.7761 C   0  0  2  0  0  0  0  0  0  0  0  0
   -2.0688    2.4297   12.3341 O   0  0  0  0  0  0  0  0  0  0  0  0
    0.3439    1.3636   15.2044 C   0  0  1  0  0  0  0  0  0  0  0  0
   -0.5925    0.8469   16.1766 O   0  0  0  0  0  0  0  0  0  0  0  0
   -3.3132   11.1757   12.5151 C   0  0  2  0  0  0  0  0  0  0  0  0
   -3.5726   12.4593   11.9959 O   0  0  0  0  0  0  0  0  0  0  0  0
   -4.6390    6.9119   10.8110 C   0  0  2  0  0  0  0  0  0  0  0  0
   -3.1627    3.7733   14.1046 C   0  0  2  0  0  0  0  0  0  0  0  0
   -4.5237    3.7331   13.6822 O   0  0  0  0  0  0  0  0  0  0  0  0
    1.0045    0.1472   14.3973 C   0  0  2  0  0  0  0  0  0  0  0  0
    2.0914    0.6740   13.6374 O   0  0  0  0  0  0  0  0  0  0  0  0
   -2.8848   10.1938   11.3741 C   0  0  2  0  0  0  0  0  0  0  0  0
   -2.6307    8.8675   11.9362 O   0  0  0  0  0  0  0  0  0  0  0  0
   -5.8015    5.8987   10.8958 C   0  0  2  0  0  0  0  0  0  0  0  0
   -5.6240    5.2193   12.1691 O   0  0  0  0  0  0  0  0  0  0  0  0
   -2.8992    4.9991   15.0332 C   0  0  0  0  0  0  0  0  0  0  0  0
   -2.8938    6.1894   14.2508 O   0  0  0  0  0  0  0  0  0  0  0  0
   -0.0528   -0.5256   13.4426 C   0  0  1  0  0  0  0  0  0  0  0  0
   -0.5489    0.5458   12.5616 O   0  0  0  0  0  0  0  0  0  0  0  0
   -1.6497   10.6604   10.6388 C   0  0  0  0  0  0  0  0  0  0  0  0
   -1.8398   11.9665   10.1517 O   0  0  0  0  0  0  0  0  0  0  0  0
   -5.7204    4.8683    9.6927 C   0  0  1  0  0  0  0  0  0  0  0  0
   -6.8772    4.0273    9.6845 O   0  0  0  0  0  0  0  0  0  0  0  0
    0.5285   -1.7251   12.5754 C   0  0  0  0  0  0  0  0  0  0  0  0
    1.2182   -1.3318   11.3160 N   0  0  0  0  0  0  0  0  0  0  0  0
  1  2  1  6  0  0  0
  1  7  1  0  0  0  0
  1 30  1  0  0  0  0
  3  4  1  6  0  0  0
  3  9  1  0  0  0  0
  3 39  1  0  0  0  0
  5 10  1  0  0  0  0
  5 26  1  0  0  0  0
  5 32  1  1  0  0  0
  6 12  1  0  0  0  0
  6 36  1  0  0  0  0
  6 19  1  6  0  0  0
  7  8  1  6  0  0  0
  7 14  1  0  0  0  0
  9 16  1  0  0  0  0
 10 11  1  6  0  0  0
 10 18  1  0  0  0  0
 12 13  1  6  0  0  0
 12 20  1  0  0  0  0
 14 15  1  1  0  0  0
 14 22  1  0  0  0  0
 16 17  1  1  0  0  0
 16 24  1  0  0  0  0
 18 19  1  6  0  0  0
 18 25  1  0  0  0  0
 20 21  1  1  0  0  0
 20 27  1  0  0  0  0
 22 23  1  6  0  0  0
 22 29  1  0  0  0  0
 24  2  1  1  0  0  0
 24 31  1  0  0  0  0
 25 26  1  0  0  0  0
 25 33  1  6  0  0  0
 27 28  1  6  0  0  0
 27 35  1  0  0  0  0
 29 30  1  0  0  0  0
 29 37  1  1  0  0  0
 31 32  1  1  0  0  0
 31 39  1  0  0  0  0
 33 34  1  0  0  0  0
 35 36  1  0  0  0  0
 35 41  1  6  0  0  0
 37 38  1  0  0  0  0
 39 40  1  6  0  0  0
 41 42  1  0  0  0  0
M  END
>  <CHROM.1>
-173.49321586,51.99495667,-29.71791818,-173.12533876,-106.93186789,43.24681346
-54.78180777,-81.95973200,-83.95625448,-2.90773453,5.40767981,12.19065311
-2.22082416,0.86756634,-2.82499379

>  <Name>
2o3w_lig

>  <RI>
0

>  <Rbt.Current_Directory>
/home/itssahil/PROJECTS/Mol_Feturizer/New_Systems/rnas/2o3w

>  <Rbt.Executable>
rbdock ($Id: //depot/dev/client3/rdock/2013.1/src/exe/rbdock.cxx#4 $)

>  <Rbt.Library>
libRbt.so (2013.1, Build901 2013/11/27)

>  <Rbt.Parameter_File>
/export/apps/rDock/src/rDock_2013.1_src/data/scripts/dock_solv.prm

>  <Rbt.Receptor>
prm/blind_docking_60.prm

>  <SCORE>
8.76439

>  <SCORE.INTER>
-2.58683

>  <SCORE.INTER.CONST>
1

>  <SCORE.INTER.POLAR>
-0.055306

>  <SCORE.INTER.ROT>
9

>  <SCORE.INTER.SOLV>
27.6265

>  <SCORE.INTER.VDW>
-20.349

>  <SCORE.INTER.norm>
-0.0615912

>  <SCORE.INTRA>
1.02981

>  <SCORE.INTRA.DIHEDRAL>
-12.0802

>  <SCORE.INTRA.DIHEDRAL.0>
27.8999

>  <SCORE.INTRA.POLAR>
0

>  <SCORE.INTRA.POLAR.0>
0

>  <SCORE.INTRA.REPUL>
0

>  <SCORE.INTRA.REPUL.0>
0

>  <SCORE.INTRA.SOLV>
3.99678

>  <SCORE.INTRA.SOLV.lig_0>
-104.479

>  <SCORE.INTRA.VDW>
5.07152

>  <SCORE.INTRA.VDW.0>
-6.17816

>  <SCORE.INTRA.norm>
0.0245193

>  <SCORE.RESTR>
10.3214

>  <SCORE.RESTR.CAVITY>
10.3214

>  <SCORE.RESTR.norm>
0.245748

>  <SCORE.SYSTEM>
0

>  <SCORE.SYSTEM.CONST>
0

>  <SCORE.SYSTEM.DIHEDRAL>
0

>  <SCORE.SYSTEM.SOLV>
0

>  <SCORE.SYSTEM.norm>
0

>  <SCORE.heavy>
42

>  <SCORE.norm>
0.208676

>  <RMSD>
16.975

$$$$
2o3w_lig
 OpenBabel11021811463D
libRbt.so/2013.1/901 2013/11/27
 42 45  0  0  0  0  0  0  0  0999 V2000
   -4.5160    9.7053    9.8942 C   0  0  2  0  0  0  0  0  0  0  0  0
   -3.6184    8.6994    9.3943 O   0  0  0  0  0  0  0  0  0  0  0  0
   -6.4969    5.7583    8.0304 C   0  0  2  0  0  0  0  0  0  0  0  0
   -7.1422    4.6197    7.3110 N   0  0  0  0  0  0  0  0  0  0  0  0
   -3.0371    4.7762   10.8358 C   0  0  1  0  0  0  0  0  0  0  0  0
   -1.0967    2.3088   13.9070 C   0  0  1  0  0  0  0  0  0  0  0  0
   -3.6520   10.7349   10.6826 C   0  0  2  0  0  0  0  0  0  0  0  0
   -2.4823   11.1951    9.9140 N   0  0  0  0  0  0  0  0  0  0  0  0
   -6.1014    6.9186    7.0308 C   0  0  0  0  0  0  0  0  0  0  0  0
   -1.8951    4.9034   11.8896 C   0  0  2  0  0  0  0  0  0  0  0  0
   -0.6100    4.4202   11.4271 O   0  0  0  0  0  0  0  0  0  0  0  0
    0.2150    1.8568   13.1695 C   0  0  2  0  0  0  0  0  0  0  0  0
   -0.0745    0.7749   12.1812 N   0  0  0  0  0  0  0  0  0  0  0  0
   -3.1157   10.1566   12.0050 C   0  0  1  0  0  0  0  0  0  0  0  0
   -2.3643   11.1451   12.7117 O   0  0  0  0  0  0  0  0  0  0  0  0
   -5.4482    8.0962    7.8487 C   0  0  2  0  0  0  0  0  0  0  0  0
   -5.0762    9.2136    6.9395 N   0  0  0  0  0  0  0  0  0  0  0  0
   -2.4991    4.1484   13.0747 C   0  0  2  0  0  0  0  0  0  0  0  0
   -2.1566    2.7264   13.0377 O   0  0  0  0  0  0  0  0  0  0  0  0
    1.2911    1.3732   14.2534 C   0  0  1  0  0  0  0  0  0  0  0  0
    1.8188    2.5321   14.9371 O   0  0  0  0  0  0  0  0  0  0  0  0
   -4.2955    9.6308   12.8539 C   0  0  2  0  0  0  0  0  0  0  0  0
   -3.8227    9.1131   14.0757 O   0  0  0  0  0  0  0  0  0  0  0  0
   -4.1659    7.5929    8.6222 C   0  0  2  0  0  0  0  0  0  0  0  0
   -4.0199    4.3580   12.9810 C   0  0  2  0  0  0  0  0  0  0  0  0
   -4.2417    4.4768   11.5777 O   0  0  0  0  0  0  0  0  0  0  0  0
    0.6787    0.3514   15.3250 C   0  0  2  0  0  0  0  0  0  0  0  0
    0.4032   -0.8725   14.6449 O   0  0  0  0  0  0  0  0  0  0  0  0
   -5.0562    8.5288   12.0437 C   0  0  2  0  0  0  0  0  0  0  0  0
   -5.5284    9.0875   10.7769 O   0  0  0  0  0  0  0  0  0  0  0  0
   -4.4662    6.4183    9.5789 C   0  0  2  0  0  0  0  0  0  0  0  0
   -3.1668    5.9710   10.0543 O   0  0  0  0  0  0  0  0  0  0  0  0
   -4.5602    5.6079   13.7425 C   0  0  0  0  0  0  0  0  0  0  0  0
   -3.9890    5.6474   15.0467 O   0  0  0  0  0  0  0  0  0  0  0  0
   -0.6421    0.9336   15.9564 C   0  0  1  0  0  0  0  0  0  0  0  0
   -1.5529    1.1975   14.8289 O   0  0  0  0  0  0  0  0  0  0  0  0
   -6.2351    7.9609   12.7997 C   0  0  0  0  0  0  0  0  0  0  0  0
   -6.1033    8.2275   14.1748 O   0  0  0  0  0  0  0  0  0  0  0  0
   -5.2118    5.2540    8.8016 C   0  0  1  0  0  0  0  0  0  0  0  0
   -5.6236    4.2347    9.7165 O   0  0  0  0  0  0  0  0  0  0  0  0
   -1.3374   -0.0336   17.0098 C   0  0  0  0  0  0  0  0  0  0  0  0
   -2.8139    0.1099   17.1365 N   0  0  0  0  0  0  0  0  0  0  0  0
  1  2  1  1  0  0  0
  1  7  1  0  0  0  0
  1 30  1  0  0  0  0
  3  4  1  6  0  0  0
  3  9  1  0  0  0  0
  3 39  1  0  0  0  0
  5 10  1  0  0  0  0
  5 26  1  0  0  0  0
  5 32  1  1  0  0  0
  6 12  1  0  0  0  0
  6 36  1  0  0  0  0
  6 19  1  6  0  0  0
  7  8  1  6  0  0  0
  7 14  1  0  0  0  0
  9 16  1  0  0  0  0
 10 11  1  6  0  0  0
 10 18  1  0  0  0  0
 12 13  1  6  0  0  0
 12 20  1  0  0  0  0
 14 15  1  1  0  0  0
 14 22  1  0  0  0  0
 16 17  1  6  0  0  0
 16 24  1  0  0  0  0
 18 19  1  6  0  0  0
 18 25  1  0  0  0  0
 20 21  1  1  0  0  0
 20 27  1  0  0  0  0
 22 23  1  1  0  0  0
 22 29  1  0  0  0  0
 24  2  1  1  0  0  0
 24 31  1  0  0  0  0
 25 26  1  0  0  0  0
 25 33  1  1  0  0  0
 27 28  1  6  0  0  0
 27 35  1  0  0  0  0
 29 30  1  0  0  0  0
 29 37  1  1  0  0  0
 31 32  1  6  0  0  0
 31 39  1  0  0  0  0
 33 34  1  0  0  0  0
 35 36  1  0  0  0  0
 35 41  1  1  0  0  0
 37 38  1  0  0  0  0
 39 40  1  1  0  0  0
 41 42  1  0  0  0  0
M  END
>  <CHROM.1>
179.39917862,-146.05444112,-111.81205912,101.02846099,30.53408369,-46.61636825
-19.34340735,-171.90052351,-151.69234540,-3.17773553,5.46794232,11.99678313
-2.64821543,1.06336892,-2.70670564

>  <Name>
2o3w_lig

>  <RI>
0

>  <Rbt.Current_Directory>
/home/itssahil/PROJECTS/Mol_Feturizer/New_Systems/rnas/2o3w

>  <Rbt.Executable>
rbdock ($Id: //depot/dev/client3/rdock/2013.1/src/exe/rbdock.cxx#4 $)

>  <Rbt.Library>
libRbt.so (2013.1, Build901 2013/11/27)

>  <Rbt.Parameter_File>
/export/apps/rDock/src/rDock_2013.1_src/data/scripts/dock_solv.prm

>  <Rbt.Receptor>
prm/blind_docking_60.prm

>  <SCORE>
20.0216

>  <SCORE.INTER>
2.13332

>  <SCORE.INTER.CONST>
1

>  <SCORE.INTER.POLAR>
-0.641624

>  <SCORE.INTER.ROT>
9

>  <SCORE.INTER.SOLV>
23.7403

>  <SCORE.INTER.VDW>
-13.9525

>  <SCORE.INTER.norm>
0.0507934

>  <SCORE.INTRA>
4.73813

>  <SCORE.INTRA.DIHEDRAL>
-0.27075

>  <SCORE.INTRA.DIHEDRAL.0>
27.8999

>  <SCORE.INTRA.POLAR>
0

>  <SCORE.INTRA.POLAR.0>
0

>  <SCORE.INTRA.REPUL>
0

>  <SCORE.INTRA.REPUL.0>
0

>  <SCORE.INTRA.SOLV>
-2.56507

>  <SCORE.INTRA.SOLV.lig_0>
-104.479

>  <SCORE.INTRA.VDW>
6.15604

>  <SCORE.INTRA.VDW.0>
-6.17816

>  <SCORE.INTRA.norm>
0.112813

>  <SCORE.RESTR>
13.1501

>  <SCORE.RESTR.CAVITY>
13.1501

>  <SCORE.RESTR.norm>
0.313098

>  <SCORE.SYSTEM>
0

>  <SCORE.SYSTEM.CONST>
0

>  <SCORE.SYSTEM.DIHEDRAL>
0

>  <SCORE.SYSTEM.SOLV>
0

>  <SCORE.SYSTEM.norm>
0

>  <SCORE.heavy>
42

>  <SCORE.norm>
0.476704

>  <RMSD>
17.011

$$$$
2o3w_lig
 OpenBabel11021811463D
libRbt.so/2013.1/901 2013/11/27
 42 45  0  0  0  0  0  0  0  0999 V2000
   -4.5805    7.8690   13.9371 C   0  0  2  0  0  0  0  0  0  0  0  0
   -5.0775    6.7624   13.1652 O   0  0  0  0  0  0  0  0  0  0  0  0
   -5.5791    5.5686    9.0277 C   0  0  2  0  0  0  0  0  0  0  0  0
   -5.6099    5.5735    7.5345 N   0  0  0  0  0  0  0  0  0  0  0  0
   -1.7880    5.7149   12.2538 C   0  0  1  0  0  0  0  0  0  0  0  0
    0.0818    2.5798   14.7886 C   0  0  1  0  0  0  0  0  0  0  0  0
   -5.7222    8.9274   14.0024 C   0  0  2  0  0  0  0  0  0  0  0  0
   -7.0106    8.3423   14.4127 N   0  0  0  0  0  0  0  0  0  0  0  0
   -6.6183    6.5997    9.6265 C   0  0  0  0  0  0  0  0  0  0  0  0
   -2.3279    5.2600   13.6438 C   0  0  2  0  0  0  0  0  0  0  0  0
   -1.9880    6.1563   14.7302 O   0  0  0  0  0  0  0  0  0  0  0  0
    1.0887    1.9214   13.7779 C   0  0  2  0  0  0  0  0  0  0  0  0
    0.4791    1.8013   12.4196 N   0  0  0  0  0  0  0  0  0  0  0  0
   -5.9585    9.6165   12.6459 C   0  0  1  0  0  0  0  0  0  0  0  0
   -6.9839   10.6045   12.7618 O   0  0  0  0  0  0  0  0  0  0  0  0
   -6.5552    6.5326   11.1994 C   0  0  2  0  0  0  0  0  0  0  0  0
   -7.5326    7.4816   11.7975 N   0  0  0  0  0  0  0  0  0  0  0  0
   -1.7447    3.8495   13.7419 C   0  0  2  0  0  0  0  0  0  0  0  0
   -0.4274    3.8550   14.3786 O   0  0  0  0  0  0  0  0  0  0  0  0
    1.5370    0.4882   14.3363 C   0  0  1  0  0  0  0  0  0  0  0  0
    2.4432    0.6815   15.4455 O   0  0  0  0  0  0  0  0  0  0  0  0
   -4.6337   10.2344   12.1437 C   0  0  2  0  0  0  0  0  0  0  0  0
   -4.8368   10.8838   10.9102 O   0  0  0  0  0  0  0  0  0  0  0  0
   -5.1012    6.8750   11.7136 C   0  0  2  0  0  0  0  0  0  0  0  0
   -1.6642    3.3221   12.2994 C   0  0  2  0  0  0  0  0  0  0  0  0
   -1.4469    4.5066   11.5363 O   0  0  0  0  0  0  0  0  0  0  0  0
    0.2975   -0.4114   14.8073 C   0  0  2  0  0  0  0  0  0  0  0  0
   -0.4315   -0.7862   13.6392 O   0  0  0  0  0  0  0  0  0  0  0  0
   -3.5632    9.1014   12.0025 C   0  0  2  0  0  0  0  0  0  0  0  0
   -3.3773    8.4367   13.2923 O   0  0  0  0  0  0  0  0  0  0  0  0
   -4.0220    5.9408   11.1238 C   0  0  2  0  0  0  0  0  0  0  0  0
   -2.7522    6.5078   11.5490 O   0  0  0  0  0  0  0  0  0  0  0  0
   -2.9332    2.5609   11.8051 C   0  0  0  0  0  0  0  0  0  0  0  0
   -2.6659    1.9764   10.5340 O   0  0  0  0  0  0  0  0  0  0  0  0
   -0.6302    0.3935   15.7941 C   0  0  1  0  0  0  0  0  0  0  0  0
   -1.0443    1.6069   15.0684 O   0  0  0  0  0  0  0  0  0  0  0  0
   -2.2281    9.6197   11.5202 C   0  0  0  0  0  0  0  0  0  0  0  0
   -1.7741   10.6496   12.3643 O   0  0  0  0  0  0  0  0  0  0  0  0
   -4.1241    5.9145    9.5412 C   0  0  1  0  0  0  0  0  0  0  0  0
   -3.2280    4.9372    9.0051 O   0  0  0  0  0  0  0  0  0  0  0  0
   -1.9077   -0.4151   16.2867 C   0  0  0  0  0  0  0  0  0  0  0  0
   -2.9650    0.3964   16.9501 N   0  0  0  0  0  0  0  0  0  0  0  0
  1  2  1  6  0  0  0
  1  7  1  0  0  0  0
  1 30  1  0  0  0  0
  3  4  1  6  0  0  0
  3  9  1  0  0  0  0
  3 39  1  0  0  0  0
  5 10  1  0  0  0  0
  5 26  1  0  0  0  0
  5 32  1  6  0  0  0
  6 12  1  0  0  0  0
  6 36  1  0  0  0  0
  6 19  1  6  0  0  0
  7  8  1  6  0  0  0
  7 14  1  0  0  0  0
  9 16  1  0  0  0  0
 10 11  1  1  0  0  0
 10 18  1  0  0  0  0
 12 13  1  6  0  0  0
 12 20  1  0  0  0  0
 14 15  1  1  0  0  0
 14 22  1  0  0  0  0
 16 17  1  1  0  0  0
 16 24  1  0  0  0  0
 18 19  1  6  0  0  0
 18 25  1  0  0  0  0
 20 21  1  1  0  0  0
 20 27  1  0  0  0  0
 22 23  1  6  0  0  0
 22 29  1  0  0  0  0
 24  2  1  1  0  0  0
 24 31  1  0  0  0  0
 25 26  1  0  0  0  0
 25 33  1  6  0  0  0
 27 28  1  6  0  0  0
 27 35  1  0  0  0  0
 29 30  1  0  0  0  0
 29 37  1  1  0  0  0
 31 32  1  6  0  0  0
 31 39  1  0  0  0  0
 33 34  1  0  0  0  0
 35 36  1  0  0  0  0
 35 41  1  6  0  0  0
 37 38  1  0  0  0  0
 39 40  1  1  0  0  0
 41 42  1  0  0  0  0
M  END
>  <CHROM.1>
78.77859540,-64.39784412,97.87089936,166.72920617,-127.43852650,-172.36459861
55.07749106,125.60642675,-166.15777041,-2.94969333,5.21256139,12.70209178
-2.69839493,0.95352255,-2.44614331

>  <Name>
2o3w_lig

>  <RI>
0

>  <Rbt.Current_Directory>
/home/itssahil/PROJECTS/Mol_Feturizer/New_Systems/rnas/2o3w

>  <Rbt.Executable>
rbdock ($Id: //depot/dev/client3/rdock/2013.1/src/exe/rbdock.cxx#4 $)

>  <Rbt.Library>
libRbt.so (2013.1, Build901 2013/11/27)

>  <Rbt.Parameter_File>
/export/apps/rDock/src/rDock_2013.1_src/data/scripts/dock_solv.prm

>  <Rbt.Receptor>
prm/blind_docking_60.prm

>  <SCORE>
12.8926

>  <SCORE.INTER>
-2.14015

>  <SCORE.INTER.CONST>
1

>  <SCORE.INTER.POLAR>
-0.872048

>  <SCORE.INTER.ROT>
9

>  <SCORE.INTER.SOLV>
25.2404

>  <SCORE.INTER.VDW>
-16.5334

>  <SCORE.INTER.norm>
-0.0509559

>  <SCORE.INTRA>
2.12514

>  <SCORE.INTRA.DIHEDRAL>
-5.40543

>  <SCORE.INTRA.DIHEDRAL.0>
27.8999

>  <SCORE.INTRA.POLAR>
0

>  <SCORE.INTRA.POLAR.0>
0

>  <SCORE.INTRA.REPUL>
0

>  <SCORE.INTRA.REPUL.0>
0

>  <SCORE.INTRA.SOLV>
5.07871

>  <SCORE.INTRA.SOLV.lig_0>
-104.479

>  <SCORE.INTRA.VDW>
2.2885

>  <SCORE.INTRA.VDW.0>
-6.17816

>  <SCORE.INTRA.norm>
0.0505987

>  <SCORE.RESTR>
12.9076

>  <SCORE.RESTR.CAVITY>
12.9076

>  <SCORE.RESTR.norm>
0.307325

>  <SCORE.SYSTEM>
0

>  <SCORE.SYSTEM.CONST>
0

>  <SCORE.SYSTEM.DIHEDRAL>
0

>  <SCORE.SYSTEM.SOLV>
0

>  <SCORE.SYSTEM.norm>
0

>  <SCORE.heavy>
42

>  <SCORE.norm>
0.306967

>  <RMSD>
17.044

$$$$
2o3w_lig
 OpenBabel11021811463D
libRbt.so/2013.1/901 2013/11/27
 42 45  0  0  0  0  0  0  0  0999 V2000
   -4.0161    8.3031   12.8507 C   0  0  2  0  0  0  0  0  0  0  0  0
   -5.0324    8.0696   11.8608 O   0  0  0  0  0  0  0  0  0  0  0  0
   -5.6170    5.9116    8.1464 C   0  0  2  0  0  0  0  0  0  0  0  0
   -5.4154    5.0116    6.9717 N   0  0  0  0  0  0  0  0  0  0  0  0
   -4.2438    4.3117   11.9736 C   0  0  1  0  0  0  0  0  0  0  0  0
   -0.5079    2.2612   12.6465 C   0  0  1  0  0  0  0  0  0  0  0  0
   -4.6369    9.2431   13.9273 C   0  0  2  0  0  0  0  0  0  0  0  0
   -5.9471    8.7668   14.4037 N   0  0  0  0  0  0  0  0  0  0  0  0
   -4.5631    7.0911    8.1533 C   0  0  0  0  0  0  0  0  0  0  0  0
   -2.9028    5.0004   11.5760 C   0  0  2  0  0  0  0  0  0  0  0  0
   -2.6091    4.9442   10.1583 O   0  0  0  0  0  0  0  0  0  0  0  0
   -0.0120    0.9447   11.9466 C   0  0  2  0  0  0  0  0  0  0  0  0
   -1.1667    0.1307   11.4619 N   0  0  0  0  0  0  0  0  0  0  0  0
   -4.8485   10.6746   13.4010 C   0  0  1  0  0  0  0  0  0  0  0  0
   -5.3810   11.5095   14.4308 O   0  0  0  0  0  0  0  0  0  0  0  0
   -4.8401    8.0154    9.3989 C   0  0  2  0  0  0  0  0  0  0  0  0
   -3.8739    9.1464    9.4289 N   0  0  0  0  0  0  0  0  0  0  0  0
   -1.9133    4.2719   12.4867 C   0  0  2  0  0  0  0  0  0  0  0  0
   -1.3648    3.0794   11.8403 O   0  0  0  0  0  0  0  0  0  0  0  0
    0.8913    0.1087   12.9723 C   0  0  1  0  0  0  0  0  0  0  0  0
    2.1689    0.7692   13.1154 O   0  0  0  0  0  0  0  0  0  0  0  0
   -3.5104   11.2285   12.8609 C   0  0  2  0  0  0  0  0  0  0  0  0
   -3.6836   12.5450   12.3905 O   0  0  0  0  0  0  0  0  0  0  0  0
   -4.7308    7.1891   10.7410 C   0  0  2  0  0  0  0  0  0  0  0  0
   -2.6970    3.9059   13.7584 C   0  0  2  0  0  0  0  0  0  0  0  0
   -4.0250    3.7193   13.2745 O   0  0  0  0  0  0  0  0  0  0  0  0
    0.2081   -0.0546   14.4125 C   0  0  2  0  0  0  0  0  0  0  0  0
   -0.9137   -0.9236   14.2612 O   0  0  0  0  0  0  0  0  0  0  0  0
   -2.9968   10.2947   11.7147 C   0  0  2  0  0  0  0  0  0  0  0  0
   -2.8343    8.9334   12.2248 O   0  0  0  0  0  0  0  0  0  0  0  0
   -5.6947    5.9831   10.7819 C   0  0  2  0  0  0  0  0  0  0  0  0
   -5.3321    5.2448   11.9811 O   0  0  0  0  0  0  0  0  0  0  0  0
   -2.6573    4.9811   14.8883 C   0  0  0  0  0  0  0  0  0  0  0  0
   -1.3488    5.0258   15.4492 O   0  0  0  0  0  0  0  0  0  0  0  0
   -0.2568    1.3441   14.9689 C   0  0  1  0  0  0  0  0  0  0  0  0
   -1.1726    1.9024   13.9590 O   0  0  0  0  0  0  0  0  0  0  0  0
   -1.6833   10.7601   11.1300 C   0  0  0  0  0  0  0  0  0  0  0  0
   -1.8565   11.9875   10.4645 O   0  0  0  0  0  0  0  0  0  0  0  0
   -5.5042    5.0840    9.4891 C   0  0  1  0  0  0  0  0  0  0  0  0
   -6.4973    4.0554    9.4528 O   0  0  0  0  0  0  0  0  0  0  0  0
   -0.9782    1.2708   16.3841 C   0  0  0  0  0  0  0  0  0  0  0  0
   -2.2820    0.5522   16.4040 N   0  0  0  0  0  0  0  0  0  0  0  0
  1  2  1  6  0  0  0
  1  7  1  0  0  0  0
  1 30  1  0  0  0  0
  3  4  1  6  0  0  0
  3  9  1  0  0  0  0
  3 39  1  0  0  0  0
  5 10  1  0  0  0  0
  5 26  1  0  0  0  0
  5 32  1  1  0  0  0
  6 12  1  0  0  0  0
  6 36  1  0  0  0  0
  6 19  1  6  0  0  0
  7  8  1  6  0  0  0
  7 14  1  0  0  0  0
  9 16  1  0  0  0  0
 10 11  1  6  0  0  0
 10 18  1  0  0  0  0
 12 13  1  1  0  0  0
 12 20  1  0  0  0  0
 14 15  1  1  0  0  0
 14 22  1  0  0  0  0
 16 17  1  1  0  0  0
 16 24  1  0  0  0  0
 18 19  1  6  0  0  0
 18 25  1  0  0  0  0
 20 21  1  1  0  0  0
 20 27  1  0  0  0  0
 22 23  1  6  0  0  0
 22 29  1  0  0  0  0
 24  2  1  1  0  0  0
 24 31  1  0  0  0  0
 25 26  1  0  0  0  0
 25 33  1  1  0  0  0
 27 28  1  6  0  0  0
 27 35  1  0  0  0  0
 29 30  1  0  0  0  0
 29 37  1  1  0  0  0
 31 32  1  1  0  0  0
 31 39  1  0  0  0  0
 33 34  1  0  0  0  0
 35 36  1  0  0  0  0
 35 41  1  1  0  0  0
 37 38  1  0  0  0  0
 39 40  1  6  0  0  0
 41 42  1  0  0  0  0
M  END
>  <CHROM.1>
-178.58509304,59.11807443,176.35350442,-175.13377064,-118.31656165,-70.24292287
-66.38839520,-82.98098254,-65.54892157,-2.99803675,5.55111232,12.25734016
-2.36556256,1.02883268,-2.67044951

>  <Name>
2o3w_lig

>  <RI>
0

>  <Rbt.Current_Directory>
/home/itssahil/PROJECTS/Mol_Feturizer/New_Systems/rnas/2o3w

>  <Rbt.Executable>
rbdock ($Id: //depot/dev/client3/rdock/2013.1/src/exe/rbdock.cxx#4 $)

>  <Rbt.Library>
libRbt.so (2013.1, Build901 2013/11/27)

>  <Rbt.Parameter_File>
/export/apps/rDock/src/rDock_2013.1_src/data/scripts/dock_solv.prm

>  <Rbt.Receptor>
prm/blind_docking_60.prm

>  <SCORE>
1.31837

>  <SCORE.INTER>
-3.7112

>  <SCORE.INTER.CONST>
1

>  <SCORE.INTER.POLAR>
0

>  <SCORE.INTER.ROT>
9

>  <SCORE.INTER.SOLV>
23.1846

>  <SCORE.INTER.VDW>
-19.8023

>  <SCORE.INTER.norm>
-0.0883618

>  <SCORE.INTRA>
-4.90551

>  <SCORE.INTRA.DIHEDRAL>
-17.5069

>  <SCORE.INTRA.DIHEDRAL.0>
27.8999

>  <SCORE.INTRA.POLAR>
0

>  <SCORE.INTRA.POLAR.0>
0

>  <SCORE.INTRA.REPUL>
0

>  <SCORE.INTRA.REPUL.0>
0

>  <SCORE.INTRA.SOLV>
0.96725

>  <SCORE.INTRA.SOLV.lig_0>
-104.479

>  <SCORE.INTRA.VDW>
3.3643

>  <SCORE.INTRA.VDW.0>
-6.17816

>  <SCORE.INTRA.norm>
-0.116798

>  <SCORE.RESTR>
9.93508

>  <SCORE.RESTR.CAVITY>
9.93508

>  <SCORE.RESTR.norm>
0.23655

>  <SCORE.SYSTEM>
0

>  <SCORE.SYSTEM.CONST>
0

>  <SCORE.SYSTEM.DIHEDRAL>
0

>  <SCORE.SYSTEM.SOLV>
0

>  <SCORE.SYSTEM.norm>
0

>  <SCORE.heavy>
42

>  <SCORE.norm>
0.0313897

>  <RMSD>
17.050

$$$$
2o3w_lig
 OpenBabel11021811463D
libRbt.so/2013.1/901 2013/11/27
 42 45  0  0  0  0  0  0  0  0999 V2000
   11.4951   11.5011   -9.4638 C   0  0  2  0  0  0  0  0  0  0  0  0
   11.7980   11.0491   -8.1329 O   0  0  0  0  0  0  0  0  0  0  0  0
   14.0861   13.0586   -5.0470 C   0  0  2  0  0  0  0  0  0  0  0  0
   15.2024   13.6841   -4.2769 N   0  0  0  0  0  0  0  0  0  0  0  0
   11.8983   14.6087   -9.1749 C   0  0  1  0  0  0  0  0  0  0  0  0
    8.4066   16.5268  -11.1208 C   0  0  1  0  0  0  0  0  0  0  0  0
   10.6680   10.3729  -10.1503 C   0  0  2  0  0  0  0  0  0  0  0  0
    9.5407    9.9152   -9.3194 N   0  0  0  0  0  0  0  0  0  0  0  0
   14.3255   11.5081   -5.2477 C   0  0  0  0  0  0  0  0  0  0  0  0
   11.4022   14.2695  -10.6135 C   0  0  2  0  0  0  0  0  0  0  0  0
   12.1769   14.8939  -11.6666 O   0  0  0  0  0  0  0  0  0  0  0  0
    8.2525   17.7631  -12.0782 C   0  0  2  0  0  0  0  0  0  0  0  0
    9.0778   18.9131  -11.6015 N   0  0  0  0  0  0  0  0  0  0  0  0
   11.5221    9.1308  -10.4644 C   0  0  1  0  0  0  0  0  0  0  0  0
   10.7344    8.1403  -11.1273 O   0  0  0  0  0  0  0  0  0  0  0  0
   13.1082   10.9027   -6.0442 C   0  0  2  0  0  0  0  0  0  0  0  0
   13.2936    9.4393   -6.2389 N   0  0  0  0  0  0  0  0  0  0  0  0
    9.9353   14.6944  -10.5297 C   0  0  2  0  0  0  0  0  0  0  0  0
    9.7575   16.0940  -10.9174 O   0  0  0  0  0  0  0  0  0  0  0  0
    6.7051   18.1666  -12.1758 C   0  0  1  0  0  0  0  0  0  0  0  0
    6.0162   17.1846  -12.9820 O   0  0  0  0  0  0  0  0  0  0  0  0
   12.7418    9.5463  -11.3181 C   0  0  2  0  0  0  0  0  0  0  0  0
   13.5252    8.4174  -11.6285 O   0  0  0  0  0  0  0  0  0  0  0  0
   12.9551   11.6091   -7.4490 C   0  0  2  0  0  0  0  0  0  0  0  0
    9.5087   14.4619   -9.0705 C   0  0  2  0  0  0  0  0  0  0  0  0
   10.7164   14.6785   -8.3446 O   0  0  0  0  0  0  0  0  0  0  0  0
    5.9986   18.2736  -10.7416 C   0  0  2  0  0  0  0  0  0  0  0  0
    6.5400   19.4154  -10.0787 O   0  0  0  0  0  0  0  0  0  0  0  0
   13.5829   10.6026  -10.5267 C   0  0  2  0  0  0  0  0  0  0  0  0
   12.7461   11.7593  -10.2082 O   0  0  0  0  0  0  0  0  0  0  0  0
   12.7737   13.1385   -7.3335 C   0  0  2  0  0  0  0  0  0  0  0  0
   12.8363   13.6347   -8.6990 O   0  0  0  0  0  0  0  0  0  0  0  0
    8.9216   13.0471   -8.7739 C   0  0  0  0  0  0  0  0  0  0  0  0
    8.6875   12.3676  -10.0037 O   0  0  0  0  0  0  0  0  0  0  0  0
    6.2642   16.9733   -9.8927 C   0  0  1  0  0  0  0  0  0  0  0  0
    7.7281   16.8353   -9.8027 O   0  0  0  0  0  0  0  0  0  0  0  0
   14.7977   11.0716  -11.2937 C   0  0  0  0  0  0  0  0  0  0  0  0
   14.4030   11.7123  -12.4823 O   0  0  0  0  0  0  0  0  0  0  0  0
   13.9358   13.7644   -6.4541 C   0  0  1  0  0  0  0  0  0  0  0  0
   13.6852   15.1531   -6.2214 O   0  0  0  0  0  0  0  0  0  0  0  0
    5.6249   17.0083   -8.4371 C   0  0  0  0  0  0  0  0  0  0  0  0
    5.4374   15.6827   -7.7859 N   0  0  0  0  0  0  0  0  0  0  0  0
  1  2  1  1  0  0  0
  1  7  1  0  0  0  0
  1 30  1  0  0  0  0
  3  4  1  6  0  0  0
  3  9  1  0  0  0  0
  3 39  1  0  0  0  0
  5 10  1  0  0  0  0
  5 26  1  0  0  0  0
  5 32  1  1  0  0  0
  6 12  1  0  0  0  0
  6 36  1  0  0  0  0
  6 19  1  1  0  0  0
  7  8  1  1  0  0  0
  7 14  1  0  0  0  0
  9 16  1  0  0  0  0
 10 11  1  6  0  0  0
 10 18  1  0  0  0  0
 12 13  1  1  0  0  0
 12 20  1  0  0  0  0
 14 15  1  6  0  0  0
 14 22  1  0  0  0  0
 16 17  1  6  0  0  0
 16 24  1  0  0  0  0
 18 19  1  1  0  0  0
 18 25  1  0  0  0  0
 20 21  1  6  0  0  0
 20 27  1  0  0  0  0
 22 23  1  1  0  0  0
 22 29  1  0  0  0  0
 24  2  1  1  0  0  0
 24 31  1  0  0  0  0
 25 26  1  0  0  0  0
 25 33  1  6  0  0  0
 27 28  1  1  0  0  0
 27 35  1  0  0  0  0
 29 30  1  0  0  0  0
 29 37  1  6  0  0  0
 31 32  1  6  0  0  0
 31 39  1  0  0  0  0
 33 34  1  0  0  0  0
 35 36  1  0  0  0  0
 35 41  1  1  0  0  0
 37 38  1  0  0  0  0
 39 40  1  1  0  0  0
 41 42  1  0  0  0  0
M  END
>  <CHROM.1>
156.12459532,-137.67863959,-155.47722102,168.56717408,-177.28067082,-10.74087240
62.26236432,135.47368097,159.87771235,10.78199870,13.59607695,-9.43660460
0.32470946,0.79029216,-2.32807832

>  <Name>
2o3w_lig

>  <RI>
0

>  <Rbt.Current_Directory>
/home/itssahil/PROJECTS/Mol_Feturizer/New_Systems/rnas/2o3w

>  <Rbt.Executable>
rbdock ($Id: //depot/dev/client3/rdock/2013.1/src/exe/rbdock.cxx#4 $)

>  <Rbt.Library>
libRbt.so (2013.1, Build901 2013/11/27)

>  <Rbt.Parameter_File>
/export/apps/rDock/src/rDock_2013.1_src/data/scripts/dock_solv.prm

>  <Rbt.Receptor>
prm/blind_docking_100.prm

>  <SCORE>
12.3518

>  <SCORE.INTER>
-0.32137

>  <SCORE.INTER.CONST>
1

>  <SCORE.INTER.POLAR>
-0.53934

>  <SCORE.INTER.ROT>
9

>  <SCORE.INTER.SOLV>
27.5797

>  <SCORE.INTER.VDW>
-17.2097

>  <SCORE.INTER.norm>
-0.00765166

>  <SCORE.INTRA>
0.726394

>  <SCORE.INTRA.DIHEDRAL>
-4.09156

>  <SCORE.INTRA.DIHEDRAL.0>
27.8999

>  <SCORE.INTRA.POLAR>
0

>  <SCORE.INTRA.POLAR.0>
0

>  <SCORE.INTRA.REPUL>
0.0358266

>  <SCORE.INTRA.REPUL.0>
0

>  <SCORE.INTRA.SOLV>
-2.44847

>  <SCORE.INTRA.SOLV.lig_0>
-104.479

>  <SCORE.INTRA.VDW>
3.81727

>  <SCORE.INTRA.VDW.0>
-6.17816

>  <SCORE.INTRA.norm>
0.0172951

>  <SCORE.RESTR>
11.9468

>  <SCORE.RESTR.CAVITY>
11.9468

>  <SCORE.RESTR.norm>
0.284447

>  <SCORE.SYSTEM>
0

>  <SCORE.SYSTEM.CONST>
0

>  <SCORE.SYSTEM.DIHEDRAL>
0

>  <SCORE.SYSTEM.SOLV>
0

>  <SCORE.SYSTEM.norm>
0

>  <SCORE.heavy>
42

>  <SCORE.norm>
0.294091

>  <RMSD>
17.061

$$$$
2o3w_lig
 OpenBabel11021811463D
libRbt.so/2013.1/901 2013/11/27
 42 45  0  0  0  0  0  0  0  0999 V2000
   -4.5681    9.7852    9.9755 C   0  0  2  0  0  0  0  0  0  0  0  0
   -3.6289    8.7888    9.5369 O   0  0  0  0  0  0  0  0  0  0  0  0
   -6.2283    5.9414    7.5541 C   0  0  2  0  0  0  0  0  0  0  0  0
   -6.7597    4.9025    6.6221 N   0  0  0  0  0  0  0  0  0  0  0  0
   -2.8225    4.7316   10.3470 C   0  0  1  0  0  0  0  0  0  0  0  0
   -1.8855    1.6071   13.4722 C   0  0  1  0  0  0  0  0  0  0  0  0
   -3.7690   10.8240   10.8185 C   0  0  2  0  0  0  0  0  0  0  0  0
   -2.5559   11.2963   10.1286 N   0  0  0  0  0  0  0  0  0  0  0  0
   -5.8800    7.2787    6.7846 C   0  0  0  0  0  0  0  0  0  0  0  0
   -1.8562    4.7957   11.5688 C   0  0  2  0  0  0  0  0  0  0  0  0
   -0.4688    4.5425   11.2369 O   0  0  0  0  0  0  0  0  0  0  0  0
   -2.9684    1.9017   14.5719 C   0  0  2  0  0  0  0  0  0  0  0  0
   -2.9378    3.3384   14.9793 N   0  0  0  0  0  0  0  0  0  0  0  0
   -3.3154   10.2515   12.1740 C   0  0  1  0  0  0  0  0  0  0  0  0
   -2.6229   11.2479   12.9280 O   0  0  0  0  0  0  0  0  0  0  0  0
   -5.3475    8.3397    7.8206 C   0  0  2  0  0  0  0  0  0  0  0  0
   -5.0231    9.6179    7.1318 N   0  0  0  0  0  0  0  0  0  0  0  0
   -2.5060    3.7847   12.5148 C   0  0  2  0  0  0  0  0  0  0  0  0
   -1.9769    2.4365   12.3071 O   0  0  0  0  0  0  0  0  0  0  0  0
   -2.7192    0.9413   15.8299 C   0  0  1  0  0  0  0  0  0  0  0  0
   -3.1279   -0.4005   15.4815 O   0  0  0  0  0  0  0  0  0  0  0  0
   -4.5434    9.7135   12.9434 C   0  0  2  0  0  0  0  0  0  0  0  0
   -4.1471    9.2009   14.1942 O   0  0  0  0  0  0  0  0  0  0  0  0
   -4.0631    7.7969    8.5633 C   0  0  2  0  0  0  0  0  0  0  0  0
   -4.0154    3.8417   12.2251 C   0  0  2  0  0  0  0  0  0  0  0  0
   -4.0642    4.1789   10.8408 O   0  0  0  0  0  0  0  0  0  0  0  0
   -1.1904    0.9285   16.3095 C   0  0  2  0  0  0  0  0  0  0  0  0
   -0.9063    2.2064   16.8775 O   0  0  0  0  0  0  0  0  0  0  0  0
   -5.2372    8.6034   12.0854 C   0  0  2  0  0  0  0  0  0  0  0  0
   -5.6302    9.1569   10.7897 O   0  0  0  0  0  0  0  0  0  0  0  0
   -4.3138    6.4590    9.2930 C   0  0  2  0  0  0  0  0  0  0  0  0
   -3.0048    6.0233    9.7525 O   0  0  0  0  0  0  0  0  0  0  0  0
   -4.8116    4.8737   13.0826 C   0  0  0  0  0  0  0  0  0  0  0  0
   -4.1835    6.1486   12.9874 O   0  0  0  0  0  0  0  0  0  0  0  0
   -0.2288    0.6462   15.0939 C   0  0  1  0  0  0  0  0  0  0  0  0
   -0.5094    1.6949   14.0980 O   0  0  0  0  0  0  0  0  0  0  0  0
   -6.4575    8.0233   12.7622 C   0  0  0  0  0  0  0  0  0  0  0  0
   -6.1026    7.4585   14.0009 O   0  0  0  0  0  0  0  0  0  0  0  0
   -4.9409    5.3982    8.2945 C   0  0  1  0  0  0  0  0  0  0  0  0
   -5.3125    4.2128    9.0034 O   0  0  0  0  0  0  0  0  0  0  0  0
    1.3150    0.6491   15.4750 C   0  0  0  0  0  0  0  0  0  0  0  0
    2.2563    0.4264   14.3433 N   0  0  0  0  0  0  0  0  0  0  0  0
  1  2  1  1  0  0  0
  1  7  1  0  0  0  0
  1 30  1  0  0  0  0
  3  4  1  6  0  0  0
  3  9  1  0  0  0  0
  3 39  1  0  0  0  0
  5 10  1  0  0  0  0
  5 26  1  0  0  0  0
  5 32  1  1  0  0  0
  6 12  1  0  0  0  0
  6 36  1  0  0  0  0
  6 19  1  6  0  0  0
  7  8  1  6  0  0  0
  7 14  1  0  0  0  0
  9 16  1  0  0  0  0
 10 11  1  6  0  0  0
 10 18  1  0  0  0  0
 12 13  1  1  0  0  0
 12 20  1  0  0  0  0
 14 15  1  1  0  0  0
 14 22  1  0  0  0  0
 16 17  1  6  0  0  0
 16 24  1  0  0  0  0
 18 19  1  6  0  0  0
 18 25  1  0  0  0  0
 20 21  1  6  0  0  0
 20 27  1  0  0  0  0
 22 23  1  1  0  0  0
 22 29  1  0  0  0  0
 24  2  1  1  0  0  0
 24 31  1  0  0  0  0
 25 26  1  0  0  0  0
 25 33  1  1  0  0  0
 27 28  1  6  0  0  0
 27 35  1  0  0  0  0
 29 30  1  0  0  0  0
 29 37  1  1  0  0  0
 31 32  1  6  0  0  0
 31 39  1  0  0  0  0
 33 34  1  0  0  0  0
 35 36  1  0  0  0  0
 35 41  1  1  0  0  0
 37 38  1  0  0  0  0
 39 40  1  1  0  0  0
 41 42  1  0  0  0  0
M  END
>  <CHROM.1>
-171.05708239,-139.27854548,30.22223960,146.52114571,19.71188792,52.04492317
-59.29881151,-172.86435499,-178.22724804,-3.39659536,5.55745128,11.86215710
-2.67452431,1.13514351,-2.69047006

>  <Name>
2o3w_lig

>  <RI>
0

>  <Rbt.Current_Directory>
/home/itssahil/PROJECTS/Mol_Feturizer/New_Systems/rnas/2o3w

>  <Rbt.Executable>
rbdock ($Id: //depot/dev/client3/rdock/2013.1/src/exe/rbdock.cxx#4 $)

>  <Rbt.Library>
libRbt.so (2013.1, Build901 2013/11/27)

>  <Rbt.Parameter_File>
/export/apps/rDock/src/rDock_2013.1_src/data/scripts/dock_solv.prm

>  <Rbt.Receptor>
prm/blind_docking_60.prm

>  <SCORE>
28.1848

>  <SCORE.INTER>
7.43334

>  <SCORE.INTER.CONST>
1

>  <SCORE.INTER.POLAR>
-0.728763

>  <SCORE.INTER.ROT>
9

>  <SCORE.INTER.SOLV>
24.9002

>  <SCORE.INTER.VDW>
-10.5153

>  <SCORE.INTER.norm>
0.176984

>  <SCORE.INTRA>
6.56434

>  <SCORE.INTRA.DIHEDRAL>
-8.22176

>  <SCORE.INTRA.DIHEDRAL.0>
27.8999

>  <SCORE.INTRA.POLAR>
0

>  <SCORE.INTRA.POLAR.0>
0

>  <SCORE.INTRA.REPUL>
0

>  <SCORE.INTRA.REPUL.0>
0

>  <SCORE.INTRA.SOLV>
1.38462

>  <SCORE.INTRA.SOLV.lig_0>
-104.479

>  <SCORE.INTRA.VDW>
9.98291

>  <SCORE.INTRA.VDW.0>
-6.17816

>  <SCORE.INTRA.norm>
0.156294

>  <SCORE.RESTR>
14.1872

>  <SCORE.RESTR.CAVITY>
14.1872

>  <SCORE.RESTR.norm>
0.337789

>  <SCORE.SYSTEM>
0

>  <SCORE.SYSTEM.CONST>
0

>  <SCORE.SYSTEM.DIHEDRAL>
0

>  <SCORE.SYSTEM.SOLV>
0

>  <SCORE.SYSTEM.norm>
0

>  <SCORE.heavy>
42

>  <SCORE.norm>
0.671067

>  <RMSD>
17.063

$$$$
2o3w_lig
 OpenBabel11021811463D
libRbt.so/2013.1/901 2013/11/27
 42 45  0  0  0  0  0  0  0  0999 V2000
   -6.8956    9.1153   11.5811 C   0  0  2  0  0  0  0  0  0  0  0  0
   -6.1238    9.0838   12.7938 O   0  0  0  0  0  0  0  0  0  0  0  0
   -2.4475   10.7921   11.2567 C   0  0  2  0  0  0  0  0  0  0  0  0
   -1.0924   11.4128   11.1620 N   0  0  0  0  0  0  0  0  0  0  0  0
   -3.0089    6.4238   12.8633 C   0  0  1  0  0  0  0  0  0  0  0  0
   -1.4046    2.3959   13.8089 C   0  0  1  0  0  0  0  0  0  0  0  0
   -7.8136    7.8562   11.5931 C   0  0  2  0  0  0  0  0  0  0  0  0
   -8.5514    7.7086   12.8598 N   0  0  0  0  0  0  0  0  0  0  0  0
   -3.4798   11.7705   11.9486 C   0  0  0  0  0  0  0  0  0  0  0  0
   -2.9702    5.4547   14.0840 C   0  0  2  0  0  0  0  0  0  0  0  0
   -1.7933    5.6016   14.9160 O   0  0  0  0  0  0  0  0  0  0  0  0
   -1.0933    2.7155   15.3155 C   0  0  2  0  0  0  0  0  0  0  0  0
   -0.0824    3.8090   15.4309 N   0  0  0  0  0  0  0  0  0  0  0  0
   -7.0205    6.5528   11.3859 C   0  0  1  0  0  0  0  0  0  0  0  0
   -7.9044    5.4308   11.3643 O   0  0  0  0  0  0  0  0  0  0  0  0
   -4.8908   11.0710   11.9991 C   0  0  2  0  0  0  0  0  0  0  0  0
   -5.8921   11.9710   12.6322 N   0  0  0  0  0  0  0  0  0  0  0  0
   -3.1274    4.0995   13.3925 C   0  0  2  0  0  0  0  0  0  0  0  0
   -1.8304    3.5243   13.0350 O   0  0  0  0  0  0  0  0  0  0  0  0
   -0.5849    1.3825   16.0445 C   0  0  1  0  0  0  0  0  0  0  0  0
   -1.7117    0.4991   16.2417 O   0  0  0  0  0  0  0  0  0  0  0  0
   -6.2004    6.6505   10.0793 C   0  0  2  0  0  0  0  0  0  0  0  0
   -5.4812    5.4581    9.8663 O   0  0  0  0  0  0  0  0  0  0  0  0
   -4.8116    9.7151   12.8059 C   0  0  2  0  0  0  0  0  0  0  0  0
   -3.9860    4.3577   12.1429 C   0  0  2  0  0  0  0  0  0  0  0  0
   -3.6404    5.6940   11.7863 O   0  0  0  0  0  0  0  0  0  0  0  0
    0.5568    0.6189   15.2193 C   0  0  2  0  0  0  0  0  0  0  0  0
    1.7338    1.4245   15.2655 O   0  0  0  0  0  0  0  0  0  0  0  0
   -5.2279    7.8729   10.1771 C   0  0  2  0  0  0  0  0  0  0  0  0
   -5.9966    9.0959   10.4076 O   0  0  0  0  0  0  0  0  0  0  0  0
   -3.7786    8.7283   12.2190 C   0  0  2  0  0  0  0  0  0  0  0  0
   -3.7068    7.6362   13.1764 O   0  0  0  0  0  0  0  0  0  0  0  0
   -5.5244    4.2148   12.3604 C   0  0  0  0  0  0  0  0  0  0  0  0
   -5.8033    2.9355   12.9212 O   0  0  0  0  0  0  0  0  0  0  0  0
    0.1076    0.3949   13.7259 C   0  0  1  0  0  0  0  0  0  0  0  0
   -0.1955    1.7312   13.1849 O   0  0  0  0  0  0  0  0  0  0  0  0
   -4.3873    8.0482    8.9335 C   0  0  0  0  0  0  0  0  0  0  0  0
   -3.3103    8.9149    9.1945 O   0  0  0  0  0  0  0  0  0  0  0  0
   -2.3676    9.4366   12.0672 C   0  0  1  0  0  0  0  0  0  0  0  0
   -1.4531    8.5736   11.3857 O   0  0  0  0  0  0  0  0  0  0  0  0
    1.1983   -0.3290   12.8232 C   0  0  0  0  0  0  0  0  0  0  0  0
    1.3268   -1.7984   13.0254 N   0  0  0  0  0  0  0  0  0  0  0  0
  1  2  1  1  0  0  0
  1  7  1  0  0  0  0
  1 30  1  0  0  0  0
  3  4  1  1  0  0  0
  3  9  1  0  0  0  0
  3 39  1  0  0  0  0
  5 10  1  0  0  0  0
  5 26  1  0  0  0  0
  5 32  1  1  0  0  0
  6 12  1  0  0  0  0
  6 36  1  0  0  0  0
  6 19  1  6  0  0  0
  7  8  1  1  0  0  0
  7 14  1  0  0  0  0
  9 16  1  0  0  0  0
 10 11  1  6  0  0  0
 10 18  1  0  0  0  0
 12 13  1  6  0  0  0
 12 20  1  0  0  0  0
 14 15  1  6  0  0  0
 14 22  1  0  0  0  0
 16 17  1  1  0  0  0
 16 24  1  0  0  0  0
 18 19  1  6  0  0  0
 18 25  1  0  0  0  0
 20 21  1  6  0  0  0
 20 27  1  0  0  0  0
 22 23  1  1  0  0  0
 22 29  1  0  0  0  0
 24  2  1  6  0  0  0
 24 31  1  0  0  0  0
 25 26  1  0  0  0  0
 25 33  1  1  0  0  0
 27 28  1  6  0  0  0
 27 35  1  0  0  0  0
 29 30  1  0  0  0  0
 29 37  1  6  0  0  0
 31 32  1  1  0  0  0
 31 39  1  0  0  0  0
 33 34  1  0  0  0  0
 35 36  1  0  0  0  0
 35 41  1  6  0  0  0
 37 38  1  0  0  0  0
 39 40  1  6  0  0  0
 41 42  1  0  0  0  0
M  END
>  <CHROM.1>
152.04456889,175.28622899,-66.73319947,108.21092903,40.40909264,-54.20128513
-164.71835461,169.72805091,76.76177260,-3.34475443,5.87656813,12.57612039
2.11270263,-0.25244383,-0.20128211

>  <Name>
2o3w_lig

>  <RI>
0

>  <Rbt.Current_Directory>
/home/itssahil/PROJECTS/Mol_Feturizer/New_Systems/rnas/2o3w

>  <Rbt.Executable>
rbdock ($Id: //depot/dev/client3/rdock/2013.1/src/exe/rbdock.cxx#4 $)

>  <Rbt.Library>
libRbt.so (2013.1, Build901 2013/11/27)

>  <Rbt.Parameter_File>
/export/apps/rDock/src/rDock_2013.1_src/data/scripts/dock_solv.prm

>  <Rbt.Receptor>
prm/blind_docking_60.prm

>  <SCORE>
15.3237

>  <SCORE.INTER>
1.92167

>  <SCORE.INTER.CONST>
1

>  <SCORE.INTER.POLAR>
-0.335887

>  <SCORE.INTER.ROT>
9

>  <SCORE.INTER.SOLV>
28.9464

>  <SCORE.INTER.VDW>
-16.8481

>  <SCORE.INTER.norm>
0.045754

>  <SCORE.INTRA>
-1.4479

>  <SCORE.INTRA.DIHEDRAL>
-13.5914

>  <SCORE.INTRA.DIHEDRAL.0>
27.8999

>  <SCORE.INTRA.POLAR>
0

>  <SCORE.INTRA.POLAR.0>
0

>  <SCORE.INTRA.REPUL>
0

>  <SCORE.INTRA.REPUL.0>
0

>  <SCORE.INTRA.SOLV>
0.553348

>  <SCORE.INTRA.SOLV.lig_0>
-104.479

>  <SCORE.INTRA.VDW>
5.07112

>  <SCORE.INTRA.VDW.0>
-6.17816

>  <SCORE.INTRA.norm>
-0.0344739

>  <SCORE.RESTR>
14.8499

>  <SCORE.RESTR.CAVITY>
14.8499

>  <SCORE.RESTR.norm>
0.35357

>  <SCORE.SYSTEM>
0

>  <SCORE.SYSTEM.CONST>
0

>  <SCORE.SYSTEM.DIHEDRAL>
0

>  <SCORE.SYSTEM.SOLV>
0

>  <SCORE.SYSTEM.norm>
0

>  <SCORE.heavy>
42

>  <SCORE.norm>
0.36485

>  <RMSD>
17.089

$$$$
2o3w_lig
 OpenBabel11021811463D
libRbt.so/2013.1/901 2013/11/27
 42 45  0  0  0  0  0  0  0  0999 V2000
   -4.4747    8.7643   12.9734 C   0  0  2  0  0  0  0  0  0  0  0  0
   -4.1262    7.4789   13.5153 O   0  0  0  0  0  0  0  0  0  0  0  0
   -3.4148    5.3503    9.8060 C   0  0  2  0  0  0  0  0  0  0  0  0
   -2.9631    4.3374    8.8058 N   0  0  0  0  0  0  0  0  0  0  0  0
   -4.6526    4.0004   13.8844 C   0  0  1  0  0  0  0  0  0  0  0  0
   -1.4793    0.9125   14.7976 C   0  0  1  0  0  0  0  0  0  0  0  0
   -5.5584    9.3751   13.9119 C   0  0  2  0  0  0  0  0  0  0  0  0
   -5.1684    9.3238   15.3317 N   0  0  0  0  0  0  0  0  0  0  0  0
   -2.1837    6.0739   10.4862 C   0  0  0  0  0  0  0  0  0  0  0  0
   -3.8887    3.0221   12.9409 C   0  0  2  0  0  0  0  0  0  0  0  0
   -4.6227    1.8132   12.6264 O   0  0  0  0  0  0  0  0  0  0  0  0
   -0.2893    1.6757   15.4834 C   0  0  2  0  0  0  0  0  0  0  0  0
    0.0324    2.9344   14.7465 N   0  0  0  0  0  0  0  0  0  0  0  0
   -6.9100    8.6467   13.7954 C   0  0  1  0  0  0  0  0  0  0  0  0
   -7.8819    9.2635   14.6415 O   0  0  0  0  0  0  0  0  0  0  0  0
   -2.7224    7.1425   11.5110 C   0  0  2  0  0  0  0  0  0  0  0  0
   -1.5886    7.8542   12.1604 N   0  0  0  0  0  0  0  0  0  0  0  0
   -2.5839    2.8225   13.7135 C   0  0  2  0  0  0  0  0  0  0  0  0
   -2.6723    1.6896   14.6352 O   0  0  0  0  0  0  0  0  0  0  0  0
    0.9866    0.7094   15.5562 C   0  0  1  0  0  0  0  0  0  0  0  0
    0.7581   -0.2900   16.5750 O   0  0  0  0  0  0  0  0  0  0  0  0
   -7.3681    8.6428   12.3191 C   0  0  2  0  0  0  0  0  0  0  0  0
   -8.6126    7.9940   12.1979 O   0  0  0  0  0  0  0  0  0  0  0  0
   -3.6179    6.4534   12.6151 C   0  0  2  0  0  0  0  0  0  0  0  0
   -2.3329    4.1380   14.4698 C   0  0  2  0  0  0  0  0  0  0  0  0
   -3.6508    4.6183   14.7245 O   0  0  0  0  0  0  0  0  0  0  0  0
    1.3019   -0.0108   14.1600 C   0  0  2  0  0  0  0  0  0  0  0  0
    1.7651    0.9897   13.2540 O   0  0  0  0  0  0  0  0  0  0  0  0
   -6.2829    7.9243   11.4498 C   0  0  2  0  0  0  0  0  0  0  0  0
   -4.9994    8.6098   11.5998 O   0  0  0  0  0  0  0  0  0  0  0  0
   -4.8126    5.6774   12.0187 C   0  0  2  0  0  0  0  0  0  0  0  0
   -5.4055    4.9676   13.1409 O   0  0  0  0  0  0  0  0  0  0  0  0
   -1.4911    5.1951   13.6901 C   0  0  0  0  0  0  0  0  0  0  0  0
   -1.6651    6.4734   14.2940 O   0  0  0  0  0  0  0  0  0  0  0  0
    0.0090   -0.7069   13.5892 C   0  0  1  0  0  0  0  0  0  0  0  0
   -1.0082    0.3523   13.4720 O   0  0  0  0  0  0  0  0  0  0  0  0
   -6.6477    7.8802    9.9840 C   0  0  0  0  0  0  0  0  0  0  0  0
   -5.5919    7.3251    9.2380 O   0  0  0  0  0  0  0  0  0  0  0  0
   -4.3083    4.6589   10.9124 C   0  0  1  0  0  0  0  0  0  0  0  0
   -5.4242    4.0515   10.2555 O   0  0  0  0  0  0  0  0  0  0  0  0
    0.2241   -1.4201   12.1843 C   0  0  0  0  0  0  0  0  0  0  0  0
    0.5290   -0.5132   11.0436 N   0  0  0  0  0  0  0  0  0  0  0  0
  1  2  1  1  0  0  0
  1  7  1  0  0  0  0
  1 30  1  0  0  0  0
  3  4  1  6  0  0  0
  3  9  1  0  0  0  0
  3 39  1  0  0  0  0
  5 10  1  0  0  0  0
  5 26  1  0  0  0  0
  5 32  1  6  0  0  0
  6 12  1  0  0  0  0
  6 36  1  0  0  0  0
  6 19  1  6  0  0  0
  7  8  1  1  0  0  0
  7 14  1  0  0  0  0
  9 16  1  0  0  0  0
 10 11  1  1  0  0  0
 10 18  1  0  0  0  0
 12 13  1  6  0  0  0
 12 20  1  0  0  0  0
 14 15  1  1  0  0  0
 14 22  1  0  0  0  0
 16 17  1  1  0  0  0
 16 24  1  0  0  0  0
 18 19  1  1  0  0  0
 18 25  1  0  0  0  0
 20 21  1  1  0  0  0
 20 27  1  0  0  0  0
 22 23  1  1  0  0  0
 22 29  1  0  0  0  0
 24  2  1  1  0  0  0
 24 31  1  0  0  0  0
 25 26  1  0  0  0  0
 25 33  1  6  0  0  0
 27 28  1  6  0  0  0
 27 35  1  0  0  0  0
 29 30  1  0  0  0  0
 29 37  1  6  0  0  0
 31 32  1  1  0  0  0
 31 39  1  0  0  0  0
 33 34  1  0  0  0  0
 35 36  1  0  0  0  0
 35 41  1  6  0  0  0
 37 38  1  0  0  0  0
 39 40  1  6  0  0  0
 41 42  1  0  0  0  0
M  END
>  <CHROM.1>
153.54478332,-46.42703926,66.09697136,144.09967351,36.00182570,162.63297406
175.15618973,-60.83301634,-65.98761177,-3.23431384,4.67048723,12.92044471
-3.00254780,0.90677013,-1.96033048

>  <Name>
2o3w_lig

>  <RI>
0

>  <Rbt.Current_Directory>
/home/itssahil/PROJECTS/Mol_Feturizer/New_Systems/rnas/2o3w

>  <Rbt.Executable>
rbdock ($Id: //depot/dev/client3/rdock/2013.1/src/exe/rbdock.cxx#4 $)

>  <Rbt.Library>
libRbt.so (2013.1, Build901 2013/11/27)

>  <Rbt.Parameter_File>
/export/apps/rDock/src/rDock_2013.1_src/data/scripts/dock_solv.prm

>  <Rbt.Receptor>
prm/blind_docking_60.prm

>  <SCORE>
23.0006

>  <SCORE.INTER>
0.800445

>  <SCORE.INTER.CONST>
1

>  <SCORE.INTER.POLAR>
-1.40087

>  <SCORE.INTER.ROT>
9

>  <SCORE.INTER.SOLV>
34.8821

>  <SCORE.INTER.VDW>
-16.0242

>  <SCORE.INTER.norm>
0.0190582

>  <SCORE.INTRA>
7.36271

>  <SCORE.INTRA.DIHEDRAL>
-15.3857

>  <SCORE.INTRA.DIHEDRAL.0>
27.8999

>  <SCORE.INTRA.POLAR>
0

>  <SCORE.INTRA.POLAR.0>
0

>  <SCORE.INTRA.REPUL>
0

>  <SCORE.INTRA.REPUL.0>
0

>  <SCORE.INTRA.SOLV>
5.79971

>  <SCORE.INTRA.SOLV.lig_0>
-104.479

>  <SCORE.INTRA.VDW>
12.1557

>  <SCORE.INTRA.VDW.0>
-6.17816

>  <SCORE.INTRA.norm>
0.175303

>  <SCORE.RESTR>
14.8374

>  <SCORE.RESTR.CAVITY>
14.8374

>  <SCORE.RESTR.norm>
0.353272

>  <SCORE.SYSTEM>
0

>  <SCORE.SYSTEM.CONST>
0

>  <SCORE.SYSTEM.DIHEDRAL>
0

>  <SCORE.SYSTEM.SOLV>
0

>  <SCORE.SYSTEM.norm>
0

>  <SCORE.heavy>
42

>  <SCORE.norm>
0.547633

>  <RMSD>
17.109

$$$$
2o3w_lig
 OpenBabel11021811463D
libRbt.so/2013.1/901 2013/11/27
 42 45  0  0  0  0  0  0  0  0999 V2000
   -3.1648    8.5190   11.6388 C   0  0  2  0  0  0  0  0  0  0  0  0
   -4.0906    8.2268   10.5782 O   0  0  0  0  0  0  0  0  0  0  0  0
   -6.7370    4.8549    9.9283 C   0  0  2  0  0  0  0  0  0  0  0  0
   -7.2643    3.4712    9.7333 N   0  0  0  0  0  0  0  0  0  0  0  0
   -3.2961    5.5264   12.7075 C   0  0  1  0  0  0  0  0  0  0  0  0
   -0.1713    2.7039   14.3624 C   0  0  1  0  0  0  0  0  0  0  0  0
   -3.9546    9.3037   12.7289 C   0  0  2  0  0  0  0  0  0  0  0  0
   -5.2170    8.6399   13.0980 N   0  0  0  0  0  0  0  0  0  0  0  0
   -5.7780    5.2759    8.7430 C   0  0  0  0  0  0  0  0  0  0  0  0
   -2.8024    5.2388   14.1581 C   0  0  2  0  0  0  0  0  0  0  0  0
   -1.7942    6.1650   14.6320 O   0  0  0  0  0  0  0  0  0  0  0  0
    0.8686    1.9275   13.4765 C   0  0  2  0  0  0  0  0  0  0  0  0
    0.1972    1.2785   12.3109 N   0  0  0  0  0  0  0  0  0  0  0  0
   -4.3181   10.7294   12.2745 C   0  0  1  0  0  0  0  0  0  0  0  0
   -5.0046   11.4239   13.3172 O   0  0  0  0  0  0  0  0  0  0  0  0
   -5.2736    6.7475    8.9929 C   0  0  2  0  0  0  0  0  0  0  0  0
   -4.3784    7.1825    7.8870 N   0  0  0  0  0  0  0  0  0  0  0  0
   -2.3572    3.7805   14.0367 C   0  0  2  0  0  0  0  0  0  0  0  0
   -0.9485    3.6781   13.6549 O   0  0  0  0  0  0  0  0  0  0  0  0
    1.6280    0.8439   14.3799 C   0  0  1  0  0  0  0  0  0  0  0  0
    2.5572    1.5292   15.2494 O   0  0  0  0  0  0  0  0  0  0  0  0
   -3.0346   11.4776   11.8480 C   0  0  2  0  0  0  0  0  0  0  0  0
   -3.3483   12.7904   11.4449 O   0  0  0  0  0  0  0  0  0  0  0  0
   -4.5031    6.8461   10.3686 C   0  0  2  0  0  0  0  0  0  0  0  0
   -3.2701    3.1451   12.9744 C   0  0  2  0  0  0  0  0  0  0  0  0
   -3.5626    4.2381   12.1071 O   0  0  0  0  0  0  0  0  0  0  0  0
    0.6260   -0.0444   15.2598 C   0  0  2  0  0  0  0  0  0  0  0  0
   -0.0986   -0.8891   14.3665 O   0  0  0  0  0  0  0  0  0  0  0  0
   -2.3481   10.6903   10.6824 C   0  0  2  0  0  0  0  0  0  0  0  0
   -2.0413    9.3292   11.1219 O   0  0  0  0  0  0  0  0  0  0  0  0
   -5.3625    6.3951   11.5700 C   0  0  2  0  0  0  0  0  0  0  0  0
   -4.4524    6.3737   12.7040 O   0  0  0  0  0  0  0  0  0  0  0  0
   -4.5792    2.5037   13.5302 C   0  0  0  0  0  0  0  0  0  0  0  0
   -4.2818    1.7879   14.7253 O   0  0  0  0  0  0  0  0  0  0  0  0
   -0.3669    0.8736   16.0682 C   0  0  1  0  0  0  0  0  0  0  0  0
   -1.0620    1.7038   15.0692 O   0  0  0  0  0  0  0  0  0  0  0  0
   -1.0755   11.3508   10.2050 C   0  0  0  0  0  0  0  0  0  0  0  0
   -1.3738   12.5531    9.5382 O   0  0  0  0  0  0  0  0  0  0  0  0
   -5.9633    4.9515   11.3040 C   0  0  1  0  0  0  0  0  0  0  0  0
   -6.8781    4.5983   12.3451 O   0  0  0  0  0  0  0  0  0  0  0  0
   -1.4223    0.0708   16.9458 C   0  0  0  0  0  0  0  0  0  0  0  0
   -2.5267   -0.5785   16.1874 N   0  0  0  0  0  0  0  0  0  0  0  0
  1  2  1  6  0  0  0
  1  7  1  0  0  0  0
  1 30  1  0  0  0  0
  3  4  1  6  0  0  0
  3  9  1  0  0  0  0
  3 39  1  0  0  0  0
  5 10  1  0  0  0  0
  5 26  1  0  0  0  0
  5 32  1  1  0  0  0
  6 12  1  0  0  0  0
  6 36  1  0  0  0  0
  6 19  1  6  0  0  0
  7  8  1  6  0  0  0
  7 14  1  0  0  0  0
  9 16  1  0  0  0  0
 10 11  1  6  0  0  0
 10 18  1  0  0  0  0
 12 13  1  6  0  0  0
 12 20  1  0  0  0  0
 14 15  1  1  0  0  0
 14 22  1  0  0  0  0
 16 17  1  6  0  0  0
 16 24  1  0  0  0  0
 18 19  1  6  0  0  0
 18 25  1  0  0  0  0
 20 21  1  1  0  0  0
 20 27  1  0  0  0  0
 22 23  1  6  0  0  0
 22 29  1  0  0  0  0
 24  2  1  1  0  0  0
 24 31  1  0  0  0  0
 25 26  1  0  0  0  0
 25 33  1  1  0  0  0
 27 28  1  6  0  0  0
 27 35  1  0  0  0  0
 29 30  1  0  0  0  0
 29 37  1  1  0  0  0
 31 32  1  1  0  0  0
 31 39  1  0  0  0  0
 33 34  1  0  0  0  0
 35 36  1  0  0  0  0
 35 41  1  6  0  0  0
 37 38  1  0  0  0  0
 39 40  1  1  0  0  0
 41 42  1  0  0  0  0
M  END
>  <CHROM.1>
-110.53387756,-157.66592139,141.12712048,136.42377213,-168.74568754,-42.09221216
-69.56273172,-60.29587159,-74.24577227,-2.89806514,5.43283821,12.59371973
-1.91637096,0.44624791,2.88352486

>  <Name>
2o3w_lig

>  <RI>
0

>  <Rbt.Current_Directory>
/home/itssahil/PROJECTS/Mol_Feturizer/New_Systems/rnas/2o3w

>  <Rbt.Executable>
rbdock ($Id: //depot/dev/client3/rdock/2013.1/src/exe/rbdock.cxx#4 $)

>  <Rbt.Library>
libRbt.so (2013.1, Build901 2013/11/27)

>  <Rbt.Parameter_File>
/export/apps/rDock/src/rDock_2013.1_src/data/scripts/dock_solv.prm

>  <Rbt.Receptor>
prm/blind_docking_60.prm

>  <SCORE>
9.82

>  <SCORE.INTER>
-3.9315

>  <SCORE.INTER.CONST>
1

>  <SCORE.INTER.POLAR>
-1.17509

>  <SCORE.INTER.ROT>
9

>  <SCORE.INTER.SOLV>
23.9304

>  <SCORE.INTER.VDW>
-16.2808

>  <SCORE.INTER.norm>
-0.0936071

>  <SCORE.INTRA>
2.63718

>  <SCORE.INTRA.DIHEDRAL>
-5.06643

>  <SCORE.INTRA.DIHEDRAL.0>
27.8999

>  <SCORE.INTRA.POLAR>
0

>  <SCORE.INTRA.POLAR.0>
0

>  <SCORE.INTRA.REPUL>
0

>  <SCORE.INTRA.REPUL.0>
0

>  <SCORE.INTRA.SOLV>
1.14516

>  <SCORE.INTRA.SOLV.lig_0>
-104.479

>  <SCORE.INTRA.VDW>
4.59781

>  <SCORE.INTRA.VDW.0>
-6.17816

>  <SCORE.INTRA.norm>
0.0627899

>  <SCORE.RESTR>
11.1143

>  <SCORE.RESTR.CAVITY>
11.1143

>  <SCORE.RESTR.norm>
0.264627

>  <SCORE.SYSTEM>
0

>  <SCORE.SYSTEM.CONST>
0

>  <SCORE.SYSTEM.DIHEDRAL>
0

>  <SCORE.SYSTEM.SOLV>
0

>  <SCORE.SYSTEM.norm>
0

>  <SCORE.heavy>
42

>  <SCORE.norm>
0.233809

>  <RMSD>
17.212

$$$$
2o3w_lig
 OpenBabel11021811463D
libRbt.so/2013.1/901 2013/11/27
 42 45  0  0  0  0  0  0  0  0999 V2000
   -4.9480    8.9252   10.9293 C   0  0  2  0  0  0  0  0  0  0  0  0
   -4.1221    7.7493   10.9785 O   0  0  0  0  0  0  0  0  0  0  0  0
   -7.0010    4.9388    9.3632 C   0  0  2  0  0  0  0  0  0  0  0  0
   -7.6398    3.7004    8.8257 N   0  0  0  0  0  0  0  0  0  0  0  0
   -4.0559    4.4349   12.6122 C   0  0  1  0  0  0  0  0  0  0  0  0
   -1.0455    1.6437   13.2588 C   0  0  1  0  0  0  0  0  0  0  0  0
   -4.0402   10.1348   11.3046 C   0  0  2  0  0  0  0  0  0  0  0  0
   -2.7849   10.1582   10.5337 N   0  0  0  0  0  0  0  0  0  0  0  0
   -5.8644    5.4641    8.3968 C   0  0  0  0  0  0  0  0  0  0  0  0
   -2.6782    4.7783   11.9681 C   0  0  2  0  0  0  0  0  0  0  0  0
   -2.6051    4.4979   10.5486 O   0  0  0  0  0  0  0  0  0  0  0  0
   -0.3710    2.2391   14.5470 C   0  0  2  0  0  0  0  0  0  0  0  0
    0.7485    3.1596   14.1861 N   0  0  0  0  0  0  0  0  0  0  0  0
   -3.6477   10.1310   12.7935 C   0  0  1  0  0  0  0  0  0  0  0  0
   -2.8506   11.2761   13.1007 O   0  0  0  0  0  0  0  0  0  0  0  0
   -5.2459    6.7798    9.0042 C   0  0  2  0  0  0  0  0  0  0  0  0
   -4.1807    7.3108    8.1115 N   0  0  0  0  0  0  0  0  0  0  0  0
   -1.7272    3.9706   12.8527 C   0  0  2  0  0  0  0  0  0  0  0  0
   -1.5144    2.6231   12.3236 O   0  0  0  0  0  0  0  0  0  0  0  0
    0.1463    1.0400   15.4752 C   0  0  1  0  0  0  0  0  0  0  0  0
   -0.9931    0.4096   16.1022 O   0  0  0  0  0  0  0  0  0  0  0  0
   -4.9245   10.0824   13.6632 C   0  0  2  0  0  0  0  0  0  0  0  0
   -4.5828   10.0953   15.0298 O   0  0  0  0  0  0  0  0  0  0  0  0
   -4.6456    6.5022   10.4389 C   0  0  2  0  0  0  0  0  0  0  0  0
   -2.3778    3.9260   14.2455 C   0  0  2  0  0  0  0  0  0  0  0  0
   -3.7720    3.9651   13.9501 O   0  0  0  0  0  0  0  0  0  0  0  0
    0.9864   -0.0568   14.6636 C   0  0  2  0  0  0  0  0  0  0  0  0
    2.2211    0.5453   14.2771 O   0  0  0  0  0  0  0  0  0  0  0  0
   -5.7354    8.7917   13.3080 C   0  0  2  0  0  0  0  0  0  0  0  0
   -6.0696    8.7971   11.8839 O   0  0  0  0  0  0  0  0  0  0  0  0
   -5.6889    5.9319   11.4245 C   0  0  2  0  0  0  0  0  0  0  0  0
   -4.9333    5.5686   12.6126 O   0  0  0  0  0  0  0  0  0  0  0  0
   -1.9732    5.0931   15.1986 C   0  0  0  0  0  0  0  0  0  0  0  0
   -1.9290    6.3101   14.4597 O   0  0  0  0  0  0  0  0  0  0  0  0
    0.1914   -0.5358   13.3905 C   0  0  1  0  0  0  0  0  0  0  0  0
   -0.0844    0.6765   12.6002 O   0  0  0  0  0  0  0  0  0  0  0  0
   -7.0094    8.6660   14.1110 C   0  0  0  0  0  0  0  0  0  0  0  0
   -7.7765    9.8392   13.9901 O   0  0  0  0  0  0  0  0  0  0  0  0
   -6.3977    4.6589   10.7979 C   0  0  1  0  0  0  0  0  0  0  0  0
   -7.4658    4.2227   11.6431 O   0  0  0  0  0  0  0  0  0  0  0  0
    0.9688   -1.6039   12.5053 C   0  0  0  0  0  0  0  0  0  0  0  0
    0.4220   -1.8251   11.1384 N   0  0  0  0  0  0  0  0  0  0  0  0
  1  2  1  1  0  0  0
  1  7  1  0  0  0  0
  1 30  1  0  0  0  0
  3  4  1  6  0  0  0
  3  9  1  0  0  0  0
  3 39  1  0  0  0  0
  5 10  1  0  0  0  0
  5 26  1  0  0  0  0
  5 32  1  1  0  0  0
  6 12  1  0  0  0  0
  6 36  1  0  0  0  0
  6 19  1  6  0  0  0
  7  8  1  6  0  0  0
  7 14  1  0  0  0  0
  9 16  1  0  0  0  0
 10 11  1  6  0  0  0
 10 18  1  0  0  0  0
 12 13  1  6  0  0  0
 12 20  1  0  0  0  0
 14 15  1  1  0  0  0
 14 22  1  0  0  0  0
 16 17  1  6  0  0  0
 16 24  1  0  0  0  0
 18 19  1  6  0  0  0
 18 25  1  0  0  0  0
 20 21  1  6  0  0  0
 20 27  1  0  0  0  0
 22 23  1  1  0  0  0
 22 29  1  0  0  0  0
 24  2  1  1  0  0  0
 24 31  1  0  0  0  0
 25 26  1  0  0  0  0
 25 33  1  1  0  0  0
 27 28  1  6  0  0  0
 27 35  1  0  0  0  0
 29 30  1  0  0  0  0
 29 37  1  1  0  0  0
 31 32  1  1  0  0  0
 31 39  1  0  0  0  0
 33 34  1  0  0  0  0
 35 36  1  0  0  0  0
 35 41  1  6  0  0  0
 37 38  1  0  0  0  0
 39 40  1  1  0  0  0
 41 42  1  0  0  0  0
M  END
>  <CHROM.1>
-168.99424269,81.16288498,-20.01845775,-159.08334864,48.63212625,40.88518293
53.25644428,-71.88888360,-165.23078972,-3.26253344,5.13395422,12.47329271
2.45516713,-0.77156106,0.48735356

>  <Name>
2o3w_lig

>  <RI>
0

>  <Rbt.Current_Directory>
/home/itssahil/PROJECTS/Mol_Feturizer/New_Systems/rnas/2o3w

>  <Rbt.Executable>
rbdock ($Id: //depot/dev/client3/rdock/2013.1/src/exe/rbdock.cxx#4 $)

>  <Rbt.Library>
libRbt.so (2013.1, Build901 2013/11/27)

>  <Rbt.Parameter_File>
/export/apps/rDock/src/rDock_2013.1_src/data/scripts/dock_solv.prm

>  <Rbt.Receptor>
prm/blind_docking_60.prm

>  <SCORE>
15.0614

>  <SCORE.INTER>
0.982599

>  <SCORE.INTER.CONST>
1

>  <SCORE.INTER.POLAR>
-0.773035

>  <SCORE.INTER.ROT>
9

>  <SCORE.INTER.SOLV>
22.0729

>  <SCORE.INTER.VDW>
-13.7258

>  <SCORE.INTER.norm>
0.0233952

>  <SCORE.INTRA>
-0.120653

>  <SCORE.INTRA.DIHEDRAL>
-14.4995

>  <SCORE.INTRA.DIHEDRAL.0>
27.8999

>  <SCORE.INTRA.POLAR>
0

>  <SCORE.INTRA.POLAR.0>
0

>  <SCORE.INTRA.REPUL>
0.013738

>  <SCORE.INTRA.REPUL.0>
0

>  <SCORE.INTRA.SOLV>
-0.868297

>  <SCORE.INTRA.SOLV.lig_0>
-104.479

>  <SCORE.INTRA.VDW>
7.49455

>  <SCORE.INTRA.VDW.0>
-6.17816

>  <SCORE.INTRA.norm>
-0.00287268

>  <SCORE.RESTR>
14.1994

>  <SCORE.RESTR.CAVITY>
14.1994

>  <SCORE.RESTR.norm>
0.338081

>  <SCORE.SYSTEM>
0

>  <SCORE.SYSTEM.CONST>
0

>  <SCORE.SYSTEM.DIHEDRAL>
0

>  <SCORE.SYSTEM.SOLV>
0

>  <SCORE.SYSTEM.norm>
0

>  <SCORE.heavy>
42

>  <SCORE.norm>
0.358604

>  <RMSD>
17.281

$$$$
2o3w_lig
 OpenBabel11021811463D
libRbt.so/2013.1/901 2013/11/27
 42 45  0  0  0  0  0  0  0  0999 V2000
   -4.4911   10.3502   11.8400 C   0  0  2  0  0  0  0  0  0  0  0  0
   -3.4767    9.3405   11.9774 O   0  0  0  0  0  0  0  0  0  0  0  0
   -5.2516    6.3471    9.3918 C   0  0  2  0  0  0  0  0  0  0  0  0
   -5.4694    5.1202    8.5686 N   0  0  0  0  0  0  0  0  0  0  0  0
   -2.7813    6.2035   13.1675 C   0  0  1  0  0  0  0  0  0  0  0  0
    0.0794    2.9977   14.2872 C   0  0  1  0  0  0  0  0  0  0  0  0
   -4.4325   11.2317   13.1236 C   0  0  2  0  0  0  0  0  0  0  0  0
   -3.0656   11.6853   13.4341 N   0  0  0  0  0  0  0  0  0  0  0  0
   -4.0926    7.2417    8.7933 C   0  0  0  0  0  0  0  0  0  0  0  0
   -2.8246    4.8172   13.8796 C   0  0  2  0  0  0  0  0  0  0  0  0
   -2.5885    4.8806   15.3076 O   0  0  0  0  0  0  0  0  0  0  0  0
    0.8893    2.0400   13.3408 C   0  0  2  0  0  0  0  0  0  0  0  0
    0.0657    1.6318   12.1635 N   0  0  0  0  0  0  0  0  0  0  0  0
   -4.9472   10.4860   14.3685 C   0  0  1  0  0  0  0  0  0  0  0  0
   -4.9127   11.3428   15.5112 O   0  0  0  0  0  0  0  0  0  0  0  0
   -3.9260    8.5273    9.6888 C   0  0  2  0  0  0  0  0  0  0  0  0
   -2.8512    9.4008    9.1453 N   0  0  0  0  0  0  0  0  0  0  0  0
   -1.7881    4.0355   13.0710 C   0  0  2  0  0  0  0  0  0  0  0  0
   -0.4486    4.1650   13.6452 O   0  0  0  0  0  0  0  0  0  0  0  0
    1.3761    0.7610   14.1738 C   0  0  1  0  0  0  0  0  0  0  0  0
    2.4546    1.1573   15.0506 O   0  0  0  0  0  0  0  0  0  0  0  0
   -6.3757    9.9598   14.1005 C   0  0  2  0  0  0  0  0  0  0  0  0
   -6.8679    9.2889   15.2371 O   0  0  0  0  0  0  0  0  0  0  0  0
   -3.5821    8.1279   11.1781 C   0  0  2  0  0  0  0  0  0  0  0  0
   -1.8411    4.6095   11.6452 C   0  0  2  0  0  0  0  0  0  0  0  0
   -2.2090    5.9700   11.8602 O   0  0  0  0  0  0  0  0  0  0  0  0
    0.2007    0.0963   15.0365 C   0  0  2  0  0  0  0  0  0  0  0  0
   -0.7181   -0.5026   14.1236 O   0  0  0  0  0  0  0  0  0  0  0  0
   -6.3430    9.0016   12.8635 C   0  0  2  0  0  0  0  0  0  0  0  0
   -5.8200    9.7177   11.7001 O   0  0  0  0  0  0  0  0  0  0  0  0
   -4.6460    7.2047   11.8115 C   0  0  2  0  0  0  0  0  0  0  0  0
   -4.0847    6.7952   13.0888 O   0  0  0  0  0  0  0  0  0  0  0  0
   -2.8481    3.9005   10.6873 C   0  0  0  0  0  0  0  0  0  0  0  0
   -3.9427    3.3952   11.4457 O   0  0  0  0  0  0  0  0  0  0  0  0
   -0.5303    1.1840   15.9110 C   0  0  1  0  0  0  0  0  0  0  0  0
   -1.0172    2.2067   14.9691 O   0  0  0  0  0  0  0  0  0  0  0  0
   -7.7057    8.4430   12.5245 C   0  0  0  0  0  0  0  0  0  0  0  0
   -8.3589    8.0145   13.6946 O   0  0  0  0  0  0  0  0  0  0  0  0
   -4.9044    5.9461   10.8815 C   0  0  1  0  0  0  0  0  0  0  0  0
   -5.9939    5.1718   11.3905 O   0  0  0  0  0  0  0  0  0  0  0  0
   -1.7368    0.6152   16.7767 C   0  0  0  0  0  0  0  0  0  0  0  0
   -2.9212    0.1531   16.0021 N   0  0  0  0  0  0  0  0  0  0  0  0
  1  2  1  1  0  0  0
  1  7  1  0  0  0  0
  1 30  1  0  0  0  0
  3  4  1  6  0  0  0
  3  9  1  0  0  0  0
  3 39  1  0  0  0  0
  5 10  1  0  0  0  0
  5 26  1  0  0  0  0
  5 32  1  6  0  0  0
  6 12  1  0  0  0  0
  6 36  1  0  0  0  0
  6 19  1  6  0  0  0
  7  8  1  1  0  0  0
  7 14  1  0  0  0  0
  9 16  1  0  0  0  0
 10 11  1  1  0  0  0
 10 18  1  0  0  0  0
 12 13  1  6  0  0  0
 12 20  1  0  0  0  0
 14 15  1  1  0  0  0
 14 22  1  0  0  0  0
 16 17  1  6  0  0  0
 16 24  1  0  0  0  0
 18 19  1  1  0  0  0
 18 25  1  0  0  0  0
 20 21  1  1  0  0  0
 20 27  1  0  0  0  0
 22 23  1  1  0  0  0
 22 29  1  0  0  0  0
 24  2  1  1  0  0  0
 24 31  1  0  0  0  0
 25 26  1  0  0  0  0
 25 33  1  6  0  0  0
 27 28  1  6  0  0  0
 27 35  1  0  0  0  0
 29 30  1  0  0  0  0
 29 37  1  6  0  0  0
 31 32  1  1  0  0  0
 31 39  1  0  0  0  0
 33 34  1  0  0  0  0
 35 36  1  0  0  0  0
 35 41  1  6  0  0  0
 37 38  1  0  0  0  0
 39 40  1  1  0  0  0
 41 42  1  0  0  0  0
M  END
>  <CHROM.1>
159.52854452,-124.52610850,89.84822704,108.65912001,45.98685989,30.29383576
-44.95460037,-53.44270684,-67.92273374,-3.22618522,5.78026758,12.90805193
3.09530209,1.02285056,-1.76520219

>  <Name>
2o3w_lig

>  <RI>
0

>  <Rbt.Current_Directory>
/home/itssahil/PROJECTS/Mol_Feturizer/New_Systems/rnas/2o3w

>  <Rbt.Executable>
rbdock ($Id: //depot/dev/client3/rdock/2013.1/src/exe/rbdock.cxx#4 $)

>  <Rbt.Library>
libRbt.so (2013.1, Build901 2013/11/27)

>  <Rbt.Parameter_File>
/export/apps/rDock/src/rDock_2013.1_src/data/scripts/dock_solv.prm

>  <Rbt.Receptor>
prm/blind_docking_60.prm

>  <SCORE>
17.7927

>  <SCORE.INTER>
-0.927468

>  <SCORE.INTER.CONST>
1

>  <SCORE.INTER.POLAR>
-0.779233

>  <SCORE.INTER.ROT>
9

>  <SCORE.INTER.SOLV>
27.0881

>  <SCORE.INTER.VDW>
-16.6502

>  <SCORE.INTER.norm>
-0.0220826

>  <SCORE.INTRA>
5.72933

>  <SCORE.INTRA.DIHEDRAL>
-3.97615

>  <SCORE.INTRA.DIHEDRAL.0>
27.8999

>  <SCORE.INTRA.POLAR>
0

>  <SCORE.INTRA.POLAR.0>
0

>  <SCORE.INTRA.REPUL>
0

>  <SCORE.INTRA.REPUL.0>
0

>  <SCORE.INTRA.SOLV>
1.87944

>  <SCORE.INTRA.SOLV.lig_0>
-104.479

>  <SCORE.INTRA.VDW>
6.77769

>  <SCORE.INTRA.VDW.0>
-6.17816

>  <SCORE.INTRA.norm>
0.136413

>  <SCORE.RESTR>
12.9908

>  <SCORE.RESTR.CAVITY>
12.9908

>  <SCORE.RESTR.norm>
0.309305

>  <SCORE.SYSTEM>
0

>  <SCORE.SYSTEM.CONST>
0

>  <SCORE.SYSTEM.DIHEDRAL>
0

>  <SCORE.SYSTEM.SOLV>
0

>  <SCORE.SYSTEM.norm>
0

>  <SCORE.heavy>
42

>  <SCORE.norm>
0.423635

>  <RMSD>
17.391

$$$$
2o3w_lig
 OpenBabel11021811463D
libRbt.so/2013.1/901 2013/11/27
 42 45  0  0  0  0  0  0  0  0999 V2000
   12.5690   10.9012   -5.8255 C   0  0  2  0  0  0  0  0  0  0  0  0
   13.1185   10.4226   -7.0649 O   0  0  0  0  0  0  0  0  0  0  0  0
   10.8064    8.8584  -10.3821 C   0  0  2  0  0  0  0  0  0  0  0  0
    9.9662    8.7535  -11.6124 N   0  0  0  0  0  0  0  0  0  0  0  0
   13.8860   11.9948  -10.3849 C   0  0  1  0  0  0  0  0  0  0  0  0
   12.1176   15.0784  -13.0211 C   0  0  1  0  0  0  0  0  0  0  0  0
   12.2827   12.4215   -6.0116 C   0  0  2  0  0  0  0  0  0  0  0  0
   11.5233   12.7058   -7.2417 N   0  0  0  0  0  0  0  0  0  0  0  0
   10.0201    9.5709   -9.2091 C   0  0  0  0  0  0  0  0  0  0  0  0
   13.5061   11.7462  -11.8764 C   0  0  2  0  0  0  0  0  0  0  0  0
   14.6336   11.7824  -12.7856 O   0  0  0  0  0  0  0  0  0  0  0  0
   12.6406   15.9550  -14.2156 C   0  0  2  0  0  0  0  0  0  0  0  0
   13.9482   16.5924  -13.8771 N   0  0  0  0  0  0  0  0  0  0  0  0
   13.5754   13.2549   -6.0845 C   0  0  1  0  0  0  0  0  0  0  0  0
   13.2655   14.6433   -6.2150 O   0  0  0  0  0  0  0  0  0  0  0  0
   10.9470    9.6314   -7.9364 C   0  0  2  0  0  0  0  0  0  0  0  0
   10.2324   10.2841   -6.8064 N   0  0  0  0  0  0  0  0  0  0  0  0
   12.4435   12.8242  -12.0959 C   0  0  2  0  0  0  0  0  0  0  0  0
   13.0361   14.0751  -12.5701 O   0  0  0  0  0  0  0  0  0  0  0  0
   11.5397   17.0597  -14.5824 C   0  0  1  0  0  0  0  0  0  0  0  0
   10.4369   16.4141  -15.2576 O   0  0  0  0  0  0  0  0  0  0  0  0
   14.4350   12.9841   -4.8287 C   0  0  2  0  0  0  0  0  0  0  0  0
   15.6148   13.7525   -4.8720 O   0  0  0  0  0  0  0  0  0  0  0  0
   12.2759   10.4252   -8.2525 C   0  0  2  0  0  0  0  0  0  0  0  0
   11.7475   13.0169  -10.7381 C   0  0  2  0  0  0  0  0  0  0  0  0
   12.7832   12.7267   -9.8023 O   0  0  0  0  0  0  0  0  0  0  0  0
   10.9948   17.8456  -13.2967 C   0  0  2  0  0  0  0  0  0  0  0  0
   12.0569   18.6655  -12.8106 O   0  0  0  0  0  0  0  0  0  0  0  0
   14.7716   11.4571   -4.7600 C   0  0  2  0  0  0  0  0  0  0  0  0
   13.5321   10.6811   -4.7256 O   0  0  0  0  0  0  0  0  0  0  0  0
   13.0710    9.8176   -9.4289 C   0  0  2  0  0  0  0  0  0  0  0  0
   14.1421   10.7643   -9.6954 O   0  0  0  0  0  0  0  0  0  0  0  0
   10.5044   12.1044  -10.5003 C   0  0  0  0  0  0  0  0  0  0  0  0
    9.8673   12.4848   -9.2845 O   0  0  0  0  0  0  0  0  0  0  0  0
   10.5329   16.8336  -12.1811 C   0  0  1  0  0  0  0  0  0  0  0  0
   11.7031   15.9892  -11.8846 O   0  0  0  0  0  0  0  0  0  0  0  0
   15.6083   11.0999   -3.5533 C   0  0  0  0  0  0  0  0  0  0  0  0
   16.1478    9.8091   -3.7023 O   0  0  0  0  0  0  0  0  0  0  0  0
   12.1347    9.6558  -10.6989 C   0  0  1  0  0  0  0  0  0  0  0  0
   12.8271    8.9561  -11.7364 O   0  0  0  0  0  0  0  0  0  0  0  0
   10.0071   17.5305  -10.8520 C   0  0  0  0  0  0  0  0  0  0  0  0
    9.1056   16.7014  -10.0055 N   0  0  0  0  0  0  0  0  0  0  0  0
  1  2  1  6  0  0  0
  1  7  1  0  0  0  0
  1 30  1  0  0  0  0
  3  4  1  6  0  0  0
  3  9  1  0  0  0  0
  3 39  1  0  0  0  0
  5 10  1  0  0  0  0
  5 26  1  0  0  0  0
  5 32  1  1  0  0  0
  6 12  1  0  0  0  0
  6 36  1  0  0  0  0
  6 19  1  1  0  0  0
  7  8  1  6  0  0  0
  7 14  1  0  0  0  0
  9 16  1  0  0  0  0
 10 11  1  6  0  0  0
 10 18  1  0  0  0  0
 12 13  1  1  0  0  0
 12 20  1  0  0  0  0
 14 15  1  1  0  0  0
 14 22  1  0  0  0  0
 16 17  1  1  0  0  0
 16 24  1  0  0  0  0
 18 19  1  1  0  0  0
 18 25  1  0  0  0  0
 20 21  1  1  0  0  0
 20 27  1  0  0  0  0
 22 23  1  6  0  0  0
 22 29  1  0  0  0  0
 24  2  1  1  0  0  0
 24 31  1  0  0  0  0
 25 26  1  0  0  0  0
 25 33  1  6  0  0  0
 27 28  1  1  0  0  0
 27 35  1  0  0  0  0
 29 30  1  0  0  0  0
 29 37  1  1  0  0  0
 31 32  1  6  0  0  0
 31 39  1  0  0  0  0
 33 34  1  0  0  0  0
 35 36  1  0  0  0  0
 35 41  1  1  0  0  0
 37 38  1  0  0  0  0
 39 40  1  6  0  0  0
 41 42  1  0  0  0  0
M  END
>  <CHROM.1>
-65.62403065,-68.12913851,-145.75148019,169.91382803,-54.48173315,-173.43500505
-165.88765375,-76.09477253,157.66691181,12.42030354,12.82465238,-9.57374029
-0.84499724,-1.22025596,-0.25301922

>  <Name>
2o3w_lig

>  <RI>
0

>  <Rbt.Current_Directory>
/home/itssahil/PROJECTS/Mol_Feturizer/New_Systems/rnas/2o3w

>  <Rbt.Executable>
rbdock ($Id: //depot/dev/client3/rdock/2013.1/src/exe/rbdock.cxx#4 $)

>  <Rbt.Library>
libRbt.so (2013.1, Build901 2013/11/27)

>  <Rbt.Parameter_File>
/export/apps/rDock/src/rDock_2013.1_src/data/scripts/dock_solv.prm

>  <Rbt.Receptor>
prm/blind_docking_100.prm

>  <SCORE>
-4.69824

>  <SCORE.INTER>
-15.0254

>  <SCORE.INTER.CONST>
1

>  <SCORE.INTER.POLAR>
-1.74702

>  <SCORE.INTER.ROT>
9

>  <SCORE.INTER.SOLV>
30.05

>  <SCORE.INTER.VDW>
-23.8102

>  <SCORE.INTER.norm>
-0.357749

>  <SCORE.INTRA>
0.937552

>  <SCORE.INTRA.DIHEDRAL>
-18.6658

>  <SCORE.INTRA.DIHEDRAL.0>
27.8999

>  <SCORE.INTRA.POLAR>
0

>  <SCORE.INTRA.POLAR.0>
0

>  <SCORE.INTRA.REPUL>
0.0510918

>  <SCORE.INTRA.REPUL.0>
0

>  <SCORE.INTRA.SOLV>
5.61799

>  <SCORE.INTRA.SOLV.lig_0>
-104.479

>  <SCORE.INTRA.VDW>
7.20597

>  <SCORE.INTRA.VDW.0>
-6.17816

>  <SCORE.INTRA.norm>
0.0223227

>  <SCORE.RESTR>
9.38965

>  <SCORE.RESTR.CAVITY>
9.38965

>  <SCORE.RESTR.norm>
0.223563

>  <SCORE.SYSTEM>
0

>  <SCORE.SYSTEM.CONST>
0

>  <SCORE.SYSTEM.DIHEDRAL>
0

>  <SCORE.SYSTEM.SOLV>
0

>  <SCORE.SYSTEM.norm>
0

>  <SCORE.heavy>
42

>  <SCORE.norm>
-0.111863

>  <RMSD>
17.613

$$$$
2o3w_lig
 OpenBabel11021811463D
libRbt.so/2013.1/901 2013/11/27
 42 45  0  0  0  0  0  0  0  0999 V2000
   13.8375   12.1034   -7.2470 C   0  0  2  0  0  0  0  0  0  0  0  0
   12.4089   12.2509   -7.1780 O   0  0  0  0  0  0  0  0  0  0  0  0
   11.2933    9.5050  -10.3421 C   0  0  2  0  0  0  0  0  0  0  0  0
   10.5440    8.8135  -11.4333 N   0  0  0  0  0  0  0  0  0  0  0  0
   11.0441   13.8616  -10.4110 C   0  0  1  0  0  0  0  0  0  0  0  0
    8.2166   17.1132  -10.7970 C   0  0  1  0  0  0  0  0  0  0  0  0
   14.2271   10.9735   -6.2472 C   0  0  2  0  0  0  0  0  0  0  0  0
   13.4132    9.7584   -6.4246 N   0  0  0  0  0  0  0  0  0  0  0  0
   10.5393    9.3768   -8.9576 C   0  0  0  0  0  0  0  0  0  0  0  0
   10.8830   15.3486   -9.9708 C   0  0  2  0  0  0  0  0  0  0  0  0
   10.0573   15.5287   -8.7940 O   0  0  0  0  0  0  0  0  0  0  0  0
    8.0159   17.1220   -9.2386 C   0  0  2  0  0  0  0  0  0  0  0  0
    7.2999   15.8918   -8.7861 N   0  0  0  0  0  0  0  0  0  0  0  0
   14.0617   11.4093   -4.7796 C   0  0  1  0  0  0  0  0  0  0  0  0
   14.4668   10.3589   -3.9002 O   0  0  0  0  0  0  0  0  0  0  0  0
   11.3866   10.1039   -7.8459 C   0  0  2  0  0  0  0  0  0  0  0  0
   10.7124    9.9903   -6.5244 N   0  0  0  0  0  0  0  0  0  0  0  0
   10.3509   15.9830  -11.2567 C   0  0  2  0  0  0  0  0  0  0  0  0
    8.8889   15.9544  -11.3057 O   0  0  0  0  0  0  0  0  0  0  0  0
    7.2136   18.4430   -8.8164 C   0  0  1  0  0  0  0  0  0  0  0  0
    8.0977   19.5812   -8.9245 O   0  0  0  0  0  0  0  0  0  0  0  0
   14.8752   12.6997   -4.5301 C   0  0  2  0  0  0  0  0  0  0  0  0
   14.7476   13.1026   -3.1863 O   0  0  0  0  0  0  0  0  0  0  0  0
   11.5896   11.6282   -8.2081 C   0  0  2  0  0  0  0  0  0  0  0  0
   10.9632   15.1754  -12.4135 C   0  0  2  0  0  0  0  0  0  0  0  0
   11.1021   13.8707  -11.8558 O   0  0  0  0  0  0  0  0  0  0  0  0
    5.9084   18.6911   -9.7122 C   0  0  2  0  0  0  0  0  0  0  0  0
    4.9608   17.6760   -9.3836 O   0  0  0  0  0  0  0  0  0  0  0  0
   14.3628   13.8207   -5.4946 C   0  0  2  0  0  0  0  0  0  0  0  0
   14.4965   13.3753   -6.8815 O   0  0  0  0  0  0  0  0  0  0  0  0
   12.2719   11.8323   -9.5785 C   0  0  2  0  0  0  0  0  0  0  0  0
   12.2089   13.2636   -9.8272 O   0  0  0  0  0  0  0  0  0  0  0  0
   12.3319   15.7104  -12.9376 C   0  0  0  0  0  0  0  0  0  0  0  0
   12.1920   17.0791  -13.3062 O   0  0  0  0  0  0  0  0  0  0  0  0
    6.2662   18.6273  -11.2452 C   0  0  1  0  0  0  0  0  0  0  0  0
    6.8731   17.3038  -11.4691 O   0  0  0  0  0  0  0  0  0  0  0  0
   15.1110   15.1225   -5.3226 C   0  0  0  0  0  0  0  0  0  0  0  0
   16.4691   14.8697   -5.0567 O   0  0  0  0  0  0  0  0  0  0  0  0
   11.4931   11.0313  -10.7043 C   0  0  1  0  0  0  0  0  0  0  0  0
   12.2087   11.0965  -11.9410 O   0  0  0  0  0  0  0  0  0  0  0  0
    5.0188   18.8302  -12.2103 C   0  0  0  0  0  0  0  0  0  0  0  0
    4.1021   17.6631  -12.3291 N   0  0  0  0  0  0  0  0  0  0  0  0
  1  2  1  1  0  0  0
  1  7  1  0  0  0  0
  1 30  1  0  0  0  0
  3  4  1  6  0  0  0
  3  9  1  0  0  0  0
  3 39  1  0  0  0  0
  5 10  1  0  0  0  0
  5 26  1  0  0  0  0
  5 32  1  1  0  0  0
  6 12  1  0  0  0  0
  6 36  1  0  0  0  0
  6 19  1  6  0  0  0
  7  8  1  6  0  0  0
  7 14  1  0  0  0  0
  9 16  1  0  0  0  0
 10 11  1  1  0  0  0
 10 18  1  0  0  0  0
 12 13  1  6  0  0  0
 12 20  1  0  0  0  0
 14 15  1  1  0  0  0
 14 22  1  0  0  0  0
 16 17  1  1  0  0  0
 16 24  1  0  0  0  0
 18 19  1  1  0  0  0
 18 25  1  0  0  0  0
 20 21  1  6  0  0  0
 20 27  1  0  0  0  0
 22 23  1  1  0  0  0
 22 29  1  0  0  0  0
 24  2  1  1  0  0  0
 24 31  1  0  0  0  0
 25 26  1  0  0  0  0
 25 33  1  1  0  0  0
 27 28  1  6  0  0  0
 27 35  1  0  0  0  0
 29 30  1  0  0  0  0
 29 37  1  6  0  0  0
 31 32  1  6  0  0  0
 31 39  1  0  0  0  0
 33 34  1  0  0  0  0
 35 36  1  0  0  0  0
 35 41  1  6  0  0  0
 37 38  1  0  0  0  0
 39 40  1  6  0  0  0
 41 42  1  0  0  0  0
M  END
>  <CHROM.1>
-99.88987893,152.31382463,-83.71163667,92.61222503,81.98818836,-55.20176921
36.79727607,-84.59155297,-75.51377183,10.88980053,14.12441335,-8.96497408
-0.18304380,-0.83033041,0.65323952

>  <Name>
2o3w_lig

>  <RI>
0

>  <Rbt.Current_Directory>
/home/itssahil/PROJECTS/Mol_Feturizer/New_Systems/rnas/2o3w

>  <Rbt.Executable>
rbdock ($Id: //depot/dev/client3/rdock/2013.1/src/exe/rbdock.cxx#4 $)

>  <Rbt.Library>
libRbt.so (2013.1, Build901 2013/11/27)

>  <Rbt.Parameter_File>
/export/apps/rDock/src/rDock_2013.1_src/data/scripts/dock_solv.prm

>  <Rbt.Receptor>
prm/blind_docking_100.prm

>  <SCORE>
6.86815

>  <SCORE.INTER>
-7.28841

>  <SCORE.INTER.CONST>
1

>  <SCORE.INTER.POLAR>
-1.12338

>  <SCORE.INTER.ROT>
9

>  <SCORE.INTER.SOLV>
27.2544

>  <SCORE.INTER.VDW>
-19.7991

>  <SCORE.INTER.norm>
-0.173534

>  <SCORE.INTRA>
5.10897

>  <SCORE.INTRA.DIHEDRAL>
-5.42509

>  <SCORE.INTRA.DIHEDRAL.0>
27.8999

>  <SCORE.INTRA.POLAR>
0

>  <SCORE.INTRA.POLAR.0>
0

>  <SCORE.INTRA.REPUL>
0

>  <SCORE.INTRA.REPUL.0>
0

>  <SCORE.INTRA.SOLV>
2.90132

>  <SCORE.INTRA.SOLV.lig_0>
-104.479

>  <SCORE.INTRA.VDW>
6.37086

>  <SCORE.INTRA.VDW.0>
-6.17816

>  <SCORE.INTRA.norm>
0.121642

>  <SCORE.RESTR>
9.04759

>  <SCORE.RESTR.CAVITY>
9.04759

>  <SCORE.RESTR.norm>
0.215419

>  <SCORE.SYSTEM>
0

>  <SCORE.SYSTEM.CONST>
0

>  <SCORE.SYSTEM.DIHEDRAL>
0

>  <SCORE.SYSTEM.SOLV>
0

>  <SCORE.SYSTEM.norm>
0

>  <SCORE.heavy>
42

>  <SCORE.norm>
0.163527

>  <RMSD>
17.615

$$$$
2o3w_lig
 OpenBabel11021811463D
libRbt.so/2013.1/901 2013/11/27
 42 45  0  0  0  0  0  0  0  0999 V2000
   14.9290   11.1949   -6.9534 C   0  0  2  0  0  0  0  0  0  0  0  0
   13.8443   10.3034   -6.6437 O   0  0  0  0  0  0  0  0  0  0  0  0
    9.9658    9.3219   -8.3140 C   0  0  2  0  0  0  0  0  0  0  0  0
    8.6442    9.4135   -9.0034 N   0  0  0  0  0  0  0  0  0  0  0  0
   13.2744   11.5902  -10.1158 C   0  0  1  0  0  0  0  0  0  0  0  0
   12.0566   14.6807  -12.7760 C   0  0  1  0  0  0  0  0  0  0  0  0
   15.9336   11.1194   -5.7646 C   0  0  2  0  0  0  0  0  0  0  0  0
   16.2800    9.7329   -5.4064 N   0  0  0  0  0  0  0  0  0  0  0  0
   10.0001   10.2255   -7.0163 C   0  0  0  0  0  0  0  0  0  0  0  0
   14.0009   11.6980  -11.4911 C   0  0  2  0  0  0  0  0  0  0  0  0
   15.3036   12.3281  -11.4216 O   0  0  0  0  0  0  0  0  0  0  0  0
   12.4171   15.4677  -14.0873 C   0  0  2  0  0  0  0  0  0  0  0  0
   13.6212   16.3268  -13.8798 N   0  0  0  0  0  0  0  0  0  0  0  0
   15.3813   11.7833   -4.4897 C   0  0  1  0  0  0  0  0  0  0  0  0
   16.3486   11.7259   -3.4400 O   0  0  0  0  0  0  0  0  0  0  0  0
   11.4064   10.0698   -6.3230 C   0  0  2  0  0  0  0  0  0  0  0  0
   11.4689   10.8970   -5.0879 N   0  0  0  0  0  0  0  0  0  0  0  0
   12.9518   12.4361  -12.3240 C   0  0  2  0  0  0  0  0  0  0  0  0
   13.1243   13.8868  -12.2437 O   0  0  0  0  0  0  0  0  0  0  0  0
   11.1556   16.3450  -14.5410 C   0  0  1  0  0  0  0  0  0  0  0  0
   10.1481   15.4658  -15.0895 O   0  0  0  0  0  0  0  0  0  0  0  0
   14.9737   13.2410   -4.8026 C   0  0  2  0  0  0  0  0  0  0  0  0
   14.4814   13.8682   -3.6413 O   0  0  0  0  0  0  0  0  0  0  0  0
   12.5638   10.5003   -7.3084 C   0  0  2  0  0  0  0  0  0  0  0  0
   11.5855   12.0056  -11.7643 C   0  0  2  0  0  0  0  0  0  0  0  0
   11.8646   11.7631  -10.3874 O   0  0  0  0  0  0  0  0  0  0  0  0
   10.5262   17.1976  -13.3392 C   0  0  2  0  0  0  0  0  0  0  0  0
   11.4633   18.2181  -12.9978 O   0  0  0  0  0  0  0  0  0  0  0  0
   13.8891   13.2369   -5.9310 C   0  0  2  0  0  0  0  0  0  0  0  0
   14.4201   12.5728   -7.1213 O   0  0  0  0  0  0  0  0  0  0  0  0
   12.5579    9.6959   -8.6269 C   0  0  2  0  0  0  0  0  0  0  0  0
   13.5511   10.3398   -9.4716 O   0  0  0  0  0  0  0  0  0  0  0  0
   10.9645   10.7447  -12.4416 C   0  0  0  0  0  0  0  0  0  0  0  0
   11.1306   10.8390  -13.8531 O   0  0  0  0  0  0  0  0  0  0  0  0
   10.2446   16.2766  -12.0923 C   0  0  1  0  0  0  0  0  0  0  0  0
   11.5341   15.6562  -11.7423 O   0  0  0  0  0  0  0  0  0  0  0  0
   13.4353   14.6287   -6.3065 C   0  0  0  0  0  0  0  0  0  0  0  0
   14.5388   15.4995   -6.3637 O   0  0  0  0  0  0  0  0  0  0  0  0
   11.1231    9.7560   -9.3002 C   0  0  1  0  0  0  0  0  0  0  0  0
   11.0752    8.8902  -10.4376 O   0  0  0  0  0  0  0  0  0  0  0  0
    9.6483   17.0500  -10.8374 C   0  0  0  0  0  0  0  0  0  0  0  0
   10.2191   18.4018  -10.5855 N   0  0  0  0  0  0  0  0  0  0  0  0
  1  2  1  1  0  0  0
  1  7  1  0  0  0  0
  1 30  1  0  0  0  0
  3  4  1  6  0  0  0
  3  9  1  0  0  0  0
  3 39  1  0  0  0  0
  5 10  1  0  0  0  0
  5 26  1  0  0  0  0
  5 32  1  6  0  0  0
  6 12  1  0  0  0  0
  6 36  1  0  0  0  0
  6 19  1  1  0  0  0
  7  8  1  1  0  0  0
  7 14  1  0  0  0  0
  9 16  1  0  0  0  0
 10 11  1  1  0  0  0
 10 18  1  0  0  0  0
 12 13  1  1  0  0  0
 12 20  1  0  0  0  0
 14 15  1  1  0  0  0
 14 22  1  0  0  0  0
 16 17  1  1  0  0  0
 16 24  1  0  0  0  0
 18 19  1  1  0  0  0
 18 25  1  0  0  0  0
 20 21  1  1  0  0  0
 20 27  1  0  0  0  0
 22 23  1  1  0  0  0
 22 29  1  0  0  0  0
 24  2  1  1  0  0  0
 24 31  1  0  0  0  0
 25 26  1  0  0  0  0
 25 33  1  6  0  0  0
 27 28  1  1  0  0  0
 27 35  1  0  0  0  0
 29 30  1  0  0  0  0
 29 37  1  6  0  0  0
 31 32  1  6  0  0  0
 31 39  1  0  0  0  0
 33 34  1  0  0  0  0
 35 36  1  0  0  0  0
 35 41  1  1  0  0  0
 37 38  1  0  0  0  0
 39 40  1  6  0  0  0
 41 42  1  0  0  0  0
M  END
>  <CHROM.1>
158.72044527,-147.48174300,-111.13413302,-168.73488799,-147.61589315,-43.36485269
41.55257031,-75.61995426,-38.92376642,12.59164085,12.78821707,-9.43054125
-0.86626785,-1.06510534,-0.41821203

>  <Name>
2o3w_lig

>  <RI>
0

>  <Rbt.Current_Directory>
/home/itssahil/PROJECTS/Mol_Feturizer/New_Systems/rnas/2o3w

>  <Rbt.Executable>
rbdock ($Id: //depot/dev/client3/rdock/2013.1/src/exe/rbdock.cxx#4 $)

>  <Rbt.Library>
libRbt.so (2013.1, Build901 2013/11/27)

>  <Rbt.Parameter_File>
/export/apps/rDock/src/rDock_2013.1_src/data/scripts/dock_solv.prm

>  <Rbt.Receptor>
prm/blind_docking_60.prm

>  <SCORE>
37.7284

>  <SCORE.INTER>
22.1328

>  <SCORE.INTER.CONST>
1

>  <SCORE.INTER.POLAR>
-1.05567

>  <SCORE.INTER.ROT>
9

>  <SCORE.INTER.SOLV>
41.5789

>  <SCORE.INTER.VDW>
-5.18554

>  <SCORE.INTER.norm>
0.526971

>  <SCORE.INTRA>
3.3837

>  <SCORE.INTRA.DIHEDRAL>
-5.71217

>  <SCORE.INTRA.DIHEDRAL.0>
27.8999

>  <SCORE.INTRA.POLAR>
0

>  <SCORE.INTRA.POLAR.0>
0

>  <SCORE.INTRA.REPUL>
0

>  <SCORE.INTRA.REPUL.0>
0

>  <SCORE.INTRA.SOLV>
-1.37916

>  <SCORE.INTRA.SOLV.lig_0>
-104.479

>  <SCORE.INTRA.VDW>
6.92936

>  <SCORE.INTRA.VDW.0>
-6.17816

>  <SCORE.INTRA.norm>
0.0805642

>  <SCORE.RESTR>
12.212

>  <SCORE.RESTR.CAVITY>
12.212

>  <SCORE.RESTR.norm>
0.290761

>  <SCORE.SYSTEM>
0

>  <SCORE.SYSTEM.CONST>
0

>  <SCORE.SYSTEM.DIHEDRAL>
0

>  <SCORE.SYSTEM.SOLV>
0

>  <SCORE.SYSTEM.norm>
0

>  <SCORE.heavy>
42

>  <SCORE.norm>
0.898296

>  <RMSD>
17.644

$$$$
2o3w_lig
 OpenBabel11021811463D
libRbt.so/2013.1/901 2013/11/27
 42 45  0  0  0  0  0  0  0  0999 V2000
   12.2785   10.0355   -8.2559 C   0  0  2  0  0  0  0  0  0  0  0  0
   11.6396   10.3127   -9.5138 O   0  0  0  0  0  0  0  0  0  0  0  0
   14.8213    9.2499  -12.2604 C   0  0  2  0  0  0  0  0  0  0  0  0
   15.7292    9.2085  -13.4455 N   0  0  0  0  0  0  0  0  0  0  0  0
   12.8965   13.1032  -10.7358 C   0  0  1  0  0  0  0  0  0  0  0  0
   10.3133   15.2319  -12.3837 C   0  0  1  0  0  0  0  0  0  0  0  0
   11.1456    9.8241   -7.2071 C   0  0  2  0  0  0  0  0  0  0  0  0
   10.1207    8.8716   -7.6685 N   0  0  0  0  0  0  0  0  0  0  0  0
   13.3440    8.8453  -12.6547 C   0  0  0  0  0  0  0  0  0  0  0  0
   12.8065   12.6588  -12.2275 C   0  0  2  0  0  0  0  0  0  0  0  0
   13.8076   13.2623  -13.0835 O   0  0  0  0  0  0  0  0  0  0  0  0
   10.1231   16.6477  -13.0381 C   0  0  2  0  0  0  0  0  0  0  0  0
   11.4345   17.3469  -13.1873 N   0  0  0  0  0  0  0  0  0  0  0  0
   10.4132   11.1348   -6.8658 C   0  0  1  0  0  0  0  0  0  0  0  0
    9.4121   10.9014   -5.8737 O   0  0  0  0  0  0  0  0  0  0  0  0
   12.4419    8.8858  -11.3635 C   0  0  2  0  0  0  0  0  0  0  0  0
   11.0451    8.4956  -11.6957 N   0  0  0  0  0  0  0  0  0  0  0  0
   11.3549   13.0117  -12.5555 C   0  0  2  0  0  0  0  0  0  0  0  0
   11.2359   14.3764  -13.0696 O   0  0  0  0  0  0  0  0  0  0  0  0
    9.1092   17.5103  -12.1466 C   0  0  1  0  0  0  0  0  0  0  0  0
    7.7696   17.0036  -12.3403 O   0  0  0  0  0  0  0  0  0  0  0  0
   11.4388   12.1911   -6.3951 C   0  0  2  0  0  0  0  0  0  0  0  0
   10.7820   13.3922   -6.0627 O   0  0  0  0  0  0  0  0  0  0  0  0
   12.4508   10.3300  -10.7230 C   0  0  2  0  0  0  0  0  0  0  0  0
   10.5695   12.8398  -11.2443 C   0  0  2  0  0  0  0  0  0  0  0  0
   11.5367   13.1585  -10.2466 O   0  0  0  0  0  0  0  0  0  0  0  0
    9.4730   17.4808  -10.5864 C   0  0  2  0  0  0  0  0  0  0  0  0
   10.6851   18.2137  -10.4126 O   0  0  0  0  0  0  0  0  0  0  0  0
   12.4852   12.4298   -7.5343 C   0  0  2  0  0  0  0  0  0  0  0  0
   13.1459   11.1681   -7.8677 O   0  0  0  0  0  0  0  0  0  0  0  0
   13.8716   10.8166  -10.3628 C   0  0  2  0  0  0  0  0  0  0  0  0
   13.7106   12.2069   -9.9684 O   0  0  0  0  0  0  0  0  0  0  0  0
    9.9752   11.4155  -11.0152 C   0  0  0  0  0  0  0  0  0  0  0  0
    9.4020   11.3489   -9.7129 O   0  0  0  0  0  0  0  0  0  0  0  0
    9.6559   15.9981  -10.0862 C   0  0  1  0  0  0  0  0  0  0  0  0
   10.7075   15.4076  -10.9323 O   0  0  0  0  0  0  0  0  0  0  0  0
   13.5349   13.4487   -7.1554 C   0  0  0  0  0  0  0  0  0  0  0  0
   14.4753   12.8739   -6.2810 O   0  0  0  0  0  0  0  0  0  0  0  0
   14.8286   10.6967  -11.6220 C   0  0  1  0  0  0  0  0  0  0  0  0
   16.1751   11.0027  -11.2493 O   0  0  0  0  0  0  0  0  0  0  0  0
   10.0528   15.8767   -8.5512 C   0  0  0  0  0  0  0  0  0  0  0  0
   11.0996   14.8659   -8.2365 N   0  0  0  0  0  0  0  0  0  0  0  0
  1  2  1  6  0  0  0
  1  7  1  0  0  0  0
  1 30  1  0  0  0  0
  3  4  1  6  0  0  0
  3  9  1  0  0  0  0
  3 39  1  0  0  0  0
  5 10  1  0  0  0  0
  5 26  1  0  0  0  0
  5 32  1  1  0  0  0
  6 12  1  0  0  0  0
  6 36  1  0  0  0  0
  6 19  1  6  0  0  0
  7  8  1  6  0  0  0
  7 14  1  0  0  0  0
  9 16  1  0  0  0  0
 10 11  1  6  0  0  0
 10 18  1  0  0  0  0
 12 13  1  1  0  0  0
 12 20  1  0  0  0  0
 14 15  1  1  0  0  0
 14 22  1  0  0  0  0
 16 17  1  6  0  0  0
 16 24  1  0  0  0  0
 18 19  1  1  0  0  0
 18 25  1  0  0  0  0
 20 21  1  1  0  0  0
 20 27  1  0  0  0  0
 22 23  1  6  0  0  0
 22 29  1  0  0  0  0
 24  2  1  1  0  0  0
 24 31  1  0  0  0  0
 25 26  1  0  0  0  0
 25 33  1  1  0  0  0
 27 28  1  6  0  0  0
 27 35  1  0  0  0  0
 29 30  1  0  0  0  0
 29 37  1  1  0  0  0
 31 32  1  6  0  0  0
 31 39  1  0  0  0  0
 33 34  1  0  0  0  0
 35 36  1  0  0  0  0
 35 41  1  1  0  0  0
 37 38  1  0  0  0  0
 39 40  1  1  0  0  0
 41 42  1  0  0  0  0
M  END
>  <CHROM.1>
-169.74958018,-26.29932242,-175.05222652,-125.44569008,91.77689743,173.80542565
76.62116352,-44.89639936,-137.97005051,11.74649589,12.71726862,-10.15941037
0.71870961,-0.98372197,2.14758939

>  <Name>
2o3w_lig

>  <RI>
0

>  <Rbt.Current_Directory>
/home/itssahil/PROJECTS/Mol_Feturizer/New_Systems/rnas/2o3w

>  <Rbt.Executable>
rbdock ($Id: //depot/dev/client3/rdock/2013.1/src/exe/rbdock.cxx#4 $)

>  <Rbt.Library>
libRbt.so (2013.1, Build901 2013/11/27)

>  <Rbt.Parameter_File>
/export/apps/rDock/src/rDock_2013.1_src/data/scripts/dock_solv.prm

>  <Rbt.Receptor>
prm/blind_docking_60.prm

>  <SCORE>
31.9283

>  <SCORE.INTER>
3.20936

>  <SCORE.INTER.CONST>
1

>  <SCORE.INTER.POLAR>
-0.137161

>  <SCORE.INTER.ROT>
9

>  <SCORE.INTER.SOLV>
27.1006

>  <SCORE.INTER.VDW>
-16.0368

>  <SCORE.INTER.norm>
0.0764132

>  <SCORE.INTRA>
16.4278

>  <SCORE.INTRA.DIHEDRAL>
-5.55516

>  <SCORE.INTRA.DIHEDRAL.0>
27.8999

>  <SCORE.INTRA.POLAR>
0

>  <SCORE.INTRA.POLAR.0>
0

>  <SCORE.INTRA.REPUL>
0

>  <SCORE.INTRA.REPUL.0>
0

>  <SCORE.INTRA.SOLV>
8.10208

>  <SCORE.INTRA.SOLV.lig_0>
-104.479

>  <SCORE.INTRA.VDW>
15.1544

>  <SCORE.INTRA.VDW.0>
-6.17816

>  <SCORE.INTRA.norm>
0.391139

>  <SCORE.RESTR>
12.2911

>  <SCORE.RESTR.CAVITY>
12.2911

>  <SCORE.RESTR.norm>
0.292646

>  <SCORE.SYSTEM>
0

>  <SCORE.SYSTEM.CONST>
0

>  <SCORE.SYSTEM.DIHEDRAL>
0

>  <SCORE.SYSTEM.SOLV>
0

>  <SCORE.SYSTEM.norm>
0

>  <SCORE.heavy>
42

>  <SCORE.norm>
0.760198

>  <RMSD>
17.652

$$$$
2o3w_lig
 OpenBabel11021811463D
libRbt.so/2013.1/901 2013/11/27
 42 45  0  0  0  0  0  0  0  0999 V2000
   12.8054   12.4543   -5.7964 C   0  0  2  0  0  0  0  0  0  0  0  0
   12.9058   12.1205   -7.1913 O   0  0  0  0  0  0  0  0  0  0  0  0
    9.9161    9.1417   -8.1837 C   0  0  2  0  0  0  0  0  0  0  0  0
    8.7686    8.4281   -8.8195 N   0  0  0  0  0  0  0  0  0  0  0  0
   12.4764   11.3435  -10.9487 C   0  0  1  0  0  0  0  0  0  0  0  0
   11.0575   14.5454  -13.3803 C   0  0  1  0  0  0  0  0  0  0  0  0
   13.2020   13.9549   -5.6579 C   0  0  2  0  0  0  0  0  0  0  0  0
   12.4845   14.8180   -6.6124 N   0  0  0  0  0  0  0  0  0  0  0  0
    9.4337   10.4435   -7.4258 C   0  0  0  0  0  0  0  0  0  0  0  0
   12.5784   12.8959  -11.0503 C   0  0  2  0  0  0  0  0  0  0  0  0
   11.4233   13.5978  -10.5286 O   0  0  0  0  0  0  0  0  0  0  0  0
   12.1199   15.6734  -13.6407 C   0  0  2  0  0  0  0  0  0  0  0  0
   13.1989   15.6384  -12.6085 N   0  0  0  0  0  0  0  0  0  0  0  0
   14.7061   14.1859   -5.8932 C   0  0  1  0  0  0  0  0  0  0  0  0
   15.0308   15.5660   -5.7175 O   0  0  0  0  0  0  0  0  0  0  0  0
   10.6812   11.1379   -6.7594 C   0  0  2  0  0  0  0  0  0  0  0  0
   10.2610   12.3610   -6.0239 N   0  0  0  0  0  0  0  0  0  0  0  0
   12.8451   13.0788  -12.5452 C   0  0  2  0  0  0  0  0  0  0  0  0
   11.6000   13.2214  -13.3003 O   0  0  0  0  0  0  0  0  0  0  0  0
   11.3858   17.0974  -13.6578 C   0  0  1  0  0  0  0  0  0  0  0  0
   10.6361   17.2217  -14.8872 O   0  0  0  0  0  0  0  0  0  0  0  0
   15.5216   13.2878   -4.9353 C   0  0  2  0  0  0  0  0  0  0  0  0
   16.9011   13.4998   -5.1265 O   0  0  0  0  0  0  0  0  0  0  0  0
   11.7559   11.5197   -7.8526 C   0  0  2  0  0  0  0  0  0  0  0  0
   13.6283   11.8330  -12.9922 C   0  0  2  0  0  0  0  0  0  0  0  0
   13.1385   10.8162  -12.1211 O   0  0  0  0  0  0  0  0  0  0  0  0
   10.4047   17.3064  -12.4083 C   0  0  2  0  0  0  0  0  0  0  0  0
   11.2149   17.4279  -11.2399 O   0  0  0  0  0  0  0  0  0  0  0  0
   15.1504   11.7905   -5.1992 C   0  0  2  0  0  0  0  0  0  0  0  0
   13.7135   11.5981   -5.0039 O   0  0  0  0  0  0  0  0  0  0  0  0
   12.2336   10.3020   -8.6738 C   0  0  2  0  0  0  0  0  0  0  0  0
   13.0607   10.8566   -9.7335 O   0  0  0  0  0  0  0  0  0  0  0  0
   15.1800   11.9595  -12.8906 C   0  0  0  0  0  0  0  0  0  0  0  0
   15.6581   11.0824  -11.8753 O   0  0  0  0  0  0  0  0  0  0  0  0
    9.4199   16.0851  -12.2644 C   0  0  1  0  0  0  0  0  0  0  0  0
   10.2687   14.8882  -12.1339 O   0  0  0  0  0  0  0  0  0  0  0  0
   15.9004   10.8378   -4.2972 C   0  0  0  0  0  0  0  0  0  0  0  0
   15.4429   10.9624   -2.9727 O   0  0  0  0  0  0  0  0  0  0  0  0
   10.9897    9.5262   -9.2792 C   0  0  1  0  0  0  0  0  0  0  0  0
   11.4216    8.3176   -9.9104 O   0  0  0  0  0  0  0  0  0  0  0  0
    8.4295   16.1944  -11.0252 C   0  0  0  0  0  0  0  0  0  0  0  0
    7.6758   17.4737  -10.9161 N   0  0  0  0  0  0  0  0  0  0  0  0
  1  2  1  6  0  0  0
  1  7  1  0  0  0  0
  1 30  1  0  0  0  0
  3  4  1  6  0  0  0
  3  9  1  0  0  0  0
  3 39  1  0  0  0  0
  5 10  1  0  0  0  0
  5 26  1  0  0  0  0
  5 32  1  1  0  0  0
  6 12  1  0  0  0  0
  6 36  1  0  0  0  0
  6 19  1  1  0  0  0
  7  8  1  6  0  0  0
  7 14  1  0  0  0  0
  9 16  1  0  0  0  0
 10 11  1  6  0  0  0
 10 18  1  0  0  0  0
 12 13  1  1  0  0  0
 12 20  1  0  0  0  0
 14 15  1  1  0  0  0
 14 22  1  0  0  0  0
 16 17  1  6  0  0  0
 16 24  1  0  0  0  0
 18 19  1  6  0  0  0
 18 25  1  0  0  0  0
 20 21  1  6  0  0  0
 20 27  1  0  0  0  0
 22 23  1  6  0  0  0
 22 29  1  0  0  0  0
 24  2  1  1  0  0  0
 24 31  1  0  0  0  0
 25 26  1  0  0  0  0
 25 33  1  1  0  0  0
 27 28  1  1  0  0  0
 27 35  1  0  0  0  0
 29 30  1  0  0  0  0
 29 37  1  1  0  0  0
 31 32  1  6  0  0  0
 31 39  1  0  0  0  0
 33 34  1  0  0  0  0
 35 36  1  0  0  0  0
 35 41  1  1  0  0  0
 37 38  1  0  0  0  0
 39 40  1  1  0  0  0
 41 42  1  0  0  0  0
M  END
>  <CHROM.1>
-126.45106902,110.21165429,42.29263309,85.66206809,-9.64294508,112.19514410
69.81433921,-84.55515167,50.98553060,12.33603903,13.00840345,-9.36529897
-0.67867040,-1.10310800,-0.25891997

>  <Name>
2o3w_lig

>  <RI>
0

>  <Rbt.Current_Directory>
/home/itssahil/PROJECTS/Mol_Feturizer/New_Systems/rnas/2o3w

>  <Rbt.Executable>
rbdock ($Id: //depot/dev/client3/rdock/2013.1/src/exe/rbdock.cxx#4 $)

>  <Rbt.Library>
libRbt.so (2013.1, Build901 2013/11/27)

>  <Rbt.Parameter_File>
/export/apps/rDock/src/rDock_2013.1_src/data/scripts/dock_solv.prm

>  <Rbt.Receptor>
prm/blind_docking_40.prm

>  <SCORE>
53.8314

>  <SCORE.INTER>
27.0411

>  <SCORE.INTER.CONST>
1

>  <SCORE.INTER.POLAR>
-0.0214768

>  <SCORE.INTER.ROT>
9

>  <SCORE.INTER.SOLV>
37.2991

>  <SCORE.INTER.VDW>
-3.93406

>  <SCORE.INTER.norm>
0.643835

>  <SCORE.INTRA>
12.4383

>  <SCORE.INTRA.DIHEDRAL>
5.07242

>  <SCORE.INTRA.DIHEDRAL.0>
27.8999

>  <SCORE.INTRA.POLAR>
0

>  <SCORE.INTRA.POLAR.0>
0

>  <SCORE.INTRA.REPUL>
0

>  <SCORE.INTRA.REPUL.0>
0

>  <SCORE.INTRA.SOLV>
2.30873

>  <SCORE.INTRA.SOLV.lig_0>
-104.479

>  <SCORE.INTRA.VDW>
8.74771

>  <SCORE.INTRA.VDW.0>
-6.17816

>  <SCORE.INTRA.norm>
0.29615

>  <SCORE.RESTR>
14.352

>  <SCORE.RESTR.CAVITY>
14.352

>  <SCORE.RESTR.norm>
0.341715

>  <SCORE.SYSTEM>
0

>  <SCORE.SYSTEM.CONST>
0

>  <SCORE.SYSTEM.DIHEDRAL>
0

>  <SCORE.SYSTEM.SOLV>
0

>  <SCORE.SYSTEM.norm>
0

>  <SCORE.heavy>
42

>  <SCORE.norm>
1.2817

>  <RMSD>
17.670

$$$$
2o3w_lig
 OpenBabel11021811463D
libRbt.so/2013.1/901 2013/11/27
 42 45  0  0  0  0  0  0  0  0999 V2000
   12.8559   12.4698   -5.5297 C   0  0  2  0  0  0  0  0  0  0  0  0
   12.9542   11.9307   -6.8590 O   0  0  0  0  0  0  0  0  0  0  0  0
    9.2623    9.8078   -7.6712 C   0  0  2  0  0  0  0  0  0  0  0  0
    8.0039    9.3287   -8.3172 N   0  0  0  0  0  0  0  0  0  0  0  0
   12.6737   10.6593  -10.3323 C   0  0  1  0  0  0  0  0  0  0  0  0
   12.0128   13.8542  -12.5597 C   0  0  1  0  0  0  0  0  0  0  0  0
   13.1663   13.9933   -5.6324 C   0  0  2  0  0  0  0  0  0  0  0  0
   12.3851   14.6578   -6.6902 N   0  0  0  0  0  0  0  0  0  0  0  0
    9.1603   11.3369   -7.2796 C   0  0  0  0  0  0  0  0  0  0  0  0
   13.1281   12.1491  -10.4032 C   0  0  2  0  0  0  0  0  0  0  0  0
   12.0786   13.1004  -10.0986 O   0  0  0  0  0  0  0  0  0  0  0  0
   10.4525   13.8204  -12.7421 C   0  0  2  0  0  0  0  0  0  0  0  0
   10.0847   13.3100  -14.0968 N   0  0  0  0  0  0  0  0  0  0  0  0
   14.6505   14.2681   -5.9365 C   0  0  1  0  0  0  0  0  0  0  0  0
   14.8967   15.6746   -5.9823 O   0  0  0  0  0  0  0  0  0  0  0  0
   10.5043   11.7764   -6.5846 C   0  0  2  0  0  0  0  0  0  0  0  0
   10.4377   13.2091   -6.1890 N   0  0  0  0  0  0  0  0  0  0  0  0
   13.6944   12.2196  -11.8222 C   0  0  2  0  0  0  0  0  0  0  0  0
   12.6682   12.6013  -12.7927 O   0  0  0  0  0  0  0  0  0  0  0  0
    9.8600   15.2892  -12.5002 C   0  0  1  0  0  0  0  0  0  0  0  0
    9.9037   15.5835  -11.0858 O   0  0  0  0  0  0  0  0  0  0  0  0
   15.5318   13.5752   -4.8723 C   0  0  2  0  0  0  0  0  0  0  0  0
   16.8934   13.8311   -5.1270 O   0  0  0  0  0  0  0  0  0  0  0  0
   11.7319   11.5504   -7.5531 C   0  0  2  0  0  0  0  0  0  0  0  0
   14.2552   10.8200  -12.1255 C   0  0  2  0  0  0  0  0  0  0  0  0
   13.4062    9.9625  -11.3662 O   0  0  0  0  0  0  0  0  0  0  0  0
   10.6554   16.4216  -13.3080 C   0  0  2  0  0  0  0  0  0  0  0  0
   10.3772   16.2371  -14.6954 O   0  0  0  0  0  0  0  0  0  0  0  0
   15.2446   12.0368   -4.8946 C   0  0  2  0  0  0  0  0  0  0  0  0
   13.8245   11.7977   -4.6375 O   0  0  0  0  0  0  0  0  0  0  0  0
   11.8615   10.0852   -8.0238 C   0  0  2  0  0  0  0  0  0  0  0  0
   12.9078   10.0995   -9.0335 O   0  0  0  0  0  0  0  0  0  0  0  0
   15.7525   10.6129  -11.7390 C   0  0  0  0  0  0  0  0  0  0  0  0
   16.1343    9.2733  -12.0367 O   0  0  0  0  0  0  0  0  0  0  0  0
   12.2044   16.3093  -13.0429 C   0  0  1  0  0  0  0  0  0  0  0  0
   12.5894   14.9436  -13.4393 O   0  0  0  0  0  0  0  0  0  0  0  0
   16.0627   11.2777   -3.8758 C   0  0  0  0  0  0  0  0  0  0  0  0
   15.7731    9.9029   -3.9483 O   0  0  0  0  0  0  0  0  0  0  0  0
   10.4898    9.5840   -8.6426 C   0  0  1  0  0  0  0  0  0  0  0  0
   10.5633    8.1867   -8.9385 O   0  0  0  0  0  0  0  0  0  0  0  0
   13.0761   17.3777  -13.8348 C   0  0  0  0  0  0  0  0  0  0  0  0
   12.5931   18.7840  -13.7588 N   0  0  0  0  0  0  0  0  0  0  0  0
  1  2  1  6  0  0  0
  1  7  1  0  0  0  0
  1 30  1  0  0  0  0
  3  4  1  6  0  0  0
  3  9  1  0  0  0  0
  3 39  1  0  0  0  0
  5 10  1  0  0  0  0
  5 26  1  0  0  0  0
  5 32  1  1  0  0  0
  6 12  1  0  0  0  0
  6 36  1  0  0  0  0
  6 19  1  6  0  0  0
  7  8  1  6  0  0  0
  7 14  1  0  0  0  0
  9 16  1  0  0  0  0
 10 11  1  6  0  0  0
 10 18  1  0  0  0  0
 12 13  1  6  0  0  0
 12 20  1  0  0  0  0
 14 15  1  1  0  0  0
 14 22  1  0  0  0  0
 16 17  1  6  0  0  0
 16 24  1  0  0  0  0
 18 19  1  6  0  0  0
 18 25  1  0  0  0  0
 20 21  1  1  0  0  0
 20 27  1  0  0  0  0
 22 23  1  6  0  0  0
 22 29  1  0  0  0  0
 24  2  1  1  0  0  0
 24 31  1  0  0  0  0
 25 26  1  0  0  0  0
 25 33  1  1  0  0  0
 27 28  1  6  0  0  0
 27 35  1  0  0  0  0
 29 30  1  0  0  0  0
 29 37  1  1  0  0  0
 31 32  1  6  0  0  0
 31 39  1  0  0  0  0
 33 34  1  0  0  0  0
 35 36  1  0  0  0  0
 35 41  1  6  0  0  0
 37 38  1  0  0  0  0
 39 40  1  1  0  0  0
 41 42  1  0  0  0  0
M  END
>  <CHROM.1>
-107.38978745,94.43548233,-135.72279339,58.01556914,-2.72242510,178.45482028
-179.49249690,-72.87542243,47.80669722,12.58010484,12.69266463,-9.28952784
-1.07337343,-0.97225265,-0.73749152

>  <Name>
2o3w_lig

>  <RI>
0

>  <Rbt.Current_Directory>
/home/itssahil/PROJECTS/Mol_Feturizer/New_Systems/rnas/2o3w

>  <Rbt.Executable>
rbdock ($Id: //depot/dev/client3/rdock/2013.1/src/exe/rbdock.cxx#4 $)

>  <Rbt.Library>
libRbt.so (2013.1, Build901 2013/11/27)

>  <Rbt.Parameter_File>
/export/apps/rDock/src/rDock_2013.1_src/data/scripts/dock_solv.prm

>  <Rbt.Receptor>
prm/blind_docking_40.prm

>  <SCORE>
20.9822

>  <SCORE.INTER>
-3.22304

>  <SCORE.INTER.CONST>
1

>  <SCORE.INTER.POLAR>
-1.04248

>  <SCORE.INTER.ROT>
9

>  <SCORE.INTER.SOLV>
29.489

>  <SCORE.INTER.VDW>
-18.1034

>  <SCORE.INTER.norm>
-0.0767392

>  <SCORE.INTRA>
6.79299

>  <SCORE.INTRA.DIHEDRAL>
-2.50252

>  <SCORE.INTRA.DIHEDRAL.0>
27.8999

>  <SCORE.INTRA.POLAR>
0

>  <SCORE.INTRA.POLAR.0>
0

>  <SCORE.INTRA.REPUL>
0

>  <SCORE.INTRA.REPUL.0>
0

>  <SCORE.INTRA.SOLV>
0.53263

>  <SCORE.INTRA.SOLV.lig_0>
-104.479

>  <SCORE.INTRA.VDW>
7.77794

>  <SCORE.INTRA.VDW.0>
-6.17816

>  <SCORE.INTRA.norm>
0.161738

>  <SCORE.RESTR>
17.4123

>  <SCORE.RESTR.CAVITY>
17.4123

>  <SCORE.RESTR.norm>
0.414578

>  <SCORE.SYSTEM>
0

>  <SCORE.SYSTEM.CONST>
0

>  <SCORE.SYSTEM.DIHEDRAL>
0

>  <SCORE.SYSTEM.SOLV>
0

>  <SCORE.SYSTEM.norm>
0

>  <SCORE.heavy>
42

>  <SCORE.norm>
0.499577

>  <RMSD>
17.679

$$$$
2o3w_lig
 OpenBabel11021811463D
libRbt.so/2013.1/901 2013/11/27
 42 45  0  0  0  0  0  0  0  0999 V2000
   13.0592   11.0071  -11.2225 C   0  0  2  0  0  0  0  0  0  0  0  0
   12.6411   10.3369  -10.0211 O   0  0  0  0  0  0  0  0  0  0  0  0
   13.5079   10.6725   -5.7865 C   0  0  2  0  0  0  0  0  0  0  0  0
   13.7672   11.2212   -4.4219 N   0  0  0  0  0  0  0  0  0  0  0  0
   10.7196   12.4560   -9.1330 C   0  0  1  0  0  0  0  0  0  0  0  0
    9.7016   16.4905  -10.9100 C   0  0  1  0  0  0  0  0  0  0  0  0
   12.2034   10.4270  -12.3885 C   0  0  2  0  0  0  0  0  0  0  0  0
   10.7622   10.4247  -12.0829 N   0  0  0  0  0  0  0  0  0  0  0  0
   14.6364   11.1100   -6.8049 C   0  0  0  0  0  0  0  0  0  0  0  0
    9.3704   13.2282   -9.2518 C   0  0  2  0  0  0  0  0  0  0  0  0
    8.5639   12.8338  -10.3890 O   0  0  0  0  0  0  0  0  0  0  0  0
    9.1126   16.6882  -12.3532 C   0  0  2  0  0  0  0  0  0  0  0  0
   10.0823   16.2297  -13.3926 N   0  0  0  0  0  0  0  0  0  0  0  0
   12.5881    8.9756  -12.7297 C   0  0  1  0  0  0  0  0  0  0  0  0
   11.8076    8.4992  -13.8273 O   0  0  0  0  0  0  0  0  0  0  0  0
   14.3207   10.4843   -8.2160 C   0  0  2  0  0  0  0  0  0  0  0  0
   15.3723   10.8643   -9.1975 N   0  0  0  0  0  0  0  0  0  0  0  0
    9.8573   14.6780   -9.2564 C   0  0  2  0  0  0  0  0  0  0  0  0
   10.1218   15.1526  -10.6149 O   0  0  0  0  0  0  0  0  0  0  0  0
    8.7315   18.2303  -12.5620 C   0  0  1  0  0  0  0  0  0  0  0  0
    7.5378   18.5237  -11.8018 O   0  0  0  0  0  0  0  0  0  0  0  0
   14.1007    8.9022  -13.0388 C   0  0  2  0  0  0  0  0  0  0  0  0
   14.4659    7.5825  -13.3696 O   0  0  0  0  0  0  0  0  0  0  0  0
   12.9098   10.9683   -8.7368 C   0  0  2  0  0  0  0  0  0  0  0  0
   11.1348   14.6995   -8.4001 C   0  0  2  0  0  0  0  0  0  0  0  0
   11.6811   13.3988   -8.6060 O   0  0  0  0  0  0  0  0  0  0  0  0
    9.9064   19.2266  -12.1207 C   0  0  2  0  0  0  0  0  0  0  0  0
   10.9728   19.0769  -13.0570 O   0  0  0  0  0  0  0  0  0  0  0  0
   14.9018    9.4012  -11.7903 C   0  0  2  0  0  0  0  0  0  0  0  0
   14.4986   10.7683  -11.4613 O   0  0  0  0  0  0  0  0  0  0  0  0
   11.7617   10.6244   -7.7627 C   0  0  2  0  0  0  0  0  0  0  0  0
   10.5896   11.2953   -8.3017 O   0  0  0  0  0  0  0  0  0  0  0  0
   10.9051   14.9779   -6.8822 C   0  0  0  0  0  0  0  0  0  0  0  0
   11.1570   13.7873   -6.1421 O   0  0  0  0  0  0  0  0  0  0  0  0
   10.4063   18.8866  -10.6658 C   0  0  1  0  0  0  0  0  0  0  0  0
   10.8313   17.4764  -10.6983 O   0  0  0  0  0  0  0  0  0  0  0  0
   16.3969    9.3691  -12.0078 C   0  0  0  0  0  0  0  0  0  0  0  0
   17.0536   10.0442  -10.9626 O   0  0  0  0  0  0  0  0  0  0  0  0
   12.0970   11.1602   -6.3080 C   0  0  1  0  0  0  0  0  0  0  0  0
   11.1084   10.7114   -5.3769 O   0  0  0  0  0  0  0  0  0  0  0  0
   11.5987   19.8085  -10.1588 C   0  0  0  0  0  0  0  0  0  0  0  0
   11.8689   19.7620   -8.6955 N   0  0  0  0  0  0  0  0  0  0  0  0
  1  2  1  1  0  0  0
  1  7  1  0  0  0  0
  1 30  1  0  0  0  0
  3  4  1  1  0  0  0
  3  9  1  0  0  0  0
  3 39  1  0  0  0  0
  5 10  1  0  0  0  0
  5 26  1  0  0  0  0
  5 32  1  1  0  0  0
  6 12  1  0  0  0  0
  6 36  1  0  0  0  0
  6 19  1  6  0  0  0
  7  8  1  1  0  0  0
  7 14  1  0  0  0  0
  9 16  1  0  0  0  0
 10 11  1  6  0  0  0
 10 18  1  0  0  0  0
 12 13  1  6  0  0  0
 12 20  1  0  0  0  0
 14 15  1  6  0  0  0
 14 22  1  0  0  0  0
 16 17  1  6  0  0  0
 16 24  1  0  0  0  0
 18 19  1  6  0  0  0
 18 25  1  0  0  0  0
 20 21  1  1  0  0  0
 20 27  1  0  0  0  0
 22 23  1  1  0  0  0
 22 29  1  0  0  0  0
 24  2  1  6  0  0  0
 24 31  1  0  0  0  0
 25 26  1  0  0  0  0
 25 33  1  1  0  0  0
 27 28  1  6  0  0  0
 27 35  1  0  0  0  0
 29 30  1  0  0  0  0
 29 37  1  6  0  0  0
 31 32  1  6  0  0  0
 31 39  1  0  0  0  0
 33 34  1  0  0  0  0
 35 36  1  0  0  0  0
 35 41  1  6  0  0  0
 37 38  1  0  0  0  0
 39 40  1  1  0  0  0
 41 42  1  0  0  0  0
M  END
>  <CHROM.1>
-158.89421498,-163.73113203,-141.91449507,139.02352905,-90.22431739,109.46823654
169.48455022,-25.09001466,165.10489481,11.87455006,13.09596922,-10.03219394
-0.07115495,1.11813637,-1.59100297

>  <Name>
2o3w_lig

>  <RI>
0

>  <Rbt.Current_Directory>
/home/itssahil/PROJECTS/Mol_Feturizer/New_Systems/rnas/2o3w

>  <Rbt.Executable>
rbdock ($Id: //depot/dev/client3/rdock/2013.1/src/exe/rbdock.cxx#4 $)

>  <Rbt.Library>
libRbt.so (2013.1, Build901 2013/11/27)

>  <Rbt.Parameter_File>
/export/apps/rDock/src/rDock_2013.1_src/data/scripts/dock_solv.prm

>  <Rbt.Receptor>
prm/blind_docking_40.prm

>  <SCORE>
89.4265

>  <SCORE.INTER>
65.1472

>  <SCORE.INTER.CONST>
1

>  <SCORE.INTER.POLAR>
-0.82806

>  <SCORE.INTER.ROT>
9

>  <SCORE.INTER.SOLV>
26.4132

>  <SCORE.INTER.VDW>
27.7873

>  <SCORE.INTER.norm>
1.55112

>  <SCORE.INTRA>
4.91778

>  <SCORE.INTRA.DIHEDRAL>
0.0808644

>  <SCORE.INTRA.DIHEDRAL.0>
27.8999

>  <SCORE.INTRA.POLAR>
0

>  <SCORE.INTRA.POLAR.0>
0

>  <SCORE.INTRA.REPUL>
0

>  <SCORE.INTRA.REPUL.0>
0

>  <SCORE.INTRA.SOLV>
0.870707

>  <SCORE.INTRA.SOLV.lig_0>
-104.479

>  <SCORE.INTRA.VDW>
4.44199

>  <SCORE.INTRA.VDW.0>
-6.17816

>  <SCORE.INTRA.norm>
0.11709

>  <SCORE.RESTR>
19.3616

>  <SCORE.RESTR.CAVITY>
19.3616

>  <SCORE.RESTR.norm>
0.46099

>  <SCORE.SYSTEM>
0

>  <SCORE.SYSTEM.CONST>
0

>  <SCORE.SYSTEM.DIHEDRAL>
0

>  <SCORE.SYSTEM.SOLV>
0

>  <SCORE.SYSTEM.norm>
0

>  <SCORE.heavy>
42

>  <SCORE.norm>
2.1292

>  <RMSD>
17.696

$$$$
2o3w_lig
 OpenBabel11021811463D
libRbt.so/2013.1/901 2013/11/27
 42 45  0  0  0  0  0  0  0  0999 V2000
   12.3291   12.4583   -6.7200 C   0  0  2  0  0  0  0  0  0  0  0  0
   12.8586   12.1728   -8.0259 O   0  0  0  0  0  0  0  0  0  0  0  0
   11.7794    9.2069  -10.9983 C   0  0  2  0  0  0  0  0  0  0  0  0
   11.0230    8.4082  -12.0084 N   0  0  0  0  0  0  0  0  0  0  0  0
   11.0932   13.5648  -10.9681 C   0  0  1  0  0  0  0  0  0  0  0  0
    7.6506   16.5000  -10.9213 C   0  0  1  0  0  0  0  0  0  0  0  0
   12.6550   13.9509   -6.4133 C   0  0  2  0  0  0  0  0  0  0  0  0
   12.2641   14.8508   -7.5123 N   0  0  0  0  0  0  0  0  0  0  0  0
   11.1304    9.0779   -9.5616 C   0  0  0  0  0  0  0  0  0  0  0  0
   10.7397   14.7569  -10.0276 C   0  0  2  0  0  0  0  0  0  0  0  0
   10.0388   14.3676   -8.8208 O   0  0  0  0  0  0  0  0  0  0  0  0
    8.3251   17.8672  -11.3013 C   0  0  2  0  0  0  0  0  0  0  0  0
    9.5157   18.1325  -10.4394 N   0  0  0  0  0  0  0  0  0  0  0  0
   14.1567   14.1814   -6.1625 C   0  0  1  0  0  0  0  0  0  0  0  0
   14.4035   15.5527   -5.8468 O   0  0  0  0  0  0  0  0  0  0  0  0
   11.9826    9.9211   -8.5392 C   0  0  2  0  0  0  0  0  0  0  0  0
   11.4077    9.8105   -7.1714 N   0  0  0  0  0  0  0  0  0  0  0  0
    9.9627   15.6667  -10.9804 C   0  0  2  0  0  0  0  0  0  0  0  0
    8.5303   15.3693  -10.9599 O   0  0  0  0  0  0  0  0  0  0  0  0
    7.2457   19.0439  -11.1697 C   0  0  1  0  0  0  0  0  0  0  0  0
    6.3158   18.9503  -12.2722 O   0  0  0  0  0  0  0  0  0  0  0  0
   14.6400   13.2460   -5.0309 C   0  0  2  0  0  0  0  0  0  0  0  0
   16.0097   13.4567   -4.7776 O   0  0  0  0  0  0  0  0  0  0  0  0
   12.0305   11.4394   -8.9729 C   0  0  2  0  0  0  0  0  0  0  0  0
   10.5613   15.4288  -12.3770 C   0  0  2  0  0  0  0  0  0  0  0  0
   10.9796   14.0671  -12.3194 O   0  0  0  0  0  0  0  0  0  0  0  0
    6.4412   18.9979   -9.7847 C   0  0  2  0  0  0  0  0  0  0  0  0
    7.3545   19.3438   -8.7442 O   0  0  0  0  0  0  0  0  0  0  0  0
   14.3770   11.7608   -5.4489 C   0  0  2  0  0  0  0  0  0  0  0  0
   12.9514   11.5699   -5.7155 O   0  0  0  0  0  0  0  0  0  0  0  0
   12.6027   11.6387  -10.3936 C   0  0  2  0  0  0  0  0  0  0  0  0
   12.4014   13.0475  -10.6923 O   0  0  0  0  0  0  0  0  0  0  0  0
   11.7511   16.3661  -12.7514 C   0  0  0  0  0  0  0  0  0  0  0  0
   12.1971   16.0569  -14.0684 O   0  0  0  0  0  0  0  0  0  0  0  0
    5.8481   17.5600   -9.5339 C   0  0  1  0  0  0  0  0  0  0  0  0
    6.9934   16.6340   -9.5636 O   0  0  0  0  0  0  0  0  0  0  0  0
   14.8157   10.7730   -4.3927 C   0  0  0  0  0  0  0  0  0  0  0  0
   15.8550    9.9640   -4.8873 O   0  0  0  0  0  0  0  0  0  0  0  0
   11.8240   10.7270  -11.4319 C   0  0  1  0  0  0  0  0  0  0  0  0
   12.4498   10.7965  -12.7161 O   0  0  0  0  0  0  0  0  0  0  0  0
    5.0597   17.4152   -8.1605 C   0  0  0  0  0  0  0  0  0  0  0  0
    3.8261   18.2397   -8.0381 N   0  0  0  0  0  0  0  0  0  0  0  0
  1  2  1  6  0  0  0
  1  7  1  0  0  0  0
  1 30  1  0  0  0  0
  3  4  1  6  0  0  0
  3  9  1  0  0  0  0
  3 39  1  0  0  0  0
  5 10  1  0  0  0  0
  5 26  1  0  0  0  0
  5 32  1  1  0  0  0
  6 12  1  0  0  0  0
  6 36  1  0  0  0  0
  6 19  1  1  0  0  0
  7  8  1  6  0  0  0
  7 14  1  0  0  0  0
  9 16  1  0  0  0  0
 10 11  1  1  0  0  0
 10 18  1  0  0  0  0
 12 13  1  1  0  0  0
 12 20  1  0  0  0  0
 14 15  1  1  0  0  0
 14 22  1  0  0  0  0
 16 17  1  1  0  0  0
 16 24  1  0  0  0  0
 18 19  1  6  0  0  0
 18 25  1  0  0  0  0
 20 21  1  6  0  0  0
 20 27  1  0  0  0  0
 22 23  1  6  0  0  0
 22 29  1  0  0  0  0
 24  2  1  1  0  0  0
 24 31  1  0  0  0  0
 25 26  1  0  0  0  0
 25 33  1  1  0  0  0
 27 28  1  1  0  0  0
 27 35  1  0  0  0  0
 29 30  1  0  0  0  0
 29 37  1  1  0  0  0
 31 32  1  6  0  0  0
 31 39  1  0  0  0  0
 33 34  1  0  0  0  0
 35 36  1  0  0  0  0
 35 41  1  1  0  0  0
 37 38  1  0  0  0  0
 39 40  1  6  0  0  0
 41 42  1  0  0  0  0
M  END
>  <CHROM.1>
-134.61805171,125.16901499,16.03458609,136.18095861,-74.27025299,-179.14565347
-116.21940670,-72.40410887,64.39562006,10.89050139,14.11632057,-9.20323110
-0.03973537,-0.84712603,1.02830688

>  <Name>
2o3w_lig

>  <RI>
0

>  <Rbt.Current_Directory>
/home/itssahil/PROJECTS/Mol_Feturizer/New_Systems/rnas/2o3w

>  <Rbt.Executable>
rbdock ($Id: //depot/dev/client3/rdock/2013.1/src/exe/rbdock.cxx#4 $)

>  <Rbt.Library>
libRbt.so (2013.1, Build901 2013/11/27)

>  <Rbt.Parameter_File>
/export/apps/rDock/src/rDock_2013.1_src/data/scripts/dock_solv.prm

>  <Rbt.Receptor>
prm/blind_docking_100.prm

>  <SCORE>
10.7921

>  <SCORE.INTER>
-3.33743

>  <SCORE.INTER.CONST>
1

>  <SCORE.INTER.POLAR>
-0.29897

>  <SCORE.INTER.ROT>
9

>  <SCORE.INTER.SOLV>
25.6367

>  <SCORE.INTER.VDW>
-19.3739

>  <SCORE.INTER.norm>
-0.0794625

>  <SCORE.INTRA>
7.94727

>  <SCORE.INTRA.DIHEDRAL>
4.34624

>  <SCORE.INTRA.DIHEDRAL.0>
27.8999

>  <SCORE.INTRA.POLAR>
0

>  <SCORE.INTRA.POLAR.0>
0

>  <SCORE.INTRA.REPUL>
0

>  <SCORE.INTRA.REPUL.0>
0

>  <SCORE.INTRA.SOLV>
2.43511

>  <SCORE.INTRA.SOLV.lig_0>
-104.479

>  <SCORE.INTRA.VDW>
4.5566

>  <SCORE.INTRA.VDW.0>
-6.17816

>  <SCORE.INTRA.norm>
0.189221

>  <SCORE.RESTR>
6.18222

>  <SCORE.RESTR.CAVITY>
6.18222

>  <SCORE.RESTR.norm>
0.147196

>  <SCORE.SYSTEM>
0

>  <SCORE.SYSTEM.CONST>
0

>  <SCORE.SYSTEM.DIHEDRAL>
0

>  <SCORE.SYSTEM.SOLV>
0

>  <SCORE.SYSTEM.norm>
0

>  <SCORE.heavy>
42

>  <SCORE.norm>
0.256954

>  <RMSD>
17.730

$$$$
2o3w_lig
 OpenBabel11021811463D
libRbt.so/2013.1/901 2013/11/27
 42 45  0  0  0  0  0  0  0  0999 V2000
   13.0850   11.5955  -10.0991 C   0  0  2  0  0  0  0  0  0  0  0  0
   13.5679   11.2417   -8.7919 O   0  0  0  0  0  0  0  0  0  0  0  0
   13.5481   13.6552   -5.1903 C   0  0  2  0  0  0  0  0  0  0  0  0
   13.8370   14.7212   -4.1851 N   0  0  0  0  0  0  0  0  0  0  0  0
   11.1751   13.9792   -9.4944 C   0  0  1  0  0  0  0  0  0  0  0  0
    7.3792   16.0382  -10.8260 C   0  0  1  0  0  0  0  0  0  0  0  0
   12.2699   10.3773  -10.6282 C   0  0  2  0  0  0  0  0  0  0  0  0
   11.2797    9.8940   -9.6502 N   0  0  0  0  0  0  0  0  0  0  0  0
   14.8306   12.7755   -5.4788 C   0  0  0  0  0  0  0  0  0  0  0  0
   10.5423   15.3718   -9.1928 C   0  0  2  0  0  0  0  0  0  0  0  0
    9.7472   15.4080   -7.9822 O   0  0  0  0  0  0  0  0  0  0  0  0
    7.8564   17.2017  -11.7680 C   0  0  2  0  0  0  0  0  0  0  0  0
    8.9807   17.9639  -11.1469 N   0  0  0  0  0  0  0  0  0  0  0  0
   13.1711    9.1788  -10.9779 C   0  0  1  0  0  0  0  0  0  0  0  0
   12.3878    8.1017  -11.4949 O   0  0  0  0  0  0  0  0  0  0  0  0
   14.4583   11.6586   -6.5260 C   0  0  2  0  0  0  0  0  0  0  0  0
   15.6406   10.8014   -6.8105 N   0  0  0  0  0  0  0  0  0  0  0  0
    9.7822   15.6405  -10.4926 C   0  0  2  0  0  0  0  0  0  0  0  0
    8.4131   15.1280  -10.4310 O   0  0  0  0  0  0  0  0  0  0  0  0
    6.6165   18.1644  -12.0888 C   0  0  1  0  0  0  0  0  0  0  0  0
    5.7297   17.4924  -13.0113 O   0  0  0  0  0  0  0  0  0  0  0  0
   14.2535    9.6247  -11.9873 C   0  0  2  0  0  0  0  0  0  0  0  0
   15.0768    8.5345  -12.3307 O   0  0  0  0  0  0  0  0  0  0  0  0
   13.9374   12.3062   -7.8695 C   0  0  2  0  0  0  0  0  0  0  0  0
   10.5868   14.9483  -11.6057 C   0  0  2  0  0  0  0  0  0  0  0  0
   11.1741   13.8367  -10.9335 O   0  0  0  0  0  0  0  0  0  0  0  0
    5.8024   18.5887  -10.7755 C   0  0  2  0  0  0  0  0  0  0  0  0
    6.6376   19.4593  -10.0133 O   0  0  0  0  0  0  0  0  0  0  0  0
   15.0995   10.7782  -11.3522 C   0  0  2  0  0  0  0  0  0  0  0  0
   14.2221   11.8931  -10.9960 O   0  0  0  0  0  0  0  0  0  0  0  0
   12.7160   13.2270   -7.6564 C   0  0  2  0  0  0  0  0  0  0  0  0
   12.4932   13.8697   -8.9416 O   0  0  0  0  0  0  0  0  0  0  0  0
   11.6778   15.8373  -12.2792 C   0  0  0  0  0  0  0  0  0  0  0  0
   11.7612   17.0818  -11.5913 O   0  0  0  0  0  0  0  0  0  0  0  0
    5.4182   17.3192   -9.9254 C   0  0  1  0  0  0  0  0  0  0  0  0
    6.6854   16.6332   -9.6188 O   0  0  0  0  0  0  0  0  0  0  0  0
   16.1828   11.2822  -12.2776 C   0  0  0  0  0  0  0  0  0  0  0  0
   15.6096   11.8873  -13.4109 O   0  0  0  0  0  0  0  0  0  0  0  0
   13.0298   14.3047   -6.5358 C   0  0  1  0  0  0  0  0  0  0  0  0
   11.8525   15.0578   -6.2319 O   0  0  0  0  0  0  0  0  0  0  0  0
    4.6345   17.6520   -8.5824 C   0  0  0  0  0  0  0  0  0  0  0  0
    4.2177   16.4739   -7.7731 N   0  0  0  0  0  0  0  0  0  0  0  0
  1  2  1  1  0  0  0
  1  7  1  0  0  0  0
  1 30  1  0  0  0  0
  3  4  1  1  0  0  0
  3  9  1  0  0  0  0
  3 39  1  0  0  0  0
  5 10  1  0  0  0  0
  5 26  1  0  0  0  0
  5 32  1  6  0  0  0
  6 12  1  0  0  0  0
  6 36  1  0  0  0  0
  6 19  1  1  0  0  0
  7  8  1  1  0  0  0
  7 14  1  0  0  0  0
  9 16  1  0  0  0  0
 10 11  1  1  0  0  0
 10 18  1  0  0  0  0
 12 13  1  1  0  0  0
 12 20  1  0  0  0  0
 14 15  1  6  0  0  0
 14 22  1  0  0  0  0
 16 17  1  6  0  0  0
 16 24  1  0  0  0  0
 18 19  1  1  0  0  0
 18 25  1  0  0  0  0
 20 21  1  6  0  0  0
 20 27  1  0  0  0  0
 22 23  1  1  0  0  0
 22 29  1  0  0  0  0
 24  2  1  6  0  0  0
 24 31  1  0  0  0  0
 25 26  1  0  0  0  0
 25 33  1  1  0  0  0
 27 28  1  1  0  0  0
 27 35  1  0  0  0  0
 29 30  1  0  0  0  0
 29 37  1  6  0  0  0
 31 32  1  6  0  0  0
 31 39  1  0  0  0  0
 33 34  1  0  0  0  0
 35 36  1  0  0  0  0
 35 41  1  1  0  0  0
 37 38  1  0  0  0  0
 39 40  1  1  0  0  0
 41 42  1  0  0  0  0
M  END
>  <CHROM.1>
-158.25628674,96.98325073,22.75044100,130.51778350,-178.89573662,5.81112275
65.24950712,134.94361108,178.19140879,11.12760173,13.97837893,-9.76858431
0.14822189,0.69966529,-1.88476590

>  <Name>
2o3w_lig

>  <RI>
0

>  <Rbt.Current_Directory>
/home/itssahil/PROJECTS/Mol_Feturizer/New_Systems/rnas/2o3w

>  <Rbt.Executable>
rbdock ($Id: //depot/dev/client3/rdock/2013.1/src/exe/rbdock.cxx#4 $)

>  <Rbt.Library>
libRbt.so (2013.1, Build901 2013/11/27)

>  <Rbt.Parameter_File>
/export/apps/rDock/src/rDock_2013.1_src/data/scripts/dock_solv.prm

>  <Rbt.Receptor>
prm/blind_docking_100.prm

>  <SCORE>
29.5232

>  <SCORE.INTER>
17.0221

>  <SCORE.INTER.CONST>
1

>  <SCORE.INTER.POLAR>
-0.3798

>  <SCORE.INTER.ROT>
9

>  <SCORE.INTER.SOLV>
30.8096

>  <SCORE.INTER.VDW>
-7.25576

>  <SCORE.INTER.norm>
0.405289

>  <SCORE.INTRA>
5.92579

>  <SCORE.INTRA.DIHEDRAL>
2.1021

>  <SCORE.INTRA.DIHEDRAL.0>
27.8999

>  <SCORE.INTRA.POLAR>
0

>  <SCORE.INTRA.POLAR.0>
0

>  <SCORE.INTRA.REPUL>
0

>  <SCORE.INTRA.REPUL.0>
0

>  <SCORE.INTRA.SOLV>
-0.970539

>  <SCORE.INTRA.SOLV.lig_0>
-104.479

>  <SCORE.INTRA.VDW>
5.36001

>  <SCORE.INTRA.VDW.0>
-6.17816

>  <SCORE.INTRA.norm>
0.14109

>  <SCORE.RESTR>
6.57522

>  <SCORE.RESTR.CAVITY>
6.57522

>  <SCORE.RESTR.norm>
0.156553

>  <SCORE.SYSTEM>
0

>  <SCORE.SYSTEM.CONST>
0

>  <SCORE.SYSTEM.DIHEDRAL>
0

>  <SCORE.SYSTEM.SOLV>
0

>  <SCORE.SYSTEM.norm>
0

>  <SCORE.heavy>
42

>  <SCORE.norm>
0.702932

>  <RMSD>
17.766

$$$$
2o3w_lig
 OpenBabel11021811463D
libRbt.so/2013.1/901 2013/11/27
 42 45  0  0  0  0  0  0  0  0999 V2000
   11.7583    9.9298   -8.3446 C   0  0  2  0  0  0  0  0  0  0  0  0
   11.7898   10.7720   -9.5095 O   0  0  0  0  0  0  0  0  0  0  0  0
   13.8253    8.0722  -12.2232 C   0  0  2  0  0  0  0  0  0  0  0  0
   14.3690    7.4310  -13.4575 N   0  0  0  0  0  0  0  0  0  0  0  0
   13.2756   12.6097  -11.7033 C   0  0  1  0  0  0  0  0  0  0  0  0
   10.4844   15.2499  -13.2460 C   0  0  1  0  0  0  0  0  0  0  0  0
   10.5778   10.4256   -7.4564 C   0  0  2  0  0  0  0  0  0  0  0  0
    9.3245   10.5747   -8.2163 N   0  0  0  0  0  0  0  0  0  0  0  0
   12.2437    8.0523  -12.2150 C   0  0  0  0  0  0  0  0  0  0  0  0
   11.8803   11.9862  -12.0115 C   0  0  2  0  0  0  0  0  0  0  0  0
   11.8301   11.2375  -13.2509 O   0  0  0  0  0  0  0  0  0  0  0  0
   11.6826   16.2546  -13.3991 C   0  0  2  0  0  0  0  0  0  0  0  0
   12.7191   16.0125  -12.3512 N   0  0  0  0  0  0  0  0  0  0  0  0
   10.8689   11.7908   -6.8065 C   0  0  1  0  0  0  0  0  0  0  0  0
    9.7792   12.1868   -5.9719 O   0  0  0  0  0  0  0  0  0  0  0  0
   11.7318    8.7198  -10.8828 C   0  0  2  0  0  0  0  0  0  0  0  0
   10.2448    8.7051  -10.8348 N   0  0  0  0  0  0  0  0  0  0  0  0
   10.9819   13.2224  -11.9477 C   0  0  2  0  0  0  0  0  0  0  0  0
   10.8600   13.8670  -13.2555 O   0  0  0  0  0  0  0  0  0  0  0  0
   11.1271   17.7555  -13.3232 C   0  0  1  0  0  0  0  0  0  0  0  0
   10.4340   18.0600  -14.5544 O   0  0  0  0  0  0  0  0  0  0  0  0
   12.1906   11.7110   -6.0091 C   0  0  2  0  0  0  0  0  0  0  0  0
   12.4629   12.9486   -5.3939 O   0  0  0  0  0  0  0  0  0  0  0  0
   12.2511   10.2076  -10.7700 C   0  0  2  0  0  0  0  0  0  0  0  0
   11.6298   14.1653  -10.9199 C   0  0  2  0  0  0  0  0  0  0  0  0
   13.0192   13.8721  -11.0463 O   0  0  0  0  0  0  0  0  0  0  0  0
   10.1427   17.9923  -12.0812 C   0  0  2  0  0  0  0  0  0  0  0  0
   10.9273   17.9281  -10.8910 O   0  0  0  0  0  0  0  0  0  0  0  0
   13.3498   11.3096   -6.9810 C   0  0  2  0  0  0  0  0  0  0  0  0
   13.0397   10.0277   -7.6137 O   0  0  0  0  0  0  0  0  0  0  0  0
   13.7910   10.3104  -10.8280 C   0  0  2  0  0  0  0  0  0  0  0  0
   14.0764   11.7345  -10.8983 O   0  0  0  0  0  0  0  0  0  0  0  0
   11.1461   13.9686   -9.4497 C   0  0  0  0  0  0  0  0  0  0  0  0
   12.0686   14.5947   -8.5632 O   0  0  0  0  0  0  0  0  0  0  0  0
    9.0135   16.8940  -12.0498 C   0  0  1  0  0  0  0  0  0  0  0  0
    9.7070   15.5955  -11.9933 O   0  0  0  0  0  0  0  0  0  0  0  0
   14.6846   11.2014   -6.2807 C   0  0  0  0  0  0  0  0  0  0  0  0
   14.6850   10.1001   -5.4052 O   0  0  0  0  0  0  0  0  0  0  0  0
   14.3431    9.5623  -12.1130 C   0  0  1  0  0  0  0  0  0  0  0  0
   15.7727    9.5269  -12.0872 O   0  0  0  0  0  0  0  0  0  0  0  0
    8.0080   17.0338  -10.8258 C   0  0  0  0  0  0  0  0  0  0  0  0
    8.6372   17.0507   -9.4766 N   0  0  0  0  0  0  0  0  0  0  0  0
  1  2  1  6  0  0  0
  1  7  1  0  0  0  0
  1 30  1  0  0  0  0
  3  4  1  6  0  0  0
  3  9  1  0  0  0  0
  3 39  1  0  0  0  0
  5 10  1  0  0  0  0
  5 26  1  0  0  0  0
  5 32  1  1  0  0  0
  6 12  1  0  0  0  0
  6 36  1  0  0  0  0
  6 19  1  1  0  0  0
  7  8  1  6  0  0  0
  7 14  1  0  0  0  0
  9 16  1  0  0  0  0
 10 11  1  6  0  0  0
 10 18  1  0  0  0  0
 12 13  1  1  0  0  0
 12 20  1  0  0  0  0
 14 15  1  1  0  0  0
 14 22  1  0  0  0  0
 16 17  1  6  0  0  0
 16 24  1  0  0  0  0
 18 19  1  6  0  0  0
 18 25  1  0  0  0  0
 20 21  1  6  0  0  0
 20 27  1  0  0  0  0
 22 23  1  6  0  0  0
 22 29  1  0  0  0  0
 24  2  1  1  0  0  0
 24 31  1  0  0  0  0
 25 26  1  0  0  0  0
 25 33  1  1  0  0  0
 27 28  1  1  0  0  0
 27 35  1  0  0  0  0
 29 30  1  0  0  0  0
 29 37  1  1  0  0  0
 31 32  1  6  0  0  0
 31 39  1  0  0  0  0
 33 34  1  0  0  0  0
 35 36  1  0  0  0  0
 35 41  1  1  0  0  0
 37 38  1  0  0  0  0
 39 40  1  1  0  0  0
 41 42  1  0  0  0  0
M  END
>  <CHROM.1>
-148.68094929,20.48974548,98.57264002,-157.67192274,37.71944634,163.12584851
68.46169462,-40.30027053,-55.36150718,11.84291375,12.65621693,-10.36979046
0.63143356,-1.14173763,1.82700386

>  <Name>
2o3w_lig

>  <RI>
0

>  <Rbt.Current_Directory>
/home/itssahil/PROJECTS/Mol_Feturizer/New_Systems/rnas/2o3w

>  <Rbt.Executable>
rbdock ($Id: //depot/dev/client3/rdock/2013.1/src/exe/rbdock.cxx#4 $)

>  <Rbt.Library>
libRbt.so (2013.1, Build901 2013/11/27)

>  <Rbt.Parameter_File>
/export/apps/rDock/src/rDock_2013.1_src/data/scripts/dock_solv.prm

>  <Rbt.Receptor>
prm/blind_docking_40.prm

>  <SCORE>
17.1138

>  <SCORE.INTER>
-10.1357

>  <SCORE.INTER.CONST>
1

>  <SCORE.INTER.POLAR>
-3.16334

>  <SCORE.INTER.ROT>
9

>  <SCORE.INTER.SOLV>
28.9461

>  <SCORE.INTER.VDW>
-15.4613

>  <SCORE.INTER.norm>
-0.241326

>  <SCORE.INTRA>
19.9306

>  <SCORE.INTRA.DIHEDRAL>
-6.0985

>  <SCORE.INTRA.DIHEDRAL.0>
27.8999

>  <SCORE.INTRA.POLAR>
0

>  <SCORE.INTRA.POLAR.0>
0

>  <SCORE.INTRA.REPUL>
0

>  <SCORE.INTRA.REPUL.0>
0

>  <SCORE.INTRA.SOLV>
6.32148

>  <SCORE.INTRA.SOLV.lig_0>
-104.479

>  <SCORE.INTRA.VDW>
19.8191

>  <SCORE.INTRA.VDW.0>
-6.17816

>  <SCORE.INTRA.norm>
0.474538

>  <SCORE.RESTR>
7.31889

>  <SCORE.RESTR.CAVITY>
7.31889

>  <SCORE.RESTR.norm>
0.174259

>  <SCORE.SYSTEM>
0

>  <SCORE.SYSTEM.CONST>
0

>  <SCORE.SYSTEM.DIHEDRAL>
0

>  <SCORE.SYSTEM.SOLV>
0

>  <SCORE.SYSTEM.norm>
0

>  <SCORE.heavy>
42

>  <SCORE.norm>
0.407471

>  <RMSD>
17.795

$$$$
2o3w_lig
 OpenBabel11021811463D
libRbt.so/2013.1/901 2013/11/27
 42 45  0  0  0  0  0  0  0  0999 V2000
   11.6077    9.8252   -8.3472 C   0  0  2  0  0  0  0  0  0  0  0  0
   11.5823   10.6531   -9.5225 O   0  0  0  0  0  0  0  0  0  0  0  0
   13.9551    8.1081  -12.1088 C   0  0  2  0  0  0  0  0  0  0  0  0
   14.6371    7.5269  -13.3035 N   0  0  0  0  0  0  0  0  0  0  0  0
   13.2163   12.6090  -11.4850 C   0  0  1  0  0  0  0  0  0  0  0  0
   10.5839   15.3859  -13.1284 C   0  0  1  0  0  0  0  0  0  0  0  0
   10.4447   10.3048   -7.4276 C   0  0  2  0  0  0  0  0  0  0  0  0
    9.1646   10.4151   -8.1486 N   0  0  0  0  0  0  0  0  0  0  0  0
   12.3818    8.0471  -12.2598 C   0  0  0  0  0  0  0  0  0  0  0  0
   11.7483   12.1169  -11.6681 C   0  0  2  0  0  0  0  0  0  0  0  0
   11.5499   11.2740  -12.8297 O   0  0  0  0  0  0  0  0  0  0  0  0
   11.8200   16.2702  -13.5267 C   0  0  2  0  0  0  0  0  0  0  0  0
   12.9580   16.0517  -12.5843 N   0  0  0  0  0  0  0  0  0  0  0  0
   10.7241   11.6846   -6.8037 C   0  0  1  0  0  0  0  0  0  0  0  0
    9.6525   12.0658   -5.9393 O   0  0  0  0  0  0  0  0  0  0  0  0
   11.7209    8.6519  -10.9636 C   0  0  2  0  0  0  0  0  0  0  0  0
   10.2376    8.5970  -11.0653 N   0  0  0  0  0  0  0  0  0  0  0  0
   10.9887   13.4444  -11.6756 C   0  0  2  0  0  0  0  0  0  0  0  0
   10.8604   13.9832  -13.0299 O   0  0  0  0  0  0  0  0  0  0  0  0
   11.3816   17.8110  -13.5519 C   0  0  1  0  0  0  0  0  0  0  0  0
   10.5653   18.0454  -14.7214 O   0  0  0  0  0  0  0  0  0  0  0  0
   12.0720   11.6455   -6.0482 C   0  0  2  0  0  0  0  0  0  0  0  0
   12.3344   12.8969   -5.4570 O   0  0  0  0  0  0  0  0  0  0  0  0
   12.1826   10.1474  -10.7489 C   0  0  2  0  0  0  0  0  0  0  0  0
   11.7888   14.3964  -10.7706 C   0  0  2  0  0  0  0  0  0  0  0  0
   13.1307   13.9438  -10.9353 O   0  0  0  0  0  0  0  0  0  0  0  0
   10.5751   18.2499  -12.2387 C   0  0  2  0  0  0  0  0  0  0  0  0
   11.4934   18.2423  -11.1464 O   0  0  0  0  0  0  0  0  0  0  0  0
   13.2088   11.2588   -7.0520 C   0  0  2  0  0  0  0  0  0  0  0  0
   12.9090    9.9621   -7.6590 O   0  0  0  0  0  0  0  0  0  0  0  0
   13.7170   10.2920  -10.6489 C   0  0  2  0  0  0  0  0  0  0  0  0
   13.9660   11.7246  -10.6419 O   0  0  0  0  0  0  0  0  0  0  0  0
   11.3718   14.3810   -9.2673 C   0  0  0  0  0  0  0  0  0  0  0  0
   12.0872   13.3514   -8.5912 O   0  0  0  0  0  0  0  0  0  0  0  0
    9.3860   17.2550  -11.9583 C   0  0  1  0  0  0  0  0  0  0  0  0
    9.9911   15.9170  -11.8402 O   0  0  0  0  0  0  0  0  0  0  0  0
   14.5674   11.1904   -6.3937 C   0  0  0  0  0  0  0  0  0  0  0  0
   14.6085   10.1248   -5.4761 O   0  0  0  0  0  0  0  0  0  0  0  0
   14.4155    9.6060  -11.8968 C   0  0  1  0  0  0  0  0  0  0  0  0
   15.8359    9.6066  -11.7292 O   0  0  0  0  0  0  0  0  0  0  0  0
    8.5499   17.5975  -10.6498 C   0  0  0  0  0  0  0  0  0  0  0  0
    8.1972   19.0328  -10.4704 N   0  0  0  0  0  0  0  0  0  0  0  0
  1  2  1  6  0  0  0
  1  7  1  0  0  0  0
  1 30  1  0  0  0  0
  3  4  1  6  0  0  0
  3  9  1  0  0  0  0
  3 39  1  0  0  0  0
  5 10  1  0  0  0  0
  5 26  1  0  0  0  0
  5 32  1  1  0  0  0
  6 12  1  0  0  0  0
  6 36  1  0  0  0  0
  6 19  1  1  0  0  0
  7  8  1  6  0  0  0
  7 14  1  0  0  0  0
  9 16  1  0  0  0  0
 10 11  1  6  0  0  0
 10 18  1  0  0  0  0
 12 13  1  1  0  0  0
 12 20  1  0  0  0  0
 14 15  1  1  0  0  0
 14 22  1  0  0  0  0
 16 17  1  6  0  0  0
 16 24  1  0  0  0  0
 18 19  1  6  0  0  0
 18 25  1  0  0  0  0
 20 21  1  6  0  0  0
 20 27  1  0  0  0  0
 22 23  1  6  0  0  0
 22 29  1  0  0  0  0
 24  2  1  1  0  0  0
 24 31  1  0  0  0  0
 25 26  1  0  0  0  0
 25 33  1  1  0  0  0
 27 28  1  1  0  0  0
 27 35  1  0  0  0  0
 29 30  1  0  0  0  0
 29 37  1  1  0  0  0
 31 32  1  6  0  0  0
 31 39  1  0  0  0  0
 33 34  1  0  0  0  0
 35 36  1  0  0  0  0
 35 41  1  1  0  0  0
 37 38  1  0  0  0  0
 39 40  1  1  0  0  0
 41 42  1  0  0  0  0
M  END
>  <CHROM.1>
-156.89544837,33.88135049,103.40628033,-159.85297085,45.25118040,86.90801756
66.71391149,-39.79279945,44.84516245,11.87591134,12.72390663,-10.34672217
0.76622781,-1.15181252,1.97734419

>  <Name>
2o3w_lig

>  <RI>
0

>  <Rbt.Current_Directory>
/home/itssahil/PROJECTS/Mol_Feturizer/New_Systems/rnas/2o3w

>  <Rbt.Executable>
rbdock ($Id: //depot/dev/client3/rdock/2013.1/src/exe/rbdock.cxx#4 $)

>  <Rbt.Library>
libRbt.so (2013.1, Build901 2013/11/27)

>  <Rbt.Parameter_File>
/export/apps/rDock/src/rDock_2013.1_src/data/scripts/dock_solv.prm

>  <Rbt.Receptor>
prm/blind_docking_60.prm

>  <SCORE>
15.7512

>  <SCORE.INTER>
-11.9903

>  <SCORE.INTER.CONST>
1

>  <SCORE.INTER.POLAR>
-3.06615

>  <SCORE.INTER.ROT>
9

>  <SCORE.INTER.SOLV>
27.8607

>  <SCORE.INTER.VDW>
-16.66

>  <SCORE.INTER.norm>
-0.285484

>  <SCORE.INTRA>
19.8981

>  <SCORE.INTRA.DIHEDRAL>
-8.94072

>  <SCORE.INTRA.DIHEDRAL.0>
27.8999

>  <SCORE.INTRA.POLAR>
0

>  <SCORE.INTRA.POLAR.0>
0

>  <SCORE.INTRA.REPUL>
0

>  <SCORE.INTRA.REPUL.0>
0

>  <SCORE.INTRA.SOLV>
5.07158

>  <SCORE.INTRA.SOLV.lig_0>
-104.479

>  <SCORE.INTRA.VDW>
21.8327

>  <SCORE.INTRA.VDW.0>
-6.17816

>  <SCORE.INTRA.norm>
0.473765

>  <SCORE.RESTR>
7.84344

>  <SCORE.RESTR.CAVITY>
7.84344

>  <SCORE.RESTR.norm>
0.186748

>  <SCORE.SYSTEM>
0

>  <SCORE.SYSTEM.CONST>
0

>  <SCORE.SYSTEM.DIHEDRAL>
0

>  <SCORE.SYSTEM.SOLV>
0

>  <SCORE.SYSTEM.norm>
0

>  <SCORE.heavy>
42

>  <SCORE.norm>
0.375029

>  <RMSD>
17.815

$$$$
2o3w_lig
 OpenBabel11021811463D
libRbt.so/2013.1/901 2013/11/27
 42 45  0  0  0  0  0  0  0  0999 V2000
   12.6889   11.3544   -8.0800 C   0  0  2  0  0  0  0  0  0  0  0  0
   13.1025   10.1548   -8.7561 O   0  0  0  0  0  0  0  0  0  0  0  0
   13.5090    8.7287  -12.8300 C   0  0  2  0  0  0  0  0  0  0  0  0
   13.3317    8.5418  -14.3011 N   0  0  0  0  0  0  0  0  0  0  0  0
   13.1429   12.8319  -11.1376 C   0  0  1  0  0  0  0  0  0  0  0  0
   10.7590   15.4772  -11.8730 C   0  0  1  0  0  0  0  0  0  0  0  0
   13.0461   11.1742   -6.5740 C   0  0  2  0  0  0  0  0  0  0  0  0
   14.4368   10.7311   -6.3735 N   0  0  0  0  0  0  0  0  0  0  0  0
   12.1987    8.3300  -12.0388 C   0  0  0  0  0  0  0  0  0  0  0  0
   11.7275   12.1920  -11.0031 C   0  0  2  0  0  0  0  0  0  0  0  0
   11.2705   11.5153  -12.1999 O   0  0  0  0  0  0  0  0  0  0  0  0
   10.0209   16.4996  -10.9357 C   0  0  2  0  0  0  0  0  0  0  0  0
    8.5401   16.4086  -11.1082 N   0  0  0  0  0  0  0  0  0  0  0  0
   12.1444   10.1370   -5.8797 C   0  0  1  0  0  0  0  0  0  0  0  0
   12.4802   10.0335   -4.4950 O   0  0  0  0  0  0  0  0  0  0  0  0
   12.4543    8.5264  -10.4965 C   0  0  2  0  0  0  0  0  0  0  0  0
   11.2442    8.1460   -9.7190 N   0  0  0  0  0  0  0  0  0  0  0  0
   10.8960   13.3992  -10.5665 C   0  0  2  0  0  0  0  0  0  0  0  0
   10.3422   14.1151  -11.7160 O   0  0  0  0  0  0  0  0  0  0  0  0
   10.5470   17.9800  -11.2499 C   0  0  1  0  0  0  0  0  0  0  0  0
   11.8819   18.1247  -10.7152 O   0  0  0  0  0  0  0  0  0  0  0  0
   10.6622   10.5306   -6.0730 C   0  0  2  0  0  0  0  0  0  0  0  0
    9.8238    9.5998   -5.4287 O   0  0  0  0  0  0  0  0  0  0  0  0
   12.8365   10.0267  -10.1820 C   0  0  2  0  0  0  0  0  0  0  0  0
   11.8451   14.2973   -9.7552 C   0  0  2  0  0  0  0  0  0  0  0  0
   13.1143   14.0472  -10.3545 O   0  0  0  0  0  0  0  0  0  0  0  0
   10.5577   18.3168  -12.8165 C   0  0  2  0  0  0  0  0  0  0  0  0
    9.2002   18.4094  -13.2466 O   0  0  0  0  0  0  0  0  0  0  0  0
   10.3460   10.5923   -7.6046 C   0  0  2  0  0  0  0  0  0  0  0  0
   11.2346   11.5572   -8.2519 O   0  0  0  0  0  0  0  0  0  0  0  0
   14.0785   10.5052  -10.9654 C   0  0  2  0  0  0  0  0  0  0  0  0
   14.1702   11.9322  -10.7015 O   0  0  0  0  0  0  0  0  0  0  0  0
   11.8801   14.0035   -8.2233 C   0  0  0  0  0  0  0  0  0  0  0  0
   13.2017   14.2116   -7.7345 O   0  0  0  0  0  0  0  0  0  0  0  0
   11.3093   17.1906  -13.6220 C   0  0  1  0  0  0  0  0  0  0  0  0
   10.6127   15.9304  -13.3104 O   0  0  0  0  0  0  0  0  0  0  0  0
    8.9125   10.9783   -7.8873 C   0  0  0  0  0  0  0  0  0  0  0  0
    8.6682   12.2920   -7.4470 O   0  0  0  0  0  0  0  0  0  0  0  0
   13.8884   10.2314  -12.5161 C   0  0  1  0  0  0  0  0  0  0  0  0
   15.0950   10.5336  -13.2221 O   0  0  0  0  0  0  0  0  0  0  0  0
   11.3383   17.4284  -15.1940 C   0  0  0  0  0  0  0  0  0  0  0  0
   12.0767   16.4056  -15.9848 N   0  0  0  0  0  0  0  0  0  0  0  0
  1  2  1  6  0  0  0
  1  7  1  0  0  0  0
  1 30  1  0  0  0  0
  3  4  1  6  0  0  0
  3  9  1  0  0  0  0
  3 39  1  0  0  0  0
  5 10  1  0  0  0  0
  5 26  1  0  0  0  0
  5 32  1  1  0  0  0
  6 12  1  0  0  0  0
  6 36  1  0  0  0  0
  6 19  1  6  0  0  0
  7  8  1  6  0  0  0
  7 14  1  0  0  0  0
  9 16  1  0  0  0  0
 10 11  1  6  0  0  0
 10 18  1  0  0  0  0
 12 13  1  6  0  0  0
 12 20  1  0  0  0  0
 14 15  1  1  0  0  0
 14 22  1  0  0  0  0
 16 17  1  1  0  0  0
 16 24  1  0  0  0  0
 18 19  1  6  0  0  0
 18 25  1  0  0  0  0
 20 21  1  6  0  0  0
 20 27  1  0  0  0  0
 22 23  1  1  0  0  0
 22 29  1  0  0  0  0
 24  2  1  1  0  0  0
 24 31  1  0  0  0  0
 25 26  1  0  0  0  0
 25 33  1  1  0  0  0
 27 28  1  6  0  0  0
 27 35  1  0  0  0  0
 29 30  1  0  0  0  0
 29 37  1  1  0  0  0
 31 32  1  6  0  0  0
 31 39  1  0  0  0  0
 33 34  1  0  0  0  0
 35 36  1  0  0  0  0
 35 41  1  6  0  0  0
 37 38  1  0  0  0  0
 39 40  1  6  0  0  0
 41 42  1  0  0  0  0
M  END
>  <CHROM.1>
177.50516655,37.38816473,-78.96510619,-118.53183625,-142.82324124,144.83038464
64.93823934,-63.96300892,178.19062132,11.76977356,12.71820703,-10.27983978
1.21501264,-1.11709426,2.19924040

>  <Name>
2o3w_lig

>  <RI>
0

>  <Rbt.Current_Directory>
/home/itssahil/PROJECTS/Mol_Feturizer/New_Systems/rnas/2o3w

>  <Rbt.Executable>
rbdock ($Id: //depot/dev/client3/rdock/2013.1/src/exe/rbdock.cxx#4 $)

>  <Rbt.Library>
libRbt.so (2013.1, Build901 2013/11/27)

>  <Rbt.Parameter_File>
/export/apps/rDock/src/rDock_2013.1_src/data/scripts/dock_solv.prm

>  <Rbt.Receptor>
prm/blind_docking_40.prm

>  <SCORE>
36.8376

>  <SCORE.INTER>
15.5689

>  <SCORE.INTER.CONST>
1

>  <SCORE.INTER.POLAR>
-1.05955

>  <SCORE.INTER.ROT>
9

>  <SCORE.INTER.SOLV>
33.3992

>  <SCORE.INTER.VDW>
-6.82198

>  <SCORE.INTER.norm>
0.370688

>  <SCORE.INTRA>
7.38106

>  <SCORE.INTRA.DIHEDRAL>
-8.32361

>  <SCORE.INTRA.DIHEDRAL.0>
27.8999

>  <SCORE.INTRA.POLAR>
0

>  <SCORE.INTRA.POLAR.0>
0

>  <SCORE.INTRA.REPUL>
0

>  <SCORE.INTRA.REPUL.0>
0

>  <SCORE.INTRA.SOLV>
-0.228025

>  <SCORE.INTRA.SOLV.lig_0>
-104.479

>  <SCORE.INTRA.VDW>
11.6569

>  <SCORE.INTRA.VDW.0>
-6.17816

>  <SCORE.INTRA.norm>
0.175739

>  <SCORE.RESTR>
13.8876

>  <SCORE.RESTR.CAVITY>
13.8876

>  <SCORE.RESTR.norm>
0.330658

>  <SCORE.SYSTEM>
0

>  <SCORE.SYSTEM.CONST>
0

>  <SCORE.SYSTEM.DIHEDRAL>
0

>  <SCORE.SYSTEM.SOLV>
0

>  <SCORE.SYSTEM.norm>
0

>  <SCORE.heavy>
42

>  <SCORE.norm>
0.877085

>  <RMSD>
17.823

$$$$
2o3w_lig
 OpenBabel11021811463D
libRbt.so/2013.1/901 2013/11/27
 42 45  0  0  0  0  0  0  0  0999 V2000
   14.3023   11.3820   -7.0300 C   0  0  2  0  0  0  0  0  0  0  0  0
   12.9202   10.9972   -6.9354 O   0  0  0  0  0  0  0  0  0  0  0  0
   10.6179    8.9850  -10.0090 C   0  0  2  0  0  0  0  0  0  0  0  0
    9.8443    8.6957  -11.2533 N   0  0  0  0  0  0  0  0  0  0  0  0
   14.0554   11.7875  -10.2725 C   0  0  1  0  0  0  0  0  0  0  0  0
   12.7168   14.8251  -13.2414 C   0  0  1  0  0  0  0  0  0  0  0  0
   15.0085   10.8619   -5.7420 C   0  0  2  0  0  0  0  0  0  0  0  0
   14.7194    9.4423   -5.4745 N   0  0  0  0  0  0  0  0  0  0  0  0
    9.8663   10.0367   -9.0974 C   0  0  0  0  0  0  0  0  0  0  0  0
   13.5812   11.4746  -11.7244 C   0  0  2  0  0  0  0  0  0  0  0  0
   14.6624   11.2396  -12.6598 O   0  0  0  0  0  0  0  0  0  0  0  0
   12.4688   16.0801  -12.3291 C   0  0  2  0  0  0  0  0  0  0  0  0
   11.8182   15.6852  -11.0439 N   0  0  0  0  0  0  0  0  0  0  0  0
   14.5853   11.6463   -4.4863 C   0  0  1  0  0  0  0  0  0  0  0  0
   15.2854   11.1630   -3.3386 O   0  0  0  0  0  0  0  0  0  0  0  0
   10.7172   10.2829   -7.7945 C   0  0  2  0  0  0  0  0  0  0  0  0
   10.0311   11.2585   -6.9051 N   0  0  0  0  0  0  0  0  0  0  0  0
   12.7035   12.6921  -12.0191 C   0  0  2  0  0  0  0  0  0  0  0  0
   13.4755   13.7783  -12.6232 O   0  0  0  0  0  0  0  0  0  0  0  0
   11.5727   17.1434  -13.1248 C   0  0  1  0  0  0  0  0  0  0  0  0
   12.3864   17.7739  -14.1393 O   0  0  0  0  0  0  0  0  0  0  0  0
   14.8408   13.1542   -4.7098 C   0  0  2  0  0  0  0  0  0  0  0  0
   14.4740   13.8848   -3.5626 O   0  0  0  0  0  0  0  0  0  0  0  0
   12.1560   10.8219   -8.1625 C   0  0  2  0  0  0  0  0  0  0  0  0
   12.1030   13.1191  -10.6691 C   0  0  2  0  0  0  0  0  0  0  0  0
   13.1125   12.7433   -9.7353 O   0  0  0  0  0  0  0  0  0  0  0  0
   10.2822   16.4826  -13.8070 C   0  0  2  0  0  0  0  0  0  0  0  0
    9.3908   16.0986  -12.7610 O   0  0  0  0  0  0  0  0  0  0  0  0
   14.0217   13.6318   -5.9550 C   0  0  2  0  0  0  0  0  0  0  0  0
   14.4131   12.8529   -7.1296 O   0  0  0  0  0  0  0  0  0  0  0  0
   12.9304    9.8697   -9.1000 C   0  0  2  0  0  0  0  0  0  0  0  0
   14.1316   10.5977   -9.4765 O   0  0  0  0  0  0  0  0  0  0  0  0
   10.7366   12.4536  -10.3166 C   0  0  0  0  0  0  0  0  0  0  0  0
    9.8694   12.5342  -11.4438 O   0  0  0  0  0  0  0  0  0  0  0  0
   10.6895   15.2256  -14.6652 C   0  0  1  0  0  0  0  0  0  0  0  0
   11.3849   14.3095  -13.7447 O   0  0  0  0  0  0  0  0  0  0  0  0
   14.2182   15.1005   -6.2519 C   0  0  0  0  0  0  0  0  0  0  0  0
   15.5369   15.4845   -5.9471 O   0  0  0  0  0  0  0  0  0  0  0  0
   12.0565    9.5274  -10.3786 C   0  0  1  0  0  0  0  0  0  0  0  0
   12.7090    8.5304  -11.1697 O   0  0  0  0  0  0  0  0  0  0  0  0
    9.4615   14.4859  -15.3533 C   0  0  0  0  0  0  0  0  0  0  0  0
    9.5528   13.0007  -15.4038 N   0  0  0  0  0  0  0  0  0  0  0  0
  1  2  1  1  0  0  0
  1  7  1  0  0  0  0
  1 30  1  0  0  0  0
  3  4  1  6  0  0  0
  3  9  1  0  0  0  0
  3 39  1  0  0  0  0
  5 10  1  0  0  0  0
  5 26  1  0  0  0  0
  5 32  1  1  0  0  0
  6 12  1  0  0  0  0
  6 36  1  0  0  0  0
  6 19  1  1  0  0  0
  7  8  1  1  0  0  0
  7 14  1  0  0  0  0
  9 16  1  0  0  0  0
 10 11  1  6  0  0  0
 10 18  1  0  0  0  0
 12 13  1  1  0  0  0
 12 20  1  0  0  0  0
 14 15  1  1  0  0  0
 14 22  1  0  0  0  0
 16 17  1  1  0  0  0
 16 24  1  0  0  0  0
 18 19  1  1  0  0  0
 18 25  1  0  0  0  0
 20 21  1  6  0  0  0
 20 27  1  0  0  0  0
 22 23  1  1  0  0  0
 22 29  1  0  0  0  0
 24  2  1  1  0  0  0
 24 31  1  0  0  0  0
 25 26  1  0  0  0  0
 25 33  1  1  0  0  0
 27 28  1  1  0  0  0
 27 35  1  0  0  0  0
 29 30  1  0  0  0  0
 29 37  1  6  0  0  0
 31 32  1  6  0  0  0
 31 39  1  0  0  0  0
 33 34  1  0  0  0  0
 35 36  1  0  0  0  0
 35 41  1  1  0  0  0
 37 38  1  0  0  0  0
 39 40  1  1  0  0  0
 41 42  1  0  0  0  0
M  END
>  <CHROM.1>
-154.02245076,-67.92144437,96.06934262,165.00662422,175.17723522,-47.29541180
34.71276492,-65.97667937,-142.58694750,12.53215847,12.66484966,-9.77885280
-0.75530729,-1.07521886,-0.45733699

>  <Name>
2o3w_lig

>  <RI>
0

>  <Rbt.Current_Directory>
/home/itssahil/PROJECTS/Mol_Feturizer/New_Systems/rnas/2o3w

>  <Rbt.Executable>
rbdock ($Id: //depot/dev/client3/rdock/2013.1/src/exe/rbdock.cxx#4 $)

>  <Rbt.Library>
libRbt.so (2013.1, Build901 2013/11/27)

>  <Rbt.Parameter_File>
/export/apps/rDock/src/rDock_2013.1_src/data/scripts/dock_solv.prm

>  <Rbt.Receptor>
prm/blind_docking_60.prm

>  <SCORE>
37.7154

>  <SCORE.INTER>
21.0179

>  <SCORE.INTER.CONST>
1

>  <SCORE.INTER.POLAR>
-1.17257

>  <SCORE.INTER.ROT>
9

>  <SCORE.INTER.SOLV>
37.1326

>  <SCORE.INTER.VDW>
-4.05706

>  <SCORE.INTER.norm>
0.500426

>  <SCORE.INTRA>
2.93148

>  <SCORE.INTRA.DIHEDRAL>
-12.4478

>  <SCORE.INTRA.DIHEDRAL.0>
27.8999

>  <SCORE.INTRA.POLAR>
0

>  <SCORE.INTRA.POLAR.0>
0

>  <SCORE.INTRA.REPUL>
0.178686

>  <SCORE.INTRA.REPUL.0>
0

>  <SCORE.INTRA.SOLV>
1.91768

>  <SCORE.INTRA.SOLV.lig_0>
-104.479

>  <SCORE.INTRA.VDW>
7.30311

>  <SCORE.INTRA.VDW.0>
-6.17816

>  <SCORE.INTRA.norm>
0.069797

>  <SCORE.RESTR>
13.766

>  <SCORE.RESTR.CAVITY>
13.766

>  <SCORE.RESTR.norm>
0.327763

>  <SCORE.SYSTEM>
0

>  <SCORE.SYSTEM.CONST>
0

>  <SCORE.SYSTEM.DIHEDRAL>
0

>  <SCORE.SYSTEM.SOLV>
0

>  <SCORE.SYSTEM.norm>
0

>  <SCORE.heavy>
42

>  <SCORE.norm>
0.897985

>  <RMSD>
17.828

$$$$
2o3w_lig
 OpenBabel11021811463D
libRbt.so/2013.1/901 2013/11/27
 42 45  0  0  0  0  0  0  0  0999 V2000
   13.3341   11.8399  -10.6976 C   0  0  2  0  0  0  0  0  0  0  0  0
   12.6590   12.4873  -11.7896 O   0  0  0  0  0  0  0  0  0  0  0  0
    9.2665   15.1191  -12.3897 C   0  0  2  0  0  0  0  0  0  0  0  0
    7.9719   15.8421  -12.2114 N   0  0  0  0  0  0  0  0  0  0  0  0
   11.8480   13.9382   -8.8525 C   0  0  1  0  0  0  0  0  0  0  0  0
   11.9853   12.5393   -6.2180 C   0  0  1  0  0  0  0  0  0  0  0  0
   14.6017   11.1533  -11.2891 C   0  0  2  0  0  0  0  0  0  0  0  0
   15.3969   12.0657  -12.1292 N   0  0  0  0  0  0  0  0  0  0  0  0
    9.0351   13.5661  -12.5808 C   0  0  0  0  0  0  0  0  0  0  0  0
   11.6780   14.8682   -7.6127 C   0  0  2  0  0  0  0  0  0  0  0  0
   12.8471   14.9324   -6.7594 O   0  0  0  0  0  0  0  0  0  0  0  0
   11.8285   11.0081   -6.5337 C   0  0  2  0  0  0  0  0  0  0  0  0
   11.0502   10.3192   -5.4610 N   0  0  0  0  0  0  0  0  0  0  0  0
   14.2522    9.9349  -12.1634 C   0  0  1  0  0  0  0  0  0  0  0  0
   15.4431    9.3145  -12.6510 O   0  0  0  0  0  0  0  0  0  0  0  0
   10.4304   12.8637  -12.7859 C   0  0  2  0  0  0  0  0  0  0  0  0
   10.2489   11.4003  -12.9836 N   0  0  0  0  0  0  0  0  0  0  0  0
   10.4208   14.2800   -6.9703 C   0  0  2  0  0  0  0  0  0  0  0  0
   10.7505   13.2337   -6.0021 O   0  0  0  0  0  0  0  0  0  0  0  0
   13.2802   10.3519   -6.7033 C   0  0  1  0  0  0  0  0  0  0  0  0
   13.8393   10.7747   -7.9672 O   0  0  0  0  0  0  0  0  0  0  0  0
   13.3932    8.9433  -11.3461 C   0  0  2  0  0  0  0  0  0  0  0  0
   13.0786    7.8141  -12.1273 O   0  0  0  0  0  0  0  0  0  0  0  0
   11.3702   13.1180  -11.5417 C   0  0  2  0  0  0  0  0  0  0  0  0
    9.5743   13.7222   -8.1270 C   0  0  2  0  0  0  0  0  0  0  0  0
   10.5562   13.3308   -9.0836 O   0  0  0  0  0  0  0  0  0  0  0  0
   14.2824   10.7436   -5.5160 C   0  0  2  0  0  0  0  0  0  0  0  0
   13.8225   10.0937   -4.3318 O   0  0  0  0  0  0  0  0  0  0  0  0
   12.0896    9.6680  -10.8714 C   0  0  2  0  0  0  0  0  0  0  0  0
   12.4423   10.8408  -10.0714 O   0  0  0  0  0  0  0  0  0  0  0  0
   11.5964   14.6194  -11.2590 C   0  0  2  0  0  0  0  0  0  0  0  0
   12.3151   14.6661   -9.9957 O   0  0  0  0  0  0  0  0  0  0  0  0
    8.5588   14.7321   -8.7460 C   0  0  0  0  0  0  0  0  0  0  0  0
    9.1410   16.0319   -8.7662 O   0  0  0  0  0  0  0  0  0  0  0  0
   14.3111   12.3047   -5.3052 C   0  0  1  0  0  0  0  0  0  0  0  0
   12.9193   12.7071   -5.0380 O   0  0  0  0  0  0  0  0  0  0  0  0
   11.1892    8.7696  -10.0553 C   0  0  0  0  0  0  0  0  0  0  0  0
   10.0230    9.4621   -9.6818 O   0  0  0  0  0  0  0  0  0  0  0  0
   10.2050   15.3718  -11.1424 C   0  0  1  0  0  0  0  0  0  0  0  0
   10.4145   16.7823  -11.0322 O   0  0  0  0  0  0  0  0  0  0  0  0
   15.2580   12.7808   -4.1198 C   0  0  0  0  0  0  0  0  0  0  0  0
   16.7081   12.4975   -4.3029 N   0  0  0  0  0  0  0  0  0  0  0  0
  1  2  1  6  0  0  0
  1  7  1  0  0  0  0
  1 30  1  0  0  0  0
  3  4  1  1  0  0  0
  3  9  1  0  0  0  0
  3 39  1  0  0  0  0
  5 10  1  0  0  0  0
  5 26  1  0  0  0  0
  5 32  1  6  0  0  0
  6 12  1  0  0  0  0
  6 36  1  0  0  0  0
  6 19  1  1  0  0  0
  7  8  1  6  0  0  0
  7 14  1  0  0  0  0
  9 16  1  0  0  0  0
 10 11  1  1  0  0  0
 10 18  1  0  0  0  0
 12 13  1  1  0  0  0
 12 20  1  0  0  0  0
 14 15  1  1  0  0  0
 14 22  1  0  0  0  0
 16 17  1  1  0  0  0
 16 24  1  0  0  0  0
 18 19  1  1  0  0  0
 18 25  1  0  0  0  0
 20 21  1  6  0  0  0
 20 27  1  0  0  0  0
 22 23  1  6  0  0  0
 22 29  1  0  0  0  0
 24  2  1  6  0  0  0
 24 31  1  0  0  0  0
 25 26  1  0  0  0  0
 25 33  1  6  0  0  0
 27 28  1  1  0  0  0
 27 35  1  0  0  0  0
 29 30  1  0  0  0  0
 29 37  1  1  0  0  0
 31 32  1  1  0  0  0
 31 39  1  0  0  0  0
 33 34  1  0  0  0  0
 35 36  1  0  0  0  0
 35 41  1  1  0  0  0
 37 38  1  0  0  0  0
 39 40  1  6  0  0  0
 41 42  1  0  0  0  0
M  END
>  <CHROM.1>
174.83233255,-125.86192171,-116.00159261,-26.43602798,-141.53900981,36.88118082
-178.70370963,-50.06364003,63.86475244,12.03769851,12.39570174,-9.15625142
-2.40042939,-0.88610133,1.20780230

>  <Name>
2o3w_lig

>  <RI>
0

>  <Rbt.Current_Directory>
/home/itssahil/PROJECTS/Mol_Feturizer/New_Systems/rnas/2o3w

>  <Rbt.Executable>
rbdock ($Id: //depot/dev/client3/rdock/2013.1/src/exe/rbdock.cxx#4 $)

>  <Rbt.Library>
libRbt.so (2013.1, Build901 2013/11/27)

>  <Rbt.Parameter_File>
/export/apps/rDock/src/rDock_2013.1_src/data/scripts/dock_solv.prm

>  <Rbt.Receptor>
prm/blind_docking_60.prm

>  <SCORE>
22.2564

>  <SCORE.INTER>
3.4283

>  <SCORE.INTER.CONST>
1

>  <SCORE.INTER.POLAR>
-0.505281

>  <SCORE.INTER.ROT>
9

>  <SCORE.INTER.SOLV>
29.12

>  <SCORE.INTER.VDW>
-15.3369

>  <SCORE.INTER.norm>
0.0816262

>  <SCORE.INTRA>
4.47505

>  <SCORE.INTRA.DIHEDRAL>
-1.98868

>  <SCORE.INTRA.DIHEDRAL.0>
27.8999

>  <SCORE.INTRA.POLAR>
0

>  <SCORE.INTRA.POLAR.0>
0

>  <SCORE.INTRA.REPUL>
0.0414936

>  <SCORE.INTRA.REPUL.0>
0

>  <SCORE.INTRA.SOLV>
1.58269

>  <SCORE.INTRA.SOLV.lig_0>
-104.479

>  <SCORE.INTRA.VDW>
4.47057

>  <SCORE.INTRA.VDW.0>
-6.17816

>  <SCORE.INTRA.norm>
0.106549

>  <SCORE.RESTR>
14.3531

>  <SCORE.RESTR.CAVITY>
14.3531

>  <SCORE.RESTR.norm>
0.34174

>  <SCORE.SYSTEM>
0

>  <SCORE.SYSTEM.CONST>
0

>  <SCORE.SYSTEM.DIHEDRAL>
0

>  <SCORE.SYSTEM.SOLV>
0

>  <SCORE.SYSTEM.norm>
0

>  <SCORE.heavy>
42

>  <SCORE.norm>
0.529915

>  <RMSD>
17.834

$$$$
2o3w_lig
 OpenBabel11021811463D
libRbt.so/2013.1/901 2013/11/27
 42 45  0  0  0  0  0  0  0  0999 V2000
   -2.9808    9.5149   12.0087 C   0  0  2  0  0  0  0  0  0  0  0  0
   -3.5630   10.4221   12.9602 O   0  0  0  0  0  0  0  0  0  0  0  0
   -7.4556   10.3225   14.8664 C   0  0  2  0  0  0  0  0  0  0  0  0
   -8.9306   10.3295   15.1009 N   0  0  0  0  0  0  0  0  0  0  0  0
   -4.8666    6.8124   12.7321 C   0  0  1  0  0  0  0  0  0  0  0  0
   -3.0936    3.0055   12.7877 C   0  0  1  0  0  0  0  0  0  0  0  0
   -1.6475   10.1587   11.5231 C   0  0  2  0  0  0  0  0  0  0  0  0
   -0.7964   10.6035   12.6405 N   0  0  0  0  0  0  0  0  0  0  0  0
   -6.9620   11.7037   14.2744 C   0  0  0  0  0  0  0  0  0  0  0  0
   -5.1175    5.9119   11.4844 C   0  0  2  0  0  0  0  0  0  0  0  0
   -6.4186    5.2745   11.4697 O   0  0  0  0  0  0  0  0  0  0  0  0
   -3.4153    1.5069   13.1335 C   0  0  2  0  0  0  0  0  0  0  0  0
   -4.5113    1.4162   14.1443 N   0  0  0  0  0  0  0  0  0  0  0  0
   -1.8846   11.3888   10.6277 C   0  0  1  0  0  0  0  0  0  0  0  0
   -0.6390   11.9216   10.1745 O   0  0  0  0  0  0  0  0  0  0  0  0
   -5.4008   11.6428   14.0707 C   0  0  2  0  0  0  0  0  0  0  0  0
   -4.8992   12.9338   13.5273 N   0  0  0  0  0  0  0  0  0  0  0  0
   -3.9176    4.9661   11.5545 C   0  0  2  0  0  0  0  0  0  0  0  0
   -4.2203    3.7702   12.3413 O   0  0  0  0  0  0  0  0  0  0  0  0
   -2.0842    0.7887   13.6619 C   0  0  1  0  0  0  0  0  0  0  0  0
   -1.1984    0.5644   12.5421 O   0  0  0  0  0  0  0  0  0  0  0  0
   -2.7952   10.9957    9.4422 C   0  0  2  0  0  0  0  0  0  0  0  0
   -3.0084   12.1072    8.6035 O   0  0  0  0  0  0  0  0  0  0  0  0
   -5.0128   10.4677   13.0886 C   0  0  2  0  0  0  0  0  0  0  0  0
   -2.7750    5.7764   12.1895 C   0  0  2  0  0  0  0  0  0  0  0  0
   -3.4626    6.6794   13.0521 O   0  0  0  0  0  0  0  0  0  0  0  0
   -1.3225    1.6398   14.7857 C   0  0  2  0  0  0  0  0  0  0  0  0
   -2.1308    1.6220   15.9616 O   0  0  0  0  0  0  0  0  0  0  0  0
   -4.1540   10.4547    9.9996 C   0  0  2  0  0  0  0  0  0  0  0  0
   -3.9057    9.3086   10.8738 O   0  0  0  0  0  0  0  0  0  0  0  0
   -5.5134    9.0902   13.5756 C   0  0  2  0  0  0  0  0  0  0  0  0
   -5.2367    8.1743   12.4806 O   0  0  0  0  0  0  0  0  0  0  0  0
   -1.8717    6.5459   11.1764 C   0  0  0  0  0  0  0  0  0  0  0  0
   -1.1832    5.6087   10.3539 O   0  0  0  0  0  0  0  0  0  0  0  0
   -1.0960    3.1221   14.3022 C   0  0  1  0  0  0  0  0  0  0  0  0
   -2.4311    3.6570   13.9834 O   0  0  0  0  0  0  0  0  0  0  0  0
   -5.1077   10.0389    8.9036 C   0  0  0  0  0  0  0  0  0  0  0  0
   -6.1248    9.2218    9.4301 O   0  0  0  0  0  0  0  0  0  0  0  0
   -7.0688    9.1480   13.8809 C   0  0  1  0  0  0  0  0  0  0  0  0
   -7.5012    7.9203   14.4737 O   0  0  0  0  0  0  0  0  0  0  0  0
   -0.3737    4.0494   15.3731 C   0  0  0  0  0  0  0  0  0  0  0  0
   -1.1623    5.2212   15.8439 N   0  0  0  0  0  0  0  0  0  0  0  0
  1  2  1  1  0  0  0
  1  7  1  0  0  0  0
  1 30  1  0  0  0  0
  3  4  1  6  0  0  0
  3  9  1  0  0  0  0
  3 39  1  0  0  0  0
  5 10  1  0  0  0  0
  5 26  1  0  0  0  0
  5 32  1  6  0  0  0
  6 12  1  0  0  0  0
  6 36  1  0  0  0  0
  6 19  1  1  0  0  0
  7  8  1  1  0  0  0
  7 14  1  0  0  0  0
  9 16  1  0  0  0  0
 10 11  1  1  0  0  0
 10 18  1  0  0  0  0
 12 13  1  1  0  0  0
 12 20  1  0  0  0  0
 14 15  1  6  0  0  0
 14 22  1  0  0  0  0
 16 17  1  6  0  0  0
 16 24  1  0  0  0  0
 18 19  1  1  0  0  0
 18 25  1  0  0  0  0
 20 21  1  6  0  0  0
 20 27  1  0  0  0  0
 22 23  1  6  0  0  0
 22 29  1  0  0  0  0
 24  2  1  1  0  0  0
 24 31  1  0  0  0  0
 25 26  1  0  0  0  0
 25 33  1  6  0  0  0
 27 28  1  1  0  0  0
 27 35  1  0  0  0  0
 29 30  1  0  0  0  0
 29 37  1  6  0  0  0
 31 32  1  6  0  0  0
 31 39  1  0  0  0  0
 33 34  1  0  0  0  0
 35 36  1  0  0  0  0
 35 41  1  1  0  0  0
 37 38  1  0  0  0  0
 39 40  1  1  0  0  0
 41 42  1  0  0  0  0
M  END
>  <CHROM.1>
149.98026867,159.51202284,-158.00515275,-163.18664060,-173.80640399,-64.73563213
163.09586643,145.76128339,-118.37438039,-3.73838474,7.26497872,12.57845673
-1.86224305,-0.54529306,2.75832746

>  <Name>
2o3w_lig

>  <RI>
0

>  <Rbt.Current_Directory>
/home/itssahil/PROJECTS/Mol_Feturizer/New_Systems/rnas/2o3w

>  <Rbt.Executable>
rbdock ($Id: //depot/dev/client3/rdock/2013.1/src/exe/rbdock.cxx#4 $)

>  <Rbt.Library>
libRbt.so (2013.1, Build901 2013/11/27)

>  <Rbt.Parameter_File>
/export/apps/rDock/src/rDock_2013.1_src/data/scripts/dock_solv.prm

>  <Rbt.Receptor>
prm/blind_docking_60.prm

>  <SCORE>
24.2583

>  <SCORE.INTER>
6.52551

>  <SCORE.INTER.CONST>
1

>  <SCORE.INTER.POLAR>
-0.615146

>  <SCORE.INTER.ROT>
9

>  <SCORE.INTER.SOLV>
32.9804

>  <SCORE.INTER.VDW>
-14.1926

>  <SCORE.INTER.norm>
0.155369

>  <SCORE.INTRA>
-2.34963

>  <SCORE.INTRA.DIHEDRAL>
-7.97955

>  <SCORE.INTRA.DIHEDRAL.0>
27.8999

>  <SCORE.INTRA.POLAR>
0

>  <SCORE.INTRA.POLAR.0>
0

>  <SCORE.INTRA.REPUL>
0.0753887

>  <SCORE.INTRA.REPUL.0>
0

>  <SCORE.INTRA.SOLV>
-3.54393

>  <SCORE.INTRA.SOLV.lig_0>
-104.479

>  <SCORE.INTRA.VDW>
3.03517

>  <SCORE.INTRA.VDW.0>
-6.17816

>  <SCORE.INTRA.norm>
-0.0559436

>  <SCORE.RESTR>
20.0824

>  <SCORE.RESTR.CAVITY>
20.0824

>  <SCORE.RESTR.norm>
0.478152

>  <SCORE.SYSTEM>
0

>  <SCORE.SYSTEM.CONST>
0

>  <SCORE.SYSTEM.DIHEDRAL>
0

>  <SCORE.SYSTEM.SOLV>
0

>  <SCORE.SYSTEM.norm>
0

>  <SCORE.heavy>
42

>  <SCORE.norm>
0.577578

>  <RMSD>
17.838

$$$$
2o3w_lig
 OpenBabel11021811463D
libRbt.so/2013.1/901 2013/11/27
 42 45  0  0  0  0  0  0  0  0999 V2000
   11.8265    9.9753   -8.2695 C   0  0  2  0  0  0  0  0  0  0  0  0
   11.9914   10.8322   -9.4122 O   0  0  0  0  0  0  0  0  0  0  0  0
   14.0416    8.1317  -12.1140 C   0  0  2  0  0  0  0  0  0  0  0  0
   14.5666    7.4727  -13.3472 N   0  0  0  0  0  0  0  0  0  0  0  0
   13.3012   12.6589  -11.7083 C   0  0  1  0  0  0  0  0  0  0  0  0
   10.4851   15.2123  -13.1827 C   0  0  1  0  0  0  0  0  0  0  0  0
   10.5793   10.4907   -7.4904 C   0  0  2  0  0  0  0  0  0  0  0  0
    9.4090   10.6842   -8.3642 N   0  0  0  0  0  0  0  0  0  0  0  0
   12.4639    8.0437  -12.0435 C   0  0  0  0  0  0  0  0  0  0  0  0
   11.8838   12.0206  -11.8290 C   0  0  2  0  0  0  0  0  0  0  0  0
   11.7143   11.1783  -12.9955 O   0  0  0  0  0  0  0  0  0  0  0  0
   11.7343   16.0869  -13.5615 C   0  0  2  0  0  0  0  0  0  0  0  0
   12.8667   15.8351  -12.6207 N   0  0  0  0  0  0  0  0  0  0  0  0
   10.8416   11.8385   -6.7935 C   0  0  1  0  0  0  0  0  0  0  0  0
    9.6873   12.2524   -6.0606 O   0  0  0  0  0  0  0  0  0  0  0  0
   11.9733    8.7337  -10.7147 C   0  0  2  0  0  0  0  0  0  0  0  0
   10.4913    8.6563  -10.6082 N   0  0  0  0  0  0  0  0  0  0  0  0
   10.9931   13.2627  -11.7740 C   0  0  2  0  0  0  0  0  0  0  0  0
   10.7421   13.8044  -13.1097 O   0  0  0  0  0  0  0  0  0  0  0  0
   11.3171   17.6338  -13.5590 C   0  0  1  0  0  0  0  0  0  0  0  0
   10.5072   17.9011  -14.7258 O   0  0  0  0  0  0  0  0  0  0  0  0
   12.0781   11.7118   -5.8746 C   0  0  2  0  0  0  0  0  0  0  0  0
   12.3217   12.9330   -5.2162 O   0  0  0  0  0  0  0  0  0  0  0  0
   12.4297   10.2455  -10.6708 C   0  0  2  0  0  0  0  0  0  0  0  0
   11.7363   14.2792  -10.8910 C   0  0  2  0  0  0  0  0  0  0  0  0
   13.1073   13.9698  -11.1296 O   0  0  0  0  0  0  0  0  0  0  0  0
   10.5133   18.0591  -12.2397 C   0  0  2  0  0  0  0  0  0  0  0  0
   11.4285   18.0186  -11.1456 O   0  0  0  0  0  0  0  0  0  0  0  0
   13.3146   11.2924   -6.7376 C   0  0  2  0  0  0  0  0  0  0  0  0
   13.0338   10.0282   -7.4179 O   0  0  0  0  0  0  0  0  0  0  0  0
   13.9602   10.4128  -10.7922 C   0  0  2  0  0  0  0  0  0  0  0  0
   14.1790   11.8447  -10.9199 O   0  0  0  0  0  0  0  0  0  0  0  0
   11.3995   14.1998   -9.3696 C   0  0  0  0  0  0  0  0  0  0  0  0
   12.5543   13.7722   -8.6538 O   0  0  0  0  0  0  0  0  0  0  0  0
    9.3099   17.0757  -11.9807 C   0  0  1  0  0  0  0  0  0  0  0  0
    9.8963   15.7275  -11.8862 O   0  0  0  0  0  0  0  0  0  0  0  0
   14.5727   11.1384   -5.9147 C   0  0  0  0  0  0  0  0  0  0  0  0
   15.7008   11.1065   -6.7547 O   0  0  0  0  0  0  0  0  0  0  0  0
   14.4964    9.6457  -12.0728 C   0  0  1  0  0  0  0  0  0  0  0  0
   15.9261    9.6730  -12.1017 O   0  0  0  0  0  0  0  0  0  0  0  0
    8.4752   17.4052  -10.6680 C   0  0  0  0  0  0  0  0  0  0  0  0
    9.0891   16.9582   -9.3875 N   0  0  0  0  0  0  0  0  0  0  0  0
  1  2  1  6  0  0  0
  1  7  1  0  0  0  0
  1 30  1  0  0  0  0
  3  4  1  6  0  0  0
  3  9  1  0  0  0  0
  3 39  1  0  0  0  0
  5 10  1  0  0  0  0
  5 26  1  0  0  0  0
  5 32  1  1  0  0  0
  6 12  1  0  0  0  0
  6 36  1  0  0  0  0
  6 19  1  1  0  0  0
  7  8  1  6  0  0  0
  7 14  1  0  0  0  0
  9 16  1  0  0  0  0
 10 11  1  6  0  0  0
 10 18  1  0  0  0  0
 12 13  1  1  0  0  0
 12 20  1  0  0  0  0
 14 15  1  1  0  0  0
 14 22  1  0  0  0  0
 16 17  1  6  0  0  0
 16 24  1  0  0  0  0
 18 19  1  6  0  0  0
 18 25  1  0  0  0  0
 20 21  1  6  0  0  0
 20 27  1  0  0  0  0
 22 23  1  6  0  0  0
 22 29  1  0  0  0  0
 24  2  1  1  0  0  0
 24 31  1  0  0  0  0
 25 26  1  0  0  0  0
 25 33  1  1  0  0  0
 27 28  1  1  0  0  0
 27 35  1  0  0  0  0
 29 30  1  0  0  0  0
 29 37  1  1  0  0  0
 31 32  1  6  0  0  0
 31 39  1  0  0  0  0
 33 34  1  0  0  0  0
 35 36  1  0  0  0  0
 35 41  1  1  0  0  0
 37 38  1  0  0  0  0
 39 40  1  1  0  0  0
 41 42  1  0  0  0  0
M  END
>  <CHROM.1>
-142.57386032,25.06475043,97.47103848,-152.20468851,27.38375290,113.59709899
-164.81161716,-39.55671852,-78.67591781,11.99304180,12.69360686,-10.36240336
0.70554855,-1.12914385,1.89503836

>  <Name>
2o3w_lig

>  <RI>
0

>  <Rbt.Current_Directory>
/home/itssahil/PROJECTS/Mol_Feturizer/New_Systems/rnas/2o3w

>  <Rbt.Executable>
rbdock ($Id: //depot/dev/client3/rdock/2013.1/src/exe/rbdock.cxx#4 $)

>  <Rbt.Library>
libRbt.so (2013.1, Build901 2013/11/27)

>  <Rbt.Parameter_File>
/export/apps/rDock/src/rDock_2013.1_src/data/scripts/dock_solv.prm

>  <Rbt.Receptor>
prm/blind_docking_60.prm

>  <SCORE>
35.6676

>  <SCORE.INTER>
0.859321

>  <SCORE.INTER.CONST>
1

>  <SCORE.INTER.POLAR>
-1.23443

>  <SCORE.INTER.ROT>
9

>  <SCORE.INTER.SOLV>
29.3156

>  <SCORE.INTER.VDW>
-14.6842

>  <SCORE.INTER.norm>
0.02046

>  <SCORE.INTRA>
27.7361

>  <SCORE.INTRA.DIHEDRAL>
2.74702

>  <SCORE.INTRA.DIHEDRAL.0>
27.8999

>  <SCORE.INTRA.POLAR>
0

>  <SCORE.INTRA.POLAR.0>
0

>  <SCORE.INTRA.REPUL>
0

>  <SCORE.INTRA.REPUL.0>
0

>  <SCORE.INTRA.SOLV>
7.89428

>  <SCORE.INTRA.SOLV.lig_0>
-104.479

>  <SCORE.INTRA.VDW>
22.4155

>  <SCORE.INTRA.VDW.0>
-6.17816

>  <SCORE.INTRA.norm>
0.660384

>  <SCORE.RESTR>
7.07216

>  <SCORE.RESTR.CAVITY>
7.07216

>  <SCORE.RESTR.norm>
0.168385

>  <SCORE.SYSTEM>
0

>  <SCORE.SYSTEM.CONST>
0

>  <SCORE.SYSTEM.DIHEDRAL>
0

>  <SCORE.SYSTEM.SOLV>
0

>  <SCORE.SYSTEM.norm>
0

>  <SCORE.heavy>
42

>  <SCORE.norm>
0.849228

>  <RMSD>
17.846

$$$$
2o3w_lig
 OpenBabel11021811463D
libRbt.so/2013.1/901 2013/11/27
 42 45  0  0  0  0  0  0  0  0999 V2000
   13.6426   11.4528  -10.9528 C   0  0  2  0  0  0  0  0  0  0  0  0
   13.5299   12.6092  -11.7997 O   0  0  0  0  0  0  0  0  0  0  0  0
   11.1516   16.0646  -10.7042 C   0  0  2  0  0  0  0  0  0  0  0  0
   10.0079   17.0025  -10.4971 N   0  0  0  0  0  0  0  0  0  0  0  0
   11.9647   11.8578   -8.3943 C   0  0  1  0  0  0  0  0  0  0  0  0
   13.1266   11.5245   -5.6881 C   0  0  1  0  0  0  0  0  0  0  0  0
   14.9310   10.6929  -11.3894 C   0  0  2  0  0  0  0  0  0  0  0  0
   16.1042   11.5792  -11.4820 N   0  0  0  0  0  0  0  0  0  0  0  0
   11.4145   15.8110  -12.2432 C   0  0  0  0  0  0  0  0  0  0  0  0
   10.8430   12.1902   -7.3637 C   0  0  2  0  0  0  0  0  0  0  0  0
   11.0299   13.4514   -6.6756 O   0  0  0  0  0  0  0  0  0  0  0  0
   14.2688   10.7131   -4.9770 C   0  0  2  0  0  0  0  0  0  0  0  0
   14.0941   10.7341   -3.4938 N   0  0  0  0  0  0  0  0  0  0  0  0
   14.7737   10.0181  -12.7645 C   0  0  1  0  0  0  0  0  0  0  0  0
   15.9617    9.3018  -13.1058 O   0  0  0  0  0  0  0  0  0  0  0  0
   12.6421   14.8354  -12.3971 C   0  0  2  0  0  0  0  0  0  0  0  0
   12.9274   14.5858  -13.8359 N   0  0  0  0  0  0  0  0  0  0  0  0
   10.8729   10.9426   -6.4794 C   0  0  2  0  0  0  0  0  0  0  0  0
   11.7983   11.1006   -5.3571 O   0  0  0  0  0  0  0  0  0  0  0  0
   15.6901   11.3214   -5.3977 C   0  0  1  0  0  0  0  0  0  0  0  0
   15.9755   10.9411   -6.7625 O   0  0  0  0  0  0  0  0  0  0  0  0
   13.5398    9.0874  -12.7440 C   0  0  2  0  0  0  0  0  0  0  0  0
   13.3916    8.4489  -13.9909 O   0  0  0  0  0  0  0  0  0  0  0  0
   12.3580   13.4634  -11.6672 C   0  0  2  0  0  0  0  0  0  0  0  0
   11.3006    9.7833   -7.3952 C   0  0  2  0  0  0  0  0  0  0  0  0
   12.1423   10.4233   -8.3514 O   0  0  0  0  0  0  0  0  0  0  0  0
   15.7485   12.9169   -5.2625 C   0  0  2  0  0  0  0  0  0  0  0  0
   15.7140   13.2331   -3.8713 O   0  0  0  0  0  0  0  0  0  0  0  0
   12.2682    9.9330  -12.4010 C   0  0  2  0  0  0  0  0  0  0  0  0
   12.4501   10.5928  -11.1082 O   0  0  0  0  0  0  0  0  0  0  0  0
   12.0363   13.6386  -10.1669 C   0  0  2  0  0  0  0  0  0  0  0  0
   11.6259   12.3212   -9.7079 O   0  0  0  0  0  0  0  0  0  0  0  0
   10.1270    9.0304   -8.0954 C   0  0  0  0  0  0  0  0  0  0  0  0
    9.9386    9.5647   -9.4023 O   0  0  0  0  0  0  0  0  0  0  0  0
   14.5276   13.5826   -6.0032 C   0  0  1  0  0  0  0  0  0  0  0  0
   13.3162   12.9992   -5.4012 O   0  0  0  0  0  0  0  0  0  0  0  0
   11.0098    9.0976  -12.3532 C   0  0  0  0  0  0  0  0  0  0  0  0
   10.4236    9.0303  -13.6304 O   0  0  0  0  0  0  0  0  0  0  0  0
   10.8648   14.6906   -9.9759 C   0  0  1  0  0  0  0  0  0  0  0  0
   10.6702   14.9655   -8.5859 O   0  0  0  0  0  0  0  0  0  0  0  0
   14.4883   15.1683   -5.8909 C   0  0  0  0  0  0  0  0  0  0  0  0
   15.7781   15.8631   -6.1559 N   0  0  0  0  0  0  0  0  0  0  0  0
  1  2  1  6  0  0  0
  1  7  1  0  0  0  0
  1 30  1  0  0  0  0
  3  4  1  6  0  0  0
  3  9  1  0  0  0  0
  3 39  1  0  0  0  0
  5 10  1  0  0  0  0
  5 26  1  0  0  0  0
  5 32  1  6  0  0  0
  6 12  1  0  0  0  0
  6 36  1  0  0  0  0
  6 19  1  1  0  0  0
  7  8  1  6  0  0  0
  7 14  1  0  0  0  0
  9 16  1  0  0  0  0
 10 11  1  1  0  0  0
 10 18  1  0  0  0  0
 12 13  1  1  0  0  0
 12 20  1  0  0  0  0
 14 15  1  1  0  0  0
 14 22  1  0  0  0  0
 16 17  1  6  0  0  0
 16 24  1  0  0  0  0
 18 19  1  1  0  0  0
 18 25  1  0  0  0  0
 20 21  1  6  0  0  0
 20 27  1  0  0  0  0
 22 23  1  6  0  0  0
 22 29  1  0  0  0  0
 24  2  1  1  0  0  0
 24 31  1  0  0  0  0
 25 26  1  0  0  0  0
 25 33  1  6  0  0  0
 27 28  1  1  0  0  0
 27 35  1  0  0  0  0
 29 30  1  0  0  0  0
 29 37  1  1  0  0  0
 31 32  1  6  0  0  0
 31 39  1  0  0  0  0
 33 34  1  0  0  0  0
 35 36  1  0  0  0  0
 35 41  1  1  0  0  0
 37 38  1  0  0  0  0
 39 40  1  1  0  0  0
 41 42  1  0  0  0  0
M  END
>  <CHROM.1>
176.10410383,92.12083994,-134.06171163,-51.56214924,164.95840192,95.86789321
-88.75068500,143.99266074,46.60150194,12.85748900,12.02889741,-9.14288172
-2.10924422,-1.22314697,0.83812480

>  <Name>
2o3w_lig

>  <RI>
0

>  <Rbt.Current_Directory>
/home/itssahil/PROJECTS/Mol_Feturizer/New_Systems/rnas/2o3w

>  <Rbt.Executable>
rbdock ($Id: //depot/dev/client3/rdock/2013.1/src/exe/rbdock.cxx#4 $)

>  <Rbt.Library>
libRbt.so (2013.1, Build901 2013/11/27)

>  <Rbt.Parameter_File>
/export/apps/rDock/src/rDock_2013.1_src/data/scripts/dock_solv.prm

>  <Rbt.Receptor>
prm/blind_docking_80.prm

>  <SCORE>
20.9107

>  <SCORE.INTER>
9.59517

>  <SCORE.INTER.CONST>
1

>  <SCORE.INTER.POLAR>
-0.820913

>  <SCORE.INTER.ROT>
9

>  <SCORE.INTER.SOLV>
38.9462

>  <SCORE.INTER.VDW>
-13.4489

>  <SCORE.INTER.norm>
0.228457

>  <SCORE.INTRA>
2.70172

>  <SCORE.INTRA.DIHEDRAL>
-4.96158

>  <SCORE.INTRA.DIHEDRAL.0>
27.8999

>  <SCORE.INTRA.POLAR>
0

>  <SCORE.INTRA.POLAR.0>
0

>  <SCORE.INTRA.REPUL>
0.266053

>  <SCORE.INTRA.REPUL.0>
0

>  <SCORE.INTRA.SOLV>
-3.0272

>  <SCORE.INTRA.SOLV.lig_0>
-104.479

>  <SCORE.INTRA.VDW>
5.36585

>  <SCORE.INTRA.VDW.0>
-6.17816

>  <SCORE.INTRA.norm>
0.0643267

>  <SCORE.RESTR>
8.61381

>  <SCORE.RESTR.CAVITY>
8.61381

>  <SCORE.RESTR.norm>
0.205091

>  <SCORE.SYSTEM>
0

>  <SCORE.SYSTEM.CONST>
0

>  <SCORE.SYSTEM.DIHEDRAL>
0

>  <SCORE.SYSTEM.SOLV>
0

>  <SCORE.SYSTEM.norm>
0

>  <SCORE.heavy>
42

>  <SCORE.norm>
0.497874

>  <RMSD>
17.851

$$$$
2o3w_lig
 OpenBabel11021811463D
libRbt.so/2013.1/901 2013/11/27
 42 45  0  0  0  0  0  0  0  0999 V2000
   11.9192   11.3238   -7.8400 C   0  0  2  0  0  0  0  0  0  0  0  0
   12.2638   11.9182   -9.1030 O   0  0  0  0  0  0  0  0  0  0  0  0
   13.7544    8.9660  -11.9063 C   0  0  2  0  0  0  0  0  0  0  0  0
   13.9054    8.0763  -13.0963 N   0  0  0  0  0  0  0  0  0  0  0  0
   11.8904   13.3511  -11.5429 C   0  0  1  0  0  0  0  0  0  0  0  0
    8.6770   16.4109  -10.6890 C   0  0  1  0  0  0  0  0  0  0  0  0
   11.2516   12.4383   -6.9796 C   0  0  2  0  0  0  0  0  0  0  0  0
   10.1841   13.1478   -7.7059 N   0  0  0  0  0  0  0  0  0  0  0  0
   12.4532    8.6061  -11.0821 C   0  0  0  0  0  0  0  0  0  0  0  0
   11.8487   14.6669  -10.7075 C   0  0  2  0  0  0  0  0  0  0  0  0
   11.5653   14.4634   -9.3013 O   0  0  0  0  0  0  0  0  0  0  0  0
    8.6254   16.8077   -9.1696 C   0  0  2  0  0  0  0  0  0  0  0  0
    8.1383   15.6675   -8.3368 N   0  0  0  0  0  0  0  0  0  0  0  0
   12.2619   13.5055   -6.5198 C   0  0  1  0  0  0  0  0  0  0  0  0
   11.6155   14.4832   -5.7030 O   0  0  0  0  0  0  0  0  0  0  0  0
   12.3612    9.5601   -9.8315 C   0  0  2  0  0  0  0  0  0  0  0  0
   11.1537    9.2392   -9.0237 N   0  0  0  0  0  0  0  0  0  0  0  0
   10.8087   15.4777  -11.4821 C   0  0  2  0  0  0  0  0  0  0  0  0
    9.4566   15.2429  -10.9748 O   0  0  0  0  0  0  0  0  0  0  0  0
    7.6864   18.0935   -8.9906 C   0  0  1  0  0  0  0  0  0  0  0  0
    8.3849   19.2555   -9.4914 O   0  0  0  0  0  0  0  0  0  0  0  0
   13.4268   12.8226   -5.7676 C   0  0  2  0  0  0  0  0  0  0  0  0
   14.3524   13.7880   -5.3253 O   0  0  0  0  0  0  0  0  0  0  0  0
   12.3078   11.0719  -10.2871 C   0  0  2  0  0  0  0  0  0  0  0  0
   10.9367   15.0396  -12.9508 C   0  0  2  0  0  0  0  0  0  0  0  0
   11.3551   13.6808  -12.8451 O   0  0  0  0  0  0  0  0  0  0  0  0
    6.2804   17.9468   -9.7450 C   0  0  2  0  0  0  0  0  0  0  0  0
    5.5227   16.9537   -9.0550 O   0  0  0  0  0  0  0  0  0  0  0  0
   14.1164   11.7918   -6.7223 C   0  0  2  0  0  0  0  0  0  0  0  0
   13.1342   10.8068   -7.1749 O   0  0  0  0  0  0  0  0  0  0  0  0
   13.5233   11.4814  -11.1474 C   0  0  2  0  0  0  0  0  0  0  0  0
   13.2201   12.8215  -11.6236 O   0  0  0  0  0  0  0  0  0  0  0  0
   11.9454   15.8730  -13.8007 C   0  0  0  0  0  0  0  0  0  0  0  0
   13.2672   15.6405  -13.3235 O   0  0  0  0  0  0  0  0  0  0  0  0
    6.4970   17.5219  -11.2466 C   0  0  1  0  0  0  0  0  0  0  0  0
    7.2626   16.2638  -11.2094 O   0  0  0  0  0  0  0  0  0  0  0  0
   15.2686   11.0693   -6.0632 C   0  0  0  0  0  0  0  0  0  0  0  0
   14.7840   10.0650   -5.2053 O   0  0  0  0  0  0  0  0  0  0  0  0
   13.6978   10.4786  -12.3637 C   0  0  1  0  0  0  0  0  0  0  0  0
   14.9073   10.7664  -13.0708 O   0  0  0  0  0  0  0  0  0  0  0  0
    5.1477   17.3202  -12.0636 C   0  0  0  0  0  0  0  0  0  0  0  0
    5.2816   17.3650  -13.5457 N   0  0  0  0  0  0  0  0  0  0  0  0
  1  2  1  6  0  0  0
  1  7  1  0  0  0  0
  1 30  1  0  0  0  0
  3  4  1  6  0  0  0
  3  9  1  0  0  0  0
  3 39  1  0  0  0  0
  5 10  1  0  0  0  0
  5 26  1  0  0  0  0
  5 32  1  6  0  0  0
  6 12  1  0  0  0  0
  6 36  1  0  0  0  0
  6 19  1  1  0  0  0
  7  8  1  6  0  0  0
  7 14  1  0  0  0  0
  9 16  1  0  0  0  0
 10 11  1  1  0  0  0
 10 18  1  0  0  0  0
 12 13  1  1  0  0  0
 12 20  1  0  0  0  0
 14 15  1  1  0  0  0
 14 22  1  0  0  0  0
 16 17  1  6  0  0  0
 16 24  1  0  0  0  0
 18 19  1  1  0  0  0
 18 25  1  0  0  0  0
 20 21  1  6  0  0  0
 20 27  1  0  0  0  0
 22 23  1  6  0  0  0
 22 29  1  0  0  0  0
 24  2  1  1  0  0  0
 24 31  1  0  0  0  0
 25 26  1  0  0  0  0
 25 33  1  6  0  0  0
 27 28  1  1  0  0  0
 27 35  1  0  0  0  0
 29 30  1  0  0  0  0
 29 37  1  1  0  0  0
 31 32  1  6  0  0  0
 31 39  1  0  0  0  0
 33 34  1  0  0  0  0
 35 36  1  0  0  0  0
 35 41  1  1  0  0  0
 37 38  1  0  0  0  0
 39 40  1  1  0  0  0
 41 42  1  0  0  0  0
M  END
>  <CHROM.1>
-151.54850169,121.68677596,-99.98440945,130.21313337,-16.34923977,66.92278598
77.58756116,-14.96145633,160.63574709,11.12303223,13.62018400,-9.84456724
0.11309144,-0.81753323,1.45359270

>  <Name>
2o3w_lig

>  <RI>
0

>  <Rbt.Current_Directory>
/home/itssahil/PROJECTS/Mol_Feturizer/New_Systems/rnas/2o3w

>  <Rbt.Executable>
rbdock ($Id: //depot/dev/client3/rdock/2013.1/src/exe/rbdock.cxx#4 $)

>  <Rbt.Library>
libRbt.so (2013.1, Build901 2013/11/27)

>  <Rbt.Parameter_File>
/export/apps/rDock/src/rDock_2013.1_src/data/scripts/dock_solv.prm

>  <Rbt.Receptor>
prm/blind_docking_100.prm

>  <SCORE>
-4.33381

>  <SCORE.INTER>
-24.8862

>  <SCORE.INTER.CONST>
1

>  <SCORE.INTER.POLAR>
-3.22093

>  <SCORE.INTER.ROT>
9

>  <SCORE.INTER.SOLV>
27.6739

>  <SCORE.INTER.VDW>
-24.679

>  <SCORE.INTER.norm>
-0.592528

>  <SCORE.INTRA>
13.7259

>  <SCORE.INTRA.DIHEDRAL>
9.22501

>  <SCORE.INTRA.DIHEDRAL.0>
27.8999

>  <SCORE.INTRA.POLAR>
0

>  <SCORE.INTRA.POLAR.0>
0

>  <SCORE.INTRA.REPUL>
0.0367222

>  <SCORE.INTRA.REPUL.0>
0

>  <SCORE.INTRA.SOLV>
1.16891

>  <SCORE.INTRA.SOLV.lig_0>
-104.479

>  <SCORE.INTRA.VDW>
8.34536

>  <SCORE.INTRA.VDW.0>
-6.17816

>  <SCORE.INTRA.norm>
0.326808

>  <SCORE.RESTR>
6.82646

>  <SCORE.RESTR.CAVITY>
6.82646

>  <SCORE.RESTR.norm>
0.162535

>  <SCORE.SYSTEM>
0

>  <SCORE.SYSTEM.CONST>
0

>  <SCORE.SYSTEM.DIHEDRAL>
0

>  <SCORE.SYSTEM.SOLV>
0

>  <SCORE.SYSTEM.norm>
0

>  <SCORE.heavy>
42

>  <SCORE.norm>
-0.103186

>  <RMSD>
17.856

$$$$
2o3w_lig
 OpenBabel11021811463D
libRbt.so/2013.1/901 2013/11/27
 42 45  0  0  0  0  0  0  0  0999 V2000
   12.1791   11.6035  -11.9087 C   0  0  2  0  0  0  0  0  0  0  0  0
   11.6389   11.5650  -10.5768 O   0  0  0  0  0  0  0  0  0  0  0  0
   12.7973   12.5341   -6.5129 C   0  0  2  0  0  0  0  0  0  0  0  0
   13.5932   12.9157   -5.3082 N   0  0  0  0  0  0  0  0  0  0  0  0
   11.4209   14.9723  -10.6950 C   0  0  1  0  0  0  0  0  0  0  0  0
    7.5335   16.5520  -12.0447 C   0  0  1  0  0  0  0  0  0  0  0  0
   11.7211   10.2969  -12.6235 C   0  0  2  0  0  0  0  0  0  0  0  0
   10.2736   10.0580  -12.4884 N   0  0  0  0  0  0  0  0  0  0  0  0
   13.2798   11.1487   -7.1044 C   0  0  0  0  0  0  0  0  0  0  0  0
   10.2273   14.0566  -11.1041 C   0  0  2  0  0  0  0  0  0  0  0  0
   10.3434   13.4967  -12.4354 O   0  0  0  0  0  0  0  0  0  0  0  0
    7.7751   18.1037  -12.0963 C   0  0  2  0  0  0  0  0  0  0  0  0
    8.7019   18.5357  -11.0075 N   0  0  0  0  0  0  0  0  0  0  0  0
   12.4316    9.0481  -12.0697 C   0  0  1  0  0  0  0  0  0  0  0  0
   12.0117    7.8813  -12.7792 O   0  0  0  0  0  0  0  0  0  0  0  0
   12.3910   10.7906   -8.3552 C   0  0  2  0  0  0  0  0  0  0  0  0
   12.8087    9.4832   -8.9295 N   0  0  0  0  0  0  0  0  0  0  0  0
    9.0417   14.9971  -10.8823 C   0  0  2  0  0  0  0  0  0  0  0  0
    8.7270   15.7601  -12.0904 O   0  0  0  0  0  0  0  0  0  0  0  0
    6.3678   18.8618  -11.9888 C   0  0  1  0  0  0  0  0  0  0  0  0
    5.6606   18.7138  -13.2405 O   0  0  0  0  0  0  0  0  0  0  0  0
   13.9622    9.2432  -12.1599 C   0  0  2  0  0  0  0  0  0  0  0  0
   14.6275    8.1013  -11.6720 O   0  0  0  0  0  0  0  0  0  0  0  0
   12.5041   11.9150   -9.4592 C   0  0  2  0  0  0  0  0  0  0  0  0
    9.4478   15.9265   -9.7262 C   0  0  2  0  0  0  0  0  0  0  0  0
   10.8624   16.0234   -9.8738 O   0  0  0  0  0  0  0  0  0  0  0  0
    5.4563   18.3143  -10.7901 C   0  0  2  0  0  0  0  0  0  0  0  0
    6.0747   18.7056   -9.5651 O   0  0  0  0  0  0  0  0  0  0  0  0
   14.3646   10.5117  -11.3362 C   0  0  2  0  0  0  0  0  0  0  0  0
   13.6545   11.6807  -11.8550 O   0  0  0  0  0  0  0  0  0  0  0  0
   12.1015   13.3111   -8.9356 C   0  0  2  0  0  0  0  0  0  0  0  0
   12.4392   14.2333  -10.0080 O   0  0  0  0  0  0  0  0  0  0  0  0
    9.0658   15.4126   -8.3034 C   0  0  0  0  0  0  0  0  0  0  0  0
    9.8757   14.2874   -7.9766 O   0  0  0  0  0  0  0  0  0  0  0  0
    5.3296   16.7454  -10.8602 C   0  0  1  0  0  0  0  0  0  0  0  0
    6.7059   16.2216  -10.8204 O   0  0  0  0  0  0  0  0  0  0  0  0
   15.8508   10.7828  -11.3749 C   0  0  0  0  0  0  0  0  0  0  0  0
   16.5525    9.7254  -10.7677 O   0  0  0  0  0  0  0  0  0  0  0  0
   12.9139   13.6587   -7.6184 C   0  0  1  0  0  0  0  0  0  0  0  0
   12.4339   14.8805   -7.0506 O   0  0  0  0  0  0  0  0  0  0  0  0
    4.4663   16.1123   -9.6843 C   0  0  0  0  0  0  0  0  0  0  0  0
    4.9665   16.3753   -8.3069 N   0  0  0  0  0  0  0  0  0  0  0  0
  1  2  1  1  0  0  0
  1  7  1  0  0  0  0
  1 30  1  0  0  0  0
  3  4  1  1  0  0  0
  3  9  1  0  0  0  0
  3 39  1  0  0  0  0
  5 10  1  0  0  0  0
  5 26  1  0  0  0  0
  5 32  1  1  0  0  0
  6 12  1  0  0  0  0
  6 36  1  0  0  0  0
  6 19  1  1  0  0  0
  7  8  1  1  0  0  0
  7 14  1  0  0  0  0
  9 16  1  0  0  0  0
 10 11  1  6  0  0  0
 10 18  1  0  0  0  0
 12 13  1  1  0  0  0
 12 20  1  0  0  0  0
 14 15  1  6  0  0  0
 14 22  1  0  0  0  0
 16 17  1  6  0  0  0
 16 24  1  0  0  0  0
 18 19  1  6  0  0  0
 18 25  1  0  0  0  0
 20 21  1  6  0  0  0
 20 27  1  0  0  0  0
 22 23  1  1  0  0  0
 22 29  1  0  0  0  0
 24  2  1  6  0  0  0
 24 31  1  0  0  0  0
 25 26  1  0  0  0  0
 25 33  1  1  0  0  0
 27 28  1  1  0  0  0
 27 35  1  0  0  0  0
 29 30  1  0  0  0  0
 29 37  1  6  0  0  0
 31 32  1  6  0  0  0
 31 39  1  0  0  0  0
 33 34  1  0  0  0  0
 35 36  1  0  0  0  0
 35 41  1  1  0  0  0
 37 38  1  0  0  0  0
 39 40  1  1  0  0  0
 41 42  1  0  0  0  0
M  END
>  <CHROM.1>
134.51765825,-46.79085687,113.50112878,172.68278955,-130.42680005,69.89748598
-63.51130875,115.29759566,-59.37939388,10.59855954,13.65278531,-10.35439032
0.34101191,0.73270868,-2.09156300

>  <Name>
2o3w_lig

>  <RI>
0

>  <Rbt.Current_Directory>
/home/itssahil/PROJECTS/Mol_Feturizer/New_Systems/rnas/2o3w

>  <Rbt.Executable>
rbdock ($Id: //depot/dev/client3/rdock/2013.1/src/exe/rbdock.cxx#4 $)

>  <Rbt.Library>
libRbt.so (2013.1, Build901 2013/11/27)

>  <Rbt.Parameter_File>
/export/apps/rDock/src/rDock_2013.1_src/data/scripts/dock_solv.prm

>  <Rbt.Receptor>
prm/blind_docking_100.prm

>  <SCORE>
13.0181

>  <SCORE.INTER>
-1.84193

>  <SCORE.INTER.CONST>
1

>  <SCORE.INTER.POLAR>
0

>  <SCORE.INTER.ROT>
9

>  <SCORE.INTER.SOLV>
21.3371

>  <SCORE.INTER.VDW>
-17.9403

>  <SCORE.INTER.norm>
-0.0438554

>  <SCORE.INTRA>
5.19791

>  <SCORE.INTRA.DIHEDRAL>
0.50132

>  <SCORE.INTRA.DIHEDRAL.0>
27.8999

>  <SCORE.INTRA.POLAR>
0

>  <SCORE.INTRA.POLAR.0>
0

>  <SCORE.INTRA.REPUL>
0

>  <SCORE.INTRA.REPUL.0>
0

>  <SCORE.INTRA.SOLV>
5.88725

>  <SCORE.INTRA.SOLV.lig_0>
-104.479

>  <SCORE.INTRA.VDW>
2.00362

>  <SCORE.INTRA.VDW.0>
-6.17816

>  <SCORE.INTRA.norm>
0.12376

>  <SCORE.RESTR>
9.6621

>  <SCORE.RESTR.CAVITY>
9.6621

>  <SCORE.RESTR.norm>
0.23005

>  <SCORE.SYSTEM>
0

>  <SCORE.SYSTEM.CONST>
0

>  <SCORE.SYSTEM.DIHEDRAL>
0

>  <SCORE.SYSTEM.SOLV>
0

>  <SCORE.SYSTEM.norm>
0

>  <SCORE.heavy>
42

>  <SCORE.norm>
0.309954

>  <RMSD>
17.870

$$$$
2o3w_lig
 OpenBabel11021811463D
libRbt.so/2013.1/901 2013/11/27
 42 45  0  0  0  0  0  0  0  0999 V2000
   12.0774   10.0767   -8.2801 C   0  0  2  0  0  0  0  0  0  0  0  0
   11.9075   10.8257   -9.4956 O   0  0  0  0  0  0  0  0  0  0  0  0
   14.8891    8.8434  -11.9402 C   0  0  2  0  0  0  0  0  0  0  0  0
   15.6830    8.3553  -13.1073 N   0  0  0  0  0  0  0  0  0  0  0  0
   12.4657   12.9972  -10.7858 C   0  0  1  0  0  0  0  0  0  0  0  0
    9.1028   15.8659  -10.3869 C   0  0  1  0  0  0  0  0  0  0  0  0
   10.8294   10.3617   -7.3917 C   0  0  2  0  0  0  0  0  0  0  0  0
    9.5635   10.1830   -8.1238 N   0  0  0  0  0  0  0  0  0  0  0  0
   13.4155    8.2693  -11.9681 C   0  0  0  0  0  0  0  0  0  0  0  0
   12.4348   14.1819   -9.7727 C   0  0  2  0  0  0  0  0  0  0  0  0
   12.0964   13.7912   -8.4192 O   0  0  0  0  0  0  0  0  0  0  0  0
    8.3001   15.5510  -11.7004 C   0  0  2  0  0  0  0  0  0  0  0  0
    9.2264   15.3198  -12.8491 N   0  0  0  0  0  0  0  0  0  0  0  0
   10.8231   11.7978   -6.8364 C   0  0  1  0  0  0  0  0  0  0  0  0
    9.6848   12.0018   -5.9977 O   0  0  0  0  0  0  0  0  0  0  0  0
   12.6373    8.7994  -10.7048 C   0  0  2  0  0  0  0  0  0  0  0  0
   11.2485    8.2660  -10.6911 N   0  0  0  0  0  0  0  0  0  0  0  0
   11.4476   15.1303  -10.4547 C   0  0  2  0  0  0  0  0  0  0  0  0
   10.0721   14.8735  -10.0273 O   0  0  0  0  0  0  0  0  0  0  0  0
    7.2932   16.7589  -12.0071 C   0  0  1  0  0  0  0  0  0  0  0  0
    6.1964   16.7028  -11.0676 O   0  0  0  0  0  0  0  0  0  0  0  0
   12.1411   12.0612   -6.0730 C   0  0  2  0  0  0  0  0  0  0  0  0
   12.1439   13.3668   -5.5439 O   0  0  0  0  0  0  0  0  0  0  0  0
   12.5987   10.3788  -10.6967 C   0  0  2  0  0  0  0  0  0  0  0  0
   11.6135   14.9005  -11.9664 C   0  0  2  0  0  0  0  0  0  0  0  0
   11.9865   13.5266  -12.0432 O   0  0  0  0  0  0  0  0  0  0  0  0
    7.9997   18.1946  -11.9212 C   0  0  2  0  0  0  0  0  0  0  0  0
    8.8994   18.2988  -13.0239 O   0  0  0  0  0  0  0  0  0  0  0  0
   13.3466   11.8580   -7.0503 C   0  0  2  0  0  0  0  0  0  0  0  0
   13.3162   10.4999   -7.5931 O   0  0  0  0  0  0  0  0  0  0  0  0
   14.0069   11.0124  -10.7261 C   0  0  2  0  0  0  0  0  0  0  0  0
   13.7807   12.4381  -10.9010 O   0  0  0  0  0  0  0  0  0  0  0  0
   12.6761   15.8101  -12.6576 C   0  0  0  0  0  0  0  0  0  0  0  0
   12.2326   16.1368  -13.9712 O   0  0  0  0  0  0  0  0  0  0  0  0
    8.7822   18.3486  -10.5625 C   0  0  1  0  0  0  0  0  0  0  0  0
    9.7425   17.2324  -10.5146 O   0  0  0  0  0  0  0  0  0  0  0  0
   14.6822   12.0901   -6.3824 C   0  0  0  0  0  0  0  0  0  0  0  0
   15.5351   10.9947   -6.6102 O   0  0  0  0  0  0  0  0  0  0  0  0
   14.8485   10.4241  -11.9350 C   0  0  1  0  0  0  0  0  0  0  0  0
   16.1974   10.8953  -11.8726 O   0  0  0  0  0  0  0  0  0  0  0  0
    9.5439   19.7359  -10.4075 C   0  0  0  0  0  0  0  0  0  0  0  0
    8.7256   20.9510  -10.6732 N   0  0  0  0  0  0  0  0  0  0  0  0
  1  2  1  6  0  0  0
  1  7  1  0  0  0  0
  1 30  1  0  0  0  0
  3  4  1  6  0  0  0
  3  9  1  0  0  0  0
  3 39  1  0  0  0  0
  5 10  1  0  0  0  0
  5 26  1  0  0  0  0
  5 32  1  6  0  0  0
  6 12  1  0  0  0  0
  6 36  1  0  0  0  0
  6 19  1  6  0  0  0
  7  8  1  6  0  0  0
  7 14  1  0  0  0  0
  9 16  1  0  0  0  0
 10 11  1  1  0  0  0
 10 18  1  0  0  0  0
 12 13  1  6  0  0  0
 12 20  1  0  0  0  0
 14 15  1  1  0  0  0
 14 22  1  0  0  0  0
 16 17  1  6  0  0  0
 16 24  1  0  0  0  0
 18 19  1  1  0  0  0
 18 25  1  0  0  0  0
 20 21  1  1  0  0  0
 20 27  1  0  0  0  0
 22 23  1  6  0  0  0
 22 29  1  0  0  0  0
 24  2  1  1  0  0  0
 24 31  1  0  0  0  0
 25 26  1  0  0  0  0
 25 33  1  1  0  0  0
 27 28  1  6  0  0  0
 27 35  1  0  0  0  0
 29 30  1  0  0  0  0
 29 37  1  1  0  0  0
 31 32  1  6  0  0  0
 31 39  1  0  0  0  0
 33 34  1  0  0  0  0
 35 36  1  0  0  0  0
 35 41  1  6  0  0  0
 37 38  1  0  0  0  0
 39 40  1  1  0  0  0
 41 42  1  0  0  0  0
M  END
>  <CHROM.1>
-156.04045376,127.09942434,96.15793094,167.78347320,35.59349936,-144.78884461
128.26183786,10.39102970,50.62017428,11.58575132,13.31503423,-10.10866807
0.54197746,-0.92296433,1.97112447

>  <Name>
2o3w_lig

>  <RI>
0

>  <Rbt.Current_Directory>
/home/itssahil/PROJECTS/Mol_Feturizer/New_Systems/rnas/2o3w

>  <Rbt.Executable>
rbdock ($Id: //depot/dev/client3/rdock/2013.1/src/exe/rbdock.cxx#4 $)

>  <Rbt.Library>
libRbt.so (2013.1, Build901 2013/11/27)

>  <Rbt.Parameter_File>
/export/apps/rDock/src/rDock_2013.1_src/data/scripts/dock_solv.prm

>  <Rbt.Receptor>
prm/blind_docking_40.prm

>  <SCORE>
27.85

>  <SCORE.INTER>
4.69839

>  <SCORE.INTER.CONST>
1

>  <SCORE.INTER.POLAR>
-0.824621

>  <SCORE.INTER.ROT>
9

>  <SCORE.INTER.SOLV>
23.0612

>  <SCORE.INTER.VDW>
-11.4061

>  <SCORE.INTER.norm>
0.111866

>  <SCORE.INTRA>
11.1475

>  <SCORE.INTRA.DIHEDRAL>
4.88074

>  <SCORE.INTRA.DIHEDRAL.0>
27.8999

>  <SCORE.INTRA.POLAR>
0

>  <SCORE.INTRA.POLAR.0>
0

>  <SCORE.INTRA.REPUL>
0

>  <SCORE.INTRA.REPUL.0>
0

>  <SCORE.INTRA.SOLV>
1.41623

>  <SCORE.INTRA.SOLV.lig_0>
-104.479

>  <SCORE.INTRA.VDW>
7.99904

>  <SCORE.INTRA.VDW.0>
-6.17816

>  <SCORE.INTRA.norm>
0.265417

>  <SCORE.RESTR>
12.0041

>  <SCORE.RESTR.CAVITY>
12.0041

>  <SCORE.RESTR.norm>
0.285811

>  <SCORE.SYSTEM>
0

>  <SCORE.SYSTEM.CONST>
0

>  <SCORE.SYSTEM.DIHEDRAL>
0

>  <SCORE.SYSTEM.SOLV>
0

>  <SCORE.SYSTEM.norm>
0

>  <SCORE.heavy>
42

>  <SCORE.norm>
0.663095

>  <RMSD>
17.906

$$$$
2o3w_lig
 OpenBabel11021811463D
libRbt.so/2013.1/901 2013/11/27
 42 45  0  0  0  0  0  0  0  0999 V2000
   12.2700   12.9092   -7.7701 C   0  0  2  0  0  0  0  0  0  0  0  0
   13.1878   12.3541   -8.7277 O   0  0  0  0  0  0  0  0  0  0  0  0
   13.1469   10.2182  -12.5003 C   0  0  2  0  0  0  0  0  0  0  0  0
   12.7065    9.6093  -13.7909 N   0  0  0  0  0  0  0  0  0  0  0  0
   11.3908   14.1184  -11.0918 C   0  0  1  0  0  0  0  0  0  0  0  0
    7.4869   16.2975  -10.9287 C   0  0  1  0  0  0  0  0  0  0  0  0
   13.1190   13.4088   -6.5628 C   0  0  2  0  0  0  0  0  0  0  0  0
   14.2516   14.2531   -6.9810 N   0  0  0  0  0  0  0  0  0  0  0  0
   12.4097    9.5515  -11.2699 C   0  0  0  0  0  0  0  0  0  0  0  0
   11.0574   15.3473  -10.1920 C   0  0  2  0  0  0  0  0  0  0  0  0
   10.7420   15.0048   -8.8201 O   0  0  0  0  0  0  0  0  0  0  0  0
    7.8154   17.5128  -11.8690 C   0  0  2  0  0  0  0  0  0  0  0  0
    8.8821   18.3734  -11.2753 N   0  0  0  0  0  0  0  0  0  0  0  0
   13.7094   12.2468   -5.7429 C   0  0  1  0  0  0  0  0  0  0  0  0
   14.4451   12.7494   -4.6262 O   0  0  0  0  0  0  0  0  0  0  0  0
   12.9307   10.2178   -9.9406 C   0  0  2  0  0  0  0  0  0  0  0  0
   12.2674    9.6031   -8.7592 N   0  0  0  0  0  0  0  0  0  0  0  0
    9.9265   16.0003  -10.9883 C   0  0  2  0  0  0  0  0  0  0  0  0
    8.6174   15.4876  -10.5830 O   0  0  0  0  0  0  0  0  0  0  0  0
    6.4775   18.3540  -12.1326 C   0  0  1  0  0  0  0  0  0  0  0  0
    5.6277   17.6097  -13.0341 O   0  0  0  0  0  0  0  0  0  0  0  0
   12.5710   11.3042   -5.2907 C   0  0  2  0  0  0  0  0  0  0  0  0
   13.0933   10.2437   -4.5245 O   0  0  0  0  0  0  0  0  0  0  0  0
   12.6563   11.7736   -9.9528 C   0  0  2  0  0  0  0  0  0  0  0  0
   10.2136   15.6888  -12.4668 C   0  0  2  0  0  0  0  0  0  0  0  0
   10.8739   14.4268  -12.4067 O   0  0  0  0  0  0  0  0  0  0  0  0
    5.6734   18.6818  -10.7860 C   0  0  2  0  0  0  0  0  0  0  0  0
    6.4470   19.6206  -10.0399 O   0  0  0  0  0  0  0  0  0  0  0  0
   11.8271   10.7589   -6.5552 C   0  0  2  0  0  0  0  0  0  0  0  0
   11.3029   11.8778   -7.3382 O   0  0  0  0  0  0  0  0  0  0  0  0
   13.3009   12.4859  -11.1621 C   0  0  2  0  0  0  0  0  0  0  0  0
   12.7988   13.8498  -11.1142 O   0  0  0  0  0  0  0  0  0  0  0  0
   11.0916   16.7471  -13.2039 C   0  0  0  0  0  0  0  0  0  0  0  0
   11.1076   16.4563  -14.5982 O   0  0  0  0  0  0  0  0  0  0  0  0
    5.4444   17.3712   -9.9423 C   0  0  1  0  0  0  0  0  0  0  0  0
    6.7821   16.8082   -9.6896 O   0  0  0  0  0  0  0  0  0  0  0  0
   10.6886    9.8292   -6.2042 C   0  0  0  0  0  0  0  0  0  0  0  0
   10.1617    9.2456   -7.3709 O   0  0  0  0  0  0  0  0  0  0  0  0
   12.8688   11.7749  -12.5124 C   0  0  1  0  0  0  0  0  0  0  0  0
   13.5829   12.3374  -13.6166 O   0  0  0  0  0  0  0  0  0  0  0  0
    4.6804   17.6106   -8.5684 C   0  0  0  0  0  0  0  0  0  0  0  0
    4.5028   16.4047   -7.7136 N   0  0  0  0  0  0  0  0  0  0  0  0
  1  2  1  6  0  0  0
  1  7  1  0  0  0  0
  1 30  1  0  0  0  0
  3  4  1  6  0  0  0
  3  9  1  0  0  0  0
  3 39  1  0  0  0  0
  5 10  1  0  0  0  0
  5 26  1  0  0  0  0
  5 32  1  6  0  0  0
  6 12  1  0  0  0  0
  6 36  1  0  0  0  0
  6 19  1  1  0  0  0
  7  8  1  6  0  0  0
  7 14  1  0  0  0  0
  9 16  1  0  0  0  0
 10 11  1  1  0  0  0
 10 18  1  0  0  0  0
 12 13  1  1  0  0  0
 12 20  1  0  0  0  0
 14 15  1  1  0  0  0
 14 22  1  0  0  0  0
 16 17  1  1  0  0  0
 16 24  1  0  0  0  0
 18 19  1  1  0  0  0
 18 25  1  0  0  0  0
 20 21  1  6  0  0  0
 20 27  1  0  0  0  0
 22 23  1  6  0  0  0
 22 29  1  0  0  0  0
 24  2  1  1  0  0  0
 24 31  1  0  0  0  0
 25 26  1  0  0  0  0
 25 33  1  1  0  0  0
 27 28  1  1  0  0  0
 27 35  1  0  0  0  0
 29 30  1  0  0  0  0
 29 37  1  1  0  0  0
 31 32  1  6  0  0  0
 31 39  1  0  0  0  0
 33 34  1  0  0  0  0
 35 36  1  0  0  0  0
 35 41  1  1  0  0  0
 37 38  1  0  0  0  0
 39 40  1  6  0  0  0
 41 42  1  0  0  0  0
M  END
>  <CHROM.1>
178.36950301,143.76729888,8.24398368,160.76511734,-113.48565039,-170.94666086
-172.93072283,-55.26846689,-177.21429068,10.57208756,13.97146314,-9.81847681
0.50998240,-0.75641191,1.81840924

>  <Name>
2o3w_lig

>  <RI>
0

>  <Rbt.Current_Directory>
/home/itssahil/PROJECTS/Mol_Feturizer/New_Systems/rnas/2o3w

>  <Rbt.Executable>
rbdock ($Id: //depot/dev/client3/rdock/2013.1/src/exe/rbdock.cxx#4 $)

>  <Rbt.Library>
libRbt.so (2013.1, Build901 2013/11/27)

>  <Rbt.Parameter_File>
/export/apps/rDock/src/rDock_2013.1_src/data/scripts/dock_solv.prm

>  <Rbt.Receptor>
prm/blind_docking_100.prm

>  <SCORE>
0.25301

>  <SCORE.INTER>
-10.0845

>  <SCORE.INTER.CONST>
1

>  <SCORE.INTER.POLAR>
-1.11

>  <SCORE.INTER.ROT>
9

>  <SCORE.INTER.SOLV>
24.5429

>  <SCORE.INTER.VDW>
-20.804

>  <SCORE.INTER.norm>
-0.240107

>  <SCORE.INTRA>
3.83154

>  <SCORE.INTRA.DIHEDRAL>
-7.03133

>  <SCORE.INTRA.DIHEDRAL.0>
27.8999

>  <SCORE.INTRA.POLAR>
0

>  <SCORE.INTRA.POLAR.0>
0

>  <SCORE.INTRA.REPUL>
0

>  <SCORE.INTRA.REPUL.0>
0

>  <SCORE.INTRA.SOLV>
2.0537

>  <SCORE.INTRA.SOLV.lig_0>
-104.479

>  <SCORE.INTRA.VDW>
6.32036

>  <SCORE.INTRA.VDW.0>
-6.17816

>  <SCORE.INTRA.norm>
0.0912271

>  <SCORE.RESTR>
6.50598

>  <SCORE.RESTR.CAVITY>
6.50598

>  <SCORE.RESTR.norm>
0.154904

>  <SCORE.SYSTEM>
0

>  <SCORE.SYSTEM.CONST>
0

>  <SCORE.SYSTEM.DIHEDRAL>
0

>  <SCORE.SYSTEM.SOLV>
0

>  <SCORE.SYSTEM.norm>
0

>  <SCORE.heavy>
42

>  <SCORE.norm>
0.00602404

>  <RMSD>
17.924

$$$$
2o3w_lig
 OpenBabel11021811463D
libRbt.so/2013.1/901 2013/11/27
 42 45  0  0  0  0  0  0  0  0999 V2000
   11.3551    9.6246   -8.3956 C   0  0  2  0  0  0  0  0  0  0  0  0
   11.2538   10.4741   -9.5512 O   0  0  0  0  0  0  0  0  0  0  0  0
   13.6116    8.0985  -12.3067 C   0  0  2  0  0  0  0  0  0  0  0  0
   14.4506    7.6714  -13.4661 N   0  0  0  0  0  0  0  0  0  0  0  0
   13.7649   12.2853  -10.3887 C   0  0  1  0  0  0  0  0  0  0  0  0
   11.7745   15.8015  -12.0859 C   0  0  1  0  0  0  0  0  0  0  0  0
   10.2092   10.0390   -7.4243 C   0  0  2  0  0  0  0  0  0  0  0  0
    8.9000   10.1125   -8.0959 N   0  0  0  0  0  0  0  0  0  0  0  0
   12.1737    8.5594  -12.7777 C   0  0  0  0  0  0  0  0  0  0  0  0
   12.6360   12.1610  -11.4568 C   0  0  2  0  0  0  0  0  0  0  0  0
   13.1192   11.8997  -12.7974 O   0  0  0  0  0  0  0  0  0  0  0  0
   10.2552   15.7489  -12.4832 C   0  0  2  0  0  0  0  0  0  0  0  0
   10.0777   15.1333  -13.8324 N   0  0  0  0  0  0  0  0  0  0  0  0
   10.4574   11.4160   -6.7816 C   0  0  1  0  0  0  0  0  0  0  0  0
    9.4045   11.7369   -5.8709 O   0  0  0  0  0  0  0  0  0  0  0  0
   11.3313    8.9751  -11.5128 C   0  0  2  0  0  0  0  0  0  0  0  0
    9.9648    9.4015  -11.9184 N   0  0  0  0  0  0  0  0  0  0  0  0
   11.8988   13.4874  -11.2654 C   0  0  2  0  0  0  0  0  0  0  0  0
   12.4461   14.5362  -12.1263 O   0  0  0  0  0  0  0  0  0  0  0  0
    9.6464   17.2303  -12.4420 C   0  0  1  0  0  0  0  0  0  0  0  0
    9.4929   17.6341  -11.0627 O   0  0  0  0  0  0  0  0  0  0  0  0
   11.8329   11.4156   -6.0765 C   0  0  2  0  0  0  0  0  0  0  0  0
   12.0679   12.6644   -5.4685 O   0  0  0  0  0  0  0  0  0  0  0  0
   12.0428   10.1493  -10.7311 C   0  0  2  0  0  0  0  0  0  0  0  0
   12.0546   13.8489   -9.7787 C   0  0  2  0  0  0  0  0  0  0  0  0
   13.3185   13.2823   -9.4412 O   0  0  0  0  0  0  0  0  0  0  0  0
   10.5566   18.2986  -13.2151 C   0  0  2  0  0  0  0  0  0  0  0  0
   10.4749   18.0056  -14.6093 O   0  0  0  0  0  0  0  0  0  0  0  0
   12.9459   11.0947   -7.1289 C   0  0  2  0  0  0  0  0  0  0  0  0
   12.6748    9.7995   -7.7523 O   0  0  0  0  0  0  0  0  0  0  0  0
   13.4779    9.7901  -10.2874 C   0  0  2  0  0  0  0  0  0  0  0  0
   14.0351   11.0254   -9.7603 O   0  0  0  0  0  0  0  0  0  0  0  0
   10.9282   13.3034   -8.8471 C   0  0  0  0  0  0  0  0  0  0  0  0
   11.0142   13.9460   -7.5788 O   0  0  0  0  0  0  0  0  0  0  0  0
   12.0519   18.2120  -12.7263 C   0  0  1  0  0  0  0  0  0  0  0  0
   12.4778   16.8208  -12.9573 O   0  0  0  0  0  0  0  0  0  0  0  0
   14.3296   11.0674   -6.5220 C   0  0  0  0  0  0  0  0  0  0  0  0
   14.4179   10.0428   -5.5619 O   0  0  0  0  0  0  0  0  0  0  0  0
   14.3232    9.2759  -11.5270 C   0  0  1  0  0  0  0  0  0  0  0  0
   15.6001    8.8017  -11.0908 O   0  0  0  0  0  0  0  0  0  0  0  0
   13.0349   19.2181  -13.4680 C   0  0  0  0  0  0  0  0  0  0  0  0
   13.1292   19.0526  -14.9445 N   0  0  0  0  0  0  0  0  0  0  0  0
  1  2  1  6  0  0  0
  1  7  1  0  0  0  0
  1 30  1  0  0  0  0
  3  4  1  6  0  0  0
  3  9  1  0  0  0  0
  3 39  1  0  0  0  0
  5 10  1  0  0  0  0
  5 26  1  0  0  0  0
  5 32  1  1  0  0  0
  6 12  1  0  0  0  0
  6 36  1  0  0  0  0
  6 19  1  6  0  0  0
  7  8  1  6  0  0  0
  7 14  1  0  0  0  0
  9 16  1  0  0  0  0
 10 11  1  6  0  0  0
 10 18  1  0  0  0  0
 12 13  1  6  0  0  0
 12 20  1  0  0  0  0
 14 15  1  1  0  0  0
 14 22  1  0  0  0  0
 16 17  1  6  0  0  0
 16 24  1  0  0  0  0
 18 19  1  6  0  0  0
 18 25  1  0  0  0  0
 20 21  1  1  0  0  0
 20 27  1  0  0  0  0
 22 23  1  6  0  0  0
 22 29  1  0  0  0  0
 24  2  1  1  0  0  0
 24 31  1  0  0  0  0
 25 26  1  0  0  0  0
 25 33  1  1  0  0  0
 27 28  1  6  0  0  0
 27 35  1  0  0  0  0
 29 30  1  0  0  0  0
 29 37  1  1  0  0  0
 31 32  1  6  0  0  0
 31 39  1  0  0  0  0
 33 34  1  0  0  0  0
 35 36  1  0  0  0  0
 35 41  1  6  0  0  0
 37 38  1  0  0  0  0
 39 40  1  1  0  0  0
 41 42  1  0  0  0  0
M  END
>  <CHROM.1>
-168.77806650,10.99055289,-58.96932451,176.34178947,78.53013449,-166.92004112
62.69107092,-39.18965979,-59.58898442,12.03942096,12.66386752,-10.38281783
1.22571626,-1.17946776,2.27640334

>  <Name>
2o3w_lig

>  <RI>
0

>  <Rbt.Current_Directory>
/home/itssahil/PROJECTS/Mol_Feturizer/New_Systems/rnas/2o3w

>  <Rbt.Executable>
rbdock ($Id: //depot/dev/client3/rdock/2013.1/src/exe/rbdock.cxx#4 $)

>  <Rbt.Library>
libRbt.so (2013.1, Build901 2013/11/27)

>  <Rbt.Parameter_File>
/export/apps/rDock/src/rDock_2013.1_src/data/scripts/dock_solv.prm

>  <Rbt.Receptor>
prm/blind_docking_40.prm

>  <SCORE>
8.88619

>  <SCORE.INTER>
-12.2745

>  <SCORE.INTER.CONST>
1

>  <SCORE.INTER.POLAR>
-2.21784

>  <SCORE.INTER.ROT>
9

>  <SCORE.INTER.SOLV>
25.197

>  <SCORE.INTER.VDW>
-18.7892

>  <SCORE.INTER.norm>
-0.29225

>  <SCORE.INTRA>
10.6037

>  <SCORE.INTRA.DIHEDRAL>
-16.3746

>  <SCORE.INTRA.DIHEDRAL.0>
27.8999

>  <SCORE.INTRA.POLAR>
0

>  <SCORE.INTRA.POLAR.0>
0

>  <SCORE.INTRA.REPUL>
0

>  <SCORE.INTRA.REPUL.0>
0

>  <SCORE.INTRA.SOLV>
1.374

>  <SCORE.INTRA.SOLV.lig_0>
-104.479

>  <SCORE.INTRA.VDW>
18.104

>  <SCORE.INTRA.VDW.0>
-6.17816

>  <SCORE.INTRA.norm>
0.25247

>  <SCORE.RESTR>
10.557

>  <SCORE.RESTR.CAVITY>
10.557

>  <SCORE.RESTR.norm>
0.251356

>  <SCORE.SYSTEM>
0

>  <SCORE.SYSTEM.CONST>
0

>  <SCORE.SYSTEM.DIHEDRAL>
0

>  <SCORE.SYSTEM.SOLV>
0

>  <SCORE.SYSTEM.norm>
0

>  <SCORE.heavy>
42

>  <SCORE.norm>
0.211576

>  <RMSD>
17.936

$$$$
2o3w_lig
 OpenBabel11021811463D
libRbt.so/2013.1/901 2013/11/27
 42 45  0  0  0  0  0  0  0  0999 V2000
   14.4769   11.0569   -7.2051 C   0  0  2  0  0  0  0  0  0  0  0  0
   13.4357   10.1447   -6.8165 O   0  0  0  0  0  0  0  0  0  0  0  0
    9.4360    9.2378   -8.2220 C   0  0  2  0  0  0  0  0  0  0  0  0
    8.0436    9.3681   -8.7462 N   0  0  0  0  0  0  0  0  0  0  0  0
   12.3278   11.3041  -10.7134 C   0  0  1  0  0  0  0  0  0  0  0  0
   11.9728   14.7064  -12.8727 C   0  0  1  0  0  0  0  0  0  0  0  0
   15.3172   11.3590   -5.9281 C   0  0  2  0  0  0  0  0  0  0  0  0
   15.7230   10.1340   -5.2174 N   0  0  0  0  0  0  0  0  0  0  0  0
    9.5796    9.9151   -6.7998 C   0  0  0  0  0  0  0  0  0  0  0  0
   13.1380   12.6008  -11.0184 C   0  0  2  0  0  0  0  0  0  0  0  0
   12.5848   13.7967  -10.4160 O   0  0  0  0  0  0  0  0  0  0  0  0
   10.5391   15.2683  -12.5604 C   0  0  2  0  0  0  0  0  0  0  0  0
    9.5794   14.9167  -13.6496 N   0  0  0  0  0  0  0  0  0  0  0  0
   14.5488   12.2272   -4.9149 C   0  0  1  0  0  0  0  0  0  0  0  0
   15.3693   12.5118   -3.7806 O   0  0  0  0  0  0  0  0  0  0  0  0
   11.0588    9.7257   -6.2915 C   0  0  2  0  0  0  0  0  0  0  0  0
   11.2264   10.3396   -4.9466 N   0  0  0  0  0  0  0  0  0  0  0  0
   13.1652   12.5813  -12.5475 C   0  0  2  0  0  0  0  0  0  0  0  0
   12.0209   13.2948  -13.1151 O   0  0  0  0  0  0  0  0  0  0  0  0
   10.6254   16.8555  -12.3596 C   0  0  1  0  0  0  0  0  0  0  0  0
   11.2460   17.1319  -11.0839 O   0  0  0  0  0  0  0  0  0  0  0  0
   14.0709   13.5248   -5.6056 C   0  0  2  0  0  0  0  0  0  0  0  0
   13.3797   14.3386   -4.6866 O   0  0  0  0  0  0  0  0  0  0  0  0
   12.0830   10.3769   -7.3028 C   0  0  2  0  0  0  0  0  0  0  0  0
   13.1541   11.0979  -12.9534 C   0  0  2  0  0  0  0  0  0  0  0  0
   12.4165   10.4824  -11.9000 O   0  0  0  0  0  0  0  0  0  0  0  0
   11.4474   17.5861  -13.5250 C   0  0  2  0  0  0  0  0  0  0  0  0
   10.6703   17.5010  -14.7189 O   0  0  0  0  0  0  0  0  0  0  0  0
   13.1499   13.1504   -6.8144 C   0  0  2  0  0  0  0  0  0  0  0  0
   13.8861   12.2986   -7.7483 O   0  0  0  0  0  0  0  0  0  0  0  0
   11.9616    9.8023   -8.7313 C   0  0  2  0  0  0  0  0  0  0  0  0
   12.8302   10.6313   -9.5515 O   0  0  0  0  0  0  0  0  0  0  0  0
   14.5636   10.4468  -13.1064 C   0  0  0  0  0  0  0  0  0  0  0  0
   15.1774   10.3471  -11.8249 O   0  0  0  0  0  0  0  0  0  0  0  0
   12.8474   16.8947  -13.7352 C   0  0  1  0  0  0  0  0  0  0  0  0
   12.5646   15.4798  -14.0323 O   0  0  0  0  0  0  0  0  0  0  0  0
   12.6400   14.3650   -7.5550 C   0  0  0  0  0  0  0  0  0  0  0  0
   11.5587   14.9377   -6.8606 O   0  0  0  0  0  0  0  0  0  0  0  0
   10.4598    9.8927   -9.2335 C   0  0  1  0  0  0  0  0  0  0  0  0
   10.3190    9.2254  -10.4907 O   0  0  0  0  0  0  0  0  0  0  0  0
   13.7186   17.5373  -14.9000 C   0  0  0  0  0  0  0  0  0  0  0  0
   14.3010   18.8750  -14.6031 N   0  0  0  0  0  0  0  0  0  0  0  0
  1  2  1  1  0  0  0
  1  7  1  0  0  0  0
  1 30  1  0  0  0  0
  3  4  1  6  0  0  0
  3  9  1  0  0  0  0
  3 39  1  0  0  0  0
  5 10  1  0  0  0  0
  5 26  1  0  0  0  0
  5 32  1  1  0  0  0
  6 12  1  0  0  0  0
  6 36  1  0  0  0  0
  6 19  1  6  0  0  0
  7  8  1  1  0  0  0
  7 14  1  0  0  0  0
  9 16  1  0  0  0  0
 10 11  1  6  0  0  0
 10 18  1  0  0  0  0
 12 13  1  6  0  0  0
 12 20  1  0  0  0  0
 14 15  1  1  0  0  0
 14 22  1  0  0  0  0
 16 17  1  1  0  0  0
 16 24  1  0  0  0  0
 18 19  1  6  0  0  0
 18 25  1  0  0  0  0
 20 21  1  1  0  0  0
 20 27  1  0  0  0  0
 22 23  1  1  0  0  0
 22 29  1  0  0  0  0
 24  2  1  1  0  0  0
 24 31  1  0  0  0  0
 25 26  1  0  0  0  0
 25 33  1  1  0  0  0
 27 28  1  6  0  0  0
 27 35  1  0  0  0  0
 29 30  1  0  0  0  0
 29 37  1  6  0  0  0
 31 32  1  6  0  0  0
 31 39  1  0  0  0  0
 33 34  1  0  0  0  0
 35 36  1  0  0  0  0
 35 41  1  6  0  0  0
 37 38  1  0  0  0  0
 39 40  1  6  0  0  0
 41 42  1  0  0  0  0
M  END
>  <CHROM.1>
136.01266620,152.29793163,-140.24025774,65.62255592,-154.47753074,68.59139127
-79.42827589,-124.40284681,72.41556985,12.45514830,12.80853330,-9.74662139
-1.36569419,-1.12566621,-0.77122992

>  <Name>
2o3w_lig

>  <RI>
0

>  <Rbt.Current_Directory>
/home/itssahil/PROJECTS/Mol_Feturizer/New_Systems/rnas/2o3w

>  <Rbt.Executable>
rbdock ($Id: //depot/dev/client3/rdock/2013.1/src/exe/rbdock.cxx#4 $)

>  <Rbt.Library>
libRbt.so (2013.1, Build901 2013/11/27)

>  <Rbt.Parameter_File>
/export/apps/rDock/src/rDock_2013.1_src/data/scripts/dock_solv.prm

>  <Rbt.Receptor>
prm/blind_docking_80.prm

>  <SCORE>
25.6619

>  <SCORE.INTER>
16.1114

>  <SCORE.INTER.CONST>
1

>  <SCORE.INTER.POLAR>
-1.0583

>  <SCORE.INTER.ROT>
9

>  <SCORE.INTER.SOLV>
37.3522

>  <SCORE.INTER.VDW>
-7.78213

>  <SCORE.INTER.norm>
0.383605

>  <SCORE.INTRA>
1.16803

>  <SCORE.INTRA.DIHEDRAL>
-1.28221

>  <SCORE.INTRA.DIHEDRAL.0>
27.8999

>  <SCORE.INTRA.POLAR>
0

>  <SCORE.INTRA.POLAR.0>
0

>  <SCORE.INTRA.REPUL>
0

>  <SCORE.INTRA.REPUL.0>
0

>  <SCORE.INTRA.SOLV>
-2.95355

>  <SCORE.INTRA.SOLV.lig_0>
-104.479

>  <SCORE.INTRA.VDW>
3.28591

>  <SCORE.INTRA.VDW.0>
-6.17816

>  <SCORE.INTRA.norm>
0.0278102

>  <SCORE.RESTR>
8.38249

>  <SCORE.RESTR.CAVITY>
8.38249

>  <SCORE.RESTR.norm>
0.199583

>  <SCORE.SYSTEM>
0

>  <SCORE.SYSTEM.CONST>
0

>  <SCORE.SYSTEM.DIHEDRAL>
0

>  <SCORE.SYSTEM.SOLV>
0

>  <SCORE.SYSTEM.norm>
0

>  <SCORE.heavy>
42

>  <SCORE.norm>
0.610998

>  <RMSD>
17.940

$$$$
2o3w_lig
 OpenBabel11021811463D
libRbt.so/2013.1/901 2013/11/27
 42 45  0  0  0  0  0  0  0  0999 V2000
   12.9349   12.1179   -6.5878 C   0  0  2  0  0  0  0  0  0  0  0  0
   13.1551   12.6440   -7.9076 O   0  0  0  0  0  0  0  0  0  0  0  0
   13.6799    9.7319  -11.0762 C   0  0  2  0  0  0  0  0  0  0  0  0
   13.4468    8.8591  -12.2655 N   0  0  0  0  0  0  0  0  0  0  0  0
   11.9432   13.8379  -11.0467 C   0  0  1  0  0  0  0  0  0  0  0  0
    8.0190   16.0497  -11.4136 C   0  0  1  0  0  0  0  0  0  0  0  0
   12.9518   13.3285   -5.6067 C   0  0  2  0  0  0  0  0  0  0  0  0
   12.0756   14.4265   -6.0511 N   0  0  0  0  0  0  0  0  0  0  0  0
   12.7010    9.3601   -9.8908 C   0  0  0  0  0  0  0  0  0  0  0  0
   11.2476   14.9432  -10.1951 C   0  0  2  0  0  0  0  0  0  0  0  0
   10.4794   14.4308   -9.0786 O   0  0  0  0  0  0  0  0  0  0  0  0
    8.3518   17.4483  -12.0477 C   0  0  2  0  0  0  0  0  0  0  0  0
    9.5430   18.0629  -11.3887 N   0  0  0  0  0  0  0  0  0  0  0  0
   14.3614   13.9247   -5.4385 C   0  0  1  0  0  0  0  0  0  0  0  0
   14.3367   15.0037   -4.5025 O   0  0  0  0  0  0  0  0  0  0  0  0
   13.0093   10.2964   -8.6616 C   0  0  2  0  0  0  0  0  0  0  0  0
   12.1144    9.9639   -7.5205 N   0  0  0  0  0  0  0  0  0  0  0  0
   10.4455   15.6831  -11.2667 C   0  0  2  0  0  0  0  0  0  0  0  0
    9.1060   15.1159  -11.4236 O   0  0  0  0  0  0  0  0  0  0  0  0
    7.0706   18.4024  -11.9258 C   0  0  1  0  0  0  0  0  0  0  0  0
    6.0727   17.9683  -12.8770 O   0  0  0  0  0  0  0  0  0  0  0  0
   15.3411   12.8147   -4.9943 C   0  0  2  0  0  0  0  0  0  0  0  0
   16.6332   13.3479   -4.8195 O   0  0  0  0  0  0  0  0  0  0  0  0
   12.8223   11.8145   -9.0572 C   0  0  2  0  0  0  0  0  0  0  0  0
   11.2586   15.5598  -12.5663 C   0  0  2  0  0  0  0  0  0  0  0  0
   11.9167   14.3042  -12.4153 O   0  0  0  0  0  0  0  0  0  0  0  0
    6.4392   18.4111  -10.4531 C   0  0  2  0  0  0  0  0  0  0  0  0
    7.3621   19.0775   -9.5926 O   0  0  0  0  0  0  0  0  0  0  0  0
   15.3518   11.6813   -6.0736 C   0  0  2  0  0  0  0  0  0  0  0  0
   13.9991   11.1511   -6.2436 O   0  0  0  0  0  0  0  0  0  0  0  0
   13.7089   12.2363  -10.2493 C   0  0  2  0  0  0  0  0  0  0  0  0
   13.2774   13.5829  -10.5885 O   0  0  0  0  0  0  0  0  0  0  0  0
   12.2875   16.7070  -12.8103 C   0  0  0  0  0  0  0  0  0  0  0  0
   11.5872   17.9243  -13.0483 O   0  0  0  0  0  0  0  0  0  0  0  0
    6.1870   16.9403   -9.9478 C   0  0  1  0  0  0  0  0  0  0  0  0
    7.4907   16.2571  -10.0097 O   0  0  0  0  0  0  0  0  0  0  0  0
   16.2828   10.5461   -5.7155 C   0  0  0  0  0  0  0  0  0  0  0  0
   17.6197   10.9310   -5.9248 O   0  0  0  0  0  0  0  0  0  0  0  0
   13.4893   11.2508  -11.4725 C   0  0  1  0  0  0  0  0  0  0  0  0
   14.4176   11.5487  -12.5190 O   0  0  0  0  0  0  0  0  0  0  0  0
    5.5907   16.8544   -8.4762 C   0  0  0  0  0  0  0  0  0  0  0  0
    4.2206   17.4112   -8.3049 N   0  0  0  0  0  0  0  0  0  0  0  0
  1  2  1  6  0  0  0
  1  7  1  0  0  0  0
  1 30  1  0  0  0  0
  3  4  1  6  0  0  0
  3  9  1  0  0  0  0
  3 39  1  0  0  0  0
  5 10  1  0  0  0  0
  5 26  1  0  0  0  0
  5 32  1  1  0  0  0
  6 12  1  0  0  0  0
  6 36  1  0  0  0  0
  6 19  1  1  0  0  0
  7  8  1  6  0  0  0
  7 14  1  0  0  0  0
  9 16  1  0  0  0  0
 10 11  1  1  0  0  0
 10 18  1  0  0  0  0
 12 13  1  1  0  0  0
 12 20  1  0  0  0  0
 14 15  1  1  0  0  0
 14 22  1  0  0  0  0
 16 17  1  1  0  0  0
 16 24  1  0  0  0  0
 18 19  1  6  0  0  0
 18 25  1  0  0  0  0
 20 21  1  6  0  0  0
 20 27  1  0  0  0  0
 22 23  1  6  0  0  0
 22 29  1  0  0  0  0
 24  2  1  1  0  0  0
 24 31  1  0  0  0  0
 25 26  1  0  0  0  0
 25 33  1  1  0  0  0
 27 28  1  1  0  0  0
 27 35  1  0  0  0  0
 29 30  1  0  0  0  0
 29 37  1  1  0  0  0
 31 32  1  6  0  0  0
 31 39  1  0  0  0  0
 33 34  1  0  0  0  0
 35 36  1  0  0  0  0
 35 41  1  1  0  0  0
 37 38  1  0  0  0  0
 39 40  1  6  0  0  0
 41 42  1  0  0  0  0
M  END
>  <CHROM.1>
-162.94505130,126.33911965,33.62397762,130.85162793,-29.99545480,-67.56469516
-75.18084988,-63.07975915,65.58764293,11.55253207,14.11606780,-9.36383066
0.24021626,-0.73801756,1.33839809

>  <Name>
2o3w_lig

>  <RI>
0

>  <Rbt.Current_Directory>
/home/itssahil/PROJECTS/Mol_Feturizer/New_Systems/rnas/2o3w

>  <Rbt.Executable>
rbdock ($Id: //depot/dev/client3/rdock/2013.1/src/exe/rbdock.cxx#4 $)

>  <Rbt.Library>
libRbt.so (2013.1, Build901 2013/11/27)

>  <Rbt.Parameter_File>
/export/apps/rDock/src/rDock_2013.1_src/data/scripts/dock_solv.prm

>  <Rbt.Receptor>
prm/blind_docking_100.prm

>  <SCORE>
5.31231

>  <SCORE.INTER>
-7.08229

>  <SCORE.INTER.CONST>
1

>  <SCORE.INTER.POLAR>
-0.80572

>  <SCORE.INTER.ROT>
9

>  <SCORE.INTER.SOLV>
25.8943

>  <SCORE.INTER.VDW>
-20.2672

>  <SCORE.INTER.norm>
-0.168626

>  <SCORE.INTRA>
6.70138

>  <SCORE.INTRA.DIHEDRAL>
-5.20448

>  <SCORE.INTRA.DIHEDRAL.0>
27.8999

>  <SCORE.INTRA.POLAR>
0

>  <SCORE.INTRA.POLAR.0>
0

>  <SCORE.INTRA.REPUL>
0

>  <SCORE.INTRA.REPUL.0>
0

>  <SCORE.INTRA.SOLV>
1.87659

>  <SCORE.INTRA.SOLV.lig_0>
-104.479

>  <SCORE.INTRA.VDW>
8.36532

>  <SCORE.INTRA.VDW.0>
-6.17816

>  <SCORE.INTRA.norm>
0.159557

>  <SCORE.RESTR>
5.69321

>  <SCORE.RESTR.CAVITY>
5.69321

>  <SCORE.RESTR.norm>
0.135553

>  <SCORE.SYSTEM>
0

>  <SCORE.SYSTEM.CONST>
0

>  <SCORE.SYSTEM.DIHEDRAL>
0

>  <SCORE.SYSTEM.SOLV>
0

>  <SCORE.SYSTEM.norm>
0

>  <SCORE.heavy>
42

>  <SCORE.norm>
0.126484

>  <RMSD>
17.950

$$$$
2o3w_lig
 OpenBabel11021811463D
libRbt.so/2013.1/901 2013/11/27
 42 45  0  0  0  0  0  0  0  0999 V2000
   12.5193   13.5283  -10.7669 C   0  0  2  0  0  0  0  0  0  0  0  0
   11.8361   12.2699  -10.8975 O   0  0  0  0  0  0  0  0  0  0  0  0
   13.6595    8.8846  -12.9002 C   0  0  2  0  0  0  0  0  0  0  0  0
   14.4220    7.6302  -13.1753 N   0  0  0  0  0  0  0  0  0  0  0  0
   11.4022    9.5126   -9.0133 C   0  0  1  0  0  0  0  0  0  0  0  0
   13.7412   10.9220   -6.1415 C   0  0  1  0  0  0  0  0  0  0  0  0
   11.7049   14.3850   -9.7516 C   0  0  2  0  0  0  0  0  0  0  0  0
   11.3992   13.6504   -8.5116 N   0  0  0  0  0  0  0  0  0  0  0  0
   14.6143   10.0353  -12.3844 C   0  0  0  0  0  0  0  0  0  0  0  0
   11.7895   10.8871   -8.3876 C   0  0  2  0  0  0  0  0  0  0  0  0
   13.1602   11.2836   -8.6386 O   0  0  0  0  0  0  0  0  0  0  0  0
   14.8085   10.4840   -5.0748 C   0  0  2  0  0  0  0  0  0  0  0  0
   14.2103   10.4442   -3.7068 N   0  0  0  0  0  0  0  0  0  0  0  0
   10.3591   14.8566  -10.3324 C   0  0  1  0  0  0  0  0  0  0  0  0
    9.6657   15.6696   -9.3841 O   0  0  0  0  0  0  0  0  0  0  0  0
   13.7588   11.3344  -12.1341 C   0  0  2  0  0  0  0  0  0  0  0  0
   14.6295   12.4441  -11.6607 N   0  0  0  0  0  0  0  0  0  0  0  0
   11.4243   10.6588   -6.9200 C   0  0  2  0  0  0  0  0  0  0  0  0
   12.5538   10.1200   -6.1620 O   0  0  0  0  0  0  0  0  0  0  0  0
   16.0542   11.4901   -5.1291 C   0  0  1  0  0  0  0  0  0  0  0  0
   16.8218   11.2192   -6.3234 O   0  0  0  0  0  0  0  0  0  0  0  0
   10.6065   15.6181  -11.6546 C   0  0  2  0  0  0  0  0  0  0  0  0
    9.3852   16.0712  -12.1906 O   0  0  0  0  0  0  0  0  0  0  0  0
   12.6255   11.0583  -11.0685 C   0  0  2  0  0  0  0  0  0  0  0  0
   10.2386    9.6793   -6.9250 C   0  0  2  0  0  0  0  0  0  0  0  0
   10.4757    8.8942   -8.0912 O   0  0  0  0  0  0  0  0  0  0  0  0
   15.6111   13.0299   -5.1146 C   0  0  2  0  0  0  0  0  0  0  0  0
   15.0833   13.3142   -3.8196 O   0  0  0  0  0  0  0  0  0  0  0  0
   11.3343   14.6675  -12.6627 C   0  0  2  0  0  0  0  0  0  0  0  0
   12.5933   14.2035  -12.0800 O   0  0  0  0  0  0  0  0  0  0  0  0
   11.6848    9.9047  -11.4801 C   0  0  2  0  0  0  0  0  0  0  0  0
   10.8377    9.6709  -10.3215 O   0  0  0  0  0  0  0  0  0  0  0  0
    8.8309   10.3501   -6.9768 C   0  0  0  0  0  0  0  0  0  0  0  0
    8.8652   11.5726   -6.2465 O   0  0  0  0  0  0  0  0  0  0  0  0
   14.5225   13.3055   -6.2197 C   0  0  1  0  0  0  0  0  0  0  0  0
   13.4083   12.3848   -5.9351 O   0  0  0  0  0  0  0  0  0  0  0  0
   11.6228   15.3356  -13.9871 C   0  0  0  0  0  0  0  0  0  0  0  0
   10.4199   15.7048  -14.6162 O   0  0  0  0  0  0  0  0  0  0  0  0
   12.5276    8.6078  -11.8313 C   0  0  1  0  0  0  0  0  0  0  0  0
   11.6710    7.5898  -12.3561 O   0  0  0  0  0  0  0  0  0  0  0  0
   13.9998   14.8069   -6.2536 C   0  0  0  0  0  0  0  0  0  0  0  0
   15.0544   15.8558   -6.1880 N   0  0  0  0  0  0  0  0  0  0  0  0
  1  2  1  6  0  0  0
  1  7  1  0  0  0  0
  1 30  1  0  0  0  0
  3  4  1  1  0  0  0
  3  9  1  0  0  0  0
  3 39  1  0  0  0  0
  5 10  1  0  0  0  0
  5 26  1  0  0  0  0
  5 32  1  6  0  0  0
  6 12  1  0  0  0  0
  6 36  1  0  0  0  0
  6 19  1  1  0  0  0
  7  8  1  1  0  0  0
  7 14  1  0  0  0  0
  9 16  1  0  0  0  0
 10 11  1  1  0  0  0
 10 18  1  0  0  0  0
 12 13  1  1  0  0  0
 12 20  1  0  0  0  0
 14 15  1  1  0  0  0
 14 22  1  0  0  0  0
 16 17  1  1  0  0  0
 16 24  1  0  0  0  0
 18 19  1  1  0  0  0
 18 25  1  0  0  0  0
 20 21  1  6  0  0  0
 20 27  1  0  0  0  0
 22 23  1  6  0  0  0
 22 29  1  0  0  0  0
 24  2  1  6  0  0  0
 24 31  1  0  0  0  0
 25 26  1  0  0  0  0
 25 33  1  6  0  0  0
 27 28  1  1  0  0  0
 27 35  1  0  0  0  0
 29 30  1  0  0  0  0
 29 37  1  6  0  0  0
 31 32  1  1  0  0  0
 31 39  1  0  0  0  0
 33 34  1  0  0  0  0
 35 36  1  0  0  0  0
 35 41  1  1  0  0  0
 37 38  1  0  0  0  0
 39 40  1  6  0  0  0
 41 42  1  0  0  0  0
M  END
>  <CHROM.1>
-143.83298969,78.73113999,167.01287174,59.00498716,-44.88816975,-34.39280941
-62.39048019,-49.59390425,45.96301128,12.48965183,11.99965184,-9.12645864
2.87731483,1.21081352,-2.66104933

>  <Name>
2o3w_lig

>  <RI>
0

>  <Rbt.Current_Directory>
/home/itssahil/PROJECTS/Mol_Feturizer/New_Systems/rnas/2o3w

>  <Rbt.Executable>
rbdock ($Id: //depot/dev/client3/rdock/2013.1/src/exe/rbdock.cxx#4 $)

>  <Rbt.Library>
libRbt.so (2013.1, Build901 2013/11/27)

>  <Rbt.Parameter_File>
/export/apps/rDock/src/rDock_2013.1_src/data/scripts/dock_solv.prm

>  <Rbt.Receptor>
prm/blind_docking_40.prm

>  <SCORE>
10.5783

>  <SCORE.INTER>
-3.14371

>  <SCORE.INTER.CONST>
1

>  <SCORE.INTER.POLAR>
-1.57198

>  <SCORE.INTER.ROT>
9

>  <SCORE.INTER.SOLV>
40.218

>  <SCORE.INTER.VDW>
-19.8619

>  <SCORE.INTER.norm>
-0.0748502

>  <SCORE.INTRA>
2.84016

>  <SCORE.INTRA.DIHEDRAL>
-16.3493

>  <SCORE.INTRA.DIHEDRAL.0>
27.8999

>  <SCORE.INTRA.POLAR>
0

>  <SCORE.INTRA.POLAR.0>
0

>  <SCORE.INTRA.REPUL>
0

>  <SCORE.INTRA.REPUL.0>
0

>  <SCORE.INTRA.SOLV>
3.61524

>  <SCORE.INTRA.SOLV.lig_0>
-104.479

>  <SCORE.INTRA.VDW>
9.2072

>  <SCORE.INTRA.VDW.0>
-6.17816

>  <SCORE.INTRA.norm>
0.0676229

>  <SCORE.RESTR>
10.8819

>  <SCORE.RESTR.CAVITY>
10.8819

>  <SCORE.RESTR.norm>
0.259092

>  <SCORE.SYSTEM>
0

>  <SCORE.SYSTEM.CONST>
0

>  <SCORE.SYSTEM.DIHEDRAL>
0

>  <SCORE.SYSTEM.SOLV>
0

>  <SCORE.SYSTEM.norm>
0

>  <SCORE.heavy>
42

>  <SCORE.norm>
0.251865

>  <RMSD>
17.953

$$$$
2o3w_lig
 OpenBabel11021811463D
libRbt.so/2013.1/901 2013/11/27
 42 45  0  0  0  0  0  0  0  0999 V2000
   12.9972   12.1135   -6.6109 C   0  0  2  0  0  0  0  0  0  0  0  0
   13.2349   12.6384   -7.9282 O   0  0  0  0  0  0  0  0  0  0  0  0
   13.4389    9.9405  -11.3158 C   0  0  2  0  0  0  0  0  0  0  0  0
   13.0836    9.1348  -12.5220 N   0  0  0  0  0  0  0  0  0  0  0  0
   11.6466   13.9773  -10.9094 C   0  0  1  0  0  0  0  0  0  0  0  0
    7.6473   16.0416  -11.2514 C   0  0  1  0  0  0  0  0  0  0  0  0
   12.9853   13.3266   -5.6330 C   0  0  2  0  0  0  0  0  0  0  0  0
   12.1062   14.4148   -6.0953 N   0  0  0  0  0  0  0  0  0  0  0  0
   12.6189    9.4684  -10.0483 C   0  0  0  0  0  0  0  0  0  0  0  0
   10.9416   14.9429   -9.9086 C   0  0  2  0  0  0  0  0  0  0  0  0
   10.2514   14.2697   -8.8272 O   0  0  0  0  0  0  0  0  0  0  0  0
    8.0556   17.4123  -11.9021 C   0  0  2  0  0  0  0  0  0  0  0  0
    9.1022   18.0989  -11.0871 N   0  0  0  0  0  0  0  0  0  0  0  0
   14.3859   13.9371   -5.4421 C   0  0  1  0  0  0  0  0  0  0  0  0
   14.3344   15.0182   -4.5096 O   0  0  0  0  0  0  0  0  0  0  0  0
   13.0522   10.3375   -8.8075 C   0  0  2  0  0  0  0  0  0  0  0  0
   12.3094    9.9097   -7.5914 N   0  0  0  0  0  0  0  0  0  0  0  0
   10.0566   15.7564  -10.8543 C   0  0  2  0  0  0  0  0  0  0  0  0
    8.7388   15.1425  -11.0192 O   0  0  0  0  0  0  0  0  0  0  0  0
    6.7530   18.3319  -12.0588 C   0  0  1  0  0  0  0  0  0  0  0  0
    5.9435   17.8152  -13.1389 O   0  0  0  0  0  0  0  0  0  0  0  0
   15.3686   12.8379   -4.9781 C   0  0  2  0  0  0  0  0  0  0  0  0
   16.6522   13.3842   -4.7826 O   0  0  0  0  0  0  0  0  0  0  0  0
   12.7845   11.8704   -9.0804 C   0  0  2  0  0  0  0  0  0  0  0  0
   10.8124   15.8216  -12.1921 C   0  0  2  0  0  0  0  0  0  0  0  0
   11.5342   14.5923  -12.2133 O   0  0  0  0  0  0  0  0  0  0  0  0
    5.8769   18.4031  -10.7191 C   0  0  2  0  0  0  0  0  0  0  0  0
    6.6235   19.1444   -9.7549 O   0  0  0  0  0  0  0  0  0  0  0  0
   15.4090   11.7020   -6.0541 C   0  0  2  0  0  0  0  0  0  0  0  0
   14.0647   11.1580   -6.2459 O   0  0  0  0  0  0  0  0  0  0  0  0
   13.5109   12.3901  -10.3404 C   0  0  2  0  0  0  0  0  0  0  0  0
   13.0113   13.7412  -10.5393 O   0  0  0  0  0  0  0  0  0  0  0  0
   11.7746   17.0401  -12.3458 C   0  0  0  0  0  0  0  0  0  0  0  0
   12.4641   16.9413  -13.5883 O   0  0  0  0  0  0  0  0  0  0  0  0
    5.5718   16.9556  -10.1770 C   0  0  1  0  0  0  0  0  0  0  0  0
    6.8805   16.3105   -9.9736 O   0  0  0  0  0  0  0  0  0  0  0  0
   16.3448   10.5769   -5.6770 C   0  0  0  0  0  0  0  0  0  0  0  0
   17.6820   10.9953   -5.8039 O   0  0  0  0  0  0  0  0  0  0  0  0
   13.1675   11.4742  -11.5890 C   0  0  1  0  0  0  0  0  0  0  0  0
   13.9556   11.8628  -12.7175 O   0  0  0  0  0  0  0  0  0  0  0  0
    4.7323   16.9334   -8.8266 C   0  0  0  0  0  0  0  0  0  0  0  0
    5.1452   17.9267   -7.7973 N   0  0  0  0  0  0  0  0  0  0  0  0
  1  2  1  6  0  0  0
  1  7  1  0  0  0  0
  1 30  1  0  0  0  0
  3  4  1  6  0  0  0
  3  9  1  0  0  0  0
  3 39  1  0  0  0  0
  5 10  1  0  0  0  0
  5 26  1  0  0  0  0
  5 32  1  1  0  0  0
  6 12  1  0  0  0  0
  6 36  1  0  0  0  0
  6 19  1  1  0  0  0
  7  8  1  6  0  0  0
  7 14  1  0  0  0  0
  9 16  1  0  0  0  0
 10 11  1  1  0  0  0
 10 18  1  0  0  0  0
 12 13  1  1  0  0  0
 12 20  1  0  0  0  0
 14 15  1  1  0  0  0
 14 22  1  0  0  0  0
 16 17  1  1  0  0  0
 16 24  1  0  0  0  0
 18 19  1  6  0  0  0
 18 25  1  0  0  0  0
 20 21  1  6  0  0  0
 20 27  1  0  0  0  0
 22 23  1  6  0  0  0
 22 29  1  0  0  0  0
 24  2  1  1  0  0  0
 24 31  1  0  0  0  0
 25 26  1  0  0  0  0
 25 33  1  1  0  0  0
 27 28  1  1  0  0  0
 27 35  1  0  0  0  0
 29 30  1  0  0  0  0
 29 37  1  1  0  0  0
 31 32  1  6  0  0  0
 31 39  1  0  0  0  0
 33 34  1  0  0  0  0
 35 36  1  0  0  0  0
 35 41  1  1  0  0  0
 37 38  1  0  0  0  0
 39 40  1  6  0  0  0
 41 42  1  0  0  0  0
M  END
>  <CHROM.1>
-155.73605155,124.70808171,25.40170391,148.60614966,-39.54761793,176.73864271
-72.40541688,-67.45435964,-42.80777520,11.38176405,14.16349457,-9.35054415
0.22054138,-0.71136615,1.30348901

>  <Name>
2o3w_lig

>  <RI>
0

>  <Rbt.Current_Directory>
/home/itssahil/PROJECTS/Mol_Feturizer/New_Systems/rnas/2o3w

>  <Rbt.Executable>
rbdock ($Id: //depot/dev/client3/rdock/2013.1/src/exe/rbdock.cxx#4 $)

>  <Rbt.Library>
libRbt.so (2013.1, Build901 2013/11/27)

>  <Rbt.Parameter_File>
/export/apps/rDock/src/rDock_2013.1_src/data/scripts/dock_solv.prm

>  <Rbt.Receptor>
prm/blind_docking_100.prm

>  <SCORE>
5.63673

>  <SCORE.INTER>
-7.3035

>  <SCORE.INTER.CONST>
1

>  <SCORE.INTER.POLAR>
-0.708099

>  <SCORE.INTER.ROT>
9

>  <SCORE.INTER.SOLV>
26.8937

>  <SCORE.INTER.VDW>
-21.0732

>  <SCORE.INTER.norm>
-0.173893

>  <SCORE.INTRA>
6.23883

>  <SCORE.INTRA.DIHEDRAL>
-6.19137

>  <SCORE.INTRA.DIHEDRAL.0>
27.8999

>  <SCORE.INTRA.POLAR>
0

>  <SCORE.INTRA.POLAR.0>
0

>  <SCORE.INTRA.REPUL>
0

>  <SCORE.INTRA.REPUL.0>
0

>  <SCORE.INTRA.SOLV>
2.63248

>  <SCORE.INTRA.SOLV.lig_0>
-104.479

>  <SCORE.INTRA.VDW>
8.01827

>  <SCORE.INTRA.VDW.0>
-6.17816

>  <SCORE.INTRA.norm>
0.148543

>  <SCORE.RESTR>
6.7014

>  <SCORE.RESTR.CAVITY>
6.7014

>  <SCORE.RESTR.norm>
0.159557

>  <SCORE.SYSTEM>
0

>  <SCORE.SYSTEM.CONST>
0

>  <SCORE.SYSTEM.DIHEDRAL>
0

>  <SCORE.SYSTEM.SOLV>
0

>  <SCORE.SYSTEM.norm>
0

>  <SCORE.heavy>
42

>  <SCORE.norm>
0.134208

>  <RMSD>
17.954

$$$$
2o3w_lig
 OpenBabel11021811463D
libRbt.so/2013.1/901 2013/11/27
 42 45  0  0  0  0  0  0  0  0999 V2000
   12.4301   10.4091   -8.3624 C   0  0  2  0  0  0  0  0  0  0  0  0
   11.8820   10.8599   -9.6129 O   0  0  0  0  0  0  0  0  0  0  0  0
   15.2115    9.7082  -12.1395 C   0  0  2  0  0  0  0  0  0  0  0  0
   16.1006    9.4976  -13.3209 N   0  0  0  0  0  0  0  0  0  0  0  0
   12.1369   13.2341  -11.2027 C   0  0  1  0  0  0  0  0  0  0  0  0
    8.4141   15.7410  -11.5444 C   0  0  1  0  0  0  0  0  0  0  0  0
   11.2339   10.2277   -7.3804 C   0  0  2  0  0  0  0  0  0  0  0  0
   10.1404    9.4318   -7.9647 N   0  0  0  0  0  0  0  0  0  0  0  0
   13.8634    8.8936  -12.2832 C   0  0  0  0  0  0  0  0  0  0  0  0
   11.5937   14.5137  -10.4968 C   0  0  2  0  0  0  0  0  0  0  0  0
   10.8466   14.2459   -9.2847 O   0  0  0  0  0  0  0  0  0  0  0  0
    8.9352   17.1922  -11.8461 C   0  0  2  0  0  0  0  0  0  0  0  0
   10.0942   17.5360  -10.9689 N   0  0  0  0  0  0  0  0  0  0  0  0
   10.6229   11.5735   -6.9488 C   0  0  1  0  0  0  0  0  0  0  0  0
    9.5581   11.3614   -6.0203 O   0  0  0  0  0  0  0  0  0  0  0  0
   12.9806    9.1375  -11.0011 C   0  0  2  0  0  0  0  0  0  0  0  0
   11.7079    8.3728  -11.0960 N   0  0  0  0  0  0  0  0  0  0  0  0
   10.8027   15.1659  -11.6318 C   0  0  2  0  0  0  0  0  0  0  0  0
    9.4105   14.7160  -11.6451 O   0  0  0  0  0  0  0  0  0  0  0  0
    7.7357   18.2361  -11.6503 C   0  0  1  0  0  0  0  0  0  0  0  0
    6.8163   18.1045  -12.7577 O   0  0  0  0  0  0  0  0  0  0  0  0
   11.7272   12.4714   -6.3457 C   0  0  2  0  0  0  0  0  0  0  0  0
   11.1807   13.7014   -5.9301 O   0  0  0  0  0  0  0  0  0  0  0  0
   12.6634   10.6754  -10.8277 C   0  0  2  0  0  0  0  0  0  0  0  0
   11.5264   14.7768  -12.9319 C   0  0  2  0  0  0  0  0  0  0  0  0
   12.0755   13.4978  -12.6232 O   0  0  0  0  0  0  0  0  0  0  0  0
    6.9473   18.0261  -10.2712 C   0  0  2  0  0  0  0  0  0  0  0  0
    7.8226   18.4098   -9.2116 O   0  0  0  0  0  0  0  0  0  0  0  0
   12.8443   12.6968   -7.4184 C   0  0  2  0  0  0  0  0  0  0  0  0
   13.3887   11.4063   -7.8405 O   0  0  0  0  0  0  0  0  0  0  0  0
   13.9377   11.5433  -10.7370 C   0  0  2  0  0  0  0  0  0  0  0  0
   13.4663   12.9185  -10.7688 O   0  0  0  0  0  0  0  0  0  0  0  0
   12.6397   15.7702  -13.3880 C   0  0  0  0  0  0  0  0  0  0  0  0
   12.0958   17.0846  -13.4619 O   0  0  0  0  0  0  0  0  0  0  0  0
    6.5140   16.5207  -10.1024 C   0  0  1  0  0  0  0  0  0  0  0  0
    7.7525   15.7270  -10.1824 O   0  0  0  0  0  0  0  0  0  0  0  0
   13.9731   13.5630   -6.9093 C   0  0  0  0  0  0  0  0  0  0  0  0
   13.4711   14.7965   -6.4558 O   0  0  0  0  0  0  0  0  0  0  0  0
   14.8921   11.2475  -11.9688 C   0  0  1  0  0  0  0  0  0  0  0  0
   16.1351   11.9360  -11.8063 O   0  0  0  0  0  0  0  0  0  0  0  0
    5.7522   16.2149   -8.7405 C   0  0  0  0  0  0  0  0  0  0  0  0
    4.4152   16.8537   -8.5950 N   0  0  0  0  0  0  0  0  0  0  0  0
  1  2  1  6  0  0  0
  1  7  1  0  0  0  0
  1 30  1  0  0  0  0
  3  4  1  6  0  0  0
  3  9  1  0  0  0  0
  3 39  1  0  0  0  0
  5 10  1  0  0  0  0
  5 26  1  0  0  0  0
  5 32  1  1  0  0  0
  6 12  1  0  0  0  0
  6 36  1  0  0  0  0
  6 19  1  1  0  0  0
  7  8  1  6  0  0  0
  7 14  1  0  0  0  0
  9 16  1  0  0  0  0
 10 11  1  1  0  0  0
 10 18  1  0  0  0  0
 12 13  1  1  0  0  0
 12 20  1  0  0  0  0
 14 15  1  1  0  0  0
 14 22  1  0  0  0  0
 16 17  1  6  0  0  0
 16 24  1  0  0  0  0
 18 19  1  6  0  0  0
 18 25  1  0  0  0  0
 20 21  1  6  0  0  0
 20 27  1  0  0  0  0
 22 23  1  6  0  0  0
 22 29  1  0  0  0  0
 24  2  1  1  0  0  0
 24 31  1  0  0  0  0
 25 26  1  0  0  0  0
 25 33  1  1  0  0  0
 27 28  1  1  0  0  0
 27 35  1  0  0  0  0
 29 30  1  0  0  0  0
 29 37  1  1  0  0  0
 31 32  1  6  0  0  0
 31 39  1  0  0  0  0
 33 34  1  0  0  0  0
 35 36  1  0  0  0  0
 35 41  1  1  0  0  0
 37 38  1  0  0  0  0
 39 40  1  1  0  0  0
 41 42  1  0  0  0  0
M  END
>  <CHROM.1>
-158.94834272,149.97568860,16.68838621,122.65028444,57.84205501,-53.53537859
-56.20076583,-16.05508255,66.53034521,11.13407182,13.56157186,-10.11713209
0.43239275,-0.72401222,2.14696065

>  <Name>
2o3w_lig

>  <RI>
0

>  <Rbt.Current_Directory>
/home/itssahil/PROJECTS/Mol_Feturizer/New_Systems/rnas/2o3w

>  <Rbt.Executable>
rbdock ($Id: //depot/dev/client3/rdock/2013.1/src/exe/rbdock.cxx#4 $)

>  <Rbt.Library>
libRbt.so (2013.1, Build901 2013/11/27)

>  <Rbt.Parameter_File>
/export/apps/rDock/src/rDock_2013.1_src/data/scripts/dock_solv.prm

>  <Rbt.Receptor>
prm/blind_docking_100.prm

>  <SCORE>
1.29812

>  <SCORE.INTER>
-10.2625

>  <SCORE.INTER.CONST>
1

>  <SCORE.INTER.POLAR>
-0.824621

>  <SCORE.INTER.ROT>
9

>  <SCORE.INTER.SOLV>
23.6074

>  <SCORE.INTER.VDW>
-21.5621

>  <SCORE.INTER.norm>
-0.244345

>  <SCORE.INTRA>
5.07608

>  <SCORE.INTRA.DIHEDRAL>
-2.84344

>  <SCORE.INTRA.DIHEDRAL.0>
27.8999

>  <SCORE.INTRA.POLAR>
0

>  <SCORE.INTRA.POLAR.0>
0

>  <SCORE.INTRA.REPUL>
0

>  <SCORE.INTRA.REPUL.0>
0

>  <SCORE.INTRA.SOLV>
0.643484

>  <SCORE.INTRA.SOLV.lig_0>
-104.479

>  <SCORE.INTRA.VDW>
6.17606

>  <SCORE.INTRA.VDW.0>
-6.17816

>  <SCORE.INTRA.norm>
0.120859

>  <SCORE.RESTR>
6.48454

>  <SCORE.RESTR.CAVITY>
6.48454

>  <SCORE.RESTR.norm>
0.154394

>  <SCORE.SYSTEM>
0

>  <SCORE.SYSTEM.CONST>
0

>  <SCORE.SYSTEM.DIHEDRAL>
0

>  <SCORE.SYSTEM.SOLV>
0

>  <SCORE.SYSTEM.norm>
0

>  <SCORE.heavy>
42

>  <SCORE.norm>
0.0309076

>  <RMSD>
17.963

$$$$
2o3w_lig
 OpenBabel11021811463D
libRbt.so/2013.1/901 2013/11/27
 42 45  0  0  0  0  0  0  0  0999 V2000
   12.7039   10.7885   -8.2756 C   0  0  2  0  0  0  0  0  0  0  0  0
   12.1257   11.1614   -9.5381 O   0  0  0  0  0  0  0  0  0  0  0  0
   15.2706    9.6166  -12.0913 C   0  0  2  0  0  0  0  0  0  0  0  0
   16.0746    9.2246  -13.2873 N   0  0  0  0  0  0  0  0  0  0  0  0
   12.2311   13.2843  -11.3069 C   0  0  1  0  0  0  0  0  0  0  0  0
    8.4031   15.6933  -11.4124 C   0  0  1  0  0  0  0  0  0  0  0  0
   11.5225   10.5243   -7.2944 C   0  0  2  0  0  0  0  0  0  0  0  0
   10.5067    9.6225   -7.8649 N   0  0  0  0  0  0  0  0  0  0  0  0
   13.9166    8.8021  -12.0179 C   0  0  0  0  0  0  0  0  0  0  0  0
   11.7885   14.5916  -10.5817 C   0  0  2  0  0  0  0  0  0  0  0  0
   11.2679   14.3775   -9.2466 O   0  0  0  0  0  0  0  0  0  0  0  0
    8.9217   17.1717  -11.5318 C   0  0  2  0  0  0  0  0  0  0  0  0
    9.8544   17.5018  -10.4129 N   0  0  0  0  0  0  0  0  0  0  0  0
   10.7930   11.8204   -6.8958 C   0  0  1  0  0  0  0  0  0  0  0  0
    9.7455   11.5361   -5.9669 O   0  0  0  0  0  0  0  0  0  0  0  0
   13.1260    9.2419  -10.7279 C   0  0  2  0  0  0  0  0  0  0  0  0
   11.8506    8.4834  -10.6191 N   0  0  0  0  0  0  0  0  0  0  0  0
   10.7988   15.1718  -11.5932 C   0  0  2  0  0  0  0  0  0  0  0  0
    9.4359   14.7023  -11.3426 O   0  0  0  0  0  0  0  0  0  0  0  0
    7.6697   18.1712  -11.5514 C   0  0  1  0  0  0  0  0  0  0  0  0
    7.0119   18.0710  -12.8344 O   0  0  0  0  0  0  0  0  0  0  0  0
   11.8105   12.8252   -6.3089 C   0  0  2  0  0  0  0  0  0  0  0  0
   11.1555   14.0113   -5.9234 O   0  0  0  0  0  0  0  0  0  0  0  0
   12.8199   10.7914  -10.7635 C   0  0  2  0  0  0  0  0  0  0  0  0
   11.2963   14.7250  -12.9782 C   0  0  2  0  0  0  0  0  0  0  0  0
   11.9196   13.4719  -12.7065 O   0  0  0  0  0  0  0  0  0  0  0  0
    6.6150   17.8699  -10.3833 C   0  0  2  0  0  0  0  0  0  0  0  0
    7.2305   18.2231   -9.1453 O   0  0  0  0  0  0  0  0  0  0  0  0
   12.9098   13.1242   -7.3821 C   0  0  2  0  0  0  0  0  0  0  0  0
   13.5680   11.8775   -7.7726 O   0  0  0  0  0  0  0  0  0  0  0  0
   14.0964   11.6512  -10.8920 C   0  0  2  0  0  0  0  0  0  0  0  0
   13.6223   13.0108  -11.0950 O   0  0  0  0  0  0  0  0  0  0  0  0
   12.2911   15.7086  -13.6690 C   0  0  0  0  0  0  0  0  0  0  0  0
   11.6738   16.9853  -13.8024 O   0  0  0  0  0  0  0  0  0  0  0  0
    6.2125   16.3467  -10.3772 C   0  0  1  0  0  0  0  0  0  0  0  0
    7.4686   15.5922  -10.2252 O   0  0  0  0  0  0  0  0  0  0  0  0
   13.9550   14.0975   -6.8882 C   0  0  0  0  0  0  0  0  0  0  0  0
   14.6397   13.5555   -5.7851 O   0  0  0  0  0  0  0  0  0  0  0  0
   14.9621   11.1670  -12.1296 C   0  0  1  0  0  0  0  0  0  0  0  0
   16.2127   11.8604  -12.1584 O   0  0  0  0  0  0  0  0  0  0  0  0
    5.1910   15.9515   -9.2244 C   0  0  0  0  0  0  0  0  0  0  0  0
    5.5839   16.3641   -7.8489 N   0  0  0  0  0  0  0  0  0  0  0  0
  1  2  1  6  0  0  0
  1  7  1  0  0  0  0
  1 30  1  0  0  0  0
  3  4  1  6  0  0  0
  3  9  1  0  0  0  0
  3 39  1  0  0  0  0
  5 10  1  0  0  0  0
  5 26  1  0  0  0  0
  5 32  1  6  0  0  0
  6 12  1  0  0  0  0
  6 36  1  0  0  0  0
  6 19  1  1  0  0  0
  7  8  1  6  0  0  0
  7 14  1  0  0  0  0
  9 16  1  0  0  0  0
 10 11  1  1  0  0  0
 10 18  1  0  0  0  0
 12 13  1  1  0  0  0
 12 20  1  0  0  0  0
 14 15  1  1  0  0  0
 14 22  1  0  0  0  0
 16 17  1  6  0  0  0
 16 24  1  0  0  0  0
 18 19  1  1  0  0  0
 18 25  1  0  0  0  0
 20 21  1  6  0  0  0
 20 27  1  0  0  0  0
 22 23  1  6  0  0  0
 22 29  1  0  0  0  0
 24  2  1  1  0  0  0
 24 31  1  0  0  0  0
 25 26  1  0  0  0  0
 25 33  1  1  0  0  0
 27 28  1  1  0  0  0
 27 35  1  0  0  0  0
 29 30  1  0  0  0  0
 29 37  1  1  0  0  0
 31 32  1  6  0  0  0
 31 39  1  0  0  0  0
 33 34  1  0  0  0  0
 35 36  1  0  0  0  0
 35 41  1  1  0  0  0
 37 38  1  0  0  0  0
 39 40  1  1  0  0  0
 41 42  1  0  0  0  0
M  END
>  <CHROM.1>
-147.58065237,141.34435073,-8.89949859,135.83890956,52.30128534,-57.83641551
62.35619881,-7.92110537,-51.98618739,11.19559173,13.57613959,-10.07476955
0.32872001,-0.72288837,1.99874798

>  <Name>
2o3w_lig

>  <RI>
0

>  <Rbt.Current_Directory>
/home/itssahil/PROJECTS/Mol_Feturizer/New_Systems/rnas/2o3w

>  <Rbt.Executable>
rbdock ($Id: //depot/dev/client3/rdock/2013.1/src/exe/rbdock.cxx#4 $)

>  <Rbt.Library>
libRbt.so (2013.1, Build901 2013/11/27)

>  <Rbt.Parameter_File>
/export/apps/rDock/src/rDock_2013.1_src/data/scripts/dock_solv.prm

>  <Rbt.Receptor>
prm/blind_docking_100.prm

>  <SCORE>
3.50135

>  <SCORE.INTER>
-10.287

>  <SCORE.INTER.CONST>
1

>  <SCORE.INTER.POLAR>
-0.824621

>  <SCORE.INTER.ROT>
9

>  <SCORE.INTER.SOLV>
23.7893

>  <SCORE.INTER.VDW>
-21.6391

>  <SCORE.INTER.norm>
-0.24493

>  <SCORE.INTRA>
7.86203

>  <SCORE.INTRA.DIHEDRAL>
1.64085

>  <SCORE.INTRA.DIHEDRAL.0>
27.8999

>  <SCORE.INTRA.POLAR>
0

>  <SCORE.INTRA.POLAR.0>
0

>  <SCORE.INTRA.REPUL>
0

>  <SCORE.INTRA.REPUL.0>
0

>  <SCORE.INTRA.SOLV>
2.00298

>  <SCORE.INTRA.SOLV.lig_0>
-104.479

>  <SCORE.INTRA.VDW>
6.04012

>  <SCORE.INTRA.VDW.0>
-6.17816

>  <SCORE.INTRA.norm>
0.187191

>  <SCORE.RESTR>
5.92637

>  <SCORE.RESTR.CAVITY>
5.92637

>  <SCORE.RESTR.norm>
0.141104

>  <SCORE.SYSTEM>
0

>  <SCORE.SYSTEM.CONST>
0

>  <SCORE.SYSTEM.DIHEDRAL>
0

>  <SCORE.SYSTEM.SOLV>
0

>  <SCORE.SYSTEM.norm>
0

>  <SCORE.heavy>
42

>  <SCORE.norm>
0.0833655

>  <RMSD>
17.963

$$$$
2o3w_lig
 OpenBabel11021811463D
libRbt.so/2013.1/901 2013/11/27
 42 45  0  0  0  0  0  0  0  0999 V2000
   11.6730   10.1385   -6.5387 C   0  0  2  0  0  0  0  0  0  0  0  0
   12.2973    9.9236   -7.8160 O   0  0  0  0  0  0  0  0  0  0  0  0
   10.6252    8.4313  -11.5272 C   0  0  2  0  0  0  0  0  0  0  0  0
    9.8310    8.3044  -12.7856 N   0  0  0  0  0  0  0  0  0  0  0  0
   12.1366   12.4519  -10.3553 C   0  0  1  0  0  0  0  0  0  0  0  0
   10.8458   16.6563  -11.1978 C   0  0  1  0  0  0  0  0  0  0  0  0
   10.8890   11.4817   -6.6357 C   0  0  2  0  0  0  0  0  0  0  0  0
   10.0266   11.5462   -7.8285 N   0  0  0  0  0  0  0  0  0  0  0  0
    9.6851    8.4577  -10.2554 C   0  0  0  0  0  0  0  0  0  0  0  0
   12.9458   13.7495  -10.0514 C   0  0  2  0  0  0  0  0  0  0  0  0
   12.8746   14.1783   -8.6693 O   0  0  0  0  0  0  0  0  0  0  0  0
    9.4281   16.6419  -11.8750 C   0  0  2  0  0  0  0  0  0  0  0  0
    9.3034   15.4980  -12.8273 N   0  0  0  0  0  0  0  0  0  0  0  0
   11.8259   12.7020   -6.6978 C   0  0  1  0  0  0  0  0  0  0  0  0
   11.0659   13.9107   -6.7457 O   0  0  0  0  0  0  0  0  0  0  0  0
   10.5788    8.5698   -8.9626 C   0  0  2  0  0  0  0  0  0  0  0  0
    9.7259    8.5826   -7.7436 N   0  0  0  0  0  0  0  0  0  0  0  0
   12.3517   14.7168  -11.0764 C   0  0  2  0  0  0  0  0  0  0  0  0
   11.2014   15.4385  -10.5314 O   0  0  0  0  0  0  0  0  0  0  0  0
    9.1834   18.0395  -12.6191 C   0  0  1  0  0  0  0  0  0  0  0  0
    8.9359   19.0604  -11.6264 O   0  0  0  0  0  0  0  0  0  0  0  0
   12.7792   12.6826   -5.4812 C   0  0  2  0  0  0  0  0  0  0  0  0
   13.6327   13.8028   -5.5144 O   0  0  0  0  0  0  0  0  0  0  0  0
   11.4602    9.8801   -9.0067 C   0  0  2  0  0  0  0  0  0  0  0  0
   11.9482   13.8579  -12.2866 C   0  0  2  0  0  0  0  0  0  0  0  0
   11.6114   12.6059  -11.6938 O   0  0  0  0  0  0  0  0  0  0  0  0
   10.4181   18.4774  -13.5418 C   0  0  2  0  0  0  0  0  0  0  0  0
   10.4674   17.5798  -14.6501 O   0  0  0  0  0  0  0  0  0  0  0  0
   13.6079   11.3551   -5.5032 C   0  0  2  0  0  0  0  0  0  0  0  0
   12.7004   10.2081   -5.4778 O   0  0  0  0  0  0  0  0  0  0  0  0
   12.3662    9.9507  -10.2554 C   0  0  2  0  0  0  0  0  0  0  0  0
   12.9533   11.2808  -10.2267 O   0  0  0  0  0  0  0  0  0  0  0  0
   13.0573   13.6855  -13.3703 C   0  0  0  0  0  0  0  0  0  0  0  0
   13.3299   14.9486  -13.9696 O   0  0  0  0  0  0  0  0  0  0  0  0
   11.7673   18.4168  -12.7306 C   0  0  1  0  0  0  0  0  0  0  0  0
   11.8839   17.0350  -12.2332 O   0  0  0  0  0  0  0  0  0  0  0  0
   14.5664   11.2486   -4.3397 C   0  0  0  0  0  0  0  0  0  0  0  0
   15.3124   10.0595   -4.4332 O   0  0  0  0  0  0  0  0  0  0  0  0
   11.5046    9.7448  -11.5711 C   0  0  1  0  0  0  0  0  0  0  0  0
   12.3610    9.6589  -12.7134 O   0  0  0  0  0  0  0  0  0  0  0  0
   13.0530   18.8047  -13.5821 C   0  0  0  0  0  0  0  0  0  0  0  0
   12.9626   20.0866  -14.3339 N   0  0  0  0  0  0  0  0  0  0  0  0
  1  2  1  6  0  0  0
  1  7  1  0  0  0  0
  1 30  1  0  0  0  0
  3  4  1  6  0  0  0
  3  9  1  0  0  0  0
  3 39  1  0  0  0  0
  5 10  1  0  0  0  0
  5 26  1  0  0  0  0
  5 32  1  6  0  0  0
  6 12  1  0  0  0  0
  6 36  1  0  0  0  0
  6 19  1  6  0  0  0
  7  8  1  6  0  0  0
  7 14  1  0  0  0  0
  9 16  1  0  0  0  0
 10 11  1  1  0  0  0
 10 18  1  0  0  0  0
 12 13  1  6  0  0  0
 12 20  1  0  0  0  0
 14 15  1  1  0  0  0
 14 22  1  0  0  0  0
 16 17  1  1  0  0  0
 16 24  1  0  0  0  0
 18 19  1  1  0  0  0
 18 25  1  0  0  0  0
 20 21  1  1  0  0  0
 20 27  1  0  0  0  0
 22 23  1  6  0  0  0
 22 29  1  0  0  0  0
 24  2  1  1  0  0  0
 24 31  1  0  0  0  0
 25 26  1  0  0  0  0
 25 33  1  6  0  0  0
 27 28  1  6  0  0  0
 27 35  1  0  0  0  0
 29 30  1  0  0  0  0
 29 37  1  1  0  0  0
 31 32  1  6  0  0  0
 31 39  1  0  0  0  0
 33 34  1  0  0  0  0
 35 36  1  0  0  0  0
 35 41  1  6  0  0  0
 37 38  1  0  0  0  0
 39 40  1  6  0  0  0
 41 42  1  0  0  0  0
M  END
>  <CHROM.1>
-57.13570024,170.20310100,116.23039002,159.80930132,-68.92652039,-65.58791872
-178.14925398,-64.21033560,50.78941230,11.72414849,13.20811278,-10.02119049
-1.19945316,-1.25369399,-0.31991079

>  <Name>
2o3w_lig

>  <RI>
0

>  <Rbt.Current_Directory>
/home/itssahil/PROJECTS/Mol_Feturizer/New_Systems/rnas/2o3w

>  <Rbt.Executable>
rbdock ($Id: //depot/dev/client3/rdock/2013.1/src/exe/rbdock.cxx#4 $)

>  <Rbt.Library>
libRbt.so (2013.1, Build901 2013/11/27)

>  <Rbt.Parameter_File>
/export/apps/rDock/src/rDock_2013.1_src/data/scripts/dock_solv.prm

>  <Rbt.Receptor>
prm/blind_docking_80.prm

>  <SCORE>
56.4615

>  <SCORE.INTER>
50.515

>  <SCORE.INTER.CONST>
1

>  <SCORE.INTER.POLAR>
-2.16199

>  <SCORE.INTER.ROT>
9

>  <SCORE.INTER.SOLV>
31.1379

>  <SCORE.INTER.VDW>
20.904

>  <SCORE.INTER.norm>
1.20274

>  <SCORE.INTRA>
-1.84423

>  <SCORE.INTRA.DIHEDRAL>
-17.504

>  <SCORE.INTRA.DIHEDRAL.0>
27.8999

>  <SCORE.INTRA.POLAR>
0

>  <SCORE.INTRA.POLAR.0>
0

>  <SCORE.INTRA.REPUL>
0

>  <SCORE.INTRA.REPUL.0>
0

>  <SCORE.INTRA.SOLV>
4.80183

>  <SCORE.INTRA.SOLV.lig_0>
-104.479

>  <SCORE.INTRA.VDW>
4.50687

>  <SCORE.INTRA.VDW.0>
-6.17816

>  <SCORE.INTRA.norm>
-0.0439102

>  <SCORE.RESTR>
7.79071

>  <SCORE.RESTR.CAVITY>
7.79071

>  <SCORE.RESTR.norm>
0.185493

>  <SCORE.SYSTEM>
0

>  <SCORE.SYSTEM.CONST>
0

>  <SCORE.SYSTEM.DIHEDRAL>
0

>  <SCORE.SYSTEM.SOLV>
0

>  <SCORE.SYSTEM.norm>
0

>  <SCORE.heavy>
42

>  <SCORE.norm>
1.34432

>  <RMSD>
17.967

$$$$
2o3w_lig
 OpenBabel11021811463D
libRbt.so/2013.1/901 2013/11/27
 42 45  0  0  0  0  0  0  0  0999 V2000
   13.9539   10.6930  -11.1780 C   0  0  2  0  0  0  0  0  0  0  0  0
   14.2029   11.2166   -9.8623 O   0  0  0  0  0  0  0  0  0  0  0  0
   10.8874   10.4941   -7.1638 C   0  0  2  0  0  0  0  0  0  0  0  0
    9.7001   10.6856   -6.2783 N   0  0  0  0  0  0  0  0  0  0  0  0
   11.2786   13.0107  -10.8262 C   0  0  1  0  0  0  0  0  0  0  0  0
    8.6008   16.4511  -10.2831 C   0  0  1  0  0  0  0  0  0  0  0  0
   14.2303    9.1607  -11.1178 C   0  0  2  0  0  0  0  0  0  0  0  0
   13.5433    8.5077   -9.9899 N   0  0  0  0  0  0  0  0  0  0  0  0
   12.1613   11.2300   -6.5828 C   0  0  0  0  0  0  0  0  0  0  0  0
    9.8124   13.2921  -10.3769 C   0  0  2  0  0  0  0  0  0  0  0  0
    8.8684   13.3868  -11.4718 O   0  0  0  0  0  0  0  0  0  0  0  0
    7.3938   15.6898  -10.9407 C   0  0  2  0  0  0  0  0  0  0  0  0
    7.6845   15.3613  -12.3684 N   0  0  0  0  0  0  0  0  0  0  0  0
   15.7296    8.8428  -10.9696 C   0  0  1  0  0  0  0  0  0  0  0  0
   15.9398    7.4297  -10.9586 O   0  0  0  0  0  0  0  0  0  0  0  0
   13.3820   10.9734   -7.5454 C   0  0  2  0  0  0  0  0  0  0  0  0
   14.6039   11.6408   -7.0206 N   0  0  0  0  0  0  0  0  0  0  0  0
    9.9949   14.5644   -9.5479 C   0  0  2  0  0  0  0  0  0  0  0  0
    9.8569   15.7667  -10.3701 O   0  0  0  0  0  0  0  0  0  0  0  0
    6.0716   16.5857  -10.8140 C   0  0  1  0  0  0  0  0  0  0  0  0
    5.6190   16.5592   -9.4416 O   0  0  0  0  0  0  0  0  0  0  0  0
   16.5163    9.5215  -12.1139 C   0  0  2  0  0  0  0  0  0  0  0  0
   17.8892    9.2263  -12.0021 O   0  0  0  0  0  0  0  0  0  0  0  0
   13.0679   11.5090   -8.9981 C   0  0  2  0  0  0  0  0  0  0  0  0
   11.4000   14.4704   -8.9296 C   0  0  2  0  0  0  0  0  0  0  0  0
   12.1301   13.7277   -9.9033 O   0  0  0  0  0  0  0  0  0  0  0  0
    6.3022   18.1034  -11.2731 C   0  0  2  0  0  0  0  0  0  0  0  0
    6.4992   18.1009  -12.6864 O   0  0  0  0  0  0  0  0  0  0  0  0
   16.2761   11.0669  -12.0520 C   0  0  2  0  0  0  0  0  0  0  0  0
   14.8445   11.3469  -12.1604 O   0  0  0  0  0  0  0  0  0  0  0  0
   11.7997   10.8739   -9.6093 C   0  0  2  0  0  0  0  0  0  0  0  0
   11.5628   11.6057  -10.8433 O   0  0  0  0  0  0  0  0  0  0  0  0
   11.4597   13.7762   -7.5336 C   0  0  0  0  0  0  0  0  0  0  0  0
   10.9442   14.6627   -6.5450 O   0  0  0  0  0  0  0  0  0  0  0  0
    7.5587   18.7185  -10.5485 C   0  0  1  0  0  0  0  0  0  0  0  0
    8.6934   17.8396  -10.8803 O   0  0  0  0  0  0  0  0  0  0  0  0
   17.0065   11.8131  -13.1445 C   0  0  0  0  0  0  0  0  0  0  0  0
   16.4757   11.4733  -14.4023 O   0  0  0  0  0  0  0  0  0  0  0  0
   10.5730   11.0334   -8.6167 C   0  0  1  0  0  0  0  0  0  0  0  0
    9.4400   10.3154   -9.1131 O   0  0  0  0  0  0  0  0  0  0  0  0
    7.8817   20.2167  -10.9723 C   0  0  0  0  0  0  0  0  0  0  0  0
    8.4936   20.3855  -12.3190 N   0  0  0  0  0  0  0  0  0  0  0  0
  1  2  1  1  0  0  0
  1  7  1  0  0  0  0
  1 30  1  0  0  0  0
  3  4  1  1  0  0  0
  3  9  1  0  0  0  0
  3 39  1  0  0  0  0
  5 10  1  0  0  0  0
  5 26  1  0  0  0  0
  5 32  1  1  0  0  0
  6 12  1  0  0  0  0
  6 36  1  0  0  0  0
  6 19  1  6  0  0  0
  7  8  1  1  0  0  0
  7 14  1  0  0  0  0
  9 16  1  0  0  0  0
 10 11  1  6  0  0  0
 10 18  1  0  0  0  0
 12 13  1  6  0  0  0
 12 20  1  0  0  0  0
 14 15  1  6  0  0  0
 14 22  1  0  0  0  0
 16 17  1  1  0  0  0
 16 24  1  0  0  0  0
 18 19  1  6  0  0  0
 18 25  1  0  0  0  0
 20 21  1  1  0  0  0
 20 27  1  0  0  0  0
 22 23  1  1  0  0  0
 22 29  1  0  0  0  0
 24  2  1  6  0  0  0
 24 31  1  0  0  0  0
 25 26  1  0  0  0  0
 25 33  1  1  0  0  0
 27 28  1  6  0  0  0
 27 35  1  0  0  0  0
 29 30  1  0  0  0  0
 29 37  1  6  0  0  0
 31 32  1  6  0  0  0
 31 39  1  0  0  0  0
 33 34  1  0  0  0  0
 35 36  1  0  0  0  0
 35 41  1  6  0  0  0
 37 38  1  0  0  0  0
 39 40  1  6  0  0  0
 41 42  1  0  0  0  0
M  END
>  <CHROM.1>
-101.85834845,-76.24315699,-70.36505887,101.29310036,136.03628197,-74.47832671
66.28072980,-62.61203688,-74.53922362,11.45011934,13.13050468,-10.25930891
-0.47768401,0.63545463,-0.85050582

>  <Name>
2o3w_lig

>  <RI>
0

>  <Rbt.Current_Directory>
/home/itssahil/PROJECTS/Mol_Feturizer/New_Systems/rnas/2o3w

>  <Rbt.Executable>
rbdock ($Id: //depot/dev/client3/rdock/2013.1/src/exe/rbdock.cxx#4 $)

>  <Rbt.Library>
libRbt.so (2013.1, Build901 2013/11/27)

>  <Rbt.Parameter_File>
/export/apps/rDock/src/rDock_2013.1_src/data/scripts/dock_solv.prm

>  <Rbt.Receptor>
prm/blind_docking_100.prm

>  <SCORE>
20.6045

>  <SCORE.INTER>
-3.59063

>  <SCORE.INTER.CONST>
1

>  <SCORE.INTER.POLAR>
0

>  <SCORE.INTER.ROT>
9

>  <SCORE.INTER.SOLV>
25.7956

>  <SCORE.INTER.VDW>
-20.5923

>  <SCORE.INTER.norm>
-0.0854912

>  <SCORE.INTRA>
7.37297

>  <SCORE.INTRA.DIHEDRAL>
-7.15488

>  <SCORE.INTRA.DIHEDRAL.0>
27.8999

>  <SCORE.INTRA.POLAR>
0

>  <SCORE.INTRA.POLAR.0>
0

>  <SCORE.INTRA.REPUL>
0

>  <SCORE.INTRA.REPUL.0>
0

>  <SCORE.INTRA.SOLV>
2.75902

>  <SCORE.INTRA.SOLV.lig_0>
-104.479

>  <SCORE.INTRA.VDW>
9.5709

>  <SCORE.INTRA.VDW.0>
-6.17816

>  <SCORE.INTRA.norm>
0.175547

>  <SCORE.RESTR>
16.8222

>  <SCORE.RESTR.CAVITY>
16.8222

>  <SCORE.RESTR.norm>
0.400528

>  <SCORE.SYSTEM>
0

>  <SCORE.SYSTEM.CONST>
0

>  <SCORE.SYSTEM.DIHEDRAL>
0

>  <SCORE.SYSTEM.SOLV>
0

>  <SCORE.SYSTEM.norm>
0

>  <SCORE.heavy>
42

>  <SCORE.norm>
0.490584

>  <RMSD>
17.980

$$$$
2o3w_lig
 OpenBabel11021811463D
libRbt.so/2013.1/901 2013/11/27
 42 45  0  0  0  0  0  0  0  0999 V2000
   12.3383   13.1523   -7.5682 C   0  0  2  0  0  0  0  0  0  0  0  0
   13.1811   12.6921   -8.6384 O   0  0  0  0  0  0  0  0  0  0  0  0
   12.8914   10.6137  -12.4321 C   0  0  2  0  0  0  0  0  0  0  0  0
   12.3573    9.9549  -13.6614 N   0  0  0  0  0  0  0  0  0  0  0  0
   10.8711   14.3166  -11.3911 C   0  0  1  0  0  0  0  0  0  0  0  0
    7.0896   16.4204  -11.4900 C   0  0  1  0  0  0  0  0  0  0  0  0
   13.2782   13.5896   -6.4048 C   0  0  2  0  0  0  0  0  0  0  0  0
   14.3510   14.4930   -6.8559 N   0  0  0  0  0  0  0  0  0  0  0  0
   12.4662    9.8261  -11.1279 C   0  0  0  0  0  0  0  0  0  0  0  0
   10.2388   15.6395  -10.8611 C   0  0  2  0  0  0  0  0  0  0  0  0
    9.4665   15.4781   -9.6459 O   0  0  0  0  0  0  0  0  0  0  0  0
    7.3637   17.9613  -11.6288 C   0  0  2  0  0  0  0  0  0  0  0  0
    8.7057   18.3162  -11.0776 N   0  0  0  0  0  0  0  0  0  0  0  0
   13.9635   12.3900   -5.7249 C   0  0  1  0  0  0  0  0  0  0  0  0
   14.7826   12.8335   -4.6416 O   0  0  0  0  0  0  0  0  0  0  0  0
   13.0760   10.5541   -9.8706 C   0  0  2  0  0  0  0  0  0  0  0  0
   12.7072    9.8302   -8.6242 N   0  0  0  0  0  0  0  0  0  0  0  0
    9.4533   16.1057  -12.0879 C   0  0  2  0  0  0  0  0  0  0  0  0
    8.0876   15.5807  -12.0838 O   0  0  0  0  0  0  0  0  0  0  0  0
    6.2019   18.7742  -10.8830 C   0  0  1  0  0  0  0  0  0  0  0  0
    4.9960   18.6992  -11.6762 O   0  0  0  0  0  0  0  0  0  0  0  0
   12.8901   11.3860   -5.2466 C   0  0  2  0  0  0  0  0  0  0  0  0
   13.5006   10.2895   -4.6067 O   0  0  0  0  0  0  0  0  0  0  0  0
   12.5639   12.0463   -9.7883 C   0  0  2  0  0  0  0  0  0  0  0  0
   10.2394   15.6042  -13.3110 C   0  0  2  0  0  0  0  0  0  0  0  0
   10.8435   14.4041  -12.8343 O   0  0  0  0  0  0  0  0  0  0  0  0
    5.9075   18.2250   -9.4068 C   0  0  2  0  0  0  0  0  0  0  0  0
    7.0352   18.5477   -8.5941 O   0  0  0  0  0  0  0  0  0  0  0  0
   12.0509   10.9101   -6.4790 C   0  0  2  0  0  0  0  0  0  0  0  0
   11.4357   12.0660   -7.1311 O   0  0  0  0  0  0  0  0  0  0  0  0
   12.8949   12.8639  -11.0560 C   0  0  2  0  0  0  0  0  0  0  0  0
   12.1998   14.1298  -10.8865 O   0  0  0  0  0  0  0  0  0  0  0  0
   11.3142   16.5960  -13.8545 C   0  0  0  0  0  0  0  0  0  0  0  0
   10.6946   17.8431  -14.1542 O   0  0  0  0  0  0  0  0  0  0  0  0
    5.6793   16.6663   -9.4289 C   0  0  1  0  0  0  0  0  0  0  0  0
    6.8931   16.0836  -10.0269 O   0  0  0  0  0  0  0  0  0  0  0  0
   10.9683    9.9261   -6.1003 C   0  0  0  0  0  0  0  0  0  0  0  0
   10.3724    9.3918   -7.2573 O   0  0  0  0  0  0  0  0  0  0  0  0
   12.3756   12.1062  -12.3491 C   0  0  1  0  0  0  0  0  0  0  0  0
   12.8139   12.7859  -13.5287 O   0  0  0  0  0  0  0  0  0  0  0  0
    5.4129   16.0304   -7.9960 C   0  0  0  0  0  0  0  0  0  0  0  0
    4.1240   16.4097   -7.3546 N   0  0  0  0  0  0  0  0  0  0  0  0
  1  2  1  6  0  0  0
  1  7  1  0  0  0  0
  1 30  1  0  0  0  0
  3  4  1  6  0  0  0
  3  9  1  0  0  0  0
  3 39  1  0  0  0  0
  5 10  1  0  0  0  0
  5 26  1  0  0  0  0
  5 32  1  1  0  0  0
  6 12  1  0  0  0  0
  6 36  1  0  0  0  0
  6 19  1  1  0  0  0
  7  8  1  6  0  0  0
  7 14  1  0  0  0  0
  9 16  1  0  0  0  0
 10 11  1  1  0  0  0
 10 18  1  0  0  0  0
 12 13  1  1  0  0  0
 12 20  1  0  0  0  0
 14 15  1  1  0  0  0
 14 22  1  0  0  0  0
 16 17  1  1  0  0  0
 16 24  1  0  0  0  0
 18 19  1  1  0  0  0
 18 25  1  0  0  0  0
 20 21  1  6  0  0  0
 20 27  1  0  0  0  0
 22 23  1  6  0  0  0
 22 29  1  0  0  0  0
 24  2  1  1  0  0  0
 24 31  1  0  0  0  0
 25 26  1  0  0  0  0
 25 33  1  1  0  0  0
 27 28  1  1  0  0  0
 27 35  1  0  0  0  0
 29 30  1  0  0  0  0
 29 37  1  1  0  0  0
 31 32  1  1  0  0  0
 31 39  1  0  0  0  0
 33 34  1  0  0  0  0
 35 36  1  0  0  0  0
 35 41  1  1  0  0  0
 37 38  1  0  0  0  0
 39 40  1  6  0  0  0
 41 42  1  0  0  0  0
M  END
>  <CHROM.1>
171.52271950,169.22163200,31.10143272,92.86816669,-116.93304602,-55.89649010
-171.78290090,-91.65711904,68.01956832,10.47288011,14.09329979,-9.75002427
0.52761418,-0.72536595,1.80594493

>  <Name>
2o3w_lig

>  <RI>
0

>  <Rbt.Current_Directory>
/home/itssahil/PROJECTS/Mol_Feturizer/New_Systems/rnas/2o3w

>  <Rbt.Executable>
rbdock ($Id: //depot/dev/client3/rdock/2013.1/src/exe/rbdock.cxx#4 $)

>  <Rbt.Library>
libRbt.so (2013.1, Build901 2013/11/27)

>  <Rbt.Parameter_File>
/export/apps/rDock/src/rDock_2013.1_src/data/scripts/dock_solv.prm

>  <Rbt.Receptor>
prm/blind_docking_100.prm

>  <SCORE>
-0.923815

>  <SCORE.INTER>
-10.8125

>  <SCORE.INTER.CONST>
1

>  <SCORE.INTER.POLAR>
-0.862539

>  <SCORE.INTER.ROT>
9

>  <SCORE.INTER.SOLV>
22.6107

>  <SCORE.INTER.VDW>
-21.4701

>  <SCORE.INTER.norm>
-0.25744

>  <SCORE.INTRA>
4.27995

>  <SCORE.INTRA.DIHEDRAL>
-7.85456

>  <SCORE.INTRA.DIHEDRAL.0>
27.8999

>  <SCORE.INTRA.POLAR>
0

>  <SCORE.INTRA.POLAR.0>
0

>  <SCORE.INTRA.REPUL>
0

>  <SCORE.INTRA.REPUL.0>
0

>  <SCORE.INTRA.SOLV>
3.27271

>  <SCORE.INTRA.SOLV.lig_0>
-104.479

>  <SCORE.INTRA.VDW>
6.57087

>  <SCORE.INTRA.VDW.0>
-6.17816

>  <SCORE.INTRA.norm>
0.101903

>  <SCORE.RESTR>
5.60873

>  <SCORE.RESTR.CAVITY>
5.60873

>  <SCORE.RESTR.norm>
0.133541

>  <SCORE.SYSTEM>
0

>  <SCORE.SYSTEM.CONST>
0

>  <SCORE.SYSTEM.DIHEDRAL>
0

>  <SCORE.SYSTEM.SOLV>
0

>  <SCORE.SYSTEM.norm>
0

>  <SCORE.heavy>
42

>  <SCORE.norm>
-0.0219956

>  <RMSD>
17.982

$$$$
2o3w_lig
 OpenBabel11021811463D
libRbt.so/2013.1/901 2013/11/27
 42 45  0  0  0  0  0  0  0  0999 V2000
   12.6249   13.6383  -10.4203 C   0  0  2  0  0  0  0  0  0  0  0  0
   11.8802   12.4278  -10.6379 O   0  0  0  0  0  0  0  0  0  0  0  0
   13.4267    8.9225  -12.6670 C   0  0  2  0  0  0  0  0  0  0  0  0
   14.1194    7.6321  -12.9593 N   0  0  0  0  0  0  0  0  0  0  0  0
   11.4759    9.6647   -8.6616 C   0  0  1  0  0  0  0  0  0  0  0  0
   14.0416   10.8475   -5.2332 C   0  0  1  0  0  0  0  0  0  0  0  0
   11.7863   14.5197   -9.4467 C   0  0  2  0  0  0  0  0  0  0  0  0
   11.3417   13.7767   -8.2547 N   0  0  0  0  0  0  0  0  0  0  0  0
   14.4588   10.0468  -12.2518 C   0  0  0  0  0  0  0  0  0  0  0  0
   12.3149   10.9042   -8.2250 C   0  0  2  0  0  0  0  0  0  0  0  0
   13.7009   10.8549   -8.6442 O   0  0  0  0  0  0  0  0  0  0  0  0
   14.1485   12.3717   -5.5994 C   0  0  2  0  0  0  0  0  0  0  0  0
   14.4471   12.5518   -7.0517 N   0  0  0  0  0  0  0  0  0  0  0  0
   10.5203   15.0866  -10.1152 C   0  0  1  0  0  0  0  0  0  0  0  0
    9.8047   15.9184   -9.2003 O   0  0  0  0  0  0  0  0  0  0  0  0
   13.6733   11.3851  -11.9790 C   0  0  2  0  0  0  0  0  0  0  0  0
   14.6170   12.4708  -11.5991 N   0  0  0  0  0  0  0  0  0  0  0  0
   12.0798   10.9046   -6.7137 C   0  0  2  0  0  0  0  0  0  0  0  0
   13.0897   10.1118   -6.0119 O   0  0  0  0  0  0  0  0  0  0  0  0
   15.2768   13.0559   -4.6907 C   0  0  1  0  0  0  0  0  0  0  0  0
   14.7714   13.1944   -3.3437 O   0  0  0  0  0  0  0  0  0  0  0  0
   10.9150   15.8620  -11.3928 C   0  0  2  0  0  0  0  0  0  0  0  0
    9.7683   16.4017  -12.0077 O   0  0  0  0  0  0  0  0  0  0  0  0
   12.6088   11.1817  -10.8295 C   0  0  2  0  0  0  0  0  0  0  0  0
   10.6710   10.3247   -6.5032 C   0  0  2  0  0  0  0  0  0  0  0  0
   10.5294    9.4203   -7.5961 O   0  0  0  0  0  0  0  0  0  0  0  0
   16.6455   12.2231   -4.6666 C   0  0  2  0  0  0  0  0  0  0  0  0
   17.2352   12.3256   -5.9620 O   0  0  0  0  0  0  0  0  0  0  0  0
   11.6612   14.8921  -12.3685 C   0  0  2  0  0  0  0  0  0  0  0  0
   12.8410   14.3381  -11.7046 O   0  0  0  0  0  0  0  0  0  0  0  0
   11.5980   10.0565  -11.1416 C   0  0  2  0  0  0  0  0  0  0  0  0
   10.8269    9.8862   -9.9205 O   0  0  0  0  0  0  0  0  0  0  0  0
    9.5203   11.3783   -6.4939 C   0  0  0  0  0  0  0  0  0  0  0  0
   10.0603   12.6621   -6.1956 O   0  0  0  0  0  0  0  0  0  0  0  0
   16.3713   10.7132   -4.3101 C   0  0  1  0  0  0  0  0  0  0  0  0
   15.4176   10.2212   -5.3194 O   0  0  0  0  0  0  0  0  0  0  0  0
   12.0913   15.5718  -13.6479 C   0  0  0  0  0  0  0  0  0  0  0  0
   12.9139   16.6756  -13.3576 O   0  0  0  0  0  0  0  0  0  0  0  0
   12.3638    8.7184  -11.5142 C   0  0  1  0  0  0  0  0  0  0  0  0
   11.4339    7.7224  -11.9489 O   0  0  0  0  0  0  0  0  0  0  0  0
   17.6756    9.8037   -4.2970 C   0  0  0  0  0  0  0  0  0  0  0  0
   17.6089    8.5977   -3.4265 N   0  0  0  0  0  0  0  0  0  0  0  0
  1  2  1  6  0  0  0
  1  7  1  0  0  0  0
  1 30  1  0  0  0  0
  3  4  1  1  0  0  0
  3  9  1  0  0  0  0
  3 39  1  0  0  0  0
  5 10  1  0  0  0  0
  5 26  1  0  0  0  0
  5 32  1  6  0  0  0
  6 12  1  0  0  0  0
  6 36  1  0  0  0  0
  6 19  1  6  0  0  0
  7  8  1  1  0  0  0
  7 14  1  0  0  0  0
  9 16  1  0  0  0  0
 10 11  1  1  0  0  0
 10 18  1  0  0  0  0
 12 13  1  6  0  0  0
 12 20  1  0  0  0  0
 14 15  1  1  0  0  0
 14 22  1  0  0  0  0
 16 17  1  1  0  0  0
 16 24  1  0  0  0  0
 18 19  1  1  0  0  0
 18 25  1  0  0  0  0
 20 21  1  1  0  0  0
 20 27  1  0  0  0  0
 22 23  1  6  0  0  0
 22 29  1  0  0  0  0
 24  2  1  6  0  0  0
 24 31  1  0  0  0  0
 25 26  1  0  0  0  0
 25 33  1  6  0  0  0
 27 28  1  6  0  0  0
 27 35  1  0  0  0  0
 29 30  1  0  0  0  0
 29 37  1  6  0  0  0
 31 32  1  1  0  0  0
 31 39  1  0  0  0  0
 33 34  1  0  0  0  0
 35 36  1  0  0  0  0
 35 41  1  6  0  0  0
 37 38  1  0  0  0  0
 39 40  1  6  0  0  0
 41 42  1  0  0  0  0
M  END
>  <CHROM.1>
-145.99651734,65.36360483,-18.42768955,109.07462545,-52.71693846,-21.21913906
57.25115822,-53.08413732,154.02183899,12.94039322,11.90728051,-8.76652533
2.91670524,1.10217908,-2.49373321

>  <Name>
2o3w_lig

>  <RI>
0

>  <Rbt.Current_Directory>
/home/itssahil/PROJECTS/Mol_Feturizer/New_Systems/rnas/2o3w

>  <Rbt.Executable>
rbdock ($Id: //depot/dev/client3/rdock/2013.1/src/exe/rbdock.cxx#4 $)

>  <Rbt.Library>
libRbt.so (2013.1, Build901 2013/11/27)

>  <Rbt.Parameter_File>
/export/apps/rDock/src/rDock_2013.1_src/data/scripts/dock_solv.prm

>  <Rbt.Receptor>
prm/blind_docking_40.prm

>  <SCORE>
15.361

>  <SCORE.INTER>
-10.5253

>  <SCORE.INTER.CONST>
1

>  <SCORE.INTER.POLAR>
-3.06669

>  <SCORE.INTER.ROT>
9

>  <SCORE.INTER.SOLV>
35.9763

>  <SCORE.INTER.VDW>
-18.3867

>  <SCORE.INTER.norm>
-0.250604

>  <SCORE.INTRA>
12.0397

>  <SCORE.INTRA.DIHEDRAL>
-4.7478

>  <SCORE.INTRA.DIHEDRAL.0>
27.8999

>  <SCORE.INTRA.POLAR>
0

>  <SCORE.INTRA.POLAR.0>
0

>  <SCORE.INTRA.REPUL>
0

>  <SCORE.INTRA.REPUL.0>
0

>  <SCORE.INTRA.SOLV>
6.85745

>  <SCORE.INTRA.SOLV.lig_0>
-104.479

>  <SCORE.INTRA.VDW>
10.9849

>  <SCORE.INTRA.VDW.0>
-6.17816

>  <SCORE.INTRA.norm>
0.286659

>  <SCORE.RESTR>
13.8467

>  <SCORE.RESTR.CAVITY>
13.8467

>  <SCORE.RESTR.norm>
0.329683

>  <SCORE.SYSTEM>
0

>  <SCORE.SYSTEM.CONST>
0

>  <SCORE.SYSTEM.DIHEDRAL>
0

>  <SCORE.SYSTEM.SOLV>
0

>  <SCORE.SYSTEM.norm>
0

>  <SCORE.heavy>
42

>  <SCORE.norm>
0.365739

>  <RMSD>
17.990

$$$$
2o3w_lig
 OpenBabel11021811463D
libRbt.so/2013.1/901 2013/11/27
 42 45  0  0  0  0  0  0  0  0999 V2000
   11.6245    9.7529   -8.2198 C   0  0  2  0  0  0  0  0  0  0  0  0
   11.3154   10.3940   -9.4691 O   0  0  0  0  0  0  0  0  0  0  0  0
   13.7803    8.0273  -12.1372 C   0  0  2  0  0  0  0  0  0  0  0  0
   14.6275    7.5921  -13.2875 N   0  0  0  0  0  0  0  0  0  0  0  0
   13.8231   12.2938  -10.5342 C   0  0  1  0  0  0  0  0  0  0  0  0
   12.1683   15.2985  -13.1979 C   0  0  1  0  0  0  0  0  0  0  0  0
   10.4484   10.0631   -7.2459 C   0  0  2  0  0  0  0  0  0  0  0  0
    9.1319    9.7791   -7.8432 N   0  0  0  0  0  0  0  0  0  0  0  0
   12.3085    8.3690  -12.6053 C   0  0  0  0  0  0  0  0  0  0  0  0
   13.5168   11.9517  -12.0241 C   0  0  2  0  0  0  0  0  0  0  0  0
   14.6865   11.9412  -12.8789 O   0  0  0  0  0  0  0  0  0  0  0  0
   12.7079   16.3138  -14.2687 C   0  0  2  0  0  0  0  0  0  0  0  0
   14.0251   16.8804  -13.8505 N   0  0  0  0  0  0  0  0  0  0  0  0
   10.4280   11.5384   -6.8055 C   0  0  1  0  0  0  0  0  0  0  0  0
    9.3601   11.7679   -5.8847 O   0  0  0  0  0  0  0  0  0  0  0  0
   11.4602    8.7983  -11.3489 C   0  0  2  0  0  0  0  0  0  0  0  0
   10.0630    9.1138  -11.7512 N   0  0  0  0  0  0  0  0  0  0  0  0
   12.4607   13.0059  -12.3598 C   0  0  2  0  0  0  0  0  0  0  0  0
   13.0693   14.2302  -12.8810 O   0  0  0  0  0  0  0  0  0  0  0  0
   11.6259   17.4748  -14.4889 C   0  0  1  0  0  0  0  0  0  0  0  0
   10.5141   16.9404  -15.2421 O   0  0  0  0  0  0  0  0  0  0  0  0
   11.7952   11.9113   -6.1884 C   0  0  2  0  0  0  0  0  0  0  0  0
   11.7873   13.2548   -5.7647 O   0  0  0  0  0  0  0  0  0  0  0  0
   12.1059   10.0564  -10.6445 C   0  0  2  0  0  0  0  0  0  0  0  0
   11.6991   13.2756  -11.0511 C   0  0  2  0  0  0  0  0  0  0  0  0
   12.6900   13.0512  -10.0510 O   0  0  0  0  0  0  0  0  0  0  0  0
   11.0914   18.0962  -13.1121 C   0  0  2  0  0  0  0  0  0  0  0  0
   12.1657   18.8284  -12.5240 O   0  0  0  0  0  0  0  0  0  0  0  0
   12.9176   11.6738   -7.2530 C   0  0  2  0  0  0  0  0  0  0  0  0
   12.8992   10.2759   -7.6837 O   0  0  0  0  0  0  0  0  0  0  0  0
   13.5677    9.8144  -10.2090 C   0  0  2  0  0  0  0  0  0  0  0  0
   14.0517   11.1097   -9.7591 O   0  0  0  0  0  0  0  0  0  0  0  0
   10.4506   12.3697  -10.8176 C   0  0  0  0  0  0  0  0  0  0  0  0
    9.8478   12.7112   -9.5730 O   0  0  0  0  0  0  0  0  0  0  0  0
   10.6107   16.9557  -12.1371 C   0  0  1  0  0  0  0  0  0  0  0  0
   11.7664   16.0609  -11.9528 O   0  0  0  0  0  0  0  0  0  0  0  0
   14.2954   12.0084   -6.7300 C   0  0  0  0  0  0  0  0  0  0  0  0
   14.3512   13.3590   -6.3403 O   0  0  0  0  0  0  0  0  0  0  0  0
   14.4258    9.2885  -11.4349 C   0  0  1  0  0  0  0  0  0  0  0  0
   15.7372    8.9213  -10.9979 O   0  0  0  0  0  0  0  0  0  0  0  0
   10.0937   17.4829  -10.7288 C   0  0  0  0  0  0  0  0  0  0  0  0
    9.5917   16.4366   -9.7962 N   0  0  0  0  0  0  0  0  0  0  0  0
  1  2  1  6  0  0  0
  1  7  1  0  0  0  0
  1 30  1  0  0  0  0
  3  4  1  6  0  0  0
  3  9  1  0  0  0  0
  3 39  1  0  0  0  0
  5 10  1  0  0  0  0
  5 26  1  0  0  0  0
  5 32  1  1  0  0  0
  6 12  1  0  0  0  0
  6 36  1  0  0  0  0
  6 19  1  1  0  0  0
  7  8  1  6  0  0  0
  7 14  1  0  0  0  0
  9 16  1  0  0  0  0
 10 11  1  6  0  0  0
 10 18  1  0  0  0  0
 12 13  1  1  0  0  0
 12 20  1  0  0  0  0
 14 15  1  1  0  0  0
 14 22  1  0  0  0  0
 16 17  1  6  0  0  0
 16 24  1  0  0  0  0
 18 19  1  1  0  0  0
 18 25  1  0  0  0  0
 20 21  1  1  0  0  0
 20 27  1  0  0  0  0
 22 23  1  6  0  0  0
 22 29  1  0  0  0  0
 24  2  1  1  0  0  0
 24 31  1  0  0  0  0
 25 26  1  0  0  0  0
 25 33  1  1  0  0  0
 27 28  1  1  0  0  0
 27 35  1  0  0  0  0
 29 30  1  0  0  0  0
 29 37  1  1  0  0  0
 31 32  1  6  0  0  0
 31 39  1  0  0  0  0
 33 34  1  0  0  0  0
 35 36  1  0  0  0  0
 35 41  1  1  0  0  0
 37 38  1  0  0  0  0
 39 40  1  1  0  0  0
 41 42  1  0  0  0  0
M  END
>  <CHROM.1>
-167.94260327,-20.73389250,-155.52251746,-178.53504805,87.57995965,179.45406417
-59.61154506,-46.59219118,178.18943276,12.17988346,12.61064582,-10.52003887
1.35947570,-1.12955623,2.41115427

>  <Name>
2o3w_lig

>  <RI>
0

>  <Rbt.Current_Directory>
/home/itssahil/PROJECTS/Mol_Feturizer/New_Systems/rnas/2o3w

>  <Rbt.Executable>
rbdock ($Id: //depot/dev/client3/rdock/2013.1/src/exe/rbdock.cxx#4 $)

>  <Rbt.Library>
libRbt.so (2013.1, Build901 2013/11/27)

>  <Rbt.Parameter_File>
/export/apps/rDock/src/rDock_2013.1_src/data/scripts/dock_solv.prm

>  <Rbt.Receptor>
prm/blind_docking_40.prm

>  <SCORE>
20.3375

>  <SCORE.INTER>
7.18855

>  <SCORE.INTER.CONST>
1

>  <SCORE.INTER.POLAR>
-0.229448

>  <SCORE.INTER.ROT>
9

>  <SCORE.INTER.SOLV>
31.4314

>  <SCORE.INTER.VDW>
-14.5199

>  <SCORE.INTER.norm>
0.171156

>  <SCORE.INTRA>
1.71745

>  <SCORE.INTRA.DIHEDRAL>
-15.2591

>  <SCORE.INTRA.DIHEDRAL.0>
27.8999

>  <SCORE.INTRA.POLAR>
0

>  <SCORE.INTRA.POLAR.0>
0

>  <SCORE.INTRA.REPUL>
0

>  <SCORE.INTRA.REPUL.0>
0

>  <SCORE.INTRA.SOLV>
0.620924

>  <SCORE.INTRA.SOLV.lig_0>
-104.479

>  <SCORE.INTRA.VDW>
9.03652

>  <SCORE.INTRA.VDW.0>
-6.17816

>  <SCORE.INTRA.norm>
0.0408917

>  <SCORE.RESTR>
11.4315

>  <SCORE.RESTR.CAVITY>
11.4315

>  <SCORE.RESTR.norm>
0.272178

>  <SCORE.SYSTEM>
0

>  <SCORE.SYSTEM.CONST>
0

>  <SCORE.SYSTEM.DIHEDRAL>
0

>  <SCORE.SYSTEM.SOLV>
0

>  <SCORE.SYSTEM.norm>
0

>  <SCORE.heavy>
42

>  <SCORE.norm>
0.484225

>  <RMSD>
17.999

$$$$
2o3w_lig
 OpenBabel11021811463D
libRbt.so/2013.1/901 2013/11/27
 42 45  0  0  0  0  0  0  0  0999 V2000
   11.2997   12.1616  -11.6596 C   0  0  2  0  0  0  0  0  0  0  0  0
   10.9804   12.5189  -10.3040 O   0  0  0  0  0  0  0  0  0  0  0  0
   12.2452   10.7769   -6.5408 C   0  0  2  0  0  0  0  0  0  0  0  0
   13.0757   10.3268   -5.3841 N   0  0  0  0  0  0  0  0  0  0  0  0
   10.8966   15.3013   -8.2377 C   0  0  1  0  0  0  0  0  0  0  0  0
    7.0035   17.3595   -9.2593 C   0  0  1  0  0  0  0  0  0  0  0  0
   12.4962   13.0589  -12.0970 C   0  0  2  0  0  0  0  0  0  0  0  0
   13.5971   13.0470  -11.1181 N   0  0  0  0  0  0  0  0  0  0  0  0
   12.6660   10.0348   -7.8728 C   0  0  0  0  0  0  0  0  0  0  0  0
    9.8416   15.0991   -9.3677 C   0  0  2  0  0  0  0  0  0  0  0  0
   10.1589   15.7902  -10.6008 O   0  0  0  0  0  0  0  0  0  0  0  0
    6.8660   18.8460   -9.7495 C   0  0  2  0  0  0  0  0  0  0  0  0
    7.3537   19.7986   -8.7075 N   0  0  0  0  0  0  0  0  0  0  0  0
   12.0845   14.5306  -12.2855 C   0  0  1  0  0  0  0  0  0  0  0  0
   13.2006   15.3071  -12.7238 O   0  0  0  0  0  0  0  0  0  0  0  0
   11.7427   10.5333   -9.0482 C   0  0  2  0  0  0  0  0  0  0  0  0
   12.1020    9.8436  -10.3165 N   0  0  0  0  0  0  0  0  0  0  0  0
    8.5620   15.5538   -8.6640 C   0  0  2  0  0  0  0  0  0  0  0  0
    8.3251   16.9856   -8.8506 O   0  0  0  0  0  0  0  0  0  0  0  0
    5.3367   19.1391  -10.1267 C   0  0  1  0  0  0  0  0  0  0  0  0
    5.0268   18.4738  -11.3717 O   0  0  0  0  0  0  0  0  0  0  0  0
   10.9108   14.6134  -13.2879 C   0  0  2  0  0  0  0  0  0  0  0  0
   10.5329   15.9562  -13.4842 O   0  0  0  0  0  0  0  0  0  0  0  0
   11.8775   12.0959   -9.2379 C   0  0  2  0  0  0  0  0  0  0  0  0
    8.7498   15.2093   -7.1770 C   0  0  2  0  0  0  0  0  0  0  0  0
   10.1585   15.3312   -6.9946 O   0  0  0  0  0  0  0  0  0  0  0  0
    4.3129   18.6571   -8.9921 C   0  0  2  0  0  0  0  0  0  0  0  0
    4.4873   19.5121   -7.8630 O   0  0  0  0  0  0  0  0  0  0  0  0
    9.7090   13.7755  -12.7373 C   0  0  2  0  0  0  0  0  0  0  0  0
   10.1286   12.3892  -12.5329 O   0  0  0  0  0  0  0  0  0  0  0  0
   11.5356   12.8866   -7.9561 C   0  0  2  0  0  0  0  0  0  0  0  0
   11.8880   14.2659   -8.2526 O   0  0  0  0  0  0  0  0  0  0  0  0
    8.2509   13.7904   -6.7621 C   0  0  0  0  0  0  0  0  0  0  0  0
    9.3666   12.9941   -6.3746 O   0  0  0  0  0  0  0  0  0  0  0  0
    4.5930   17.1596   -8.5906 C   0  0  1  0  0  0  0  0  0  0  0  0
    5.9991   17.1091   -8.1541 O   0  0  0  0  0  0  0  0  0  0  0  0
    8.5140   13.7957  -13.6620 C   0  0  0  0  0  0  0  0  0  0  0  0
    8.9189   13.5327  -14.9834 O   0  0  0  0  0  0  0  0  0  0  0  0
   12.3834   12.3405   -6.7318 C   0  0  1  0  0  0  0  0  0  0  0  0
   11.9586   12.9678   -5.5186 O   0  0  0  0  0  0  0  0  0  0  0  0
    3.6410   16.6081   -7.4425 C   0  0  0  0  0  0  0  0  0  0  0  0
    3.8716   15.1929   -7.0416 N   0  0  0  0  0  0  0  0  0  0  0  0
  1  2  1  1  0  0  0
  1  7  1  0  0  0  0
  1 30  1  0  0  0  0
  3  4  1  1  0  0  0
  3  9  1  0  0  0  0
  3 39  1  0  0  0  0
  5 10  1  0  0  0  0
  5 26  1  0  0  0  0
  5 32  1  1  0  0  0
  6 12  1  0  0  0  0
  6 36  1  0  0  0  0
  6 19  1  1  0  0  0
  7  8  1  1  0  0  0
  7 14  1  0  0  0  0
  9 16  1  0  0  0  0
 10 11  1  6  0  0  0
 10 18  1  0  0  0  0
 12 13  1  1  0  0  0
 12 20  1  0  0  0  0
 14 15  1  6  0  0  0
 14 22  1  0  0  0  0
 16 17  1  6  0  0  0
 16 24  1  0  0  0  0
 18 19  1  1  0  0  0
 18 25  1  0  0  0  0
 20 21  1  6  0  0  0
 20 27  1  0  0  0  0
 22 23  1  1  0  0  0
 22 29  1  0  0  0  0
 24  2  1  6  0  0  0
 24 31  1  0  0  0  0
 25 26  1  0  0  0  0
 25 33  1  6  0  0  0
 27 28  1  1  0  0  0
 27 35  1  0  0  0  0
 29 30  1  0  0  0  0
 29 37  1  6  0  0  0
 31 32  1  6  0  0  0
 31 39  1  0  0  0  0
 33 34  1  0  0  0  0
 35 36  1  0  0  0  0
 35 41  1  1  0  0  0
 37 38  1  0  0  0  0
 39 40  1  1  0  0  0
 41 42  1  0  0  0  0
M  END
>  <CHROM.1>
-73.30655070,-65.68747700,-167.30801488,131.75521716,-71.08726461,113.74505251
47.62164426,118.62076752,179.68049973,9.43527129,14.66064625,-9.49261275
-0.10319997,0.72342769,-1.33781669

>  <Name>
2o3w_lig

>  <RI>
0

>  <Rbt.Current_Directory>
/home/itssahil/PROJECTS/Mol_Feturizer/New_Systems/rnas/2o3w

>  <Rbt.Executable>
rbdock ($Id: //depot/dev/client3/rdock/2013.1/src/exe/rbdock.cxx#4 $)

>  <Rbt.Library>
libRbt.so (2013.1, Build901 2013/11/27)

>  <Rbt.Parameter_File>
/export/apps/rDock/src/rDock_2013.1_src/data/scripts/dock_solv.prm

>  <Rbt.Receptor>
prm/blind_docking_100.prm

>  <SCORE>
6.50817

>  <SCORE.INTER>
-9.24873

>  <SCORE.INTER.CONST>
1

>  <SCORE.INTER.POLAR>
-1.90259

>  <SCORE.INTER.ROT>
9

>  <SCORE.INTER.SOLV>
24.8391

>  <SCORE.INTER.VDW>
-17.7036

>  <SCORE.INTER.norm>
-0.220208

>  <SCORE.INTRA>
-1.0491

>  <SCORE.INTRA.DIHEDRAL>
-6.10991

>  <SCORE.INTRA.DIHEDRAL.0>
27.8999

>  <SCORE.INTRA.POLAR>
0

>  <SCORE.INTRA.POLAR.0>
0

>  <SCORE.INTRA.REPUL>
0

>  <SCORE.INTRA.REPUL.0>
0

>  <SCORE.INTRA.SOLV>
1.55983

>  <SCORE.INTRA.SOLV.lig_0>
-104.479

>  <SCORE.INTRA.VDW>
1.22594

>  <SCORE.INTRA.VDW.0>
-6.17816

>  <SCORE.INTRA.norm>
-0.0249787

>  <SCORE.RESTR>
16.806

>  <SCORE.RESTR.CAVITY>
16.806

>  <SCORE.RESTR.norm>
0.400143

>  <SCORE.SYSTEM>
0

>  <SCORE.SYSTEM.CONST>
0

>  <SCORE.SYSTEM.DIHEDRAL>
0

>  <SCORE.SYSTEM.SOLV>
0

>  <SCORE.SYSTEM.norm>
0

>  <SCORE.heavy>
42

>  <SCORE.norm>
0.154956

>  <RMSD>
18.008

$$$$
2o3w_lig
 OpenBabel11021811463D
libRbt.so/2013.1/901 2013/11/27
 42 45  0  0  0  0  0  0  0  0999 V2000
   11.6952   11.0682  -10.4537 C   0  0  2  0  0  0  0  0  0  0  0  0
   11.8087   10.6973   -9.0692 O   0  0  0  0  0  0  0  0  0  0  0  0
   12.7408   13.2890   -5.7210 C   0  0  2  0  0  0  0  0  0  0  0  0
   13.4600   14.1842   -4.7661 N   0  0  0  0  0  0  0  0  0  0  0  0
   11.3171   13.8390  -10.4938 C   0  0  1  0  0  0  0  0  0  0  0  0
    8.6234   16.7807  -11.9517 C   0  0  1  0  0  0  0  0  0  0  0  0
   11.2133    9.8032  -11.2256 C   0  0  2  0  0  0  0  0  0  0  0  0
   10.0398    9.1722  -10.5970 N   0  0  0  0  0  0  0  0  0  0  0  0
   13.3568   11.8322   -5.7168 C   0  0  0  0  0  0  0  0  0  0  0  0
   11.1233   15.3860  -10.4828 C   0  0  2  0  0  0  0  0  0  0  0  0
   10.1303   15.8488   -9.5347 O   0  0  0  0  0  0  0  0  0  0  0  0
    9.1888   18.0772  -12.6360 C   0  0  2  0  0  0  0  0  0  0  0  0
   10.6199   18.2942  -12.2673 N   0  0  0  0  0  0  0  0  0  0  0  0
   12.3056    8.7216  -11.3146 C   0  0  1  0  0  0  0  0  0  0  0  0
   11.8346    7.5994  -12.0628 O   0  0  0  0  0  0  0  0  0  0  0  0
   12.5448   10.9319   -6.7231 C   0  0  2  0  0  0  0  0  0  0  0  0
   13.0893    9.5473   -6.7339 N   0  0  0  0  0  0  0  0  0  0  0  0
   10.8097   15.6564  -11.9552 C   0  0  2  0  0  0  0  0  0  0  0  0
    9.3724   15.5888  -12.2204 O   0  0  0  0  0  0  0  0  0  0  0  0
    8.2888   19.3335  -12.2133 C   0  0  1  0  0  0  0  0  0  0  0  0
    7.0246   19.2579  -12.9098 O   0  0  0  0  0  0  0  0  0  0  0  0
   13.5800    9.3265  -11.9464 C   0  0  2  0  0  0  0  0  0  0  0  0
   14.5844    8.3442  -12.0504 O   0  0  0  0  0  0  0  0  0  0  0  0
   12.6026   11.5356   -8.1819 C   0  0  2  0  0  0  0  0  0  0  0  0
   11.5748   14.5887  -12.7552 C   0  0  2  0  0  0  0  0  0  0  0  0
   11.5972   13.4753  -11.8651 O   0  0  0  0  0  0  0  0  0  0  0  0
    8.0271   19.4080  -10.6342 C   0  0  2  0  0  0  0  0  0  0  0  0
    9.2668   19.7333  -10.0068 O   0  0  0  0  0  0  0  0  0  0  0  0
   14.0673   10.5247  -11.0654 C   0  0  2  0  0  0  0  0  0  0  0  0
   13.0050   11.5253  -10.9648 O   0  0  0  0  0  0  0  0  0  0  0  0
   12.0675   12.9827   -8.2528 C   0  0  2  0  0  0  0  0  0  0  0  0
   12.3646   13.4341   -9.6027 O   0  0  0  0  0  0  0  0  0  0  0  0
   13.0194   14.9954  -13.1818 C   0  0  0  0  0  0  0  0  0  0  0  0
   13.7289   13.8354  -13.6058 O   0  0  0  0  0  0  0  0  0  0  0  0
    7.4881   18.0294  -10.0945 C   0  0  1  0  0  0  0  0  0  0  0  0
    8.4988   17.0227  -10.4621 O   0  0  0  0  0  0  0  0  0  0  0  0
   15.3114   11.1829  -11.6157 C   0  0  0  0  0  0  0  0  0  0  0  0
   15.1184   11.5333  -12.9644 O   0  0  0  0  0  0  0  0  0  0  0  0
   12.8020   13.8927   -7.1812 C   0  0  1  0  0  0  0  0  0  0  0  0
   12.2028   15.1908   -7.1425 O   0  0  0  0  0  0  0  0  0  0  0  0
    7.2322   18.0037   -8.5252 C   0  0  0  0  0  0  0  0  0  0  0  0
    8.1857   17.1797   -7.7324 N   0  0  0  0  0  0  0  0  0  0  0  0
  1  2  1  1  0  0  0
  1  7  1  0  0  0  0
  1 30  1  0  0  0  0
  3  4  1  1  0  0  0
  3  9  1  0  0  0  0
  3 39  1  0  0  0  0
  5 10  1  0  0  0  0
  5 26  1  0  0  0  0
  5 32  1  1  0  0  0
  6 12  1  0  0  0  0
  6 36  1  0  0  0  0
  6 19  1  1  0  0  0
  7  8  1  1  0  0  0
  7 14  1  0  0  0  0
  9 16  1  0  0  0  0
 10 11  1  1  0  0  0
 10 18  1  0  0  0  0
 12 13  1  1  0  0  0
 12 20  1  0  0  0  0
 14 15  1  6  0  0  0
 14 22  1  0  0  0  0
 16 17  1  6  0  0  0
 16 24  1  0  0  0  0
 18 19  1  1  0  0  0
 18 25  1  0  0  0  0
 20 21  1  6  0  0  0
 20 27  1  0  0  0  0
 22 23  1  1  0  0  0
 22 29  1  0  0  0  0
 24  2  1  6  0  0  0
 24 31  1  0  0  0  0
 25 26  1  0  0  0  0
 25 33  1  1  0  0  0
 27 28  1  1  0  0  0
 27 35  1  0  0  0  0
 29 30  1  0  0  0  0
 29 37  1  6  0  0  0
 31 32  1  6  0  0  0
 31 39  1  0  0  0  0
 33 34  1  0  0  0  0
 35 36  1  0  0  0  0
 35 41  1  1  0  0  0
 37 38  1  0  0  0  0
 39 40  1  1  0  0  0
 41 42  1  0  0  0  0
M  END
>  <CHROM.1>
161.98796188,96.26985952,52.53245562,83.91464594,178.92364763,165.54582168
52.75986463,119.80046432,-109.27081488,11.36649443,13.82273559,-10.29452031
-0.01706139,1.05964103,-1.64549299

>  <Name>
2o3w_lig

>  <RI>
0

>  <Rbt.Current_Directory>
/home/itssahil/PROJECTS/Mol_Feturizer/New_Systems/rnas/2o3w

>  <Rbt.Executable>
rbdock ($Id: //depot/dev/client3/rdock/2013.1/src/exe/rbdock.cxx#4 $)

>  <Rbt.Library>
libRbt.so (2013.1, Build901 2013/11/27)

>  <Rbt.Parameter_File>
/export/apps/rDock/src/rDock_2013.1_src/data/scripts/dock_solv.prm

>  <Rbt.Receptor>
prm/blind_docking_60.prm

>  <SCORE>
31.1393

>  <SCORE.INTER>
10.2579

>  <SCORE.INTER.CONST>
1

>  <SCORE.INTER.POLAR>
-0.324896

>  <SCORE.INTER.ROT>
9

>  <SCORE.INTER.SOLV>
37.1264

>  <SCORE.INTER.VDW>
-14.0539

>  <SCORE.INTER.norm>
0.244235

>  <SCORE.INTRA>
7.62236

>  <SCORE.INTRA.DIHEDRAL>
-5.79539

>  <SCORE.INTRA.DIHEDRAL.0>
27.8999

>  <SCORE.INTRA.POLAR>
0

>  <SCORE.INTRA.POLAR.0>
0

>  <SCORE.INTRA.REPUL>
0.276506

>  <SCORE.INTRA.REPUL.0>
0

>  <SCORE.INTRA.SOLV>
1.10852

>  <SCORE.INTRA.SOLV.lig_0>
-104.479

>  <SCORE.INTRA.VDW>
8.58327

>  <SCORE.INTRA.VDW.0>
-6.17816

>  <SCORE.INTRA.norm>
0.181485

>  <SCORE.RESTR>
13.2591

>  <SCORE.RESTR.CAVITY>
13.2591

>  <SCORE.RESTR.norm>
0.315693

>  <SCORE.SYSTEM>
0

>  <SCORE.SYSTEM.CONST>
0

>  <SCORE.SYSTEM.DIHEDRAL>
0

>  <SCORE.SYSTEM.SOLV>
0

>  <SCORE.SYSTEM.norm>
0

>  <SCORE.heavy>
42

>  <SCORE.norm>
0.741413

>  <RMSD>
18.019

$$$$
2o3w_lig
 OpenBabel11021811463D
libRbt.so/2013.1/901 2013/11/27
 42 45  0  0  0  0  0  0  0  0999 V2000
   12.3735   12.0841   -7.1800 C   0  0  2  0  0  0  0  0  0  0  0  0
   12.7766   12.5835   -8.4666 O   0  0  0  0  0  0  0  0  0  0  0  0
   13.6440    9.6270  -11.5167 C   0  0  2  0  0  0  0  0  0  0  0  0
   13.5454    8.7425  -12.7160 N   0  0  0  0  0  0  0  0  0  0  0  0
   11.8845   13.8051  -11.4890 C   0  0  1  0  0  0  0  0  0  0  0  0
    7.9899   16.1051  -11.5182 C   0  0  1  0  0  0  0  0  0  0  0  0
   12.1319   13.3230   -6.2663 C   0  0  2  0  0  0  0  0  0  0  0  0
   11.2655   14.3313   -6.9012 N   0  0  0  0  0  0  0  0  0  0  0  0
   12.5244    9.2808  -10.4545 C   0  0  0  0  0  0  0  0  0  0  0  0
   11.2483   14.8271  -10.4983 C   0  0  2  0  0  0  0  0  0  0  0  0
   10.5238   14.2140   -9.4037 O   0  0  0  0  0  0  0  0  0  0  0  0
    8.3207   17.5099  -12.1392 C   0  0  2  0  0  0  0  0  0  0  0  0
    9.5545   18.0869  -11.5262 N   0  0  0  0  0  0  0  0  0  0  0  0
   13.4436   14.0367   -5.8906 C   0  0  1  0  0  0  0  0  0  0  0  0
   13.1786   15.1398   -5.0223 O   0  0  0  0  0  0  0  0  0  0  0  0
   12.6936   10.2286   -9.2073 C   0  0  2  0  0  0  0  0  0  0  0  0
   11.6633    9.9201   -8.1793 N   0  0  0  0  0  0  0  0  0  0  0  0
   10.4106   15.6819  -11.4505 C   0  0  2  0  0  0  0  0  0  0  0  0
    9.0556   15.1505  -11.5996 O   0  0  0  0  0  0  0  0  0  0  0  0
    7.0667   18.4862  -11.9364 C   0  0  1  0  0  0  0  0  0  0  0  0
    6.0157   18.0921  -12.8469 O   0  0  0  0  0  0  0  0  0  0  0  0
   14.4126   13.0247   -5.2379 C   0  0  2  0  0  0  0  0  0  0  0  0
   15.6123   13.6664   -4.8728 O   0  0  0  0  0  0  0  0  0  0  0  0
   12.5748   11.7437   -9.6389 C   0  0  2  0  0  0  0  0  0  0  0  0
   11.1606   15.6805  -12.7933 C   0  0  2  0  0  0  0  0  0  0  0  0
   11.8030   14.4078  -12.8009 O   0  0  0  0  0  0  0  0  0  0  0  0
    6.5069   18.4761  -10.4351 C   0  0  2  0  0  0  0  0  0  0  0  0
    7.4835   19.1058   -9.6068 O   0  0  0  0  0  0  0  0  0  0  0  0
   14.6924   11.8618   -6.2473 C   0  0  2  0  0  0  0  0  0  0  0  0
   13.4321   11.2183   -6.6180 O   0  0  0  0  0  0  0  0  0  0  0  0
   13.6042   12.1410  -10.7196 C   0  0  2  0  0  0  0  0  0  0  0  0
   13.2338   13.4880  -11.1230 O   0  0  0  0  0  0  0  0  0  0  0  0
   12.1969   16.8334  -12.9695 C   0  0  0  0  0  0  0  0  0  0  0  0
   11.5056   18.0725  -13.0940 O   0  0  0  0  0  0  0  0  0  0  0  0
    6.2488   17.0001   -9.9481 C   0  0  1  0  0  0  0  0  0  0  0  0
    7.5338   16.2930  -10.0865 O   0  0  0  0  0  0  0  0  0  0  0  0
   15.6303   10.8180   -5.6864 C   0  0  0  0  0  0  0  0  0  0  0  0
   14.9220    9.9197   -4.8675 O   0  0  0  0  0  0  0  0  0  0  0  0
   13.5217   11.1430  -11.9496 C   0  0  1  0  0  0  0  0  0  0  0  0
   14.5733   11.4178  -12.8793 O   0  0  0  0  0  0  0  0  0  0  0  0
    5.7220   16.8948   -8.4514 C   0  0  0  0  0  0  0  0  0  0  0  0
    5.3762   15.5231   -7.9873 N   0  0  0  0  0  0  0  0  0  0  0  0
  1  2  1  6  0  0  0
  1  7  1  0  0  0  0
  1 30  1  0  0  0  0
  3  4  1  6  0  0  0
  3  9  1  0  0  0  0
  3 39  1  0  0  0  0
  5 10  1  0  0  0  0
  5 26  1  0  0  0  0
  5 32  1  1  0  0  0
  6 12  1  0  0  0  0
  6 36  1  0  0  0  0
  6 19  1  1  0  0  0
  7  8  1  6  0  0  0
  7 14  1  0  0  0  0
  9 16  1  0  0  0  0
 10 11  1  1  0  0  0
 10 18  1  0  0  0  0
 12 13  1  1  0  0  0
 12 20  1  0  0  0  0
 14 15  1  1  0  0  0
 14 22  1  0  0  0  0
 16 17  1  1  0  0  0
 16 24  1  0  0  0  0
 18 19  1  6  0  0  0
 18 25  1  0  0  0  0
 20 21  1  6  0  0  0
 20 27  1  0  0  0  0
 22 23  1  6  0  0  0
 22 29  1  0  0  0  0
 24  2  1  1  0  0  0
 24 31  1  0  0  0  0
 25 26  1  0  0  0  0
 25 33  1  1  0  0  0
 27 28  1  1  0  0  0
 27 35  1  0  0  0  0
 29 30  1  0  0  0  0
 29 37  1  1  0  0  0
 31 32  1  6  0  0  0
 31 39  1  0  0  0  0
 33 34  1  0  0  0  0
 35 36  1  0  0  0  0
 35 41  1  1  0  0  0
 37 38  1  0  0  0  0
 39 40  1  6  0  0  0
 41 42  1  0  0  0  0
M  END
>  <CHROM.1>
-156.45684539,115.70916674,35.63067525,134.21905879,-30.91666204,-69.44695822
81.79929708,-50.38673474,175.89327448,11.27664220,14.06775217,-9.61416535
0.31677000,-0.79591713,1.47925027

>  <Name>
2o3w_lig

>  <RI>
0

>  <Rbt.Current_Directory>
/home/itssahil/PROJECTS/Mol_Feturizer/New_Systems/rnas/2o3w

>  <Rbt.Executable>
rbdock ($Id: //depot/dev/client3/rdock/2013.1/src/exe/rbdock.cxx#4 $)

>  <Rbt.Library>
libRbt.so (2013.1, Build901 2013/11/27)

>  <Rbt.Parameter_File>
/export/apps/rDock/src/rDock_2013.1_src/data/scripts/dock_solv.prm

>  <Rbt.Receptor>
prm/blind_docking_100.prm

>  <SCORE>
11.0686

>  <SCORE.INTER>
-1.0497

>  <SCORE.INTER.CONST>
1

>  <SCORE.INTER.POLAR>
-2.3736

>  <SCORE.INTER.ROT>
9

>  <SCORE.INTER.SOLV>
22.843

>  <SCORE.INTER.VDW>
-10.0021

>  <SCORE.INTER.norm>
-0.0249929

>  <SCORE.INTRA>
7.98763

>  <SCORE.INTRA.DIHEDRAL>
-3.72875

>  <SCORE.INTRA.DIHEDRAL.0>
27.8999

>  <SCORE.INTRA.POLAR>
0

>  <SCORE.INTRA.POLAR.0>
0

>  <SCORE.INTRA.REPUL>
0.0155255

>  <SCORE.INTRA.REPUL.0>
0

>  <SCORE.INTRA.SOLV>
2.59718

>  <SCORE.INTRA.SOLV.lig_0>
-104.479

>  <SCORE.INTRA.VDW>
8.47579

>  <SCORE.INTRA.VDW.0>
-6.17816

>  <SCORE.INTRA.norm>
0.190182

>  <SCORE.RESTR>
4.13064

>  <SCORE.RESTR.CAVITY>
4.13064

>  <SCORE.RESTR.norm>
0.0983486

>  <SCORE.SYSTEM>
0

>  <SCORE.SYSTEM.CONST>
0

>  <SCORE.SYSTEM.DIHEDRAL>
0

>  <SCORE.SYSTEM.SOLV>
0

>  <SCORE.SYSTEM.norm>
0

>  <SCORE.heavy>
42

>  <SCORE.norm>
0.263537

>  <RMSD>
18.021

$$$$
2o3w_lig
 OpenBabel11021811463D
libRbt.so/2013.1/901 2013/11/27
 42 45  0  0  0  0  0  0  0  0999 V2000
   13.4858   12.0090   -8.1490 C   0  0  2  0  0  0  0  0  0  0  0  0
   13.9609   10.8076   -8.7800 O   0  0  0  0  0  0  0  0  0  0  0  0
   14.7219    9.8808  -12.9463 C   0  0  2  0  0  0  0  0  0  0  0  0
   14.5548    9.6730  -14.4158 N   0  0  0  0  0  0  0  0  0  0  0  0
   12.5576   13.2679  -11.0879 C   0  0  1  0  0  0  0  0  0  0  0  0
   10.2288   14.8151  -12.0331 C   0  0  1  0  0  0  0  0  0  0  0  0
   13.9747   11.9700   -6.6699 C   0  0  2  0  0  0  0  0  0  0  0  0
   15.4133   11.6725   -6.5593 N   0  0  0  0  0  0  0  0  0  0  0  0
   13.8319    8.8685  -12.1187 C   0  0  0  0  0  0  0  0  0  0  0  0
   12.3999   13.1373  -12.6335 C   0  0  2  0  0  0  0  0  0  0  0  0
   12.6506   14.3670  -13.3574 O   0  0  0  0  0  0  0  0  0  0  0  0
    8.9971   15.2815  -11.1763 C   0  0  2  0  0  0  0  0  0  0  0  0
    7.8032   15.5169  -12.0425 N   0  0  0  0  0  0  0  0  0  0  0  0
   13.2352   10.9060   -5.8379 C   0  0  1  0  0  0  0  0  0  0  0  0
   13.6861   10.9327   -4.4826 O   0  0  0  0  0  0  0  0  0  0  0  0
   14.0675    9.1210  -10.5813 C   0  0  2  0  0  0  0  0  0  0  0  0
   13.2548    8.1741   -9.7710 N   0  0  0  0  0  0  0  0  0  0  0  0
   10.9784   12.5834  -12.7414 C   0  0  2  0  0  0  0  0  0  0  0  0
    9.9890   13.6566  -12.8419 O   0  0  0  0  0  0  0  0  0  0  0  0
    9.3890   16.6059  -10.3643 C   0  0  1  0  0  0  0  0  0  0  0  0
   10.2774   16.2451   -9.2829 O   0  0  0  0  0  0  0  0  0  0  0  0
   11.7112   11.1465   -5.9306 C   0  0  2  0  0  0  0  0  0  0  0  0
   11.0204   10.1905   -5.1605 O   0  0  0  0  0  0  0  0  0  0  0  0
   13.6911   10.6063  -10.1967 C   0  0  2  0  0  0  0  0  0  0  0  0
   10.7556   11.7368  -11.4768 C   0  0  2  0  0  0  0  0  0  0  0  0
   11.5645   12.3938  -10.5040 O   0  0  0  0  0  0  0  0  0  0  0  0
   10.0881   17.7158  -11.2846 C   0  0  2  0  0  0  0  0  0  0  0  0
    9.0964   18.2227  -12.1768 O   0  0  0  0  0  0  0  0  0  0  0  0
   11.2725   11.0697   -7.4311 C   0  0  2  0  0  0  0  0  0  0  0  0
   12.0097   12.0640   -8.2106 O   0  0  0  0  0  0  0  0  0  0  0  0
   14.4833   11.6543  -11.0086 C   0  0  2  0  0  0  0  0  0  0  0  0
   13.8862   12.9349  -10.6649 O   0  0  0  0  0  0  0  0  0  0  0  0
   11.1511   10.2337  -11.6131 C   0  0  0  0  0  0  0  0  0  0  0  0
   10.3024    9.6089  -12.5714 O   0  0  0  0  0  0  0  0  0  0  0  0
   11.2845   17.0908  -12.0973 C   0  0  1  0  0  0  0  0  0  0  0  0
   10.7136   15.9771  -12.8744 O   0  0  0  0  0  0  0  0  0  0  0  0
    9.7906   11.3007   -7.6162 C   0  0  0  0  0  0  0  0  0  0  0  0
    9.4793   12.6545   -7.3933 O   0  0  0  0  0  0  0  0  0  0  0  0
   14.3418   11.3668  -12.5620 C   0  0  1  0  0  0  0  0  0  0  0  0
   15.1947   12.2418  -13.3054 O   0  0  0  0  0  0  0  0  0  0  0  0
   12.0163   18.1183  -13.0654 C   0  0  0  0  0  0  0  0  0  0  0  0
   12.9909   17.5198  -14.0187 N   0  0  0  0  0  0  0  0  0  0  0  0
  1  2  1  6  0  0  0
  1  7  1  0  0  0  0
  1 30  1  0  0  0  0
  3  4  1  6  0  0  0
  3  9  1  0  0  0  0
  3 39  1  0  0  0  0
  5 10  1  0  0  0  0
  5 26  1  0  0  0  0
  5 32  1  6  0  0  0
  6 12  1  0  0  0  0
  6 36  1  0  0  0  0
  6 19  1  6  0  0  0
  7  8  1  6  0  0  0
  7 14  1  0  0  0  0
  9 16  1  0  0  0  0
 10 11  1  6  0  0  0
 10 18  1  0  0  0  0
 12 13  1  6  0  0  0
 12 20  1  0  0  0  0
 14 15  1  1  0  0  0
 14 22  1  0  0  0  0
 16 17  1  1  0  0  0
 16 24  1  0  0  0  0
 18 19  1  1  0  0  0
 18 25  1  0  0  0  0
 20 21  1  1  0  0  0
 20 27  1  0  0  0  0
 22 23  1  1  0  0  0
 22 29  1  0  0  0  0
 24  2  1  1  0  0  0
 24 31  1  0  0  0  0
 25 26  1  0  0  0  0
 25 33  1  6  0  0  0
 27 28  1  6  0  0  0
 27 35  1  0  0  0  0
 29 30  1  0  0  0  0
 29 37  1  1  0  0  0
 31 32  1  6  0  0  0
 31 39  1  0  0  0  0
 33 34  1  0  0  0  0
 35 36  1  0  0  0  0
 35 41  1  6  0  0  0
 37 38  1  0  0  0  0
 39 40  1  6  0  0  0
 41 42  1  0  0  0  0
M  END
>  <CHROM.1>
-177.56672960,-55.14777513,-130.20325252,-38.82136948,-169.53731748,-64.77330122
71.86092939,-68.86917405,-169.85050638,12.03396243,12.75929903,-10.44148344
0.94237606,-0.96902049,1.95599164

>  <Name>
2o3w_lig

>  <RI>
0

>  <Rbt.Current_Directory>
/home/itssahil/PROJECTS/Mol_Feturizer/New_Systems/rnas/2o3w

>  <Rbt.Executable>
rbdock ($Id: //depot/dev/client3/rdock/2013.1/src/exe/rbdock.cxx#4 $)

>  <Rbt.Library>
libRbt.so (2013.1, Build901 2013/11/27)

>  <Rbt.Parameter_File>
/export/apps/rDock/src/rDock_2013.1_src/data/scripts/dock_solv.prm

>  <Rbt.Receptor>
prm/blind_docking_40.prm

>  <SCORE>
13.2203

>  <SCORE.INTER>
-0.878898

>  <SCORE.INTER.CONST>
1

>  <SCORE.INTER.POLAR>
-0.824621

>  <SCORE.INTER.ROT>
9

>  <SCORE.INTER.SOLV>
28.7691

>  <SCORE.INTER.VDW>
-17.0269

>  <SCORE.INTER.norm>
-0.0209261

>  <SCORE.INTRA>
0.96137

>  <SCORE.INTRA.DIHEDRAL>
-17.1688

>  <SCORE.INTRA.DIHEDRAL.0>
27.8999

>  <SCORE.INTRA.POLAR>
0

>  <SCORE.INTRA.POLAR.0>
0

>  <SCORE.INTRA.REPUL>
0.533162

>  <SCORE.INTRA.REPUL.0>
0

>  <SCORE.INTRA.SOLV>
-1.08348

>  <SCORE.INTRA.SOLV.lig_0>
-104.479

>  <SCORE.INTRA.VDW>
7.4217

>  <SCORE.INTRA.VDW.0>
-6.17816

>  <SCORE.INTRA.norm>
0.0228898

>  <SCORE.RESTR>
13.1379

>  <SCORE.RESTR.CAVITY>
13.1379

>  <SCORE.RESTR.norm>
0.312806

>  <SCORE.SYSTEM>
0

>  <SCORE.SYSTEM.CONST>
0

>  <SCORE.SYSTEM.DIHEDRAL>
0

>  <SCORE.SYSTEM.SOLV>
0

>  <SCORE.SYSTEM.norm>
0

>  <SCORE.heavy>
42

>  <SCORE.norm>
0.31477

>  <RMSD>
18.033

$$$$
2o3w_lig
 OpenBabel11021811463D
libRbt.so/2013.1/901 2013/11/27
 42 45  0  0  0  0  0  0  0  0999 V2000
   12.2710   11.2229   -7.6002 C   0  0  2  0  0  0  0  0  0  0  0  0
   12.8151   11.6920   -8.8457 O   0  0  0  0  0  0  0  0  0  0  0  0
   12.8734    9.1492  -12.3566 C   0  0  2  0  0  0  0  0  0  0  0  0
   12.5082    8.4821  -13.6419 N   0  0  0  0  0  0  0  0  0  0  0  0
   11.8017   13.4935  -11.3806 C   0  0  1  0  0  0  0  0  0  0  0  0
    8.6310   16.6845  -10.9075 C   0  0  1  0  0  0  0  0  0  0  0  0
   11.3692   12.3632   -7.0393 C   0  0  2  0  0  0  0  0  0  0  0  0
   10.4184   12.8747   -8.0418 N   0  0  0  0  0  0  0  0  0  0  0  0
   11.8355    8.8021  -11.2146 C   0  0  0  0  0  0  0  0  0  0  0  0
   11.7793   14.8643  -10.6381 C   0  0  2  0  0  0  0  0  0  0  0  0
   11.4568   14.7661   -9.2290 O   0  0  0  0  0  0  0  0  0  0  0  0
    8.3811   17.1850   -9.4392 C   0  0  2  0  0  0  0  0  0  0  0  0
    7.7552   16.1124   -8.6093 N   0  0  0  0  0  0  0  0  0  0  0  0
   12.1903   13.5699   -6.5489 C   0  0  1  0  0  0  0  0  0  0  0  0
   11.3275   14.5719   -6.0079 O   0  0  0  0  0  0  0  0  0  0  0  0
   12.2853    9.5138   -9.8828 C   0  0  2  0  0  0  0  0  0  0  0  0
   11.3372    9.1966   -8.7810 N   0  0  0  0  0  0  0  0  0  0  0  0
   10.7824   15.6486  -11.4926 C   0  0  2  0  0  0  0  0  0  0  0  0
    9.4122   15.4872  -11.0052 O   0  0  0  0  0  0  0  0  0  0  0  0
    7.4597   18.4951   -9.4768 C   0  0  1  0  0  0  0  0  0  0  0  0
    8.2498   19.6086   -9.9507 O   0  0  0  0  0  0  0  0  0  0  0  0
   13.2293   13.0972   -5.5067 C   0  0  2  0  0  0  0  0  0  0  0  0
   13.9783   14.1932   -5.0352 O   0  0  0  0  0  0  0  0  0  0  0  0
   12.3584   11.0789  -10.0850 C   0  0  2  0  0  0  0  0  0  0  0  0
   10.9320   15.1070  -12.9242 C   0  0  2  0  0  0  0  0  0  0  0  0
   11.3073   13.7476  -12.7155 O   0  0  0  0  0  0  0  0  0  0  0  0
    6.1674   18.3202  -10.4079 C   0  0  2  0  0  0  0  0  0  0  0  0
    5.2969   17.3890   -9.7664 O   0  0  0  0  0  0  0  0  0  0  0  0
   14.1654   12.0305   -6.1665 C   0  0  2  0  0  0  0  0  0  0  0  0
   13.3644   10.9086   -6.6560 O   0  0  0  0  0  0  0  0  0  0  0  0
   13.3137   11.4913  -11.2263 C   0  0  2  0  0  0  0  0  0  0  0  0
   13.1167   12.9226  -11.3910 O   0  0  0  0  0  0  0  0  0  0  0  0
   11.9847   15.8514  -13.8028 C   0  0  0  0  0  0  0  0  0  0  0  0
   13.2931   15.5445  -13.3306 O   0  0  0  0  0  0  0  0  0  0  0  0
    6.5774   17.7901  -11.8338 C   0  0  1  0  0  0  0  0  0  0  0  0
    7.2982   16.5253  -11.6085 O   0  0  0  0  0  0  0  0  0  0  0  0
   15.2131   11.5063   -5.2119 C   0  0  0  0  0  0  0  0  0  0  0  0
   16.0695   10.6096   -5.8767 O   0  0  0  0  0  0  0  0  0  0  0  0
   12.9432   10.7159  -12.5594 C   0  0  1  0  0  0  0  0  0  0  0  0
   13.9175   10.9820  -13.5721 O   0  0  0  0  0  0  0  0  0  0  0  0
    5.3485   17.5551  -12.8153 C   0  0  0  0  0  0  0  0  0  0  0  0
    4.5600   18.7702  -13.1595 N   0  0  0  0  0  0  0  0  0  0  0  0
  1  2  1  6  0  0  0
  1  7  1  0  0  0  0
  1 30  1  0  0  0  0
  3  4  1  6  0  0  0
  3  9  1  0  0  0  0
  3 39  1  0  0  0  0
  5 10  1  0  0  0  0
  5 26  1  0  0  0  0
  5 32  1  6  0  0  0
  6 12  1  0  0  0  0
  6 36  1  0  0  0  0
  6 19  1  1  0  0  0
  7  8  1  6  0  0  0
  7 14  1  0  0  0  0
  9 16  1  0  0  0  0
 10 11  1  1  0  0  0
 10 18  1  0  0  0  0
 12 13  1  1  0  0  0
 12 20  1  0  0  0  0
 14 15  1  1  0  0  0
 14 22  1  0  0  0  0
 16 17  1  1  0  0  0
 16 24  1  0  0  0  0
 18 19  1  1  0  0  0
 18 25  1  0  0  0  0
 20 21  1  6  0  0  0
 20 27  1  0  0  0  0
 22 23  1  6  0  0  0
 22 29  1  0  0  0  0
 24  2  1  1  0  0  0
 24 31  1  0  0  0  0
 25 26  1  0  0  0  0
 25 33  1  1  0  0  0
 27 28  1  1  0  0  0
 27 35  1  0  0  0  0
 29 30  1  0  0  0  0
 29 37  1  1  0  0  0
 31 32  1  6  0  0  0
 31 39  1  0  0  0  0
 33 34  1  0  0  0  0
 35 36  1  0  0  0  0
 35 41  1  6  0  0  0
 37 38  1  0  0  0  0
 39 40  1  6  0  0  0
 41 42  1  0  0  0  0
M  END
>  <CHROM.1>
-110.41166172,141.55599806,-107.20342870,134.36649261,-42.98843984,70.71631426
-176.74135285,-43.29919441,62.62858263,11.00755774,13.82725613,-9.93461404
0.07908758,-0.84393265,1.29398779

>  <Name>
2o3w_lig

>  <RI>
0

>  <Rbt.Current_Directory>
/home/itssahil/PROJECTS/Mol_Feturizer/New_Systems/rnas/2o3w

>  <Rbt.Executable>
rbdock ($Id: //depot/dev/client3/rdock/2013.1/src/exe/rbdock.cxx#4 $)

>  <Rbt.Library>
libRbt.so (2013.1, Build901 2013/11/27)

>  <Rbt.Parameter_File>
/export/apps/rDock/src/rDock_2013.1_src/data/scripts/dock_solv.prm

>  <Rbt.Receptor>
prm/blind_docking_100.prm

>  <SCORE>
-0.204406

>  <SCORE.INTER>
-14.0538

>  <SCORE.INTER.CONST>
1

>  <SCORE.INTER.POLAR>
-0.794519

>  <SCORE.INTER.ROT>
9

>  <SCORE.INTER.SOLV>
21.8903

>  <SCORE.INTER.VDW>
-23.6176

>  <SCORE.INTER.norm>
-0.334615

>  <SCORE.INTRA>
6.19708

>  <SCORE.INTRA.DIHEDRAL>
-0.26123

>  <SCORE.INTRA.DIHEDRAL.0>
27.8999

>  <SCORE.INTRA.POLAR>
0

>  <SCORE.INTRA.POLAR.0>
0

>  <SCORE.INTRA.REPUL>
0.164008

>  <SCORE.INTRA.REPUL.0>
0

>  <SCORE.INTRA.SOLV>
1.05396

>  <SCORE.INTRA.SOLV.lig_0>
-104.479

>  <SCORE.INTRA.VDW>
4.98068

>  <SCORE.INTRA.VDW.0>
-6.17816

>  <SCORE.INTRA.norm>
0.14755

>  <SCORE.RESTR>
7.65234

>  <SCORE.RESTR.CAVITY>
7.65234

>  <SCORE.RESTR.norm>
0.182199

>  <SCORE.SYSTEM>
0

>  <SCORE.SYSTEM.CONST>
0

>  <SCORE.SYSTEM.DIHEDRAL>
0

>  <SCORE.SYSTEM.SOLV>
0

>  <SCORE.SYSTEM.norm>
0

>  <SCORE.heavy>
42

>  <SCORE.norm>
-0.00486681

>  <RMSD>
18.040

$$$$
2o3w_lig
 OpenBabel11021811463D
libRbt.so/2013.1/901 2013/11/27
 42 45  0  0  0  0  0  0  0  0999 V2000
   14.0023    9.0642  -10.1944 C   0  0  2  0  0  0  0  0  0  0  0  0
   14.1360   10.4386   -9.7937 O   0  0  0  0  0  0  0  0  0  0  0  0
   10.7689   10.6367   -7.0698 C   0  0  2  0  0  0  0  0  0  0  0  0
    9.6612   11.1407   -6.2042 N   0  0  0  0  0  0  0  0  0  0  0  0
   11.9866   12.7198  -10.9304 C   0  0  1  0  0  0  0  0  0  0  0  0
   10.9473   16.6079  -11.9403 C   0  0  1  0  0  0  0  0  0  0  0  0
   15.2519    8.7187  -11.0589 C   0  0  2  0  0  0  0  0  0  0  0  0
   16.5138    9.1132  -10.4088 N   0  0  0  0  0  0  0  0  0  0  0  0
   12.1788   11.1102   -6.5316 C   0  0  0  0  0  0  0  0  0  0  0  0
   10.7201   13.6218  -11.0462 C   0  0  2  0  0  0  0  0  0  0  0  0
   10.3063   13.8843  -12.4096 O   0  0  0  0  0  0  0  0  0  0  0  0
   11.5845   17.9327  -12.4949 C   0  0  2  0  0  0  0  0  0  0  0  0
   12.0713   18.7983  -11.3792 N   0  0  0  0  0  0  0  0  0  0  0  0
   15.2227    9.4144  -12.4323 C   0  0  1  0  0  0  0  0  0  0  0  0
   16.3645    9.0387  -13.2044 O   0  0  0  0  0  0  0  0  0  0  0  0
   13.3041   10.5306   -7.4698 C   0  0  2  0  0  0  0  0  0  0  0  0
   14.6477   10.9452   -6.9835 N   0  0  0  0  0  0  0  0  0  0  0  0
   11.1526   14.8461  -10.2380 C   0  0  2  0  0  0  0  0  0  0  0  0
   11.8064   15.8454  -11.0834 O   0  0  0  0  0  0  0  0  0  0  0  0
   10.5042   18.7038  -13.3922 C   0  0  1  0  0  0  0  0  0  0  0  0
   10.3496   17.9999  -14.6451 O   0  0  0  0  0  0  0  0  0  0  0  0
   13.9068    9.0605  -13.1617 C   0  0  2  0  0  0  0  0  0  0  0  0
   13.8720    9.6764  -14.4282 O   0  0  0  0  0  0  0  0  0  0  0  0
   13.1013   11.0280   -8.9556 C   0  0  2  0  0  0  0  0  0  0  0  0
   12.1087   14.3225   -9.1531 C   0  0  2  0  0  0  0  0  0  0  0  0
   12.7210   13.1982   -9.7802 O   0  0  0  0  0  0  0  0  0  0  0  0
    9.0786   18.8364  -12.6726 C   0  0  2  0  0  0  0  0  0  0  0  0
    9.2294   19.7440  -11.5818 O   0  0  0  0  0  0  0  0  0  0  0  0
   12.6963    9.5274  -12.2863 C   0  0  2  0  0  0  0  0  0  0  0  0
   12.7599    8.8824  -10.9749 O   0  0  0  0  0  0  0  0  0  0  0  0
   11.7188   10.6494   -9.5304 C   0  0  2  0  0  0  0  0  0  0  0  0
   11.6365   11.3349  -10.8102 O   0  0  0  0  0  0  0  0  0  0  0  0
   11.4226   13.9131   -7.8130 C   0  0  0  0  0  0  0  0  0  0  0  0
   11.3469   15.0490   -6.9569 O   0  0  0  0  0  0  0  0  0  0  0  0
    8.5868   17.4335  -12.1507 C   0  0  1  0  0  0  0  0  0  0  0  0
    9.6417   16.9397  -11.2487 O   0  0  0  0  0  0  0  0  0  0  0  0
   11.3625    9.2136  -12.9236 C   0  0  0  0  0  0  0  0  0  0  0  0
   11.4492    8.0236  -13.6691 O   0  0  0  0  0  0  0  0  0  0  0  0
   10.5666   11.1378   -8.5559 C   0  0  1  0  0  0  0  0  0  0  0  0
    9.2989   10.6562   -9.0104 O   0  0  0  0  0  0  0  0  0  0  0  0
    7.1906   17.4783  -11.3911 C   0  0  0  0  0  0  0  0  0  0  0  0
    6.7752   16.2080  -10.7352 N   0  0  0  0  0  0  0  0  0  0  0  0
  1  2  1  6  0  0  0
  1  7  1  0  0  0  0
  1 30  1  0  0  0  0
  3  4  1  1  0  0  0
  3  9  1  0  0  0  0
  3 39  1  0  0  0  0
  5 10  1  0  0  0  0
  5 26  1  0  0  0  0
  5 32  1  1  0  0  0
  6 12  1  0  0  0  0
  6 36  1  0  0  0  0
  6 19  1  1  0  0  0
  7  8  1  1  0  0  0
  7 14  1  0  0  0  0
  9 16  1  0  0  0  0
 10 11  1  6  0  0  0
 10 18  1  0  0  0  0
 12 13  1  1  0  0  0
 12 20  1  0  0  0  0
 14 15  1  6  0  0  0
 14 22  1  0  0  0  0
 16 17  1  1  0  0  0
 16 24  1  0  0  0  0
 18 19  1  6  0  0  0
 18 25  1  0  0  0  0
 20 21  1  6  0  0  0
 20 27  1  0  0  0  0
 22 23  1  6  0  0  0
 22 29  1  0  0  0  0
 24  2  1  6  0  0  0
 24 31  1  0  0  0  0
 25 26  1  0  0  0  0
 25 33  1  1  0  0  0
 27 28  1  1  0  0  0
 27 35  1  0  0  0  0
 29 30  1  0  0  0  0
 29 37  1  6  0  0  0
 31 32  1  6  0  0  0
 31 39  1  0  0  0  0
 33 34  1  0  0  0  0
 35 36  1  0  0  0  0
 35 41  1  1  0  0  0
 37 38  1  0  0  0  0
 39 40  1  6  0  0  0
 41 42  1  0  0  0  0
M  END
>  <CHROM.1>
-179.39481742,-104.15789232,162.30852975,74.59486274,77.31056980,-88.66926488
32.71382513,-47.40675058,-172.60073103,11.75525778,12.93896061,-10.71376882
-0.53949272,1.03965575,-1.09265868

>  <Name>
2o3w_lig

>  <RI>
0

>  <Rbt.Current_Directory>
/home/itssahil/PROJECTS/Mol_Feturizer/New_Systems/rnas/2o3w

>  <Rbt.Executable>
rbdock ($Id: //depot/dev/client3/rdock/2013.1/src/exe/rbdock.cxx#4 $)

>  <Rbt.Library>
libRbt.so (2013.1, Build901 2013/11/27)

>  <Rbt.Parameter_File>
/export/apps/rDock/src/rDock_2013.1_src/data/scripts/dock_solv.prm

>  <Rbt.Receptor>
prm/blind_docking_40.prm

>  <SCORE>
29.2413

>  <SCORE.INTER>
10.7403

>  <SCORE.INTER.CONST>
1

>  <SCORE.INTER.POLAR>
-0.151697

>  <SCORE.INTER.ROT>
9

>  <SCORE.INTER.SOLV>
32.4663

>  <SCORE.INTER.VDW>
-12.7563

>  <SCORE.INTER.norm>
0.25572

>  <SCORE.INTRA>
4.09415

>  <SCORE.INTRA.DIHEDRAL>
-12.2948

>  <SCORE.INTRA.DIHEDRAL.0>
27.8999

>  <SCORE.INTRA.POLAR>
0

>  <SCORE.INTRA.POLAR.0>
0

>  <SCORE.INTRA.REPUL>
0

>  <SCORE.INTRA.REPUL.0>
0

>  <SCORE.INTRA.SOLV>
-3.16047

>  <SCORE.INTRA.SOLV.lig_0>
-104.479

>  <SCORE.INTRA.VDW>
11.8218

>  <SCORE.INTRA.VDW.0>
-6.17816

>  <SCORE.INTRA.norm>
0.0974799

>  <SCORE.RESTR>
14.4069

>  <SCORE.RESTR.CAVITY>
14.4069

>  <SCORE.RESTR.norm>
0.343021

>  <SCORE.SYSTEM>
0

>  <SCORE.SYSTEM.CONST>
0

>  <SCORE.SYSTEM.DIHEDRAL>
0

>  <SCORE.SYSTEM.SOLV>
0

>  <SCORE.SYSTEM.norm>
0

>  <SCORE.heavy>
42

>  <SCORE.norm>
0.696222

>  <RMSD>
18.064

$$$$
2o3w_lig
 OpenBabel11021811463D
libRbt.so/2013.1/901 2013/11/27
 42 45  0  0  0  0  0  0  0  0999 V2000
   12.7913   14.2249  -12.3589 C   0  0  2  0  0  0  0  0  0  0  0  0
   12.6975   13.6889  -11.0280 O   0  0  0  0  0  0  0  0  0  0  0  0
   12.5027    9.4740  -12.0240 C   0  0  2  0  0  0  0  0  0  0  0  0
   12.5323    7.9835  -11.9346 N   0  0  0  0  0  0  0  0  0  0  0  0
   11.0751   12.0629   -8.5761 C   0  0  1  0  0  0  0  0  0  0  0  0
   12.5820   12.2031   -5.9355 C   0  0  1  0  0  0  0  0  0  0  0  0
   11.7715   15.3995  -12.4494 C   0  0  2  0  0  0  0  0  0  0  0  0
   11.9020   16.3471  -11.3289 N   0  0  0  0  0  0  0  0  0  0  0  0
   13.9275   10.0950  -11.7307 C   0  0  0  0  0  0  0  0  0  0  0  0
   10.0163   12.5681   -7.5493 C   0  0  2  0  0  0  0  0  0  0  0  0
   10.1351   13.9750   -7.2242 O   0  0  0  0  0  0  0  0  0  0  0  0
   13.3815   10.8507   -5.9131 C   0  0  2  0  0  0  0  0  0  0  0  0
   13.3903   10.2589   -4.5417 N   0  0  0  0  0  0  0  0  0  0  0  0
   10.3123   14.9078  -12.4483 C   0  0  1  0  0  0  0  0  0  0  0  0
    9.4151   16.0126  -12.5725 O   0  0  0  0  0  0  0  0  0  0  0  0
   13.8376   11.6626  -11.8616 C   0  0  2  0  0  0  0  0  0  0  0  0
   15.1668   12.2802  -11.6058 N   0  0  0  0  0  0  0  0  0  0  0  0
   10.2424   11.5987   -6.3881 C   0  0  2  0  0  0  0  0  0  0  0  0
   11.2383   12.1104   -5.4462 O   0  0  0  0  0  0  0  0  0  0  0  0
   14.8730   11.1095   -6.4378 C   0  0  1  0  0  0  0  0  0  0  0  0
   14.8364   11.3125   -7.8683 O   0  0  0  0  0  0  0  0  0  0  0  0
   10.1115   13.8864  -13.5909 C   0  0  2  0  0  0  0  0  0  0  0  0
    8.7759   13.4390  -13.6140 O   0  0  0  0  0  0  0  0  0  0  0  0
   12.7775   12.2464  -10.8461 C   0  0  2  0  0  0  0  0  0  0  0  0
   10.7039   10.2761   -7.0230 C   0  0  2  0  0  0  0  0  0  0  0  0
   11.3958   10.7059   -8.1931 O   0  0  0  0  0  0  0  0  0  0  0  0
   15.5697   12.3699   -5.7352 C   0  0  2  0  0  0  0  0  0  0  0  0
   15.8129   12.0235   -4.3724 O   0  0  0  0  0  0  0  0  0  0  0  0
   11.0934   12.6859  -13.3810 C   0  0  2  0  0  0  0  0  0  0  0  0
   12.4711   13.1766  -13.3510 O   0  0  0  0  0  0  0  0  0  0  0  0
   11.3693   11.6414  -11.0366 C   0  0  2  0  0  0  0  0  0  0  0  0
   10.5839   12.1431   -9.9204 O   0  0  0  0  0  0  0  0  0  0  0  0
    9.5556    9.2830   -7.3830 C   0  0  0  0  0  0  0  0  0  0  0  0
    8.9212    9.7127   -8.5837 O   0  0  0  0  0  0  0  0  0  0  0  0
   14.6378   13.6375   -5.8177 C   0  0  1  0  0  0  0  0  0  0  0  0
   13.3672   13.2536   -5.1786 O   0  0  0  0  0  0  0  0  0  0  0  0
   10.9690   11.6371  -14.4619 C   0  0  0  0  0  0  0  0  0  0  0  0
    9.6856   11.0615  -14.4337 O   0  0  0  0  0  0  0  0  0  0  0  0
   11.4436   10.0574  -11.0049 C   0  0  1  0  0  0  0  0  0  0  0  0
   10.1688    9.4970  -11.3314 O   0  0  0  0  0  0  0  0  0  0  0  0
   15.2389   14.9301   -5.1130 C   0  0  0  0  0  0  0  0  0  0  0  0
   15.5522   16.0687   -6.0196 N   0  0  0  0  0  0  0  0  0  0  0  0
  1  2  1  1  0  0  0
  1  7  1  0  0  0  0
  1 30  1  0  0  0  0
  3  4  1  1  0  0  0
  3  9  1  0  0  0  0
  3 39  1  0  0  0  0
  5 10  1  0  0  0  0
  5 26  1  0  0  0  0
  5 32  1  6  0  0  0
  6 12  1  0  0  0  0
  6 36  1  0  0  0  0
  6 19  1  1  0  0  0
  7  8  1  1  0  0  0
  7 14  1  0  0  0  0
  9 16  1  0  0  0  0
 10 11  1  1  0  0  0
 10 18  1  0  0  0  0
 12 13  1  1  0  0  0
 12 20  1  0  0  0  0
 14 15  1  6  0  0  0
 14 22  1  0  0  0  0
 16 17  1  1  0  0  0
 16 24  1  0  0  0  0
 18 19  1  1  0  0  0
 18 25  1  0  0  0  0
 20 21  1  6  0  0  0
 20 27  1  0  0  0  0
 22 23  1  1  0  0  0
 22 29  1  0  0  0  0
 24  2  1  6  0  0  0
 24 31  1  0  0  0  0
 25 26  1  0  0  0  0
 25 33  1  6  0  0  0
 27 28  1  1  0  0  0
 27 35  1  0  0  0  0
 29 30  1  0  0  0  0
 29 37  1  6  0  0  0
 31 32  1  1  0  0  0
 31 39  1  0  0  0  0
 33 34  1  0  0  0  0
 35 36  1  0  0  0  0
 35 41  1  1  0  0  0
 37 38  1  0  0  0  0
 39 40  1  6  0  0  0
 41 42  1  0  0  0  0
M  END
>  <CHROM.1>
140.77441386,-175.86698853,-80.88882248,-67.17367772,37.71499755,77.55742031
-63.36518571,-49.07693529,114.91209815,12.07988432,12.23672713,-9.46812825
-2.33712022,1.01583874,2.30029383

>  <Name>
2o3w_lig

>  <RI>
0

>  <Rbt.Current_Directory>
/home/itssahil/PROJECTS/Mol_Feturizer/New_Systems/rnas/2o3w

>  <Rbt.Executable>
rbdock ($Id: //depot/dev/client3/rdock/2013.1/src/exe/rbdock.cxx#4 $)

>  <Rbt.Library>
libRbt.so (2013.1, Build901 2013/11/27)

>  <Rbt.Parameter_File>
/export/apps/rDock/src/rDock_2013.1_src/data/scripts/dock_solv.prm

>  <Rbt.Receptor>
prm/blind_docking_40.prm

>  <SCORE>
41.8182

>  <SCORE.INTER>
20.2682

>  <SCORE.INTER.CONST>
1

>  <SCORE.INTER.POLAR>
-1.66033

>  <SCORE.INTER.ROT>
9

>  <SCORE.INTER.SOLV>
42.3465

>  <SCORE.INTER.VDW>
-4.66897

>  <SCORE.INTER.norm>
0.482575

>  <SCORE.INTRA>
2.39101

>  <SCORE.INTRA.DIHEDRAL>
-11.2582

>  <SCORE.INTRA.DIHEDRAL.0>
27.8999

>  <SCORE.INTRA.POLAR>
0

>  <SCORE.INTRA.POLAR.0>
0

>  <SCORE.INTRA.REPUL>
0

>  <SCORE.INTRA.REPUL.0>
0

>  <SCORE.INTRA.SOLV>
-0.883111

>  <SCORE.INTRA.SOLV.lig_0>
-104.479

>  <SCORE.INTRA.VDW>
8.46164

>  <SCORE.INTRA.VDW.0>
-6.17816

>  <SCORE.INTRA.norm>
0.0569287

>  <SCORE.RESTR>
19.1591

>  <SCORE.RESTR.CAVITY>
19.1591

>  <SCORE.RESTR.norm>
0.456168

>  <SCORE.SYSTEM>
0

>  <SCORE.SYSTEM.CONST>
0

>  <SCORE.SYSTEM.DIHEDRAL>
0

>  <SCORE.SYSTEM.SOLV>
0

>  <SCORE.SYSTEM.norm>
0

>  <SCORE.heavy>
42

>  <SCORE.norm>
0.995672

>  <RMSD>
18.070

$$$$
2o3w_lig
 OpenBabel11021811463D
libRbt.so/2013.1/901 2013/11/27
 42 45  0  0  0  0  0  0  0  0999 V2000
   12.9432   11.0875  -11.7001 C   0  0  2  0  0  0  0  0  0  0  0  0
   13.2437   12.4399  -12.0849 O   0  0  0  0  0  0  0  0  0  0  0  0
   11.2346   16.2724  -11.8182 C   0  0  2  0  0  0  0  0  0  0  0  0
   10.1894   17.3392  -11.8214 N   0  0  0  0  0  0  0  0  0  0  0  0
   11.7917   12.6874   -8.5665 C   0  0  1  0  0  0  0  0  0  0  0  0
   13.0707   12.3113   -5.6363 C   0  0  1  0  0  0  0  0  0  0  0  0
   13.9949   10.6755  -10.6266 C   0  0  2  0  0  0  0  0  0  0  0  0
   14.1209   11.6722   -9.5491 N   0  0  0  0  0  0  0  0  0  0  0  0
   11.4011   15.6279  -13.2530 C   0  0  0  0  0  0  0  0  0  0  0  0
   10.5928   12.9771   -7.6129 C   0  0  2  0  0  0  0  0  0  0  0  0
   10.5269   14.3481   -7.1489 O   0  0  0  0  0  0  0  0  0  0  0  0
   13.6392   10.8605   -5.4342 C   0  0  2  0  0  0  0  0  0  0  0  0
   13.2711   10.3258   -4.0890 N   0  0  0  0  0  0  0  0  0  0  0  0
   15.4006   10.4895  -11.2270 C   0  0  1  0  0  0  0  0  0  0  0  0
   16.3218   10.0744  -10.2171 O   0  0  0  0  0  0  0  0  0  0  0  0
   12.5290   14.5294  -13.1912 C   0  0  2  0  0  0  0  0  0  0  0  0
   12.7229   13.9109  -14.5304 N   0  0  0  0  0  0  0  0  0  0  0  0
   10.8135   11.9210   -6.5289 C   0  0  2  0  0  0  0  0  0  0  0  0
   11.6553   12.4296   -5.4456 O   0  0  0  0  0  0  0  0  0  0  0  0
   15.2293   10.8839   -5.6288 C   0  0  1  0  0  0  0  0  0  0  0  0
   15.5257   11.0358   -7.0352 O   0  0  0  0  0  0  0  0  0  0  0  0
   15.3354    9.4685  -12.3856 C   0  0  2  0  0  0  0  0  0  0  0  0
   16.6179    9.2744  -12.9353 O   0  0  0  0  0  0  0  0  0  0  0  0
   12.1595   13.4104  -12.1389 C   0  0  2  0  0  0  0  0  0  0  0  0
   11.4735   10.7228   -7.2318 C   0  0  2  0  0  0  0  0  0  0  0  0
   12.2210   11.3367   -8.2791 O   0  0  0  0  0  0  0  0  0  0  0  0
   15.9400   12.0578   -4.8015 C   0  0  2  0  0  0  0  0  0  0  0  0
   15.8365   11.7322   -3.4160 O   0  0  0  0  0  0  0  0  0  0  0  0
   14.3410    9.9940  -13.4740 C   0  0  2  0  0  0  0  0  0  0  0  0
   13.0208   10.1965  -12.8773 O   0  0  0  0  0  0  0  0  0  0  0  0
   11.9256   13.9757  -10.7208 C   0  0  2  0  0  0  0  0  0  0  0  0
   11.4225   12.8559   -9.9415 O   0  0  0  0  0  0  0  0  0  0  0  0
   10.4790    9.6629   -7.7989 C   0  0  0  0  0  0  0  0  0  0  0  0
    9.7566    9.0723   -6.7227 O   0  0  0  0  0  0  0  0  0  0  0  0
   15.2437   13.4413   -5.0899 C   0  0  1  0  0  0  0  0  0  0  0  0
   13.8245   13.2670   -4.7355 O   0  0  0  0  0  0  0  0  0  0  0  0
   14.2103    9.0499  -14.6467 C   0  0  0  0  0  0  0  0  0  0  0  0
   13.8409    7.7684  -14.1987 O   0  0  0  0  0  0  0  0  0  0  0  0
   10.8621   15.1514  -10.7670 C   0  0  1  0  0  0  0  0  0  0  0  0
   10.7584   15.7737   -9.4834 O   0  0  0  0  0  0  0  0  0  0  0  0
   15.8664   14.6608   -4.2813 C   0  0  0  0  0  0  0  0  0  0  0  0
   15.7743   14.5620   -2.7986 N   0  0  0  0  0  0  0  0  0  0  0  0
  1  2  1  6  0  0  0
  1  7  1  0  0  0  0
  1 30  1  0  0  0  0
  3  4  1  6  0  0  0
  3  9  1  0  0  0  0
  3 39  1  0  0  0  0
  5 10  1  0  0  0  0
  5 26  1  0  0  0  0
  5 32  1  6  0  0  0
  6 12  1  0  0  0  0
  6 36  1  0  0  0  0
  6 19  1  1  0  0  0
  7  8  1  1  0  0  0
  7 14  1  0  0  0  0
  9 16  1  0  0  0  0
 10 11  1  1  0  0  0
 10 18  1  0  0  0  0
 12 13  1  1  0  0  0
 12 20  1  0  0  0  0
 14 15  1  1  0  0  0
 14 22  1  0  0  0  0
 16 17  1  6  0  0  0
 16 24  1  0  0  0  0
 18 19  1  1  0  0  0
 18 25  1  0  0  0  0
 20 21  1  6  0  0  0
 20 27  1  0  0  0  0
 22 23  1  6  0  0  0
 22 29  1  0  0  0  0
 24  2  1  1  0  0  0
 24 31  1  0  0  0  0
 25 26  1  0  0  0  0
 25 33  1  6  0  0  0
 27 28  1  1  0  0  0
 27 35  1  0  0  0  0
 29 30  1  0  0  0  0
 29 37  1  6  0  0  0
 31 32  1  1  0  0  0
 31 39  1  0  0  0  0
 33 34  1  0  0  0  0
 35 36  1  0  0  0  0
 35 41  1  1  0  0  0
 37 38  1  0  0  0  0
 39 40  1  1  0  0  0
 41 42  1  0  0  0  0
M  END
>  <CHROM.1>
-132.26038486,109.16529813,-75.71534243,-86.09306733,-152.81699831,-63.69550682
55.31456494,143.33796546,-61.83312795,13.12628586,12.14249706,-9.07999952
-1.72124605,-0.93139477,1.37980080

>  <Name>
2o3w_lig

>  <RI>
0

>  <Rbt.Current_Directory>
/home/itssahil/PROJECTS/Mol_Feturizer/New_Systems/rnas/2o3w

>  <Rbt.Executable>
rbdock ($Id: //depot/dev/client3/rdock/2013.1/src/exe/rbdock.cxx#4 $)

>  <Rbt.Library>
libRbt.so (2013.1, Build901 2013/11/27)

>  <Rbt.Parameter_File>
/export/apps/rDock/src/rDock_2013.1_src/data/scripts/dock_solv.prm

>  <Rbt.Receptor>
prm/blind_docking_100.prm

>  <SCORE>
16.2528

>  <SCORE.INTER>
-1.19288

>  <SCORE.INTER.CONST>
1

>  <SCORE.INTER.POLAR>
-1.26453

>  <SCORE.INTER.ROT>
9

>  <SCORE.INTER.SOLV>
27.7361

>  <SCORE.INTER.VDW>
-15.4255

>  <SCORE.INTER.norm>
-0.028402

>  <SCORE.INTRA>
5.20974

>  <SCORE.INTRA.DIHEDRAL>
-2.6346

>  <SCORE.INTRA.DIHEDRAL.0>
27.8999

>  <SCORE.INTRA.POLAR>
0

>  <SCORE.INTRA.POLAR.0>
0

>  <SCORE.INTRA.REPUL>
0.0254913

>  <SCORE.INTRA.REPUL.0>
0

>  <SCORE.INTRA.SOLV>
3.50734

>  <SCORE.INTRA.SOLV.lig_0>
-104.479

>  <SCORE.INTRA.VDW>
4.64592

>  <SCORE.INTRA.VDW.0>
-6.17816

>  <SCORE.INTRA.norm>
0.124042

>  <SCORE.RESTR>
12.2359

>  <SCORE.RESTR.CAVITY>
12.2359

>  <SCORE.RESTR.norm>
0.291332

>  <SCORE.SYSTEM>
0

>  <SCORE.SYSTEM.CONST>
0

>  <SCORE.SYSTEM.DIHEDRAL>
0

>  <SCORE.SYSTEM.SOLV>
0

>  <SCORE.SYSTEM.norm>
0

>  <SCORE.heavy>
42

>  <SCORE.norm>
0.386971

>  <RMSD>
18.082

$$$$
2o3w_lig
 OpenBabel11021811463D
libRbt.so/2013.1/901 2013/11/27
 42 45  0  0  0  0  0  0  0  0999 V2000
   12.1199   12.7826   -7.0829 C   0  0  2  0  0  0  0  0  0  0  0  0
   12.5072   12.9739   -8.4543 O   0  0  0  0  0  0  0  0  0  0  0  0
   12.8408    9.1416  -10.4538 C   0  0  2  0  0  0  0  0  0  0  0  0
   12.6490    8.0071  -11.4059 N   0  0  0  0  0  0  0  0  0  0  0  0
   12.5051   13.4916  -11.7505 C   0  0  1  0  0  0  0  0  0  0  0  0
   10.5204   15.4582  -12.7017 C   0  0  1  0  0  0  0  0  0  0  0  0
   12.5494   14.0631   -6.3059 C   0  0  2  0  0  0  0  0  0  0  0  0
   12.1019   15.3009   -6.9678 N   0  0  0  0  0  0  0  0  0  0  0  0
   11.5217    9.4283   -9.6294 C   0  0  0  0  0  0  0  0  0  0  0  0
   12.9150   14.0607  -13.1429 C   0  0  2  0  0  0  0  0  0  0  0  0
   13.2820   15.4621  -13.1220 O   0  0  0  0  0  0  0  0  0  0  0  0
    9.8249   14.5957  -11.5877 C   0  0  2  0  0  0  0  0  0  0  0  0
    8.5066   14.0764  -12.0604 N   0  0  0  0  0  0  0  0  0  0  0  0
   14.0780   14.1684   -6.1526 C   0  0  1  0  0  0  0  0  0  0  0  0
   14.4234   15.3336   -5.4016 O   0  0  0  0  0  0  0  0  0  0  0  0
   11.7926   10.6161   -8.6302 C   0  0  2  0  0  0  0  0  0  0  0  0
   10.5742   10.9039   -7.8262 N   0  0  0  0  0  0  0  0  0  0  0  0
   11.6842   13.7108  -13.9808 C   0  0  2  0  0  0  0  0  0  0  0  0
   10.6929   14.7867  -13.9559 O   0  0  0  0  0  0  0  0  0  0  0  0
    9.6533   15.4811  -10.2635 C   0  0  1  0  0  0  0  0  0  0  0  0
   10.9458   15.6387   -9.6362 O   0  0  0  0  0  0  0  0  0  0  0  0
   14.6187   12.8845   -5.4829 C   0  0  2  0  0  0  0  0  0  0  0  0
   16.0152   12.9722   -5.3201 O   0  0  0  0  0  0  0  0  0  0  0  0
   12.2289   11.9158   -9.4152 C   0  0  2  0  0  0  0  0  0  0  0  0
   11.1153   12.4149  -13.3789 C   0  0  2  0  0  0  0  0  0  0  0  0
   11.4613   12.5224  -12.0001 O   0  0  0  0  0  0  0  0  0  0  0  0
    9.0208   16.9237  -10.5575 C   0  0  2  0  0  0  0  0  0  0  0  0
    7.6591   16.7279  -10.9367 O   0  0  0  0  0  0  0  0  0  0  0  0
   14.2415   11.6497   -6.3675 C   0  0  2  0  0  0  0  0  0  0  0  0
   12.7891   11.5860   -6.5296 O   0  0  0  0  0  0  0  0  0  0  0  0
   13.4826   11.6946  -10.2897 C   0  0  2  0  0  0  0  0  0  0  0  0
   13.6258   12.9149  -11.0675 O   0  0  0  0  0  0  0  0  0  0  0  0
   11.6794   11.0986  -13.9981 C   0  0  0  0  0  0  0  0  0  0  0  0
   13.0903   11.0558  -13.8072 O   0  0  0  0  0  0  0  0  0  0  0  0
    9.8089   17.6515  -11.7113 C   0  0  1  0  0  0  0  0  0  0  0  0
    9.7525   16.7516  -12.8763 O   0  0  0  0  0  0  0  0  0  0  0  0
   14.7279   10.3444   -5.7815 C   0  0  0  0  0  0  0  0  0  0  0  0
   13.7095    9.3757   -5.8433 O   0  0  0  0  0  0  0  0  0  0  0  0
   13.2744   10.4427  -11.2410 C   0  0  1  0  0  0  0  0  0  0  0  0
   14.4870   10.1467  -11.9394 O   0  0  0  0  0  0  0  0  0  0  0  0
    9.2257   19.0810  -12.0923 C   0  0  0  0  0  0  0  0  0  0  0  0
    7.7713   19.1177  -12.4085 N   0  0  0  0  0  0  0  0  0  0  0  0
  1  2  1  6  0  0  0
  1  7  1  0  0  0  0
  1 30  1  0  0  0  0
  3  4  1  6  0  0  0
  3  9  1  0  0  0  0
  3 39  1  0  0  0  0
  5 10  1  0  0  0  0
  5 26  1  0  0  0  0
  5 32  1  6  0  0  0
  6 12  1  0  0  0  0
  6 36  1  0  0  0  0
  6 19  1  6  0  0  0
  7  8  1  6  0  0  0
  7 14  1  0  0  0  0
  9 16  1  0  0  0  0
 10 11  1  1  0  0  0
 10 18  1  0  0  0  0
 12 13  1  6  0  0  0
 12 20  1  0  0  0  0
 14 15  1  1  0  0  0
 14 22  1  0  0  0  0
 16 17  1  6  0  0  0
 16 24  1  0  0  0  0
 18 19  1  1  0  0  0
 18 25  1  0  0  0  0
 20 21  1  6  0  0  0
 20 27  1  0  0  0  0
 22 23  1  6  0  0  0
 22 29  1  0  0  0  0
 24  2  1  1  0  0  0
 24 31  1  0  0  0  0
 25 26  1  0  0  0  0
 25 33  1  6  0  0  0
 27 28  1  6  0  0  0
 27 35  1  0  0  0  0
 29 30  1  0  0  0  0
 29 37  1  1  0  0  0
 31 32  1  6  0  0  0
 31 39  1  0  0  0  0
 33 34  1  0  0  0  0
 35 36  1  0  0  0  0
 35 41  1  6  0  0  0
 37 38  1  0  0  0  0
 39 40  1  1  0  0  0
 41 42  1  0  0  0  0
M  END
>  <CHROM.1>
179.70529934,-141.15191423,-70.27374499,-38.64009781,-11.47858287,59.99754591
134.74121486,-47.57089138,-52.86741608,11.96177221,13.30958961,-10.08558046
0.21025314,-1.05242779,0.97576070

>  <Name>
2o3w_lig

>  <RI>
0

>  <Rbt.Current_Directory>
/home/itssahil/PROJECTS/Mol_Feturizer/New_Systems/rnas/2o3w

>  <Rbt.Executable>
rbdock ($Id: //depot/dev/client3/rdock/2013.1/src/exe/rbdock.cxx#4 $)

>  <Rbt.Library>
libRbt.so (2013.1, Build901 2013/11/27)

>  <Rbt.Parameter_File>
/export/apps/rDock/src/rDock_2013.1_src/data/scripts/dock_solv.prm

>  <Rbt.Receptor>
prm/blind_docking_40.prm

>  <SCORE>
29.1194

>  <SCORE.INTER>
6.28193

>  <SCORE.INTER.CONST>
1

>  <SCORE.INTER.POLAR>
-1.046

>  <SCORE.INTER.ROT>
9

>  <SCORE.INTER.SOLV>
29.3945

>  <SCORE.INTER.VDW>
-11.7235

>  <SCORE.INTER.norm>
0.14957

>  <SCORE.INTRA>
10.6742

>  <SCORE.INTRA.DIHEDRAL>
-8.09257

>  <SCORE.INTRA.DIHEDRAL.0>
27.8999

>  <SCORE.INTRA.POLAR>
0

>  <SCORE.INTRA.POLAR.0>
0

>  <SCORE.INTRA.REPUL>
0.169891

>  <SCORE.INTRA.REPUL.0>
0

>  <SCORE.INTRA.SOLV>
5.28383

>  <SCORE.INTRA.SOLV.lig_0>
-104.479

>  <SCORE.INTRA.VDW>
11.2291

>  <SCORE.INTRA.VDW.0>
-6.17816

>  <SCORE.INTRA.norm>
0.254149

>  <SCORE.RESTR>
12.1632

>  <SCORE.RESTR.CAVITY>
12.1632

>  <SCORE.RESTR.norm>
0.289601

>  <SCORE.SYSTEM>
0

>  <SCORE.SYSTEM.CONST>
0

>  <SCORE.SYSTEM.DIHEDRAL>
0

>  <SCORE.SYSTEM.SOLV>
0

>  <SCORE.SYSTEM.norm>
0

>  <SCORE.heavy>
42

>  <SCORE.norm>
0.693319

>  <RMSD>
18.100

$$$$
2o3w_lig
 OpenBabel11021811463D
libRbt.so/2013.1/901 2013/11/27
 42 45  0  0  0  0  0  0  0  0999 V2000
   12.4263   10.0888   -8.0250 C   0  0  2  0  0  0  0  0  0  0  0  0
   12.5492   10.8476   -9.2401 O   0  0  0  0  0  0  0  0  0  0  0  0
   12.7016    9.7627  -13.4348 C   0  0  2  0  0  0  0  0  0  0  0  0
   12.3694    9.1920  -14.7743 N   0  0  0  0  0  0  0  0  0  0  0  0
   10.4961   13.4108  -10.9792 C   0  0  1  0  0  0  0  0  0  0  0  0
   10.5877   16.7072  -11.2258 C   0  0  1  0  0  0  0  0  0  0  0  0
   11.1088   10.5495   -7.3321 C   0  0  2  0  0  0  0  0  0  0  0  0
    9.9571   10.5447   -8.2508 N   0  0  0  0  0  0  0  0  0  0  0  0
   12.9527    8.6201  -12.3703 C   0  0  0  0  0  0  0  0  0  0  0  0
    9.3361   13.8763  -10.0472 C   0  0  2  0  0  0  0  0  0  0  0  0
    8.0660   14.0411  -10.7245 O   0  0  0  0  0  0  0  0  0  0  0  0
   10.3119   18.0889  -11.9213 C   0  0  2  0  0  0  0  0  0  0  0  0
    8.9504   18.1150  -12.5349 N   0  0  0  0  0  0  0  0  0  0  0  0
   11.2166   11.9755   -6.7613 C   0  0  1  0  0  0  0  0  0  0  0  0
   10.0028   12.3404   -6.1022 O   0  0  0  0  0  0  0  0  0  0  0  0
   13.3194    9.2819  -10.9882 C   0  0  2  0  0  0  0  0  0  0  0  0
   13.5770    8.2334   -9.9646 N   0  0  0  0  0  0  0  0  0  0  0  0
    9.9335   15.1475   -9.4417 C   0  0  2  0  0  0  0  0  0  0  0  0
    9.6140   16.3278  -10.2452 O   0  0  0  0  0  0  0  0  0  0  0  0
   11.4442   18.3624  -13.0214 C   0  0  1  0  0  0  0  0  0  0  0  0
   12.6767   18.7039  -12.3483 O   0  0  0  0  0  0  0  0  0  0  0  0
   12.4262   12.0571   -5.8024 C   0  0  2  0  0  0  0  0  0  0  0  0
   12.5287   13.3523   -5.2583 O   0  0  0  0  0  0  0  0  0  0  0  0
   12.1532   10.2275  -10.4967 C   0  0  2  0  0  0  0  0  0  0  0  0
   11.4521   14.9130   -9.3754 C   0  0  2  0  0  0  0  0  0  0  0  0
   11.6936   14.0565  -10.4893 O   0  0  0  0  0  0  0  0  0  0  0  0
   11.6905   17.1068  -13.9860 C   0  0  2  0  0  0  0  0  0  0  0  0
   10.5343   16.9631  -14.8100 O   0  0  0  0  0  0  0  0  0  0  0  0
   13.7268   11.6827   -6.5884 C   0  0  2  0  0  0  0  0  0  0  0  0
   13.5921   10.3392   -7.1511 O   0  0  0  0  0  0  0  0  0  0  0  0
   11.8132   11.3380  -11.5148 C   0  0  2  0  0  0  0  0  0  0  0  0
   10.6191   11.9826  -10.9923 O   0  0  0  0  0  0  0  0  0  0  0  0
   11.9609   14.2666   -8.0497 C   0  0  0  0  0  0  0  0  0  0  0  0
   11.5338   15.0589   -6.9458 O   0  0  0  0  0  0  0  0  0  0  0  0
   11.9258   15.7964  -13.1435 C   0  0  1  0  0  0  0  0  0  0  0  0
   10.7356   15.6397  -12.2895 O   0  0  0  0  0  0  0  0  0  0  0  0
   14.9639   11.7304   -5.7217 C   0  0  0  0  0  0  0  0  0  0  0  0
   15.1632   10.4880   -5.0924 O   0  0  0  0  0  0  0  0  0  0  0  0
   11.5322   10.7065  -12.9424 C   0  0  1  0  0  0  0  0  0  0  0  0
   11.3671   11.7413  -13.9158 O   0  0  0  0  0  0  0  0  0  0  0  0
   12.1459   14.4910  -14.0244 C   0  0  0  0  0  0  0  0  0  0  0  0
   11.0642   14.1849  -15.0005 N   0  0  0  0  0  0  0  0  0  0  0  0
  1  2  1  6  0  0  0
  1  7  1  0  0  0  0
  1 30  1  0  0  0  0
  3  4  1  6  0  0  0
  3  9  1  0  0  0  0
  3 39  1  0  0  0  0
  5 10  1  0  0  0  0
  5 26  1  0  0  0  0
  5 32  1  1  0  0  0
  6 12  1  0  0  0  0
  6 36  1  0  0  0  0
  6 19  1  1  0  0  0
  7  8  1  6  0  0  0
  7 14  1  0  0  0  0
  9 16  1  0  0  0  0
 10 11  1  6  0  0  0
 10 18  1  0  0  0  0
 12 13  1  6  0  0  0
 12 20  1  0  0  0  0
 14 15  1  1  0  0  0
 14 22  1  0  0  0  0
 16 17  1  1  0  0  0
 16 24  1  0  0  0  0
 18 19  1  6  0  0  0
 18 25  1  0  0  0  0
 20 21  1  1  0  0  0
 20 27  1  0  0  0  0
 22 23  1  6  0  0  0
 22 29  1  0  0  0  0
 24  2  1  1  0  0  0
 24 31  1  0  0  0  0
 25 26  1  0  0  0  0
 25 33  1  1  0  0  0
 27 28  1  6  0  0  0
 27 35  1  0  0  0  0
 29 30  1  0  0  0  0
 29 37  1  1  0  0  0
 31 32  1  1  0  0  0
 31 39  1  0  0  0  0
 33 34  1  0  0  0  0
 35 36  1  0  0  0  0
 35 41  1  6  0  0  0
 37 38  1  0  0  0  0
 39 40  1  6  0  0  0
 41 42  1  0  0  0  0
M  END
>  <CHROM.1>
-99.55887696,-164.72956877,-171.54496538,-93.60048964,-79.92185562,-55.33057490
88.12690539,135.90118591,-55.74467265,11.61967466,13.17474967,-10.28606857
-0.46106178,1.28410780,-1.86229220

>  <Name>
2o3w_lig

>  <RI>
0

>  <Rbt.Current_Directory>
/home/itssahil/PROJECTS/Mol_Feturizer/New_Systems/rnas/2o3w

>  <Rbt.Executable>
rbdock ($Id: //depot/dev/client3/rdock/2013.1/src/exe/rbdock.cxx#4 $)

>  <Rbt.Library>
libRbt.so (2013.1, Build901 2013/11/27)

>  <Rbt.Parameter_File>
/export/apps/rDock/src/rDock_2013.1_src/data/scripts/dock_solv.prm

>  <Rbt.Receptor>
prm/blind_docking_60.prm

>  <SCORE>
17.5587

>  <SCORE.INTER>
-2.4375

>  <SCORE.INTER.CONST>
1

>  <SCORE.INTER.POLAR>
-1.0583

>  <SCORE.INTER.ROT>
9

>  <SCORE.INTER.SOLV>
25.6733

>  <SCORE.INTER.VDW>
-16.2551

>  <SCORE.INTER.norm>
-0.0580357

>  <SCORE.INTRA>
3.88933

>  <SCORE.INTRA.DIHEDRAL>
-6.41739

>  <SCORE.INTRA.DIHEDRAL.0>
27.8999

>  <SCORE.INTRA.POLAR>
0

>  <SCORE.INTRA.POLAR.0>
0

>  <SCORE.INTRA.REPUL>
0

>  <SCORE.INTRA.REPUL.0>
0

>  <SCORE.INTRA.SOLV>
3.98992

>  <SCORE.INTRA.SOLV.lig_0>
-104.479

>  <SCORE.INTRA.VDW>
5.10307

>  <SCORE.INTRA.VDW.0>
-6.17816

>  <SCORE.INTRA.norm>
0.0926032

>  <SCORE.RESTR>
16.1068

>  <SCORE.RESTR.CAVITY>
16.1068

>  <SCORE.RESTR.norm>
0.383496

>  <SCORE.SYSTEM>
0

>  <SCORE.SYSTEM.CONST>
0

>  <SCORE.SYSTEM.DIHEDRAL>
0

>  <SCORE.SYSTEM.SOLV>
0

>  <SCORE.SYSTEM.norm>
0

>  <SCORE.heavy>
42

>  <SCORE.norm>
0.418063

>  <RMSD>
18.114

$$$$
2o3w_lig
 OpenBabel11021811463D
libRbt.so/2013.1/901 2013/11/27
 42 45  0  0  0  0  0  0  0  0999 V2000
   12.8587   12.1219   -6.6435 C   0  0  2  0  0  0  0  0  0  0  0  0
   13.0717   12.6054   -7.9807 O   0  0  0  0  0  0  0  0  0  0  0  0
   13.4834    9.3683  -10.8352 C   0  0  2  0  0  0  0  0  0  0  0  0
   13.2526    8.4359  -11.9787 N   0  0  0  0  0  0  0  0  0  0  0  0
   12.4647   13.6661  -11.3643 C   0  0  1  0  0  0  0  0  0  0  0  0
   10.3232   15.2189  -12.6921 C   0  0  1  0  0  0  0  0  0  0  0  0
   12.8919   13.3620   -5.7006 C   0  0  2  0  0  0  0  0  0  0  0  0
   12.0197   14.4520   -6.1717 N   0  0  0  0  0  0  0  0  0  0  0  0
   12.3243    9.2613   -9.7643 C   0  0  0  0  0  0  0  0  0  0  0  0
   12.5570   13.3862  -12.8953 C   0  0  2  0  0  0  0  0  0  0  0  0
   13.0543   14.5049  -13.6699 O   0  0  0  0  0  0  0  0  0  0  0  0
    9.1918   15.2360  -11.6020 C   0  0  2  0  0  0  0  0  0  0  0  0
    7.8413   15.1442  -12.2334 N   0  0  0  0  0  0  0  0  0  0  0  0
   14.3069   13.9530   -5.5620 C   0  0  1  0  0  0  0  0  0  0  0  0
   14.2972   15.0606   -4.6597 O   0  0  0  0  0  0  0  0  0  0  0  0
   12.6345   10.2485   -8.5761 C   0  0  2  0  0  0  0  0  0  0  0  0
   11.5693   10.1631   -7.5409 N   0  0  0  0  0  0  0  0  0  0  0  0
   11.1236   12.9516  -13.2047 C   0  0  2  0  0  0  0  0  0  0  0  0
   10.2840   14.0911  -13.5754 O   0  0  0  0  0  0  0  0  0  0  0  0
    9.3262   16.5678  -10.7215 C   0  0  1  0  0  0  0  0  0  0  0  0
   10.4667   16.4345   -9.8438 O   0  0  0  0  0  0  0  0  0  0  0  0
   15.2825   12.8503   -5.0915 C   0  0  2  0  0  0  0  0  0  0  0  0
   16.5796   13.3794   -4.9436 O   0  0  0  0  0  0  0  0  0  0  0  0
   12.7456   11.7344   -9.1011 C   0  0  2  0  0  0  0  0  0  0  0  0
   10.6028   12.2673  -11.9296 C   0  0  2  0  0  0  0  0  0  0  0  0
   11.3009   12.9502  -10.8908 O   0  0  0  0  0  0  0  0  0  0  0  0
    9.4875   17.8893  -11.6131 C   0  0  2  0  0  0  0  0  0  0  0  0
    8.2429   18.1190  -12.2723 O   0  0  0  0  0  0  0  0  0  0  0  0
   15.2766   11.6841   -6.1353 C   0  0  2  0  0  0  0  0  0  0  0  0
   13.9189   11.1585   -6.2781 O   0  0  0  0  0  0  0  0  0  0  0  0
   13.8232   11.9042  -10.1944 C   0  0  2  0  0  0  0  0  0  0  0  0
   13.6603   13.2640  -10.6833 O   0  0  0  0  0  0  0  0  0  0  0  0
   10.8549   10.7293  -11.8582 C   0  0  0  0  0  0  0  0  0  0  0  0
   10.2611   10.1022  -12.9909 O   0  0  0  0  0  0  0  0  0  0  0  0
   10.6401   17.7082  -12.6719 C   0  0  1  0  0  0  0  0  0  0  0  0
   10.2832   16.5198  -13.4660 O   0  0  0  0  0  0  0  0  0  0  0  0
   16.2027   10.5538   -5.7497 C   0  0  0  0  0  0  0  0  0  0  0  0
   15.7666    9.9565   -4.5529 O   0  0  0  0  0  0  0  0  0  0  0  0
   13.5913   10.8556  -11.3615 C   0  0  1  0  0  0  0  0  0  0  0  0
   14.6723   10.9106  -12.2963 O   0  0  0  0  0  0  0  0  0  0  0  0
   10.8472   18.9642  -13.6249 C   0  0  0  0  0  0  0  0  0  0  0  0
   11.9626   18.8501  -14.6044 N   0  0  0  0  0  0  0  0  0  0  0  0
  1  2  1  6  0  0  0
  1  7  1  0  0  0  0
  1 30  1  0  0  0  0
  3  4  1  6  0  0  0
  3  9  1  0  0  0  0
  3 39  1  0  0  0  0
  5 10  1  0  0  0  0
  5 26  1  0  0  0  0
  5 32  1  1  0  0  0
  6 12  1  0  0  0  0
  6 36  1  0  0  0  0
  6 19  1  6  0  0  0
  7  8  1  6  0  0  0
  7 14  1  0  0  0  0
  9 16  1  0  0  0  0
 10 11  1  6  0  0  0
 10 18  1  0  0  0  0
 12 13  1  6  0  0  0
 12 20  1  0  0  0  0
 14 15  1  1  0  0  0
 14 22  1  0  0  0  0
 16 17  1  1  0  0  0
 16 24  1  0  0  0  0
 18 19  1  1  0  0  0
 18 25  1  0  0  0  0
 20 21  1  1  0  0  0
 20 27  1  0  0  0  0
 22 23  1  6  0  0  0
 22 29  1  0  0  0  0
 24  2  1  1  0  0  0
 24 31  1  0  0  0  0
 25 26  1  0  0  0  0
 25 33  1  6  0  0  0
 27 28  1  6  0  0  0
 27 35  1  0  0  0  0
 29 30  1  0  0  0  0
 29 37  1  1  0  0  0
 31 32  1  6  0  0  0
 31 39  1  0  0  0  0
 33 34  1  0  0  0  0
 35 36  1  0  0  0  0
 35 41  1  6  0  0  0
 37 38  1  0  0  0  0
 39 40  1  6  0  0  0
 41 42  1  0  0  0  0
M  END
>  <CHROM.1>
-164.00002771,-87.60012428,-94.36981861,-50.03132195,-17.55273847,-57.35525747
63.80693286,-64.93849660,177.74994639,12.28463904,13.30858032,-9.98606713
-0.02476490,-1.07533257,0.59168589

>  <Name>
2o3w_lig

>  <RI>
0

>  <Rbt.Current_Directory>
/home/itssahil/PROJECTS/Mol_Feturizer/New_Systems/rnas/2o3w

>  <Rbt.Executable>
rbdock ($Id: //depot/dev/client3/rdock/2013.1/src/exe/rbdock.cxx#4 $)

>  <Rbt.Library>
libRbt.so (2013.1, Build901 2013/11/27)

>  <Rbt.Parameter_File>
/export/apps/rDock/src/rDock_2013.1_src/data/scripts/dock_solv.prm

>  <Rbt.Receptor>
prm/blind_docking_40.prm

>  <SCORE>
10.7804

>  <SCORE.INTER>
-3.36356

>  <SCORE.INTER.CONST>
1

>  <SCORE.INTER.POLAR>
-1.04209

>  <SCORE.INTER.ROT>
9

>  <SCORE.INTER.SOLV>
29.621

>  <SCORE.INTER.VDW>
-18.2424

>  <SCORE.INTER.norm>
-0.0800848

>  <SCORE.INTRA>
4.06747

>  <SCORE.INTRA.DIHEDRAL>
-12.6474

>  <SCORE.INTRA.DIHEDRAL.0>
27.8999

>  <SCORE.INTRA.POLAR>
0

>  <SCORE.INTRA.POLAR.0>
0

>  <SCORE.INTRA.REPUL>
0

>  <SCORE.INTRA.REPUL.0>
0

>  <SCORE.INTRA.SOLV>
0.287342

>  <SCORE.INTRA.SOLV.lig_0>
-104.479

>  <SCORE.INTRA.VDW>
10.2475

>  <SCORE.INTRA.VDW.0>
-6.17816

>  <SCORE.INTRA.norm>
0.0968446

>  <SCORE.RESTR>
10.0764

>  <SCORE.RESTR.CAVITY>
10.0764

>  <SCORE.RESTR.norm>
0.239915

>  <SCORE.SYSTEM>
0

>  <SCORE.SYSTEM.CONST>
0

>  <SCORE.SYSTEM.DIHEDRAL>
0

>  <SCORE.SYSTEM.SOLV>
0

>  <SCORE.SYSTEM.norm>
0

>  <SCORE.heavy>
42

>  <SCORE.norm>
0.256675

>  <RMSD>
18.119

$$$$
2o3w_lig
 OpenBabel11021811463D
libRbt.so/2013.1/901 2013/11/27
 42 45  0  0  0  0  0  0  0  0999 V2000
   12.5718   10.4654   -8.4064 C   0  0  2  0  0  0  0  0  0  0  0  0
   12.0591   10.9627   -9.6543 O   0  0  0  0  0  0  0  0  0  0  0  0
   15.2260    9.4712  -12.2121 C   0  0  2  0  0  0  0  0  0  0  0  0
   16.0584    9.1387  -13.4066 N   0  0  0  0  0  0  0  0  0  0  0  0
   12.4196   13.2200  -11.4915 C   0  0  1  0  0  0  0  0  0  0  0  0
    8.7660   15.7810  -11.7568 C   0  0  1  0  0  0  0  0  0  0  0  0
   11.3480   10.2434   -7.4678 C   0  0  2  0  0  0  0  0  0  0  0  0
   10.2750    9.4679   -8.1143 N   0  0  0  0  0  0  0  0  0  0  0  0
   13.8307    8.7277  -12.2599 C   0  0  0  0  0  0  0  0  0  0  0  0
   11.8518   14.4697  -10.7520 C   0  0  2  0  0  0  0  0  0  0  0  0
   11.0201   14.1508   -9.6094 O   0  0  0  0  0  0  0  0  0  0  0  0
    9.0940   17.2021  -12.3415 C   0  0  2  0  0  0  0  0  0  0  0  0
   10.4284   17.6783  -11.8687 N   0  0  0  0  0  0  0  0  0  0  0  0
   10.7198   11.5701   -7.0030 C   0  0  1  0  0  0  0  0  0  0  0  0
    9.6289   11.3198   -6.1152 O   0  0  0  0  0  0  0  0  0  0  0  0
   13.0101    9.0991  -10.9672 C   0  0  2  0  0  0  0  0  0  0  0  0
   11.6946    8.4041  -10.9719 N   0  0  0  0  0  0  0  0  0  0  0  0
   11.1505   15.1999  -11.8984 C   0  0  2  0  0  0  0  0  0  0  0  0
    9.7550   14.7805  -12.0297 O   0  0  0  0  0  0  0  0  0  0  0  0
    7.9357   18.2265  -11.9222 C   0  0  1  0  0  0  0  0  0  0  0  0
    6.7541   17.9411  -12.7041 O   0  0  0  0  0  0  0  0  0  0  0  0
   11.8026   12.4468   -6.3336 C   0  0  2  0  0  0  0  0  0  0  0  0
   11.2398   13.6586   -5.8873 O   0  0  0  0  0  0  0  0  0  0  0  0
   12.7844   10.6604  -10.8802 C   0  0  2  0  0  0  0  0  0  0  0  0
   11.9538   14.8683  -13.1674 C   0  0  2  0  0  0  0  0  0  0  0  0
   12.4589   13.5631  -12.8957 O   0  0  0  0  0  0  0  0  0  0  0  0
    7.5764   18.1547  -10.3623 C   0  0  2  0  0  0  0  0  0  0  0  0
    8.6873   18.6836   -9.6395 O   0  0  0  0  0  0  0  0  0  0  0  0
   12.9500   12.7160   -7.3634 C   0  0  2  0  0  0  0  0  0  0  0  0
   13.5111   11.4440   -7.8184 O   0  0  0  0  0  0  0  0  0  0  0  0
   14.1070   11.4579  -10.8862 C   0  0  2  0  0  0  0  0  0  0  0  0
   13.7111   12.8533  -10.9886 O   0  0  0  0  0  0  0  0  0  0  0  0
   13.1121   15.8621  -13.4915 C   0  0  0  0  0  0  0  0  0  0  0  0
   12.6014   17.1917  -13.5045 O   0  0  0  0  0  0  0  0  0  0  0  0
    7.2989   16.6671   -9.9238 C   0  0  1  0  0  0  0  0  0  0  0  0
    8.5117   15.9056  -10.2693 O   0  0  0  0  0  0  0  0  0  0  0  0
   14.0602   13.5647   -6.7882 C   0  0  0  0  0  0  0  0  0  0  0  0
   13.5482   14.7983   -6.3461 O   0  0  0  0  0  0  0  0  0  0  0  0
   14.9981   11.0338  -12.1279 C   0  0  1  0  0  0  0  0  0  0  0  0
   16.2822   11.6587  -12.0500 O   0  0  0  0  0  0  0  0  0  0  0  0
    6.9661   16.4990   -8.3780 C   0  0  0  0  0  0  0  0  0  0  0  0
    8.1188   16.6673   -7.4509 N   0  0  0  0  0  0  0  0  0  0  0  0
  1  2  1  6  0  0  0
  1  7  1  0  0  0  0
  1 30  1  0  0  0  0
  3  4  1  6  0  0  0
  3  9  1  0  0  0  0
  3 39  1  0  0  0  0
  5 10  1  0  0  0  0
  5 26  1  0  0  0  0
  5 32  1  1  0  0  0
  6 12  1  0  0  0  0
  6 36  1  0  0  0  0
  6 19  1  1  0  0  0
  7  8  1  6  0  0  0
  7 14  1  0  0  0  0
  9 16  1  0  0  0  0
 10 11  1  1  0  0  0
 10 18  1  0  0  0  0
 12 13  1  1  0  0  0
 12 20  1  0  0  0  0
 14 15  1  1  0  0  0
 14 22  1  0  0  0  0
 16 17  1  6  0  0  0
 16 24  1  0  0  0  0
 18 19  1  6  0  0  0
 18 25  1  0  0  0  0
 20 21  1  6  0  0  0
 20 27  1  0  0  0  0
 22 23  1  6  0  0  0
 22 29  1  0  0  0  0
 24  2  1  1  0  0  0
 24 31  1  0  0  0  0
 25 26  1  0  0  0  0
 25 33  1  1  0  0  0
 27 28  1  1  0  0  0
 27 35  1  0  0  0  0
 29 30  1  0  0  0  0
 29 37  1  1  0  0  0
 31 32  1  6  0  0  0
 31 39  1  0  0  0  0
 33 34  1  0  0  0  0
 35 36  1  0  0  0  0
 35 41  1  1  0  0  0
 37 38  1  0  0  0  0
 39 40  1  1  0  0  0
 41 42  1  0  0  0  0
M  END
>  <CHROM.1>
-150.29622054,144.11364040,41.75283873,114.40789583,52.91919033,-52.55486324
-58.29462567,-20.71587487,-72.66741006,11.47119368,13.55946463,-10.20923394
0.47379635,-0.82970578,2.11625772

>  <Name>
2o3w_lig

>  <RI>
0

>  <Rbt.Current_Directory>
/home/itssahil/PROJECTS/Mol_Feturizer/New_Systems/rnas/2o3w

>  <Rbt.Executable>
rbdock ($Id: //depot/dev/client3/rdock/2013.1/src/exe/rbdock.cxx#4 $)

>  <Rbt.Library>
libRbt.so (2013.1, Build901 2013/11/27)

>  <Rbt.Parameter_File>
/export/apps/rDock/src/rDock_2013.1_src/data/scripts/dock_solv.prm

>  <Rbt.Receptor>
prm/blind_docking_100.prm

>  <SCORE>
2.83354

>  <SCORE.INTER>
-7.8051

>  <SCORE.INTER.CONST>
1

>  <SCORE.INTER.POLAR>
-0.824621

>  <SCORE.INTER.ROT>
9

>  <SCORE.INTER.SOLV>
27.9141

>  <SCORE.INTER.VDW>
-21.3594

>  <SCORE.INTER.norm>
-0.185836

>  <SCORE.INTRA>
3.79553

>  <SCORE.INTRA.DIHEDRAL>
-4.7184

>  <SCORE.INTRA.DIHEDRAL.0>
27.8999

>  <SCORE.INTRA.POLAR>
0

>  <SCORE.INTRA.POLAR.0>
0

>  <SCORE.INTRA.REPUL>
0

>  <SCORE.INTRA.REPUL.0>
0

>  <SCORE.INTRA.SOLV>
2.5445

>  <SCORE.INTRA.SOLV.lig_0>
-104.479

>  <SCORE.INTRA.VDW>
4.88247

>  <SCORE.INTRA.VDW.0>
-6.17816

>  <SCORE.INTRA.norm>
0.0903697

>  <SCORE.RESTR>
6.84312

>  <SCORE.RESTR.CAVITY>
6.84312

>  <SCORE.RESTR.norm>
0.162931

>  <SCORE.SYSTEM>
0

>  <SCORE.SYSTEM.CONST>
0

>  <SCORE.SYSTEM.DIHEDRAL>
0

>  <SCORE.SYSTEM.SOLV>
0

>  <SCORE.SYSTEM.norm>
0

>  <SCORE.heavy>
42

>  <SCORE.norm>
0.0674653

>  <RMSD>
18.121

$$$$
2o3w_lig
 OpenBabel11021811463D
libRbt.so/2013.1/901 2013/11/27
 42 45  0  0  0  0  0  0  0  0999 V2000
   12.0628   11.2229   -7.8503 C   0  0  2  0  0  0  0  0  0  0  0  0
   12.4760   11.8217   -9.0905 O   0  0  0  0  0  0  0  0  0  0  0  0
   13.9200    8.7782  -11.8196 C   0  0  2  0  0  0  0  0  0  0  0  0
   14.0880    7.8927  -13.0104 N   0  0  0  0  0  0  0  0  0  0  0  0
   12.4372   13.1864  -11.8867 C   0  0  1  0  0  0  0  0  0  0  0  0
    9.0944   16.2109  -12.0698 C   0  0  1  0  0  0  0  0  0  0  0  0
   11.3070   12.3215   -7.0441 C   0  0  2  0  0  0  0  0  0  0  0  0
   10.2722   12.9975   -7.8457 N   0  0  0  0  0  0  0  0  0  0  0  0
   12.5276    8.5300  -11.1115 C   0  0  0  0  0  0  0  0  0  0  0  0
   12.0899   14.4815  -11.0912 C   0  0  2  0  0  0  0  0  0  0  0  0
   11.3332   14.2435   -9.8789 O   0  0  0  0  0  0  0  0  0  0  0  0
    9.7050   17.3976  -11.2405 C   0  0  2  0  0  0  0  0  0  0  0  0
   10.0955   16.9461   -9.8713 N   0  0  0  0  0  0  0  0  0  0  0  0
   12.2533   13.4188   -6.5230 C   0  0  1  0  0  0  0  0  0  0  0  0
   11.5255   14.3811   -5.7581 O   0  0  0  0  0  0  0  0  0  0  0  0
   12.4190    9.4735   -9.8544 C   0  0  2  0  0  0  0  0  0  0  0  0
   11.1245    9.2556   -9.1542 N   0  0  0  0  0  0  0  0  0  0  0  0
   11.3789   15.3075  -12.1643 C   0  0  2  0  0  0  0  0  0  0  0  0
    9.9375   15.0563  -12.1694 O   0  0  0  0  0  0  0  0  0  0  0  0
    8.6430   18.5951  -11.1705 C   0  0  1  0  0  0  0  0  0  0  0  0
    8.5846   19.2438  -12.4608 O   0  0  0  0  0  0  0  0  0  0  0  0
   13.3828   12.7722   -5.6891 C   0  0  2  0  0  0  0  0  0  0  0  0
   14.2486   13.7654   -5.1906 O   0  0  0  0  0  0  0  0  0  0  0  0
   12.5411   10.9891  -10.2833 C   0  0  2  0  0  0  0  0  0  0  0  0
   12.0194   14.9051  -13.5034 C   0  0  2  0  0  0  0  0  0  0  0  0
   12.3894   13.5455  -13.2866 O   0  0  0  0  0  0  0  0  0  0  0  0
    7.1770   18.1027  -10.7513 C   0  0  2  0  0  0  0  0  0  0  0  0
    7.2318   17.7024   -9.3827 O   0  0  0  0  0  0  0  0  0  0  0  0
   14.1646   11.7575   -6.5884 C   0  0  2  0  0  0  0  0  0  0  0  0
   13.2435   10.7433   -7.1009 O   0  0  0  0  0  0  0  0  0  0  0  0
   13.8561   11.2951  -11.0333 C   0  0  2  0  0  0  0  0  0  0  0  0
   13.7165   12.6630  -11.5065 O   0  0  0  0  0  0  0  0  0  0  0  0
   13.2527   15.7618  -13.9269 C   0  0  0  0  0  0  0  0  0  0  0  0
   12.8732   17.1332  -13.9909 O   0  0  0  0  0  0  0  0  0  0  0  0
    6.7165   16.8965  -11.6542 C   0  0  1  0  0  0  0  0  0  0  0  0
    7.7413   15.8505  -11.4935 O   0  0  0  0  0  0  0  0  0  0  0  0
   15.2888   11.0707   -5.8480 C   0  0  0  0  0  0  0  0  0  0  0  0
   16.2833   12.0039   -5.5026 O   0  0  0  0  0  0  0  0  0  0  0  0
   14.0393   10.2950  -12.2506 C   0  0  1  0  0  0  0  0  0  0  0  0
   15.3244   10.4785  -12.8509 O   0  0  0  0  0  0  0  0  0  0  0  0
    5.2811   16.3212  -11.2835 C   0  0  0  0  0  0  0  0  0  0  0  0
    5.0098   16.1604   -9.8285 N   0  0  0  0  0  0  0  0  0  0  0  0
  1  2  1  6  0  0  0
  1  7  1  0  0  0  0
  1 30  1  0  0  0  0
  3  4  1  6  0  0  0
  3  9  1  0  0  0  0
  3 39  1  0  0  0  0
  5 10  1  0  0  0  0
  5 26  1  0  0  0  0
  5 32  1  1  0  0  0
  6 12  1  0  0  0  0
  6 36  1  0  0  0  0
  6 19  1  1  0  0  0
  7  8  1  6  0  0  0
  7 14  1  0  0  0  0
  9 16  1  0  0  0  0
 10 11  1  1  0  0  0
 10 18  1  0  0  0  0
 12 13  1  1  0  0  0
 12 20  1  0  0  0  0
 14 15  1  1  0  0  0
 14 22  1  0  0  0  0
 16 17  1  6  0  0  0
 16 24  1  0  0  0  0
 18 19  1  6  0  0  0
 18 25  1  0  0  0  0
 20 21  1  6  0  0  0
 20 27  1  0  0  0  0
 22 23  1  6  0  0  0
 22 29  1  0  0  0  0
 24  2  1  1  0  0  0
 24 31  1  0  0  0  0
 25 26  1  0  0  0  0
 25 33  1  1  0  0  0
 27 28  1  1  0  0  0
 27 35  1  0  0  0  0
 29 30  1  0  0  0  0
 29 37  1  1  0  0  0
 31 32  1  6  0  0  0
 31 39  1  0  0  0  0
 33 34  1  0  0  0  0
 35 36  1  0  0  0  0
 35 41  1  1  0  0  0
 37 38  1  0  0  0  0
 39 40  1  1  0  0  0
 41 42  1  0  0  0  0
M  END
>  <CHROM.1>
-147.63536533,124.16864357,-31.18904984,126.60340961,-12.10899880,-57.24725170
-66.12834995,-32.91957680,-43.28803281,11.51986976,13.62374190,-10.13247471
0.30366911,-0.84558544,1.58573653

>  <Name>
2o3w_lig

>  <RI>
0

>  <Rbt.Current_Directory>
/home/itssahil/PROJECTS/Mol_Feturizer/New_Systems/rnas/2o3w

>  <Rbt.Executable>
rbdock ($Id: //depot/dev/client3/rdock/2013.1/src/exe/rbdock.cxx#4 $)

>  <Rbt.Library>
libRbt.so (2013.1, Build901 2013/11/27)

>  <Rbt.Parameter_File>
/export/apps/rDock/src/rDock_2013.1_src/data/scripts/dock_solv.prm

>  <Rbt.Receptor>
prm/blind_docking_100.prm

>  <SCORE>
-0.225698

>  <SCORE.INTER>
-17.6595

>  <SCORE.INTER.CONST>
1

>  <SCORE.INTER.POLAR>
-1.26447

>  <SCORE.INTER.ROT>
9

>  <SCORE.INTER.SOLV>
22.2127

>  <SCORE.INTER.VDW>
-24.5623

>  <SCORE.INTER.norm>
-0.420464

>  <SCORE.INTRA>
10.9918

>  <SCORE.INTRA.DIHEDRAL>
4.283

>  <SCORE.INTRA.DIHEDRAL.0>
27.8999

>  <SCORE.INTRA.POLAR>
0

>  <SCORE.INTRA.POLAR.0>
0

>  <SCORE.INTRA.REPUL>
0.014334

>  <SCORE.INTRA.REPUL.0>
0

>  <SCORE.INTRA.SOLV>
2.20866

>  <SCORE.INTRA.SOLV.lig_0>
-104.479

>  <SCORE.INTRA.VDW>
7.67431

>  <SCORE.INTRA.VDW.0>
-6.17816

>  <SCORE.INTRA.norm>
0.26171

>  <SCORE.RESTR>
6.44197

>  <SCORE.RESTR.CAVITY>
6.44197

>  <SCORE.RESTR.norm>
0.15338

>  <SCORE.SYSTEM>
0

>  <SCORE.SYSTEM.CONST>
0

>  <SCORE.SYSTEM.DIHEDRAL>
0

>  <SCORE.SYSTEM.SOLV>
0

>  <SCORE.SYSTEM.norm>
0

>  <SCORE.heavy>
42

>  <SCORE.norm>
-0.00537375

>  <RMSD>
18.125

$$$$
2o3w_lig
 OpenBabel11021811463D
libRbt.so/2013.1/901 2013/11/27
 42 45  0  0  0  0  0  0  0  0999 V2000
   12.7138   14.2385  -12.1210 C   0  0  2  0  0  0  0  0  0  0  0  0
   12.3333   12.8539  -12.1950 O   0  0  0  0  0  0  0  0  0  0  0  0
   14.1246    9.0566  -11.1141 C   0  0  2  0  0  0  0  0  0  0  0  0
   14.8477    7.9784  -10.3759 N   0  0  0  0  0  0  0  0  0  0  0  0
   11.5259   11.5518   -8.6509 C   0  0  1  0  0  0  0  0  0  0  0  0
   12.7171   12.2318   -5.9699 C   0  0  1  0  0  0  0  0  0  0  0  0
   12.0218   14.8337  -10.8580 C   0  0  2  0  0  0  0  0  0  0  0  0
   12.2365   14.0090   -9.6562 N   0  0  0  0  0  0  0  0  0  0  0  0
   15.0959   10.2485  -11.4857 C   0  0  0  0  0  0  0  0  0  0  0  0
   10.3828   12.2628   -7.8644 C   0  0  2  0  0  0  0  0  0  0  0  0
   10.5289   13.7020   -7.7849 O   0  0  0  0  0  0  0  0  0  0  0  0
   13.4843   10.8632   -5.8850 C   0  0  2  0  0  0  0  0  0  0  0  0
   13.3772   10.2757   -4.5159 N   0  0  0  0  0  0  0  0  0  0  0  0
   10.4986   14.9715  -11.0365 C   0  0  1  0  0  0  0  0  0  0  0  0
    9.9124   15.5565   -9.8725 O   0  0  0  0  0  0  0  0  0  0  0  0
   14.2833   11.3403  -12.2796 C   0  0  2  0  0  0  0  0  0  0  0  0
   15.1714   12.4722  -12.6587 N   0  0  0  0  0  0  0  0  0  0  0  0
   10.4324   11.5174   -6.5297 C   0  0  2  0  0  0  0  0  0  0  0  0
   11.3386   12.1683   -5.5833 O   0  0  0  0  0  0  0  0  0  0  0  0
   15.0163   11.0895   -6.2959 C   0  0  1  0  0  0  0  0  0  0  0  0
   15.0920   11.2888   -7.7254 O   0  0  0  0  0  0  0  0  0  0  0  0
   10.2014   15.8101  -12.3005 C   0  0  2  0  0  0  0  0  0  0  0  0
    8.8108   15.9597  -12.4688 O   0  0  0  0  0  0  0  0  0  0  0  0
   13.0789   11.8794  -11.4109 C   0  0  2  0  0  0  0  0  0  0  0  0
   10.9009   10.0898   -6.8580 C   0  0  2  0  0  0  0  0  0  0  0  0
   11.7389   10.2805   -7.9955 O   0  0  0  0  0  0  0  0  0  0  0  0
   15.6839   12.3375   -5.5447 C   0  0  2  0  0  0  0  0  0  0  0  0
   15.8164   11.9905   -4.1668 O   0  0  0  0  0  0  0  0  0  0  0  0
   10.8360   15.1021  -13.5437 C   0  0  2  0  0  0  0  0  0  0  0  0
   12.2766   14.9500  -13.3410 O   0  0  0  0  0  0  0  0  0  0  0  0
   12.1155   10.7588  -10.9622 C   0  0  2  0  0  0  0  0  0  0  0  0
   11.1929   11.3963  -10.0365 O   0  0  0  0  0  0  0  0  0  0  0  0
    9.7560    9.0762   -7.1680 C   0  0  0  0  0  0  0  0  0  0  0  0
    9.0082    8.8335   -5.9802 O   0  0  0  0  0  0  0  0  0  0  0  0
   14.7875   13.6238   -5.6993 C   0  0  1  0  0  0  0  0  0  0  0  0
   13.4646   13.2682   -5.1575 O   0  0  0  0  0  0  0  0  0  0  0  0
   10.5983   15.8607  -14.8290 C   0  0  0  0  0  0  0  0  0  0  0  0
   10.4047   14.9619  -15.8938 O   0  0  0  0  0  0  0  0  0  0  0  0
   12.9213    9.5976  -10.2424 C   0  0  1  0  0  0  0  0  0  0  0  0
   12.0542    8.4951   -9.9630 O   0  0  0  0  0  0  0  0  0  0  0  0
   15.3604   14.9060   -4.9533 C   0  0  0  0  0  0  0  0  0  0  0  0
   15.6610   16.0752   -5.8246 N   0  0  0  0  0  0  0  0  0  0  0  0
  1  2  1  6  0  0  0
  1  7  1  0  0  0  0
  1 30  1  0  0  0  0
  3  4  1  1  0  0  0
  3  9  1  0  0  0  0
  3 39  1  0  0  0  0
  5 10  1  0  0  0  0
  5 26  1  0  0  0  0
  5 32  1  6  0  0  0
  6 12  1  0  0  0  0
  6 36  1  0  0  0  0
  6 19  1  1  0  0  0
  7  8  1  1  0  0  0
  7 14  1  0  0  0  0
  9 16  1  0  0  0  0
 10 11  1  1  0  0  0
 10 18  1  0  0  0  0
 12 13  1  1  0  0  0
 12 20  1  0  0  0  0
 14 15  1  1  0  0  0
 14 22  1  0  0  0  0
 16 17  1  1  0  0  0
 16 24  1  0  0  0  0
 18 19  1  1  0  0  0
 18 25  1  0  0  0  0
 20 21  1  6  0  0  0
 20 27  1  0  0  0  0
 22 23  1  6  0  0  0
 22 29  1  0  0  0  0
 24  2  1  6  0  0  0
 24 31  1  0  0  0  0
 25 26  1  0  0  0  0
 25 33  1  6  0  0  0
 27 28  1  1  0  0  0
 27 35  1  0  0  0  0
 29 30  1  0  0  0  0
 29 37  1  6  0  0  0
 31 32  1  1  0  0  0
 31 39  1  0  0  0  0
 33 34  1  0  0  0  0
 35 36  1  0  0  0  0
 35 41  1  1  0  0  0
 37 38  1  0  0  0  0
 39 40  1  6  0  0  0
 41 42  1  0  0  0  0
M  END
>  <CHROM.1>
-83.56696999,179.93312674,-73.35090896,-62.30016039,-89.98989806,-68.10818286
-144.09255826,-84.57529489,119.68963386,12.43481621,12.38677460,-9.15978489
3.02387308,1.28563494,-2.61807026

>  <Name>
2o3w_lig

>  <RI>
0

>  <Rbt.Current_Directory>
/home/itssahil/PROJECTS/Mol_Feturizer/New_Systems/rnas/2o3w

>  <Rbt.Executable>
rbdock ($Id: //depot/dev/client3/rdock/2013.1/src/exe/rbdock.cxx#4 $)

>  <Rbt.Library>
libRbt.so (2013.1, Build901 2013/11/27)

>  <Rbt.Parameter_File>
/export/apps/rDock/src/rDock_2013.1_src/data/scripts/dock_solv.prm

>  <Rbt.Receptor>
prm/blind_docking_40.prm

>  <SCORE>
38.7575

>  <SCORE.INTER>
24.8307

>  <SCORE.INTER.CONST>
1

>  <SCORE.INTER.POLAR>
-1.35011

>  <SCORE.INTER.ROT>
9

>  <SCORE.INTER.SOLV>
41.6575

>  <SCORE.INTER.VDW>
-2.43166

>  <SCORE.INTER.norm>
0.591207

>  <SCORE.INTRA>
0.576999

>  <SCORE.INTRA.DIHEDRAL>
-9.36961

>  <SCORE.INTRA.DIHEDRAL.0>
27.8999

>  <SCORE.INTRA.POLAR>
0

>  <SCORE.INTRA.POLAR.0>
0

>  <SCORE.INTRA.REPUL>
0

>  <SCORE.INTRA.REPUL.0>
0

>  <SCORE.INTRA.SOLV>
2.73303

>  <SCORE.INTRA.SOLV.lig_0>
-104.479

>  <SCORE.INTRA.VDW>
3.89529

>  <SCORE.INTRA.VDW.0>
-6.17816

>  <SCORE.INTRA.norm>
0.0137381

>  <SCORE.RESTR>
13.3498

>  <SCORE.RESTR.CAVITY>
13.3498

>  <SCORE.RESTR.norm>
0.317852

>  <SCORE.SYSTEM>
0

>  <SCORE.SYSTEM.CONST>
0

>  <SCORE.SYSTEM.DIHEDRAL>
0

>  <SCORE.SYSTEM.SOLV>
0

>  <SCORE.SYSTEM.norm>
0

>  <SCORE.heavy>
42

>  <SCORE.norm>
0.922797

>  <RMSD>
18.133

$$$$
2o3w_lig
 OpenBabel11021811463D
libRbt.so/2013.1/901 2013/11/27
 42 45  0  0  0  0  0  0  0  0999 V2000
   12.6427   11.9066  -10.9829 C   0  0  2  0  0  0  0  0  0  0  0  0
   12.5791   12.9877  -11.9287 O   0  0  0  0  0  0  0  0  0  0  0  0
   10.3568   16.6867  -11.5101 C   0  0  2  0  0  0  0  0  0  0  0  0
    9.2484   17.6840  -11.4257 N   0  0  0  0  0  0  0  0  0  0  0  0
   11.9465   12.4446   -9.1015 C   0  0  1  0  0  0  0  0  0  0  0  0
   15.0145   11.5982   -6.2852 C   0  0  1  0  0  0  0  0  0  0  0  0
   14.0478   11.2505  -11.1356 C   0  0  2  0  0  0  0  0  0  0  0  0
   15.1386   12.2403  -11.1045 N   0  0  0  0  0  0  0  0  0  0  0  0
   10.4329   16.0334  -12.9486 C   0  0  0  0  0  0  0  0  0  0  0  0
   12.4534   12.9329   -7.7103 C   0  0  2  0  0  0  0  0  0  0  0  0
   13.6151   13.7962   -7.7761 O   0  0  0  0  0  0  0  0  0  0  0  0
   15.3990   10.6301   -5.1089 C   0  0  2  0  0  0  0  0  0  0  0  0
   14.1897   10.2351   -4.3261 N   0  0  0  0  0  0  0  0  0  0  0  0
   14.1895   10.4740  -12.4577 C   0  0  1  0  0  0  0  0  0  0  0  0
   15.4759    9.8576  -12.5370 O   0  0  0  0  0  0  0  0  0  0  0  0
   11.6310   15.0107  -12.9819 C   0  0  2  0  0  0  0  0  0  0  0  0
   11.7413   14.3866  -14.3280 N   0  0  0  0  0  0  0  0  0  0  0  0
   12.6577   11.6020   -6.9848 C   0  0  2  0  0  0  0  0  0  0  0  0
   14.0142   11.0879   -7.1755 O   0  0  0  0  0  0  0  0  0  0  0  0
   16.4843   11.3432   -4.1706 C   0  0  1  0  0  0  0  0  0  0  0  0
   17.7559   11.3609   -4.8573 O   0  0  0  0  0  0  0  0  0  0  0  0
   13.0554    9.4294  -12.5662 C   0  0  2  0  0  0  0  0  0  0  0  0
   13.1808    8.6983  -13.7638 O   0  0  0  0  0  0  0  0  0  0  0  0
   11.4334   13.8857  -11.8906 C   0  0  2  0  0  0  0  0  0  0  0  0
   11.6095   10.6373   -7.5644 C   0  0  2  0  0  0  0  0  0  0  0  0
   11.4540   11.0994   -8.9041 O   0  0  0  0  0  0  0  0  0  0  0  0
   16.0719   12.8381   -3.7676 C   0  0  2  0  0  0  0  0  0  0  0  0
   14.9555   12.7535   -2.8828 O   0  0  0  0  0  0  0  0  0  0  0  0
   11.6757   10.1660  -12.5097 C   0  0  2  0  0  0  0  0  0  0  0  0
   11.5737   10.9246  -11.2631 O   0  0  0  0  0  0  0  0  0  0  0  0
   11.2942   14.4553  -10.4618 C   0  0  2  0  0  0  0  0  0  0  0  0
   10.9389   13.3168   -9.6297 O   0  0  0  0  0  0  0  0  0  0  0  0
   10.2420   10.6226   -6.8134 C   0  0  0  0  0  0  0  0  0  0  0  0
   10.4445   10.1758   -5.4762 O   0  0  0  0  0  0  0  0  0  0  0  0
   15.6910   13.6739   -5.0476 C   0  0  1  0  0  0  0  0  0  0  0  0
   14.6007   12.9359   -5.7087 O   0  0  0  0  0  0  0  0  0  0  0  0
   10.5047    9.2153  -12.6032 C   0  0  0  0  0  0  0  0  0  0  0  0
   10.3682    8.4945  -11.4027 O   0  0  0  0  0  0  0  0  0  0  0  0
   10.1564   15.5594  -10.4194 C   0  0  1  0  0  0  0  0  0  0  0  0
   10.1304   16.1923   -9.1371 O   0  0  0  0  0  0  0  0  0  0  0  0
   15.2351   15.1650   -4.7356 C   0  0  0  0  0  0  0  0  0  0  0  0
   16.3373   16.1366   -4.4953 N   0  0  0  0  0  0  0  0  0  0  0  0
  1  2  1  6  0  0  0
  1  7  1  0  0  0  0
  1 30  1  0  0  0  0
  3  4  1  6  0  0  0
  3  9  1  0  0  0  0
  3 39  1  0  0  0  0
  5 10  1  0  0  0  0
  5 26  1  0  0  0  0
  5 32  1  1  0  0  0
  6 12  1  0  0  0  0
  6 36  1  0  0  0  0
  6 19  1  1  0  0  0
  7  8  1  6  0  0  0
  7 14  1  0  0  0  0
  9 16  1  0  0  0  0
 10 11  1  6  0  0  0
 10 18  1  0  0  0  0
 12 13  1  1  0  0  0
 12 20  1  0  0  0  0
 14 15  1  1  0  0  0
 14 22  1  0  0  0  0
 16 17  1  6  0  0  0
 16 24  1  0  0  0  0
 18 19  1  6  0  0  0
 18 25  1  0  0  0  0
 20 21  1  6  0  0  0
 20 27  1  0  0  0  0
 22 23  1  6  0  0  0
 22 29  1  0  0  0  0
 24  2  1  1  0  0  0
 24 31  1  0  0  0  0
 25 26  1  0  0  0  0
 25 33  1  1  0  0  0
 27 28  1  1  0  0  0
 27 35  1  0  0  0  0
 29 30  1  0  0  0  0
 29 37  1  1  0  0  0
 31 32  1  1  0  0  0
 31 39  1  0  0  0  0
 33 34  1  0  0  0  0
 35 36  1  0  0  0  0
 35 41  1  1  0  0  0
 37 38  1  0  0  0  0
 39 40  1  1  0  0  0
 41 42  1  0  0  0  0
M  END
>  <CHROM.1>
-172.47211588,89.77991049,101.45682799,84.21839658,177.73823822,-62.64293501
72.71368524,84.28962778,80.24502319,12.90089825,12.39180719,-8.98261621,-2.62422393
-1.03779358,0.62309908

>  <Name>
2o3w_lig

>  <RI>
0

>  <Rbt.Current_Directory>
/home/itssahil/PROJECTS/Mol_Feturizer/New_Systems/rnas/2o3w

>  <Rbt.Executable>
rbdock ($Id: //depot/dev/client3/rdock/2013.1/src/exe/rbdock.cxx#4 $)

>  <Rbt.Library>
libRbt.so (2013.1, Build901 2013/11/27)

>  <Rbt.Parameter_File>
/export/apps/rDock/src/rDock_2013.1_src/data/scripts/dock_solv.prm

>  <Rbt.Receptor>
prm/blind_docking_40.prm

>  <SCORE>
25.3788

>  <SCORE.INTER>
-5.15181

>  <SCORE.INTER.CONST>
1

>  <SCORE.INTER.POLAR>
-1.68601

>  <SCORE.INTER.ROT>
9

>  <SCORE.INTER.SOLV>
29.7204

>  <SCORE.INTER.VDW>
-17.3213

>  <SCORE.INTER.norm>
-0.122662

>  <SCORE.INTRA>
15.0496

>  <SCORE.INTRA.DIHEDRAL>
-11.3424

>  <SCORE.INTRA.DIHEDRAL.0>
27.8999

>  <SCORE.INTRA.POLAR>
0

>  <SCORE.INTRA.POLAR.0>
0

>  <SCORE.INTRA.REPUL>
0.214464

>  <SCORE.INTRA.REPUL.0>
0

>  <SCORE.INTRA.SOLV>
-2.75576

>  <SCORE.INTRA.SOLV.lig_0>
-104.479

>  <SCORE.INTRA.VDW>
21.0264

>  <SCORE.INTRA.VDW.0>
-6.17816

>  <SCORE.INTRA.norm>
0.358324

>  <SCORE.RESTR>
15.481

>  <SCORE.RESTR.CAVITY>
15.481

>  <SCORE.RESTR.norm>
0.368596

>  <SCORE.SYSTEM>
0

>  <SCORE.SYSTEM.CONST>
0

>  <SCORE.SYSTEM.DIHEDRAL>
0

>  <SCORE.SYSTEM.SOLV>
0

>  <SCORE.SYSTEM.norm>
0

>  <SCORE.heavy>
42

>  <SCORE.norm>
0.604258

>  <RMSD>
18.141

$$$$
2o3w_lig
 OpenBabel11021811463D
libRbt.so/2013.1/901 2013/11/27
 42 45  0  0  0  0  0  0  0  0999 V2000
   11.3875   11.6783  -11.5732 C   0  0  2  0  0  0  0  0  0  0  0  0
   12.7446   11.9450  -11.1804 O   0  0  0  0  0  0  0  0  0  0  0  0
   12.2069   13.1080   -7.0386 C   0  0  2  0  0  0  0  0  0  0  0  0
   12.3564   13.7830   -5.7148 N   0  0  0  0  0  0  0  0  0  0  0  0
   10.5546   14.9410  -11.2964 C   0  0  1  0  0  0  0  0  0  0  0  0
    6.7813   17.0277  -11.3900 C   0  0  1  0  0  0  0  0  0  0  0  0
   10.8060   10.6650  -10.5420 C   0  0  2  0  0  0  0  0  0  0  0  0
   11.0359   11.0844   -9.1485 N   0  0  0  0  0  0  0  0  0  0  0  0
   13.4986   12.2722   -7.4058 C   0  0  0  0  0  0  0  0  0  0  0  0
    9.7787   16.0242  -10.4868 C   0  0  2  0  0  0  0  0  0  0  0  0
    8.7940   15.4834   -9.5720 O   0  0  0  0  0  0  0  0  0  0  0  0
    6.8207   18.5958  -11.2987 C   0  0  2  0  0  0  0  0  0  0  0  0
    8.0813   19.0607  -10.6463 N   0  0  0  0  0  0  0  0  0  0  0  0
   11.4213    9.2614  -10.6913 C   0  0  1  0  0  0  0  0  0  0  0  0
   10.8319    8.3578   -9.7548 O   0  0  0  0  0  0  0  0  0  0  0  0
   13.2723   11.5681   -8.7971 C   0  0  2  0  0  0  0  0  0  0  0  0
   14.4650   10.7595   -9.1678 N   0  0  0  0  0  0  0  0  0  0  0  0
    9.2261   16.8981  -11.6139 C   0  0  2  0  0  0  0  0  0  0  0  0
    7.9077   16.4399  -12.0528 O   0  0  0  0  0  0  0  0  0  0  0  0
    5.5334   19.1112  -10.4962 C   0  0  1  0  0  0  0  0  0  0  0  0
    4.3698   18.9754  -11.3427 O   0  0  0  0  0  0  0  0  0  0  0  0
   11.2354    8.7689  -12.1446 C   0  0  2  0  0  0  0  0  0  0  0  0
   11.7787    7.4777  -12.2936 O   0  0  0  0  0  0  0  0  0  0  0  0
   12.9868   12.6387   -9.9232 C   0  0  2  0  0  0  0  0  0  0  0  0
   10.2529   16.8173  -12.7561 C   0  0  2  0  0  0  0  0  0  0  0  0
   10.8022   15.5108  -12.6022 O   0  0  0  0  0  0  0  0  0  0  0  0
    5.2950   18.3156   -9.1259 C   0  0  2  0  0  0  0  0  0  0  0  0
    6.3433   18.6793   -8.2285 O   0  0  0  0  0  0  0  0  0  0  0  0
   11.9311    9.7774  -13.1184 C   0  0  2  0  0  0  0  0  0  0  0  0
   11.3572   11.1108  -12.9381 O   0  0  0  0  0  0  0  0  0  0  0  0
   11.7683   13.5326   -9.6046 C   0  0  2  0  0  0  0  0  0  0  0  0
   11.7677   14.5588  -10.6349 O   0  0  0  0  0  0  0  0  0  0  0  0
   11.3709   17.9047  -12.7141 C   0  0  0  0  0  0  0  0  0  0  0  0
   11.9399   17.9443  -11.4089 O   0  0  0  0  0  0  0  0  0  0  0  0
    5.3071   16.7603   -9.3768 C   0  0  1  0  0  0  0  0  0  0  0  0
    6.6076   16.4562   -9.9985 O   0  0  0  0  0  0  0  0  0  0  0  0
   11.7927    9.3752  -14.5685 C   0  0  0  0  0  0  0  0  0  0  0  0
   12.4891    8.1764  -14.8078 O   0  0  0  0  0  0  0  0  0  0  0  0
   11.9244   14.1808   -8.1655 C   0  0  1  0  0  0  0  0  0  0  0  0
   10.7311   14.8843   -7.8092 O   0  0  0  0  0  0  0  0  0  0  0  0
    5.1105   15.8904   -8.0603 C   0  0  0  0  0  0  0  0  0  0  0  0
    3.8689   16.1676   -7.2868 N   0  0  0  0  0  0  0  0  0  0  0  0
  1  2  1  1  0  0  0
  1  7  1  0  0  0  0
  1 30  1  0  0  0  0
  3  4  1  1  0  0  0
  3  9  1  0  0  0  0
  3 39  1  0  0  0  0
  5 10  1  0  0  0  0
  5 26  1  0  0  0  0
  5 32  1  1  0  0  0
  6 12  1  0  0  0  0
  6 36  1  0  0  0  0
  6 19  1  1  0  0  0
  7  8  1  1  0  0  0
  7 14  1  0  0  0  0
  9 16  1  0  0  0  0
 10 11  1  6  0  0  0
 10 18  1  0  0  0  0
 12 13  1  1  0  0  0
 12 20  1  0  0  0  0
 14 15  1  1  0  0  0
 14 22  1  0  0  0  0
 16 17  1  6  0  0  0
 16 24  1  0  0  0  0
 18 19  1  6  0  0  0
 18 25  1  0  0  0  0
 20 21  1  6  0  0  0
 20 27  1  0  0  0  0
 22 23  1  1  0  0  0
 22 29  1  0  0  0  0
 24  2  1  6  0  0  0
 24 31  1  0  0  0  0
 25 26  1  0  0  0  0
 25 33  1  1  0  0  0
 27 28  1  1  0  0  0
 27 35  1  0  0  0  0
 29 30  1  0  0  0  0
 29 37  1  6  0  0  0
 31 32  1  6  0  0  0
 31 39  1  0  0  0  0
 33 34  1  0  0  0  0
 35 36  1  0  0  0  0
 35 41  1  1  0  0  0
 37 38  1  0  0  0  0
 39 40  1  1  0  0  0
 41 42  1  0  0  0  0
M  END
>  <CHROM.1>
-66.06752270,85.22698568,48.91101798,91.05535672,95.83339167,49.60716557
-65.75402237,135.65746530,57.01141966,9.96309548,14.08694935,-10.47343825
0.40750784,0.88010514,-1.92519946

>  <Name>
2o3w_lig

>  <RI>
0

>  <Rbt.Current_Directory>
/home/itssahil/PROJECTS/Mol_Feturizer/New_Systems/rnas/2o3w

>  <Rbt.Executable>
rbdock ($Id: //depot/dev/client3/rdock/2013.1/src/exe/rbdock.cxx#4 $)

>  <Rbt.Library>
libRbt.so (2013.1, Build901 2013/11/27)

>  <Rbt.Parameter_File>
/export/apps/rDock/src/rDock_2013.1_src/data/scripts/dock_solv.prm

>  <Rbt.Receptor>
prm/blind_docking_100.prm

>  <SCORE>
25.0674

>  <SCORE.INTER>
3.71306

>  <SCORE.INTER.CONST>
1

>  <SCORE.INTER.POLAR>
-0.218687

>  <SCORE.INTER.ROT>
9

>  <SCORE.INTER.SOLV>
24.8704

>  <SCORE.INTER.VDW>
-14.6858

>  <SCORE.INTER.norm>
0.0884062

>  <SCORE.INTRA>
11.8824

>  <SCORE.INTRA.DIHEDRAL>
-9.27067

>  <SCORE.INTRA.DIHEDRAL.0>
27.8999

>  <SCORE.INTRA.POLAR>
0

>  <SCORE.INTRA.POLAR.0>
0

>  <SCORE.INTRA.REPUL>
0

>  <SCORE.INTRA.REPUL.0>
0

>  <SCORE.INTRA.SOLV>
6.19068

>  <SCORE.INTRA.SOLV.lig_0>
-104.479

>  <SCORE.INTRA.VDW>
13.4224

>  <SCORE.INTRA.VDW.0>
-6.17816

>  <SCORE.INTRA.norm>
0.282913

>  <SCORE.RESTR>
9.47199

>  <SCORE.RESTR.CAVITY>
9.47199

>  <SCORE.RESTR.norm>
0.225524

>  <SCORE.SYSTEM>
0

>  <SCORE.SYSTEM.CONST>
0

>  <SCORE.SYSTEM.DIHEDRAL>
0

>  <SCORE.SYSTEM.SOLV>
0

>  <SCORE.SYSTEM.norm>
0

>  <SCORE.heavy>
42

>  <SCORE.norm>
0.596843

>  <RMSD>
18.146

$$$$
2o3w_lig
 OpenBabel11021811463D
libRbt.so/2013.1/901 2013/11/27
 42 45  0  0  0  0  0  0  0  0999 V2000
   12.1890   12.0926   -7.1658 C   0  0  2  0  0  0  0  0  0  0  0  0
   12.4842   12.6384   -8.4629 O   0  0  0  0  0  0  0  0  0  0  0  0
   13.5821    9.5563  -11.3075 C   0  0  2  0  0  0  0  0  0  0  0  0
   13.5887    8.6382  -12.4853 N   0  0  0  0  0  0  0  0  0  0  0  0
   11.9593   13.8445  -11.4398 C   0  0  1  0  0  0  0  0  0  0  0  0
    8.4745   16.3271  -10.9245 C   0  0  1  0  0  0  0  0  0  0  0  0
   12.0069   13.2982   -6.1955 C   0  0  2  0  0  0  0  0  0  0  0  0
   11.0825   14.3149   -6.7269 N   0  0  0  0  0  0  0  0  0  0  0  0
   12.3332    9.2854  -10.3755 C   0  0  0  0  0  0  0  0  0  0  0  0
   11.5290   15.1439  -10.6933 C   0  0  2  0  0  0  0  0  0  0  0  0
   10.8211   14.9036   -9.4523 O   0  0  0  0  0  0  0  0  0  0  0  0
    7.1372   15.6462  -10.4589 C   0  0  2  0  0  0  0  0  0  0  0  0
    6.3575   15.1456  -11.6303 N   0  0  0  0  0  0  0  0  0  0  0  0
   13.3365   14.0167   -5.9005 C   0  0  1  0  0  0  0  0  0  0  0  0
   13.1290   15.0877   -4.9781 O   0  0  0  0  0  0  0  0  0  0  0  0
   12.3937   10.2657   -9.1435 C   0  0  2  0  0  0  0  0  0  0  0  0
   11.2388   10.0281   -8.2361 N   0  0  0  0  0  0  0  0  0  0  0  0
   10.7307   15.8617  -11.7827 C   0  0  2  0  0  0  0  0  0  0  0  0
    9.3139   15.4991  -11.7389 O   0  0  0  0  0  0  0  0  0  0  0  0
    6.2802   16.6948   -9.6028 C   0  0  1  0  0  0  0  0  0  0  0  0
    6.8998   16.8573   -8.3072 O   0  0  0  0  0  0  0  0  0  0  0  0
   14.3646   12.9972   -5.3596 C   0  0  2  0  0  0  0  0  0  0  0  0
   15.5825   13.6425   -5.0687 O   0  0  0  0  0  0  0  0  0  0  0  0
   12.3870   11.7696   -9.6274 C   0  0  2  0  0  0  0  0  0  0  0  0
   11.3704   15.4493  -13.1192 C   0  0  2  0  0  0  0  0  0  0  0  0
   11.8515   14.1341  -12.8525 O   0  0  0  0  0  0  0  0  0  0  0  0
    6.1505   18.1229  -10.3177 C   0  0  2  0  0  0  0  0  0  0  0  0
    5.3173   17.9567  -11.4643 O   0  0  0  0  0  0  0  0  0  0  0  0
   14.5763   11.8711   -6.4257 C   0  0  2  0  0  0  0  0  0  0  0  0
   13.2977   11.2233   -6.7176 O   0  0  0  0  0  0  0  0  0  0  0  0
   13.5506   12.0942  -10.5896 C   0  0  2  0  0  0  0  0  0  0  0  0
   13.2842   13.4404  -11.0706 O   0  0  0  0  0  0  0  0  0  0  0  0
   12.5222   16.3791  -13.6122 C   0  0  0  0  0  0  0  0  0  0  0  0
   12.0185   17.6999  -13.7870 O   0  0  0  0  0  0  0  0  0  0  0  0
    7.5679   18.6604  -10.7469 C   0  0  1  0  0  0  0  0  0  0  0  0
    8.1479   17.6293  -11.6249 O   0  0  0  0  0  0  0  0  0  0  0  0
   15.5666   10.8223   -5.9749 C   0  0  0  0  0  0  0  0  0  0  0  0
   14.9384    9.8978   -5.1204 O   0  0  0  0  0  0  0  0  0  0  0  0
   13.5722   11.0612  -11.7930 C   0  0  1  0  0  0  0  0  0  0  0  0
   14.7353   11.2674  -12.5995 O   0  0  0  0  0  0  0  0  0  0  0  0
    7.5291   20.0622  -11.4966 C   0  0  0  0  0  0  0  0  0  0  0  0
    6.5110   20.1854  -12.5759 N   0  0  0  0  0  0  0  0  0  0  0  0
  1  2  1  6  0  0  0
  1  7  1  0  0  0  0
  1 30  1  0  0  0  0
  3  4  1  6  0  0  0
  3  9  1  0  0  0  0
  3 39  1  0  0  0  0
  5 10  1  0  0  0  0
  5 26  1  0  0  0  0
  5 32  1  6  0  0  0
  6 12  1  0  0  0  0
  6 36  1  0  0  0  0
  6 19  1  6  0  0  0
  7  8  1  6  0  0  0
  7 14  1  0  0  0  0
  9 16  1  0  0  0  0
 10 11  1  1  0  0  0
 10 18  1  0  0  0  0
 12 13  1  6  0  0  0
 12 20  1  0  0  0  0
 14 15  1  1  0  0  0
 14 22  1  0  0  0  0
 16 17  1  1  0  0  0
 16 24  1  0  0  0  0
 18 19  1  6  0  0  0
 18 25  1  0  0  0  0
 20 21  1  1  0  0  0
 20 27  1  0  0  0  0
 22 23  1  6  0  0  0
 22 29  1  0  0  0  0
 24  2  1  1  0  0  0
 24 31  1  0  0  0  0
 25 26  1  0  0  0  0
 25 33  1  1  0  0  0
 27 28  1  6  0  0  0
 27 35  1  0  0  0  0
 29 30  1  0  0  0  0
 29 37  1  1  0  0  0
 31 32  1  6  0  0  0
 31 39  1  0  0  0  0
 33 34  1  0  0  0  0
 35 36  1  0  0  0  0
 35 41  1  6  0  0  0
 37 38  1  0  0  0  0
 39 40  1  1  0  0  0
 41 42  1  0  0  0  0
M  END
>  <CHROM.1>
-165.39128805,126.54462787,-158.04270137,90.68142972,-17.31210385,-59.95815314
81.10354189,-42.24886589,-46.69097865,11.24695728,14.10398730,-9.73078498
0.31317961,-0.81938460,1.46656504

>  <Name>
2o3w_lig

>  <RI>
0

>  <Rbt.Current_Directory>
/home/itssahil/PROJECTS/Mol_Feturizer/New_Systems/rnas/2o3w

>  <Rbt.Executable>
rbdock ($Id: //depot/dev/client3/rdock/2013.1/src/exe/rbdock.cxx#4 $)

>  <Rbt.Library>
libRbt.so (2013.1, Build901 2013/11/27)

>  <Rbt.Parameter_File>
/export/apps/rDock/src/rDock_2013.1_src/data/scripts/dock_solv.prm

>  <Rbt.Receptor>
prm/blind_docking_100.prm

>  <SCORE>
12.4233

>  <SCORE.INTER>
1.09257

>  <SCORE.INTER.CONST>
1

>  <SCORE.INTER.POLAR>
-2.61981

>  <SCORE.INTER.ROT>
9

>  <SCORE.INTER.SOLV>
24.4288

>  <SCORE.INTER.VDW>
-8.28186

>  <SCORE.INTER.norm>
0.0260136

>  <SCORE.INTRA>
4.65492

>  <SCORE.INTRA.DIHEDRAL>
-4.66458

>  <SCORE.INTRA.DIHEDRAL.0>
27.8999

>  <SCORE.INTRA.POLAR>
0

>  <SCORE.INTRA.POLAR.0>
0

>  <SCORE.INTRA.REPUL>
0.103897

>  <SCORE.INTRA.REPUL.0>
0

>  <SCORE.INTRA.SOLV>
-0.524769

>  <SCORE.INTRA.SOLV.lig_0>
-104.479

>  <SCORE.INTRA.VDW>
6.73011

>  <SCORE.INTRA.VDW.0>
-6.17816

>  <SCORE.INTRA.norm>
0.110831

>  <SCORE.RESTR>
6.67581

>  <SCORE.RESTR.CAVITY>
6.67581

>  <SCORE.RESTR.norm>
0.158948

>  <SCORE.SYSTEM>
0

>  <SCORE.SYSTEM.CONST>
0

>  <SCORE.SYSTEM.DIHEDRAL>
0

>  <SCORE.SYSTEM.SOLV>
0

>  <SCORE.SYSTEM.norm>
0

>  <SCORE.heavy>
42

>  <SCORE.norm>
0.295793

>  <RMSD>
18.153

$$$$
2o3w_lig
 OpenBabel11021811463D
libRbt.so/2013.1/901 2013/11/27
 42 45  0  0  0  0  0  0  0  0999 V2000
   10.8996    9.2902   -9.7253 C   0  0  2  0  0  0  0  0  0  0  0  0
   10.8843   10.6101   -9.1553 O   0  0  0  0  0  0  0  0  0  0  0  0
   12.8373   12.6556   -5.8694 C   0  0  2  0  0  0  0  0  0  0  0  0
   13.8577   13.1252   -4.8851 N   0  0  0  0  0  0  0  0  0  0  0  0
   12.7321   13.6977  -10.5937 C   0  0  1  0  0  0  0  0  0  0  0  0
   11.3023   16.7036  -13.3273 C   0  0  1  0  0  0  0  0  0  0  0  0
   12.3045    9.0885  -10.3684 C   0  0  2  0  0  0  0  0  0  0  0  0
   13.4010    9.4401   -9.4494 N   0  0  0  0  0  0  0  0  0  0  0  0
   12.5528   11.1082   -5.7070 C   0  0  0  0  0  0  0  0  0  0  0  0
   12.4565   13.3138  -12.0795 C   0  0  2  0  0  0  0  0  0  0  0  0
   13.6502   13.2217  -12.8954 O   0  0  0  0  0  0  0  0  0  0  0  0
   12.0830   18.0363  -13.6159 C   0  0  2  0  0  0  0  0  0  0  0  0
   12.9966   18.3751  -12.4838 N   0  0  0  0  0  0  0  0  0  0  0  0
   12.4951    9.9423  -11.6355 C   0  0  1  0  0  0  0  0  0  0  0  0
   13.7787    9.6964  -12.2125 O   0  0  0  0  0  0  0  0  0  0  0  0
   11.4560   10.6784   -6.7534 C   0  0  2  0  0  0  0  0  0  0  0  0
   11.1525    9.2281   -6.6188 N   0  0  0  0  0  0  0  0  0  0  0  0
   11.4583   14.3988  -12.4863 C   0  0  2  0  0  0  0  0  0  0  0  0
   12.1354   15.5758  -13.0312 O   0  0  0  0  0  0  0  0  0  0  0  0
   11.0333   19.2171  -13.8815 C   0  0  1  0  0  0  0  0  0  0  0  0
   10.4400   19.0301  -15.1861 O   0  0  0  0  0  0  0  0  0  0  0  0
   11.3582    9.6387  -12.6377 C   0  0  2  0  0  0  0  0  0  0  0  0
   11.5276   10.4005  -13.8105 O   0  0  0  0  0  0  0  0  0  0  0  0
   11.9407   10.9842   -8.2256 C   0  0  2  0  0  0  0  0  0  0  0  0
   10.6697   14.7491  -11.2132 C   0  0  2  0  0  0  0  0  0  0  0  0
   11.6189   14.5200  -10.1744 O   0  0  0  0  0  0  0  0  0  0  0  0
    9.8789   19.2843  -12.7723 C   0  0  2  0  0  0  0  0  0  0  0  0
   10.4784   19.7176  -11.5520 O   0  0  0  0  0  0  0  0  0  0  0  0
    9.9833    9.9608  -11.9629 C   0  0  2  0  0  0  0  0  0  0  0  0
    9.8353    9.1657  -10.7440 O   0  0  0  0  0  0  0  0  0  0  0  0
   12.2921   12.4723   -8.4435 C   0  0  2  0  0  0  0  0  0  0  0  0
   12.8850   12.5345   -9.7698 O   0  0  0  0  0  0  0  0  0  0  0  0
    9.3762   13.9064  -10.9874 C   0  0  0  0  0  0  0  0  0  0  0  0
    8.6682   14.4231   -9.8646 O   0  0  0  0  0  0  0  0  0  0  0  0
    9.2103   17.8708  -12.5796 C   0  0  1  0  0  0  0  0  0  0  0  0
   10.3006   16.9483  -12.2183 O   0  0  0  0  0  0  0  0  0  0  0  0
    8.8096    9.6855  -12.8742 C   0  0  0  0  0  0  0  0  0  0  0  0
    8.7611   10.6420  -13.9048 O   0  0  0  0  0  0  0  0  0  0  0  0
   13.3249   12.9593   -7.3426 C   0  0  1  0  0  0  0  0  0  0  0  0
   13.5333   14.3701   -7.4514 O   0  0  0  0  0  0  0  0  0  0  0  0
    8.0725   17.8385  -11.4692 C   0  0  0  0  0  0  0  0  0  0  0  0
    7.5495   16.4879  -11.1246 N   0  0  0  0  0  0  0  0  0  0  0  0
  1  2  1  6  0  0  0
  1  7  1  0  0  0  0
  1 30  1  0  0  0  0
  3  4  1  1  0  0  0
  3  9  1  0  0  0  0
  3 39  1  0  0  0  0
  5 10  1  0  0  0  0
  5 26  1  0  0  0  0
  5 32  1  1  0  0  0
  6 12  1  0  0  0  0
  6 36  1  0  0  0  0
  6 19  1  1  0  0  0
  7  8  1  1  0  0  0
  7 14  1  0  0  0  0
  9 16  1  0  0  0  0
 10 11  1  6  0  0  0
 10 18  1  0  0  0  0
 12 13  1  1  0  0  0
 12 20  1  0  0  0  0
 14 15  1  6  0  0  0
 14 22  1  0  0  0  0
 16 17  1  6  0  0  0
 16 24  1  0  0  0  0
 18 19  1  1  0  0  0
 18 25  1  0  0  0  0
 20 21  1  6  0  0  0
 20 27  1  0  0  0  0
 22 23  1  6  0  0  0
 22 29  1  0  0  0  0
 24  2  1  6  0  0  0
 24 31  1  0  0  0  0
 25 26  1  0  0  0  0
 25 33  1  1  0  0  0
 27 28  1  1  0  0  0
 27 35  1  0  0  0  0
 29 30  1  0  0  0  0
 29 37  1  6  0  0  0
 31 32  1  6  0  0  0
 31 39  1  0  0  0  0
 33 34  1  0  0  0  0
 35 36  1  0  0  0  0
 35 41  1  1  0  0  0
 37 38  1  0  0  0  0
 39 40  1  1  0  0  0
 41 42  1  0  0  0  0
M  END
>  <CHROM.1>
-53.56771477,-138.55468709,167.61463473,-174.31552105,-92.74257330,-173.72695345
-71.26741912,148.25928289,-171.85302574,11.32486731,13.46166395,-10.82323374
1.02124664,1.24011660,-3.08520787

>  <Name>
2o3w_lig

>  <RI>
0

>  <Rbt.Current_Directory>
/home/itssahil/PROJECTS/Mol_Feturizer/New_Systems/rnas/2o3w

>  <Rbt.Executable>
rbdock ($Id: //depot/dev/client3/rdock/2013.1/src/exe/rbdock.cxx#4 $)

>  <Rbt.Library>
libRbt.so (2013.1, Build901 2013/11/27)

>  <Rbt.Parameter_File>
/export/apps/rDock/src/rDock_2013.1_src/data/scripts/dock_solv.prm

>  <Rbt.Receptor>
prm/blind_docking_40.prm

>  <SCORE>
26.2047

>  <SCORE.INTER>
7.64531

>  <SCORE.INTER.CONST>
1

>  <SCORE.INTER.POLAR>
-0.00710788

>  <SCORE.INTER.ROT>
9

>  <SCORE.INTER.SOLV>
31.493

>  <SCORE.INTER.VDW>
-14.9771

>  <SCORE.INTER.norm>
0.182031

>  <SCORE.INTRA>
1.53225

>  <SCORE.INTRA.DIHEDRAL>
-12.2358

>  <SCORE.INTRA.DIHEDRAL.0>
27.8999

>  <SCORE.INTRA.POLAR>
0

>  <SCORE.INTRA.POLAR.0>
0

>  <SCORE.INTRA.REPUL>
0

>  <SCORE.INTRA.REPUL.0>
0

>  <SCORE.INTRA.SOLV>
3.61624

>  <SCORE.INTRA.SOLV.lig_0>
-104.479

>  <SCORE.INTRA.VDW>
5.84203

>  <SCORE.INTRA.VDW.0>
-6.17816

>  <SCORE.INTRA.norm>
0.0364821

>  <SCORE.RESTR>
17.0272

>  <SCORE.RESTR.CAVITY>
17.0272

>  <SCORE.RESTR.norm>
0.405409

>  <SCORE.SYSTEM>
0

>  <SCORE.SYSTEM.CONST>
0

>  <SCORE.SYSTEM.DIHEDRAL>
0

>  <SCORE.SYSTEM.SOLV>
0

>  <SCORE.SYSTEM.norm>
0

>  <SCORE.heavy>
42

>  <SCORE.norm>
0.623922

>  <RMSD>
18.163

$$$$
2o3w_lig
 OpenBabel11021811463D
libRbt.so/2013.1/901 2013/11/27
 42 45  0  0  0  0  0  0  0  0999 V2000
   12.7731   11.1428   -7.2350 C   0  0  2  0  0  0  0  0  0  0  0  0
   13.1933   11.4826   -8.5674 O   0  0  0  0  0  0  0  0  0  0  0  0
   12.1267    8.3705  -11.3911 C   0  0  2  0  0  0  0  0  0  0  0  0
   11.5210    7.6310  -12.5385 N   0  0  0  0  0  0  0  0  0  0  0  0
   13.2738   12.6098  -12.0181 C   0  0  1  0  0  0  0  0  0  0  0  0
   10.5389   15.3688  -13.4175 C   0  0  1  0  0  0  0  0  0  0  0  0
   11.8165   12.2760   -6.7567 C   0  0  2  0  0  0  0  0  0  0  0  0
   10.7626   12.5771   -7.7412 N   0  0  0  0  0  0  0  0  0  0  0  0
   11.0202    8.8417  -10.3637 C   0  0  0  0  0  0  0  0  0  0  0  0
   11.8035   12.0951  -12.0821 C   0  0  2  0  0  0  0  0  0  0  0  0
   11.5217   11.2582  -13.2307 O   0  0  0  0  0  0  0  0  0  0  0  0
   11.8018   16.2263  -13.7901 C   0  0  2  0  0  0  0  0  0  0  0  0
   12.9276   15.9556  -12.8466 N   0  0  0  0  0  0  0  0  0  0  0  0
   12.5628   13.5955   -6.4865 C   0  0  1  0  0  0  0  0  0  0  0  0
   11.6554   14.5922   -6.0132 O   0  0  0  0  0  0  0  0  0  0  0  0
   11.7203    9.5933   -9.1689 C   0  0  2  0  0  0  0  0  0  0  0  0
   10.7080   10.0389   -8.1737 N   0  0  0  0  0  0  0  0  0  0  0  0
   11.0252   13.4100  -12.0138 C   0  0  2  0  0  0  0  0  0  0  0  0
   10.7753   13.9572  -13.3476 O   0  0  0  0  0  0  0  0  0  0  0  0
   11.4070   17.7790  -13.7846 C   0  0  1  0  0  0  0  0  0  0  0  0
   10.6045   18.0612  -14.9531 O   0  0  0  0  0  0  0  0  0  0  0  0
   13.7037   13.3446   -5.4743 C   0  0  2  0  0  0  0  0  0  0  0  0
   14.3864   14.5467   -5.2034 O   0  0  0  0  0  0  0  0  0  0  0  0
   12.5316   10.8424   -9.6955 C   0  0  2  0  0  0  0  0  0  0  0  0
   11.8833   14.3679  -11.1703 C   0  0  2  0  0  0  0  0  0  0  0  0
   13.2136   13.9387  -11.4509 O   0  0  0  0  0  0  0  0  0  0  0  0
   10.6054   18.2123  -12.4665 C   0  0  2  0  0  0  0  0  0  0  0  0
   11.5166   18.1556  -11.3698 O   0  0  0  0  0  0  0  0  0  0  0  0
   14.6817   12.2736   -6.0624 C   0  0  2  0  0  0  0  0  0  0  0  0
   13.9483   11.0396   -6.3439 O   0  0  0  0  0  0  0  0  0  0  0  0
   13.5962   10.4644  -10.7486 C   0  0  2  0  0  0  0  0  0  0  0  0
   14.1054   11.7313  -11.2488 O   0  0  0  0  0  0  0  0  0  0  0  0
   11.5941   14.3339   -9.6375 C   0  0  0  0  0  0  0  0  0  0  0  0
   10.3559   14.9882   -9.3778 O   0  0  0  0  0  0  0  0  0  0  0  0
    9.3872   17.2457  -12.2139 C   0  0  1  0  0  0  0  0  0  0  0  0
    9.9538   15.8890  -12.1213 O   0  0  0  0  0  0  0  0  0  0  0  0
   15.8299   11.9608   -5.1310 C   0  0  0  0  0  0  0  0  0  0  0  0
   16.6671   10.9859   -5.7037 O   0  0  0  0  0  0  0  0  0  0  0  0
   12.9358    9.6223  -11.9192 C   0  0  1  0  0  0  0  0  0  0  0  0
   13.9447    9.1445  -12.8133 O   0  0  0  0  0  0  0  0  0  0  0  0
    8.5534   17.5837  -10.9027 C   0  0  0  0  0  0  0  0  0  0  0  0
    7.5854   18.7079  -11.0292 N   0  0  0  0  0  0  0  0  0  0  0  0
  1  2  1  6  0  0  0
  1  7  1  0  0  0  0
  1 30  1  0  0  0  0
  3  4  1  6  0  0  0
  3  9  1  0  0  0  0
  3 39  1  0  0  0  0
  5 10  1  0  0  0  0
  5 26  1  0  0  0  0
  5 32  1  1  0  0  0
  6 12  1  0  0  0  0
  6 36  1  0  0  0  0
  6 19  1  1  0  0  0
  7  8  1  6  0  0  0
  7 14  1  0  0  0  0
  9 16  1  0  0  0  0
 10 11  1  6  0  0  0
 10 18  1  0  0  0  0
 12 13  1  1  0  0  0
 12 20  1  0  0  0  0
 14 15  1  1  0  0  0
 14 22  1  0  0  0  0
 16 17  1  1  0  0  0
 16 24  1  0  0  0  0
 18 19  1  6  0  0  0
 18 25  1  0  0  0  0
 20 21  1  6  0  0  0
 20 27  1  0  0  0  0
 22 23  1  6  0  0  0
 22 29  1  0  0  0  0
 24  2  1  1  0  0  0
 24 31  1  0  0  0  0
 25 26  1  0  0  0  0
 25 33  1  1  0  0  0
 27 28  1  1  0  0  0
 27 35  1  0  0  0  0
 29 30  1  0  0  0  0
 29 37  1  1  0  0  0
 31 32  1  6  0  0  0
 31 39  1  0  0  0  0
 33 34  1  0  0  0  0
 35 36  1  0  0  0  0
 35 41  1  1  0  0  0
 37 38  1  0  0  0  0
 39 40  1  6  0  0  0
 41 42  1  0  0  0  0
M  END
>  <CHROM.1>
-99.47534559,6.08564481,96.99033942,-156.68750457,-15.07428048,-73.83536150
179.43849697,-67.27329265,79.51868402,12.08156501,13.26298974,-10.18026785
-0.11020797,-1.17698714,0.74460473

>  <Name>
2o3w_lig

>  <RI>
0

>  <Rbt.Current_Directory>
/home/itssahil/PROJECTS/Mol_Feturizer/New_Systems/rnas/2o3w

>  <Rbt.Executable>
rbdock ($Id: //depot/dev/client3/rdock/2013.1/src/exe/rbdock.cxx#4 $)

>  <Rbt.Library>
libRbt.so (2013.1, Build901 2013/11/27)

>  <Rbt.Parameter_File>
/export/apps/rDock/src/rDock_2013.1_src/data/scripts/dock_solv.prm

>  <Rbt.Receptor>
prm/blind_docking_40.prm

>  <SCORE>
21.5077

>  <SCORE.INTER>
-5.64698

>  <SCORE.INTER.CONST>
1

>  <SCORE.INTER.POLAR>
-0.477508

>  <SCORE.INTER.ROT>
9

>  <SCORE.INTER.SOLV>
26.5543

>  <SCORE.INTER.VDW>
-20.6244

>  <SCORE.INTER.norm>
-0.134452

>  <SCORE.INTRA>
19.7283

>  <SCORE.INTRA.DIHEDRAL>
0.015321

>  <SCORE.INTRA.DIHEDRAL.0>
27.8999

>  <SCORE.INTRA.POLAR>
0

>  <SCORE.INTRA.POLAR.0>
0

>  <SCORE.INTRA.REPUL>
0

>  <SCORE.INTRA.REPUL.0>
0

>  <SCORE.INTRA.SOLV>
8.57298

>  <SCORE.INTRA.SOLV.lig_0>
-104.479

>  <SCORE.INTRA.VDW>
15.4342

>  <SCORE.INTRA.VDW.0>
-6.17816

>  <SCORE.INTRA.norm>
0.469722

>  <SCORE.RESTR>
7.42634

>  <SCORE.RESTR.CAVITY>
7.42634

>  <SCORE.RESTR.norm>
0.176818

>  <SCORE.SYSTEM>
0

>  <SCORE.SYSTEM.CONST>
0

>  <SCORE.SYSTEM.DIHEDRAL>
0

>  <SCORE.SYSTEM.SOLV>
0

>  <SCORE.SYSTEM.norm>
0

>  <SCORE.heavy>
42

>  <SCORE.norm>
0.512088

>  <RMSD>
18.165

$$$$
2o3w_lig
 OpenBabel11021811463D
libRbt.so/2013.1/901 2013/11/27
 42 45  0  0  0  0  0  0  0  0999 V2000
   12.5192   11.3594   -7.8533 C   0  0  2  0  0  0  0  0  0  0  0  0
   13.1015   11.9367   -9.0344 O   0  0  0  0  0  0  0  0  0  0  0  0
   13.4477   10.0575  -12.9260 C   0  0  2  0  0  0  0  0  0  0  0  0
   13.1381    9.5267  -14.2872 N   0  0  0  0  0  0  0  0  0  0  0  0
   11.4649   13.8061  -11.3134 C   0  0  1  0  0  0  0  0  0  0  0  0
    7.5653   16.0993  -11.3010 C   0  0  1  0  0  0  0  0  0  0  0  0
   11.6847   12.4798   -7.1631 C   0  0  2  0  0  0  0  0  0  0  0  0
   10.7756   13.1636   -8.0994 N   0  0  0  0  0  0  0  0  0  0  0  0
   12.6251    9.2940  -11.8115 C   0  0  0  0  0  0  0  0  0  0  0  0
   11.1282   15.2634  -10.8734 C   0  0  2  0  0  0  0  0  0  0  0  0
   10.9129   15.4140   -9.4486 O   0  0  0  0  0  0  0  0  0  0  0  0
    7.9578   17.4944  -11.9080 C   0  0  2  0  0  0  0  0  0  0  0  0
    9.0067   18.1606  -11.0792 N   0  0  0  0  0  0  0  0  0  0  0  0
   12.5745   13.5671   -6.5331 C   0  0  1  0  0  0  0  0  0  0  0  0
   11.7706   14.5503   -5.8789 O   0  0  0  0  0  0  0  0  0  0  0  0
   13.0100    9.8813  -10.4010 C   0  0  2  0  0  0  0  0  0  0  0  0
   12.2638    9.1746   -9.3251 N   0  0  0  0  0  0  0  0  0  0  0  0
    9.9216   15.5707  -11.7616 C   0  0  2  0  0  0  0  0  0  0  0  0
    8.6653   15.2010  -11.1092 O   0  0  0  0  0  0  0  0  0  0  0  0
    6.6473   18.4090  -12.0219 C   0  0  1  0  0  0  0  0  0  0  0  0
    5.8320   17.9233  -13.1119 O   0  0  0  0  0  0  0  0  0  0  0  0
   13.5736   12.9116   -5.5528 C   0  0  2  0  0  0  0  0  0  0  0  0
   14.3848   13.8959   -4.9548 O   0  0  0  0  0  0  0  0  0  0  0  0
   12.6948   11.4280  -10.3367 C   0  0  2  0  0  0  0  0  0  0  0  0
   10.1334   14.7696  -13.0574 C   0  0  2  0  0  0  0  0  0  0  0  0
   10.8554   13.6238  -12.6121 O   0  0  0  0  0  0  0  0  0  0  0  0
    5.7828   18.4278  -10.6729 C   0  0  2  0  0  0  0  0  0  0  0  0
    6.5325   19.1414   -9.6905 O   0  0  0  0  0  0  0  0  0  0  0  0
   14.4477   11.8736   -6.3326 C   0  0  2  0  0  0  0  0  0  0  0  0
   13.5832   10.8690   -6.9516 O   0  0  0  0  0  0  0  0  0  0  0  0
   13.4220   12.2335  -11.4356 C   0  0  2  0  0  0  0  0  0  0  0  0
   12.8801   13.5798  -11.3442 O   0  0  0  0  0  0  0  0  0  0  0  0
   10.9140   15.5245  -14.1776 C   0  0  0  0  0  0  0  0  0  0  0  0
   12.1741   15.9502  -13.6679 O   0  0  0  0  0  0  0  0  0  0  0  0
    5.4929   16.9605  -10.1779 C   0  0  1  0  0  0  0  0  0  0  0  0
    6.8080   16.3186  -10.0082 O   0  0  0  0  0  0  0  0  0  0  0  0
   15.4531   11.1768   -5.4453 C   0  0  0  0  0  0  0  0  0  0  0  0
   14.9451    9.9364   -5.0179 O   0  0  0  0  0  0  0  0  0  0  0  0
   13.1288   11.6050  -12.8620 C   0  0  1  0  0  0  0  0  0  0  0  0
   13.9202   12.2556  -13.8600 O   0  0  0  0  0  0  0  0  0  0  0  0
    4.6658   16.8859   -8.8219 C   0  0  0  0  0  0  0  0  0  0  0  0
    3.2861   17.4424   -8.8797 N   0  0  0  0  0  0  0  0  0  0  0  0
  1  2  1  6  0  0  0
  1  7  1  0  0  0  0
  1 30  1  0  0  0  0
  3  4  1  6  0  0  0
  3  9  1  0  0  0  0
  3 39  1  0  0  0  0
  5 10  1  0  0  0  0
  5 26  1  0  0  0  0
  5 32  1  6  0  0  0
  6 12  1  0  0  0  0
  6 36  1  0  0  0  0
  6 19  1  1  0  0  0
  7  8  1  6  0  0  0
  7 14  1  0  0  0  0
  9 16  1  0  0  0  0
 10 11  1  1  0  0  0
 10 18  1  0  0  0  0
 12 13  1  1  0  0  0
 12 20  1  0  0  0  0
 14 15  1  1  0  0  0
 14 22  1  0  0  0  0
 16 17  1  1  0  0  0
 16 24  1  0  0  0  0
 18 19  1  1  0  0  0
 18 25  1  0  0  0  0
 20 21  1  6  0  0  0
 20 27  1  0  0  0  0
 22 23  1  6  0  0  0
 22 29  1  0  0  0  0
 24  2  1  1  0  0  0
 24 31  1  0  0  0  0
 25 26  1  0  0  0  0
 25 33  1  6  0  0  0
 27 28  1  1  0  0  0
 27 35  1  0  0  0  0
 29 30  1  0  0  0  0
 29 37  1  1  0  0  0
 31 32  1  6  0  0  0
 31 39  1  0  0  0  0
 33 34  1  0  0  0  0
 35 36  1  0  0  0  0
 35 41  1  1  0  0  0
 37 38  1  0  0  0  0
 39 40  1  6  0  0  0
 41 42  1  0  0  0  0
M  END
>  <CHROM.1>
-115.22368020,166.30896383,-13.06735387,140.82555054,-58.44103565,56.31811821
96.56511863,-49.84145150,63.66790118,10.84988712,13.95122616,-10.05424441
0.22103473,-0.73808517,1.49725790

>  <Name>
2o3w_lig

>  <RI>
0

>  <Rbt.Current_Directory>
/home/itssahil/PROJECTS/Mol_Feturizer/New_Systems/rnas/2o3w

>  <Rbt.Executable>
rbdock ($Id: //depot/dev/client3/rdock/2013.1/src/exe/rbdock.cxx#4 $)

>  <Rbt.Library>
libRbt.so (2013.1, Build901 2013/11/27)

>  <Rbt.Parameter_File>
/export/apps/rDock/src/rDock_2013.1_src/data/scripts/dock_solv.prm

>  <Rbt.Receptor>
prm/blind_docking_100.prm

>  <SCORE>
-10.3591

>  <SCORE.INTER>
-22.1281

>  <SCORE.INTER.CONST>
1

>  <SCORE.INTER.POLAR>
-2.41084

>  <SCORE.INTER.ROT>
9

>  <SCORE.INTER.SOLV>
17.9827

>  <SCORE.INTER.VDW>
-22.3101

>  <SCORE.INTER.norm>
-0.526859

>  <SCORE.INTRA>
4.45659

>  <SCORE.INTRA.DIHEDRAL>
-4.10046

>  <SCORE.INTRA.DIHEDRAL.0>
27.8999

>  <SCORE.INTRA.POLAR>
0

>  <SCORE.INTRA.POLAR.0>
0

>  <SCORE.INTRA.REPUL>
0.175993

>  <SCORE.INTRA.REPUL.0>
0

>  <SCORE.INTRA.SOLV>
1.99837

>  <SCORE.INTRA.SOLV.lig_0>
-104.479

>  <SCORE.INTRA.VDW>
4.62767

>  <SCORE.INTRA.VDW.0>
-6.17816

>  <SCORE.INTRA.norm>
0.106109

>  <SCORE.RESTR>
7.31242

>  <SCORE.RESTR.CAVITY>
7.31242

>  <SCORE.RESTR.norm>
0.174105

>  <SCORE.SYSTEM>
0

>  <SCORE.SYSTEM.CONST>
0

>  <SCORE.SYSTEM.DIHEDRAL>
0

>  <SCORE.SYSTEM.SOLV>
0

>  <SCORE.SYSTEM.norm>
0

>  <SCORE.heavy>
42

>  <SCORE.norm>
-0.246645

>  <RMSD>
18.177

$$$$
2o3w_lig
 OpenBabel11021811463D
libRbt.so/2013.1/901 2013/11/27
 42 45  0  0  0  0  0  0  0  0999 V2000
   12.5348   11.0573   -7.6130 C   0  0  2  0  0  0  0  0  0  0  0  0
   13.1260   11.5555   -8.8253 O   0  0  0  0  0  0  0  0  0  0  0  0
   12.5503   10.1861  -12.8983 C   0  0  2  0  0  0  0  0  0  0  0  0
   11.9548    9.9048  -14.2388 N   0  0  0  0  0  0  0  0  0  0  0  0
   11.5932   14.0782  -11.0493 C   0  0  1  0  0  0  0  0  0  0  0  0
    8.2993   17.1756  -10.9029 C   0  0  1  0  0  0  0  0  0  0  0  0
   11.6263   12.1914   -7.0503 C   0  0  2  0  0  0  0  0  0  0  0  0
   10.7157   12.7421   -8.0692 N   0  0  0  0  0  0  0  0  0  0  0  0
   11.7635    9.4329  -11.7513 C   0  0  0  0  0  0  0  0  0  0  0  0
   11.3908   15.3249  -10.1352 C   0  0  2  0  0  0  0  0  0  0  0  0
   10.7976   15.0221   -8.8485 O   0  0  0  0  0  0  0  0  0  0  0  0
    8.0741   17.8540   -9.5037 C   0  0  2  0  0  0  0  0  0  0  0  0
    7.5229   16.8755   -8.5190 N   0  0  0  0  0  0  0  0  0  0  0  0
   12.4428   13.3742   -6.4977 C   0  0  1  0  0  0  0  0  0  0  0  0
   11.5726   14.3700   -5.9576 O   0  0  0  0  0  0  0  0  0  0  0  0
   12.4499    9.7496  -10.3689 C   0  0  2  0  0  0  0  0  0  0  0  0
   11.7427    9.0440   -9.2664 N   0  0  0  0  0  0  0  0  0  0  0  0
   10.5646   16.2318  -11.0484 C   0  0  2  0  0  0  0  0  0  0  0  0
    9.1294   16.0079  -10.8735 O   0  0  0  0  0  0  0  0  0  0  0  0
    7.0947   19.1101   -9.6766 C   0  0  1  0  0  0  0  0  0  0  0  0
    7.8193   20.1824  -10.3200 O   0  0  0  0  0  0  0  0  0  0  0  0
   13.4406   12.8601   -5.4350 C   0  0  2  0  0  0  0  0  0  0  0  0
   14.1845   13.9335   -4.9070 O   0  0  0  0  0  0  0  0  0  0  0  0
   12.4488   11.3046  -10.0898 C   0  0  2  0  0  0  0  0  0  0  0  0
   11.0085   15.9060  -12.4845 C   0  0  2  0  0  0  0  0  0  0  0  0
   11.3676   14.5286  -12.4048 O   0  0  0  0  0  0  0  0  0  0  0  0
    5.7826   18.7632  -10.5285 C   0  0  2  0  0  0  0  0  0  0  0  0
    4.9750   17.8904   -9.7397 O   0  0  0  0  0  0  0  0  0  0  0  0
   14.3875   11.8020   -6.0934 C   0  0  2  0  0  0  0  0  0  0  0  0
   13.5920   10.7037   -6.6419 O   0  0  0  0  0  0  0  0  0  0  0  0
   13.1533   12.1131  -11.2012 C   0  0  2  0  0  0  0  0  0  0  0  0
   12.8975   13.5079  -10.8795 O   0  0  0  0  0  0  0  0  0  0  0  0
   12.1963   16.7658  -13.0173 C   0  0  0  0  0  0  0  0  0  0  0  0
   12.9916   15.9761  -13.8963 O   0  0  0  0  0  0  0  0  0  0  0  0
    6.1704   18.0675  -11.8879 C   0  0  1  0  0  0  0  0  0  0  0  0
    6.9534   16.8728  -11.5273 O   0  0  0  0  0  0  0  0  0  0  0  0
   15.3964   11.2388   -5.1194 C   0  0  0  0  0  0  0  0  0  0  0  0
   14.9680    9.9842   -4.6487 O   0  0  0  0  0  0  0  0  0  0  0  0
   12.5457   11.7425  -12.6187 C   0  0  1  0  0  0  0  0  0  0  0  0
   13.2971   12.3750  -13.6583 O   0  0  0  0  0  0  0  0  0  0  0  0
    4.9227   17.6570  -12.7842 C   0  0  0  0  0  0  0  0  0  0  0  0
    4.0883   18.7863  -13.2793 N   0  0  0  0  0  0  0  0  0  0  0  0
  1  2  1  6  0  0  0
  1  7  1  0  0  0  0
  1 30  1  0  0  0  0
  3  4  1  6  0  0  0
  3  9  1  0  0  0  0
  3 39  1  0  0  0  0
  5 10  1  0  0  0  0
  5 26  1  0  0  0  0
  5 32  1  6  0  0  0
  6 12  1  0  0  0  0
  6 36  1  0  0  0  0
  6 19  1  1  0  0  0
  7  8  1  6  0  0  0
  7 14  1  0  0  0  0
  9 16  1  0  0  0  0
 10 11  1  1  0  0  0
 10 18  1  0  0  0  0
 12 13  1  1  0  0  0
 12 20  1  0  0  0  0
 14 15  1  1  0  0  0
 14 22  1  0  0  0  0
 16 17  1  1  0  0  0
 16 24  1  0  0  0  0
 18 19  1  6  0  0  0
 18 25  1  0  0  0  0
 20 21  1  6  0  0  0
 20 27  1  0  0  0  0
 22 23  1  6  0  0  0
 22 29  1  0  0  0  0
 24  2  1  1  0  0  0
 24 31  1  0  0  0  0
 25 26  1  0  0  0  0
 25 33  1  1  0  0  0
 27 28  1  1  0  0  0
 27 35  1  0  0  0  0
 29 30  1  0  0  0  0
 29 37  1  1  0  0  0
 31 32  1  1  0  0  0
 31 39  1  0  0  0  0
 33 34  1  0  0  0  0
 35 36  1  0  0  0  0
 35 41  1  1  0  0  0
 37 38  1  0  0  0  0
 39 40  1  6  0  0  0
 41 42  1  0  0  0  0
M  END
>  <CHROM.1>
-91.86540271,156.39575102,-89.81053993,140.74258832,-65.27304469,146.72269873
99.65360102,-71.89759143,63.96318697,10.86303440,14.16474027,-9.89424545
0.20111408,-0.84084976,1.37506886

>  <Name>
2o3w_lig

>  <RI>
0

>  <Rbt.Current_Directory>
/home/itssahil/PROJECTS/Mol_Feturizer/New_Systems/rnas/2o3w

>  <Rbt.Executable>
rbdock ($Id: //depot/dev/client3/rdock/2013.1/src/exe/rbdock.cxx#4 $)

>  <Rbt.Library>
libRbt.so (2013.1, Build901 2013/11/27)

>  <Rbt.Parameter_File>
/export/apps/rDock/src/rDock_2013.1_src/data/scripts/dock_solv.prm

>  <Rbt.Receptor>
prm/blind_docking_100.prm

>  <SCORE>
-10.275

>  <SCORE.INTER>
-21.231

>  <SCORE.INTER.CONST>
1

>  <SCORE.INTER.POLAR>
-2.10729

>  <SCORE.INTER.ROT>
9

>  <SCORE.INTER.SOLV>
20.7467

>  <SCORE.INTER.VDW>
-23.6453

>  <SCORE.INTER.norm>
-0.5055

>  <SCORE.INTRA>
1.57487

>  <SCORE.INTRA.DIHEDRAL>
-4.75409

>  <SCORE.INTRA.DIHEDRAL.0>
27.8999

>  <SCORE.INTRA.POLAR>
0

>  <SCORE.INTRA.POLAR.0>
0

>  <SCORE.INTRA.REPUL>
0

>  <SCORE.INTRA.REPUL.0>
0

>  <SCORE.INTRA.SOLV>
1.39105

>  <SCORE.INTRA.SOLV.lig_0>
-104.479

>  <SCORE.INTRA.VDW>
3.25639

>  <SCORE.INTRA.VDW.0>
-6.17816

>  <SCORE.INTRA.norm>
0.037497

>  <SCORE.RESTR>
9.38117

>  <SCORE.RESTR.CAVITY>
9.38117

>  <SCORE.RESTR.norm>
0.223361

>  <SCORE.SYSTEM>
0

>  <SCORE.SYSTEM.CONST>
0

>  <SCORE.SYSTEM.DIHEDRAL>
0

>  <SCORE.SYSTEM.SOLV>
0

>  <SCORE.SYSTEM.norm>
0

>  <SCORE.heavy>
42

>  <SCORE.norm>
-0.244642

>  <RMSD>
18.186

$$$$
2o3w_lig
 OpenBabel11021811463D
libRbt.so/2013.1/901 2013/11/27
 42 45  0  0  0  0  0  0  0  0999 V2000
   12.4618   12.1762   -7.6185 C   0  0  2  0  0  0  0  0  0  0  0  0
   13.2179   12.1026   -8.8393 O   0  0  0  0  0  0  0  0  0  0  0  0
   13.2136    8.7852  -11.6305 C   0  0  2  0  0  0  0  0  0  0  0  0
   12.8354    7.8395  -12.7227 N   0  0  0  0  0  0  0  0  0  0  0  0
   12.3163   13.1595  -12.0517 C   0  0  1  0  0  0  0  0  0  0  0  0
    8.7304   15.8516  -11.9711 C   0  0  1  0  0  0  0  0  0  0  0  0
   12.4996   13.6615   -7.1487 C   0  0  2  0  0  0  0  0  0  0  0  0
   12.1396   14.6022   -8.2240 N   0  0  0  0  0  0  0  0  0  0  0  0
   12.1540    8.7596  -10.4565 C   0  0  0  0  0  0  0  0  0  0  0  0
   11.7563   14.2591  -11.0988 C   0  0  2  0  0  0  0  0  0  0  0  0
   10.8883   13.7494  -10.0567 O   0  0  0  0  0  0  0  0  0  0  0  0
    9.0705   17.3102  -12.4460 C   0  0  2  0  0  0  0  0  0  0  0  0
   10.4184   17.7295  -11.9578 N   0  0  0  0  0  0  0  0  0  0  0  0
   13.8921   14.0785   -6.6407 C   0  0  1  0  0  0  0  0  0  0  0  0
   13.8703   15.4321   -6.1845 O   0  0  0  0  0  0  0  0  0  0  0  0
   12.6179    9.7571   -9.3285 C   0  0  2  0  0  0  0  0  0  0  0  0
   11.6494    9.7477   -8.1991 N   0  0  0  0  0  0  0  0  0  0  0  0
   11.1010   15.2130  -12.0987 C   0  0  2  0  0  0  0  0  0  0  0  0
    9.7006   14.8629  -12.3380 O   0  0  0  0  0  0  0  0  0  0  0  0
    7.9334   18.3134  -11.9287 C   0  0  1  0  0  0  0  0  0  0  0  0
    6.7366   18.1070  -12.7122 O   0  0  0  0  0  0  0  0  0  0  0  0
   14.3430   13.1127   -5.5213 C   0  0  2  0  0  0  0  0  0  0  0  0
   15.6094   13.4910   -5.0338 O   0  0  0  0  0  0  0  0  0  0  0  0
   12.7498   11.2234   -9.9015 C   0  0  2  0  0  0  0  0  0  0  0  0
   11.9298   15.1094  -13.3901 C   0  0  2  0  0  0  0  0  0  0  0  0
   12.3995   13.7636  -13.3629 O   0  0  0  0  0  0  0  0  0  0  0  0
    7.5958   18.1223  -10.3740 C   0  0  2  0  0  0  0  0  0  0  0  0
    8.7246   18.5771   -9.6288 O   0  0  0  0  0  0  0  0  0  0  0  0
   14.3821   11.6550   -6.0897 C   0  0  2  0  0  0  0  0  0  0  0  0
   13.0599   11.2896   -6.5978 O   0  0  0  0  0  0  0  0  0  0  0  0
   13.7293   11.3153  -11.0921 C   0  0  2  0  0  0  0  0  0  0  0  0
   13.5860   12.6700  -11.6009 O   0  0  0  0  0  0  0  0  0  0  0  0
   13.1171   16.1163  -13.4926 C   0  0  0  0  0  0  0  0  0  0  0  0
   12.6280   17.4410  -13.3062 O   0  0  0  0  0  0  0  0  0  0  0  0
    7.3030   16.6084  -10.0507 C   0  0  1  0  0  0  0  0  0  0  0  0
    8.4995   15.8607  -10.4745 O   0  0  0  0  0  0  0  0  0  0  0  0
   14.8089   10.6389   -5.0557 C   0  0  0  0  0  0  0  0  0  0  0  0
   16.1160   10.9154   -4.6150 O   0  0  0  0  0  0  0  0  0  0  0  0
   13.3423   10.2531  -12.2045 C   0  0  1  0  0  0  0  0  0  0  0  0
   14.3343   10.2337  -13.2346 O   0  0  0  0  0  0  0  0  0  0  0  0
    6.9903   16.3221   -8.5181 C   0  0  0  0  0  0  0  0  0  0  0  0
    8.0865   16.6525   -7.5664 N   0  0  0  0  0  0  0  0  0  0  0  0
  1  2  1  6  0  0  0
  1  7  1  0  0  0  0
  1 30  1  0  0  0  0
  3  4  1  6  0  0  0
  3  9  1  0  0  0  0
  3 39  1  0  0  0  0
  5 10  1  0  0  0  0
  5 26  1  0  0  0  0
  5 32  1  1  0  0  0
  6 12  1  0  0  0  0
  6 36  1  0  0  0  0
  6 19  1  1  0  0  0
  7  8  1  6  0  0  0
  7 14  1  0  0  0  0
  9 16  1  0  0  0  0
 10 11  1  1  0  0  0
 10 18  1  0  0  0  0
 12 13  1  1  0  0  0
 12 20  1  0  0  0  0
 14 15  1  1  0  0  0
 14 22  1  0  0  0  0
 16 17  1  1  0  0  0
 16 24  1  0  0  0  0
 18 19  1  6  0  0  0
 18 25  1  0  0  0  0
 20 21  1  6  0  0  0
 20 27  1  0  0  0  0
 22 23  1  6  0  0  0
 22 29  1  0  0  0  0
 24  2  1  1  0  0  0
 24 31  1  0  0  0  0
 25 26  1  0  0  0  0
 25 33  1  1  0  0  0
 27 28  1  1  0  0  0
 27 35  1  0  0  0  0
 29 30  1  0  0  0  0
 29 37  1  1  0  0  0
 31 32  1  6  0  0  0
 31 39  1  0  0  0  0
 33 34  1  0  0  0  0
 35 36  1  0  0  0  0
 35 41  1  1  0  0  0
 37 38  1  0  0  0  0
 39 40  1  6  0  0  0
 41 42  1  0  0  0  0
M  END
>  <CHROM.1>
-142.22587968,111.29214411,46.31040520,117.92521002,-56.35965575,-54.49761864
-62.04327384,-58.31232983,-61.38838510,11.74748128,13.75723513,-9.91304739
0.15007476,-0.93391848,1.22626046

>  <Name>
2o3w_lig

>  <RI>
0

>  <Rbt.Current_Directory>
/home/itssahil/PROJECTS/Mol_Feturizer/New_Systems/rnas/2o3w

>  <Rbt.Executable>
rbdock ($Id: //depot/dev/client3/rdock/2013.1/src/exe/rbdock.cxx#4 $)

>  <Rbt.Library>
libRbt.so (2013.1, Build901 2013/11/27)

>  <Rbt.Parameter_File>
/export/apps/rDock/src/rDock_2013.1_src/data/scripts/dock_solv.prm

>  <Rbt.Receptor>
prm/blind_docking_100.prm

>  <SCORE>
11.5877

>  <SCORE.INTER>
1.31417

>  <SCORE.INTER.CONST>
1

>  <SCORE.INTER.POLAR>
-0.676582

>  <SCORE.INTER.ROT>
9

>  <SCORE.INTER.SOLV>
30.1365

>  <SCORE.INTER.VDW>
-16.5141

>  <SCORE.INTER.norm>
0.0312898

>  <SCORE.INTRA>
4.48894

>  <SCORE.INTRA.DIHEDRAL>
-7.66887

>  <SCORE.INTRA.DIHEDRAL.0>
27.8999

>  <SCORE.INTRA.POLAR>
0

>  <SCORE.INTRA.POLAR.0>
0

>  <SCORE.INTRA.REPUL>
0

>  <SCORE.INTRA.REPUL.0>
0

>  <SCORE.INTRA.SOLV>
5.54476

>  <SCORE.INTRA.SOLV.lig_0>
-104.479

>  <SCORE.INTRA.VDW>
5.551

>  <SCORE.INTRA.VDW.0>
-6.17816

>  <SCORE.INTRA.norm>
0.10688

>  <SCORE.RESTR>
5.7846

>  <SCORE.RESTR.CAVITY>
5.7846

>  <SCORE.RESTR.norm>
0.137729

>  <SCORE.SYSTEM>
0

>  <SCORE.SYSTEM.CONST>
0

>  <SCORE.SYSTEM.DIHEDRAL>
0

>  <SCORE.SYSTEM.SOLV>
0

>  <SCORE.SYSTEM.norm>
0

>  <SCORE.heavy>
42

>  <SCORE.norm>
0.275898

>  <RMSD>
18.197

$$$$
2o3w_lig
 OpenBabel11021811463D
libRbt.so/2013.1/901 2013/11/27
 42 45  0  0  0  0  0  0  0  0999 V2000
   12.4502   11.2105   -7.6407 C   0  0  2  0  0  0  0  0  0  0  0  0
   13.1590   11.6666   -8.8056 O   0  0  0  0  0  0  0  0  0  0  0  0
   12.9892   10.3765  -12.9412 C   0  0  2  0  0  0  0  0  0  0  0  0
   12.5144   10.0840  -14.3266 N   0  0  0  0  0  0  0  0  0  0  0  0
   11.5611   14.1147  -11.0895 C   0  0  1  0  0  0  0  0  0  0  0  0
    8.1938   16.9769  -10.7113 C   0  0  1  0  0  0  0  0  0  0  0  0
   11.5050   12.3686   -7.2008 C   0  0  2  0  0  0  0  0  0  0  0  0
   10.7012   12.8953   -8.3175 N   0  0  0  0  0  0  0  0  0  0  0  0
   12.1992    9.5207  -11.8710 C   0  0  0  0  0  0  0  0  0  0  0  0
   11.2688   15.4647  -10.3663 C   0  0  2  0  0  0  0  0  0  0  0  0
   10.6661   15.3137   -9.0575 O   0  0  0  0  0  0  0  0  0  0  0  0
    8.0441   16.9918   -9.1473 C   0  0  2  0  0  0  0  0  0  0  0  0
    7.5025   15.6914   -8.6508 N   0  0  0  0  0  0  0  0  0  0  0  0
   12.2784   13.5610   -6.6084 C   0  0  1  0  0  0  0  0  0  0  0  0
   11.3719   14.5800   -6.1832 O   0  0  0  0  0  0  0  0  0  0  0  0
   12.7582    9.8554  -10.4364 C   0  0  2  0  0  0  0  0  0  0  0  0
   12.0458    9.0553   -9.4039 N   0  0  0  0  0  0  0  0  0  0  0  0
   10.4124   16.1819  -11.4110 C   0  0  2  0  0  0  0  0  0  0  0  0
    8.9887   15.9007  -11.2246 O   0  0  0  0  0  0  0  0  0  0  0  0
    7.0971   18.2109   -8.7184 C   0  0  1  0  0  0  0  0  0  0  0  0
    7.8282   19.4478   -8.8751 O   0  0  0  0  0  0  0  0  0  0  0  0
   13.1653   13.0715   -5.4409 C   0  0  2  0  0  0  0  0  0  0  0  0
   13.8675   14.1545   -4.8766 O   0  0  0  0  0  0  0  0  0  0  0  0
   12.5951   11.3946  -10.1202 C   0  0  2  0  0  0  0  0  0  0  0  0
   10.9047   15.6817  -12.7795 C   0  0  2  0  0  0  0  0  0  0  0  0
   11.3395   14.3534  -12.4984 O   0  0  0  0  0  0  0  0  0  0  0  0
    5.7429   18.2769   -9.5724 C   0  0  2  0  0  0  0  0  0  0  0  0
    4.9407   17.1586   -9.1951 O   0  0  0  0  0  0  0  0  0  0  0  0
   14.1586   11.9861   -5.9746 C   0  0  2  0  0  0  0  0  0  0  0  0
   13.4066   10.8781   -6.5634 O   0  0  0  0  0  0  0  0  0  0  0  0
   13.2959   12.2970  -11.1594 C   0  0  2  0  0  0  0  0  0  0  0  0
   12.8916   13.6526  -10.8225 O   0  0  0  0  0  0  0  0  0  0  0  0
   12.0531   16.5256  -13.4145 C   0  0  0  0  0  0  0  0  0  0  0  0
   11.5493   17.8074  -13.7781 O   0  0  0  0  0  0  0  0  0  0  0  0
    6.0559   18.2275  -11.1156 C   0  0  1  0  0  0  0  0  0  0  0  0
    6.8159   16.9854  -11.3394 O   0  0  0  0  0  0  0  0  0  0  0  0
   15.0644   11.4447   -4.8928 C   0  0  0  0  0  0  0  0  0  0  0  0
   15.6343   12.5037   -4.1627 O   0  0  0  0  0  0  0  0  0  0  0  0
   12.8225   11.9169  -12.6247 C   0  0  1  0  0  0  0  0  0  0  0  0
   13.5812   12.6462  -13.5931 O   0  0  0  0  0  0  0  0  0  0  0  0
    4.7624   18.2544  -12.0400 C   0  0  0  0  0  0  0  0  0  0  0  0
    5.0005   17.9901  -13.4857 N   0  0  0  0  0  0  0  0  0  0  0  0
  1  2  1  6  0  0  0
  1  7  1  0  0  0  0
  1 30  1  0  0  0  0
  3  4  1  6  0  0  0
  3  9  1  0  0  0  0
  3 39  1  0  0  0  0
  5 10  1  0  0  0  0
  5 26  1  0  0  0  0
  5 32  1  6  0  0  0
  6 12  1  0  0  0  0
  6 36  1  0  0  0  0
  6 19  1  1  0  0  0
  7  8  1  6  0  0  0
  7 14  1  0  0  0  0
  9 16  1  0  0  0  0
 10 11  1  1  0  0  0
 10 18  1  0  0  0  0
 12 13  1  6  0  0  0
 12 20  1  0  0  0  0
 14 15  1  1  0  0  0
 14 22  1  0  0  0  0
 16 17  1  1  0  0  0
 16 24  1  0  0  0  0
 18 19  1  1  0  0  0
 18 25  1  0  0  0  0
 20 21  1  6  0  0  0
 20 27  1  0  0  0  0
 22 23  1  6  0  0  0
 22 29  1  0  0  0  0
 24  2  1  1  0  0  0
 24 31  1  0  0  0  0
 25 26  1  0  0  0  0
 25 33  1  1  0  0  0
 27 28  1  1  0  0  0
 27 35  1  0  0  0  0
 29 30  1  0  0  0  0
 29 37  1  1  0  0  0
 31 32  1  1  0  0  0
 31 39  1  0  0  0  0
 33 34  1  0  0  0  0
 35 36  1  0  0  0  0
 35 41  1  6  0  0  0
 37 38  1  0  0  0  0
 39 40  1  6  0  0  0
 41 42  1  0  0  0  0
M  END
>  <CHROM.1>
-91.24622531,167.29892885,-92.38759020,107.85792577,-72.37016613,-68.18227261
-48.46403067,-72.91877178,-170.58022991,10.84981863,14.23664178,-9.80084519
0.21155113,-0.78623484,1.41666123

>  <Name>
2o3w_lig

>  <RI>
0

>  <Rbt.Current_Directory>
/home/itssahil/PROJECTS/Mol_Feturizer/New_Systems/rnas/2o3w

>  <Rbt.Executable>
rbdock ($Id: //depot/dev/client3/rdock/2013.1/src/exe/rbdock.cxx#4 $)

>  <Rbt.Library>
libRbt.so (2013.1, Build901 2013/11/27)

>  <Rbt.Parameter_File>
/export/apps/rDock/src/rDock_2013.1_src/data/scripts/dock_solv.prm

>  <Rbt.Receptor>
prm/blind_docking_100.prm

>  <SCORE>
-7.49485

>  <SCORE.INTER>
-14.9605

>  <SCORE.INTER.CONST>
1

>  <SCORE.INTER.POLAR>
-0.631346

>  <SCORE.INTER.ROT>
9

>  <SCORE.INTER.SOLV>
21.2233

>  <SCORE.INTER.VDW>
-24.5436

>  <SCORE.INTER.norm>
-0.356202

>  <SCORE.INTRA>
-1.72246

>  <SCORE.INTRA.DIHEDRAL>
-10.1386

>  <SCORE.INTRA.DIHEDRAL.0>
27.8999

>  <SCORE.INTRA.POLAR>
0

>  <SCORE.INTRA.POLAR.0>
0

>  <SCORE.INTRA.REPUL>
0

>  <SCORE.INTRA.REPUL.0>
0

>  <SCORE.INTRA.SOLV>
1.7199

>  <SCORE.INTRA.SOLV.lig_0>
-104.479

>  <SCORE.INTRA.VDW>
2.48689

>  <SCORE.INTRA.VDW.0>
-6.17816

>  <SCORE.INTRA.norm>
-0.0410109

>  <SCORE.RESTR>
9.18811

>  <SCORE.RESTR.CAVITY>
9.18811

>  <SCORE.RESTR.norm>
0.218765

>  <SCORE.SYSTEM>
0

>  <SCORE.SYSTEM.CONST>
0

>  <SCORE.SYSTEM.DIHEDRAL>
0

>  <SCORE.SYSTEM.SOLV>
0

>  <SCORE.SYSTEM.norm>
0

>  <SCORE.heavy>
42

>  <SCORE.norm>
-0.178449

>  <RMSD>
18.203

$$$$
2o3w_lig
 OpenBabel11021811463D
libRbt.so/2013.1/901 2013/11/27
 42 45  0  0  0  0  0  0  0  0999 V2000
   12.4199   11.3326   -7.6731 C   0  0  2  0  0  0  0  0  0  0  0  0
   13.0386   11.8225   -8.8750 O   0  0  0  0  0  0  0  0  0  0  0  0
   12.8557   10.4637  -12.9879 C   0  0  2  0  0  0  0  0  0  0  0  0
   12.3622   10.0922  -14.3477 N   0  0  0  0  0  0  0  0  0  0  0  0
   11.1246   14.1168  -11.3603 C   0  0  1  0  0  0  0  0  0  0  0  0
    7.7264   16.7979  -11.3888 C   0  0  1  0  0  0  0  0  0  0  0  0
   11.5102   12.4758   -7.1311 C   0  0  2  0  0  0  0  0  0  0  0  0
   10.6242   13.0313   -8.1689 N   0  0  0  0  0  0  0  0  0  0  0  0
   12.2334    9.5269  -11.8757 C   0  0  0  0  0  0  0  0  0  0  0  0
   10.7303   15.5329  -10.8408 C   0  0  2  0  0  0  0  0  0  0  0  0
    9.9846   15.5185   -9.5987 O   0  0  0  0  0  0  0  0  0  0  0  0
    8.3969   18.2126  -11.2551 C   0  0  2  0  0  0  0  0  0  0  0  0
    9.6897   18.1221  -10.5125 N   0  0  0  0  0  0  0  0  0  0  0  0
   12.3257   13.6532   -6.5658 C   0  0  1  0  0  0  0  0  0  0  0  0
   11.4536   14.6578   -6.0452 O   0  0  0  0  0  0  0  0  0  0  0  0
   12.8070    9.9518  -10.4711 C   0  0  2  0  0  0  0  0  0  0  0  0
   12.2526    9.0800   -9.4005 N   0  0  0  0  0  0  0  0  0  0  0  0
    9.9876   16.0977  -12.0526 C   0  0  2  0  0  0  0  0  0  0  0  0
    8.5565   15.7987  -11.9939 O   0  0  0  0  0  0  0  0  0  0  0  0
    7.3812   19.2120  -10.5227 C   0  0  1  0  0  0  0  0  0  0  0  0
    6.3245   19.5624  -11.4444 O   0  0  0  0  0  0  0  0  0  0  0  0
   13.2983   13.1337   -5.4826 C   0  0  2  0  0  0  0  0  0  0  0  0
   14.0408   14.2024   -4.9429 O   0  0  0  0  0  0  0  0  0  0  0  0
   12.4573   11.4607  -10.1601 C   0  0  2  0  0  0  0  0  0  0  0  0
   10.6408   15.4555  -13.2881 C   0  0  2  0  0  0  0  0  0  0  0  0
   11.0615   14.1824  -12.8035 O   0  0  0  0  0  0  0  0  0  0  0  0
    6.7456   18.5873   -9.1910 C   0  0  2  0  0  0  0  0  0  0  0  0
    7.7871   18.4921   -8.2201 O   0  0  0  0  0  0  0  0  0  0  0  0
   14.2489   12.0659   -6.1196 C   0  0  2  0  0  0  0  0  0  0  0  0
   13.4550   10.9729   -6.6807 O   0  0  0  0  0  0  0  0  0  0  0  0
   12.9865   12.4325  -11.2376 C   0  0  2  0  0  0  0  0  0  0  0  0
   12.4230   13.7281  -10.8933 O   0  0  0  0  0  0  0  0  0  0  0  0
   11.8407   16.2525  -13.8873 C   0  0  0  0  0  0  0  0  0  0  0  0
   13.0123   15.9842  -13.1230 O   0  0  0  0  0  0  0  0  0  0  0  0
    6.1381   17.1627   -9.4804 C   0  0  1  0  0  0  0  0  0  0  0  0
    7.2398   16.3512  -10.0262 O   0  0  0  0  0  0  0  0  0  0  0  0
   15.2340   11.4970   -5.1248 C   0  0  0  0  0  0  0  0  0  0  0  0
   15.7407   12.5213   -4.3043 O   0  0  0  0  0  0  0  0  0  0  0  0
   12.5023   11.9732  -12.6764 C   0  0  1  0  0  0  0  0  0  0  0  0
   13.1148   12.7820  -13.6846 O   0  0  0  0  0  0  0  0  0  0  0  0
    5.5138   16.4529   -8.2018 C   0  0  0  0  0  0  0  0  0  0  0  0
    4.4947   15.4045   -8.4826 N   0  0  0  0  0  0  0  0  0  0  0  0
  1  2  1  6  0  0  0
  1  7  1  0  0  0  0
  1 30  1  0  0  0  0
  3  4  1  6  0  0  0
  3  9  1  0  0  0  0
  3 39  1  0  0  0  0
  5 10  1  0  0  0  0
  5 26  1  0  0  0  0
  5 32  1  6  0  0  0
  6 12  1  0  0  0  0
  6 36  1  0  0  0  0
  6 19  1  1  0  0  0
  7  8  1  6  0  0  0
  7 14  1  0  0  0  0
  9 16  1  0  0  0  0
 10 11  1  1  0  0  0
 10 18  1  0  0  0  0
 12 13  1  1  0  0  0
 12 20  1  0  0  0  0
 14 15  1  1  0  0  0
 14 22  1  0  0  0  0
 16 17  1  1  0  0  0
 16 24  1  0  0  0  0
 18 19  1  1  0  0  0
 18 25  1  0  0  0  0
 20 21  1  6  0  0  0
 20 27  1  0  0  0  0
 22 23  1  6  0  0  0
 22 29  1  0  0  0  0
 24  2  1  1  0  0  0
 24 31  1  0  0  0  0
 25 26  1  0  0  0  0
 25 33  1  1  0  0  0
 27 28  1  1  0  0  0
 27 35  1  0  0  0  0
 29 30  1  0  0  0  0
 29 37  1  1  0  0  0
 31 32  1  1  0  0  0
 31 39  1  0  0  0  0
 33 34  1  0  0  0  0
 35 36  1  0  0  0  0
 35 41  1  1  0  0  0
 37 38  1  0  0  0  0
 39 40  1  6  0  0  0
 41 42  1  0  0  0  0
M  END
>  <CHROM.1>
-97.92837760,178.98727739,16.66486164,92.88959699,-74.55964500,80.42654744
-41.59552786,-86.67918239,157.21171886,10.91594047,14.21954805,-9.80030500
0.18227930,-0.80499354,1.44974308

>  <Name>
2o3w_lig

>  <RI>
0

>  <Rbt.Current_Directory>
/home/itssahil/PROJECTS/Mol_Feturizer/New_Systems/rnas/2o3w

>  <Rbt.Executable>
rbdock ($Id: //depot/dev/client3/rdock/2013.1/src/exe/rbdock.cxx#4 $)

>  <Rbt.Library>
libRbt.so (2013.1, Build901 2013/11/27)

>  <Rbt.Parameter_File>
/export/apps/rDock/src/rDock_2013.1_src/data/scripts/dock_solv.prm

>  <Rbt.Receptor>
prm/blind_docking_100.prm

>  <SCORE>
2.58601

>  <SCORE.INTER>
-11.1718

>  <SCORE.INTER.CONST>
1

>  <SCORE.INTER.POLAR>
0

>  <SCORE.INTER.ROT>
9

>  <SCORE.INTER.SOLV>
17.5908

>  <SCORE.INTER.VDW>
-22.9115

>  <SCORE.INTER.norm>
-0.265995

>  <SCORE.INTRA>
6.00894

>  <SCORE.INTRA.DIHEDRAL>
-4.64337

>  <SCORE.INTRA.DIHEDRAL.0>
27.8999

>  <SCORE.INTRA.POLAR>
0

>  <SCORE.INTRA.POLAR.0>
0

>  <SCORE.INTRA.REPUL>
0

>  <SCORE.INTRA.REPUL.0>
0

>  <SCORE.INTRA.SOLV>
3.9275

>  <SCORE.INTRA.SOLV.lig_0>
-104.479

>  <SCORE.INTRA.VDW>
6.36688

>  <SCORE.INTRA.VDW.0>
-6.17816

>  <SCORE.INTRA.norm>
0.14307

>  <SCORE.RESTR>
7.74884

>  <SCORE.RESTR.CAVITY>
7.74884

>  <SCORE.RESTR.norm>
0.184496

>  <SCORE.SYSTEM>
0

>  <SCORE.SYSTEM.CONST>
0

>  <SCORE.SYSTEM.DIHEDRAL>
0

>  <SCORE.SYSTEM.SOLV>
0

>  <SCORE.SYSTEM.norm>
0

>  <SCORE.heavy>
42

>  <SCORE.norm>
0.0615717

>  <RMSD>
18.206

$$$$
2o3w_lig
 OpenBabel11021811463D
libRbt.so/2013.1/901 2013/11/27
 42 45  0  0  0  0  0  0  0  0999 V2000
   12.2809   10.2568   -8.2061 C   0  0  2  0  0  0  0  0  0  0  0  0
   11.7987   10.7144   -9.4810 O   0  0  0  0  0  0  0  0  0  0  0  0
   14.9787    9.0629  -11.9216 C   0  0  2  0  0  0  0  0  0  0  0  0
   15.8662    8.7312  -13.0760 N   0  0  0  0  0  0  0  0  0  0  0  0
   12.8033   13.0903  -11.3823 C   0  0  1  0  0  0  0  0  0  0  0  0
   11.0298   14.8980  -13.0212 C   0  0  1  0  0  0  0  0  0  0  0  0
   11.0509   10.1905   -7.2516 C   0  0  2  0  0  0  0  0  0  0  0  0
    9.9154    9.4631   -7.8450 N   0  0  0  0  0  0  0  0  0  0  0  0
   13.5159    8.5034  -12.1430 C   0  0  0  0  0  0  0  0  0  0  0  0
   13.0091   12.6306  -12.8578 C   0  0  2  0  0  0  0  0  0  0  0  0
   13.8625   13.5068  -13.6344 O   0  0  0  0  0  0  0  0  0  0  0  0
    9.8582   14.8429  -11.9757 C   0  0  2  0  0  0  0  0  0  0  0  0
    8.5401   14.6828  -12.6597 N   0  0  0  0  0  0  0  0  0  0  0  0
   10.5322   11.5888   -6.8689 C   0  0  1  0  0  0  0  0  0  0  0  0
    9.4323   11.4808   -5.9637 O   0  0  0  0  0  0  0  0  0  0  0  0
   12.6361    8.8640  -10.8866 C   0  0  2  0  0  0  0  0  0  0  0  0
   11.2542    8.3390  -11.0548 N   0  0  0  0  0  0  0  0  0  0  0  0
   11.5616   12.5189  -13.3388 C   0  0  2  0  0  0  0  0  0  0  0  0
   11.0870   13.7781  -13.9134 O   0  0  0  0  0  0  0  0  0  0  0  0
    9.8848   16.1718  -11.0812 C   0  0  1  0  0  0  0  0  0  0  0  0
   10.9965   16.0933  -10.1609 O   0  0  0  0  0  0  0  0  0  0  0  0
   11.6857   12.4175   -6.2590 C   0  0  2  0  0  0  0  0  0  0  0  0
   11.2230   13.6952   -5.8877 O   0  0  0  0  0  0  0  0  0  0  0  0
   12.5864   10.4284  -10.6719 C   0  0  2  0  0  0  0  0  0  0  0  0
   10.7336   12.1224  -12.1049 C   0  0  2  0  0  0  0  0  0  0  0  0
   11.4481   12.7287  -11.0305 O   0  0  0  0  0  0  0  0  0  0  0  0
   10.0069   17.5084  -11.9564 C   0  0  2  0  0  0  0  0  0  0  0  0
    8.7777   17.6754  -12.6618 O   0  0  0  0  0  0  0  0  0  0  0  0
   12.8424   12.5312   -7.3071 C   0  0  2  0  0  0  0  0  0  0  0  0
   13.2986   11.1932   -7.6834 O   0  0  0  0  0  0  0  0  0  0  0  0
   13.9881   11.0547  -10.5043 C   0  0  2  0  0  0  0  0  0  0  0  0
   13.7670   12.4919  -10.5058 O   0  0  0  0  0  0  0  0  0  0  0  0
   10.5808   10.5859  -11.8809 C   0  0  0  0  0  0  0  0  0  0  0  0
   10.0460    9.9897  -13.0588 O   0  0  0  0  0  0  0  0  0  0  0  0
   11.2075   17.4008  -12.9709 C   0  0  1  0  0  0  0  0  0  0  0  0
   10.9476   16.2020  -13.7868 O   0  0  0  0  0  0  0  0  0  0  0  0
   14.0202   13.3241   -6.7896 C   0  0  0  0  0  0  0  0  0  0  0  0
   13.6037   14.6079   -6.3926 O   0  0  0  0  0  0  0  0  0  0  0  0
   14.9272   10.6291  -11.7096 C   0  0  1  0  0  0  0  0  0  0  0  0
   16.2637   11.0825  -11.4778 O   0  0  0  0  0  0  0  0  0  0  0  0
   11.3813   18.6750  -13.9062 C   0  0  0  0  0  0  0  0  0  0  0  0
   12.4740   18.5879  -14.9137 N   0  0  0  0  0  0  0  0  0  0  0  0
  1  2  1  6  0  0  0
  1  7  1  0  0  0  0
  1 30  1  0  0  0  0
  3  4  1  6  0  0  0
  3  9  1  0  0  0  0
  3 39  1  0  0  0  0
  5 10  1  0  0  0  0
  5 26  1  0  0  0  0
  5 32  1  1  0  0  0
  6 12  1  0  0  0  0
  6 36  1  0  0  0  0
  6 19  1  6  0  0  0
  7  8  1  6  0  0  0
  7 14  1  0  0  0  0
  9 16  1  0  0  0  0
 10 11  1  6  0  0  0
 10 18  1  0  0  0  0
 12 13  1  6  0  0  0
 12 20  1  0  0  0  0
 14 15  1  1  0  0  0
 14 22  1  0  0  0  0
 16 17  1  6  0  0  0
 16 24  1  0  0  0  0
 18 19  1  1  0  0  0
 18 25  1  0  0  0  0
 20 21  1  1  0  0  0
 20 27  1  0  0  0  0
 22 23  1  6  0  0  0
 22 29  1  0  0  0  0
 24  2  1  1  0  0  0
 24 31  1  0  0  0  0
 25 26  1  0  0  0  0
 25 33  1  1  0  0  0
 27 28  1  6  0  0  0
 27 35  1  0  0  0  0
 29 30  1  0  0  0  0
 29 37  1  1  0  0  0
 31 32  1  6  0  0  0
 31 39  1  0  0  0  0
 33 34  1  0  0  0  0
 35 36  1  0  0  0  0
 35 41  1  6  0  0  0
 37 38  1  0  0  0  0
 39 40  1  1  0  0  0
 41 42  1  0  0  0  0
M  END
>  <CHROM.1>
-158.30536516,-51.19498914,-73.38384404,-63.12458423,64.25010137,-54.84719774
-56.81969538,-38.99711028,-177.76040804,11.94205067,12.75197707,-10.75313367
1.00034390,-1.10670165,2.04360863

>  <Name>
2o3w_lig

>  <RI>
0

>  <Rbt.Current_Directory>
/home/itssahil/PROJECTS/Mol_Feturizer/New_Systems/rnas/2o3w

>  <Rbt.Executable>
rbdock ($Id: //depot/dev/client3/rdock/2013.1/src/exe/rbdock.cxx#4 $)

>  <Rbt.Library>
libRbt.so (2013.1, Build901 2013/11/27)

>  <Rbt.Parameter_File>
/export/apps/rDock/src/rDock_2013.1_src/data/scripts/dock_solv.prm

>  <Rbt.Receptor>
prm/blind_docking_40.prm

>  <SCORE>
19.9209

>  <SCORE.INTER>
-6.1697

>  <SCORE.INTER.CONST>
1

>  <SCORE.INTER.POLAR>
-0.765068

>  <SCORE.INTER.ROT>
9

>  <SCORE.INTER.SOLV>
24.3194

>  <SCORE.INTER.VDW>
-19.2694

>  <SCORE.INTER.norm>
-0.146898

>  <SCORE.INTRA>
14.8707

>  <SCORE.INTRA.DIHEDRAL>
-22.2095

>  <SCORE.INTRA.DIHEDRAL.0>
27.8999

>  <SCORE.INTRA.POLAR>
0

>  <SCORE.INTRA.POLAR.0>
0

>  <SCORE.INTRA.REPUL>
0

>  <SCORE.INTRA.REPUL.0>
0

>  <SCORE.INTRA.SOLV>
2.23575

>  <SCORE.INTRA.SOLV.lig_0>
-104.479

>  <SCORE.INTRA.VDW>
24.8576

>  <SCORE.INTRA.VDW.0>
-6.17816

>  <SCORE.INTRA.norm>
0.354065

>  <SCORE.RESTR>
11.2199

>  <SCORE.RESTR.CAVITY>
11.2199

>  <SCORE.RESTR.norm>
0.26714

>  <SCORE.SYSTEM>
0

>  <SCORE.SYSTEM.CONST>
0

>  <SCORE.SYSTEM.DIHEDRAL>
0

>  <SCORE.SYSTEM.SOLV>
0

>  <SCORE.SYSTEM.norm>
0

>  <SCORE.heavy>
42

>  <SCORE.norm>
0.474308

>  <RMSD>
18.206

$$$$
2o3w_lig
 OpenBabel11021811463D
libRbt.so/2013.1/901 2013/11/27
 42 45  0  0  0  0  0  0  0  0999 V2000
   11.5991   13.3684   -7.0194 C   0  0  2  0  0  0  0  0  0  0  0  0
   11.9372   13.3074   -8.4155 O   0  0  0  0  0  0  0  0  0  0  0  0
    9.3486   15.8019  -10.8388 C   0  0  2  0  0  0  0  0  0  0  0  0
    8.8408   16.8737  -11.7465 N   0  0  0  0  0  0  0  0  0  0  0  0
   12.4842   11.8523  -11.3238 C   0  0  1  0  0  0  0  0  0  0  0  0
   13.5622    9.1450  -11.8463 C   0  0  1  0  0  0  0  0  0  0  0  0
   12.9334   13.5515   -6.2356 C   0  0  2  0  0  0  0  0  0  0  0  0
   13.7609   14.6429   -6.7785 N   0  0  0  0  0  0  0  0  0  0  0  0
    9.8971   16.4086   -9.4850 C   0  0  0  0  0  0  0  0  0  0  0  0
   12.9293   11.2502   -9.9563 C   0  0  2  0  0  0  0  0  0  0  0  0
   14.3660   11.1649   -9.7896 O   0  0  0  0  0  0  0  0  0  0  0  0
   12.5181    9.4677  -12.9753 C   0  0  2  0  0  0  0  0  0  0  0  0
   11.5260    8.3602  -13.1167 N   0  0  0  0  0  0  0  0  0  0  0  0
   13.8030   12.2809   -6.2575 C   0  0  1  0  0  0  0  0  0  0  0  0
   14.9948   12.4807   -5.4955 O   0  0  0  0  0  0  0  0  0  0  0  0
   10.3959   15.2318   -8.5636 C   0  0  2  0  0  0  0  0  0  0  0  0
   10.9065   15.7664   -7.2725 N   0  0  0  0  0  0  0  0  0  0  0  0
   12.1830    9.9152   -9.9626 C   0  0  2  0  0  0  0  0  0  0  0  0
   12.9867    8.8524  -10.5670 O   0  0  0  0  0  0  0  0  0  0  0  0
   13.2928    9.7260  -14.3537 C   0  0  1  0  0  0  0  0  0  0  0  0
   13.9436   11.0148  -14.2895 O   0  0  0  0  0  0  0  0  0  0  0  0
   12.9832   11.0858   -5.7201 C   0  0  2  0  0  0  0  0  0  0  0  0
   13.7708    9.9178   -5.7179 O   0  0  0  0  0  0  0  0  0  0  0  0
   11.5345   14.4057   -9.2827 C   0  0  2  0  0  0  0  0  0  0  0  0
   10.8889   10.1561  -10.7580 C   0  0  2  0  0  0  0  0  0  0  0  0
   11.2706   11.1596  -11.6959 O   0  0  0  0  0  0  0  0  0  0  0  0
   14.3783    8.5930  -14.6789 C   0  0  2  0  0  0  0  0  0  0  0  0
   13.6699    7.3917  -14.9814 O   0  0  0  0  0  0  0  0  0  0  0  0
   11.7130   10.8947   -6.6144 C   0  0  2  0  0  0  0  0  0  0  0  0
   10.9178   12.1224   -6.6081 O   0  0  0  0  0  0  0  0  0  0  0  0
   11.0870   13.8279  -10.6433 C   0  0  2  0  0  0  0  0  0  0  0  0
   12.2919   13.2702  -11.2363 O   0  0  0  0  0  0  0  0  0  0  0  0
    9.6685   10.6208   -9.9042 C   0  0  0  0  0  0  0  0  0  0  0  0
    8.4695   10.4105  -10.6439 O   0  0  0  0  0  0  0  0  0  0  0  0
   15.3327    8.3674  -13.4458 C   0  0  1  0  0  0  0  0  0  0  0  0
   14.4601    8.0179  -12.3115 O   0  0  0  0  0  0  0  0  0  0  0  0
   10.8458    9.7455   -6.1548 C   0  0  0  0  0  0  0  0  0  0  0  0
    9.7748    9.5590   -7.0477 O   0  0  0  0  0  0  0  0  0  0  0  0
   10.4903   14.9778  -11.5584 C   0  0  1  0  0  0  0  0  0  0  0  0
    9.9387   14.4202  -12.7545 O   0  0  0  0  0  0  0  0  0  0  0  0
   16.4234    7.2324  -13.6703 C   0  0  0  0  0  0  0  0  0  0  0  0
   15.9427    5.8349  -13.4895 N   0  0  0  0  0  0  0  0  0  0  0  0
  1  2  1  6  0  0  0
  1  7  1  0  0  0  0
  1 30  1  0  0  0  0
  3  4  1  6  0  0  0
  3  9  1  0  0  0  0
  3 39  1  0  0  0  0
  5 10  1  0  0  0  0
  5 26  1  0  0  0  0
  5 32  1  1  0  0  0
  6 12  1  0  0  0  0
  6 36  1  0  0  0  0
  6 19  1  1  0  0  0
  7  8  1  6  0  0  0
  7 14  1  0  0  0  0
  9 16  1  0  0  0  0
 10 11  1  6  0  0  0
 10 18  1  0  0  0  0
 12 13  1  6  0  0  0
 12 20  1  0  0  0  0
 14 15  1  1  0  0  0
 14 22  1  0  0  0  0
 16 17  1  1  0  0  0
 16 24  1  0  0  0  0
 18 19  1  6  0  0  0
 18 25  1  0  0  0  0
 20 21  1  1  0  0  0
 20 27  1  0  0  0  0
 22 23  1  6  0  0  0
 22 29  1  0  0  0  0
 24  2  1  1  0  0  0
 24 31  1  0  0  0  0
 25 26  1  0  0  0  0
 25 33  1  1  0  0  0
 27 28  1  1  0  0  0
 27 35  1  0  0  0  0
 29 30  1  0  0  0  0
 29 37  1  1  0  0  0
 31 32  1  6  0  0  0
 31 39  1  0  0  0  0
 33 34  1  0  0  0  0
 35 36  1  0  0  0  0
 35 41  1  6  0  0  0
 37 38  1  0  0  0  0
 39 40  1  6  0  0  0
 41 42  1  0  0  0  0
M  END
>  <CHROM.1>
-111.49248706,-78.26996764,-60.55628263,-50.33610823,-18.04290176,-162.10215432
-175.73684286,107.56439905,-80.08865779,12.24278748,11.45230080,-10.12385648
-2.24569444,0.99336036,-1.78217143

>  <Name>
2o3w_lig

>  <RI>
0

>  <Rbt.Current_Directory>
/home/itssahil/PROJECTS/Mol_Feturizer/New_Systems/rnas/2o3w

>  <Rbt.Executable>
rbdock ($Id: //depot/dev/client3/rdock/2013.1/src/exe/rbdock.cxx#4 $)

>  <Rbt.Library>
libRbt.so (2013.1, Build901 2013/11/27)

>  <Rbt.Parameter_File>
/export/apps/rDock/src/rDock_2013.1_src/data/scripts/dock_solv.prm

>  <Rbt.Receptor>
prm/blind_docking_40.prm

>  <SCORE>
16.9374

>  <SCORE.INTER>
-5.2605

>  <SCORE.INTER.CONST>
1

>  <SCORE.INTER.POLAR>
-1.40678

>  <SCORE.INTER.ROT>
9

>  <SCORE.INTER.SOLV>
35.3707

>  <SCORE.INTER.VDW>
-20.208

>  <SCORE.INTER.norm>
-0.12525

>  <SCORE.INTRA>
7.89528

>  <SCORE.INTRA.DIHEDRAL>
-4.37406

>  <SCORE.INTRA.DIHEDRAL.0>
27.8999

>  <SCORE.INTRA.POLAR>
0

>  <SCORE.INTRA.POLAR.0>
0

>  <SCORE.INTRA.REPUL>
0

>  <SCORE.INTRA.REPUL.0>
0

>  <SCORE.INTRA.SOLV>
3.92121

>  <SCORE.INTRA.SOLV.lig_0>
-104.479

>  <SCORE.INTRA.VDW>
8.1217

>  <SCORE.INTRA.VDW.0>
-6.17816

>  <SCORE.INTRA.norm>
0.187983

>  <SCORE.RESTR>
14.3026

>  <SCORE.RESTR.CAVITY>
14.3026

>  <SCORE.RESTR.norm>
0.340539

>  <SCORE.SYSTEM>
0

>  <SCORE.SYSTEM.CONST>
0

>  <SCORE.SYSTEM.DIHEDRAL>
0

>  <SCORE.SYSTEM.SOLV>
0

>  <SCORE.SYSTEM.norm>
0

>  <SCORE.heavy>
42

>  <SCORE.norm>
0.403272

>  <RMSD>
18.217

$$$$
2o3w_lig
 OpenBabel11021811463D
libRbt.so/2013.1/901 2013/11/27
 42 45  0  0  0  0  0  0  0  0999 V2000
   12.4150   10.0510   -8.4308 C   0  0  2  0  0  0  0  0  0  0  0  0
   12.0716   10.9122   -9.5297 O   0  0  0  0  0  0  0  0  0  0  0  0
   13.6929    8.4824  -12.7334 C   0  0  2  0  0  0  0  0  0  0  0  0
   14.0389    7.9480  -14.0843 N   0  0  0  0  0  0  0  0  0  0  0  0
   13.0174   12.9693  -11.5297 C   0  0  1  0  0  0  0  0  0  0  0  0
   10.8254   15.4906  -12.1781 C   0  0  1  0  0  0  0  0  0  0  0  0
   11.1738    9.9963   -7.4903 C   0  0  2  0  0  0  0  0  0  0  0  0
    9.9278    9.6987   -8.2180 N   0  0  0  0  0  0  0  0  0  0  0  0
   12.1359    8.4032  -12.4663 C   0  0  0  0  0  0  0  0  0  0  0  0
   11.6258   12.2663  -11.5325 C   0  0  2  0  0  0  0  0  0  0  0  0
   11.2243   11.7593  -12.8290 O   0  0  0  0  0  0  0  0  0  0  0  0
   10.0281   16.7183  -11.6072 C   0  0  2  0  0  0  0  0  0  0  0  0
    8.6492   16.7713  -12.1787 N   0  0  0  0  0  0  0  0  0  0  0  0
   10.9469   11.3242   -6.7445 C   0  0  1  0  0  0  0  0  0  0  0  0
    9.8253   11.2160   -5.8663 O   0  0  0  0  0  0  0  0  0  0  0  0
   11.8370    8.9583  -11.0223 C   0  0  2  0  0  0  0  0  0  0  0  0
   10.3798    8.8850  -10.7312 N   0  0  0  0  0  0  0  0  0  0  0  0
   10.7370   13.3646  -10.9468 C   0  0  2  0  0  0  0  0  0  0  0  0
   10.1824   14.2233  -11.9936 O   0  0  0  0  0  0  0  0  0  0  0  0
   10.8345   18.0660  -11.9239 C   0  0  1  0  0  0  0  0  0  0  0  0
   11.9868   18.1363  -11.0544 O   0  0  0  0  0  0  0  0  0  0  0  0
   12.2310   11.7094   -5.9752 C   0  0  2  0  0  0  0  0  0  0  0  0
   12.0341   12.9148   -5.2733 O   0  0  0  0  0  0  0  0  0  0  0  0
   12.3301   10.4531  -10.8872 C   0  0  2  0  0  0  0  0  0  0  0  0
   11.6303   14.1653   -9.9844 C   0  0  2  0  0  0  0  0  0  0  0  0
   12.9221   14.0528  -10.5768 O   0  0  0  0  0  0  0  0  0  0  0  0
   11.3090   18.1625  -13.4514 C   0  0  2  0  0  0  0  0  0  0  0  0
   10.1432   18.3435  -14.2542 O   0  0  0  0  0  0  0  0  0  0  0  0
   13.4129   11.8481   -6.9918 C   0  0  2  0  0  0  0  0  0  0  0  0
   13.5910   10.5885   -7.7139 O   0  0  0  0  0  0  0  0  0  0  0  0
   13.8356   10.6168  -11.1903 C   0  0  2  0  0  0  0  0  0  0  0  0
   14.0691   12.0520  -11.2014 O   0  0  0  0  0  0  0  0  0  0  0  0
   11.6408   13.6484   -8.5124 C   0  0  0  0  0  0  0  0  0  0  0  0
   10.4311   14.0370   -7.8686 O   0  0  0  0  0  0  0  0  0  0  0  0
   12.0688   16.8510  -13.8813 C   0  0  1  0  0  0  0  0  0  0  0  0
   11.1338   15.7385  -13.6397 O   0  0  0  0  0  0  0  0  0  0  0  0
   14.7158   12.2185   -6.3217 C   0  0  0  0  0  0  0  0  0  0  0  0
   14.6000   13.4734   -5.6965 O   0  0  0  0  0  0  0  0  0  0  0  0
   14.1841    9.9796  -12.6004 C   0  0  1  0  0  0  0  0  0  0  0  0
   15.5983    9.9957  -12.8131 O   0  0  0  0  0  0  0  0  0  0  0  0
   12.5473   16.8473  -15.3977 C   0  0  0  0  0  0  0  0  0  0  0  0
   11.8935   17.8527  -16.2799 N   0  0  0  0  0  0  0  0  0  0  0  0
  1  2  1  6  0  0  0
  1  7  1  0  0  0  0
  1 30  1  0  0  0  0
  3  4  1  6  0  0  0
  3  9  1  0  0  0  0
  3 39  1  0  0  0  0
  5 10  1  0  0  0  0
  5 26  1  0  0  0  0
  5 32  1  1  0  0  0
  6 12  1  0  0  0  0
  6 36  1  0  0  0  0
  6 19  1  6  0  0  0
  7  8  1  6  0  0  0
  7 14  1  0  0  0  0
  9 16  1  0  0  0  0
 10 11  1  6  0  0  0
 10 18  1  0  0  0  0
 12 13  1  6  0  0  0
 12 20  1  0  0  0  0
 14 15  1  1  0  0  0
 14 22  1  0  0  0  0
 16 17  1  6  0  0  0
 16 24  1  0  0  0  0
 18 19  1  6  0  0  0
 18 25  1  0  0  0  0
 20 21  1  1  0  0  0
 20 27  1  0  0  0  0
 22 23  1  6  0  0  0
 22 29  1  0  0  0  0
 24  2  1  1  0  0  0
 24 31  1  0  0  0  0
 25 26  1  0  0  0  0
 25 33  1  1  0  0  0
 27 28  1  6  0  0  0
 27 35  1  0  0  0  0
 29 30  1  0  0  0  0
 29 37  1  1  0  0  0
 31 32  1  6  0  0  0
 31 39  1  0  0  0  0
 33 34  1  0  0  0  0
 35 36  1  0  0  0  0
 35 41  1  6  0  0  0
 37 38  1  0  0  0  0
 39 40  1  1  0  0  0
 41 42  1  0  0  0  0
M  END
>  <CHROM.1>
-131.21787364,12.80644119,-104.71444231,-101.25221919,45.44179540,-75.95420131
-62.17596381,-26.84109557,-17.00747129,12.00305684,12.91449048,-10.58294726
-0.98507556,1.27519682,-1.22280084

>  <Name>
2o3w_lig

>  <RI>
0

>  <Rbt.Current_Directory>
/home/itssahil/PROJECTS/Mol_Feturizer/New_Systems/rnas/2o3w

>  <Rbt.Executable>
rbdock ($Id: //depot/dev/client3/rdock/2013.1/src/exe/rbdock.cxx#4 $)

>  <Rbt.Library>
libRbt.so (2013.1, Build901 2013/11/27)

>  <Rbt.Parameter_File>
/export/apps/rDock/src/rDock_2013.1_src/data/scripts/dock_solv.prm

>  <Rbt.Receptor>
prm/blind_docking_40.prm

>  <SCORE>
38.718

>  <SCORE.INTER>
-1.39339

>  <SCORE.INTER.CONST>
1

>  <SCORE.INTER.POLAR>
-1.58377

>  <SCORE.INTER.ROT>
9

>  <SCORE.INTER.SOLV>
24.1489

>  <SCORE.INTER.VDW>
-13.2993

>  <SCORE.INTER.norm>
-0.0331759

>  <SCORE.INTRA>
30.1951

>  <SCORE.INTRA.DIHEDRAL>
7.22494

>  <SCORE.INTRA.DIHEDRAL.0>
27.8999

>  <SCORE.INTRA.POLAR>
0

>  <SCORE.INTRA.POLAR.0>
0

>  <SCORE.INTRA.REPUL>
0

>  <SCORE.INTRA.REPUL.0>
0

>  <SCORE.INTRA.SOLV>
3.97742

>  <SCORE.INTRA.SOLV.lig_0>
-104.479

>  <SCORE.INTRA.VDW>
24.5939

>  <SCORE.INTRA.VDW.0>
-6.17816

>  <SCORE.INTRA.norm>
0.718932

>  <SCORE.RESTR>
9.91624

>  <SCORE.RESTR.CAVITY>
9.91624

>  <SCORE.RESTR.norm>
0.236101

>  <SCORE.SYSTEM>
0

>  <SCORE.SYSTEM.CONST>
0

>  <SCORE.SYSTEM.DIHEDRAL>
0

>  <SCORE.SYSTEM.SOLV>
0

>  <SCORE.SYSTEM.norm>
0

>  <SCORE.heavy>
42

>  <SCORE.norm>
0.921857

>  <RMSD>
18.234

$$$$
2o3w_lig
 OpenBabel11021811463D
libRbt.so/2013.1/901 2013/11/27
 42 45  0  0  0  0  0  0  0  0999 V2000
   12.5047   10.6204   -8.3135 C   0  0  2  0  0  0  0  0  0  0  0  0
   11.9249   10.9626   -9.5839 O   0  0  0  0  0  0  0  0  0  0  0  0
   14.6855    8.7441  -12.0847 C   0  0  2  0  0  0  0  0  0  0  0  0
   15.4058    8.1842  -13.2671 N   0  0  0  0  0  0  0  0  0  0  0  0
   12.6062   12.9945  -11.5004 C   0  0  1  0  0  0  0  0  0  0  0  0
    9.6678   15.9433  -11.1310 C   0  0  1  0  0  0  0  0  0  0  0  0
   11.3251   10.4015   -7.3191 C   0  0  2  0  0  0  0  0  0  0  0  0
   10.2948    9.4963   -7.8572 N   0  0  0  0  0  0  0  0  0  0  0  0
   13.1772    8.2688  -12.0534 C   0  0  0  0  0  0  0  0  0  0  0  0
   12.4415   14.4532  -10.9751 C   0  0  2  0  0  0  0  0  0  0  0  0
   11.7500   14.5478   -9.7055 O   0  0  0  0  0  0  0  0  0  0  0  0
    8.1359   15.6911  -10.8896 C   0  0  2  0  0  0  0  0  0  0  0  0
    7.3847   15.6945  -12.1806 N   0  0  0  0  0  0  0  0  0  0  0  0
   10.6145   11.7185   -6.9565 C   0  0  1  0  0  0  0  0  0  0  0  0
    9.5682   11.4761   -6.0144 O   0  0  0  0  0  0  0  0  0  0  0  0
   12.4787    8.8715  -10.7761 C   0  0  2  0  0  0  0  0  0  0  0  0
   11.0590    8.4318  -10.7069 N   0  0  0  0  0  0  0  0  0  0  0  0
   11.7420   15.1188  -12.1613 C   0  0  2  0  0  0  0  0  0  0  0  0
   10.2861   15.0303  -12.0463 O   0  0  0  0  0  0  0  0  0  0  0  0
    7.5674   16.8069   -9.8902 C   0  0  1  0  0  0  0  0  0  0  0  0
    8.0436   16.5246   -8.5551 O   0  0  0  0  0  0  0  0  0  0  0  0
   11.6479   12.7271   -6.4051 C   0  0  2  0  0  0  0  0  0  0  0  0
   11.0104   13.9328   -6.0526 O   0  0  0  0  0  0  0  0  0  0  0  0
   12.5444   10.4498  -10.7978 C   0  0  2  0  0  0  0  0  0  0  0  0
   12.2473   14.3879  -13.4167 C   0  0  2  0  0  0  0  0  0  0  0  0
   12.4977   13.0677  -12.9406 O   0  0  0  0  0  0  0  0  0  0  0  0
    7.9956   18.2932  -10.3088 C   0  0  2  0  0  0  0  0  0  0  0  0
    7.2997   18.6196  -11.5112 O   0  0  0  0  0  0  0  0  0  0  0  0
   12.7455   12.9791   -7.4920 C   0  0  2  0  0  0  0  0  0  0  0  0
   13.3855   11.7127   -7.8477 O   0  0  0  0  0  0  0  0  0  0  0  0
   13.9894   10.9878  -10.8853 C   0  0  2  0  0  0  0  0  0  0  0  0
   13.8518   12.4222  -11.0808 O   0  0  0  0  0  0  0  0  0  0  0  0
   13.5259   15.0024  -14.0662 C   0  0  0  0  0  0  0  0  0  0  0  0
   13.4103   16.4220  -14.0808 O   0  0  0  0  0  0  0  0  0  0  0  0
    9.5518   18.3793  -10.5390 C   0  0  1  0  0  0  0  0  0  0  0  0
    9.8687   17.3780  -11.5721 O   0  0  0  0  0  0  0  0  0  0  0  0
   13.8058   13.9531   -7.0328 C   0  0  0  0  0  0  0  0  0  0  0  0
   14.5019   13.4273   -5.9290 O   0  0  0  0  0  0  0  0  0  0  0  0
   14.7492   10.3240  -12.1091 C   0  0  1  0  0  0  0  0  0  0  0  0
   16.1276   10.7055  -12.0998 O   0  0  0  0  0  0  0  0  0  0  0  0
   10.0610   19.8161  -10.9917 C   0  0  0  0  0  0  0  0  0  0  0  0
    9.5662   20.2852  -12.3152 N   0  0  0  0  0  0  0  0  0  0  0  0
  1  2  1  6  0  0  0
  1  7  1  0  0  0  0
  1 30  1  0  0  0  0
  3  4  1  6  0  0  0
  3  9  1  0  0  0  0
  3 39  1  0  0  0  0
  5 10  1  0  0  0  0
  5 26  1  0  0  0  0
  5 32  1  6  0  0  0
  6 12  1  0  0  0  0
  6 36  1  0  0  0  0
  6 19  1  6  0  0  0
  7  8  1  6  0  0  0
  7 14  1  0  0  0  0
  9 16  1  0  0  0  0
 10 11  1  1  0  0  0
 10 18  1  0  0  0  0
 12 13  1  6  0  0  0
 12 20  1  0  0  0  0
 14 15  1  1  0  0  0
 14 22  1  0  0  0  0
 16 17  1  6  0  0  0
 16 24  1  0  0  0  0
 18 19  1  1  0  0  0
 18 25  1  0  0  0  0
 20 21  1  1  0  0  0
 20 27  1  0  0  0  0
 22 23  1  6  0  0  0
 22 29  1  0  0  0  0
 24  2  1  1  0  0  0
 24 31  1  0  0  0  0
 25 26  1  0  0  0  0
 25 33  1  1  0  0  0
 27 28  1  6  0  0  0
 27 35  1  0  0  0  0
 29 30  1  0  0  0  0
 29 37  1  1  0  0  0
 31 32  1  6  0  0  0
 31 39  1  0  0  0  0
 33 34  1  0  0  0  0
 35 36  1  0  0  0  0
 35 41  1  6  0  0  0
 37 38  1  0  0  0  0
 39 40  1  1  0  0  0
 41 42  1  0  0  0  0
M  END
>  <CHROM.1>
-142.37640902,151.18810561,-172.14885324,77.34101387,62.08696585,-42.47265578
63.20042164,-16.53140196,-64.33662925,11.60223970,13.49420412,-10.30545362
0.61927864,-0.92549160,2.18952049

>  <Name>
2o3w_lig

>  <RI>
0

>  <Rbt.Current_Directory>
/home/itssahil/PROJECTS/Mol_Feturizer/New_Systems/rnas/2o3w

>  <Rbt.Executable>
rbdock ($Id: //depot/dev/client3/rdock/2013.1/src/exe/rbdock.cxx#4 $)

>  <Rbt.Library>
libRbt.so (2013.1, Build901 2013/11/27)

>  <Rbt.Parameter_File>
/export/apps/rDock/src/rDock_2013.1_src/data/scripts/dock_solv.prm

>  <Rbt.Receptor>
prm/blind_docking_60.prm

>  <SCORE>
4.97139

>  <SCORE.INTER>
-7.28241

>  <SCORE.INTER.CONST>
1

>  <SCORE.INTER.POLAR>
-0.824621

>  <SCORE.INTER.ROT>
9

>  <SCORE.INTER.SOLV>
24.0026

>  <SCORE.INTER.VDW>
-19.7071

>  <SCORE.INTER.norm>
-0.173391

>  <SCORE.INTRA>
-1.70876

>  <SCORE.INTRA.DIHEDRAL>
-10.6391

>  <SCORE.INTRA.DIHEDRAL.0>
27.8999

>  <SCORE.INTRA.POLAR>
0

>  <SCORE.INTRA.POLAR.0>
0

>  <SCORE.INTRA.REPUL>
0

>  <SCORE.INTRA.REPUL.0>
0

>  <SCORE.INTRA.SOLV>
-0.699651

>  <SCORE.INTRA.SOLV.lig_0>
-104.479

>  <SCORE.INTRA.VDW>
3.96064

>  <SCORE.INTRA.VDW.0>
-6.17816

>  <SCORE.INTRA.norm>
-0.0406847

>  <SCORE.RESTR>
13.9626

>  <SCORE.RESTR.CAVITY>
13.9626

>  <SCORE.RESTR.norm>
0.332442

>  <SCORE.SYSTEM>
0

>  <SCORE.SYSTEM.CONST>
0

>  <SCORE.SYSTEM.DIHEDRAL>
0

>  <SCORE.SYSTEM.SOLV>
0

>  <SCORE.SYSTEM.norm>
0

>  <SCORE.heavy>
42

>  <SCORE.norm>
0.118366

>  <RMSD>
18.234

$$$$
2o3w_lig
 OpenBabel11021811463D
libRbt.so/2013.1/901 2013/11/27
 42 45  0  0  0  0  0  0  0  0999 V2000
   12.3157   13.0398   -8.2035 C   0  0  2  0  0  0  0  0  0  0  0  0
   13.3187   12.6345   -9.1506 O   0  0  0  0  0  0  0  0  0  0  0  0
   13.1559   11.1236  -13.2110 C   0  0  2  0  0  0  0  0  0  0  0  0
   12.7989   10.3320  -14.4260 N   0  0  0  0  0  0  0  0  0  0  0  0
   10.0479   14.0022  -11.2341 C   0  0  1  0  0  0  0  0  0  0  0  0
    7.5627   16.9480  -10.7578 C   0  0  1  0  0  0  0  0  0  0  0  0
   13.0617   13.4497   -6.8982 C   0  0  2  0  0  0  0  0  0  0  0  0
   14.1690   14.3877   -7.1525 N   0  0  0  0  0  0  0  0  0  0  0  0
   13.8442   10.2141  -12.1152 C   0  0  0  0  0  0  0  0  0  0  0  0
    9.9345   15.2899  -10.3624 C   0  0  2  0  0  0  0  0  0  0  0  0
    8.8392   15.2652   -9.4144 O   0  0  0  0  0  0  0  0  0  0  0  0
    6.0736   16.5208  -11.0205 C   0  0  2  0  0  0  0  0  0  0  0  0
    5.5637   17.1179  -12.2911 N   0  0  0  0  0  0  0  0  0  0  0  0
   13.6651   12.2376   -6.1649 C   0  0  1  0  0  0  0  0  0  0  0  0
   14.3034   12.6545   -4.9567 O   0  0  0  0  0  0  0  0  0  0  0  0
   14.2165   11.1069  -10.8715 C   0  0  2  0  0  0  0  0  0  0  0  0
   14.8806   10.2846   -9.8244 N   0  0  0  0  0  0  0  0  0  0  0  0
    9.8531   16.3720  -11.4403 C   0  0  2  0  0  0  0  0  0  0  0  0
    8.4682   16.6441  -11.8261 O   0  0  0  0  0  0  0  0  0  0  0  0
    5.1692   16.9620   -9.7738 C   0  0  1  0  0  0  0  0  0  0  0  0
    5.4498   16.0851   -8.6596 O   0  0  0  0  0  0  0  0  0  0  0  0
   12.5554   11.1981   -5.8873 C   0  0  2  0  0  0  0  0  0  0  0  0
   13.0884   10.0892   -5.2012 O   0  0  0  0  0  0  0  0  0  0  0  0
   12.9253   11.7897  -10.2695 C   0  0  2  0  0  0  0  0  0  0  0  0
   10.6705   15.8461  -12.6322 C   0  0  2  0  0  0  0  0  0  0  0  0
   10.5056   14.4333  -12.5363 O   0  0  0  0  0  0  0  0  0  0  0  0
    5.4154   18.4830   -9.3340 C   0  0  2  0  0  0  0  0  0  0  0  0
    4.8915   19.3197  -10.3645 O   0  0  0  0  0  0  0  0  0  0  0  0
   11.9201   10.7541   -7.2470 C   0  0  2  0  0  0  0  0  0  0  0  0
   11.3829   11.9226   -7.9439 O   0  0  0  0  0  0  0  0  0  0  0  0
   12.1670   12.6520  -11.3023 C   0  0  2  0  0  0  0  0  0  0  0  0
   10.9321   13.0422  -10.6412 O   0  0  0  0  0  0  0  0  0  0  0  0
   12.1809   16.2371  -12.6182 C   0  0  0  0  0  0  0  0  0  0  0  0
   12.2993   17.6565  -12.6052 O   0  0  0  0  0  0  0  0  0  0  0  0
    6.9531   18.7619   -9.1342 C   0  0  1  0  0  0  0  0  0  0  0  0
    7.6002   18.4221  -10.4133 O   0  0  0  0  0  0  0  0  0  0  0  0
   10.8157    9.7381   -7.0686 C   0  0  0  0  0  0  0  0  0  0  0  0
   10.4279    9.2190   -8.3173 O   0  0  0  0  0  0  0  0  0  0  0  0
   11.8623   11.8039  -12.6076 C   0  0  1  0  0  0  0  0  0  0  0  0
   11.2971   12.6418  -13.6196 O   0  0  0  0  0  0  0  0  0  0  0  0
    7.2919   20.2616   -8.7282 C   0  0  0  0  0  0  0  0  0  0  0  0
    8.7326   20.6326   -8.7855 N   0  0  0  0  0  0  0  0  0  0  0  0
  1  2  1  6  0  0  0
  1  7  1  0  0  0  0
  1 30  1  0  0  0  0
  3  4  1  6  0  0  0
  3  9  1  0  0  0  0
  3 39  1  0  0  0  0
  5 10  1  0  0  0  0
  5 26  1  0  0  0  0
  5 32  1  1  0  0  0
  6 12  1  0  0  0  0
  6 36  1  0  0  0  0
  6 19  1  6  0  0  0
  7  8  1  6  0  0  0
  7 14  1  0  0  0  0
  9 16  1  0  0  0  0
 10 11  1  6  0  0  0
 10 18  1  0  0  0  0
 12 13  1  6  0  0  0
 12 20  1  0  0  0  0
 14 15  1  1  0  0  0
 14 22  1  0  0  0  0
 16 17  1  1  0  0  0
 16 24  1  0  0  0  0
 18 19  1  6  0  0  0
 18 25  1  0  0  0  0
 20 21  1  1  0  0  0
 20 27  1  0  0  0  0
 22 23  1  6  0  0  0
 22 29  1  0  0  0  0
 24  2  1  1  0  0  0
 24 31  1  0  0  0  0
 25 26  1  0  0  0  0
 25 33  1  1  0  0  0
 27 28  1  6  0  0  0
 27 35  1  0  0  0  0
 29 30  1  0  0  0  0
 29 37  1  1  0  0  0
 31 32  1  1  0  0  0
 31 39  1  0  0  0  0
 33 34  1  0  0  0  0
 35 36  1  0  0  0  0
 35 41  1  6  0  0  0
 37 38  1  0  0  0  0
 39 40  1  6  0  0  0
 41 42  1  0  0  0  0
M  END
>  <CHROM.1>
159.45338960,-115.92424583,-150.03133536,52.86392299,-161.69061242,-58.82978378
-170.70952588,171.58763067,-168.71012299,10.52370526,14.23409300,-9.91818400
0.21156033,-0.83210949,1.64222134

>  <Name>
2o3w_lig

>  <RI>
0

>  <Rbt.Current_Directory>
/home/itssahil/PROJECTS/Mol_Feturizer/New_Systems/rnas/2o3w

>  <Rbt.Executable>
rbdock ($Id: //depot/dev/client3/rdock/2013.1/src/exe/rbdock.cxx#4 $)

>  <Rbt.Library>
libRbt.so (2013.1, Build901 2013/11/27)

>  <Rbt.Parameter_File>
/export/apps/rDock/src/rDock_2013.1_src/data/scripts/dock_solv.prm

>  <Rbt.Receptor>
prm/blind_docking_100.prm

>  <SCORE>
3.55116

>  <SCORE.INTER>
-7.36461

>  <SCORE.INTER.CONST>
1

>  <SCORE.INTER.POLAR>
-1.09272

>  <SCORE.INTER.ROT>
9

>  <SCORE.INTER.SOLV>
26.6542

>  <SCORE.INTER.VDW>
-19.7521

>  <SCORE.INTER.norm>
-0.175348

>  <SCORE.INTRA>
-1.21569

>  <SCORE.INTRA.DIHEDRAL>
-12.3377

>  <SCORE.INTRA.DIHEDRAL.0>
27.8999

>  <SCORE.INTRA.POLAR>
0

>  <SCORE.INTRA.POLAR.0>
0

>  <SCORE.INTRA.REPUL>
0

>  <SCORE.INTRA.REPUL.0>
0

>  <SCORE.INTRA.SOLV>
-4.75155

>  <SCORE.INTRA.SOLV.lig_0>
-104.479

>  <SCORE.INTRA.VDW>
7.32894

>  <SCORE.INTRA.VDW.0>
-6.17816

>  <SCORE.INTRA.norm>
-0.0289449

>  <SCORE.RESTR>
12.1315

>  <SCORE.RESTR.CAVITY>
12.1315

>  <SCORE.RESTR.norm>
0.288844

>  <SCORE.SYSTEM>
0

>  <SCORE.SYSTEM.CONST>
0

>  <SCORE.SYSTEM.DIHEDRAL>
0

>  <SCORE.SYSTEM.SOLV>
0

>  <SCORE.SYSTEM.norm>
0

>  <SCORE.heavy>
42

>  <SCORE.norm>
0.0845515

>  <RMSD>
18.253

$$$$
2o3w_lig
 OpenBabel11021811463D
libRbt.so/2013.1/901 2013/11/27
 42 45  0  0  0  0  0  0  0  0999 V2000
   14.1282   12.3347   -6.8957 C   0  0  2  0  0  0  0  0  0  0  0  0
   12.7004   12.5014   -6.8677 O   0  0  0  0  0  0  0  0  0  0  0  0
   11.3083    9.2819   -9.4158 C   0  0  2  0  0  0  0  0  0  0  0  0
   10.5578    8.4944  -10.4390 N   0  0  0  0  0  0  0  0  0  0  0  0
   12.2089   13.6186  -10.1401 C   0  0  1  0  0  0  0  0  0  0  0  0
   11.3238   16.4184  -12.5124 C   0  0  1  0  0  0  0  0  0  0  0  0
   14.4578   11.0861   -6.0237 C   0  0  2  0  0  0  0  0  0  0  0  0
   13.6341    9.9172   -6.3787 N   0  0  0  0  0  0  0  0  0  0  0  0
   10.3562    9.7576   -8.2457 C   0  0  0  0  0  0  0  0  0  0  0  0
   12.3938   13.9143  -11.6597 C   0  0  2  0  0  0  0  0  0  0  0  0
   13.2272   15.0661  -11.9388 O   0  0  0  0  0  0  0  0  0  0  0  0
   10.7640   17.8805  -12.3787 C   0  0  2  0  0  0  0  0  0  0  0  0
    9.4345   18.0058  -13.0477 N   0  0  0  0  0  0  0  0  0  0  0  0
   14.2362   11.3468   -4.5224 C   0  0  1  0  0  0  0  0  0  0  0  0
   14.5877   10.1911   -3.7597 O   0  0  0  0  0  0  0  0  0  0  0  0
   11.2068   10.5608   -7.1904 C   0  0  2  0  0  0  0  0  0  0  0  0
   10.3436   11.0121   -6.0657 N   0  0  0  0  0  0  0  0  0  0  0  0
   10.9393   14.0221  -12.1204 C   0  0  2  0  0  0  0  0  0  0  0  0
   10.4454   15.3961  -12.0257 O   0  0  0  0  0  0  0  0  0  0  0  0
   11.8213   18.9104  -13.0019 C   0  0  1  0  0  0  0  0  0  0  0  0
   12.9452   19.0285  -12.1010 O   0  0  0  0  0  0  0  0  0  0  0  0
   15.0575   12.5817   -4.0869 C   0  0  2  0  0  0  0  0  0  0  0  0
   14.8786   12.8239   -2.7107 O   0  0  0  0  0  0  0  0  0  0  0  0
   11.8947   11.8124   -7.8659 C   0  0  2  0  0  0  0  0  0  0  0  0
   10.1351   13.0770  -11.2118 C   0  0  2  0  0  0  0  0  0  0  0  0
   10.8627   13.1137   -9.9863 O   0  0  0  0  0  0  0  0  0  0  0  0
   12.3407   18.4676  -14.4516 C   0  0  2  0  0  0  0  0  0  0  0  0
   11.2502   18.6076  -15.3614 O   0  0  0  0  0  0  0  0  0  0  0  0
   14.6037   13.8199   -4.9299 C   0  0  2  0  0  0  0  0  0  0  0  0
   14.7899   13.5406   -6.3536 O   0  0  0  0  0  0  0  0  0  0  0  0
   12.7990   11.4282   -9.0574 C   0  0  2  0  0  0  0  0  0  0  0  0
   13.1918   12.6912   -9.6616 O   0  0  0  0  0  0  0  0  0  0  0  0
    9.9980   11.6152  -11.7396 C   0  0  0  0  0  0  0  0  0  0  0  0
   11.1685   11.2683  -12.4734 O   0  0  0  0  0  0  0  0  0  0  0  0
   12.8443   16.9750  -14.4297 C   0  0  1  0  0  0  0  0  0  0  0  0
   11.7078   16.1666  -13.9553 O   0  0  0  0  0  0  0  0  0  0  0  0
   15.3631   15.0766   -4.5725 C   0  0  0  0  0  0  0  0  0  0  0  0
   16.7360   14.9020   -4.8257 O   0  0  0  0  0  0  0  0  0  0  0  0
   11.9938   10.5361  -10.0925 C   0  0  1  0  0  0  0  0  0  0  0  0
   12.8697   10.0557  -11.1160 O   0  0  0  0  0  0  0  0  0  0  0  0
   13.3482   16.4406  -15.8401 C   0  0  0  0  0  0  0  0  0  0  0  0
   12.6762   17.0337  -17.0289 N   0  0  0  0  0  0  0  0  0  0  0  0
  1  2  1  1  0  0  0
  1  7  1  0  0  0  0
  1 30  1  0  0  0  0
  3  4  1  6  0  0  0
  3  9  1  0  0  0  0
  3 39  1  0  0  0  0
  5 10  1  0  0  0  0
  5 26  1  0  0  0  0
  5 32  1  6  0  0  0
  6 12  1  0  0  0  0
  6 36  1  0  0  0  0
  6 19  1  6  0  0  0
  7  8  1  6  0  0  0
  7 14  1  0  0  0  0
  9 16  1  0  0  0  0
 10 11  1  1  0  0  0
 10 18  1  0  0  0  0
 12 13  1  6  0  0  0
 12 20  1  0  0  0  0
 14 15  1  1  0  0  0
 14 22  1  0  0  0  0
 16 17  1  1  0  0  0
 16 24  1  0  0  0  0
 18 19  1  1  0  0  0
 18 25  1  0  0  0  0
 20 21  1  1  0  0  0
 20 27  1  0  0  0  0
 22 23  1  1  0  0  0
 22 29  1  0  0  0  0
 24  2  1  1  0  0  0
 24 31  1  0  0  0  0
 25 26  1  0  0  0  0
 25 33  1  6  0  0  0
 27 28  1  6  0  0  0
 27 35  1  0  0  0  0
 29 30  1  0  0  0  0
 29 37  1  1  0  0  0
 31 32  1  6  0  0  0
 31 39  1  0  0  0  0
 33 34  1  0  0  0  0
 35 36  1  0  0  0  0
 35 41  1  6  0  0  0
 37 38  1  0  0  0  0
 39 40  1  6  0  0  0
 41 42  1  0  0  0  0
M  END
>  <CHROM.1>
-88.69614193,-121.17945204,-179.35596210,44.76816593,103.49327729,32.26561107
61.25068515,-57.82493267,-30.69509753,12.48844701,13.60713025,-9.72034947
-1.17523336,-1.00971547,-0.66918155

>  <Name>
2o3w_lig

>  <RI>
0

>  <Rbt.Current_Directory>
/home/itssahil/PROJECTS/Mol_Feturizer/New_Systems/rnas/2o3w

>  <Rbt.Executable>
rbdock ($Id: //depot/dev/client3/rdock/2013.1/src/exe/rbdock.cxx#4 $)

>  <Rbt.Library>
libRbt.so (2013.1, Build901 2013/11/27)

>  <Rbt.Parameter_File>
/export/apps/rDock/src/rDock_2013.1_src/data/scripts/dock_solv.prm

>  <Rbt.Receptor>
prm/blind_docking_80.prm

>  <SCORE>
24.0885

>  <SCORE.INTER>
1.12956

>  <SCORE.INTER.CONST>
1

>  <SCORE.INTER.POLAR>
-1.36999

>  <SCORE.INTER.ROT>
9

>  <SCORE.INTER.SOLV>
35.0746

>  <SCORE.INTER.VDW>
-15.9719

>  <SCORE.INTER.norm>
0.0268943

>  <SCORE.INTRA>
12.7343

>  <SCORE.INTRA.DIHEDRAL>
-5.34617

>  <SCORE.INTRA.DIHEDRAL.0>
27.8999

>  <SCORE.INTRA.POLAR>
0

>  <SCORE.INTRA.POLAR.0>
0

>  <SCORE.INTRA.REPUL>
0

>  <SCORE.INTRA.REPUL.0>
0

>  <SCORE.INTRA.SOLV>
5.10128

>  <SCORE.INTRA.SOLV.lig_0>
-104.479

>  <SCORE.INTRA.VDW>
12.8568

>  <SCORE.INTRA.VDW.0>
-6.17816

>  <SCORE.INTRA.norm>
0.303199

>  <SCORE.RESTR>
10.2246

>  <SCORE.RESTR.CAVITY>
10.2246

>  <SCORE.RESTR.norm>
0.243443

>  <SCORE.SYSTEM>
0

>  <SCORE.SYSTEM.CONST>
0

>  <SCORE.SYSTEM.DIHEDRAL>
0

>  <SCORE.SYSTEM.SOLV>
0

>  <SCORE.SYSTEM.norm>
0

>  <SCORE.heavy>
42

>  <SCORE.norm>
0.573536

>  <RMSD>
18.262

$$$$
2o3w_lig
 OpenBabel11021811463D
libRbt.so/2013.1/901 2013/11/27
 42 45  0  0  0  0  0  0  0  0999 V2000
   10.7777   11.6429   -7.1178 C   0  0  2  0  0  0  0  0  0  0  0  0
   11.0090   11.7013   -8.5357 O   0  0  0  0  0  0  0  0  0  0  0  0
   10.8228    8.3644  -11.2974 C   0  0  2  0  0  0  0  0  0  0  0  0
   10.3226    7.2950  -12.2121 N   0  0  0  0  0  0  0  0  0  0  0  0
   10.8396   13.3638  -11.6008 C   0  0  1  0  0  0  0  0  0  0  0  0
   11.9976   16.0911  -12.6784 C   0  0  1  0  0  0  0  0  0  0  0  0
   10.4160   13.0865   -6.6560 C   0  0  2  0  0  0  0  0  0  0  0  0
    9.3643   13.6976   -7.4874 N   0  0  0  0  0  0  0  0  0  0  0  0
   10.3498    8.1142   -9.8089 C   0  0  0  0  0  0  0  0  0  0  0  0
   12.0889   13.6069  -10.7003 C   0  0  2  0  0  0  0  0  0  0  0  0
   11.8433   14.4887   -9.5773 O   0  0  0  0  0  0  0  0  0  0  0  0
   12.4804   16.9402  -13.9091 C   0  0  2  0  0  0  0  0  0  0  0  0
   13.3719   18.0556  -13.4708 N   0  0  0  0  0  0  0  0  0  0  0  0
   11.6275   14.0358   -6.7028 C   0  0  1  0  0  0  0  0  0  0  0  0
   11.2601   15.3345   -6.2345 O   0  0  0  0  0  0  0  0  0  0  0  0
   10.9253    9.2585   -8.8914 C   0  0  2  0  0  0  0  0  0  0  0  0
   10.5110    9.0462   -7.4783 N   0  0  0  0  0  0  0  0  0  0  0  0
   13.1027   14.1110  -11.7287 C   0  0  2  0  0  0  0  0  0  0  0  0
   13.0536   15.5671  -11.8636 O   0  0  0  0  0  0  0  0  0  0  0  0
   11.2037   17.5003  -14.6986 C   0  0  1  0  0  0  0  0  0  0  0  0
   10.5855   16.4109  -15.4197 O   0  0  0  0  0  0  0  0  0  0  0  0
   12.7821   13.4397   -5.8657 C   0  0  2  0  0  0  0  0  0  0  0  0
   13.8934   14.3052   -5.8846 O   0  0  0  0  0  0  0  0  0  0  0  0
   10.4233   10.6730   -9.3842 C   0  0  2  0  0  0  0  0  0  0  0  0
   12.7448   13.4163  -13.0534 C   0  0  2  0  0  0  0  0  0  0  0  0
   11.3329   13.2453  -12.9549 O   0  0  0  0  0  0  0  0  0  0  0  0
   10.1245   18.1833  -13.7310 C   0  0  2  0  0  0  0  0  0  0  0  0
   10.6951   19.3938  -13.2354 O   0  0  0  0  0  0  0  0  0  0  0  0
   13.1632   12.0375   -6.4471 C   0  0  2  0  0  0  0  0  0  0  0  0
   11.9920   11.1613   -6.4257 O   0  0  0  0  0  0  0  0  0  0  0  0
   10.8013   10.9643  -10.8531 C   0  0  2  0  0  0  0  0  0  0  0  0
   10.1117   12.2002  -11.1871 O   0  0  0  0  0  0  0  0  0  0  0  0
   13.4601   12.0509  -13.2947 C   0  0  0  0  0  0  0  0  0  0  0  0
   13.3961   11.2696  -12.1054 O   0  0  0  0  0  0  0  0  0  0  0  0
    9.7620   17.2223  -12.5364 C   0  0  1  0  0  0  0  0  0  0  0  0
   11.0326   16.9185  -11.8555 O   0  0  0  0  0  0  0  0  0  0  0  0
   14.2855   11.3760   -5.6812 C   0  0  0  0  0  0  0  0  0  0  0  0
   15.4522   12.1584   -5.7583 O   0  0  0  0  0  0  0  0  0  0  0  0
   10.3171    9.7795  -11.7898 C   0  0  1  0  0  0  0  0  0  0  0  0
   10.7984    9.9757  -13.1223 O   0  0  0  0  0  0  0  0  0  0  0  0
    8.7189   17.8361  -11.5050 C   0  0  0  0  0  0  0  0  0  0  0  0
    8.1370   16.8730  -10.5301 N   0  0  0  0  0  0  0  0  0  0  0  0
  1  2  1  6  0  0  0
  1  7  1  0  0  0  0
  1 30  1  0  0  0  0
  3  4  1  6  0  0  0
  3  9  1  0  0  0  0
  3 39  1  0  0  0  0
  5 10  1  0  0  0  0
  5 26  1  0  0  0  0
  5 32  1  1  0  0  0
  6 12  1  0  0  0  0
  6 36  1  0  0  0  0
  6 19  1  1  0  0  0
  7  8  1  6  0  0  0
  7 14  1  0  0  0  0
  9 16  1  0  0  0  0
 10 11  1  1  0  0  0
 10 18  1  0  0  0  0
 12 13  1  1  0  0  0
 12 20  1  0  0  0  0
 14 15  1  1  0  0  0
 14 22  1  0  0  0  0
 16 17  1  1  0  0  0
 16 24  1  0  0  0  0
 18 19  1  6  0  0  0
 18 25  1  0  0  0  0
 20 21  1  1  0  0  0
 20 27  1  0  0  0  0
 22 23  1  6  0  0  0
 22 29  1  0  0  0  0
 24  2  1  1  0  0  0
 24 31  1  0  0  0  0
 25 26  1  0  0  0  0
 25 33  1  1  0  0  0
 27 28  1  1  0  0  0
 27 35  1  0  0  0  0
 29 30  1  0  0  0  0
 29 37  1  1  0  0  0
 31 32  1  6  0  0  0
 31 39  1  0  0  0  0
 33 34  1  0  0  0  0
 35 36  1  0  0  0  0
 35 41  1  1  0  0  0
 37 38  1  0  0  0  0
 39 40  1  6  0  0  0
 41 42  1  0  0  0  0
M  END
>  <CHROM.1>
-135.01642215,-44.44194605,-120.65424159,-79.80308587,-57.30895235,45.46085387
-61.85876886,120.23997154,167.80027928,11.48365486,13.40885174,-10.35592180
-1.08149463,-1.37308244,-0.23151512

>  <Name>
2o3w_lig

>  <RI>
0

>  <Rbt.Current_Directory>
/home/itssahil/PROJECTS/Mol_Feturizer/New_Systems/rnas/2o3w

>  <Rbt.Executable>
rbdock ($Id: //depot/dev/client3/rdock/2013.1/src/exe/rbdock.cxx#4 $)

>  <Rbt.Library>
libRbt.so (2013.1, Build901 2013/11/27)

>  <Rbt.Parameter_File>
/export/apps/rDock/src/rDock_2013.1_src/data/scripts/dock_solv.prm

>  <Rbt.Receptor>
prm/blind_docking_40.prm

>  <SCORE>
105.766

>  <SCORE.INTER>
90.3966

>  <SCORE.INTER.CONST>
1

>  <SCORE.INTER.POLAR>
-0.743509

>  <SCORE.INTER.ROT>
9

>  <SCORE.INTER.SOLV>
34.5943

>  <SCORE.INTER.VDW>
41.6114

>  <SCORE.INTER.norm>
2.1523

>  <SCORE.INTRA>
0.733148

>  <SCORE.INTRA.DIHEDRAL>
-3.13666

>  <SCORE.INTRA.DIHEDRAL.0>
27.8999

>  <SCORE.INTRA.POLAR>
0

>  <SCORE.INTRA.POLAR.0>
0

>  <SCORE.INTRA.REPUL>
0.00440101

>  <SCORE.INTRA.REPUL.0>
0

>  <SCORE.INTRA.SOLV>
0.276228

>  <SCORE.INTRA.SOLV.lig_0>
-104.479

>  <SCORE.INTRA.VDW>
2.14136

>  <SCORE.INTRA.VDW.0>
-6.17816

>  <SCORE.INTRA.norm>
0.0174559

>  <SCORE.RESTR>
14.6364

>  <SCORE.RESTR.CAVITY>
14.6364

>  <SCORE.RESTR.norm>
0.348486

>  <SCORE.SYSTEM>
0

>  <SCORE.SYSTEM.CONST>
0

>  <SCORE.SYSTEM.DIHEDRAL>
0

>  <SCORE.SYSTEM.SOLV>
0

>  <SCORE.SYSTEM.norm>
0

>  <SCORE.heavy>
42

>  <SCORE.norm>
2.51824

>  <RMSD>
18.265

$$$$
2o3w_lig
 OpenBabel11021811463D
libRbt.so/2013.1/901 2013/11/27
 42 45  0  0  0  0  0  0  0  0999 V2000
   13.1135   11.9462  -11.1055 C   0  0  2  0  0  0  0  0  0  0  0  0
   13.1900   12.9380  -12.1436 O   0  0  0  0  0  0  0  0  0  0  0  0
   11.0617   16.7130  -12.2698 C   0  0  2  0  0  0  0  0  0  0  0  0
    9.9859   17.7414  -12.3936 N   0  0  0  0  0  0  0  0  0  0  0  0
   11.8177   13.3124   -8.7647 C   0  0  1  0  0  0  0  0  0  0  0  0
   13.4779   12.5176   -5.6489 C   0  0  1  0  0  0  0  0  0  0  0  0
   14.3702   11.0365  -11.2518 C   0  0  2  0  0  0  0  0  0  0  0  0
   15.6187   11.8120  -11.3545 N   0  0  0  0  0  0  0  0  0  0  0  0
   11.2858   15.9493  -13.6367 C   0  0  0  0  0  0  0  0  0  0  0  0
   10.6849   12.9734   -7.7485 C   0  0  2  0  0  0  0  0  0  0  0  0
   10.1188   14.1324   -7.0888 O   0  0  0  0  0  0  0  0  0  0  0  0
   13.9979   11.0550   -5.4054 C   0  0  2  0  0  0  0  0  0  0  0  0
   13.3921   10.4722   -4.1708 N   0  0  0  0  0  0  0  0  0  0  0  0
   14.2999   10.1394  -12.5013 C   0  0  1  0  0  0  0  0  0  0  0  0
   15.4508    9.2962  -12.5736 O   0  0  0  0  0  0  0  0  0  0  0  0
   12.4437   14.8972  -13.4495 C   0  0  2  0  0  0  0  0  0  0  0  0
   12.6918   14.1688  -14.7228 N   0  0  0  0  0  0  0  0  0  0  0  0
   11.3949   11.9726   -6.8354 C   0  0  2  0  0  0  0  0  0  0  0  0
   12.0516   12.6413   -5.7118 O   0  0  0  0  0  0  0  0  0  0  0  0
   15.5970   11.0716   -5.3092 C   0  0  1  0  0  0  0  0  0  0  0  0
   16.1426   11.2751   -6.6320 O   0  0  0  0  0  0  0  0  0  0  0  0
   12.9949    9.3116  -12.4688 C   0  0  2  0  0  0  0  0  0  0  0  0
   12.9233    8.4723  -13.5980 O   0  0  0  0  0  0  0  0  0  0  0  0
   12.0794   13.8648  -12.3105 C   0  0  2  0  0  0  0  0  0  0  0  0
   12.4160   11.2396   -7.7216 C   0  0  2  0  0  0  0  0  0  0  0  0
   12.7697   12.2267   -8.6876 O   0  0  0  0  0  0  0  0  0  0  0  0
   16.1490   12.2062   -4.3214 C   0  0  2  0  0  0  0  0  0  0  0  0
   15.7966   11.8282   -2.9912 O   0  0  0  0  0  0  0  0  0  0  0  0
   11.7721   10.2875  -12.4266 C   0  0  2  0  0  0  0  0  0  0  0  0
   11.8742   11.1536  -11.2522 O   0  0  0  0  0  0  0  0  0  0  0  0
   11.7908   14.5460  -10.9547 C   0  0  2  0  0  0  0  0  0  0  0  0
   11.3004   13.4843  -10.0906 O   0  0  0  0  0  0  0  0  0  0  0  0
   11.8808    9.9463   -8.4108 C   0  0  0  0  0  0  0  0  0  0  0  0
   12.8716    9.4437   -9.3023 O   0  0  0  0  0  0  0  0  0  0  0  0
   15.5189   13.6061   -4.6755 C   0  0  1  0  0  0  0  0  0  0  0  0
   14.0586   13.4310   -4.5898 O   0  0  0  0  0  0  0  0  0  0  0  0
   10.4483    9.5597  -12.3865 C   0  0  0  0  0  0  0  0  0  0  0  0
   10.3479    8.8007  -11.2061 O   0  0  0  0  0  0  0  0  0  0  0  0
   10.6945   15.6784  -11.1317 C   0  0  1  0  0  0  0  0  0  0  0  0
   10.5380   16.4085   -9.9118 O   0  0  0  0  0  0  0  0  0  0  0  0
   15.9877   14.7876   -3.7202 C   0  0  0  0  0  0  0  0  0  0  0  0
   15.7347   14.5782   -2.2680 N   0  0  0  0  0  0  0  0  0  0  0  0
  1  2  1  6  0  0  0
  1  7  1  0  0  0  0
  1 30  1  0  0  0  0
  3  4  1  6  0  0  0
  3  9  1  0  0  0  0
  3 39  1  0  0  0  0
  5 10  1  0  0  0  0
  5 26  1  0  0  0  0
  5 32  1  6  0  0  0
  6 12  1  0  0  0  0
  6 36  1  0  0  0  0
  6 19  1  1  0  0  0
  7  8  1  6  0  0  0
  7 14  1  0  0  0  0
  9 16  1  0  0  0  0
 10 11  1  1  0  0  0
 10 18  1  0  0  0  0
 12 13  1  1  0  0  0
 12 20  1  0  0  0  0
 14 15  1  1  0  0  0
 14 22  1  0  0  0  0
 16 17  1  6  0  0  0
 16 24  1  0  0  0  0
 18 19  1  1  0  0  0
 18 25  1  0  0  0  0
 20 21  1  6  0  0  0
 20 27  1  0  0  0  0
 22 23  1  6  0  0  0
 22 29  1  0  0  0  0
 24  2  1  1  0  0  0
 24 31  1  0  0  0  0
 25 26  1  0  0  0  0
 25 33  1  6  0  0  0
 27 28  1  1  0  0  0
 27 35  1  0  0  0  0
 29 30  1  0  0  0  0
 29 37  1  1  0  0  0
 31 32  1  1  0  0  0
 31 39  1  0  0  0  0
 33 34  1  0  0  0  0
 35 36  1  0  0  0  0
 35 41  1  1  0  0  0
 37 38  1  0  0  0  0
 39 40  1  1  0  0  0
 41 42  1  0  0  0  0
M  END
>  <CHROM.1>
175.15580109,139.05215037,-65.24911852,-117.28015439,176.69294724,174.11654867
63.20534865,132.27690206,-56.73667454,12.90294136,12.41828732,-9.15804781
-2.36570342,-1.11272418,0.85205830

>  <Name>
2o3w_lig

>  <RI>
0

>  <Rbt.Current_Directory>
/home/itssahil/PROJECTS/Mol_Feturizer/New_Systems/rnas/2o3w

>  <Rbt.Executable>
rbdock ($Id: //depot/dev/client3/rdock/2013.1/src/exe/rbdock.cxx#4 $)

>  <Rbt.Library>
libRbt.so (2013.1, Build901 2013/11/27)

>  <Rbt.Parameter_File>
/export/apps/rDock/src/rDock_2013.1_src/data/scripts/dock_solv.prm

>  <Rbt.Receptor>
prm/blind_docking_100.prm

>  <SCORE>
-0.176516

>  <SCORE.INTER>
-11.269

>  <SCORE.INTER.CONST>
1

>  <SCORE.INTER.POLAR>
-1.09364

>  <SCORE.INTER.ROT>
9

>  <SCORE.INTER.SOLV>
29.1434

>  <SCORE.INTER.VDW>
-23.1817

>  <SCORE.INTER.norm>
-0.26831

>  <SCORE.INTRA>
2.95978

>  <SCORE.INTRA.DIHEDRAL>
-8.07345

>  <SCORE.INTRA.DIHEDRAL.0>
27.8999

>  <SCORE.INTRA.POLAR>
0

>  <SCORE.INTRA.POLAR.0>
0

>  <SCORE.INTRA.REPUL>
0

>  <SCORE.INTRA.REPUL.0>
0

>  <SCORE.INTRA.SOLV>
-0.808723

>  <SCORE.INTRA.SOLV.lig_0>
-104.479

>  <SCORE.INTRA.VDW>
7.40086

>  <SCORE.INTRA.VDW.0>
-6.17816

>  <SCORE.INTRA.norm>
0.0704709

>  <SCORE.RESTR>
8.13274

>  <SCORE.RESTR.CAVITY>
8.13274

>  <SCORE.RESTR.norm>
0.193637

>  <SCORE.SYSTEM>
0

>  <SCORE.SYSTEM.CONST>
0

>  <SCORE.SYSTEM.DIHEDRAL>
0

>  <SCORE.SYSTEM.SOLV>
0

>  <SCORE.SYSTEM.norm>
0

>  <SCORE.heavy>
42

>  <SCORE.norm>
-0.00420277

>  <RMSD>
18.270

$$$$
2o3w_lig
 OpenBabel11021811463D
libRbt.so/2013.1/901 2013/11/27
 42 45  0  0  0  0  0  0  0  0999 V2000
   11.9480   13.3223  -12.2812 C   0  0  2  0  0  0  0  0  0  0  0  0
   13.3043   13.3238  -11.8039 O   0  0  0  0  0  0  0  0  0  0  0  0
   14.2553    9.1793  -10.9589 C   0  0  2  0  0  0  0  0  0  0  0  0
   14.7016    7.9278  -10.2770 N   0  0  0  0  0  0  0  0  0  0  0  0
   12.0177   11.9751   -8.4522 C   0  0  1  0  0  0  0  0  0  0  0  0
   13.1045   12.2442   -5.6017 C   0  0  1  0  0  0  0  0  0  0  0  0
   11.9624   13.9775  -13.6949 C   0  0  2  0  0  0  0  0  0  0  0  0
   12.9892   13.3946  -14.5761 N   0  0  0  0  0  0  0  0  0  0  0  0
   15.4604   10.1835  -11.1616 C   0  0  0  0  0  0  0  0  0  0  0  0
   10.8301   12.5848   -7.6467 C   0  0  2  0  0  0  0  0  0  0  0  0
   10.9452   14.0104   -7.4154 O   0  0  0  0  0  0  0  0  0  0  0  0
   13.7964   10.8660   -5.3006 C   0  0  2  0  0  0  0  0  0  0  0  0
   13.5337   10.4329   -3.8955 N   0  0  0  0  0  0  0  0  0  0  0  0
   12.2357   15.4916  -13.6344 C   0  0  1  0  0  0  0  0  0  0  0  0
   12.2003   16.0562  -14.9462 O   0  0  0  0  0  0  0  0  0  0  0  0
   14.9334   11.4699  -11.9032 C   0  0  2  0  0  0  0  0  0  0  0  0
   16.0463   12.4324  -12.1239 N   0  0  0  0  0  0  0  0  0  0  0  0
   10.8398   11.7077   -6.3937 C   0  0  2  0  0  0  0  0  0  0  0  0
   11.6942   12.2720   -5.3485 O   0  0  0  0  0  0  0  0  0  0  0  0
   15.3691   10.9919   -5.5795 C   0  0  1  0  0  0  0  0  0  0  0  0
   15.5884   11.0339   -7.0074 O   0  0  0  0  0  0  0  0  0  0  0  0
   11.2030   16.1651  -12.7021 C   0  0  2  0  0  0  0  0  0  0  0  0
   11.4293   17.5545  -12.6491 O   0  0  0  0  0  0  0  0  0  0  0  0
   13.7888   12.1659  -11.0658 C   0  0  2  0  0  0  0  0  0  0  0  0
   11.3487   10.3283   -6.8450 C   0  0  2  0  0  0  0  0  0  0  0  0
   12.2283   10.6468   -7.9208 O   0  0  0  0  0  0  0  0  0  0  0  0
   16.0197   12.2885   -4.8989 C   0  0  2  0  0  0  0  0  0  0  0  0
   16.0054   12.0868   -3.4863 O   0  0  0  0  0  0  0  0  0  0  0  0
   11.3141   15.5318  -11.2752 C   0  0  2  0  0  0  0  0  0  0  0  0
   11.0851   14.0895  -11.3579 O   0  0  0  0  0  0  0  0  0  0  0  0
   12.5989   11.2240  -10.7795 C   0  0  2  0  0  0  0  0  0  0  0  0
   11.7443   11.9570   -9.8593 O   0  0  0  0  0  0  0  0  0  0  0  0
   10.2369    9.3347   -7.3044 C   0  0  0  0  0  0  0  0  0  0  0  0
    9.1827    9.3327   -6.3465 O   0  0  0  0  0  0  0  0  0  0  0  0
   15.2020   13.5822   -5.2733 C   0  0  1  0  0  0  0  0  0  0  0  0
   13.8189   13.3344   -4.8308 O   0  0  0  0  0  0  0  0  0  0  0  0
   10.3310   16.1298  -10.2955 C   0  0  0  0  0  0  0  0  0  0  0  0
    9.0539   16.2129  -10.8798 O   0  0  0  0  0  0  0  0  0  0  0  0
   13.1119    9.8767  -10.1182 C   0  0  1  0  0  0  0  0  0  0  0  0
   12.0328    8.9464   -9.9928 O   0  0  0  0  0  0  0  0  0  0  0  0
   15.7605   14.9155   -4.6108 C   0  0  0  0  0  0  0  0  0  0  0  0
   16.0953   14.8219   -3.1631 N   0  0  0  0  0  0  0  0  0  0  0  0
  1  2  1  1  0  0  0
  1  7  1  0  0  0  0
  1 30  1  0  0  0  0
  3  4  1  1  0  0  0
  3  9  1  0  0  0  0
  3 39  1  0  0  0  0
  5 10  1  0  0  0  0
  5 26  1  0  0  0  0
  5 32  1  6  0  0  0
  6 12  1  0  0  0  0
  6 36  1  0  0  0  0
  6 19  1  1  0  0  0
  7  8  1  6  0  0  0
  7 14  1  0  0  0  0
  9 16  1  0  0  0  0
 10 11  1  1  0  0  0
 10 18  1  0  0  0  0
 12 13  1  1  0  0  0
 12 20  1  0  0  0  0
 14 15  1  6  0  0  0
 14 22  1  0  0  0  0
 16 17  1  1  0  0  0
 16 24  1  0  0  0  0
 18 19  1  1  0  0  0
 18 25  1  0  0  0  0
 20 21  1  6  0  0  0
 20 27  1  0  0  0  0
 22 23  1  1  0  0  0
 22 29  1  0  0  0  0
 24  2  1  6  0  0  0
 24 31  1  0  0  0  0
 25 26  1  0  0  0  0
 25 33  1  6  0  0  0
 27 28  1  1  0  0  0
 27 35  1  0  0  0  0
 29 30  1  0  0  0  0
 29 37  1  1  0  0  0
 31 32  1  1  0  0  0
 31 39  1  0  0  0  0
 33 34  1  0  0  0  0
 35 36  1  0  0  0  0
 35 41  1  1  0  0  0
 37 38  1  0  0  0  0
 39 40  1  6  0  0  0
 41 42  1  0  0  0  0
M  END
>  <CHROM.1>
-140.90845954,-169.04260491,-80.97724997,-69.70334042,115.08043427,-47.31098640
46.20742162,-82.48535452,-45.73905110,12.85380284,12.53319596,-8.93217443
-2.47339428,-1.25337224,1.05752330

>  <Name>
2o3w_lig

>  <RI>
0

>  <Rbt.Current_Directory>
/home/itssahil/PROJECTS/Mol_Feturizer/New_Systems/rnas/2o3w

>  <Rbt.Executable>
rbdock ($Id: //depot/dev/client3/rdock/2013.1/src/exe/rbdock.cxx#4 $)

>  <Rbt.Library>
libRbt.so (2013.1, Build901 2013/11/27)

>  <Rbt.Parameter_File>
/export/apps/rDock/src/rDock_2013.1_src/data/scripts/dock_solv.prm

>  <Rbt.Receptor>
prm/blind_docking_100.prm

>  <SCORE>
26.2075

>  <SCORE.INTER>
13.5926

>  <SCORE.INTER.CONST>
1

>  <SCORE.INTER.POLAR>
-0.564647

>  <SCORE.INTER.ROT>
9

>  <SCORE.INTER.SOLV>
36.3816

>  <SCORE.INTER.VDW>
-10.7833

>  <SCORE.INTER.norm>
0.323633

>  <SCORE.INTRA>
2.95334

>  <SCORE.INTRA.DIHEDRAL>
-8.41518

>  <SCORE.INTRA.DIHEDRAL.0>
27.8999

>  <SCORE.INTRA.POLAR>
0

>  <SCORE.INTRA.POLAR.0>
0

>  <SCORE.INTRA.REPUL>
0

>  <SCORE.INTRA.REPUL.0>
0

>  <SCORE.INTRA.SOLV>
-0.805922

>  <SCORE.INTRA.SOLV.lig_0>
-104.479

>  <SCORE.INTRA.VDW>
7.56389

>  <SCORE.INTRA.VDW.0>
-6.17816

>  <SCORE.INTRA.norm>
0.0703175

>  <SCORE.RESTR>
9.66157

>  <SCORE.RESTR.CAVITY>
9.66157

>  <SCORE.RESTR.norm>
0.230037

>  <SCORE.SYSTEM>
0

>  <SCORE.SYSTEM.CONST>
0

>  <SCORE.SYSTEM.DIHEDRAL>
0

>  <SCORE.SYSTEM.SOLV>
0

>  <SCORE.SYSTEM.norm>
0

>  <SCORE.heavy>
42

>  <SCORE.norm>
0.623988

>  <RMSD>
18.287

$$$$
2o3w_lig
 OpenBabel11021811463D
libRbt.so/2013.1/901 2013/11/27
 42 45  0  0  0  0  0  0  0  0999 V2000
   12.3298   11.2202   -7.6337 C   0  0  2  0  0  0  0  0  0  0  0  0
   12.9365   11.6506   -8.8641 O   0  0  0  0  0  0  0  0  0  0  0  0
   12.9221    9.0842  -12.3583 C   0  0  2  0  0  0  0  0  0  0  0  0
   12.5510    8.4364  -13.6518 N   0  0  0  0  0  0  0  0  0  0  0  0
   12.1801   13.4627  -11.7840 C   0  0  1  0  0  0  0  0  0  0  0  0
    9.2373   16.8095  -11.8780 C   0  0  1  0  0  0  0  0  0  0  0  0
   11.4521   12.4014   -7.1214 C   0  0  2  0  0  0  0  0  0  0  0  0
   10.5587   12.9339   -8.1650 N   0  0  0  0  0  0  0  0  0  0  0  0
   11.8241    8.8234  -11.2500 C   0  0  0  0  0  0  0  0  0  0  0  0
   12.0444   14.8843  -11.1582 C   0  0  2  0  0  0  0  0  0  0  0  0
   11.3517   14.9044   -9.8858 O   0  0  0  0  0  0  0  0  0  0  0  0
    9.6622   17.4572  -10.5110 C   0  0  2  0  0  0  0  0  0  0  0  0
    9.4806   16.4932   -9.3847 N   0  0  0  0  0  0  0  0  0  0  0  0
   12.3001   13.5833   -6.6165 C   0  0  1  0  0  0  0  0  0  0  0  0
   11.4568   14.6246   -6.1209 O   0  0  0  0  0  0  0  0  0  0  0  0
   12.2812    9.5098   -9.9074 C   0  0  2  0  0  0  0  0  0  0  0  0
   11.2763    9.2718   -8.8364 N   0  0  0  0  0  0  0  0  0  0  0  0
   11.3621   15.6456  -12.2958 C   0  0  2  0  0  0  0  0  0  0  0  0
    9.9043   15.5798  -12.1888 O   0  0  0  0  0  0  0  0  0  0  0  0
    8.8084   18.7913  -10.2700 C   0  0  1  0  0  0  0  0  0  0  0  0
    9.2950   19.8239  -11.1564 O   0  0  0  0  0  0  0  0  0  0  0  0
   13.2815   13.0869   -5.5305 C   0  0  2  0  0  0  0  0  0  0  0  0
   14.0539   14.1606   -5.0457 O   0  0  0  0  0  0  0  0  0  0  0  0
   12.4768   11.0637  -10.1149 C   0  0  2  0  0  0  0  0  0  0  0  0
   11.8552   14.9938  -13.5986 C   0  0  2  0  0  0  0  0  0  0  0  0
   12.0770   13.6386  -13.2156 O   0  0  0  0  0  0  0  0  0  0  0  0
    7.2385   18.5765  -10.5082 C   0  0  2  0  0  0  0  0  0  0  0  0
    6.7528   17.7443   -9.4556 O   0  0  0  0  0  0  0  0  0  0  0  0
   14.1998   11.9764   -6.1413 C   0  0  2  0  0  0  0  0  0  0  0  0
   13.3751   10.8785   -6.6456 O   0  0  0  0  0  0  0  0  0  0  0  0
   13.4972   11.3958  -11.2257 C   0  0  2  0  0  0  0  0  0  0  0  0
   13.4124   12.8365  -11.4040 O   0  0  0  0  0  0  0  0  0  0  0  0
   13.1481   15.6252  -14.2020 C   0  0  0  0  0  0  0  0  0  0  0  0
   12.9226   17.0090  -14.4536 O   0  0  0  0  0  0  0  0  0  0  0  0
    6.9760   17.8974  -11.9054 C   0  0  1  0  0  0  0  0  0  0  0  0
    7.7333   16.6339  -11.8949 O   0  0  0  0  0  0  0  0  0  0  0  0
   15.1912   11.4269   -5.1418 C   0  0  0  0  0  0  0  0  0  0  0  0
   14.9024   10.0784   -4.8636 O   0  0  0  0  0  0  0  0  0  0  0  0
   13.1145   10.6399  -12.5665 C   0  0  1  0  0  0  0  0  0  0  0  0
   14.1388   10.8257  -13.5473 O   0  0  0  0  0  0  0  0  0  0  0  0
    5.4410   17.6158  -12.2104 C   0  0  0  0  0  0  0  0  0  0  0  0
    5.0972   17.4175  -13.6454 N   0  0  0  0  0  0  0  0  0  0  0  0
  1  2  1  6  0  0  0
  1  7  1  0  0  0  0
  1 30  1  0  0  0  0
  3  4  1  6  0  0  0
  3  9  1  0  0  0  0
  3 39  1  0  0  0  0
  5 10  1  0  0  0  0
  5 26  1  0  0  0  0
  5 32  1  6  0  0  0
  6 12  1  0  0  0  0
  6 36  1  0  0  0  0
  6 19  1  1  0  0  0
  7  8  1  6  0  0  0
  7 14  1  0  0  0  0
  9 16  1  0  0  0  0
 10 11  1  1  0  0  0
 10 18  1  0  0  0  0
 12 13  1  1  0  0  0
 12 20  1  0  0  0  0
 14 15  1  1  0  0  0
 14 22  1  0  0  0  0
 16 17  1  1  0  0  0
 16 24  1  0  0  0  0
 18 19  1  1  0  0  0
 18 25  1  0  0  0  0
 20 21  1  6  0  0  0
 20 27  1  0  0  0  0
 22 23  1  6  0  0  0
 22 29  1  0  0  0  0
 24  2  1  1  0  0  0
 24 31  1  0  0  0  0
 25 26  1  0  0  0  0
 25 33  1  1  0  0  0
 27 28  1  1  0  0  0
 27 35  1  0  0  0  0
 29 30  1  0  0  0  0
 29 37  1  1  0  0  0
 31 32  1  6  0  0  0
 31 39  1  0  0  0  0
 33 34  1  0  0  0  0
 35 36  1  0  0  0  0
 35 41  1  1  0  0  0
 37 38  1  0  0  0  0
 39 40  1  6  0  0  0
 41 42  1  0  0  0  0
M  END
>  <CHROM.1>
-108.75550510,147.20559521,-59.98654797,111.90070327,-42.22479391,-58.10582600
113.81656821,-59.57264062,160.13392703,11.35139648,13.85423925,-10.18658993
0.26032669,-0.95238969,1.38818056

>  <Name>
2o3w_lig

>  <RI>
0

>  <Rbt.Current_Directory>
/home/itssahil/PROJECTS/Mol_Feturizer/New_Systems/rnas/2o3w

>  <Rbt.Executable>
rbdock ($Id: //depot/dev/client3/rdock/2013.1/src/exe/rbdock.cxx#4 $)

>  <Rbt.Library>
libRbt.so (2013.1, Build901 2013/11/27)

>  <Rbt.Parameter_File>
/export/apps/rDock/src/rDock_2013.1_src/data/scripts/dock_solv.prm

>  <Rbt.Receptor>
prm/blind_docking_80.prm

>  <SCORE>
-10.9634

>  <SCORE.INTER>
-25.4649

>  <SCORE.INTER.CONST>
1

>  <SCORE.INTER.POLAR>
-2.77061

>  <SCORE.INTER.ROT>
9

>  <SCORE.INTER.SOLV>
29.6582

>  <SCORE.INTER.VDW>
-27.2273

>  <SCORE.INTER.norm>
-0.606308

>  <SCORE.INTRA>
6.45525

>  <SCORE.INTRA.DIHEDRAL>
-2.29913

>  <SCORE.INTRA.DIHEDRAL.0>
27.8999

>  <SCORE.INTRA.POLAR>
0

>  <SCORE.INTRA.POLAR.0>
0

>  <SCORE.INTRA.REPUL>
0.295479

>  <SCORE.INTRA.REPUL.0>
0

>  <SCORE.INTRA.SOLV>
1.44624

>  <SCORE.INTRA.SOLV.lig_0>
-104.479

>  <SCORE.INTRA.VDW>
5.4043

>  <SCORE.INTRA.VDW.0>
-6.17816

>  <SCORE.INTRA.norm>
0.153696

>  <SCORE.RESTR>
8.04634

>  <SCORE.RESTR.CAVITY>
8.04634

>  <SCORE.RESTR.norm>
0.19158

>  <SCORE.SYSTEM>
0

>  <SCORE.SYSTEM.CONST>
0

>  <SCORE.SYSTEM.DIHEDRAL>
0

>  <SCORE.SYSTEM.SOLV>
0

>  <SCORE.SYSTEM.norm>
0

>  <SCORE.heavy>
42

>  <SCORE.norm>
-0.261032

>  <RMSD>
18.290

$$$$
2o3w_lig
 OpenBabel11021811463D
libRbt.so/2013.1/901 2013/11/27
 42 45  0  0  0  0  0  0  0  0999 V2000
   12.7553   10.6085   -8.2314 C   0  0  2  0  0  0  0  0  0  0  0  0
   12.3238   11.0959   -9.5134 O   0  0  0  0  0  0  0  0  0  0  0  0
   15.2619    9.0553  -11.9629 C   0  0  2  0  0  0  0  0  0  0  0  0
   16.0103    8.5035  -13.1316 N   0  0  0  0  0  0  0  0  0  0  0  0
   12.7596   13.0288  -11.7804 C   0  0  1  0  0  0  0  0  0  0  0  0
    9.4375   15.7085  -12.2411 C   0  0  1  0  0  0  0  0  0  0  0  0
   11.4774   10.4361   -7.3565 C   0  0  2  0  0  0  0  0  0  0  0  0
   10.4199    9.6772   -8.0467 N   0  0  0  0  0  0  0  0  0  0  0  0
   13.8257    8.4038  -11.8416 C   0  0  0  0  0  0  0  0  0  0  0  0
   12.3572   14.4931  -11.4276 C   0  0  2  0  0  0  0  0  0  0  0  0
   11.5179   14.6067  -10.2521 O   0  0  0  0  0  0  0  0  0  0  0  0
    9.6736   17.1326  -12.8617 C   0  0  2  0  0  0  0  0  0  0  0  0
   11.1025   17.5446  -12.7232 N   0  0  0  0  0  0  0  0  0  0  0  0
   10.8615   11.7872   -6.9491 C   0  0  1  0  0  0  0  0  0  0  0  0
    9.7183   11.5821   -6.1173 O   0  0  0  0  0  0  0  0  0  0  0  0
   13.0963    9.0073  -10.5820 C   0  0  2  0  0  0  0  0  0  0  0  0
   11.7447    8.4047  -10.4287 N   0  0  0  0  0  0  0  0  0  0  0  0
   11.7224   14.9515  -12.7414 C   0  0  2  0  0  0  0  0  0  0  0  0
   10.2849   14.6799  -12.7679 O   0  0  0  0  0  0  0  0  0  0  0  0
    8.6991   18.1871  -12.1509 C   0  0  1  0  0  0  0  0  0  0  0  0
    7.3506   17.9690  -12.6229 O   0  0  0  0  0  0  0  0  0  0  0  0
   11.9303   12.6475   -6.2373 C   0  0  2  0  0  0  0  0  0  0  0  0
   11.3775   13.8817   -5.8429 O   0  0  0  0  0  0  0  0  0  0  0  0
   12.9654   10.5763  -10.7129 C   0  0  2  0  0  0  0  0  0  0  0  0
   12.4548   14.1863  -13.8564 C   0  0  2  0  0  0  0  0  0  0  0  0
   12.8093   12.9588  -13.2239 O   0  0  0  0  0  0  0  0  0  0  0  0
    8.7306   18.0837  -10.5522 C   0  0  2  0  0  0  0  0  0  0  0  0
   10.0068   18.5495  -10.1153 O   0  0  0  0  0  0  0  0  0  0  0  0
   13.1381   12.8674   -7.2082 C   0  0  2  0  0  0  0  0  0  0  0  0
   13.6880   11.5730   -7.6104 O   0  0  0  0  0  0  0  0  0  0  0  0
   14.3295   11.2781  -10.8920 C   0  0  2  0  0  0  0  0  0  0  0  0
   14.0095   12.6674  -11.1786 O   0  0  0  0  0  0  0  0  0  0  0  0
   13.7142   14.9060  -14.4309 C   0  0  0  0  0  0  0  0  0  0  0  0
   13.6461   16.2941  -14.1189 O   0  0  0  0  0  0  0  0  0  0  0  0
    8.5048   16.5956  -10.0869 C   0  0  1  0  0  0  0  0  0  0  0  0
    9.5616   15.7994  -10.7347 O   0  0  0  0  0  0  0  0  0  0  0  0
   14.2386   13.6973   -6.5885 C   0  0  0  0  0  0  0  0  0  0  0  0
   13.7932   15.0155   -6.3803 O   0  0  0  0  0  0  0  0  0  0  0  0
   15.1287   10.6253  -12.0965 C   0  0  1  0  0  0  0  0  0  0  0  0
   16.4489   11.1711  -12.1660 O   0  0  0  0  0  0  0  0  0  0  0  0
    8.5544   16.3954   -8.5101 C   0  0  0  0  0  0  0  0  0  0  0  0
    9.8621   15.9427   -7.9610 N   0  0  0  0  0  0  0  0  0  0  0  0
  1  2  1  6  0  0  0
  1  7  1  0  0  0  0
  1 30  1  0  0  0  0
  3  4  1  6  0  0  0
  3  9  1  0  0  0  0
  3 39  1  0  0  0  0
  5 10  1  0  0  0  0
  5 26  1  0  0  0  0
  5 32  1  1  0  0  0
  6 12  1  0  0  0  0
  6 36  1  0  0  0  0
  6 19  1  6  0  0  0
  7  8  1  6  0  0  0
  7 14  1  0  0  0  0
  9 16  1  0  0  0  0
 10 11  1  1  0  0  0
 10 18  1  0  0  0  0
 12 13  1  1  0  0  0
 12 20  1  0  0  0  0
 14 15  1  1  0  0  0
 14 22  1  0  0  0  0
 16 17  1  6  0  0  0
 16 24  1  0  0  0  0
 18 19  1  1  0  0  0
 18 25  1  0  0  0  0
 20 21  1  6  0  0  0
 20 27  1  0  0  0  0
 22 23  1  6  0  0  0
 22 29  1  0  0  0  0
 24  2  1  1  0  0  0
 24 31  1  0  0  0  0
 25 26  1  0  0  0  0
 25 33  1  1  0  0  0
 27 28  1  6  0  0  0
 27 35  1  0  0  0  0
 29 30  1  0  0  0  0
 29 37  1  1  0  0  0
 31 32  1  6  0  0  0
 31 39  1  0  0  0  0
 33 34  1  0  0  0  0
 35 36  1  0  0  0  0
 35 41  1  1  0  0  0
 37 38  1  0  0  0  0
 39 40  1  1  0  0  0
 41 42  1  0  0  0  0
M  END
>  <CHROM.1>
-140.16935899,154.65535573,52.88093773,88.80616561,44.61567041,-19.68029514
-67.10756728,-26.15525235,-96.59278618,11.93621607,13.43443141,-10.37302837
0.55166899,-0.92212245,2.06100591

>  <Name>
2o3w_lig

>  <RI>
0

>  <Rbt.Current_Directory>
/home/itssahil/PROJECTS/Mol_Feturizer/New_Systems/rnas/2o3w

>  <Rbt.Executable>
rbdock ($Id: //depot/dev/client3/rdock/2013.1/src/exe/rbdock.cxx#4 $)

>  <Rbt.Library>
libRbt.so (2013.1, Build901 2013/11/27)

>  <Rbt.Parameter_File>
/export/apps/rDock/src/rDock_2013.1_src/data/scripts/dock_solv.prm

>  <Rbt.Receptor>
prm/blind_docking_40.prm

>  <SCORE>
16.2054

>  <SCORE.INTER>
-3.61058

>  <SCORE.INTER.CONST>
1

>  <SCORE.INTER.POLAR>
-0.818357

>  <SCORE.INTER.ROT>
9

>  <SCORE.INTER.SOLV>
29.1453

>  <SCORE.INTER.VDW>
-18.9943

>  <SCORE.INTER.norm>
-0.0859661

>  <SCORE.INTRA>
7.07444

>  <SCORE.INTRA.DIHEDRAL>
-2.99346

>  <SCORE.INTRA.DIHEDRAL.0>
27.8999

>  <SCORE.INTRA.POLAR>
0

>  <SCORE.INTRA.POLAR.0>
0

>  <SCORE.INTRA.REPUL>
0.0972597

>  <SCORE.INTRA.REPUL.0>
0

>  <SCORE.INTRA.SOLV>
4.6246

>  <SCORE.INTRA.SOLV.lig_0>
-104.479

>  <SCORE.INTRA.VDW>
5.77257

>  <SCORE.INTRA.VDW.0>
-6.17816

>  <SCORE.INTRA.norm>
0.168439

>  <SCORE.RESTR>
12.7415

>  <SCORE.RESTR.CAVITY>
12.7415

>  <SCORE.RESTR.norm>
0.303369

>  <SCORE.SYSTEM>
0

>  <SCORE.SYSTEM.CONST>
0

>  <SCORE.SYSTEM.DIHEDRAL>
0

>  <SCORE.SYSTEM.SOLV>
0

>  <SCORE.SYSTEM.norm>
0

>  <SCORE.heavy>
42

>  <SCORE.norm>
0.385842

>  <RMSD>
18.292

$$$$
2o3w_lig
 OpenBabel11021811463D
libRbt.so/2013.1/901 2013/11/27
 42 45  0  0  0  0  0  0  0  0999 V2000
   12.2483   10.8313   -8.0651 C   0  0  2  0  0  0  0  0  0  0  0  0
   11.7627   11.1720   -9.3748 O   0  0  0  0  0  0  0  0  0  0  0  0
   15.0135    9.4377  -11.6597 C   0  0  2  0  0  0  0  0  0  0  0  0
   15.8841    8.9852  -12.7856 N   0  0  0  0  0  0  0  0  0  0  0  0
   12.0954   13.2454  -11.1956 C   0  0  1  0  0  0  0  0  0  0  0  0
    9.3044   15.9481  -11.5089 C   0  0  1  0  0  0  0  0  0  0  0  0
   11.0126   10.7970   -7.1164 C   0  0  2  0  0  0  0  0  0  0  0  0
    9.9076    9.9875   -7.6589 N   0  0  0  0  0  0  0  0  0  0  0  0
   13.6231    8.6837  -11.6705 C   0  0  0  0  0  0  0  0  0  0  0  0
   11.9637   14.7269  -11.6630 C   0  0  2  0  0  0  0  0  0  0  0  0
   11.6335   15.6534  -10.5992 O   0  0  0  0  0  0  0  0  0  0  0  0
    7.8175   16.1119  -11.0283 C   0  0  2  0  0  0  0  0  0  0  0  0
    6.8723   16.0344  -12.1823 N   0  0  0  0  0  0  0  0  0  0  0  0
   10.4437   12.2023   -6.8468 C   0  0  1  0  0  0  0  0  0  0  0  0
    9.3397   12.1270   -5.9432 O   0  0  0  0  0  0  0  0  0  0  0  0
   12.7610    9.1855  -10.4509 C   0  0  2  0  0  0  0  0  0  0  0  0
   11.4488    8.4848  -10.4217 N   0  0  0  0  0  0  0  0  0  0  0  0
   10.9213   14.5962  -12.7746 C   0  0  2  0  0  0  0  0  0  0  0  0
    9.5615   14.7538  -12.2581 O   0  0  0  0  0  0  0  0  0  0  0  0
    7.6635   17.5043  -10.2508 C   0  0  1  0  0  0  0  0  0  0  0  0
    8.2953   17.3887   -8.9560 O   0  0  0  0  0  0  0  0  0  0  0  0
   11.5630   13.1146   -6.2956 C   0  0  2  0  0  0  0  0  0  0  0  0
   11.0543   14.4007   -6.0278 O   0  0  0  0  0  0  0  0  0  0  0  0
   12.5271   10.7454  -10.5385 C   0  0  2  0  0  0  0  0  0  0  0  0
   11.1265   13.2004  -13.3869 C   0  0  2  0  0  0  0  0  0  0  0  0
   11.5986   12.4317  -12.2829 O   0  0  0  0  0  0  0  0  0  0  0  0
    8.3021   18.7372  -11.0506 C   0  0  2  0  0  0  0  0  0  0  0  0
    7.4900   18.9721  -12.2003 O   0  0  0  0  0  0  0  0  0  0  0  0
   12.7248   13.1863   -7.3419 C   0  0  2  0  0  0  0  0  0  0  0  0
   13.2291   11.8397   -7.6101 O   0  0  0  0  0  0  0  0  0  0  0  0
   13.8463   11.5469  -10.5891 C   0  0  2  0  0  0  0  0  0  0  0  0
   13.4488   12.9206  -10.8524 O   0  0  0  0  0  0  0  0  0  0  0  0
   12.1313   13.1460  -14.5792 C   0  0  0  0  0  0  0  0  0  0  0  0
   13.4187   13.5565  -14.1287 O   0  0  0  0  0  0  0  0  0  0  0  0
    9.7811   18.4118  -11.4850 C   0  0  1  0  0  0  0  0  0  0  0  0
    9.7095   17.1803  -12.2903 O   0  0  0  0  0  0  0  0  0  0  0  0
   13.8705   14.0568   -6.8799 C   0  0  0  0  0  0  0  0  0  0  0  0
   14.5749   13.4204   -5.8415 O   0  0  0  0  0  0  0  0  0  0  0  0
   14.7775   10.9987  -11.7502 C   0  0  1  0  0  0  0  0  0  0  0  0
   16.0563   11.6372  -11.7002 O   0  0  0  0  0  0  0  0  0  0  0  0
   10.4822   19.5721  -12.3162 C   0  0  0  0  0  0  0  0  0  0  0  0
   11.1899   19.1390  -13.5524 N   0  0  0  0  0  0  0  0  0  0  0  0
  1  2  1  6  0  0  0
  1  7  1  0  0  0  0
  1 30  1  0  0  0  0
  3  4  1  6  0  0  0
  3  9  1  0  0  0  0
  3 39  1  0  0  0  0
  5 10  1  0  0  0  0
  5 26  1  0  0  0  0
  5 32  1  6  0  0  0
  6 12  1  0  0  0  0
  6 36  1  0  0  0  0
  6 19  1  6  0  0  0
  7  8  1  6  0  0  0
  7 14  1  0  0  0  0
  9 16  1  0  0  0  0
 10 11  1  1  0  0  0
 10 18  1  0  0  0  0
 12 13  1  6  0  0  0
 12 20  1  0  0  0  0
 14 15  1  1  0  0  0
 14 22  1  0  0  0  0
 16 17  1  6  0  0  0
 16 24  1  0  0  0  0
 18 19  1  1  0  0  0
 18 25  1  0  0  0  0
 20 21  1  1  0  0  0
 20 27  1  0  0  0  0
 22 23  1  6  0  0  0
 22 29  1  0  0  0  0
 24  2  1  1  0  0  0
 24 31  1  0  0  0  0
 25 26  1  0  0  0  0
 25 33  1  6  0  0  0
 27 28  1  6  0  0  0
 27 35  1  0  0  0  0
 29 30  1  0  0  0  0
 29 37  1  1  0  0  0
 31 32  1  6  0  0  0
 31 39  1  0  0  0  0
 33 34  1  0  0  0  0
 35 36  1  0  0  0  0
 35 41  1  6  0  0  0
 37 38  1  0  0  0  0
 39 40  1  1  0  0  0
 41 42  1  0  0  0  0
M  END
>  <CHROM.1>
-154.36130276,-170.40055468,177.32112181,53.95333949,53.81960515,61.66199184
71.48755934,-9.08943670,-132.77778740,11.49274671,13.60350804,-10.39324636
0.55030573,-0.92198217,1.96856938

>  <Name>
2o3w_lig

>  <RI>
0

>  <Rbt.Current_Directory>
/home/itssahil/PROJECTS/Mol_Feturizer/New_Systems/rnas/2o3w

>  <Rbt.Executable>
rbdock ($Id: //depot/dev/client3/rdock/2013.1/src/exe/rbdock.cxx#4 $)

>  <Rbt.Library>
libRbt.so (2013.1, Build901 2013/11/27)

>  <Rbt.Parameter_File>
/export/apps/rDock/src/rDock_2013.1_src/data/scripts/dock_solv.prm

>  <Rbt.Receptor>
prm/blind_docking_60.prm

>  <SCORE>
3.44415

>  <SCORE.INTER>
-12.2934

>  <SCORE.INTER.CONST>
1

>  <SCORE.INTER.POLAR>
-0.824621

>  <SCORE.INTER.ROT>
9

>  <SCORE.INTER.SOLV>
23.8246

>  <SCORE.INTER.VDW>
-22.9884

>  <SCORE.INTER.norm>
-0.292701

>  <SCORE.INTRA>
0.793959

>  <SCORE.INTRA.DIHEDRAL>
-12.1385

>  <SCORE.INTRA.DIHEDRAL.0>
27.8999

>  <SCORE.INTRA.POLAR>
0

>  <SCORE.INTRA.POLAR.0>
0

>  <SCORE.INTRA.REPUL>
0

>  <SCORE.INTRA.REPUL.0>
0

>  <SCORE.INTRA.SOLV>
-1.64089

>  <SCORE.INTRA.SOLV.lig_0>
-104.479

>  <SCORE.INTRA.VDW>
7.68367

>  <SCORE.INTRA.VDW.0>
-6.17816

>  <SCORE.INTRA.norm>
0.0189038

>  <SCORE.RESTR>
14.9436

>  <SCORE.RESTR.CAVITY>
14.9436

>  <SCORE.RESTR.norm>
0.3558

>  <SCORE.SYSTEM>
0

>  <SCORE.SYSTEM.CONST>
0

>  <SCORE.SYSTEM.DIHEDRAL>
0

>  <SCORE.SYSTEM.SOLV>
0

>  <SCORE.SYSTEM.norm>
0

>  <SCORE.heavy>
42

>  <SCORE.norm>
0.0820035

>  <RMSD>
18.292

$$$$
2o3w_lig
 OpenBabel11021811463D
libRbt.so/2013.1/901 2013/11/27
 42 45  0  0  0  0  0  0  0  0999 V2000
   12.2493   11.3937   -7.6326 C   0  0  2  0  0  0  0  0  0  0  0  0
   12.8409   11.8927   -8.8443 O   0  0  0  0  0  0  0  0  0  0  0  0
   13.5980    8.9089  -11.8971 C   0  0  2  0  0  0  0  0  0  0  0  0
   13.5166    8.0888  -13.1426 N   0  0  0  0  0  0  0  0  0  0  0  0
   12.7105   13.2817  -12.1063 C   0  0  1  0  0  0  0  0  0  0  0  0
    9.6205   16.1766  -12.6924 C   0  0  1  0  0  0  0  0  0  0  0  0
   11.3754   12.5428   -7.0461 C   0  0  2  0  0  0  0  0  0  0  0  0
   10.4690   13.1296   -8.0484 N   0  0  0  0  0  0  0  0  0  0  0  0
   12.2951    8.7446  -11.0155 C   0  0  0  0  0  0  0  0  0  0  0  0
   12.3131   14.7107  -11.6258 C   0  0  2  0  0  0  0  0  0  0  0  0
   11.2915   14.7241  -10.5985 O   0  0  0  0  0  0  0  0  0  0  0  0
   10.3168   17.5120  -12.2444 C   0  0  2  0  0  0  0  0  0  0  0  0
   11.4237   17.2388  -11.2795 N   0  0  0  0  0  0  0  0  0  0  0  0
   12.2270   13.6972   -6.4865 C   0  0  1  0  0  0  0  0  0  0  0  0
   11.3876   14.7075   -5.9247 O   0  0  0  0  0  0  0  0  0  0  0  0
   12.4496    9.6126   -9.7097 C   0  0  2  0  0  0  0  0  0  0  0  0
   11.2452    9.4701   -8.8480 N   0  0  0  0  0  0  0  0  0  0  0  0
   11.9296   15.3733  -12.9498 C   0  0  2  0  0  0  0  0  0  0  0  0
   10.5078   15.1977  -13.2474 O   0  0  0  0  0  0  0  0  0  0  0  0
    9.2219   18.4896  -11.6023 C   0  0  1  0  0  0  0  0  0  0  0  0
    8.3950   19.0241  -12.6604 O   0  0  0  0  0  0  0  0  0  0  0  0
   13.2219   13.1441   -5.4408 C   0  0  2  0  0  0  0  0  0  0  0  0
   13.9979   14.1914   -4.9065 O   0  0  0  0  0  0  0  0  0  0  0  0
   12.6631   11.1348  -10.0749 C   0  0  2  0  0  0  0  0  0  0  0  0
   12.8095   14.7137  -14.0251 C   0  0  2  0  0  0  0  0  0  0  0  0
   13.0020   13.3953  -13.5181 O   0  0  0  0  0  0  0  0  0  0  0  0
    8.2971   17.7599  -10.5161 C   0  0  2  0  0  0  0  0  0  0  0  0
    9.1112   17.4734   -9.3797 O   0  0  0  0  0  0  0  0  0  0  0  0
   14.1351   12.0712   -6.1224 C   0  0  2  0  0  0  0  0  0  0  0  0
   13.3066   11.0008   -6.6769 O   0  0  0  0  0  0  0  0  0  0  0  0
   13.8897   11.3662  -10.9842 C   0  0  2  0  0  0  0  0  0  0  0  0
   13.8245   12.7683  -11.3642 O   0  0  0  0  0  0  0  0  0  0  0  0
   14.1761   15.4213  -14.2821 C   0  0  0  0  0  0  0  0  0  0  0  0
   13.9676   16.8272  -14.3763 O   0  0  0  0  0  0  0  0  0  0  0  0
    7.6938   16.4285  -11.1042 C   0  0  1  0  0  0  0  0  0  0  0  0
    8.8436   15.6084  -11.5233 O   0  0  0  0  0  0  0  0  0  0  0  0
   15.1390   11.4700   -5.1661 C   0  0  0  0  0  0  0  0  0  0  0  0
   16.0401   10.6455   -5.8643 O   0  0  0  0  0  0  0  0  0  0  0  0
   13.8084   10.4326  -12.2638 C   0  0  1  0  0  0  0  0  0  0  0  0
   15.0136   10.5355  -13.0271 O   0  0  0  0  0  0  0  0  0  0  0  0
    6.7868   15.6200  -10.0785 C   0  0  0  0  0  0  0  0  0  0  0  0
    7.3214   15.5150   -8.6929 N   0  0  0  0  0  0  0  0  0  0  0  0
  1  2  1  6  0  0  0
  1  7  1  0  0  0  0
  1 30  1  0  0  0  0
  3  4  1  6  0  0  0
  3  9  1  0  0  0  0
  3 39  1  0  0  0  0
  5 10  1  0  0  0  0
  5 26  1  0  0  0  0
  5 32  1  1  0  0  0
  6 12  1  0  0  0  0
  6 36  1  0  0  0  0
  6 19  1  1  0  0  0
  7  8  1  6  0  0  0
  7 14  1  0  0  0  0
  9 16  1  0  0  0  0
 10 11  1  1  0  0  0
 10 18  1  0  0  0  0
 12 13  1  1  0  0  0
 12 20  1  0  0  0  0
 14 15  1  1  0  0  0
 14 22  1  0  0  0  0
 16 17  1  1  0  0  0
 16 24  1  0  0  0  0
 18 19  1  6  0  0  0
 18 25  1  0  0  0  0
 20 21  1  6  0  0  0
 20 27  1  0  0  0  0
 22 23  1  6  0  0  0
 22 29  1  0  0  0  0
 24  2  1  1  0  0  0
 24 31  1  0  0  0  0
 25 26  1  0  0  0  0
 25 33  1  1  0  0  0
 27 28  1  1  0  0  0
 27 35  1  0  0  0  0
 29 30  1  0  0  0  0
 29 37  1  1  0  0  0
 31 32  1  6  0  0  0
 31 39  1  0  0  0  0
 33 34  1  0  0  0  0
 35 36  1  0  0  0  0
 35 41  1  1  0  0  0
 37 38  1  0  0  0  0
 39 40  1  1  0  0  0
 41 42  1  0  0  0  0
M  END
>  <CHROM.1>
-126.01131093,141.69773417,18.39031894,86.82229889,-26.87108637,-45.47481150
-172.46252046,-61.52956372,-43.16619915,11.88702755,13.63026561,-10.20635169
0.58098946,-0.93414086,1.71134844

>  <Name>
2o3w_lig

>  <RI>
0

>  <Rbt.Current_Directory>
/home/itssahil/PROJECTS/Mol_Feturizer/New_Systems/rnas/2o3w

>  <Rbt.Executable>
rbdock ($Id: //depot/dev/client3/rdock/2013.1/src/exe/rbdock.cxx#4 $)

>  <Rbt.Library>
libRbt.so (2013.1, Build901 2013/11/27)

>  <Rbt.Parameter_File>
/export/apps/rDock/src/rDock_2013.1_src/data/scripts/dock_solv.prm

>  <Rbt.Receptor>
prm/blind_docking_60.prm

>  <SCORE>
11.6956

>  <SCORE.INTER>
-11.5214

>  <SCORE.INTER.CONST>
1

>  <SCORE.INTER.POLAR>
-1.19429

>  <SCORE.INTER.ROT>
9

>  <SCORE.INTER.SOLV>
24.3198

>  <SCORE.INTER.VDW>
-21.4065

>  <SCORE.INTER.norm>
-0.274318

>  <SCORE.INTRA>
11.3424

>  <SCORE.INTRA.DIHEDRAL>
-1.02195

>  <SCORE.INTRA.DIHEDRAL.0>
27.8999

>  <SCORE.INTRA.POLAR>
0

>  <SCORE.INTRA.POLAR.0>
0

>  <SCORE.INTRA.REPUL>
0.146009

>  <SCORE.INTRA.REPUL.0>
0

>  <SCORE.INTRA.SOLV>
4.28143

>  <SCORE.INTRA.SOLV.lig_0>
-104.479

>  <SCORE.INTRA.VDW>
8.98265

>  <SCORE.INTRA.VDW.0>
-6.17816

>  <SCORE.INTRA.norm>
0.270058

>  <SCORE.RESTR>
11.8746

>  <SCORE.RESTR.CAVITY>
11.8746

>  <SCORE.RESTR.norm>
0.282728

>  <SCORE.SYSTEM>
0

>  <SCORE.SYSTEM.CONST>
0

>  <SCORE.SYSTEM.DIHEDRAL>
0

>  <SCORE.SYSTEM.SOLV>
0

>  <SCORE.SYSTEM.norm>
0

>  <SCORE.heavy>
42

>  <SCORE.norm>
0.278468

>  <RMSD>
18.301

$$$$
2o3w_lig
 OpenBabel11021811463D
libRbt.so/2013.1/901 2013/11/27
 42 45  0  0  0  0  0  0  0  0999 V2000
   11.6009   13.7232   -6.9318 C   0  0  2  0  0  0  0  0  0  0  0  0
   12.1170   13.6352   -8.2709 O   0  0  0  0  0  0  0  0  0  0  0  0
    9.4683   15.3916  -11.2197 C   0  0  2  0  0  0  0  0  0  0  0  0
    8.8949   16.2823  -12.2725 N   0  0  0  0  0  0  0  0  0  0  0  0
   13.3891   12.1887  -10.9219 C   0  0  1  0  0  0  0  0  0  0  0  0
   14.3392    8.6313  -11.1921 C   0  0  1  0  0  0  0  0  0  0  0  0
   12.8269   13.7137   -5.9701 C   0  0  2  0  0  0  0  0  0  0  0  0
   13.8585   14.6899   -6.3620 N   0  0  0  0  0  0  0  0  0  0  0  0
    9.6715   16.1698   -9.8578 C   0  0  0  0  0  0  0  0  0  0  0  0
   12.9659   11.5033   -9.5869 C   0  0  2  0  0  0  0  0  0  0  0  0
   13.9356   11.6431   -8.5196 O   0  0  0  0  0  0  0  0  0  0  0  0
   15.7290    7.9040  -11.1010 C   0  0  2  0  0  0  0  0  0  0  0  0
   16.7877    8.8362  -10.6100 N   0  0  0  0  0  0  0  0  0  0  0  0
   13.5153   12.3375   -5.9145 C   0  0  1  0  0  0  0  0  0  0  0  0
   14.6066   12.3641   -4.9930 O   0  0  0  0  0  0  0  0  0  0  0  0
   10.2555   15.1755   -8.7841 C   0  0  2  0  0  0  0  0  0  0  0  0
   10.4461   15.8721   -7.4833 N   0  0  0  0  0  0  0  0  0  0  0  0
   12.7017   10.0725  -10.0584 C   0  0  2  0  0  0  0  0  0  0  0  0
   13.9063    9.2465   -9.9724 O   0  0  0  0  0  0  0  0  0  0  0  0
   16.1089    7.3077  -12.5387 C   0  0  1  0  0  0  0  0  0  0  0  0
   15.2799    6.1529  -12.7994 O   0  0  0  0  0  0  0  0  0  0  0  0
   12.4784   11.2575   -5.5302 C   0  0  2  0  0  0  0  0  0  0  0  0
   13.0964    9.9937   -5.4586 O   0  0  0  0  0  0  0  0  0  0  0  0
   11.6337   14.5763   -9.2715 C   0  0  2  0  0  0  0  0  0  0  0  0
   12.2080   10.1884  -11.5104 C   0  0  2  0  0  0  0  0  0  0  0  0
   12.8798   11.3524  -11.9860 O   0  0  0  0  0  0  0  0  0  0  0  0
   15.9300    8.3739  -13.7214 C   0  0  2  0  0  0  0  0  0  0  0  0
   16.9395    9.3696  -13.5602 O   0  0  0  0  0  0  0  0  0  0  0  0
   11.3294   11.2519   -6.5930 C   0  0  2  0  0  0  0  0  0  0  0  0
   10.7105   12.5758   -6.6554 O   0  0  0  0  0  0  0  0  0  0  0  0
   11.5234   13.8475  -10.6287 C   0  0  2  0  0  0  0  0  0  0  0  0
   12.8919   13.5307  -11.0045 O   0  0  0  0  0  0  0  0  0  0  0  0
   10.6623   10.3275  -11.6709 C   0  0  0  0  0  0  0  0  0  0  0  0
   10.3218   10.2285  -13.0504 O   0  0  0  0  0  0  0  0  0  0  0  0
   14.5001    9.0328  -13.6641 C   0  0  1  0  0  0  0  0  0  0  0  0
   14.3805    9.6352  -12.3250 O   0  0  0  0  0  0  0  0  0  0  0  0
   10.2627   10.2249   -6.2907 C   0  0  0  0  0  0  0  0  0  0  0  0
   10.7631    8.9280   -6.5070 O   0  0  0  0  0  0  0  0  0  0  0  0
   10.8492   14.7950  -11.7073 C   0  0  1  0  0  0  0  0  0  0  0  0
   10.6093   14.0721  -12.9179 O   0  0  0  0  0  0  0  0  0  0  0  0
   14.2480   10.1316  -14.7855 C   0  0  0  0  0  0  0  0  0  0  0  0
   12.8805   10.7199  -14.8124 N   0  0  0  0  0  0  0  0  0  0  0  0
  1  2  1  6  0  0  0
  1  7  1  0  0  0  0
  1 30  1  0  0  0  0
  3  4  1  6  0  0  0
  3  9  1  0  0  0  0
  3 39  1  0  0  0  0
  5 10  1  0  0  0  0
  5 26  1  0  0  0  0
  5 32  1  6  0  0  0
  6 12  1  0  0  0  0
  6 36  1  0  0  0  0
  6 19  1  1  0  0  0
  7  8  1  6  0  0  0
  7 14  1  0  0  0  0
  9 16  1  0  0  0  0
 10 11  1  1  0  0  0
 10 18  1  0  0  0  0
 12 13  1  6  0  0  0
 12 20  1  0  0  0  0
 14 15  1  1  0  0  0
 14 22  1  0  0  0  0
 16 17  1  1  0  0  0
 16 24  1  0  0  0  0
 18 19  1  6  0  0  0
 18 25  1  0  0  0  0
 20 21  1  6  0  0  0
 20 27  1  0  0  0  0
 22 23  1  6  0  0  0
 22 29  1  0  0  0  0
 24  2  1  1  0  0  0
 24 31  1  0  0  0  0
 25 26  1  0  0  0  0
 25 33  1  1  0  0  0
 27 28  1  1  0  0  0
 27 35  1  0  0  0  0
 29 30  1  0  0  0  0
 29 37  1  1  0  0  0
 31 32  1  6  0  0  0
 31 39  1  0  0  0  0
 33 34  1  0  0  0  0
 35 36  1  0  0  0  0
 35 41  1  6  0  0  0
 37 38  1  0  0  0  0
 39 40  1  6  0  0  0
 41 42  1  0  0  0  0
M  END
>  <CHROM.1>
-130.87253530,-44.36098135,172.66815982,-122.59729608,-20.14306011,-171.56343126
-70.73029185,106.21871533,176.59574081,12.71429796,11.56757592,-9.97551515
-2.43478931,0.94035244,-1.61214251

>  <Name>
2o3w_lig

>  <RI>
0

>  <Rbt.Current_Directory>
/home/itssahil/PROJECTS/Mol_Feturizer/New_Systems/rnas/2o3w

>  <Rbt.Executable>
rbdock ($Id: //depot/dev/client3/rdock/2013.1/src/exe/rbdock.cxx#4 $)

>  <Rbt.Library>
libRbt.so (2013.1, Build901 2013/11/27)

>  <Rbt.Parameter_File>
/export/apps/rDock/src/rDock_2013.1_src/data/scripts/dock_solv.prm

>  <Rbt.Receptor>
prm/blind_docking_40.prm

>  <SCORE>
12.3306

>  <SCORE.INTER>
-13.9829

>  <SCORE.INTER.CONST>
1

>  <SCORE.INTER.POLAR>
-1.74354

>  <SCORE.INTER.ROT>
9

>  <SCORE.INTER.SOLV>
34.6574

>  <SCORE.INTER.VDW>
-24.6626

>  <SCORE.INTER.norm>
-0.332927

>  <SCORE.INTRA>
14.1262

>  <SCORE.INTRA.DIHEDRAL>
-0.273165

>  <SCORE.INTRA.DIHEDRAL.0>
27.8999

>  <SCORE.INTRA.POLAR>
0

>  <SCORE.INTRA.POLAR.0>
0

>  <SCORE.INTRA.REPUL>
0

>  <SCORE.INTRA.REPUL.0>
0

>  <SCORE.INTRA.SOLV>
3.42008

>  <SCORE.INTRA.SOLV.lig_0>
-104.479

>  <SCORE.INTRA.VDW>
12.5527

>  <SCORE.INTRA.VDW.0>
-6.17816

>  <SCORE.INTRA.norm>
0.336338

>  <SCORE.RESTR>
12.1874

>  <SCORE.RESTR.CAVITY>
12.1874

>  <SCORE.RESTR.norm>
0.290176

>  <SCORE.SYSTEM>
0

>  <SCORE.SYSTEM.CONST>
0

>  <SCORE.SYSTEM.DIHEDRAL>
0

>  <SCORE.SYSTEM.SOLV>
0

>  <SCORE.SYSTEM.norm>
0

>  <SCORE.heavy>
42

>  <SCORE.norm>
0.293586

>  <RMSD>
18.308

$$$$
2o3w_lig
 OpenBabel11021811463D
libRbt.so/2013.1/901 2013/11/27
 42 45  0  0  0  0  0  0  0  0999 V2000
   12.4341   11.2979   -7.6875 C   0  0  2  0  0  0  0  0  0  0  0  0
   13.0768   11.7904   -8.8756 O   0  0  0  0  0  0  0  0  0  0  0  0
   13.8924    8.9651  -12.0613 C   0  0  2  0  0  0  0  0  0  0  0  0
   13.8100    8.1825  -13.3306 N   0  0  0  0  0  0  0  0  0  0  0  0
   12.6792   13.2850  -12.0093 C   0  0  1  0  0  0  0  0  0  0  0  0
   10.5984   15.0009  -13.2111 C   0  0  1  0  0  0  0  0  0  0  0  0
   11.5656   12.4625   -7.1239 C   0  0  2  0  0  0  0  0  0  0  0  0
   10.7064   13.0739   -8.1528 N   0  0  0  0  0  0  0  0  0  0  0  0
   12.6433    8.6851  -11.1322 C   0  0  0  0  0  0  0  0  0  0  0  0
   12.6976   13.0808  -13.5548 C   0  0  2  0  0  0  0  0  0  0  0  0
   13.1990   14.2215  -14.2940 O   0  0  0  0  0  0  0  0  0  0  0  0
    9.6711   14.9778  -11.9429 C   0  0  2  0  0  0  0  0  0  0  0  0
    8.2335   14.8756  -12.3350 N   0  0  0  0  0  0  0  0  0  0  0  0
   12.4222   13.5954   -6.5292 C   0  0  1  0  0  0  0  0  0  0  0  0
   11.5861   14.6206   -5.9900 O   0  0  0  0  0  0  0  0  0  0  0  0
   12.7982    9.5186   -9.8041 C   0  0  2  0  0  0  0  0  0  0  0  0
   11.6449    9.2675   -8.8983 N   0  0  0  0  0  0  0  0  0  0  0  0
   11.2387   12.7074  -13.8225 C   0  0  2  0  0  0  0  0  0  0  0  0
   10.4228   13.8900  -14.0992 O   0  0  0  0  0  0  0  0  0  0  0  0
    9.9371   16.2943  -11.0694 C   0  0  1  0  0  0  0  0  0  0  0  0
   11.2133   16.1632  -10.4037 O   0  0  0  0  0  0  0  0  0  0  0  0
   13.3691   13.0156   -5.4538 C   0  0  2  0  0  0  0  0  0  0  0  0
   14.1488   14.0432   -4.8876 O   0  0  0  0  0  0  0  0  0  0  0  0
   12.8949   11.0627  -10.1237 C   0  0  2  0  0  0  0  0  0  0  0  0
   10.7496   11.9756  -12.5613 C   0  0  2  0  0  0  0  0  0  0  0  0
   11.5131   12.5825  -11.5215 O   0  0  0  0  0  0  0  0  0  0  0  0
    9.9253   17.6354  -11.9462 C   0  0  2  0  0  0  0  0  0  0  0  0
    8.5829   17.8568  -12.3769 O   0  0  0  0  0  0  0  0  0  0  0  0
   14.2818   11.9269   -6.1106 C   0  0  2  0  0  0  0  0  0  0  0  0
   13.4499   10.8774   -6.6990 O   0  0  0  0  0  0  0  0  0  0  0  0
   14.0623   11.4055  -11.0750 C   0  0  2  0  0  0  0  0  0  0  0  0
   13.8884   12.8117  -11.4019 O   0  0  0  0  0  0  0  0  0  0  0  0
   10.9530   10.4288  -12.5773 C   0  0  0  0  0  0  0  0  0  0  0  0
   10.1191    9.8343  -11.5873 O   0  0  0  0  0  0  0  0  0  0  0  0
   10.8809   17.4943  -13.1908 C   0  0  1  0  0  0  0  0  0  0  0  0
   10.4086   16.3157  -13.9378 O   0  0  0  0  0  0  0  0  0  0  0  0
   15.2397   11.2992   -5.1246 C   0  0  0  0  0  0  0  0  0  0  0  0
   14.9115    9.9460   -4.9241 O   0  0  0  0  0  0  0  0  0  0  0  0
   13.9859   10.5107  -12.3823 C   0  0  1  0  0  0  0  0  0  0  0  0
   15.1468   10.7191  -13.1914 O   0  0  0  0  0  0  0  0  0  0  0  0
   10.9045   18.7719  -14.1373 C   0  0  0  0  0  0  0  0  0  0  0  0
   11.3673   20.0351  -13.4998 N   0  0  0  0  0  0  0  0  0  0  0  0
  1  2  1  6  0  0  0
  1  7  1  0  0  0  0
  1 30  1  0  0  0  0
  3  4  1  6  0  0  0
  3  9  1  0  0  0  0
  3 39  1  0  0  0  0
  5 10  1  0  0  0  0
  5 26  1  0  0  0  0
  5 32  1  1  0  0  0
  6 12  1  0  0  0  0
  6 36  1  0  0  0  0
  6 19  1  6  0  0  0
  7  8  1  6  0  0  0
  7 14  1  0  0  0  0
  9 16  1  0  0  0  0
 10 11  1  6  0  0  0
 10 18  1  0  0  0  0
 12 13  1  6  0  0  0
 12 20  1  0  0  0  0
 14 15  1  1  0  0  0
 14 22  1  0  0  0  0
 16 17  1  1  0  0  0
 16 24  1  0  0  0  0
 18 19  1  1  0  0  0
 18 25  1  0  0  0  0
 20 21  1  6  0  0  0
 20 27  1  0  0  0  0
 22 23  1  6  0  0  0
 22 29  1  0  0  0  0
 24  2  1  1  0  0  0
 24 31  1  0  0  0  0
 25 26  1  0  0  0  0
 25 33  1  6  0  0  0
 27 28  1  6  0  0  0
 27 35  1  0  0  0  0
 29 30  1  0  0  0  0
 29 37  1  1  0  0  0
 31 32  1  6  0  0  0
 31 39  1  0  0  0  0
 33 34  1  0  0  0  0
 35 36  1  0  0  0  0
 35 41  1  6  0  0  0
 37 38  1  0  0  0  0
 39 40  1  6  0  0  0
 41 42  1  0  0  0  0
M  END
>  <CHROM.1>
-124.36876066,-83.21058318,-88.65737016,-46.29260342,-34.39810964,-162.32765421
113.15267209,-57.94918708,60.84698065,12.08511976,13.02528869,-10.58174741
0.31930718,-1.17836148,1.10132062

>  <Name>
2o3w_lig

>  <RI>
0

>  <Rbt.Current_Directory>
/home/itssahil/PROJECTS/Mol_Feturizer/New_Systems/rnas/2o3w

>  <Rbt.Executable>
rbdock ($Id: //depot/dev/client3/rdock/2013.1/src/exe/rbdock.cxx#4 $)

>  <Rbt.Library>
libRbt.so (2013.1, Build901 2013/11/27)

>  <Rbt.Parameter_File>
/export/apps/rDock/src/rDock_2013.1_src/data/scripts/dock_solv.prm

>  <Rbt.Receptor>
prm/blind_docking_40.prm

>  <SCORE>
-4.79151

>  <SCORE.INTER>
-24.7966

>  <SCORE.INTER.CONST>
1

>  <SCORE.INTER.POLAR>
-3.19637

>  <SCORE.INTER.ROT>
9

>  <SCORE.INTER.SOLV>
21.8563

>  <SCORE.INTER.VDW>
-22.762

>  <SCORE.INTER.norm>
-0.590396

>  <SCORE.INTRA>
9.6126

>  <SCORE.INTRA.DIHEDRAL>
-5.22393

>  <SCORE.INTRA.DIHEDRAL.0>
27.8999

>  <SCORE.INTRA.POLAR>
0

>  <SCORE.INTRA.POLAR.0>
0

>  <SCORE.INTRA.REPUL>
0

>  <SCORE.INTRA.REPUL.0>
0

>  <SCORE.INTRA.SOLV>
2.9841

>  <SCORE.INTRA.SOLV.lig_0>
-104.479

>  <SCORE.INTRA.VDW>
10.7325

>  <SCORE.INTRA.VDW.0>
-6.17816

>  <SCORE.INTRA.norm>
0.228871

>  <SCORE.RESTR>
10.3925

>  <SCORE.RESTR.CAVITY>
10.3925

>  <SCORE.RESTR.norm>
0.247441

>  <SCORE.SYSTEM>
0

>  <SCORE.SYSTEM.CONST>
0

>  <SCORE.SYSTEM.DIHEDRAL>
0

>  <SCORE.SYSTEM.SOLV>
0

>  <SCORE.SYSTEM.norm>
0

>  <SCORE.heavy>
42

>  <SCORE.norm>
-0.114083

>  <RMSD>
18.324

$$$$
2o3w_lig
 OpenBabel11021811463D
libRbt.so/2013.1/901 2013/11/27
 42 45  0  0  0  0  0  0  0  0999 V2000
   12.7540   12.0475   -7.6368 C   0  0  2  0  0  0  0  0  0  0  0  0
   13.5268   12.0615   -8.8492 O   0  0  0  0  0  0  0  0  0  0  0  0
   13.6442    8.9878  -11.9045 C   0  0  2  0  0  0  0  0  0  0  0  0
   13.2944    8.1139  -13.0640 N   0  0  0  0  0  0  0  0  0  0  0  0
   12.4796   13.3425  -11.8681 C   0  0  1  0  0  0  0  0  0  0  0  0
   10.1721   15.0874  -12.4485 C   0  0  1  0  0  0  0  0  0  0  0  0
   12.6258   13.5260   -7.1618 C   0  0  2  0  0  0  0  0  0  0  0  0
   12.1779   14.4271   -8.2379 N   0  0  0  0  0  0  0  0  0  0  0  0
   12.6151    8.8054  -10.7173 C   0  0  0  0  0  0  0  0  0  0  0  0
   12.2207   13.3551  -13.4055 C   0  0  2  0  0  0  0  0  0  0  0  0
   12.5298   14.6180  -14.0448 O   0  0  0  0  0  0  0  0  0  0  0  0
    9.0203   15.4041  -11.4277 C   0  0  2  0  0  0  0  0  0  0  0  0
    7.7622   15.7761  -12.1417 N   0  0  0  0  0  0  0  0  0  0  0  0
   13.9594   14.0889   -6.6368 C   0  0  1  0  0  0  0  0  0  0  0  0
   13.7864   15.4301   -6.1764 O   0  0  0  0  0  0  0  0  0  0  0  0
   13.0483    9.7329   -9.5194 C   0  0  2  0  0  0  0  0  0  0  0  0
   12.1082    9.5754   -8.3770 N   0  0  0  0  0  0  0  0  0  0  0  0
   10.7541   12.9251  -13.4632 C   0  0  2  0  0  0  0  0  0  0  0  0
    9.8533   14.0770  -13.4135 O   0  0  0  0  0  0  0  0  0  0  0  0
    9.4929   16.5779  -10.4449 C   0  0  1  0  0  0  0  0  0  0  0  0
   10.4629   16.0461   -9.5147 O   0  0  0  0  0  0  0  0  0  0  0  0
   14.5001   13.1725   -5.5155 C   0  0  2  0  0  0  0  0  0  0  0  0
   15.7127   13.6833   -5.0125 O   0  0  0  0  0  0  0  0  0  0  0  0
   13.0844   11.2462   -9.9716 C   0  0  2  0  0  0  0  0  0  0  0  0
   10.5366   11.9952  -12.2577 C   0  0  2  0  0  0  0  0  0  0  0  0
   11.4534   12.5028  -11.2912 O   0  0  0  0  0  0  0  0  0  0  0  0
   10.1268   17.8253  -11.2256 C   0  0  2  0  0  0  0  0  0  0  0  0
    9.0712   18.4699  -11.9374 O   0  0  0  0  0  0  0  0  0  0  0  0
   14.7027   11.7301   -6.0882 C   0  0  2  0  0  0  0  0  0  0  0  0
   13.4335   11.2261   -6.6123 O   0  0  0  0  0  0  0  0  0  0  0  0
   14.0293   11.4912  -11.1684 C   0  0  2  0  0  0  0  0  0  0  0  0
   13.7985   12.8723  -11.5608 O   0  0  0  0  0  0  0  0  0  0  0  0
   10.7968   10.4825  -12.5380 C   0  0  0  0  0  0  0  0  0  0  0  0
   10.0779    9.6982  -11.5910 O   0  0  0  0  0  0  0  0  0  0  0  0
   11.2451   17.3449  -12.2260 C   0  0  1  0  0  0  0  0  0  0  0  0
   10.5996   16.3728  -13.1252 O   0  0  0  0  0  0  0  0  0  0  0  0
   15.2257   10.7616   -5.0528 C   0  0  0  0  0  0  0  0  0  0  0  0
   14.2376   10.5069   -4.0842 O   0  0  0  0  0  0  0  0  0  0  0  0
   13.6769   10.5025  -12.3575 C   0  0  1  0  0  0  0  0  0  0  0  0
   14.6444   10.6245  -13.4038 O   0  0  0  0  0  0  0  0  0  0  0  0
   11.9069   18.5190  -13.0700 C   0  0  0  0  0  0  0  0  0  0  0  0
   10.9729   19.2979  -13.9289 N   0  0  0  0  0  0  0  0  0  0  0  0
  1  2  1  6  0  0  0
  1  7  1  0  0  0  0
  1 30  1  0  0  0  0
  3  4  1  6  0  0  0
  3  9  1  0  0  0  0
  3 39  1  0  0  0  0
  5 10  1  0  0  0  0
  5 26  1  0  0  0  0
  5 32  1  6  0  0  0
  6 12  1  0  0  0  0
  6 36  1  0  0  0  0
  6 19  1  6  0  0  0
  7  8  1  6  0  0  0
  7 14  1  0  0  0  0
  9 16  1  0  0  0  0
 10 11  1  1  0  0  0
 10 18  1  0  0  0  0
 12 13  1  6  0  0  0
 12 20  1  0  0  0  0
 14 15  1  1  0  0  0
 14 22  1  0  0  0  0
 16 17  1  1  0  0  0
 16 24  1  0  0  0  0
 18 19  1  1  0  0  0
 18 25  1  0  0  0  0
 20 21  1  1  0  0  0
 20 27  1  0  0  0  0
 22 23  1  6  0  0  0
 22 29  1  0  0  0  0
 24  2  1  1  0  0  0
 24 31  1  0  0  0  0
 25 26  1  0  0  0  0
 25 33  1  6  0  0  0
 27 28  1  6  0  0  0
 27 35  1  0  0  0  0
 29 30  1  0  0  0  0
 29 37  1  1  0  0  0
 31 32  1  6  0  0  0
 31 39  1  0  0  0  0
 33 34  1  0  0  0  0
 35 36  1  0  0  0  0
 35 41  1  6  0  0  0
 37 38  1  0  0  0  0
 39 40  1  6  0  0  0
 41 42  1  0  0  0  0
M  END
>  <CHROM.1>
-135.76982949,-98.00857094,-123.33561404,-44.12119134,-59.72699442,-156.72693270
69.13235688,-54.49980332,-59.82475091,12.20103767,13.21025301,-10.33024329
-0.05471925,-1.11584520,0.69019775

>  <Name>
2o3w_lig

>  <RI>
0

>  <Rbt.Current_Directory>
/home/itssahil/PROJECTS/Mol_Feturizer/New_Systems/rnas/2o3w

>  <Rbt.Executable>
rbdock ($Id: //depot/dev/client3/rdock/2013.1/src/exe/rbdock.cxx#4 $)

>  <Rbt.Library>
libRbt.so (2013.1, Build901 2013/11/27)

>  <Rbt.Parameter_File>
/export/apps/rDock/src/rDock_2013.1_src/data/scripts/dock_solv.prm

>  <Rbt.Receptor>
prm/blind_docking_100.prm

>  <SCORE>
16.3037

>  <SCORE.INTER>
-2.94209

>  <SCORE.INTER.CONST>
1

>  <SCORE.INTER.POLAR>
-0.975268

>  <SCORE.INTER.ROT>
9

>  <SCORE.INTER.SOLV>
28.2904

>  <SCORE.INTER.VDW>
-17.7406

>  <SCORE.INTER.norm>
-0.0700497

>  <SCORE.INTRA>
11.1509

>  <SCORE.INTRA.DIHEDRAL>
-6.30689

>  <SCORE.INTRA.DIHEDRAL.0>
27.8999

>  <SCORE.INTRA.POLAR>
0

>  <SCORE.INTRA.POLAR.0>
0

>  <SCORE.INTRA.REPUL>
1

>  <SCORE.INTRA.REPUL.0>
0

>  <SCORE.INTRA.SOLV>
4.26611

>  <SCORE.INTRA.SOLV.lig_0>
-104.479

>  <SCORE.INTRA.VDW>
7.1713

>  <SCORE.INTRA.VDW.0>
-6.17816

>  <SCORE.INTRA.norm>
0.265498

>  <SCORE.RESTR>
8.09483

>  <SCORE.RESTR.CAVITY>
8.09483

>  <SCORE.RESTR.norm>
0.192734

>  <SCORE.SYSTEM>
0

>  <SCORE.SYSTEM.CONST>
0

>  <SCORE.SYSTEM.DIHEDRAL>
0

>  <SCORE.SYSTEM.SOLV>
0

>  <SCORE.SYSTEM.norm>
0

>  <SCORE.heavy>
42

>  <SCORE.norm>
0.388182

>  <RMSD>
18.325

$$$$
2o3w_lig
 OpenBabel11021811463D
libRbt.so/2013.1/901 2013/11/27
 42 45  0  0  0  0  0  0  0  0999 V2000
   11.4014    9.9005   -8.1674 C   0  0  2  0  0  0  0  0  0  0  0  0
   10.9025   10.3340   -9.4443 O   0  0  0  0  0  0  0  0  0  0  0  0
   13.5495    8.1583  -12.1006 C   0  0  2  0  0  0  0  0  0  0  0  0
   14.3964    7.7696  -13.2677 N   0  0  0  0  0  0  0  0  0  0  0  0
   13.5001   12.4275  -10.9143 C   0  0  1  0  0  0  0  0  0  0  0  0
   12.3003   15.5480  -13.7429 C   0  0  1  0  0  0  0  0  0  0  0  0
   10.2650   10.1421   -7.1290 C   0  0  2  0  0  0  0  0  0  0  0  0
    8.9714    9.5926   -7.5708 N   0  0  0  0  0  0  0  0  0  0  0  0
   12.0251    8.2664  -12.5083 C   0  0  0  0  0  0  0  0  0  0  0  0
   12.4068   12.1810  -11.9981 C   0  0  2  0  0  0  0  0  0  0  0  0
   12.8765   11.4403  -13.1512 O   0  0  0  0  0  0  0  0  0  0  0  0
   13.2217   16.2253  -14.8205 C   0  0  2  0  0  0  0  0  0  0  0  0
   14.6430   16.2580  -14.3624 N   0  0  0  0  0  0  0  0  0  0  0  0
   10.0394   11.6390   -6.8474 C   0  0  1  0  0  0  0  0  0  0  0  0
    9.0187   11.8116   -5.8628 O   0  0  0  0  0  0  0  0  0  0  0  0
   11.1827    8.6560  -11.2350 C   0  0  2  0  0  0  0  0  0  0  0  0
    9.7386    8.7525  -11.5796 N   0  0  0  0  0  0  0  0  0  0  0  0
   11.9361   13.6096  -12.2754 C   0  0  2  0  0  0  0  0  0  0  0  0
   12.7073   14.2306  -13.3526 O   0  0  0  0  0  0  0  0  0  0  0  0
   12.6811   17.7024  -15.1252 C   0  0  1  0  0  0  0  0  0  0  0  0
   11.4711   17.6046  -15.9095 O   0  0  0  0  0  0  0  0  0  0  0  0
   11.3701   12.2858   -6.4001 C   0  0  2  0  0  0  0  0  0  0  0  0
   11.1768   13.6533   -6.1222 O   0  0  0  0  0  0  0  0  0  0  0  0
   11.6786   10.0325  -10.6390 C   0  0  2  0  0  0  0  0  0  0  0  0
   12.1072   14.3770  -10.9536 C   0  0  2  0  0  0  0  0  0  0  0  0
   13.2237   13.7292  -10.3485 O   0  0  0  0  0  0  0  0  0  0  0  0
   12.3901   18.5453  -13.7938 C   0  0  2  0  0  0  0  0  0  0  0  0
   13.6471   18.8323  -13.1821 O   0  0  0  0  0  0  0  0  0  0  0  0
   12.4353   12.0965   -7.5311 C   0  0  2  0  0  0  0  0  0  0  0  0
   12.6109   10.6709   -7.8078 O   0  0  0  0  0  0  0  0  0  0  0  0
   13.1780   10.0195  -10.2689 C   0  0  2  0  0  0  0  0  0  0  0  0
   13.4972   11.3946   -9.9202 O   0  0  0  0  0  0  0  0  0  0  0  0
   10.8640   14.3499  -10.0112 C   0  0  0  0  0  0  0  0  0  0  0  0
   10.6744   13.0262   -9.5206 O   0  0  0  0  0  0  0  0  0  0  0  0
   11.4773   17.7255  -12.8054 C   0  0  1  0  0  0  0  0  0  0  0  0
   12.1900   16.4634  -12.5417 O   0  0  0  0  0  0  0  0  0  0  0  0
   13.7756   12.6962   -7.1739 C   0  0  0  0  0  0  0  0  0  0  0  0
   14.3403   12.0074   -6.0849 O   0  0  0  0  0  0  0  0  0  0  0  0
   14.0447    9.5377  -11.5068 C   0  0  1  0  0  0  0  0  0  0  0  0
   15.4127    9.3807  -11.1201 O   0  0  0  0  0  0  0  0  0  0  0  0
   11.1651   18.4762  -11.4388 C   0  0  0  0  0  0  0  0  0  0  0  0
   10.0696   17.8891  -10.6193 N   0  0  0  0  0  0  0  0  0  0  0  0
  1  2  1  6  0  0  0
  1  7  1  0  0  0  0
  1 30  1  0  0  0  0
  3  4  1  6  0  0  0
  3  9  1  0  0  0  0
  3 39  1  0  0  0  0
  5 10  1  0  0  0  0
  5 26  1  0  0  0  0
  5 32  1  1  0  0  0
  6 12  1  0  0  0  0
  6 36  1  0  0  0  0
  6 19  1  1  0  0  0
  7  8  1  6  0  0  0
  7 14  1  0  0  0  0
  9 16  1  0  0  0  0
 10 11  1  6  0  0  0
 10 18  1  0  0  0  0
 12 13  1  1  0  0  0
 12 20  1  0  0  0  0
 14 15  1  1  0  0  0
 14 22  1  0  0  0  0
 16 17  1  6  0  0  0
 16 24  1  0  0  0  0
 18 19  1  6  0  0  0
 18 25  1  0  0  0  0
 20 21  1  1  0  0  0
 20 27  1  0  0  0  0
 22 23  1  6  0  0  0
 22 29  1  0  0  0  0
 24  2  1  1  0  0  0
 24 31  1  0  0  0  0
 25 26  1  0  0  0  0
 25 33  1  1  0  0  0
 27 28  1  1  0  0  0
 27 35  1  0  0  0  0
 29 30  1  0  0  0  0
 29 37  1  1  0  0  0
 31 32  1  6  0  0  0
 31 39  1  0  0  0  0
 33 34  1  0  0  0  0
 35 36  1  0  0  0  0
 35 41  1  1  0  0  0
 37 38  1  0  0  0  0
 39 40  1  1  0  0  0
 41 42  1  0  0  0  0
M  END
>  <CHROM.1>
-170.54044278,34.21324719,175.35019482,176.77463280,91.79260386,67.91149765
65.48183500,-68.30471986,166.50049495,12.16779317,12.86510318,-10.71477443
1.77638163,-1.20117396,2.72981736

>  <Name>
2o3w_lig

>  <RI>
0

>  <Rbt.Current_Directory>
/home/itssahil/PROJECTS/Mol_Feturizer/New_Systems/rnas/2o3w

>  <Rbt.Executable>
rbdock ($Id: //depot/dev/client3/rdock/2013.1/src/exe/rbdock.cxx#4 $)

>  <Rbt.Library>
libRbt.so (2013.1, Build901 2013/11/27)

>  <Rbt.Parameter_File>
/export/apps/rDock/src/rDock_2013.1_src/data/scripts/dock_solv.prm

>  <Rbt.Receptor>
prm/blind_docking_80.prm

>  <SCORE>
9.17309

>  <SCORE.INTER>
0.575291

>  <SCORE.INTER.CONST>
1

>  <SCORE.INTER.POLAR>
-0.659602

>  <SCORE.INTER.ROT>
9

>  <SCORE.INTER.SOLV>
32.2175

>  <SCORE.INTER.VDW>
-17.757

>  <SCORE.INTER.norm>
0.0136974

>  <SCORE.INTRA>
-1.16944

>  <SCORE.INTRA.DIHEDRAL>
-19.1663

>  <SCORE.INTRA.DIHEDRAL.0>
27.8999

>  <SCORE.INTRA.POLAR>
0

>  <SCORE.INTRA.POLAR.0>
0

>  <SCORE.INTRA.REPUL>
0.161366

>  <SCORE.INTRA.REPUL.0>
0

>  <SCORE.INTRA.SOLV>
-0.230058

>  <SCORE.INTRA.SOLV.lig_0>
-104.479

>  <SCORE.INTRA.VDW>
7.7219

>  <SCORE.INTRA.VDW.0>
-6.17816

>  <SCORE.INTRA.norm>
-0.0278437

>  <SCORE.RESTR>
9.76723

>  <SCORE.RESTR.CAVITY>
9.76723

>  <SCORE.RESTR.norm>
0.232553

>  <SCORE.SYSTEM>
0

>  <SCORE.SYSTEM.CONST>
0

>  <SCORE.SYSTEM.DIHEDRAL>
0

>  <SCORE.SYSTEM.SOLV>
0

>  <SCORE.SYSTEM.norm>
0

>  <SCORE.heavy>
42

>  <SCORE.norm>
0.218407

>  <RMSD>
18.325

$$$$
2o3w_lig
 OpenBabel11021811463D
libRbt.so/2013.1/901 2013/11/27
 42 45  0  0  0  0  0  0  0  0999 V2000
   12.6921   12.3221   -7.0217 C   0  0  2  0  0  0  0  0  0  0  0  0
   13.2930   12.1391   -8.3151 O   0  0  0  0  0  0  0  0  0  0  0  0
   12.5602    9.0369  -11.2536 C   0  0  2  0  0  0  0  0  0  0  0  0
   11.9238    8.1894  -12.3058 N   0  0  0  0  0  0  0  0  0  0  0  0
   11.8660   13.3945  -11.4710 C   0  0  1  0  0  0  0  0  0  0  0  0
    8.9538   16.3890  -11.3937 C   0  0  1  0  0  0  0  0  0  0  0  0
   12.7906   13.8403   -6.6849 C   0  0  2  0  0  0  0  0  0  0  0  0
   12.3041   14.6941   -7.7826 N   0  0  0  0  0  0  0  0  0  0  0  0
   11.7522    8.9688   -9.8955 C   0  0  0  0  0  0  0  0  0  0  0  0
   11.7359   14.9231  -11.1931 C   0  0  2  0  0  0  0  0  0  0  0  0
   11.1408   15.2404   -9.9108 O   0  0  0  0  0  0  0  0  0  0  0  0
    7.4726   16.1543  -10.9249 C   0  0  2  0  0  0  0  0  0  0  0  0
    6.5796   15.8875  -12.0921 N   0  0  0  0  0  0  0  0  0  0  0  0
   14.2357   14.2801   -6.3865 C   0  0  1  0  0  0  0  0  0  0  0  0
   14.2732   15.6668   -6.0448 O   0  0  0  0  0  0  0  0  0  0  0  0
   12.4822    9.8618   -8.8221 C   0  0  2  0  0  0  0  0  0  0  0  0
   11.7555    9.8094   -7.5249 N   0  0  0  0  0  0  0  0  0  0  0  0
   10.9477   15.3822  -12.4208 C   0  0  2  0  0  0  0  0  0  0  0  0
    9.5047   15.3285  -12.1847 O   0  0  0  0  0  0  0  0  0  0  0  0
    6.9716   17.4312  -10.0970 C   0  0  1  0  0  0  0  0  0  0  0  0
    7.6096   17.4268   -8.8001 O   0  0  0  0  0  0  0  0  0  0  0  0
   14.8179   13.4039   -5.2540 C   0  0  2  0  0  0  0  0  0  0  0  0
   16.1353   13.8050   -4.9572 O   0  0  0  0  0  0  0  0  0  0  0  0
   12.5783   11.3594   -9.3158 C   0  0  2  0  0  0  0  0  0  0  0  0
   11.3602   14.4422  -13.5661 C   0  0  2  0  0  0  0  0  0  0  0  0
   11.6501   13.2208  -12.8903 O   0  0  0  0  0  0  0  0  0  0  0  0
    7.2807   18.8159  -10.8417 C   0  0  2  0  0  0  0  0  0  0  0  0
    6.4378   18.8844  -11.9912 O   0  0  0  0  0  0  0  0  0  0  0  0
   14.7836   11.9041   -5.7000 C   0  0  2  0  0  0  0  0  0  0  0  0
   13.4084   11.5147   -6.0114 O   0  0  0  0  0  0  0  0  0  0  0  0
   13.3081   11.4979  -10.6699 C   0  0  2  0  0  0  0  0  0  0  0  0
   13.1413   12.8908  -11.0529 O   0  0  0  0  0  0  0  0  0  0  0  0
   12.5847   14.9241  -14.4043 C   0  0  0  0  0  0  0  0  0  0  0  0
   12.8487   13.9797  -15.4373 O   0  0  0  0  0  0  0  0  0  0  0  0
    8.7948   18.8904  -11.2706 C   0  0  1  0  0  0  0  0  0  0  0  0
    9.0371   17.7135  -12.1229 O   0  0  0  0  0  0  0  0  0  0  0  0
   15.3313   10.9710   -4.6449 C   0  0  0  0  0  0  0  0  0  0  0  0
   14.5952    9.7722   -4.6286 O   0  0  0  0  0  0  0  0  0  0  0  0
   12.6529   10.5362  -11.7476 C   0  0  1  0  0  0  0  0  0  0  0  0
   13.4206   10.5516  -12.9542 O   0  0  0  0  0  0  0  0  0  0  0  0
    9.1827   20.2218  -12.0488 C   0  0  0  0  0  0  0  0  0  0  0  0
   10.4538   20.1666  -12.8220 N   0  0  0  0  0  0  0  0  0  0  0  0
  1  2  1  6  0  0  0
  1  7  1  0  0  0  0
  1 30  1  0  0  0  0
  3  4  1  6  0  0  0
  3  9  1  0  0  0  0
  3 39  1  0  0  0  0
  5 10  1  0  0  0  0
  5 26  1  0  0  0  0
  5 32  1  6  0  0  0
  6 12  1  0  0  0  0
  6 36  1  0  0  0  0
  6 19  1  6  0  0  0
  7  8  1  6  0  0  0
  7 14  1  0  0  0  0
  9 16  1  0  0  0  0
 10 11  1  1  0  0  0
 10 18  1  0  0  0  0
 12 13  1  6  0  0  0
 12 20  1  0  0  0  0
 14 15  1  1  0  0  0
 14 22  1  0  0  0  0
 16 17  1  1  0  0  0
 16 24  1  0  0  0  0
 18 19  1  1  0  0  0
 18 25  1  0  0  0  0
 20 21  1  1  0  0  0
 20 27  1  0  0  0  0
 22 23  1  6  0  0  0
 22 29  1  0  0  0  0
 24  2  1  1  0  0  0
 24 31  1  0  0  0  0
 25 26  1  0  0  0  0
 25 33  1  1  0  0  0
 27 28  1  6  0  0  0
 27 35  1  0  0  0  0
 29 30  1  0  0  0  0
 29 37  1  1  0  0  0
 31 32  1  6  0  0  0
 31 39  1  0  0  0  0
 33 34  1  0  0  0  0
 35 36  1  0  0  0  0
 35 41  1  6  0  0  0
 37 38  1  0  0  0  0
 39 40  1  6  0  0  0
 41 42  1  0  0  0  0
M  END
>  <CHROM.1>
-131.98076901,153.37548107,-168.52789369,77.19670095,-65.71767376,-179.15874846
143.01343607,-71.04504770,-162.18343768,11.60430596,13.95980580,-9.92391709
0.04163184,-0.98831484,0.97504092

>  <Name>
2o3w_lig

>  <RI>
0

>  <Rbt.Current_Directory>
/home/itssahil/PROJECTS/Mol_Feturizer/New_Systems/rnas/2o3w

>  <Rbt.Executable>
rbdock ($Id: //depot/dev/client3/rdock/2013.1/src/exe/rbdock.cxx#4 $)

>  <Rbt.Library>
libRbt.so (2013.1, Build901 2013/11/27)

>  <Rbt.Parameter_File>
/export/apps/rDock/src/rDock_2013.1_src/data/scripts/dock_solv.prm

>  <Rbt.Receptor>
prm/blind_docking_100.prm

>  <SCORE>
-0.777472

>  <SCORE.INTER>
-9.15147

>  <SCORE.INTER.CONST>
1

>  <SCORE.INTER.POLAR>
-1.98966

>  <SCORE.INTER.ROT>
9

>  <SCORE.INTER.SOLV>
28.8165

>  <SCORE.INTER.VDW>
-18.6743

>  <SCORE.INTER.norm>
-0.217892

>  <SCORE.INTRA>
-2.35131

>  <SCORE.INTRA.DIHEDRAL>
-10.914

>  <SCORE.INTRA.DIHEDRAL.0>
27.8999

>  <SCORE.INTRA.POLAR>
0

>  <SCORE.INTRA.POLAR.0>
0

>  <SCORE.INTRA.REPUL>
0.0384475

>  <SCORE.INTRA.REPUL.0>
0

>  <SCORE.INTRA.SOLV>
-1.03174

>  <SCORE.INTRA.SOLV.lig_0>
-104.479

>  <SCORE.INTRA.VDW>
3.42934

>  <SCORE.INTRA.VDW.0>
-6.17816

>  <SCORE.INTRA.norm>
-0.0559837

>  <SCORE.RESTR>
10.7253

>  <SCORE.RESTR.CAVITY>
10.7253

>  <SCORE.RESTR.norm>
0.255365

>  <SCORE.SYSTEM>
0

>  <SCORE.SYSTEM.CONST>
0

>  <SCORE.SYSTEM.DIHEDRAL>
0

>  <SCORE.SYSTEM.SOLV>
0

>  <SCORE.SYSTEM.norm>
0

>  <SCORE.heavy>
42

>  <SCORE.norm>
-0.0185112

>  <RMSD>
18.331

$$$$
2o3w_lig
 OpenBabel11021811463D
libRbt.so/2013.1/901 2013/11/27
 42 45  0  0  0  0  0  0  0  0999 V2000
   11.9951   12.3637   -7.6190 C   0  0  2  0  0  0  0  0  0  0  0  0
   12.5443   12.3888   -8.9476 O   0  0  0  0  0  0  0  0  0  0  0  0
   11.7693    9.7633  -12.3095 C   0  0  2  0  0  0  0  0  0  0  0  0
   11.1079    9.0641  -13.4514 N   0  0  0  0  0  0  0  0  0  0  0  0
   10.9052   14.0531  -11.8788 C   0  0  1  0  0  0  0  0  0  0  0  0
    7.6297   16.3491  -10.9942 C   0  0  1  0  0  0  0  0  0  0  0  0
   12.2174   13.7798   -7.0079 C   0  0  2  0  0  0  0  0  0  0  0  0
   11.7666   14.8580   -7.9049 N   0  0  0  0  0  0  0  0  0  0  0  0
   11.0459    9.4385  -10.9409 C   0  0  0  0  0  0  0  0  0  0  0  0
   10.5385   15.3402  -11.0791 C   0  0  2  0  0  0  0  0  0  0  0  0
    9.8038   15.0853   -9.8567 O   0  0  0  0  0  0  0  0  0  0  0  0
    6.0757   16.1312  -11.0733 C   0  0  2  0  0  0  0  0  0  0  0  0
    5.5155   16.7327  -12.3204 N   0  0  0  0  0  0  0  0  0  0  0  0
   13.6994   14.0541   -6.6927 C   0  0  1  0  0  0  0  0  0  0  0  0
   13.8511   15.3446   -6.0989 O   0  0  0  0  0  0  0  0  0  0  0  0
   11.8000   10.1840   -9.7755 C   0  0  2  0  0  0  0  0  0  0  0  0
   11.1535    9.8884   -8.4685 N   0  0  0  0  0  0  0  0  0  0  0  0
    9.7941   16.1488  -12.1428 C   0  0  2  0  0  0  0  0  0  0  0  0
    8.3590   15.8641  -12.1285 O   0  0  0  0  0  0  0  0  0  0  0  0
    5.3866   16.7604   -9.7710 C   0  0  1  0  0  0  0  0  0  0  0  0
    5.6646   15.9081   -8.6373 O   0  0  0  0  0  0  0  0  0  0  0  0
   14.2449   12.9406   -5.7698 C   0  0  2  0  0  0  0  0  0  0  0  0
   15.5966   13.1861   -5.4581 O   0  0  0  0  0  0  0  0  0  0  0  0
   11.8050   11.7442  -10.0238 C   0  0  2  0  0  0  0  0  0  0  0  0
   10.4258   15.7607  -13.4902 C   0  0  2  0  0  0  0  0  0  0  0  0
   10.8304   14.4102  -13.2780 O   0  0  0  0  0  0  0  0  0  0  0  0
    5.8903   18.2491   -9.4586 C   0  0  2  0  0  0  0  0  0  0  0  0
    5.3766   19.1014  -10.4814 O   0  0  0  0  0  0  0  0  0  0  0  0
   14.0850   11.5588   -6.4873 C   0  0  2  0  0  0  0  0  0  0  0  0
   12.6762   11.3316   -6.8086 O   0  0  0  0  0  0  0  0  0  0  0  0
   12.4477   12.1339  -11.3729 C   0  0  2  0  0  0  0  0  0  0  0  0
   12.2013   13.5599  -11.5156 O   0  0  0  0  0  0  0  0  0  0  0  0
   11.6330   16.6457  -13.9304 C   0  0  0  0  0  0  0  0  0  0  0  0
   12.7175   16.4438  -13.0292 O   0  0  0  0  0  0  0  0  0  0  0  0
    7.4644   18.3104   -9.4374 C   0  0  1  0  0  0  0  0  0  0  0  0
    7.9108   17.8172  -10.7518 O   0  0  0  0  0  0  0  0  0  0  0  0
   14.5896   10.4067   -5.6495 C   0  0  0  0  0  0  0  0  0  0  0  0
   15.9422   10.6049   -5.3171 O   0  0  0  0  0  0  0  0  0  0  0  0
   11.7708   11.3251  -12.5575 C   0  0  1  0  0  0  0  0  0  0  0  0
   12.4651   11.5718  -13.7834 O   0  0  0  0  0  0  0  0  0  0  0  0
    8.0524   19.7628   -9.1666 C   0  0  0  0  0  0  0  0  0  0  0  0
    7.1433   20.7008   -8.4523 N   0  0  0  0  0  0  0  0  0  0  0  0
  1  2  1  6  0  0  0
  1  7  1  0  0  0  0
  1 30  1  0  0  0  0
  3  4  1  6  0  0  0
  3  9  1  0  0  0  0
  3 39  1  0  0  0  0
  5 10  1  0  0  0  0
  5 26  1  0  0  0  0
  5 32  1  1  0  0  0
  6 12  1  0  0  0  0
  6 36  1  0  0  0  0
  6 19  1  6  0  0  0
  7  8  1  6  0  0  0
  7 14  1  0  0  0  0
  9 16  1  0  0  0  0
 10 11  1  1  0  0  0
 10 18  1  0  0  0  0
 12 13  1  6  0  0  0
 12 20  1  0  0  0  0
 14 15  1  1  0  0  0
 14 22  1  0  0  0  0
 16 17  1  1  0  0  0
 16 24  1  0  0  0  0
 18 19  1  6  0  0  0
 18 25  1  0  0  0  0
 20 21  1  1  0  0  0
 20 27  1  0  0  0  0
 22 23  1  6  0  0  0
 22 29  1  0  0  0  0
 24  2  1  1  0  0  0
 24 31  1  0  0  0  0
 25 26  1  0  0  0  0
 25 33  1  1  0  0  0
 27 28  1  6  0  0  0
 27 35  1  0  0  0  0
 29 30  1  0  0  0  0
 29 37  1  1  0  0  0
 31 32  1  6  0  0  0
 31 39  1  0  0  0  0
 33 34  1  0  0  0  0
 35 36  1  0  0  0  0
 35 41  1  6  0  0  0
 37 38  1  0  0  0  0
 39 40  1  6  0  0  0
 41 42  1  0  0  0  0
M  END
>  <CHROM.1>
-138.10510858,139.93052770,175.05629976,69.95967313,-67.39446634,66.21871505
-57.65898705,-75.74574755,23.63754402,10.69076914,14.23303384,-9.87895262
-0.05890418,-0.81456641,1.06892893

>  <Name>
2o3w_lig

>  <RI>
0

>  <Rbt.Current_Directory>
/home/itssahil/PROJECTS/Mol_Feturizer/New_Systems/rnas/2o3w

>  <Rbt.Executable>
rbdock ($Id: //depot/dev/client3/rdock/2013.1/src/exe/rbdock.cxx#4 $)

>  <Rbt.Library>
libRbt.so (2013.1, Build901 2013/11/27)

>  <Rbt.Parameter_File>
/export/apps/rDock/src/rDock_2013.1_src/data/scripts/dock_solv.prm

>  <Rbt.Receptor>
prm/blind_docking_100.prm

>  <SCORE>
6.54661

>  <SCORE.INTER>
2.21821

>  <SCORE.INTER.CONST>
1

>  <SCORE.INTER.POLAR>
0

>  <SCORE.INTER.ROT>
9

>  <SCORE.INTER.SOLV>
25.2023

>  <SCORE.INTER.VDW>
-16.5219

>  <SCORE.INTER.norm>
0.0528146

>  <SCORE.INTRA>
-1.92068

>  <SCORE.INTRA.DIHEDRAL>
-10.9811

>  <SCORE.INTRA.DIHEDRAL.0>
27.8999

>  <SCORE.INTRA.POLAR>
0

>  <SCORE.INTRA.POLAR.0>
0

>  <SCORE.INTRA.REPUL>
0

>  <SCORE.INTRA.REPUL.0>
0

>  <SCORE.INTRA.SOLV>
0.92986

>  <SCORE.INTRA.SOLV.lig_0>
-104.479

>  <SCORE.INTRA.VDW>
3.10495

>  <SCORE.INTRA.VDW.0>
-6.17816

>  <SCORE.INTRA.norm>
-0.0457305

>  <SCORE.RESTR>
6.24908

>  <SCORE.RESTR.CAVITY>
6.24908

>  <SCORE.RESTR.norm>
0.148788

>  <SCORE.SYSTEM>
0

>  <SCORE.SYSTEM.CONST>
0

>  <SCORE.SYSTEM.DIHEDRAL>
0

>  <SCORE.SYSTEM.SOLV>
0

>  <SCORE.SYSTEM.norm>
0

>  <SCORE.heavy>
42

>  <SCORE.norm>
0.155872

>  <RMSD>
18.333

$$$$
2o3w_lig
 OpenBabel11021811463D
libRbt.so/2013.1/901 2013/11/27
 42 45  0  0  0  0  0  0  0  0999 V2000
   12.0885   13.6035   -6.8307 C   0  0  2  0  0  0  0  0  0  0  0  0
   12.3512   13.4459   -8.2355 O   0  0  0  0  0  0  0  0  0  0  0  0
    9.5054   15.2958  -10.9328 C   0  0  2  0  0  0  0  0  0  0  0  0
    8.8599   16.2218  -11.9107 N   0  0  0  0  0  0  0  0  0  0  0  0
   13.4562   12.1103  -10.9975 C   0  0  1  0  0  0  0  0  0  0  0  0
   14.3962    8.4947  -11.4182 C   0  0  1  0  0  0  0  0  0  0  0  0
   13.4702   13.7165   -6.1193 C   0  0  2  0  0  0  0  0  0  0  0  0
   14.3531   14.7088   -6.7569 N   0  0  0  0  0  0  0  0  0  0  0  0
    9.7965   16.0237   -9.5590 C   0  0  0  0  0  0  0  0  0  0  0  0
   13.0260   11.3509   -9.7056 C   0  0  2  0  0  0  0  0  0  0  0  0
   13.9805   11.4472   -8.6199 O   0  0  0  0  0  0  0  0  0  0  0  0
   15.7840    7.7606  -11.3559 C   0  0  2  0  0  0  0  0  0  0  0  0
   16.8612    8.6934  -10.9081 N   0  0  0  0  0  0  0  0  0  0  0  0
   14.2350   12.3801   -6.1124 C   0  0  1  0  0  0  0  0  0  0  0  0
   15.4751   12.5202   -5.4171 O   0  0  0  0  0  0  0  0  0  0  0  0
   10.4544   14.9933   -8.5650 C   0  0  2  0  0  0  0  0  0  0  0  0
   10.7292   15.6419   -7.2545 N   0  0  0  0  0  0  0  0  0  0  0  0
   12.7868    9.9434  -10.2542 C   0  0  2  0  0  0  0  0  0  0  0  0
   14.0013    9.1295  -10.1956 O   0  0  0  0  0  0  0  0  0  0  0  0
   16.1200    7.1420  -12.7951 C   0  0  1  0  0  0  0  0  0  0  0  0
   15.2776    5.9885  -13.0160 O   0  0  0  0  0  0  0  0  0  0  0  0
   13.3514   11.2836   -5.4752 C   0  0  2  0  0  0  0  0  0  0  0  0
   14.0437   10.0572   -5.4461 O   0  0  0  0  0  0  0  0  0  0  0  0
   11.7989   14.4209   -9.1654 C   0  0  2  0  0  0  0  0  0  0  0  0
   12.3094   10.1285  -11.7044 C   0  0  2  0  0  0  0  0  0  0  0  0
   12.9713   11.3242  -12.1102 O   0  0  0  0  0  0  0  0  0  0  0  0
   15.9136    8.1925  -13.9873 C   0  0  2  0  0  0  0  0  0  0  0  0
   16.9327    9.1845  -13.8688 O   0  0  0  0  0  0  0  0  0  0  0  0
   12.0273   11.1520   -6.2993 C   0  0  2  0  0  0  0  0  0  0  0  0
   11.3324   12.4389   -6.3228 O   0  0  0  0  0  0  0  0  0  0  0  0
   11.6006   13.7428  -10.5388 C   0  0  2  0  0  0  0  0  0  0  0  0
   12.9420   13.4484  -11.0167 O   0  0  0  0  0  0  0  0  0  0  0  0
   10.7641   10.2560  -11.8774 C   0  0  0  0  0  0  0  0  0  0  0  0
   10.1376    9.0699  -11.3981 O   0  0  0  0  0  0  0  0  0  0  0  0
   14.4895    8.8606  -13.8992 C   0  0  1  0  0  0  0  0  0  0  0  0
   14.4110    9.4824  -12.5659 O   0  0  0  0  0  0  0  0  0  0  0  0
   11.0963   10.1013   -5.7399 C   0  0  0  0  0  0  0  0  0  0  0  0
    9.9723    9.9561   -6.5735 O   0  0  0  0  0  0  0  0  0  0  0  0
   10.8526   14.7259  -11.5335 C   0  0  1  0  0  0  0  0  0  0  0  0
   10.5348   14.0475  -12.7519 O   0  0  0  0  0  0  0  0  0  0  0  0
   14.2119    9.9450  -15.0286 C   0  0  0  0  0  0  0  0  0  0  0  0
   12.8775   10.6030  -14.9730 N   0  0  0  0  0  0  0  0  0  0  0  0
  1  2  1  6  0  0  0
  1  7  1  0  0  0  0
  1 30  1  0  0  0  0
  3  4  1  6  0  0  0
  3  9  1  0  0  0  0
  3 39  1  0  0  0  0
  5 10  1  0  0  0  0
  5 26  1  0  0  0  0
  5 32  1  1  0  0  0
  6 12  1  0  0  0  0
  6 36  1  0  0  0  0
  6 19  1  1  0  0  0
  7  8  1  6  0  0  0
  7 14  1  0  0  0  0
  9 16  1  0  0  0  0
 10 11  1  1  0  0  0
 10 18  1  0  0  0  0
 12 13  1  6  0  0  0
 12 20  1  0  0  0  0
 14 15  1  1  0  0  0
 14 22  1  0  0  0  0
 16 17  1  1  0  0  0
 16 24  1  0  0  0  0
 18 19  1  6  0  0  0
 18 25  1  0  0  0  0
 20 21  1  6  0  0  0
 20 27  1  0  0  0  0
 22 23  1  6  0  0  0
 22 29  1  0  0  0  0
 24  2  1  1  0  0  0
 24 31  1  0  0  0  0
 25 26  1  0  0  0  0
 25 33  1  1  0  0  0
 27 28  1  1  0  0  0
 27 35  1  0  0  0  0
 29 30  1  0  0  0  0
 29 37  1  1  0  0  0
 31 32  1  6  0  0  0
 31 39  1  0  0  0  0
 33 34  1  0  0  0  0
 35 36  1  0  0  0  0
 35 41  1  6  0  0  0
 37 38  1  0  0  0  0
 39 40  1  6  0  0  0
 41 42  1  0  0  0  0
M  END
>  <CHROM.1>
-121.55772049,-39.26110507,173.64783327,-127.52705550,-29.54150824,-60.58841008
-175.62138014,105.17897245,-179.71186683,12.90294120,11.46791649,-9.97777585
-2.28963506,0.90473386,-1.74424116

>  <Name>
2o3w_lig

>  <RI>
0

>  <Rbt.Current_Directory>
/home/itssahil/PROJECTS/Mol_Feturizer/New_Systems/rnas/2o3w

>  <Rbt.Executable>
rbdock ($Id: //depot/dev/client3/rdock/2013.1/src/exe/rbdock.cxx#4 $)

>  <Rbt.Library>
libRbt.so (2013.1, Build901 2013/11/27)

>  <Rbt.Parameter_File>
/export/apps/rDock/src/rDock_2013.1_src/data/scripts/dock_solv.prm

>  <Rbt.Receptor>
prm/blind_docking_40.prm

>  <SCORE>
6.87265

>  <SCORE.INTER>
-18.2047

>  <SCORE.INTER.CONST>
1

>  <SCORE.INTER.POLAR>
-2.07244

>  <SCORE.INTER.ROT>
9

>  <SCORE.INTER.SOLV>
34.3638

>  <SCORE.INTER.VDW>
-26.2829

>  <SCORE.INTER.norm>
-0.433445

>  <SCORE.INTRA>
13.3308

>  <SCORE.INTRA.DIHEDRAL>
-1.65578

>  <SCORE.INTRA.DIHEDRAL.0>
27.8999

>  <SCORE.INTRA.POLAR>
0

>  <SCORE.INTRA.POLAR.0>
0

>  <SCORE.INTRA.REPUL>
0

>  <SCORE.INTRA.REPUL.0>
0

>  <SCORE.INTRA.SOLV>
2.32163

>  <SCORE.INTRA.SOLV.lig_0>
-104.479

>  <SCORE.INTRA.VDW>
12.9978

>  <SCORE.INTRA.VDW.0>
-6.17816

>  <SCORE.INTRA.norm>
0.317399

>  <SCORE.RESTR>
11.7466

>  <SCORE.RESTR.CAVITY>
11.7466

>  <SCORE.RESTR.norm>
0.279681

>  <SCORE.SYSTEM>
0

>  <SCORE.SYSTEM.CONST>
0

>  <SCORE.SYSTEM.DIHEDRAL>
0

>  <SCORE.SYSTEM.SOLV>
0

>  <SCORE.SYSTEM.norm>
0

>  <SCORE.heavy>
42

>  <SCORE.norm>
0.163635

>  <RMSD>
18.341

$$$$
2o3w_lig
 OpenBabel11021811463D
libRbt.so/2013.1/901 2013/11/27
 42 45  0  0  0  0  0  0  0  0999 V2000
   11.2151   13.1573   -7.6575 C   0  0  2  0  0  0  0  0  0  0  0  0
   12.0705   13.3834   -8.7908 O   0  0  0  0  0  0  0  0  0  0  0  0
   12.8034   11.8144  -12.7654 C   0  0  2  0  0  0  0  0  0  0  0  0
   12.7154   11.0110  -14.0212 N   0  0  0  0  0  0  0  0  0  0  0  0
    9.6529   15.1539  -11.0282 C   0  0  1  0  0  0  0  0  0  0  0  0
    8.1625   17.7474  -11.2362 C   0  0  1  0  0  0  0  0  0  0  0  0
   11.7646   14.0320   -6.4909 C   0  0  2  0  0  0  0  0  0  0  0  0
   11.9955   15.4300   -6.8948 N   0  0  0  0  0  0  0  0  0  0  0  0
   13.2055   10.9094  -11.5320 C   0  0  0  0  0  0  0  0  0  0  0  0
   10.4895   16.1846  -10.2105 C   0  0  2  0  0  0  0  0  0  0  0  0
    9.9212   16.5124   -8.9187 O   0  0  0  0  0  0  0  0  0  0  0  0
    7.2072   18.6490  -12.0984 C   0  0  2  0  0  0  0  0  0  0  0  0
    7.1063   20.0232  -11.5218 N   0  0  0  0  0  0  0  0  0  0  0  0
   13.1018   13.5011   -5.9421 C   0  0  1  0  0  0  0  0  0  0  0  0
   13.5472   14.3083   -4.8509 O   0  0  0  0  0  0  0  0  0  0  0  0
   13.3039   11.8142  -10.2458 C   0  0  2  0  0  0  0  0  0  0  0  0
   13.6954   10.9960   -9.0664 N   0  0  0  0  0  0  0  0  0  0  0  0
   10.5872   17.3430  -11.2043 C   0  0  2  0  0  0  0  0  0  0  0  0
    9.4777   18.2835  -11.0451 O   0  0  0  0  0  0  0  0  0  0  0  0
    5.7656   17.9559  -12.1894 C   0  0  1  0  0  0  0  0  0  0  0  0
    5.8487   16.8201  -13.0793 O   0  0  0  0  0  0  0  0  0  0  0  0
   12.9355   12.0234   -5.5201 C   0  0  2  0  0  0  0  0  0  0  0  0
   14.1469   11.5272   -4.9997 O   0  0  0  0  0  0  0  0  0  0  0  0
   11.9242   12.5289   -9.9607 C   0  0  2  0  0  0  0  0  0  0  0  0
   10.5797   16.7041  -12.6032 C   0  0  2  0  0  0  0  0  0  0  0  0
    9.7879   15.5332  -12.4171 O   0  0  0  0  0  0  0  0  0  0  0  0
    5.2132   17.4796  -10.7627 C   0  0  2  0  0  0  0  0  0  0  0  0
    4.9090   18.6503  -10.0056 O   0  0  0  0  0  0  0  0  0  0  0  0
   12.4826   11.1856   -6.7620 C   0  0  2  0  0  0  0  0  0  0  0  0
   11.2295   11.7255   -7.2892 O   0  0  0  0  0  0  0  0  0  0  0  0
   11.4386   13.3889  -11.1481 C   0  0  2  0  0  0  0  0  0  0  0  0
   10.0941   13.8110  -10.7895 O   0  0  0  0  0  0  0  0  0  0  0  0
   11.9881   16.3449  -13.1703 C   0  0  0  0  0  0  0  0  0  0  0  0
   11.8702   16.0211  -14.5523 O   0  0  0  0  0  0  0  0  0  0  0  0
    6.2908   16.6094  -10.0117 C   0  0  1  0  0  0  0  0  0  0  0  0
    7.4963   17.4499   -9.9092 O   0  0  0  0  0  0  0  0  0  0  0  0
   12.2888    9.7225   -6.4371 C   0  0  0  0  0  0  0  0  0  0  0  0
   10.9207    9.3960   -6.4683 O   0  0  0  0  0  0  0  0  0  0  0  0
   11.4209   12.5268  -12.4793 C   0  0  1  0  0  0  0  0  0  0  0  0
   11.1181   13.3591  -13.6023 O   0  0  0  0  0  0  0  0  0  0  0  0
    5.8370   16.1208   -8.5681 C   0  0  0  0  0  0  0  0  0  0  0  0
    4.5335   15.4037   -8.5131 N   0  0  0  0  0  0  0  0  0  0  0  0
  1  2  1  6  0  0  0
  1  7  1  0  0  0  0
  1 30  1  0  0  0  0
  3  4  1  6  0  0  0
  3  9  1  0  0  0  0
  3 39  1  0  0  0  0
  5 10  1  0  0  0  0
  5 26  1  0  0  0  0
  5 32  1  6  0  0  0
  6 12  1  0  0  0  0
  6 36  1  0  0  0  0
  6 19  1  1  0  0  0
  7  8  1  6  0  0  0
  7 14  1  0  0  0  0
  9 16  1  0  0  0  0
 10 11  1  1  0  0  0
 10 18  1  0  0  0  0
 12 13  1  1  0  0  0
 12 20  1  0  0  0  0
 14 15  1  1  0  0  0
 14 22  1  0  0  0  0
 16 17  1  1  0  0  0
 16 24  1  0  0  0  0
 18 19  1  6  0  0  0
 18 25  1  0  0  0  0
 20 21  1  6  0  0  0
 20 27  1  0  0  0  0
 22 23  1  6  0  0  0
 22 29  1  0  0  0  0
 24  2  1  1  0  0  0
 24 31  1  0  0  0  0
 25 26  1  0  0  0  0
 25 33  1  1  0  0  0
 27 28  1  1  0  0  0
 27 35  1  0  0  0  0
 29 30  1  0  0  0  0
 29 37  1  1  0  0  0
 31 32  1  1  0  0  0
 31 39  1  0  0  0  0
 33 34  1  0  0  0  0
 35 36  1  0  0  0  0
 35 41  1  1  0  0  0
 37 38  1  0  0  0  0
 39 40  1  6  0  0  0
 41 42  1  0  0  0  0
M  END
>  <CHROM.1>
170.08310016,-62.83766660,-135.95018038,-59.98775535,-121.65474467,-168.32954613
109.59625475,137.64478714,53.43636187,10.28241366,14.58836632,-9.91254439
0.56058097,-0.73449920,1.75761989

>  <Name>
2o3w_lig

>  <RI>
0

>  <Rbt.Current_Directory>
/home/itssahil/PROJECTS/Mol_Feturizer/New_Systems/rnas/2o3w

>  <Rbt.Executable>
rbdock ($Id: //depot/dev/client3/rdock/2013.1/src/exe/rbdock.cxx#4 $)

>  <Rbt.Library>
libRbt.so (2013.1, Build901 2013/11/27)

>  <Rbt.Parameter_File>
/export/apps/rDock/src/rDock_2013.1_src/data/scripts/dock_solv.prm

>  <Rbt.Receptor>
prm/blind_docking_100.prm

>  <SCORE>
12.7831

>  <SCORE.INTER>
1.92968

>  <SCORE.INTER.CONST>
1

>  <SCORE.INTER.POLAR>
0

>  <SCORE.INTER.ROT>
9

>  <SCORE.INTER.SOLV>
23.2783

>  <SCORE.INTER.VDW>
-16.073

>  <SCORE.INTER.norm>
0.0459448

>  <SCORE.INTRA>
0.811028

>  <SCORE.INTRA.DIHEDRAL>
-2.93371

>  <SCORE.INTRA.DIHEDRAL.0>
27.8999

>  <SCORE.INTRA.POLAR>
0

>  <SCORE.INTRA.POLAR.0>
0

>  <SCORE.INTRA.REPUL>
0

>  <SCORE.INTRA.REPUL.0>
0

>  <SCORE.INTRA.SOLV>
1.33893

>  <SCORE.INTRA.SOLV.lig_0>
-104.479

>  <SCORE.INTRA.VDW>
1.60842

>  <SCORE.INTRA.VDW.0>
-6.17816

>  <SCORE.INTRA.norm>
0.0193102

>  <SCORE.RESTR>
10.0424

>  <SCORE.RESTR.CAVITY>
10.0424

>  <SCORE.RESTR.norm>
0.239105

>  <SCORE.SYSTEM>
0

>  <SCORE.SYSTEM.CONST>
0

>  <SCORE.SYSTEM.DIHEDRAL>
0

>  <SCORE.SYSTEM.SOLV>
0

>  <SCORE.SYSTEM.norm>
0

>  <SCORE.heavy>
42

>  <SCORE.norm>
0.30436

>  <RMSD>
18.347

$$$$
2o3w_lig
 OpenBabel11021811463D
libRbt.so/2013.1/901 2013/11/27
 42 45  0  0  0  0  0  0  0  0999 V2000
   12.8042   10.8413   -8.2339 C   0  0  2  0  0  0  0  0  0  0  0  0
   12.2129   11.1907   -9.4971 O   0  0  0  0  0  0  0  0  0  0  0  0
   15.2702    9.4864  -12.0553 C   0  0  2  0  0  0  0  0  0  0  0  0
   16.0426    9.0381  -13.2524 N   0  0  0  0  0  0  0  0  0  0  0  0
   12.3625   13.2450  -11.4362 C   0  0  1  0  0  0  0  0  0  0  0  0
    9.1085   15.8842  -11.3753 C   0  0  1  0  0  0  0  0  0  0  0  0
   11.6331   10.5406   -7.2510 C   0  0  2  0  0  0  0  0  0  0  0  0
   10.6478    9.6034   -7.8179 N   0  0  0  0  0  0  0  0  0  0  0  0
   13.8961    8.7123  -11.9359 C   0  0  0  0  0  0  0  0  0  0  0  0
   12.0694   14.7733  -11.3405 C   0  0  2  0  0  0  0  0  0  0  0  0
   11.5926   15.2017  -10.0412 O   0  0  0  0  0  0  0  0  0  0  0  0
    7.6789   15.5960  -10.7906 C   0  0  2  0  0  0  0  0  0  0  0  0
    6.7511   15.1204  -11.8601 N   0  0  0  0  0  0  0  0  0  0  0  0
   10.8607   11.8127   -6.8558 C   0  0  1  0  0  0  0  0  0  0  0  0
    9.8240   11.4962   -5.9252 O   0  0  0  0  0  0  0  0  0  0  0  0
   13.1400    9.2107  -10.6465 C   0  0  2  0  0  0  0  0  0  0  0  0
   11.8465    8.4913  -10.4947 N   0  0  0  0  0  0  0  0  0  0  0  0
   11.0900   14.9611  -12.5002 C   0  0  2  0  0  0  0  0  0  0  0  0
    9.7038   14.7802  -12.0683 O   0  0  0  0  0  0  0  0  0  0  0  0
    7.1171   16.9225  -10.0894 C   0  0  1  0  0  0  0  0  0  0  0  0
    7.8206   17.1262   -8.8435 O   0  0  0  0  0  0  0  0  0  0  0  0
   11.8443   12.8528   -6.2728 C   0  0  2  0  0  0  0  0  0  0  0  0
   11.1501   14.0174   -5.8904 O   0  0  0  0  0  0  0  0  0  0  0  0
   12.8756   10.7664  -10.7223 C   0  0  2  0  0  0  0  0  0  0  0  0
   11.4835   13.9195  -13.5611 C   0  0  2  0  0  0  0  0  0  0  0  0
   12.0060   12.8473  -12.7801 O   0  0  0  0  0  0  0  0  0  0  0  0
    7.2696   18.2250  -11.0102 C   0  0  2  0  0  0  0  0  0  0  0  0
    6.3646   18.0873  -12.1049 O   0  0  0  0  0  0  0  0  0  0  0  0
   12.9322   13.1853   -7.3477 C   0  0  2  0  0  0  0  0  0  0  0  0
   13.6316   11.9603   -7.7349 O   0  0  0  0  0  0  0  0  0  0  0  0
   14.1727   11.5865  -10.8968 C   0  0  2  0  0  0  0  0  0  0  0  0
   13.7324   12.9523  -11.1316 O   0  0  0  0  0  0  0  0  0  0  0  0
   12.5287   14.4110  -14.6100 C   0  0  0  0  0  0  0  0  0  0  0  0
   13.3348   15.4312  -14.0285 O   0  0  0  0  0  0  0  0  0  0  0  0
    8.7475   18.3623  -11.5384 C   0  0  1  0  0  0  0  0  0  0  0  0
    9.0422   17.1118  -12.2594 O   0  0  0  0  0  0  0  0  0  0  0  0
   13.9444   14.1947   -6.8577 C   0  0  0  0  0  0  0  0  0  0  0  0
   14.6559   13.6748   -5.7610 O   0  0  0  0  0  0  0  0  0  0  0  0
   15.0035   11.0431  -12.1338 C   0  0  1  0  0  0  0  0  0  0  0  0
   16.2718   11.7004  -12.2034 O   0  0  0  0  0  0  0  0  0  0  0  0
    8.9812   19.6140  -12.4910 C   0  0  0  0  0  0  0  0  0  0  0  0
   10.2254   19.5761  -13.3077 N   0  0  0  0  0  0  0  0  0  0  0  0
  1  2  1  6  0  0  0
  1  7  1  0  0  0  0
  1 30  1  0  0  0  0
  3  4  1  6  0  0  0
  3  9  1  0  0  0  0
  3 39  1  0  0  0  0
  5 10  1  0  0  0  0
  5 26  1  0  0  0  0
  5 32  1  6  0  0  0
  6 12  1  0  0  0  0
  6 36  1  0  0  0  0
  6 19  1  6  0  0  0
  7  8  1  6  0  0  0
  7 14  1  0  0  0  0
  9 16  1  0  0  0  0
 10 11  1  1  0  0  0
 10 18  1  0  0  0  0
 12 13  1  6  0  0  0
 12 20  1  0  0  0  0
 14 15  1  1  0  0  0
 14 22  1  0  0  0  0
 16 17  1  6  0  0  0
 16 24  1  0  0  0  0
 18 19  1  1  0  0  0
 18 25  1  0  0  0  0
 20 21  1  1  0  0  0
 20 27  1  0  0  0  0
 22 23  1  6  0  0  0
 22 29  1  0  0  0  0
 24  2  1  1  0  0  0
 24 31  1  0  0  0  0
 25 26  1  0  0  0  0
 25 33  1  6  0  0  0
 27 28  1  6  0  0  0
 27 35  1  0  0  0  0
 29 30  1  0  0  0  0
 29 37  1  1  0  0  0
 31 32  1  6  0  0  0
 31 39  1  0  0  0  0
 33 34  1  0  0  0  0
 35 36  1  0  0  0  0
 35 41  1  6  0  0  0
 37 38  1  0  0  0  0
 39 40  1  1  0  0  0
 41 42  1  0  0  0  0
M  END
>  <CHROM.1>
-143.74718516,167.62645537,-173.59781002,78.36656562,52.46011432,27.19120714
62.87998600,-13.03901588,-163.48990503,11.51869459,13.59400701,-10.43542376
0.50629103,-0.81644324,1.96595976

>  <Name>
2o3w_lig

>  <RI>
0

>  <Rbt.Current_Directory>
/home/itssahil/PROJECTS/Mol_Feturizer/New_Systems/rnas/2o3w

>  <Rbt.Executable>
rbdock ($Id: //depot/dev/client3/rdock/2013.1/src/exe/rbdock.cxx#4 $)

>  <Rbt.Library>
libRbt.so (2013.1, Build901 2013/11/27)

>  <Rbt.Parameter_File>
/export/apps/rDock/src/rDock_2013.1_src/data/scripts/dock_solv.prm

>  <Rbt.Receptor>
prm/blind_docking_80.prm

>  <SCORE>
1.72752

>  <SCORE.INTER>
-7.79332

>  <SCORE.INTER.CONST>
1

>  <SCORE.INTER.POLAR>
-0.824621

>  <SCORE.INTER.ROT>
9

>  <SCORE.INTER.SOLV>
25.3255

>  <SCORE.INTER.VDW>
-20.4886

>  <SCORE.INTER.norm>
-0.185555

>  <SCORE.INTRA>
-1.24865

>  <SCORE.INTRA.DIHEDRAL>
-9.89288

>  <SCORE.INTRA.DIHEDRAL.0>
27.8999

>  <SCORE.INTRA.POLAR>
0

>  <SCORE.INTRA.POLAR.0>
0

>  <SCORE.INTRA.REPUL>
0

>  <SCORE.INTRA.REPUL.0>
0

>  <SCORE.INTRA.SOLV>
-2.34234

>  <SCORE.INTRA.SOLV.lig_0>
-104.479

>  <SCORE.INTRA.VDW>
4.86896

>  <SCORE.INTRA.VDW.0>
-6.17816

>  <SCORE.INTRA.norm>
-0.0297299

>  <SCORE.RESTR>
10.7695

>  <SCORE.RESTR.CAVITY>
10.7695

>  <SCORE.RESTR.norm>
0.256417

>  <SCORE.SYSTEM>
0

>  <SCORE.SYSTEM.CONST>
0

>  <SCORE.SYSTEM.DIHEDRAL>
0

>  <SCORE.SYSTEM.SOLV>
0

>  <SCORE.SYSTEM.norm>
0

>  <SCORE.heavy>
42

>  <SCORE.norm>
0.0411315

>  <RMSD>
18.350

$$$$
2o3w_lig
 OpenBabel11021811463D
libRbt.so/2013.1/901 2013/11/27
 42 45  0  0  0  0  0  0  0  0999 V2000
   12.3985   12.1877   -7.6943 C   0  0  2  0  0  0  0  0  0  0  0  0
   13.1079   12.1911   -8.9449 O   0  0  0  0  0  0  0  0  0  0  0  0
   13.1744    9.1168  -12.0011 C   0  0  2  0  0  0  0  0  0  0  0  0
   12.7873    8.2144  -13.1264 N   0  0  0  0  0  0  0  0  0  0  0  0
   11.7170   13.4288  -11.6817 C   0  0  1  0  0  0  0  0  0  0  0  0
    8.6082   16.5003  -11.8768 C   0  0  1  0  0  0  0  0  0  0  0  0
   12.4276   13.6477   -7.1506 C   0  0  2  0  0  0  0  0  0  0  0  0
   12.0094   14.6343   -8.1617 N   0  0  0  0  0  0  0  0  0  0  0  0
   12.2674    8.8695  -10.7290 C   0  0  0  0  0  0  0  0  0  0  0  0
   11.5966   14.9643  -11.9237 C   0  0  2  0  0  0  0  0  0  0  0  0
   11.5499   15.7507  -10.7078 O   0  0  0  0  0  0  0  0  0  0  0  0
    9.0071   17.2398  -10.5490 C   0  0  2  0  0  0  0  0  0  0  0  0
    8.6151   16.4362   -9.3525 N   0  0  0  0  0  0  0  0  0  0  0  0
   13.8310   14.0662   -6.6748 C   0  0  1  0  0  0  0  0  0  0  0  0
   13.8025   15.3942   -6.1490 O   0  0  0  0  0  0  0  0  0  0  0  0
   12.7369    9.8313   -9.5727 C   0  0  2  0  0  0  0  0  0  0  0  0
   11.9128    9.6149   -8.3531 N   0  0  0  0  0  0  0  0  0  0  0  0
   10.3467   15.0293  -12.8029 C   0  0  2  0  0  0  0  0  0  0  0  0
    9.1315   15.1720  -12.0006 O   0  0  0  0  0  0  0  0  0  0  0  0
    8.3182   18.6860  -10.5219 C   0  0  1  0  0  0  0  0  0  0  0  0
    9.0021   19.5469  -11.4599 O   0  0  0  0  0  0  0  0  0  0  0  0
   14.3422   13.0541   -5.6243 C   0  0  2  0  0  0  0  0  0  0  0  0
   15.6195   13.4324   -5.1660 O   0  0  0  0  0  0  0  0  0  0  0  0
   12.6279   11.3410  -10.0252 C   0  0  2  0  0  0  0  0  0  0  0  0
   10.3292   13.7222  -13.6132 C   0  0  2  0  0  0  0  0  0  0  0  0
   10.9584   12.7918  -12.7352 O   0  0  0  0  0  0  0  0  0  0  0  0
    6.7568   18.6380  -10.8785 C   0  0  2  0  0  0  0  0  0  0  0  0
    6.0871   17.9932   -9.7959 O   0  0  0  0  0  0  0  0  0  0  0  0
   14.3855   11.6281   -6.2679 C   0  0  2  0  0  0  0  0  0  0  0  0
   13.0515   11.2626   -6.7438 O   0  0  0  0  0  0  0  0  0  0  0  0
   13.4460   11.6448  -11.2994 C   0  0  2  0  0  0  0  0  0  0  0  0
   13.0862   13.0043  -11.6693 O   0  0  0  0  0  0  0  0  0  0  0  0
   11.0695   13.7884  -14.9850 C   0  0  0  0  0  0  0  0  0  0  0  0
   12.3233   14.4418  -14.8120 O   0  0  0  0  0  0  0  0  0  0  0  0
    6.5168   17.8446  -12.2183 C   0  0  1  0  0  0  0  0  0  0  0  0
    7.1000   16.5076  -12.0122 O   0  0  0  0  0  0  0  0  0  0  0  0
   14.8702   10.5697   -5.3043 C   0  0  0  0  0  0  0  0  0  0  0  0
   16.2175   10.7987   -4.9700 O   0  0  0  0  0  0  0  0  0  0  0  0
   13.0618   10.6276  -12.4541 C   0  0  1  0  0  0  0  0  0  0  0  0
   13.9240   10.8111  -13.5804 O   0  0  0  0  0  0  0  0  0  0  0  0
    4.9864   17.7189  -12.6314 C   0  0  0  0  0  0  0  0  0  0  0  0
    4.3120   18.9959  -12.9935 N   0  0  0  0  0  0  0  0  0  0  0  0
  1  2  1  6  0  0  0
  1  7  1  0  0  0  0
  1 30  1  0  0  0  0
  3  4  1  6  0  0  0
  3  9  1  0  0  0  0
  3 39  1  0  0  0  0
  5 10  1  0  0  0  0
  5 26  1  0  0  0  0
  5 32  1  6  0  0  0
  6 12  1  0  0  0  0
  6 36  1  0  0  0  0
  6 19  1  1  0  0  0
  7  8  1  6  0  0  0
  7 14  1  0  0  0  0
  9 16  1  0  0  0  0
 10 11  1  1  0  0  0
 10 18  1  0  0  0  0
 12 13  1  1  0  0  0
 12 20  1  0  0  0  0
 14 15  1  1  0  0  0
 14 22  1  0  0  0  0
 16 17  1  1  0  0  0
 16 24  1  0  0  0  0
 18 19  1  1  0  0  0
 18 25  1  0  0  0  0
 20 21  1  6  0  0  0
 20 27  1  0  0  0  0
 22 23  1  6  0  0  0
 22 29  1  0  0  0  0
 24  2  1  1  0  0  0
 24 31  1  0  0  0  0
 25 26  1  0  0  0  0
 25 33  1  6  0  0  0
 27 28  1  1  0  0  0
 27 35  1  0  0  0  0
 29 30  1  0  0  0  0
 29 37  1  1  0  0  0
 31 32  1  6  0  0  0
 31 39  1  0  0  0  0
 33 34  1  0  0  0  0
 35 36  1  0  0  0  0
 35 41  1  1  0  0  0
 37 38  1  0  0  0  0
 39 40  1  6  0  0  0
 41 42  1  0  0  0  0
M  END
>  <CHROM.1>
-143.22766801,172.45300665,-98.08047699,98.68013432,-63.31005471,45.18427033
-66.02081717,-45.84833690,66.25822954,11.29327988,13.85395789,-10.25752620
0.04813382,-0.84533397,1.06891987

>  <Name>
2o3w_lig

>  <RI>
0

>  <Rbt.Current_Directory>
/home/itssahil/PROJECTS/Mol_Feturizer/New_Systems/rnas/2o3w

>  <Rbt.Executable>
rbdock ($Id: //depot/dev/client3/rdock/2013.1/src/exe/rbdock.cxx#4 $)

>  <Rbt.Library>
libRbt.so (2013.1, Build901 2013/11/27)

>  <Rbt.Parameter_File>
/export/apps/rDock/src/rDock_2013.1_src/data/scripts/dock_solv.prm

>  <Rbt.Receptor>
prm/blind_docking_100.prm

>  <SCORE>
5.95608

>  <SCORE.INTER>
-3.18175

>  <SCORE.INTER.CONST>
1

>  <SCORE.INTER.POLAR>
-0.701806

>  <SCORE.INTER.ROT>
9

>  <SCORE.INTER.SOLV>
23.7978

>  <SCORE.INTER.VDW>
-17.3144

>  <SCORE.INTER.norm>
-0.0757559

>  <SCORE.INTRA>
-1.29791

>  <SCORE.INTRA.DIHEDRAL>
-10.4336

>  <SCORE.INTRA.DIHEDRAL.0>
27.8999

>  <SCORE.INTRA.POLAR>
0

>  <SCORE.INTRA.POLAR.0>
0

>  <SCORE.INTRA.REPUL>
0.0850273

>  <SCORE.INTRA.REPUL.0>
0

>  <SCORE.INTRA.SOLV>
1.00686

>  <SCORE.INTRA.SOLV.lig_0>
-104.479

>  <SCORE.INTRA.VDW>
2.99033

>  <SCORE.INTRA.VDW.0>
-6.17816

>  <SCORE.INTRA.norm>
-0.0309025

>  <SCORE.RESTR>
10.4357

>  <SCORE.RESTR.CAVITY>
10.4357

>  <SCORE.RESTR.norm>
0.24847

>  <SCORE.SYSTEM>
0

>  <SCORE.SYSTEM.CONST>
0

>  <SCORE.SYSTEM.DIHEDRAL>
0

>  <SCORE.SYSTEM.SOLV>
0

>  <SCORE.SYSTEM.norm>
0

>  <SCORE.heavy>
42

>  <SCORE.norm>
0.141811

>  <RMSD>
18.355

$$$$
2o3w_lig
 OpenBabel11021811463D
libRbt.so/2013.1/901 2013/11/27
 42 45  0  0  0  0  0  0  0  0999 V2000
    9.2714   15.4033   -7.4603 C   0  0  2  0  0  0  0  0  0  0  0  0
    9.2978   14.0407   -7.9186 O   0  0  0  0  0  0  0  0  0  0  0  0
   12.8634   12.5545   -5.9504 C   0  0  2  0  0  0  0  0  0  0  0  0
   14.1273   11.8163   -5.6538 N   0  0  0  0  0  0  0  0  0  0  0  0
   11.9574   13.9216  -10.1390 C   0  0  1  0  0  0  0  0  0  0  0  0
   12.1575   11.5902  -11.9483 C   0  0  1  0  0  0  0  0  0  0  0  0
    7.7786   15.7671   -7.2006 C   0  0  2  0  0  0  0  0  0  0  0  0
    7.0893   14.7624   -6.3724 N   0  0  0  0  0  0  0  0  0  0  0  0
   11.6420   11.5618   -6.1069 C   0  0  0  0  0  0  0  0  0  0  0  0
   10.6121   13.8039  -10.9182 C   0  0  2  0  0  0  0  0  0  0  0  0
    9.7927   12.6800  -10.5128 O   0  0  0  0  0  0  0  0  0  0  0  0
   13.3336   10.8285  -12.6591 C   0  0  2  0  0  0  0  0  0  0  0  0
   12.8245   10.0001  -13.7929 N   0  0  0  0  0  0  0  0  0  0  0  0
    6.9728   15.8957   -8.5064 C   0  0  1  0  0  0  0  0  0  0  0  0
    5.6230   16.2683   -8.2233 O   0  0  0  0  0  0  0  0  0  0  0  0
   10.3383   12.3982   -6.3953 C   0  0  2  0  0  0  0  0  0  0  0  0
    9.1642   11.4950   -6.5341 N   0  0  0  0  0  0  0  0  0  0  0  0
   11.1083   13.7742  -12.3646 C   0  0  2  0  0  0  0  0  0  0  0  0
   11.3632   12.4066  -12.8179 O   0  0  0  0  0  0  0  0  0  0  0  0
   14.1027    9.9227  -11.5844 C   0  0  1  0  0  0  0  0  0  0  0  0
   14.8900   10.7805  -10.7282 O   0  0  0  0  0  0  0  0  0  0  0  0
    7.6585   16.9224   -9.4365 C   0  0  2  0  0  0  0  0  0  0  0  0
    6.9236   17.0641  -10.6299 O   0  0  0  0  0  0  0  0  0  0  0  0
   10.5064   13.2552   -7.7119 C   0  0  2  0  0  0  0  0  0  0  0  0
   12.3936   14.6183  -12.3900 C   0  0  2  0  0  0  0  0  0  0  0  0
   12.9297   14.4262  -11.0831 O   0  0  0  0  0  0  0  0  0  0  0  0
   13.1088    9.0395  -10.6902 C   0  0  2  0  0  0  0  0  0  0  0  0
   12.5403    8.0408  -11.5363 O   0  0  0  0  0  0  0  0  0  0  0  0
    9.1173   16.4428   -9.7389 C   0  0  2  0  0  0  0  0  0  0  0  0
    9.8561   16.2941   -8.4852 O   0  0  0  0  0  0  0  0  0  0  0  0
   11.7180   14.2111   -7.6536 C   0  0  2  0  0  0  0  0  0  0  0  0
   11.8277   14.7707   -8.9913 O   0  0  0  0  0  0  0  0  0  0  0  0
   12.1797   16.1341  -12.6917 C   0  0  0  0  0  0  0  0  0  0  0  0
   11.5734   16.2778  -13.9726 O   0  0  0  0  0  0  0  0  0  0  0  0
   11.9738    9.9379  -10.0684 C   0  0  1  0  0  0  0  0  0  0  0  0
   11.2988   10.5890  -11.2045 O   0  0  0  0  0  0  0  0  0  0  0  0
    9.8673   17.3954  -10.6409 C   0  0  0  0  0  0  0  0  0  0  0  0
    9.3023   17.3896  -11.9293 O   0  0  0  0  0  0  0  0  0  0  0  0
   13.0317   13.4094   -7.2700 C   0  0  1  0  0  0  0  0  0  0  0  0
   14.1207   14.3144   -7.0681 O   0  0  0  0  0  0  0  0  0  0  0  0
   10.9197    9.1341   -9.1901 C   0  0  0  0  0  0  0  0  0  0  0  0
    9.9331    9.9672   -8.4489 N   0  0  0  0  0  0  0  0  0  0  0  0
  1  2  1  6  0  0  0
  1  7  1  0  0  0  0
  1 30  1  0  0  0  0
  3  4  1  6  0  0  0
  3  9  1  0  0  0  0
  3 39  1  0  0  0  0
  5 10  1  0  0  0  0
  5 26  1  0  0  0  0
  5 32  1  1  0  0  0
  6 12  1  0  0  0  0
  6 36  1  0  0  0  0
  6 19  1  6  0  0  0
  7  8  1  1  0  0  0
  7 14  1  0  0  0  0
  9 16  1  0  0  0  0
 10 11  1  1  0  0  0
 10 18  1  0  0  0  0
 12 13  1  6  0  0  0
 12 20  1  0  0  0  0
 14 15  1  1  0  0  0
 14 22  1  0  0  0  0
 16 17  1  6  0  0  0
 16 24  1  0  0  0  0
 18 19  1  1  0  0  0
 18 25  1  0  0  0  0
 20 21  1  1  0  0  0
 20 27  1  0  0  0  0
 22 23  1  6  0  0  0
 22 29  1  0  0  0  0
 24  2  1  1  0  0  0
 24 31  1  0  0  0  0
 25 26  1  0  0  0  0
 25 33  1  1  0  0  0
 27 28  1  6  0  0  0
 27 35  1  0  0  0  0
 29 30  1  0  0  0  0
 29 37  1  6  0  0  0
 31 32  1  6  0  0  0
 31 39  1  0  0  0  0
 33 34  1  0  0  0  0
 35 36  1  0  0  0  0
 35 41  1  6  0  0  0
 37 38  1  0  0  0  0
 39 40  1  1  0  0  0
 41 42  1  0  0  0  0
M  END
>  <CHROM.1>
-154.51975374,102.79185637,-131.43945632,-49.21429148,96.31267059,-60.23866256
-67.70528837,-56.09855011,172.69070697,10.92128678,13.39231003,-9.67278663
3.04775419,0.91544734,-1.13583387

>  <Name>
2o3w_lig

>  <RI>
0

>  <Rbt.Current_Directory>
/home/itssahil/PROJECTS/Mol_Feturizer/New_Systems/rnas/2o3w

>  <Rbt.Executable>
rbdock ($Id: //depot/dev/client3/rdock/2013.1/src/exe/rbdock.cxx#4 $)

>  <Rbt.Library>
libRbt.so (2013.1, Build901 2013/11/27)

>  <Rbt.Parameter_File>
/export/apps/rDock/src/rDock_2013.1_src/data/scripts/dock_solv.prm

>  <Rbt.Receptor>
prm/blind_docking_100.prm

>  <SCORE>
9.20025

>  <SCORE.INTER>
-8.75063

>  <SCORE.INTER.CONST>
1

>  <SCORE.INTER.POLAR>
-0.310593

>  <SCORE.INTER.ROT>
9

>  <SCORE.INTER.SOLV>
22.1046

>  <SCORE.INTER.VDW>
-21.7666

>  <SCORE.INTER.norm>
-0.208348

>  <SCORE.INTRA>
0.196526

>  <SCORE.INTRA.DIHEDRAL>
-6.94474

>  <SCORE.INTRA.DIHEDRAL.0>
27.8999

>  <SCORE.INTRA.POLAR>
0

>  <SCORE.INTRA.POLAR.0>
0

>  <SCORE.INTRA.REPUL>
0

>  <SCORE.INTRA.REPUL.0>
0

>  <SCORE.INTRA.SOLV>
3.61522

>  <SCORE.INTRA.SOLV.lig_0>
-104.479

>  <SCORE.INTRA.VDW>
1.86128

>  <SCORE.INTRA.VDW.0>
-6.17816

>  <SCORE.INTRA.norm>
0.00467919

>  <SCORE.RESTR>
17.7544

>  <SCORE.RESTR.CAVITY>
17.7544

>  <SCORE.RESTR.norm>
0.422723

>  <SCORE.SYSTEM>
0

>  <SCORE.SYSTEM.CONST>
0

>  <SCORE.SYSTEM.DIHEDRAL>
0

>  <SCORE.SYSTEM.SOLV>
0

>  <SCORE.SYSTEM.norm>
0

>  <SCORE.heavy>
42

>  <SCORE.norm>
0.219054

>  <RMSD>
18.378

$$$$
2o3w_lig
 OpenBabel11021811463D
libRbt.so/2013.1/901 2013/11/27
 42 45  0  0  0  0  0  0  0  0999 V2000
   12.3150   11.3281   -7.5135 C   0  0  2  0  0  0  0  0  0  0  0  0
   13.0071   11.6339   -8.7361 O   0  0  0  0  0  0  0  0  0  0  0  0
   12.9383    9.0604  -12.2244 C   0  0  2  0  0  0  0  0  0  0  0  0
   12.5473    8.4102  -13.5108 N   0  0  0  0  0  0  0  0  0  0  0  0
   12.3357   13.4079  -11.9714 C   0  0  1  0  0  0  0  0  0  0  0  0
    9.3421   16.4801  -12.3840 C   0  0  1  0  0  0  0  0  0  0  0  0
   11.5170   12.6046   -7.1109 C   0  0  2  0  0  0  0  0  0  0  0  0
   10.7161   13.1432   -8.2240 N   0  0  0  0  0  0  0  0  0  0  0  0
   11.8570    8.8026  -11.0992 C   0  0  0  0  0  0  0  0  0  0  0  0
   11.9946   14.8161  -11.3957 C   0  0  2  0  0  0  0  0  0  0  0  0
   10.9931   14.7980  -10.3489 O   0  0  0  0  0  0  0  0  0  0  0  0
    9.6339   17.9305  -12.9131 C   0  0  2  0  0  0  0  0  0  0  0  0
   11.0687   18.2932  -12.7115 N   0  0  0  0  0  0  0  0  0  0  0  0
   12.4376   13.7429   -6.6338 C   0  0  1  0  0  0  0  0  0  0  0  0
   11.6631   14.8763   -6.2382 O   0  0  0  0  0  0  0  0  0  0  0  0
   12.3347    9.4915   -9.7651 C   0  0  2  0  0  0  0  0  0  0  0  0
   11.3458    9.2564   -8.6786 N   0  0  0  0  0  0  0  0  0  0  0  0
   11.6087   15.5717  -12.6683 C   0  0  2  0  0  0  0  0  0  0  0  0
   10.1767   15.4602  -12.9469 O   0  0  0  0  0  0  0  0  0  0  0  0
    8.6677   18.9693  -12.1685 C   0  0  1  0  0  0  0  0  0  0  0  0
    7.3281   18.8171  -12.6894 O   0  0  0  0  0  0  0  0  0  0  0  0
   13.3274   13.2355   -5.4762 C   0  0  2  0  0  0  0  0  0  0  0  0
   14.1646   14.2711   -5.0167 O   0  0  0  0  0  0  0  0  0  0  0  0
   12.5283   11.0448   -9.9787 C   0  0  2  0  0  0  0  0  0  0  0  0
   12.4464   14.9527  -13.7999 C   0  0  2  0  0  0  0  0  0  0  0  0
   12.6046   13.5998  -13.3792 O   0  0  0  0  0  0  0  0  0  0  0  0
    8.6500   18.7725  -10.5784 C   0  0  2  0  0  0  0  0  0  0  0  0
    9.9249   19.1758  -10.0801 O   0  0  0  0  0  0  0  0  0  0  0  0
   14.1758   12.0204   -5.9792 C   0  0  2  0  0  0  0  0  0  0  0  0
   13.2854   10.9638   -6.4593 O   0  0  0  0  0  0  0  0  0  0  0  0
   13.5321   11.3739  -11.1054 C   0  0  2  0  0  0  0  0  0  0  0  0
   13.4456   12.8142  -11.2853 O   0  0  0  0  0  0  0  0  0  0  0  0
   13.8306   15.6311  -14.0408 C   0  0  0  0  0  0  0  0  0  0  0  0
   13.6460   17.0351  -14.1946 O   0  0  0  0  0  0  0  0  0  0  0  0
    8.3712   17.2668  -10.2077 C   0  0  1  0  0  0  0  0  0  0  0  0
    9.4248   16.4800  -10.8720 O   0  0  0  0  0  0  0  0  0  0  0  0
   15.0748   11.4542   -4.9045 C   0  0  0  0  0  0  0  0  0  0  0  0
   14.8534   10.0718   -4.7657 O   0  0  0  0  0  0  0  0  0  0  0  0
   13.1287   10.6155  -12.4387 C   0  0  1  0  0  0  0  0  0  0  0  0
   14.1382   10.7985  -13.4352 O   0  0  0  0  0  0  0  0  0  0  0  0
    8.3697   16.9742   -8.6447 C   0  0  0  0  0  0  0  0  0  0  0  0
    9.4620   16.0884   -8.1561 N   0  0  0  0  0  0  0  0  0  0  0  0
  1  2  1  6  0  0  0
  1  7  1  0  0  0  0
  1 30  1  0  0  0  0
  3  4  1  6  0  0  0
  3  9  1  0  0  0  0
  3 39  1  0  0  0  0
  5 10  1  0  0  0  0
  5 26  1  0  0  0  0
  5 32  1  1  0  0  0
  6 12  1  0  0  0  0
  6 36  1  0  0  0  0
  6 19  1  6  0  0  0
  7  8  1  6  0  0  0
  7 14  1  0  0  0  0
  9 16  1  0  0  0  0
 10 11  1  1  0  0  0
 10 18  1  0  0  0  0
 12 13  1  1  0  0  0
 12 20  1  0  0  0  0
 14 15  1  1  0  0  0
 14 22  1  0  0  0  0
 16 17  1  1  0  0  0
 16 24  1  0  0  0  0
 18 19  1  6  0  0  0
 18 25  1  0  0  0  0
 20 21  1  6  0  0  0
 20 27  1  0  0  0  0
 22 23  1  6  0  0  0
 22 29  1  0  0  0  0
 24  2  1  1  0  0  0
 24 31  1  0  0  0  0
 25 26  1  0  0  0  0
 25 33  1  1  0  0  0
 27 28  1  6  0  0  0
 27 35  1  0  0  0  0
 29 30  1  0  0  0  0
 29 37  1  1  0  0  0
 31 32  1  6  0  0  0
 31 39  1  0  0  0  0
 33 34  1  0  0  0  0
 35 36  1  0  0  0  0
 35 41  1  1  0  0  0
 37 38  1  0  0  0  0
 39 40  1  6  0  0  0
 41 42  1  0  0  0  0
M  END
>  <CHROM.1>
-106.84383596,147.57734953,62.90311997,90.65129618,-49.54352223,-51.97933442
126.32418371,-75.91023012,-114.39545198,11.78389580,13.86980656,-10.14879923
0.43392619,-1.10061397,1.49679660

>  <Name>
2o3w_lig

>  <RI>
0

>  <Rbt.Current_Directory>
/home/itssahil/PROJECTS/Mol_Feturizer/New_Systems/rnas/2o3w

>  <Rbt.Executable>
rbdock ($Id: //depot/dev/client3/rdock/2013.1/src/exe/rbdock.cxx#4 $)

>  <Rbt.Library>
libRbt.so (2013.1, Build901 2013/11/27)

>  <Rbt.Parameter_File>
/export/apps/rDock/src/rDock_2013.1_src/data/scripts/dock_solv.prm

>  <Rbt.Receptor>
prm/blind_docking_60.prm

>  <SCORE>
1.68119

>  <SCORE.INTER>
-18.3515

>  <SCORE.INTER.CONST>
1

>  <SCORE.INTER.POLAR>
-2.70858

>  <SCORE.INTER.ROT>
9

>  <SCORE.INTER.SOLV>
26.8525

>  <SCORE.INTER.VDW>
-21.7566

>  <SCORE.INTER.norm>
-0.436941

>  <SCORE.INTRA>
9.73266

>  <SCORE.INTRA.DIHEDRAL>
-1.37179

>  <SCORE.INTRA.DIHEDRAL.0>
27.8999

>  <SCORE.INTRA.POLAR>
0

>  <SCORE.INTRA.POLAR.0>
0

>  <SCORE.INTRA.REPUL>
0.315689

>  <SCORE.INTRA.REPUL.0>
0

>  <SCORE.INTRA.SOLV>
7.25407

>  <SCORE.INTRA.SOLV.lig_0>
-104.479

>  <SCORE.INTRA.VDW>
5.21308

>  <SCORE.INTRA.VDW.0>
-6.17816

>  <SCORE.INTRA.norm>
0.23173

>  <SCORE.RESTR>
10.3

>  <SCORE.RESTR.CAVITY>
10.3

>  <SCORE.RESTR.norm>
0.245239

>  <SCORE.SYSTEM>
0

>  <SCORE.SYSTEM.CONST>
0

>  <SCORE.SYSTEM.DIHEDRAL>
0

>  <SCORE.SYSTEM.SOLV>
0

>  <SCORE.SYSTEM.norm>
0

>  <SCORE.heavy>
42

>  <SCORE.norm>
0.0400284

>  <RMSD>
18.402

$$$$
2o3w_lig
 OpenBabel11021811463D
libRbt.so/2013.1/901 2013/11/27
 42 45  0  0  0  0  0  0  0  0999 V2000
   14.2028    9.2640  -10.2458 C   0  0  2  0  0  0  0  0  0  0  0  0
   13.9809   10.6266   -9.8442 O   0  0  0  0  0  0  0  0  0  0  0  0
   10.8757    9.9246   -6.9012 C   0  0  2  0  0  0  0  0  0  0  0  0
    9.7316   10.1152   -5.9604 N   0  0  0  0  0  0  0  0  0  0  0  0
   10.8782   12.1674  -10.7500 C   0  0  1  0  0  0  0  0  0  0  0  0
   11.0170   16.6075  -10.9979 C   0  0  1  0  0  0  0  0  0  0  0  0
   15.5305    9.2405  -11.0612 C   0  0  2  0  0  0  0  0  0  0  0  0
   16.6321    9.9274  -10.3646 N   0  0  0  0  0  0  0  0  0  0  0  0
   12.1335   10.7734   -6.4547 C   0  0  0  0  0  0  0  0  0  0  0  0
   11.8496   13.0765   -9.9372 C   0  0  2  0  0  0  0  0  0  0  0  0
   11.4383   13.3008   -8.5662 O   0  0  0  0  0  0  0  0  0  0  0  0
    9.6759   17.4157  -11.1289 C   0  0  2  0  0  0  0  0  0  0  0  0
    8.6727   16.6575  -11.9349 N   0  0  0  0  0  0  0  0  0  0  0  0
   15.3836    9.9169  -12.4366 C   0  0  1  0  0  0  0  0  0  0  0  0
   16.6108    9.8371  -13.1637 O   0  0  0  0  0  0  0  0  0  0  0  0
   13.3105   10.5140   -7.4696 C   0  0  2  0  0  0  0  0  0  0  0  0
   14.5173   11.2875   -7.0709 N   0  0  0  0  0  0  0  0  0  0  0  0
   11.9038   14.3212  -10.8244 C   0  0  2  0  0  0  0  0  0  0  0  0
   10.8686   15.2883  -10.4583 O   0  0  0  0  0  0  0  0  0  0  0  0
    9.9816   18.8443  -11.7867 C   0  0  1  0  0  0  0  0  0  0  0  0
   10.6393   19.6787  -10.8069 O   0  0  0  0  0  0  0  0  0  0  0  0
   14.2227    9.2566  -13.2146 C   0  0  2  0  0  0  0  0  0  0  0  0
   14.0859    9.8536  -14.4832 O   0  0  0  0  0  0  0  0  0  0  0  0
   12.8816   10.9191   -8.9352 C   0  0  2  0  0  0  0  0  0  0  0  0
   11.7155   13.8227  -12.2671 C   0  0  2  0  0  0  0  0  0  0  0  0
   10.8866   12.6742  -12.1043 O   0  0  0  0  0  0  0  0  0  0  0  0
   10.8922   18.7417  -13.1012 C   0  0  2  0  0  0  0  0  0  0  0  0
   10.1063   18.1300  -14.1232 O   0  0  0  0  0  0  0  0  0  0  0  0
   12.9027    9.4073  -12.3872 C   0  0  2  0  0  0  0  0  0  0  0  0
   13.0729    8.7889  -11.0725 O   0  0  0  0  0  0  0  0  0  0  0  0
   11.6216   10.1686   -9.4194 C   0  0  2  0  0  0  0  0  0  0  0  0
   11.2701   10.7899  -10.6862 O   0  0  0  0  0  0  0  0  0  0  0  0
   13.0355   13.4606  -13.0158 C   0  0  0  0  0  0  0  0  0  0  0  0
   12.7173   12.9028  -14.2872 O   0  0  0  0  0  0  0  0  0  0  0  0
   12.1824   17.8830  -12.8180 C   0  0  1  0  0  0  0  0  0  0  0  0
   11.7055   16.5714  -12.3461 O   0  0  0  0  0  0  0  0  0  0  0  0
   11.7112    8.7809  -13.0740 C   0  0  0  0  0  0  0  0  0  0  0  0
   10.5418    9.0188  -12.3289 O   0  0  0  0  0  0  0  0  0  0  0  0
   10.4462   10.3333   -8.3672 C   0  0  1  0  0  0  0  0  0  0  0  0
    9.3326    9.5167   -8.7395 O   0  0  0  0  0  0  0  0  0  0  0  0
   13.1296   17.7010  -14.0822 C   0  0  0  0  0  0  0  0  0  0  0  0
   12.5013   17.0563  -15.2680 N   0  0  0  0  0  0  0  0  0  0  0  0
  1  2  1  6  0  0  0
  1  7  1  0  0  0  0
  1 30  1  0  0  0  0
  3  4  1  1  0  0  0
  3  9  1  0  0  0  0
  3 39  1  0  0  0  0
  5 10  1  0  0  0  0
  5 26  1  0  0  0  0
  5 32  1  6  0  0  0
  6 12  1  0  0  0  0
  6 36  1  0  0  0  0
  6 19  1  6  0  0  0
  7  8  1  1  0  0  0
  7 14  1  0  0  0  0
  9 16  1  0  0  0  0
 10 11  1  1  0  0  0
 10 18  1  0  0  0  0
 12 13  1  6  0  0  0
 12 20  1  0  0  0  0
 14 15  1  6  0  0  0
 14 22  1  0  0  0  0
 16 17  1  1  0  0  0
 16 24  1  0  0  0  0
 18 19  1  1  0  0  0
 18 25  1  0  0  0  0
 20 21  1  1  0  0  0
 20 27  1  0  0  0  0
 22 23  1  6  0  0  0
 22 29  1  0  0  0  0
 24  2  1  6  0  0  0
 24 31  1  0  0  0  0
 25 26  1  0  0  0  0
 25 33  1  1  0  0  0
 27 28  1  6  0  0  0
 27 35  1  0  0  0  0
 29 30  1  0  0  0  0
 29 37  1  6  0  0  0
 31 32  1  6  0  0  0
 31 39  1  0  0  0  0
 33 34  1  0  0  0  0
 35 36  1  0  0  0  0
 35 41  1  6  0  0  0
 37 38  1  0  0  0  0
 39 40  1  6  0  0  0
 41 42  1  0  0  0  0
M  END
>  <CHROM.1>
-173.15751197,46.90639032,154.96266877,165.79577227,77.39789709,174.80190710
-176.31377995,-63.77858778,-58.67208579,12.15115563,12.72363500,-11.09190712
-1.12660283,0.94170089,-0.66842469

>  <Name>
2o3w_lig

>  <RI>
0

>  <Rbt.Current_Directory>
/home/itssahil/PROJECTS/Mol_Feturizer/New_Systems/rnas/2o3w

>  <Rbt.Executable>
rbdock ($Id: //depot/dev/client3/rdock/2013.1/src/exe/rbdock.cxx#4 $)

>  <Rbt.Library>
libRbt.so (2013.1, Build901 2013/11/27)

>  <Rbt.Parameter_File>
/export/apps/rDock/src/rDock_2013.1_src/data/scripts/dock_solv.prm

>  <Rbt.Receptor>
prm/blind_docking_40.prm

>  <SCORE>
13.2902

>  <SCORE.INTER>
2.01947

>  <SCORE.INTER.CONST>
1

>  <SCORE.INTER.POLAR>
0

>  <SCORE.INTER.ROT>
9

>  <SCORE.INTER.SOLV>
28.1418

>  <SCORE.INTER.VDW>
-17.6343

>  <SCORE.INTER.norm>
0.0480827

>  <SCORE.INTRA>
-3.94263

>  <SCORE.INTRA.DIHEDRAL>
-21.5181

>  <SCORE.INTRA.DIHEDRAL.0>
27.8999

>  <SCORE.INTRA.POLAR>
0

>  <SCORE.INTRA.POLAR.0>
0

>  <SCORE.INTRA.REPUL>
0

>  <SCORE.INTRA.REPUL.0>
0

>  <SCORE.INTRA.SOLV>
-0.238262

>  <SCORE.INTRA.SOLV.lig_0>
-104.479

>  <SCORE.INTRA.VDW>
6.93554

>  <SCORE.INTRA.VDW.0>
-6.17816

>  <SCORE.INTRA.norm>
-0.0938722

>  <SCORE.RESTR>
15.2134

>  <SCORE.RESTR.CAVITY>
15.2134

>  <SCORE.RESTR.norm>
0.362223

>  <SCORE.SYSTEM>
0

>  <SCORE.SYSTEM.CONST>
0

>  <SCORE.SYSTEM.DIHEDRAL>
0

>  <SCORE.SYSTEM.SOLV>
0

>  <SCORE.SYSTEM.norm>
0

>  <SCORE.heavy>
42

>  <SCORE.norm>
0.316434

>  <RMSD>
18.411

$$$$
2o3w_lig
 OpenBabel11021811463D
libRbt.so/2013.1/901 2013/11/27
 42 45  0  0  0  0  0  0  0  0999 V2000
   12.9282   11.6451  -12.9416 C   0  0  2  0  0  0  0  0  0  0  0  0
   12.9582   12.8027  -12.0894 O   0  0  0  0  0  0  0  0  0  0  0  0
   11.5474   16.8988  -12.2570 C   0  0  2  0  0  0  0  0  0  0  0  0
   10.7127   18.1116  -12.5073 N   0  0  0  0  0  0  0  0  0  0  0  0
   11.2365   12.5634   -9.5615 C   0  0  1  0  0  0  0  0  0  0  0  0
   14.0036   10.8747   -6.4060 C   0  0  1  0  0  0  0  0  0  0  0  0
   11.6406   10.8461  -12.5786 C   0  0  2  0  0  0  0  0  0  0  0  0
   10.4380   11.6967  -12.5520 N   0  0  0  0  0  0  0  0  0  0  0  0
   11.9925   16.2184  -13.6138 C   0  0  0  0  0  0  0  0  0  0  0  0
   12.6930   12.9197   -9.1342 C   0  0  2  0  0  0  0  0  0  0  0  0
   13.7157   12.2868   -9.9420 O   0  0  0  0  0  0  0  0  0  0  0  0
   13.5761   11.4651   -5.0140 C   0  0  2  0  0  0  0  0  0  0  0  0
   13.3198   12.9332   -5.1132 N   0  0  0  0  0  0  0  0  0  0  0  0
   11.7403   10.1736  -11.1969 C   0  0  1  0  0  0  0  0  0  0  0  0
   10.5569    9.4214  -10.9234 O   0  0  0  0  0  0  0  0  0  0  0  0
   12.8855   14.9624  -13.2858 C   0  0  2  0  0  0  0  0  0  0  0  0
   13.3350   14.3048  -14.5424 N   0  0  0  0  0  0  0  0  0  0  0  0
   12.6750   12.5216   -7.6575 C   0  0  2  0  0  0  0  0  0  0  0  0
   13.0788   11.1277   -7.4710 O   0  0  0  0  0  0  0  0  0  0  0  0
   14.7173   11.1518   -3.9339 C   0  0  1  0  0  0  0  0  0  0  0  0
   14.6672    9.7477   -3.5952 O   0  0  0  0  0  0  0  0  0  0  0  0
   13.0008    9.2804  -11.1480 C   0  0  2  0  0  0  0  0  0  0  0  0
   13.0975    8.6442   -9.8949 O   0  0  0  0  0  0  0  0  0  0  0  0
   12.0856   13.9258  -12.4019 C   0  0  2  0  0  0  0  0  0  0  0  0
   11.2340   12.7539   -7.1728 C   0  0  2  0  0  0  0  0  0  0  0  0
   10.4582   12.5110   -8.3439 O   0  0  0  0  0  0  0  0  0  0  0  0
   16.1859   11.5255   -4.4546 C   0  0  2  0  0  0  0  0  0  0  0  0
   16.2655   12.9480   -4.5352 O   0  0  0  0  0  0  0  0  0  0  0  0
   14.2637   10.1643  -11.4185 C   0  0  2  0  0  0  0  0  0  0  0  0
   14.1353   10.8208  -12.7193 O   0  0  0  0  0  0  0  0  0  0  0  0
   11.5690   14.5378  -11.0813 C   0  0  2  0  0  0  0  0  0  0  0  0
   10.7145   13.5172  -10.4958 O   0  0  0  0  0  0  0  0  0  0  0  0
   10.9539   14.1777   -6.5994 C   0  0  0  0  0  0  0  0  0  0  0  0
   11.3960   15.1568   -7.5346 O   0  0  0  0  0  0  0  0  0  0  0  0
   16.4547   10.8833   -5.8679 C   0  0  1  0  0  0  0  0  0  0  0  0
   15.3877   11.3813   -6.7532 O   0  0  0  0  0  0  0  0  0  0  0  0
   15.5473    9.3670  -11.3954 C   0  0  0  0  0  0  0  0  0  0  0  0
   16.6510   10.2193  -11.5820 O   0  0  0  0  0  0  0  0  0  0  0  0
   10.7445   15.8606  -11.3749 C   0  0  1  0  0  0  0  0  0  0  0  0
   10.3963   16.5075  -10.1478 O   0  0  0  0  0  0  0  0  0  0  0  0
   17.8816   11.2321   -6.4769 C   0  0  0  0  0  0  0  0  0  0  0  0
   19.0497   10.8442   -5.6392 N   0  0  0  0  0  0  0  0  0  0  0  0
  1  2  1  1  0  0  0
  1  7  1  0  0  0  0
  1 30  1  0  0  0  0
  3  4  1  6  0  0  0
  3  9  1  0  0  0  0
  3 39  1  0  0  0  0
  5 10  1  0  0  0  0
  5 26  1  0  0  0  0
  5 32  1  6  0  0  0
  6 12  1  0  0  0  0
  6 36  1  0  0  0  0
  6 19  1  6  0  0  0
  7  8  1  1  0  0  0
  7 14  1  0  0  0  0
  9 16  1  0  0  0  0
 10 11  1  6  0  0  0
 10 18  1  0  0  0  0
 12 13  1  6  0  0  0
 12 20  1  0  0  0  0
 14 15  1  6  0  0  0
 14 22  1  0  0  0  0
 16 17  1  6  0  0  0
 16 24  1  0  0  0  0
 18 19  1  6  0  0  0
 18 25  1  0  0  0  0
 20 21  1  6  0  0  0
 20 27  1  0  0  0  0
 22 23  1  1  0  0  0
 22 29  1  0  0  0  0
 24  2  1  1  0  0  0
 24 31  1  0  0  0  0
 25 26  1  0  0  0  0
 25 33  1  6  0  0  0
 27 28  1  6  0  0  0
 27 35  1  0  0  0  0
 29 30  1  0  0  0  0
 29 37  1  6  0  0  0
 31 32  1  6  0  0  0
 31 39  1  0  0  0  0
 33 34  1  0  0  0  0
 35 36  1  0  0  0  0
 35 41  1  6  0  0  0
 37 38  1  0  0  0  0
 39 40  1  1  0  0  0
 41 42  1  0  0  0  0
M  END
>  <CHROM.1>
-76.88128790,8.74242262,51.86924698,135.34699752,-93.58973858,51.45765818
-177.28390104,92.52416355,57.69065810,13.14618464,12.38251201,-9.34706657
-2.44239150,-0.93495303,1.24194603

>  <Name>
2o3w_lig

>  <RI>
0

>  <Rbt.Current_Directory>
/home/itssahil/PROJECTS/Mol_Feturizer/New_Systems/rnas/2o3w

>  <Rbt.Executable>
rbdock ($Id: //depot/dev/client3/rdock/2013.1/src/exe/rbdock.cxx#4 $)

>  <Rbt.Library>
libRbt.so (2013.1, Build901 2013/11/27)

>  <Rbt.Parameter_File>
/export/apps/rDock/src/rDock_2013.1_src/data/scripts/dock_solv.prm

>  <Rbt.Receptor>
prm/blind_docking_40.prm

>  <SCORE>
4.02646

>  <SCORE.INTER>
-14.062

>  <SCORE.INTER.CONST>
1

>  <SCORE.INTER.POLAR>
-0.476585

>  <SCORE.INTER.ROT>
9

>  <SCORE.INTER.SOLV>
21.1007

>  <SCORE.INTER.VDW>
-24.4196

>  <SCORE.INTER.norm>
-0.334809

>  <SCORE.INTRA>
4.06061

>  <SCORE.INTRA.DIHEDRAL>
-4.59687

>  <SCORE.INTRA.DIHEDRAL.0>
27.8999

>  <SCORE.INTRA.POLAR>
0

>  <SCORE.INTRA.POLAR.0>
0

>  <SCORE.INTRA.REPUL>
0

>  <SCORE.INTRA.REPUL.0>
0

>  <SCORE.INTRA.SOLV>
5.0973

>  <SCORE.INTRA.SOLV.lig_0>
-104.479

>  <SCORE.INTRA.VDW>
3.81039

>  <SCORE.INTRA.VDW.0>
-6.17816

>  <SCORE.INTRA.norm>
0.0966812

>  <SCORE.RESTR>
14.0278

>  <SCORE.RESTR.CAVITY>
14.0278

>  <SCORE.RESTR.norm>
0.333996

>  <SCORE.SYSTEM>
0

>  <SCORE.SYSTEM.CONST>
0

>  <SCORE.SYSTEM.DIHEDRAL>
0

>  <SCORE.SYSTEM.SOLV>
0

>  <SCORE.SYSTEM.norm>
0

>  <SCORE.heavy>
42

>  <SCORE.norm>
0.0958682

>  <RMSD>
18.414

$$$$
2o3w_lig
 OpenBabel11021811463D
libRbt.so/2013.1/901 2013/11/27
 42 45  0  0  0  0  0  0  0  0999 V2000
   11.9734   11.5013   -7.7027 C   0  0  2  0  0  0  0  0  0  0  0  0
   12.8153   11.6171   -8.8625 O   0  0  0  0  0  0  0  0  0  0  0  0
   12.8747    9.1083  -12.3978 C   0  0  2  0  0  0  0  0  0  0  0  0
   12.5165    8.4633  -13.6963 N   0  0  0  0  0  0  0  0  0  0  0  0
   11.9273   13.4352  -11.7421 C   0  0  1  0  0  0  0  0  0  0  0  0
    9.3271   16.4014  -11.3662 C   0  0  1  0  0  0  0  0  0  0  0  0
   11.4158   12.9247   -7.4011 C   0  0  2  0  0  0  0  0  0  0  0  0
   10.8379   13.5682   -8.5938 N   0  0  0  0  0  0  0  0  0  0  0  0
   11.8077    8.7762  -11.2784 C   0  0  0  0  0  0  0  0  0  0  0  0
   11.9353   14.9865  -11.5863 C   0  0  2  0  0  0  0  0  0  0  0  0
   11.4815   15.4510  -10.2911 O   0  0  0  0  0  0  0  0  0  0  0  0
    7.7985   16.4549  -11.0068 C   0  0  2  0  0  0  0  0  0  0  0  0
    6.9773   16.7690  -12.2142 N   0  0  0  0  0  0  0  0  0  0  0  0
   12.5014   13.8759   -6.8646 C   0  0  1  0  0  0  0  0  0  0  0  0
   11.9386   15.1543   -6.5649 O   0  0  0  0  0  0  0  0  0  0  0  0
   12.2505    9.4633   -9.9314 C   0  0  2  0  0  0  0  0  0  0  0  0
   11.2747    9.1591   -8.8502 N   0  0  0  0  0  0  0  0  0  0  0  0
   11.0770   15.4093  -12.7795 C   0  0  2  0  0  0  0  0  0  0  0  0
    9.6607   15.4910  -12.4214 O   0  0  0  0  0  0  0  0  0  0  0  0
    7.5644   17.5416   -9.8530 C   0  0  1  0  0  0  0  0  0  0  0  0
    8.0594   17.0103   -8.6034 O   0  0  0  0  0  0  0  0  0  0  0  0
   13.1685   13.2472   -5.6200 C   0  0  2  0  0  0  0  0  0  0  0  0
   14.1536   14.1134   -5.1066 O   0  0  0  0  0  0  0  0  0  0  0  0
   12.3664   11.0280  -10.1161 C   0  0  2  0  0  0  0  0  0  0  0  0
   11.3159   14.3516  -13.8702 C   0  0  2  0  0  0  0  0  0  0  0  0
   11.5739   13.1680  -13.1187 O   0  0  0  0  0  0  0  0  0  0  0  0
    8.2812   18.9410  -10.1618 C   0  0  2  0  0  0  0  0  0  0  0  0
    7.5917   19.5464  -11.2548 O   0  0  0  0  0  0  0  0  0  0  0  0
   13.7962   11.8699   -6.0182 C   0  0  2  0  0  0  0  0  0  0  0  0
   12.7567   10.9927   -6.5566 O   0  0  0  0  0  0  0  0  0  0  0  0
   13.3524   11.4274  -11.2357 C   0  0  2  0  0  0  0  0  0  0  0  0
   13.1942   12.8648  -11.3891 O   0  0  0  0  0  0  0  0  0  0  0  0
   12.4931   14.6655  -14.8448 C   0  0  0  0  0  0  0  0  0  0  0  0
   13.6537   14.9982  -14.0888 O   0  0  0  0  0  0  0  0  0  0  0  0
    9.7973   18.7199  -10.5287 C   0  0  1  0  0  0  0  0  0  0  0  0
    9.8098   17.8018  -11.6808 O   0  0  0  0  0  0  0  0  0  0  0  0
   14.4676   11.1786   -4.8541 C   0  0  0  0  0  0  0  0  0  0  0  0
   15.1034   10.0018   -5.2902 O   0  0  0  0  0  0  0  0  0  0  0  0
   12.9872   10.6747  -12.5832 C   0  0  1  0  0  0  0  0  0  0  0  0
   13.9863   10.9262  -13.5752 O   0  0  0  0  0  0  0  0  0  0  0  0
   10.5795   20.0581  -10.8838 C   0  0  0  0  0  0  0  0  0  0  0  0
   10.6672   21.0610   -9.7870 N   0  0  0  0  0  0  0  0  0  0  0  0
  1  2  1  6  0  0  0
  1  7  1  0  0  0  0
  1 30  1  0  0  0  0
  3  4  1  6  0  0  0
  3  9  1  0  0  0  0
  3 39  1  0  0  0  0
  5 10  1  0  0  0  0
  5 26  1  0  0  0  0
  5 32  1  6  0  0  0
  6 12  1  0  0  0  0
  6 36  1  0  0  0  0
  6 19  1  6  0  0  0
  7  8  1  6  0  0  0
  7 14  1  0  0  0  0
  9 16  1  0  0  0  0
 10 11  1  1  0  0  0
 10 18  1  0  0  0  0
 12 13  1  6  0  0  0
 12 20  1  0  0  0  0
 14 15  1  1  0  0  0
 14 22  1  0  0  0  0
 16 17  1  1  0  0  0
 16 24  1  0  0  0  0
 18 19  1  1  0  0  0
 18 25  1  0  0  0  0
 20 21  1  1  0  0  0
 20 27  1  0  0  0  0
 22 23  1  6  0  0  0
 22 29  1  0  0  0  0
 24  2  1  1  0  0  0
 24 31  1  0  0  0  0
 25 26  1  0  0  0  0
 25 33  1  1  0  0  0
 27 28  1  6  0  0  0
 27 35  1  0  0  0  0
 29 30  1  0  0  0  0
 29 37  1  1  0  0  0
 31 32  1  6  0  0  0
 31 39  1  0  0  0  0
 33 34  1  0  0  0  0
 35 36  1  0  0  0  0
 35 41  1  6  0  0  0
 37 38  1  0  0  0  0
 39 40  1  6  0  0  0
 41 42  1  0  0  0  0
M  END
>  <CHROM.1>
-109.90256144,169.29636572,-179.71268324,58.96157751,-63.33074489,50.02979910
-175.34714430,-59.61768524,62.13550120,11.52326584,13.92895663,-10.14556593
0.01680959,-1.09625311,1.27333224

>  <Name>
2o3w_lig

>  <RI>
0

>  <Rbt.Current_Directory>
/home/itssahil/PROJECTS/Mol_Feturizer/New_Systems/rnas/2o3w

>  <Rbt.Executable>
rbdock ($Id: //depot/dev/client3/rdock/2013.1/src/exe/rbdock.cxx#4 $)

>  <Rbt.Library>
libRbt.so (2013.1, Build901 2013/11/27)

>  <Rbt.Parameter_File>
/export/apps/rDock/src/rDock_2013.1_src/data/scripts/dock_solv.prm

>  <Rbt.Receptor>
prm/blind_docking_60.prm

>  <SCORE>
-9.36402

>  <SCORE.INTER>
-17.2009

>  <SCORE.INTER.CONST>
1

>  <SCORE.INTER.POLAR>
-1.8908

>  <SCORE.INTER.ROT>
9

>  <SCORE.INTER.SOLV>
23.6237

>  <SCORE.INTER.VDW>
-22.6391

>  <SCORE.INTER.norm>
-0.409544

>  <SCORE.INTRA>
-6.13446

>  <SCORE.INTRA.DIHEDRAL>
-19.9746

>  <SCORE.INTRA.DIHEDRAL.0>
27.8999

>  <SCORE.INTRA.POLAR>
0

>  <SCORE.INTRA.POLAR.0>
0

>  <SCORE.INTRA.REPUL>
4.23714e-05

>  <SCORE.INTRA.REPUL.0>
0

>  <SCORE.INTRA.SOLV>
0.383241

>  <SCORE.INTRA.SOLV.lig_0>
-104.479

>  <SCORE.INTRA.VDW>
3.66101

>  <SCORE.INTRA.VDW.0>
-6.17816

>  <SCORE.INTRA.norm>
-0.146059

>  <SCORE.RESTR>
13.9713

>  <SCORE.RESTR.CAVITY>
13.9713

>  <SCORE.RESTR.norm>
0.33265

>  <SCORE.SYSTEM>
0

>  <SCORE.SYSTEM.CONST>
0

>  <SCORE.SYSTEM.DIHEDRAL>
0

>  <SCORE.SYSTEM.SOLV>
0

>  <SCORE.SYSTEM.norm>
0

>  <SCORE.heavy>
42

>  <SCORE.norm>
-0.222953

>  <RMSD>
18.415

$$$$
2o3w_lig
 OpenBabel11021811463D
libRbt.so/2013.1/901 2013/11/27
 42 45  0  0  0  0  0  0  0  0999 V2000
   12.1116   11.4718   -7.9181 C   0  0  2  0  0  0  0  0  0  0  0  0
   13.0864   11.6567   -8.9588 O   0  0  0  0  0  0  0  0  0  0  0  0
   13.8051    8.9618  -12.2779 C   0  0  2  0  0  0  0  0  0  0  0  0
   13.6950    8.2432  -13.5824 N   0  0  0  0  0  0  0  0  0  0  0  0
   12.7235   13.3114  -12.0064 C   0  0  1  0  0  0  0  0  0  0  0  0
   10.5196   15.0402  -13.0622 C   0  0  1  0  0  0  0  0  0  0  0  0
   11.5347   12.8792   -7.5796 C   0  0  2  0  0  0  0  0  0  0  0  0
   11.1082   13.6174   -8.7812 N   0  0  0  0  0  0  0  0  0  0  0  0
   12.5502    8.6770  -11.3581 C   0  0  0  0  0  0  0  0  0  0  0  0
   12.6046   12.9672  -13.5224 C   0  0  2  0  0  0  0  0  0  0  0  0
   13.1579   13.9775  -14.4012 O   0  0  0  0  0  0  0  0  0  0  0  0
    9.4755   15.0280  -11.8881 C   0  0  2  0  0  0  0  0  0  0  0  0
    8.0788   14.9950  -12.4165 N   0  0  0  0  0  0  0  0  0  0  0  0
   12.5571   13.7698   -6.8500 C   0  0  1  0  0  0  0  0  0  0  0  0
   11.9739   15.0328   -6.5249 O   0  0  0  0  0  0  0  0  0  0  0  0
   12.7344    9.4413   -9.9926 C   0  0  2  0  0  0  0  0  0  0  0  0
   11.5762    9.1836   -9.0950 N   0  0  0  0  0  0  0  0  0  0  0  0
   11.1001   12.7261  -13.6551 C   0  0  2  0  0  0  0  0  0  0  0  0
   10.3854   13.9577  -13.9915 O   0  0  0  0  0  0  0  0  0  0  0  0
    9.7092   16.3124  -10.9593 C   0  0  1  0  0  0  0  0  0  0  0  0
   10.9099   16.1131  -10.1799 O   0  0  0  0  0  0  0  0  0  0  0  0
   13.0661   13.0409   -5.5855 C   0  0  2  0  0  0  0  0  0  0  0  0
   13.9908   13.8503   -4.8969 O   0  0  0  0  0  0  0  0  0  0  0  0
   12.8786   10.9951  -10.2392 C   0  0  2  0  0  0  0  0  0  0  0  0
   10.6386   12.1668  -12.2988 C   0  0  2  0  0  0  0  0  0  0  0  0
   11.5346   12.7821  -11.3762 O   0  0  0  0  0  0  0  0  0  0  0  0
    9.8342   17.6720  -11.7980 C   0  0  2  0  0  0  0  0  0  0  0  0
    8.5489   17.9591  -12.3474 O   0  0  0  0  0  0  0  0  0  0  0  0
   13.7246   11.6854   -6.0079 C   0  0  2  0  0  0  0  0  0  0  0  0
   12.7488   10.8679   -6.7285 O   0  0  0  0  0  0  0  0  0  0  0  0
   14.0537   11.3461  -11.1778 C   0  0  2  0  0  0  0  0  0  0  0  0
   13.9231   12.7709  -11.4371 O   0  0  0  0  0  0  0  0  0  0  0  0
   10.6876   10.6121  -12.1769 C   0  0  0  0  0  0  0  0  0  0  0  0
    9.9287   10.0332  -13.2341 O   0  0  0  0  0  0  0  0  0  0  0  0
   10.8978   17.5185  -12.9502 C   0  0  1  0  0  0  0  0  0  0  0  0
   10.4523   16.3777  -13.7690 O   0  0  0  0  0  0  0  0  0  0  0  0
   14.2470   10.8999   -4.8272 C   0  0  0  0  0  0  0  0  0  0  0  0
   15.5509   11.3185   -4.5049 O   0  0  0  0  0  0  0  0  0  0  0  0
   13.9461   10.5172  -12.5257 C   0  0  1  0  0  0  0  0  0  0  0  0
   15.1109   10.7275  -13.3287 O   0  0  0  0  0  0  0  0  0  0  0  0
   11.0621   18.8147  -13.8567 C   0  0  0  0  0  0  0  0  0  0  0  0
   12.1623   18.7625  -14.8584 N   0  0  0  0  0  0  0  0  0  0  0  0
  1  2  1  6  0  0  0
  1  7  1  0  0  0  0
  1 30  1  0  0  0  0
  3  4  1  6  0  0  0
  3  9  1  0  0  0  0
  3 39  1  0  0  0  0
  5 10  1  0  0  0  0
  5 26  1  0  0  0  0
  5 32  1  1  0  0  0
  6 12  1  0  0  0  0
  6 36  1  0  0  0  0
  6 19  1  6  0  0  0
  7  8  1  6  0  0  0
  7 14  1  0  0  0  0
  9 16  1  0  0  0  0
 10 11  1  6  0  0  0
 10 18  1  0  0  0  0
 12 13  1  6  0  0  0
 12 20  1  0  0  0  0
 14 15  1  1  0  0  0
 14 22  1  0  0  0  0
 16 17  1  1  0  0  0
 16 24  1  0  0  0  0
 18 19  1  1  0  0  0
 18 25  1  0  0  0  0
 20 21  1  6  0  0  0
 20 27  1  0  0  0  0
 22 23  1  6  0  0  0
 22 29  1  0  0  0  0
 24  2  1  1  0  0  0
 24 31  1  0  0  0  0
 25 26  1  0  0  0  0
 25 33  1  6  0  0  0
 27 28  1  6  0  0  0
 27 35  1  0  0  0  0
 29 30  1  0  0  0  0
 29 37  1  1  0  0  0
 31 32  1  6  0  0  0
 31 39  1  0  0  0  0
 33 34  1  0  0  0  0
 35 36  1  0  0  0  0
 35 41  1  6  0  0  0
 37 38  1  0  0  0  0
 39 40  1  6  0  0  0
 41 42  1  0  0  0  0
M  END
>  <CHROM.1>
-119.11844972,-73.59921754,-87.36545682,-59.02033801,-56.60974869,-55.37588429
-85.88363116,-57.43609554,173.47041963,12.02019809,13.06704272,-10.67679235
0.37876883,-1.17479109,1.10212889

>  <Name>
2o3w_lig

>  <RI>
0

>  <Rbt.Current_Directory>
/home/itssahil/PROJECTS/Mol_Feturizer/New_Systems/rnas/2o3w

>  <Rbt.Executable>
rbdock ($Id: //depot/dev/client3/rdock/2013.1/src/exe/rbdock.cxx#4 $)

>  <Rbt.Library>
libRbt.so (2013.1, Build901 2013/11/27)

>  <Rbt.Parameter_File>
/export/apps/rDock/src/rDock_2013.1_src/data/scripts/dock_solv.prm

>  <Rbt.Receptor>
prm/blind_docking_40.prm

>  <SCORE>
0.346062

>  <SCORE.INTER>
-14.0014

>  <SCORE.INTER.CONST>
1

>  <SCORE.INTER.POLAR>
-1.33334

>  <SCORE.INTER.ROT>
9

>  <SCORE.INTER.SOLV>
22.9044

>  <SCORE.INTER.VDW>
-22.1246

>  <SCORE.INTER.norm>
-0.333367

>  <SCORE.INTRA>
3.06243

>  <SCORE.INTRA.DIHEDRAL>
-14.2523

>  <SCORE.INTRA.DIHEDRAL.0>
27.8999

>  <SCORE.INTRA.POLAR>
0

>  <SCORE.INTRA.POLAR.0>
0

>  <SCORE.INTRA.REPUL>
0.159555

>  <SCORE.INTRA.REPUL.0>
0

>  <SCORE.INTRA.SOLV>
3.80315

>  <SCORE.INTRA.SOLV.lig_0>
-104.479

>  <SCORE.INTRA.VDW>
7.48921

>  <SCORE.INTRA.VDW.0>
-6.17816

>  <SCORE.INTRA.norm>
0.072915

>  <SCORE.RESTR>
11.285

>  <SCORE.RESTR.CAVITY>
11.285

>  <SCORE.RESTR.norm>
0.268691

>  <SCORE.SYSTEM>
0

>  <SCORE.SYSTEM.CONST>
0

>  <SCORE.SYSTEM.DIHEDRAL>
0

>  <SCORE.SYSTEM.SOLV>
0

>  <SCORE.SYSTEM.norm>
0

>  <SCORE.heavy>
42

>  <SCORE.norm>
0.00823958

>  <RMSD>
18.419

$$$$
2o3w_lig
 OpenBabel11021811463D
libRbt.so/2013.1/901 2013/11/27
 42 45  0  0  0  0  0  0  0  0999 V2000
   12.1494   11.2486   -7.8303 C   0  0  2  0  0  0  0  0  0  0  0  0
   12.5689   11.8011   -9.0896 O   0  0  0  0  0  0  0  0  0  0  0  0
   14.0034    8.6169  -11.6585 C   0  0  2  0  0  0  0  0  0  0  0  0
   14.1816    7.6835  -12.8106 N   0  0  0  0  0  0  0  0  0  0  0  0
   12.6472   13.1080  -11.8132 C   0  0  1  0  0  0  0  0  0  0  0  0
    9.4942   16.2367  -11.5061 C   0  0  1  0  0  0  0  0  0  0  0  0
   11.4492   12.3952   -7.0409 C   0  0  2  0  0  0  0  0  0  0  0  0
   10.4311   13.0933   -7.8450 N   0  0  0  0  0  0  0  0  0  0  0  0
   12.5818    8.4371  -10.9886 C   0  0  0  0  0  0  0  0  0  0  0  0
   12.4089   14.4199  -11.0054 C   0  0  2  0  0  0  0  0  0  0  0  0
   11.6973   14.2233   -9.7587 O   0  0  0  0  0  0  0  0  0  0  0  0
    8.0209   15.9047  -11.0723 C   0  0  2  0  0  0  0  0  0  0  0  0
    7.2737   15.2437  -12.1839 N   0  0  0  0  0  0  0  0  0  0  0  0
   12.4456   13.4656   -6.5585 C   0  0  1  0  0  0  0  0  0  0  0  0
   11.7673   14.4740   -5.8075 O   0  0  0  0  0  0  0  0  0  0  0  0
   12.4627    9.4292   -9.7704 C   0  0  2  0  0  0  0  0  0  0  0  0
   11.1401    9.2765   -9.1062 N   0  0  0  0  0  0  0  0  0  0  0  0
   11.6952   15.2841  -12.0461 C   0  0  2  0  0  0  0  0  0  0  0  0
   10.2435   15.1125  -11.9838 O   0  0  0  0  0  0  0  0  0  0  0  0
    7.2896   17.2528  -10.6090 C   0  0  1  0  0  0  0  0  0  0  0  0
    7.8089   17.6464   -9.3189 O   0  0  0  0  0  0  0  0  0  0  0  0
   13.5598   12.7939   -5.7239 C   0  0  2  0  0  0  0  0  0  0  0  0
   14.4713   13.7629   -5.2606 O   0  0  0  0  0  0  0  0  0  0  0  0
   12.6461   10.9236  -10.2490 C   0  0  2  0  0  0  0  0  0  0  0  0
   12.2498   14.8477  -13.4126 C   0  0  2  0  0  0  0  0  0  0  0  0
   12.5543   13.4697  -13.2103 O   0  0  0  0  0  0  0  0  0  0  0  0
    7.4800   18.4539  -11.6525 C   0  0  2  0  0  0  0  0  0  0  0  0
    6.7374   18.1267  -12.8263 O   0  0  0  0  0  0  0  0  0  0  0  0
   14.2881   11.7279   -6.6087 C   0  0  2  0  0  0  0  0  0  0  0  0
   13.3204   10.7397   -7.0848 O   0  0  0  0  0  0  0  0  0  0  0  0
   13.9934   11.1618  -10.9654 C   0  0  2  0  0  0  0  0  0  0  0  0
   13.9122   12.5149  -11.4917 O   0  0  0  0  0  0  0  0  0  0  0  0
   13.5073   15.6355  -13.8947 C   0  0  0  0  0  0  0  0  0  0  0  0
   13.9549   15.0944  -15.1339 O   0  0  0  0  0  0  0  0  0  0  0  0
    9.0030   18.6463  -12.0068 C   0  0  1  0  0  0  0  0  0  0  0  0
    9.4679   17.3506  -12.5316 O   0  0  0  0  0  0  0  0  0  0  0  0
   15.3942   11.0140   -5.8666 C   0  0  0  0  0  0  0  0  0  0  0  0
   16.4147   11.9212   -5.5275 O   0  0  0  0  0  0  0  0  0  0  0  0
   14.1841   10.1125  -12.1394 C   0  0  1  0  0  0  0  0  0  0  0  0
   15.4930   10.2348  -12.7028 O   0  0  0  0  0  0  0  0  0  0  0  0
    9.2810   19.7997  -13.0654 C   0  0  0  0  0  0  0  0  0  0  0  0
   10.6829   19.8957  -13.5574 N   0  0  0  0  0  0  0  0  0  0  0  0
  1  2  1  6  0  0  0
  1  7  1  0  0  0  0
  1 30  1  0  0  0  0
  3  4  1  6  0  0  0
  3  9  1  0  0  0  0
  3 39  1  0  0  0  0
  5 10  1  0  0  0  0
  5 26  1  0  0  0  0
  5 32  1  6  0  0  0
  6 12  1  0  0  0  0
  6 36  1  0  0  0  0
  6 19  1  6  0  0  0
  7  8  1  6  0  0  0
  7 14  1  0  0  0  0
  9 16  1  0  0  0  0
 10 11  1  1  0  0  0
 10 18  1  0  0  0  0
 12 13  1  6  0  0  0
 12 20  1  0  0  0  0
 14 15  1  1  0  0  0
 14 22  1  0  0  0  0
 16 17  1  6  0  0  0
 16 24  1  0  0  0  0
 18 19  1  6  0  0  0
 18 25  1  0  0  0  0
 20 21  1  1  0  0  0
 20 27  1  0  0  0  0
 22 23  1  6  0  0  0
 22 29  1  0  0  0  0
 24  2  1  1  0  0  0
 24 31  1  0  0  0  0
 25 26  1  0  0  0  0
 25 33  1  1  0  0  0
 27 28  1  6  0  0  0
 27 35  1  0  0  0  0
 29 30  1  0  0  0  0
 29 37  1  1  0  0  0
 31 32  1  6  0  0  0
 31 39  1  0  0  0  0
 33 34  1  0  0  0  0
 35 36  1  0  0  0  0
 35 41  1  6  0  0  0
 37 38  1  0  0  0  0
 39 40  1  1  0  0  0
 41 42  1  0  0  0  0
M  END
>  <CHROM.1>
-150.55928168,121.36987024,-163.69905266,110.93773051,-9.60871392,177.26176381
-64.67636578,-26.91315685,-172.42097669,11.83974717,13.65655286,-10.34479314
0.41638787,-0.94514005,1.58787102

>  <Name>
2o3w_lig

>  <RI>
0

>  <Rbt.Current_Directory>
/home/itssahil/PROJECTS/Mol_Feturizer/New_Systems/rnas/2o3w

>  <Rbt.Executable>
rbdock ($Id: //depot/dev/client3/rdock/2013.1/src/exe/rbdock.cxx#4 $)

>  <Rbt.Library>
libRbt.so (2013.1, Build901 2013/11/27)

>  <Rbt.Parameter_File>
/export/apps/rDock/src/rDock_2013.1_src/data/scripts/dock_solv.prm

>  <Rbt.Receptor>
prm/blind_docking_40.prm

>  <SCORE>
9.76244

>  <SCORE.INTER>
-11.6009

>  <SCORE.INTER.CONST>
1

>  <SCORE.INTER.POLAR>
-1.20009

>  <SCORE.INTER.ROT>
9

>  <SCORE.INTER.SOLV>
22.5732

>  <SCORE.INTER.VDW>
-20.858

>  <SCORE.INTER.norm>
-0.276211

>  <SCORE.INTRA>
7.64534

>  <SCORE.INTRA.DIHEDRAL>
2.10126

>  <SCORE.INTRA.DIHEDRAL.0>
27.8999

>  <SCORE.INTRA.POLAR>
0

>  <SCORE.INTRA.POLAR.0>
0

>  <SCORE.INTRA.REPUL>
0

>  <SCORE.INTRA.REPUL.0>
0

>  <SCORE.INTRA.SOLV>
-1.69601

>  <SCORE.INTRA.SOLV.lig_0>
-104.479

>  <SCORE.INTRA.VDW>
7.44272

>  <SCORE.INTRA.VDW.0>
-6.17816

>  <SCORE.INTRA.norm>
0.182032

>  <SCORE.RESTR>
13.718

>  <SCORE.RESTR.CAVITY>
13.718

>  <SCORE.RESTR.norm>
0.326618

>  <SCORE.SYSTEM>
0

>  <SCORE.SYSTEM.CONST>
0

>  <SCORE.SYSTEM.DIHEDRAL>
0

>  <SCORE.SYSTEM.SOLV>
0

>  <SCORE.SYSTEM.norm>
0

>  <SCORE.heavy>
42

>  <SCORE.norm>
0.232439

>  <RMSD>
18.431

$$$$
2o3w_lig
 OpenBabel11021811463D
libRbt.so/2013.1/901 2013/11/27
 42 45  0  0  0  0  0  0  0  0999 V2000
   12.0796   11.1928   -7.8486 C   0  0  2  0  0  0  0  0  0  0  0  0
   12.5816   11.7625   -9.0695 O   0  0  0  0  0  0  0  0  0  0  0  0
   13.9800    8.6345  -11.7260 C   0  0  2  0  0  0  0  0  0  0  0  0
   14.1528    7.7361  -12.9064 N   0  0  0  0  0  0  0  0  0  0  0  0
   12.7439   13.1078  -11.8888 C   0  0  1  0  0  0  0  0  0  0  0  0
    9.6568   16.1701  -11.7614 C   0  0  1  0  0  0  0  0  0  0  0  0
   11.3290   12.3290   -7.0912 C   0  0  2  0  0  0  0  0  0  0  0  0
   10.3663   13.0394   -7.9510 N   0  0  0  0  0  0  0  0  0  0  0  0
   12.5463    8.4640  -11.0799 C   0  0  0  0  0  0  0  0  0  0  0  0
   12.4820   14.4917  -11.2202 C   0  0  2  0  0  0  0  0  0  0  0  0
   11.6849   14.4212  -10.0124 O   0  0  0  0  0  0  0  0  0  0  0  0
    8.2516   15.7282  -11.2145 C   0  0  2  0  0  0  0  0  0  0  0  0
    7.4249   15.1182  -12.2986 N   0  0  0  0  0  0  0  0  0  0  0  0
   12.2914   13.3914   -6.5289 C   0  0  1  0  0  0  0  0  0  0  0  0
   11.5651   14.3899   -5.8103 O   0  0  0  0  0  0  0  0  0  0  0  0
   12.4328    9.4174   -9.8307 C   0  0  2  0  0  0  0  0  0  0  0  0
   11.0988    9.2719   -9.1882 N   0  0  0  0  0  0  0  0  0  0  0  0
   11.8587   15.2690  -12.3806 C   0  0  2  0  0  0  0  0  0  0  0  0
   10.4026   15.1276  -12.4023 O   0  0  0  0  0  0  0  0  0  0  0  0
    7.5124   16.9956  -10.5710 C   0  0  1  0  0  0  0  0  0  0  0  0
    8.1425   17.3135   -9.3098 O   0  0  0  0  0  0  0  0  0  0  0  0
   13.3480   12.7069   -5.6321 C   0  0  2  0  0  0  0  0  0  0  0  0
   14.2270   13.6683   -5.0959 O   0  0  0  0  0  0  0  0  0  0  0  0
   12.6548   10.9224  -10.2567 C   0  0  2  0  0  0  0  0  0  0  0  0
   12.4929   14.7008  -13.6613 C   0  0  2  0  0  0  0  0  0  0  0  0
   12.7522   13.3422  -13.3157 O   0  0  0  0  0  0  0  0  0  0  0  0
    7.5419   18.2831  -11.5244 C   0  0  2  0  0  0  0  0  0  0  0  0
    6.6987   18.0105  -12.6430 O   0  0  0  0  0  0  0  0  0  0  0  0
   14.1330   11.6526   -6.4817 C   0  0  2  0  0  0  0  0  0  0  0  0
   13.1987   10.6722   -7.0346 O   0  0  0  0  0  0  0  0  0  0  0  0
   14.0161   11.1546  -10.9481 C   0  0  2  0  0  0  0  0  0  0  0  0
   13.9710   12.5259  -11.4298 O   0  0  0  0  0  0  0  0  0  0  0  0
   13.7971   15.4207  -14.1252 C   0  0  0  0  0  0  0  0  0  0  0  0
   13.5907   16.8299  -14.1008 O   0  0  0  0  0  0  0  0  0  0  0  0
    9.0108   18.5823  -12.0091 C   0  0  1  0  0  0  0  0  0  0  0  0
    9.4767   17.3580  -12.6830 O   0  0  0  0  0  0  0  0  0  0  0  0
   15.1875   10.9272   -5.6782 C   0  0  0  0  0  0  0  0  0  0  0  0
   16.2025   11.8212   -5.2913 O   0  0  0  0  0  0  0  0  0  0  0  0
   14.1992   10.1409  -12.1542 C   0  0  1  0  0  0  0  0  0  0  0  0
   15.5176   10.2530  -12.6972 O   0  0  0  0  0  0  0  0  0  0  0  0
    9.1280   19.8283  -12.9901 C   0  0  0  0  0  0  0  0  0  0  0  0
   10.4250   19.9600  -13.7090 N   0  0  0  0  0  0  0  0  0  0  0  0
  1  2  1  6  0  0  0
  1  7  1  0  0  0  0
  1 30  1  0  0  0  0
  3  4  1  6  0  0  0
  3  9  1  0  0  0  0
  3 39  1  0  0  0  0
  5 10  1  0  0  0  0
  5 26  1  0  0  0  0
  5 32  1  1  0  0  0
  6 12  1  0  0  0  0
  6 36  1  0  0  0  0
  6 19  1  6  0  0  0
  7  8  1  6  0  0  0
  7 14  1  0  0  0  0
  9 16  1  0  0  0  0
 10 11  1  1  0  0  0
 10 18  1  0  0  0  0
 12 13  1  6  0  0  0
 12 20  1  0  0  0  0
 14 15  1  1  0  0  0
 14 22  1  0  0  0  0
 16 17  1  6  0  0  0
 16 24  1  0  0  0  0
 18 19  1  6  0  0  0
 18 25  1  0  0  0  0
 20 21  1  1  0  0  0
 20 27  1  0  0  0  0
 22 23  1  6  0  0  0
 22 29  1  0  0  0  0
 24  2  1  1  0  0  0
 24 31  1  0  0  0  0
 25 26  1  0  0  0  0
 25 33  1  1  0  0  0
 27 28  1  6  0  0  0
 27 35  1  0  0  0  0
 29 30  1  0  0  0  0
 29 37  1  1  0  0  0
 31 32  1  6  0  0  0
 31 39  1  0  0  0  0
 33 34  1  0  0  0  0
 35 36  1  0  0  0  0
 35 41  1  6  0  0  0
 37 38  1  0  0  0  0
 39 40  1  1  0  0  0
 41 42  1  0  0  0  0
M  END
>  <CHROM.1>
-146.68554213,129.88198030,-153.20180397,95.52379264,-12.24639044,-47.44053031
-66.31149135,-33.99683992,-166.72354010,11.83275013,13.65137773,-10.35987369
0.48749077,-0.95746847,1.63763615

>  <Name>
2o3w_lig

>  <RI>
0

>  <Rbt.Current_Directory>
/home/itssahil/PROJECTS/Mol_Feturizer/New_Systems/rnas/2o3w

>  <Rbt.Executable>
rbdock ($Id: //depot/dev/client3/rdock/2013.1/src/exe/rbdock.cxx#4 $)

>  <Rbt.Library>
libRbt.so (2013.1, Build901 2013/11/27)

>  <Rbt.Parameter_File>
/export/apps/rDock/src/rDock_2013.1_src/data/scripts/dock_solv.prm

>  <Rbt.Receptor>
prm/blind_docking_40.prm

>  <SCORE>
6.92129

>  <SCORE.INTER>
-12.599

>  <SCORE.INTER.CONST>
1

>  <SCORE.INTER.POLAR>
-1.2638

>  <SCORE.INTER.ROT>
9

>  <SCORE.INTER.SOLV>
22.6812

>  <SCORE.INTER.VDW>
-21.3471

>  <SCORE.INTER.norm>
-0.299976

>  <SCORE.INTRA>
6.48811

>  <SCORE.INTRA.DIHEDRAL>
1.31492

>  <SCORE.INTRA.DIHEDRAL.0>
27.8999

>  <SCORE.INTRA.POLAR>
0

>  <SCORE.INTRA.POLAR.0>
0

>  <SCORE.INTRA.REPUL>
0

>  <SCORE.INTRA.REPUL.0>
0

>  <SCORE.INTRA.SOLV>
-1.93543

>  <SCORE.INTRA.SOLV.lig_0>
-104.479

>  <SCORE.INTRA.VDW>
6.79837

>  <SCORE.INTRA.VDW.0>
-6.17816

>  <SCORE.INTRA.norm>
0.154479

>  <SCORE.RESTR>
13.0322

>  <SCORE.RESTR.CAVITY>
13.0322

>  <SCORE.RESTR.norm>
0.31029

>  <SCORE.SYSTEM>
0

>  <SCORE.SYSTEM.CONST>
0

>  <SCORE.SYSTEM.DIHEDRAL>
0

>  <SCORE.SYSTEM.SOLV>
0

>  <SCORE.SYSTEM.norm>
0

>  <SCORE.heavy>
42

>  <SCORE.norm>
0.164793

>  <RMSD>
18.437

$$$$
2o3w_lig
 OpenBabel11021811463D
libRbt.so/2013.1/901 2013/11/27
 42 45  0  0  0  0  0  0  0  0999 V2000
   13.2148   11.3929  -12.1264 C   0  0  2  0  0  0  0  0  0  0  0  0
   12.2903   11.0878  -11.0683 O   0  0  0  0  0  0  0  0  0  0  0  0
   10.9606   12.6870   -7.2643 C   0  0  2  0  0  0  0  0  0  0  0  0
   10.7357   13.5893   -6.0956 N   0  0  0  0  0  0  0  0  0  0  0  0
    9.9508   14.5957  -11.0308 C   0  0  1  0  0  0  0  0  0  0  0  0
    8.4055   17.3368  -10.8718 C   0  0  1  0  0  0  0  0  0  0  0  0
   12.8532   10.4681  -13.3273 C   0  0  2  0  0  0  0  0  0  0  0  0
   11.4170   10.5037  -13.6539 N   0  0  0  0  0  0  0  0  0  0  0  0
   12.4881   12.3018   -7.4063 C   0  0  0  0  0  0  0  0  0  0  0  0
   10.9908   15.5602  -10.3836 C   0  0  2  0  0  0  0  0  0  0  0  0
   10.8334   15.7224   -8.9525 O   0  0  0  0  0  0  0  0  0  0  0  0
    7.7029   18.1547  -12.0148 C   0  0  2  0  0  0  0  0  0  0  0  0
    7.7897   19.6223  -11.7511 N   0  0  0  0  0  0  0  0  0  0  0  0
   13.2118    8.9949  -13.0589 C   0  0  1  0  0  0  0  0  0  0  0  0
   12.9006    8.1916  -14.1985 O   0  0  0  0  0  0  0  0  0  0  0  0
   12.6580   11.3344   -8.6383 C   0  0  2  0  0  0  0  0  0  0  0  0
   14.0840   10.9393   -8.7931 N   0  0  0  0  0  0  0  0  0  0  0  0
   10.7845   16.8240  -11.2200 C   0  0  2  0  0  0  0  0  0  0  0  0
    9.7708   17.6994  -10.6310 O   0  0  0  0  0  0  0  0  0  0  0  0
    6.1774   17.6820  -12.1421 C   0  0  1  0  0  0  0  0  0  0  0  0
    6.1429   16.3765  -12.7612 O   0  0  0  0  0  0  0  0  0  0  0  0
   14.7078    8.8883  -12.6848 C   0  0  2  0  0  0  0  0  0  0  0  0
   15.0561    7.5433  -12.4522 O   0  0  0  0  0  0  0  0  0  0  0  0
   12.1531   12.0280   -9.9648 C   0  0  2  0  0  0  0  0  0  0  0  0
   10.3612   16.3433  -12.6182 C   0  0  2  0  0  0  0  0  0  0  0  0
    9.6640   15.1305  -12.3434 O   0  0  0  0  0  0  0  0  0  0  0  0
    5.4238   17.6253  -10.7291 C   0  0  2  0  0  0  0  0  0  0  0  0
    5.2595   18.9678  -10.2741 O   0  0  0  0  0  0  0  0  0  0  0  0
   14.9790    9.7578  -11.4120 C   0  0  2  0  0  0  0  0  0  0  0  0
   14.6009   11.1462  -11.6751 O   0  0  0  0  0  0  0  0  0  0  0  0
   10.6799   12.4838   -9.8790 C   0  0  2  0  0  0  0  0  0  0  0  0
   10.4465   13.2520  -11.0914 O   0  0  0  0  0  0  0  0  0  0  0  0
   11.5370   16.1013  -13.6149 C   0  0  0  0  0  0  0  0  0  0  0  0
   11.0174   15.9840  -14.9359 O   0  0  0  0  0  0  0  0  0  0  0  0
    6.2618   16.7944   -9.6852 C   0  0  1  0  0  0  0  0  0  0  0  0
    7.5803   17.4468   -9.6069 O   0  0  0  0  0  0  0  0  0  0  0  0
   16.4257    9.7168  -10.9772 C   0  0  0  0  0  0  0  0  0  0  0  0
   16.8126    8.3920  -10.7041 O   0  0  0  0  0  0  0  0  0  0  0  0
   10.4578   13.3836   -8.5919 C   0  0  1  0  0  0  0  0  0  0  0  0
    9.0678   13.6791   -8.4303 O   0  0  0  0  0  0  0  0  0  0  0  0
    5.6013   16.7149   -8.2409 C   0  0  0  0  0  0  0  0  0  0  0  0
    4.2012   16.2102   -8.2019 N   0  0  0  0  0  0  0  0  0  0  0  0
  1  2  1  1  0  0  0
  1  7  1  0  0  0  0
  1 30  1  0  0  0  0
  3  4  1  1  0  0  0
  3  9  1  0  0  0  0
  3 39  1  0  0  0  0
  5 10  1  0  0  0  0
  5 26  1  0  0  0  0
  5 32  1  6  0  0  0
  6 12  1  0  0  0  0
  6 36  1  0  0  0  0
  6 19  1  1  0  0  0
  7  8  1  1  0  0  0
  7 14  1  0  0  0  0
  9 16  1  0  0  0  0
 10 11  1  1  0  0  0
 10 18  1  0  0  0  0
 12 13  1  1  0  0  0
 12 20  1  0  0  0  0
 14 15  1  6  0  0  0
 14 22  1  0  0  0  0
 16 17  1  6  0  0  0
 16 24  1  0  0  0  0
 18 19  1  1  0  0  0
 18 25  1  0  0  0  0
 20 21  1  1  0  0  0
 20 27  1  0  0  0  0
 22 23  1  1  0  0  0
 22 29  1  0  0  0  0
 24  2  1  6  0  0  0
 24 31  1  0  0  0  0
 25 26  1  0  0  0  0
 25 33  1  6  0  0  0
 27 28  1  1  0  0  0
 27 35  1  0  0  0  0
 29 30  1  0  0  0  0
 29 37  1  6  0  0  0
 31 32  1  6  0  0  0
 31 39  1  0  0  0  0
 33 34  1  0  0  0  0
 35 36  1  0  0  0  0
 35 41  1  1  0  0  0
 37 38  1  0  0  0  0
 39 40  1  1  0  0  0
 41 42  1  0  0  0  0
M  END
>  <CHROM.1>
-163.72689127,66.69218897,-100.21498403,-79.58930757,-114.97408307,-165.89588747
-58.68953483,-124.92726162,54.39417149,10.66699210,13.76899481,-10.86690781
-0.04242666,0.82274934,-1.37939371

>  <Name>
2o3w_lig

>  <RI>
0

>  <Rbt.Current_Directory>
/home/itssahil/PROJECTS/Mol_Feturizer/New_Systems/rnas/2o3w

>  <Rbt.Executable>
rbdock ($Id: //depot/dev/client3/rdock/2013.1/src/exe/rbdock.cxx#4 $)

>  <Rbt.Library>
libRbt.so (2013.1, Build901 2013/11/27)

>  <Rbt.Parameter_File>
/export/apps/rDock/src/rDock_2013.1_src/data/scripts/dock_solv.prm

>  <Rbt.Receptor>
prm/blind_docking_100.prm

>  <SCORE>
17.6621

>  <SCORE.INTER>
0.183333

>  <SCORE.INTER.CONST>
1

>  <SCORE.INTER.POLAR>
-0.393194

>  <SCORE.INTER.ROT>
9

>  <SCORE.INTER.SOLV>
23.0485

>  <SCORE.INTER.VDW>
-15.85

>  <SCORE.INTER.norm>
0.00436507

>  <SCORE.INTRA>
5.85151

>  <SCORE.INTRA.DIHEDRAL>
-4.35886

>  <SCORE.INTRA.DIHEDRAL.0>
27.8999

>  <SCORE.INTRA.POLAR>
0

>  <SCORE.INTRA.POLAR.0>
0

>  <SCORE.INTRA.REPUL>
0

>  <SCORE.INTRA.REPUL.0>
0

>  <SCORE.INTRA.SOLV>
-0.123008

>  <SCORE.INTRA.SOLV.lig_0>
-104.479

>  <SCORE.INTRA.VDW>
8.09245

>  <SCORE.INTRA.VDW.0>
-6.17816

>  <SCORE.INTRA.norm>
0.139322

>  <SCORE.RESTR>
11.6272

>  <SCORE.RESTR.CAVITY>
11.6272

>  <SCORE.RESTR.norm>
0.276839

>  <SCORE.SYSTEM>
0

>  <SCORE.SYSTEM.CONST>
0

>  <SCORE.SYSTEM.DIHEDRAL>
0

>  <SCORE.SYSTEM.SOLV>
0

>  <SCORE.SYSTEM.norm>
0

>  <SCORE.heavy>
42

>  <SCORE.norm>
0.420526

>  <RMSD>
18.444

$$$$
2o3w_lig
 OpenBabel11021811463D
libRbt.so/2013.1/901 2013/11/27
 42 45  0  0  0  0  0  0  0  0999 V2000
   11.6014   11.4927  -11.7429 C   0  0  2  0  0  0  0  0  0  0  0  0
   11.4297   11.1244  -10.3637 O   0  0  0  0  0  0  0  0  0  0  0  0
   12.2763   13.1132   -6.6056 C   0  0  2  0  0  0  0  0  0  0  0  0
   12.9592   13.8661   -5.5114 N   0  0  0  0  0  0  0  0  0  0  0  0
   10.7254   14.6713  -11.0265 C   0  0  1  0  0  0  0  0  0  0  0  0
    8.2296   17.3858  -10.8554 C   0  0  1  0  0  0  0  0  0  0  0  0
   11.0748   10.3030  -12.6006 C   0  0  2  0  0  0  0  0  0  0  0  0
    9.7345    9.8565  -12.1825 N   0  0  0  0  0  0  0  0  0  0  0  0
   12.9899   11.7289   -6.8819 C   0  0  0  0  0  0  0  0  0  0  0  0
   10.7579   16.1830  -10.6466 C   0  0  2  0  0  0  0  0  0  0  0  0
    9.9357   16.5210   -9.5025 O   0  0  0  0  0  0  0  0  0  0  0  0
    7.3552   16.2566  -10.2003 C   0  0  2  0  0  0  0  0  0  0  0  0
    6.3567   15.7225  -11.1742 N   0  0  0  0  0  0  0  0  0  0  0  0
   11.9978    9.0730  -12.5227 C   0  0  1  0  0  0  0  0  0  0  0  0
   11.4986    8.0232  -13.3532 O   0  0  0  0  0  0  0  0  0  0  0  0
   12.2132   10.9739   -8.0262 C   0  0  2  0  0  0  0  0  0  0  0  0
   12.8501    9.6581   -8.3027 N   0  0  0  0  0  0  0  0  0  0  0  0
   10.3491   16.8308  -11.9704 C   0  0  2  0  0  0  0  0  0  0  0  0
    8.8985   16.9983  -12.0621 O   0  0  0  0  0  0  0  0  0  0  0  0
    6.6315   16.8387   -8.8948 C   0  0  1  0  0  0  0  0  0  0  0  0
    7.6123   16.9867   -7.8437 O   0  0  0  0  0  0  0  0  0  0  0  0
   13.4332    9.4789  -12.9277 C   0  0  2  0  0  0  0  0  0  0  0  0
   14.2873    8.3598  -12.8777 O   0  0  0  0  0  0  0  0  0  0  0  0
   12.1891   11.8393   -9.3477 C   0  0  2  0  0  0  0  0  0  0  0  0
   10.8738   15.9013  -13.0777 C   0  0  2  0  0  0  0  0  0  0  0  0
   10.8196   14.6136  -12.4683 O   0  0  0  0  0  0  0  0  0  0  0  0
    5.9115   18.2458   -9.1581 C   0  0  2  0  0  0  0  0  0  0  0  0
    4.7921   18.0045  -10.0096 O   0  0  0  0  0  0  0  0  0  0  0  0
   13.9373   10.6030  -11.9624 C   0  0  2  0  0  0  0  0  0  0  0  0
   13.0299   11.7487  -12.0249 O   0  0  0  0  0  0  0  0  0  0  0  0
   11.5551   13.2322   -9.1399 C   0  0  2  0  0  0  0  0  0  0  0  0
   11.7830   13.9454  -10.3864 O   0  0  0  0  0  0  0  0  0  0  0  0
   12.3152   16.2243  -13.5801 C   0  0  0  0  0  0  0  0  0  0  0  0
   12.3446   17.5479  -14.1056 O   0  0  0  0  0  0  0  0  0  0  0  0
    6.9060   19.2602   -9.8393 C   0  0  1  0  0  0  0  0  0  0  0  0
    7.3679   18.6108  -11.0784 O   0  0  0  0  0  0  0  0  0  0  0  0
   15.3375   11.0670  -12.2912 C   0  0  0  0  0  0  0  0  0  0  0  0
   15.6755   12.1836  -11.5049 O   0  0  0  0  0  0  0  0  0  0  0  0
   12.2555   13.9791   -7.9286 C   0  0  1  0  0  0  0  0  0  0  0  0
   11.5707   15.2011   -7.6400 O   0  0  0  0  0  0  0  0  0  0  0  0
    6.2622   20.6765  -10.1681 C   0  0  0  0  0  0  0  0  0  0  0  0
    5.0731   20.6491  -11.0635 N   0  0  0  0  0  0  0  0  0  0  0  0
  1  2  1  1  0  0  0
  1  7  1  0  0  0  0
  1 30  1  0  0  0  0
  3  4  1  1  0  0  0
  3  9  1  0  0  0  0
  3 39  1  0  0  0  0
  5 10  1  0  0  0  0
  5 26  1  0  0  0  0
  5 32  1  1  0  0  0
  6 12  1  0  0  0  0
  6 36  1  0  0  0  0
  6 19  1  6  0  0  0
  7  8  1  1  0  0  0
  7 14  1  0  0  0  0
  9 16  1  0  0  0  0
 10 11  1  1  0  0  0
 10 18  1  0  0  0  0
 12 13  1  6  0  0  0
 12 20  1  0  0  0  0
 14 15  1  6  0  0  0
 14 22  1  0  0  0  0
 16 17  1  6  0  0  0
 16 24  1  0  0  0  0
 18 19  1  1  0  0  0
 18 25  1  0  0  0  0
 20 21  1  1  0  0  0
 20 27  1  0  0  0  0
 22 23  1  1  0  0  0
 22 29  1  0  0  0  0
 24  2  1  6  0  0  0
 24 31  1  0  0  0  0
 25 26  1  0  0  0  0
 25 33  1  1  0  0  0
 27 28  1  6  0  0  0
 27 35  1  0  0  0  0
 29 30  1  0  0  0  0
 29 37  1  6  0  0  0
 31 32  1  6  0  0  0
 31 39  1  0  0  0  0
 33 34  1  0  0  0  0
 35 36  1  0  0  0  0
 35 41  1  6  0  0  0
 37 38  1  0  0  0  0
 39 40  1  1  0  0  0
 41 42  1  0  0  0  0
M  END
>  <CHROM.1>
161.41195360,95.83000595,-108.55256708,38.66221894,-161.23256297,-59.97251483
172.74095837,133.01482229,-58.40678996,10.61077659,14.17721440,-10.61939941
0.12136558,0.91766698,-1.60247406

>  <Name>
2o3w_lig

>  <RI>
0

>  <Rbt.Current_Directory>
/home/itssahil/PROJECTS/Mol_Feturizer/New_Systems/rnas/2o3w

>  <Rbt.Executable>
rbdock ($Id: //depot/dev/client3/rdock/2013.1/src/exe/rbdock.cxx#4 $)

>  <Rbt.Library>
libRbt.so (2013.1, Build901 2013/11/27)

>  <Rbt.Parameter_File>
/export/apps/rDock/src/rDock_2013.1_src/data/scripts/dock_solv.prm

>  <Rbt.Receptor>
prm/blind_docking_100.prm

>  <SCORE>
13.4517

>  <SCORE.INTER>
1.75239

>  <SCORE.INTER.CONST>
1

>  <SCORE.INTER.POLAR>
-0.24847

>  <SCORE.INTER.ROT>
9

>  <SCORE.INTER.SOLV>
25.8512

>  <SCORE.INTER.VDW>
-16.2206

>  <SCORE.INTER.norm>
0.0417235

>  <SCORE.INTRA>
4.39657

>  <SCORE.INTRA.DIHEDRAL>
-4.84042

>  <SCORE.INTRA.DIHEDRAL.0>
27.8999

>  <SCORE.INTRA.POLAR>
0

>  <SCORE.INTRA.POLAR.0>
0

>  <SCORE.INTRA.REPUL>
0.0324561

>  <SCORE.INTRA.REPUL.0>
0

>  <SCORE.INTRA.SOLV>
-2.44672

>  <SCORE.INTRA.SOLV.lig_0>
-104.479

>  <SCORE.INTRA.VDW>
7.87786

>  <SCORE.INTRA.VDW.0>
-6.17816

>  <SCORE.INTRA.norm>
0.10468

>  <SCORE.RESTR>
7.30278

>  <SCORE.RESTR.CAVITY>
7.30278

>  <SCORE.RESTR.norm>
0.173876

>  <SCORE.SYSTEM>
0

>  <SCORE.SYSTEM.CONST>
0

>  <SCORE.SYSTEM.DIHEDRAL>
0

>  <SCORE.SYSTEM.SOLV>
0

>  <SCORE.SYSTEM.norm>
0

>  <SCORE.heavy>
42

>  <SCORE.norm>
0.32028

>  <RMSD>
18.453

$$$$
2o3w_lig
 OpenBabel11021811463D
libRbt.so/2013.1/901 2013/11/27
 42 45  0  0  0  0  0  0  0  0999 V2000
   11.6386   13.4866   -6.9824 C   0  0  2  0  0  0  0  0  0  0  0  0
   11.9972   13.3078   -8.3632 O   0  0  0  0  0  0  0  0  0  0  0  0
   10.0900   15.7074  -11.4292 C   0  0  2  0  0  0  0  0  0  0  0  0
    9.7997   16.7792  -12.4279 N   0  0  0  0  0  0  0  0  0  0  0  0
   13.5578   12.0442  -10.9946 C   0  0  1  0  0  0  0  0  0  0  0  0
   14.3904    8.8116  -11.6294 C   0  0  1  0  0  0  0  0  0  0  0  0
   12.9670   13.6554   -6.1855 C   0  0  2  0  0  0  0  0  0  0  0  0
   13.8614   14.6600   -6.7867 N   0  0  0  0  0  0  0  0  0  0  0  0
   10.1277   16.2882   -9.9585 C   0  0  0  0  0  0  0  0  0  0  0  0
   13.0812   11.2775   -9.7235 C   0  0  2  0  0  0  0  0  0  0  0  0
   14.0808   11.1905   -8.6783 O   0  0  0  0  0  0  0  0  0  0  0  0
   15.4238    7.6291  -11.6807 C   0  0  2  0  0  0  0  0  0  0  0  0
   16.4497    7.7702  -10.6044 N   0  0  0  0  0  0  0  0  0  0  0  0
   13.7672   12.3427   -6.0988 C   0  0  1  0  0  0  0  0  0  0  0  0
   14.9546   12.5340   -5.3278 O   0  0  0  0  0  0  0  0  0  0  0  0
   10.4146   15.1105   -8.9519 C   0  0  2  0  0  0  0  0  0  0  0  0
   10.4427   15.6196   -7.5542 N   0  0  0  0  0  0  0  0  0  0  0  0
   12.6385    9.9446  -10.3290 C   0  0  2  0  0  0  0  0  0  0  0  0
   13.7370    8.9788  -10.3650 O   0  0  0  0  0  0  0  0  0  0  0  0
   16.1099    7.5891  -13.1280 C   0  0  1  0  0  0  0  0  0  0  0  0
   15.1537    7.0791  -14.0843 O   0  0  0  0  0  0  0  0  0  0  0  0
   12.8751   11.2339   -5.4956 C   0  0  2  0  0  0  0  0  0  0  0  0
   13.5985   10.0294   -5.3939 O   0  0  0  0  0  0  0  0  0  0  0  0
   11.7910   14.4122   -9.2895 C   0  0  2  0  0  0  0  0  0  0  0  0
   12.1346   10.2685  -11.7456 C   0  0  2  0  0  0  0  0  0  0  0  0
   12.9319   11.3890  -12.1216 O   0  0  0  0  0  0  0  0  0  0  0  0
   16.6341    9.0252  -13.6079 C   0  0  2  0  0  0  0  0  0  0  0  0
   17.7462    9.3750  -12.7850 O   0  0  0  0  0  0  0  0  0  0  0  0
   11.6122   11.0459   -6.4007 C   0  0  2  0  0  0  0  0  0  0  0  0
   10.8842   12.3109   -6.4984 O   0  0  0  0  0  0  0  0  0  0  0  0
   11.8483   13.8684  -10.7339 C   0  0  2  0  0  0  0  0  0  0  0  0
   13.2235   13.4365  -10.9251 O   0  0  0  0  0  0  0  0  0  0  0  0
   10.6140   10.6037  -11.8426 C   0  0  0  0  0  0  0  0  0  0  0  0
    9.8547    9.4512  -11.4905 O   0  0  0  0  0  0  0  0  0  0  0  0
   15.4954   10.1058  -13.4738 C   0  0  1  0  0  0  0  0  0  0  0  0
   15.0798   10.0890  -12.0605 O   0  0  0  0  0  0  0  0  0  0  0  0
   10.6765    9.9798   -5.8793 C   0  0  0  0  0  0  0  0  0  0  0  0
   10.4819    8.9858   -6.8556 O   0  0  0  0  0  0  0  0  0  0  0  0
   11.4693   15.0114  -11.7662 C   0  0  1  0  0  0  0  0  0  0  0  0
   11.3746   14.4715  -13.0873 O   0  0  0  0  0  0  0  0  0  0  0  0
   15.9407   11.5720  -13.8984 C   0  0  0  0  0  0  0  0  0  0  0  0
   16.9671   12.2088  -13.0279 N   0  0  0  0  0  0  0  0  0  0  0  0
  1  2  1  6  0  0  0
  1  7  1  0  0  0  0
  1 30  1  0  0  0  0
  3  4  1  6  0  0  0
  3  9  1  0  0  0  0
  3 39  1  0  0  0  0
  5 10  1  0  0  0  0
  5 26  1  0  0  0  0
  5 32  1  1  0  0  0
  6 12  1  0  0  0  0
  6 36  1  0  0  0  0
  6 19  1  1  0  0  0
  7  8  1  6  0  0  0
  7 14  1  0  0  0  0
  9 16  1  0  0  0  0
 10 11  1  1  0  0  0
 10 18  1  0  0  0  0
 12 13  1  1  0  0  0
 12 20  1  0  0  0  0
 14 15  1  1  0  0  0
 14 22  1  0  0  0  0
 16 17  1  1  0  0  0
 16 24  1  0  0  0  0
 18 19  1  6  0  0  0
 18 25  1  0  0  0  0
 20 21  1  6  0  0  0
 20 27  1  0  0  0  0
 22 23  1  6  0  0  0
 22 29  1  0  0  0  0
 24  2  1  1  0  0  0
 24 31  1  0  0  0  0
 25 26  1  0  0  0  0
 25 33  1  1  0  0  0
 27 28  1  1  0  0  0
 27 35  1  0  0  0  0
 29 30  1  0  0  0  0
 29 37  1  1  0  0  0
 31 32  1  6  0  0  0
 31 39  1  0  0  0  0
 33 34  1  0  0  0  0
 35 36  1  0  0  0  0
 35 41  1  1  0  0  0
 37 38  1  0  0  0  0
 39 40  1  6  0  0  0
 41 42  1  0  0  0  0
M  END
>  <CHROM.1>
-105.44909547,-56.55773356,-171.83712953,-100.83334016,-40.30562435,-64.91814633
-122.47785361,108.36852126,-66.32699374,13.05356821,11.64547116,-9.98617911
-2.73162293,0.96431061,-1.26584772

>  <Name>
2o3w_lig

>  <RI>
0

>  <Rbt.Current_Directory>
/home/itssahil/PROJECTS/Mol_Feturizer/New_Systems/rnas/2o3w

>  <Rbt.Executable>
rbdock ($Id: //depot/dev/client3/rdock/2013.1/src/exe/rbdock.cxx#4 $)

>  <Rbt.Library>
libRbt.so (2013.1, Build901 2013/11/27)

>  <Rbt.Parameter_File>
/export/apps/rDock/src/rDock_2013.1_src/data/scripts/dock_solv.prm

>  <Rbt.Receptor>
prm/blind_docking_80.prm

>  <SCORE>
-2.41756

>  <SCORE.INTER>
-14.923

>  <SCORE.INTER.CONST>
1

>  <SCORE.INTER.POLAR>
-2.45789

>  <SCORE.INTER.ROT>
9

>  <SCORE.INTER.SOLV>
39.0331

>  <SCORE.INTER.VDW>
-24.3667

>  <SCORE.INTER.norm>
-0.355309

>  <SCORE.INTRA>
5.40013

>  <SCORE.INTRA.DIHEDRAL>
-1.89445

>  <SCORE.INTRA.DIHEDRAL.0>
27.8999

>  <SCORE.INTRA.POLAR>
0

>  <SCORE.INTRA.POLAR.0>
0

>  <SCORE.INTRA.REPUL>
0

>  <SCORE.INTRA.REPUL.0>
0

>  <SCORE.INTRA.SOLV>
1.87017

>  <SCORE.INTRA.SOLV.lig_0>
-104.479

>  <SCORE.INTRA.VDW>
5.41227

>  <SCORE.INTRA.VDW.0>
-6.17816

>  <SCORE.INTRA.norm>
0.128574

>  <SCORE.RESTR>
7.10529

>  <SCORE.RESTR.CAVITY>
7.10529

>  <SCORE.RESTR.norm>
0.169174

>  <SCORE.SYSTEM>
0

>  <SCORE.SYSTEM.CONST>
0

>  <SCORE.SYSTEM.DIHEDRAL>
0

>  <SCORE.SYSTEM.SOLV>
0

>  <SCORE.SYSTEM.norm>
0

>  <SCORE.heavy>
42

>  <SCORE.norm>
-0.057561

>  <RMSD>
18.454

$$$$
2o3w_lig
 OpenBabel11021811463D
libRbt.so/2013.1/901 2013/11/27
 42 45  0  0  0  0  0  0  0  0999 V2000
   13.1159   11.9729  -13.1195 C   0  0  2  0  0  0  0  0  0  0  0  0
   12.9783   13.1085  -12.2484 O   0  0  0  0  0  0  0  0  0  0  0  0
   10.5014   16.6512  -12.5801 C   0  0  2  0  0  0  0  0  0  0  0  0
    9.3252   17.5688  -12.6510 N   0  0  0  0  0  0  0  0  0  0  0  0
   12.2292   14.0774   -8.7529 C   0  0  1  0  0  0  0  0  0  0  0  0
   13.9062   13.6579   -4.8488 C   0  0  1  0  0  0  0  0  0  0  0  0
   12.1758   10.8595  -12.5677 C   0  0  2  0  0  0  0  0  0  0  0  0
   10.8112   11.3510  -12.3090 N   0  0  0  0  0  0  0  0  0  0  0  0
   10.5262   15.6539  -13.8076 C   0  0  0  0  0  0  0  0  0  0  0  0
   11.2849   14.2313   -7.5218 C   0  0  2  0  0  0  0  0  0  0  0  0
   10.9696   15.6057   -7.1892 O   0  0  0  0  0  0  0  0  0  0  0  0
   14.7416   14.6213   -3.9308 C   0  0  2  0  0  0  0  0  0  0  0  0
   15.4635   15.6429   -4.7470 N   0  0  0  0  0  0  0  0  0  0  0  0
   12.6912   10.2617  -11.2456 C   0  0  1  0  0  0  0  0  0  0  0  0
   11.8217    9.2203  -10.7982 O   0  0  0  0  0  0  0  0  0  0  0  0
   11.7973   14.7304  -13.6890 C   0  0  2  0  0  0  0  0  0  0  0  0
   11.8604   13.7871  -14.8379 N   0  0  0  0  0  0  0  0  0  0  0  0
   12.0572   13.4524   -6.4559 C   0  0  2  0  0  0  0  0  0  0  0  0
   12.9781   14.3179   -5.7186 O   0  0  0  0  0  0  0  0  0  0  0  0
   15.7660   13.7580   -3.0521 C   0  0  1  0  0  0  0  0  0  0  0  0
   15.0280   13.0658   -2.0201 O   0  0  0  0  0  0  0  0  0  0  0  0
   14.1352    9.7462  -11.4412 C   0  0  2  0  0  0  0  0  0  0  0  0
   14.6159    9.1804  -10.2440 O   0  0  0  0  0  0  0  0  0  0  0  0
   11.7698   13.9161  -12.3355 C   0  0  2  0  0  0  0  0  0  0  0  0
   12.8143   12.3434   -7.2057 C   0  0  2  0  0  0  0  0  0  0  0  0
   13.0695   12.9330   -8.4784 O   0  0  0  0  0  0  0  0  0  0  0  0
   16.5922   12.6971   -3.9235 C   0  0  2  0  0  0  0  0  0  0  0  0
   17.4914   13.4295   -4.7550 O   0  0  0  0  0  0  0  0  0  0  0  0
   15.0451   10.9361  -11.8950 C   0  0  2  0  0  0  0  0  0  0  0  0
   14.5206   11.5120  -13.1331 O   0  0  0  0  0  0  0  0  0  0  0  0
   11.6882   14.8265  -11.0905 C   0  0  2  0  0  0  0  0  0  0  0  0
   11.4864   13.9229   -9.9692 O   0  0  0  0  0  0  0  0  0  0  0  0
   12.0352   11.0000   -7.3555 C   0  0  0  0  0  0  0  0  0  0  0  0
   12.7804   10.1141   -8.1854 O   0  0  0  0  0  0  0  0  0  0  0  0
   15.6206   11.8257   -4.8060 C   0  0  1  0  0  0  0  0  0  0  0  0
   14.8555   12.7757   -5.6321 O   0  0  0  0  0  0  0  0  0  0  0  0
   16.4805   10.5187  -12.1170 C   0  0  0  0  0  0  0  0  0  0  0  0
   17.0285   10.0133  -10.9239 O   0  0  0  0  0  0  0  0  0  0  0  0
   10.4712   15.8345  -11.2264 C   0  0  1  0  0  0  0  0  0  0  0  0
   10.4866   16.7747  -10.1487 O   0  0  0  0  0  0  0  0  0  0  0  0
   16.3614   10.7655   -5.7311 C   0  0  0  0  0  0  0  0  0  0  0  0
   17.0177    9.6367   -5.0158 N   0  0  0  0  0  0  0  0  0  0  0  0
  1  2  1  1  0  0  0
  1  7  1  0  0  0  0
  1 30  1  0  0  0  0
  3  4  1  6  0  0  0
  3  9  1  0  0  0  0
  3 39  1  0  0  0  0
  5 10  1  0  0  0  0
  5 26  1  0  0  0  0
  5 32  1  6  0  0  0
  6 12  1  0  0  0  0
  6 36  1  0  0  0  0
  6 19  1  6  0  0  0
  7  8  1  1  0  0  0
  7 14  1  0  0  0  0
  9 16  1  0  0  0  0
 10 11  1  1  0  0  0
 10 18  1  0  0  0  0
 12 13  1  6  0  0  0
 12 20  1  0  0  0  0
 14 15  1  6  0  0  0
 14 22  1  0  0  0  0
 16 17  1  6  0  0  0
 16 24  1  0  0  0  0
 18 19  1  6  0  0  0
 18 25  1  0  0  0  0
 20 21  1  1  0  0  0
 20 27  1  0  0  0  0
 22 23  1  1  0  0  0
 22 29  1  0  0  0  0
 24  2  1  1  0  0  0
 24 31  1  0  0  0  0
 25 26  1  0  0  0  0
 25 33  1  6  0  0  0
 27 28  1  6  0  0  0
 27 35  1  0  0  0  0
 29 30  1  0  0  0  0
 29 37  1  6  0  0  0
 31 32  1  1  0  0  0
 31 39  1  0  0  0  0
 33 34  1  0  0  0  0
 35 36  1  0  0  0  0
 35 41  1  6  0  0  0
 37 38  1  0  0  0  0
 39 40  1  1  0  0  0
 41 42  1  0  0  0  0
M  END
>  <CHROM.1>
-74.51842426,123.71675963,-172.03383352,-170.18870986,-71.08128417,173.78973826
-60.61712765,135.00136917,68.84849436,13.31542168,12.88736045,-9.01705336
-2.28158877,-0.89407470,1.09028266

>  <Name>
2o3w_lig

>  <RI>
0

>  <Rbt.Current_Directory>
/home/itssahil/PROJECTS/Mol_Feturizer/New_Systems/rnas/2o3w

>  <Rbt.Executable>
rbdock ($Id: //depot/dev/client3/rdock/2013.1/src/exe/rbdock.cxx#4 $)

>  <Rbt.Library>
libRbt.so (2013.1, Build901 2013/11/27)

>  <Rbt.Parameter_File>
/export/apps/rDock/src/rDock_2013.1_src/data/scripts/dock_solv.prm

>  <Rbt.Receptor>
prm/blind_docking_100.prm

>  <SCORE>
1.85467

>  <SCORE.INTER>
-7.37053

>  <SCORE.INTER.CONST>
1

>  <SCORE.INTER.POLAR>
-0.518943

>  <SCORE.INTER.ROT>
9

>  <SCORE.INTER.SOLV>
28.7195

>  <SCORE.INTER.VDW>
-22.3571

>  <SCORE.INTER.norm>
-0.175489

>  <SCORE.INTRA>
-2.90516

>  <SCORE.INTRA.DIHEDRAL>
-11.7155

>  <SCORE.INTRA.DIHEDRAL.0>
27.8999

>  <SCORE.INTRA.POLAR>
0

>  <SCORE.INTRA.POLAR.0>
0

>  <SCORE.INTRA.REPUL>
0.0598812

>  <SCORE.INTRA.REPUL.0>
0

>  <SCORE.INTRA.SOLV>
-0.0346653

>  <SCORE.INTRA.SOLV.lig_0>
-104.479

>  <SCORE.INTRA.VDW>
2.67054

>  <SCORE.INTRA.VDW.0>
-6.17816

>  <SCORE.INTRA.norm>
-0.0691704

>  <SCORE.RESTR>
12.1304

>  <SCORE.RESTR.CAVITY>
12.1304

>  <SCORE.RESTR.norm>
0.288818

>  <SCORE.SYSTEM>
0

>  <SCORE.SYSTEM.CONST>
0

>  <SCORE.SYSTEM.DIHEDRAL>
0

>  <SCORE.SYSTEM.SOLV>
0

>  <SCORE.SYSTEM.norm>
0

>  <SCORE.heavy>
42

>  <SCORE.norm>
0.0441588

>  <RMSD>
18.525

$$$$
2o3w_lig
 OpenBabel11021811463D
libRbt.so/2013.1/901 2013/11/27
 42 45  0  0  0  0  0  0  0  0999 V2000
   12.7857    9.5366   -8.9799 C   0  0  2  0  0  0  0  0  0  0  0  0
   13.7481   10.2445   -9.7798 O   0  0  0  0  0  0  0  0  0  0  0  0
   15.8869    9.7120  -13.5132 C   0  0  2  0  0  0  0  0  0  0  0  0
   16.2589    9.2936  -14.8978 N   0  0  0  0  0  0  0  0  0  0  0  0
   12.3834   12.7794  -12.5832 C   0  0  1  0  0  0  0  0  0  0  0  0
   10.2603   16.6811  -13.1970 C   0  0  1  0  0  0  0  0  0  0  0  0
   11.3756    9.9107   -9.5274 C   0  0  2  0  0  0  0  0  0  0  0  0
   11.2804    9.7597  -10.9899 N   0  0  0  0  0  0  0  0  0  0  0  0
   15.7699    8.4640  -12.5485 C   0  0  0  0  0  0  0  0  0  0  0  0
   10.8469   12.9957  -12.7357 C   0  0  2  0  0  0  0  0  0  0  0  0
   10.3400   12.7073  -14.0619 O   0  0  0  0  0  0  0  0  0  0  0  0
   11.2681   17.7742  -12.6887 C   0  0  2  0  0  0  0  0  0  0  0  0
   11.9410   17.3350  -11.4296 N   0  0  0  0  0  0  0  0  0  0  0  0
   10.9908   11.3662   -9.2047 C   0  0  1  0  0  0  0  0  0  0  0  0
    9.6778   11.6527   -9.6893 O   0  0  0  0  0  0  0  0  0  0  0  0
   15.3986    8.9695  -11.1030 C   0  0  2  0  0  0  0  0  0  0  0  0
   15.2944    7.8202  -10.1639 N   0  0  0  0  0  0  0  0  0  0  0  0
   10.7039   14.4465  -12.2731 C   0  0  2  0  0  0  0  0  0  0  0  0
   10.8352   15.3827  -13.3899 O   0  0  0  0  0  0  0  0  0  0  0  0
   10.4852   19.1550  -12.4714 C   0  0  1  0  0  0  0  0  0  0  0  0
   10.1815   19.7282  -13.7630 O   0  0  0  0  0  0  0  0  0  0  0  0
   11.0934   11.6008   -7.6803 C   0  0  2  0  0  0  0  0  0  0  0  0
   10.7279   12.9245   -7.3664 O   0  0  0  0  0  0  0  0  0  0  0  0
   14.0324    9.7625  -11.1241 C   0  0  2  0  0  0  0  0  0  0  0  0
   11.8086   14.6692  -11.2265 C   0  0  2  0  0  0  0  0  0  0  0  0
   12.8465   13.7954  -11.6642 O   0  0  0  0  0  0  0  0  0  0  0  0
    9.1317   18.9773  -11.6323 C   0  0  2  0  0  0  0  0  0  0  0  0
    9.4956   18.6525  -10.2912 O   0  0  0  0  0  0  0  0  0  0  0  0
   12.5588   11.3067   -7.2160 C   0  0  2  0  0  0  0  0  0  0  0  0
   12.9175    9.9312   -7.5612 O   0  0  0  0  0  0  0  0  0  0  0  0
   14.0537   10.9666  -12.0911 C   0  0  2  0  0  0  0  0  0  0  0  0
   12.6848   11.4559  -12.1220 O   0  0  0  0  0  0  0  0  0  0  0  0
   11.3942   14.3558   -9.7553 C   0  0  0  0  0  0  0  0  0  0  0  0
   12.5548   14.0196   -9.0012 O   0  0  0  0  0  0  0  0  0  0  0  0
    8.2421   17.8322  -12.2484 C   0  0  1  0  0  0  0  0  0  0  0  0
    9.0794   16.6201  -12.2510 O   0  0  0  0  0  0  0  0  0  0  0  0
   12.7489   11.5055   -5.7300 C   0  0  0  0  0  0  0  0  0  0  0  0
   12.5946   12.8641   -5.3990 O   0  0  0  0  0  0  0  0  0  0  0  0
   14.5177   10.5028  -13.5351 C   0  0  1  0  0  0  0  0  0  0  0  0
   14.6831   11.6385  -14.3887 O   0  0  0  0  0  0  0  0  0  0  0  0
    6.8902   17.5646  -11.4550 C   0  0  0  0  0  0  0  0  0  0  0  0
    6.1518   16.3311  -11.8421 N   0  0  0  0  0  0  0  0  0  0  0  0
  1  2  1  6  0  0  0
  1  7  1  0  0  0  0
  1 30  1  0  0  0  0
  3  4  1  6  0  0  0
  3  9  1  0  0  0  0
  3 39  1  0  0  0  0
  5 10  1  0  0  0  0
  5 26  1  0  0  0  0
  5 32  1  1  0  0  0
  6 12  1  0  0  0  0
  6 36  1  0  0  0  0
  6 19  1  1  0  0  0
  7  8  1  6  0  0  0
  7 14  1  0  0  0  0
  9 16  1  0  0  0  0
 10 11  1  6  0  0  0
 10 18  1  0  0  0  0
 12 13  1  1  0  0  0
 12 20  1  0  0  0  0
 14 15  1  1  0  0  0
 14 22  1  0  0  0  0
 16 17  1  1  0  0  0
 16 24  1  0  0  0  0
 18 19  1  6  0  0  0
 18 25  1  0  0  0  0
 20 21  1  6  0  0  0
 20 27  1  0  0  0  0
 22 23  1  6  0  0  0
 22 29  1  0  0  0  0
 24  2  1  1  0  0  0
 24 31  1  0  0  0  0
 25 26  1  0  0  0  0
 25 33  1  1  0  0  0
 27 28  1  1  0  0  0
 27 35  1  0  0  0  0
 29 30  1  0  0  0  0
 29 37  1  1  0  0  0
 31 32  1  6  0  0  0
 31 39  1  0  0  0  0
 33 34  1  0  0  0  0
 35 36  1  0  0  0  0
 35 41  1  1  0  0  0
 37 38  1  0  0  0  0
 39 40  1  6  0  0  0
 41 42  1  0  0  0  0
M  END
>  <CHROM.1>
-75.58008035,171.04674888,95.06654846,158.30954372,-101.75010370,154.44560178
-66.39230676,161.23495281,-168.77676935,11.83893694,13.19275940,-11.03926317
0.55135787,-0.93376927,2.04414785

>  <Name>
2o3w_lig

>  <RI>
0

>  <Rbt.Current_Directory>
/home/itssahil/PROJECTS/Mol_Feturizer/New_Systems/rnas/2o3w

>  <Rbt.Executable>
rbdock ($Id: //depot/dev/client3/rdock/2013.1/src/exe/rbdock.cxx#4 $)

>  <Rbt.Library>
libRbt.so (2013.1, Build901 2013/11/27)

>  <Rbt.Parameter_File>
/export/apps/rDock/src/rDock_2013.1_src/data/scripts/dock_solv.prm

>  <Rbt.Receptor>
prm/blind_docking_40.prm

>  <SCORE>
23.2228

>  <SCORE.INTER>
5.40525

>  <SCORE.INTER.CONST>
1

>  <SCORE.INTER.POLAR>
-0.335577

>  <SCORE.INTER.ROT>
9

>  <SCORE.INTER.SOLV>
24.7247

>  <SCORE.INTER.VDW>
-13.1195

>  <SCORE.INTER.norm>
0.128696

>  <SCORE.INTRA>
-1.48937

>  <SCORE.INTRA.DIHEDRAL>
-9.84127

>  <SCORE.INTRA.DIHEDRAL.0>
27.8999

>  <SCORE.INTRA.POLAR>
0

>  <SCORE.INTRA.POLAR.0>
0

>  <SCORE.INTRA.REPUL>
0

>  <SCORE.INTRA.REPUL.0>
0

>  <SCORE.INTRA.SOLV>
3.47312

>  <SCORE.INTRA.SOLV.lig_0>
-104.479

>  <SCORE.INTRA.VDW>
1.6947

>  <SCORE.INTRA.VDW.0>
-6.17816

>  <SCORE.INTRA.norm>
-0.0354612

>  <SCORE.RESTR>
19.3069

>  <SCORE.RESTR.CAVITY>
19.3069

>  <SCORE.RESTR.norm>
0.459688

>  <SCORE.SYSTEM>
0

>  <SCORE.SYSTEM.CONST>
0

>  <SCORE.SYSTEM.DIHEDRAL>
0

>  <SCORE.SYSTEM.SOLV>
0

>  <SCORE.SYSTEM.norm>
0

>  <SCORE.heavy>
42

>  <SCORE.norm>
0.552923

>  <RMSD>
18.537

$$$$
2o3w_lig
 OpenBabel11021811463D
libRbt.so/2013.1/901 2013/11/27
 42 45  0  0  0  0  0  0  0  0999 V2000
   12.2040   11.3710   -7.8589 C   0  0  2  0  0  0  0  0  0  0  0  0
   13.0699   11.6813   -8.9640 O   0  0  0  0  0  0  0  0  0  0  0  0
   13.8495    8.8494  -12.1528 C   0  0  2  0  0  0  0  0  0  0  0  0
   13.7643    8.0773  -13.4284 N   0  0  0  0  0  0  0  0  0  0  0  0
   12.7359   13.2270  -11.9879 C   0  0  1  0  0  0  0  0  0  0  0  0
    9.7442   16.1793  -11.9648 C   0  0  1  0  0  0  0  0  0  0  0  0
   11.4679   12.6893   -7.4735 C   0  0  2  0  0  0  0  0  0  0  0  0
   10.8631   13.3586   -8.6383 N   0  0  0  0  0  0  0  0  0  0  0  0
   12.5755    8.6051  -11.2478 C   0  0  0  0  0  0  0  0  0  0  0  0
   12.5226   14.7040  -11.5365 C   0  0  2  0  0  0  0  0  0  0  0  0
   11.7532   14.8422  -10.3167 O   0  0  0  0  0  0  0  0  0  0  0  0
    8.4246   15.6590  -11.2890 C   0  0  2  0  0  0  0  0  0  0  0  0
    7.4881   15.0988  -12.3087 N   0  0  0  0  0  0  0  0  0  0  0  0
   12.4096   13.7124   -6.8121 C   0  0  1  0  0  0  0  0  0  0  0  0
   11.6860   14.8867   -6.4404 O   0  0  0  0  0  0  0  0  0  0  0  0
   12.7337    9.4253   -9.9119 C   0  0  2  0  0  0  0  0  0  0  0  0
   11.5569    9.2069   -9.0282 N   0  0  0  0  0  0  0  0  0  0  0  0
   11.8902   15.3095  -12.7906 C   0  0  2  0  0  0  0  0  0  0  0  0
   10.4310   15.2057  -12.7610 O   0  0  0  0  0  0  0  0  0  0  0  0
    7.7396   16.8570  -10.4751 C   0  0  1  0  0  0  0  0  0  0  0  0
    8.5087   17.1080   -9.2774 O   0  0  0  0  0  0  0  0  0  0  0  0
   13.0991   13.0639   -5.5902 C   0  0  2  0  0  0  0  0  0  0  0  0
   13.9523   13.9932   -4.9633 O   0  0  0  0  0  0  0  0  0  0  0  0
   12.8866   10.9673  -10.2198 C   0  0  2  0  0  0  0  0  0  0  0  0
   12.4800   14.5337  -13.9803 C   0  0  2  0  0  0  0  0  0  0  0  0
   12.7156   13.2382  -13.4338 O   0  0  0  0  0  0  0  0  0  0  0  0
    7.6264   18.2063  -11.3319 C   0  0  2  0  0  0  0  0  0  0  0  0
    6.6619   17.9844  -12.3599 O   0  0  0  0  0  0  0  0  0  0  0  0
   13.9030   11.8076   -6.0647 C   0  0  2  0  0  0  0  0  0  0  0  0
   12.9981   10.8633   -6.7199 O   0  0  0  0  0  0  0  0  0  0  0  0
   14.0815   11.2771  -11.1480 C   0  0  2  0  0  0  0  0  0  0  0  0
   13.9596   12.6901  -11.4689 O   0  0  0  0  0  0  0  0  0  0  0  0
   13.7893   15.1380  -14.5761 C   0  0  0  0  0  0  0  0  0  0  0  0
   13.6984   16.5594  -14.5659 O   0  0  0  0  0  0  0  0  0  0  0  0
    9.0200   18.5821  -11.9636 C   0  0  1  0  0  0  0  0  0  0  0  0
    9.4290   17.4208  -12.7725 O   0  0  0  0  0  0  0  0  0  0  0  0
   14.6074   11.1044   -4.9276 C   0  0  0  0  0  0  0  0  0  0  0  0
   15.2026    9.9154   -5.3872 O   0  0  0  0  0  0  0  0  0  0  0  0
   13.9993   10.3929  -12.4622 C   0  0  1  0  0  0  0  0  0  0  0  0
   15.1807   10.5678  -13.2492 O   0  0  0  0  0  0  0  0  0  0  0  0
    8.9915   19.8944  -12.8611 C   0  0  0  0  0  0  0  0  0  0  0  0
    8.0305   19.8742  -13.9981 N   0  0  0  0  0  0  0  0  0  0  0  0
  1  2  1  6  0  0  0
  1  7  1  0  0  0  0
  1 30  1  0  0  0  0
  3  4  1  6  0  0  0
  3  9  1  0  0  0  0
  3 39  1  0  0  0  0
  5 10  1  0  0  0  0
  5 26  1  0  0  0  0
  5 32  1  6  0  0  0
  6 12  1  0  0  0  0
  6 36  1  0  0  0  0
  6 19  1  6  0  0  0
  7  8  1  6  0  0  0
  7 14  1  0  0  0  0
  9 16  1  0  0  0  0
 10 11  1  1  0  0  0
 10 18  1  0  0  0  0
 12 13  1  6  0  0  0
 12 20  1  0  0  0  0
 14 15  1  1  0  0  0
 14 22  1  0  0  0  0
 16 17  1  1  0  0  0
 16 24  1  0  0  0  0
 18 19  1  1  0  0  0
 18 25  1  0  0  0  0
 20 21  1  1  0  0  0
 20 27  1  0  0  0  0
 22 23  1  6  0  0  0
 22 29  1  0  0  0  0
 24  2  1  1  0  0  0
 24 31  1  0  0  0  0
 25 26  1  0  0  0  0
 25 33  1  1  0  0  0
 27 28  1  6  0  0  0
 27 35  1  0  0  0  0
 29 30  1  0  0  0  0
 29 37  1  1  0  0  0
 31 32  1  6  0  0  0
 31 39  1  0  0  0  0
 33 34  1  0  0  0  0
 35 36  1  0  0  0  0
 35 41  1  6  0  0  0
 37 38  1  0  0  0  0
 39 40  1  1  0  0  0
 41 42  1  0  0  0  0
M  END
>  <CHROM.1>
-120.70755009,148.41197665,-147.22441582,79.60514634,-46.22915641,-38.17677768
174.26047073,-52.52242246,-57.42360967,11.77207167,13.69315302,-10.48290721
0.50708157,-0.95817609,1.63293516

>  <Name>
2o3w_lig

>  <RI>
0

>  <Rbt.Current_Directory>
/home/itssahil/PROJECTS/Mol_Feturizer/New_Systems/rnas/2o3w

>  <Rbt.Executable>
rbdock ($Id: //depot/dev/client3/rdock/2013.1/src/exe/rbdock.cxx#4 $)

>  <Rbt.Library>
libRbt.so (2013.1, Build901 2013/11/27)

>  <Rbt.Parameter_File>
/export/apps/rDock/src/rDock_2013.1_src/data/scripts/dock_solv.prm

>  <Rbt.Receptor>
prm/blind_docking_40.prm

>  <SCORE>
-1.0976

>  <SCORE.INTER>
-18.5855

>  <SCORE.INTER.CONST>
1

>  <SCORE.INTER.POLAR>
-2.34848

>  <SCORE.INTER.ROT>
9

>  <SCORE.INTER.SOLV>
23.9331

>  <SCORE.INTER.VDW>
-22.1398

>  <SCORE.INTER.norm>
-0.442512

>  <SCORE.INTRA>
2.68013

>  <SCORE.INTRA.DIHEDRAL>
-8.06575

>  <SCORE.INTRA.DIHEDRAL.0>
27.8999

>  <SCORE.INTRA.POLAR>
0

>  <SCORE.INTRA.POLAR.0>
0

>  <SCORE.INTRA.REPUL>
0.231332

>  <SCORE.INTRA.REPUL.0>
0

>  <SCORE.INTRA.SOLV>
0.631148

>  <SCORE.INTRA.SOLV.lig_0>
-104.479

>  <SCORE.INTRA.VDW>
5.24077

>  <SCORE.INTRA.VDW.0>
-6.17816

>  <SCORE.INTRA.norm>
0.0638126

>  <SCORE.RESTR>
14.8078

>  <SCORE.RESTR.CAVITY>
14.8078

>  <SCORE.RESTR.norm>
0.352566

>  <SCORE.SYSTEM>
0

>  <SCORE.SYSTEM.CONST>
0

>  <SCORE.SYSTEM.DIHEDRAL>
0

>  <SCORE.SYSTEM.SOLV>
0

>  <SCORE.SYSTEM.norm>
0

>  <SCORE.heavy>
42

>  <SCORE.norm>
-0.0261333

>  <RMSD>
18.540

$$$$
2o3w_lig
 OpenBabel11021811463D
libRbt.so/2013.1/901 2013/11/27
 42 45  0  0  0  0  0  0  0  0999 V2000
   12.8132   11.9503  -11.0683 C   0  0  2  0  0  0  0  0  0  0  0  0
   12.7484   12.6512  -12.3220 O   0  0  0  0  0  0  0  0  0  0  0  0
   11.1161   16.5167  -13.4128 C   0  0  2  0  0  0  0  0  0  0  0  0
   10.1911   17.6745  -13.5982 N   0  0  0  0  0  0  0  0  0  0  0  0
   11.1157   15.0566   -9.3384 C   0  0  1  0  0  0  0  0  0  0  0  0
    7.3379   15.9325   -8.4634 C   0  0  1  0  0  0  0  0  0  0  0  0
   14.2130   11.2690  -10.9997 C   0  0  2  0  0  0  0  0  0  0  0  0
   15.3101   12.2024  -11.3093 N   0  0  0  0  0  0  0  0  0  0  0  0
   10.6270   15.2546  -14.2313 C   0  0  0  0  0  0  0  0  0  0  0  0
    9.6998   14.4206   -9.4857 C   0  0  2  0  0  0  0  0  0  0  0  0
    8.8390   15.1098  -10.4253 O   0  0  0  0  0  0  0  0  0  0  0  0
    7.3951   17.2764   -9.2754 C   0  0  2  0  0  0  0  0  0  0  0  0
    7.6922   18.4310   -8.3756 N   0  0  0  0  0  0  0  0  0  0  0  0
   14.3391   10.0923  -11.9848 C   0  0  1  0  0  0  0  0  0  0  0  0
   15.6209    9.4741  -11.8598 O   0  0  0  0  0  0  0  0  0  0  0  0
   11.6516   14.0774  -14.0143 C   0  0  2  0  0  0  0  0  0  0  0  0
   11.2294   12.8757  -14.7833 N   0  0  0  0  0  0  0  0  0  0  0  0
    9.2239   14.4155   -8.0322 C   0  0  2  0  0  0  0  0  0  0  0  0
    8.5135   15.6492   -7.6944 O   0  0  0  0  0  0  0  0  0  0  0  0
    6.0058   17.4888  -10.0446 C   0  0  1  0  0  0  0  0  0  0  0  0
    5.9427   16.5690  -11.1576 O   0  0  0  0  0  0  0  0  0  0  0  0
   13.1978    9.0816  -11.7294 C   0  0  2  0  0  0  0  0  0  0  0  0
   13.3088    7.9896  -12.6124 O   0  0  0  0  0  0  0  0  0  0  0  0
   11.7647   13.7129  -12.4813 C   0  0  2  0  0  0  0  0  0  0  0  0
   10.4877   14.2468   -7.1722 C   0  0  2  0  0  0  0  0  0  0  0  0
   11.4953   14.8845   -7.9537 O   0  0  0  0  0  0  0  0  0  0  0  0
    4.7312   17.2728   -9.0978 C   0  0  2  0  0  0  0  0  0  0  0  0
    4.6985   18.3532   -8.1661 O   0  0  0  0  0  0  0  0  0  0  0  0
   11.8231    9.8061  -11.9159 C   0  0  2  0  0  0  0  0  0  0  0  0
   11.7360   10.9403  -10.9962 O   0  0  0  0  0  0  0  0  0  0  0  0
   12.1848   14.9163  -11.6090 C   0  0  2  0  0  0  0  0  0  0  0  0
   12.0581   14.4553  -10.2357 O   0  0  0  0  0  0  0  0  0  0  0  0
   10.8751   12.7693   -6.8543 C   0  0  0  0  0  0  0  0  0  0  0  0
    9.7783   12.1222   -6.2164 O   0  0  0  0  0  0  0  0  0  0  0  0
    4.8319   15.8979   -8.3352 C   0  0  1  0  0  0  0  0  0  0  0  0
    6.1016   15.9359   -7.5890 O   0  0  0  0  0  0  0  0  0  0  0  0
   10.6456    8.8893  -11.6778 C   0  0  0  0  0  0  0  0  0  0  0  0
    9.4463    9.5422  -12.0166 O   0  0  0  0  0  0  0  0  0  0  0  0
   11.2260   16.1507  -11.8784 C   0  0  1  0  0  0  0  0  0  0  0  0
   11.7049   17.3075  -11.1869 O   0  0  0  0  0  0  0  0  0  0  0  0
    3.6204   15.6166   -7.3445 C   0  0  0  0  0  0  0  0  0  0  0  0
    3.4716   16.5825   -6.2213 N   0  0  0  0  0  0  0  0  0  0  0  0
  1  2  1  6  0  0  0
  1  7  1  0  0  0  0
  1 30  1  0  0  0  0
  3  4  1  1  0  0  0
  3  9  1  0  0  0  0
  3 39  1  0  0  0  0
  5 10  1  0  0  0  0
  5 26  1  0  0  0  0
  5 32  1  6  0  0  0
  6 12  1  0  0  0  0
  6 36  1  0  0  0  0
  6 19  1  1  0  0  0
  7  8  1  6  0  0  0
  7 14  1  0  0  0  0
  9 16  1  0  0  0  0
 10 11  1  6  0  0  0
 10 18  1  0  0  0  0
 12 13  1  1  0  0  0
 12 20  1  0  0  0  0
 14 15  1  1  0  0  0
 14 22  1  0  0  0  0
 16 17  1  6  0  0  0
 16 24  1  0  0  0  0
 18 19  1  1  0  0  0
 18 25  1  0  0  0  0
 20 21  1  6  0  0  0
 20 27  1  0  0  0  0
 22 23  1  6  0  0  0
 22 29  1  0  0  0  0
 24  2  1  6  0  0  0
 24 31  1  0  0  0  0
 25 26  1  0  0  0  0
 25 33  1  6  0  0  0
 27 28  1  1  0  0  0
 27 35  1  0  0  0  0
 29 30  1  0  0  0  0
 29 37  1  1  0  0  0
 31 32  1  1  0  0  0
 31 39  1  0  0  0  0
 33 34  1  0  0  0  0
 35 36  1  0  0  0  0
 35 41  1  1  0  0  0
 37 38  1  0  0  0  0
 39 40  1  1  0  0  0
 41 42  1  0  0  0  0
M  END
>  <CHROM.1>
-160.42416333,84.97440625,-119.40280187,59.98599465,-166.43217437,-56.53744553
-172.80665610,-116.28289175,-62.29078281,10.01703992,14.04430334,-10.33989184
0.24946273,-0.73751480,2.48192714

>  <Name>
2o3w_lig

>  <RI>
0

>  <Rbt.Current_Directory>
/home/itssahil/PROJECTS/Mol_Feturizer/New_Systems/rnas/2o3w

>  <Rbt.Executable>
rbdock ($Id: //depot/dev/client3/rdock/2013.1/src/exe/rbdock.cxx#4 $)

>  <Rbt.Library>
libRbt.so (2013.1, Build901 2013/11/27)

>  <Rbt.Parameter_File>
/export/apps/rDock/src/rDock_2013.1_src/data/scripts/dock_solv.prm

>  <Rbt.Receptor>
prm/blind_docking_100.prm

>  <SCORE>
6.36011

>  <SCORE.INTER>
-5.29759

>  <SCORE.INTER.CONST>
1

>  <SCORE.INTER.POLAR>
-0.534298

>  <SCORE.INTER.ROT>
9

>  <SCORE.INTER.SOLV>
28.4013

>  <SCORE.INTER.VDW>
-20.8178

>  <SCORE.INTER.norm>
-0.126133

>  <SCORE.INTRA>
-1.3988

>  <SCORE.INTRA.DIHEDRAL>
-8.03706

>  <SCORE.INTRA.DIHEDRAL.0>
27.8999

>  <SCORE.INTRA.POLAR>
0

>  <SCORE.INTRA.POLAR.0>
0

>  <SCORE.INTRA.REPUL>
0

>  <SCORE.INTRA.REPUL.0>
0

>  <SCORE.INTRA.SOLV>
-3.19072

>  <SCORE.INTRA.SOLV.lig_0>
-104.479

>  <SCORE.INTRA.VDW>
4.21509

>  <SCORE.INTRA.VDW.0>
-6.17816

>  <SCORE.INTRA.norm>
-0.0333047

>  <SCORE.RESTR>
13.0565

>  <SCORE.RESTR.CAVITY>
13.0565

>  <SCORE.RESTR.norm>
0.310869

>  <SCORE.SYSTEM>
0

>  <SCORE.SYSTEM.CONST>
0

>  <SCORE.SYSTEM.DIHEDRAL>
0

>  <SCORE.SYSTEM.SOLV>
0

>  <SCORE.SYSTEM.norm>
0

>  <SCORE.heavy>
42

>  <SCORE.norm>
0.151431

>  <RMSD>
18.556

$$$$
2o3w_lig
 OpenBabel11021811463D
libRbt.so/2013.1/901 2013/11/27
 42 45  0  0  0  0  0  0  0  0999 V2000
   12.7018   11.3500   -7.2359 C   0  0  2  0  0  0  0  0  0  0  0  0
   13.2737   11.4161   -8.5534 O   0  0  0  0  0  0  0  0  0  0  0  0
   12.1329    8.9031  -11.8970 C   0  0  2  0  0  0  0  0  0  0  0  0
   11.4166    8.3413  -13.0809 N   0  0  0  0  0  0  0  0  0  0  0  0
   12.4267   13.3972  -10.9397 C   0  0  1  0  0  0  0  0  0  0  0  0
   10.7762   16.8618  -11.6596 C   0  0  1  0  0  0  0  0  0  0  0  0
   11.8577   12.6453   -7.0407 C   0  0  2  0  0  0  0  0  0  0  0  0
   10.9380   12.8935   -8.1646 N   0  0  0  0  0  0  0  0  0  0  0  0
   11.2227    8.8643  -10.6039 C   0  0  0  0  0  0  0  0  0  0  0  0
   12.1982   14.3431  -12.1578 C   0  0  2  0  0  0  0  0  0  0  0  0
   12.9211   15.5960  -12.0748 O   0  0  0  0  0  0  0  0  0  0  0  0
   10.1062   18.0711  -10.9129 C   0  0  2  0  0  0  0  0  0  0  0  0
    8.6330   18.0989  -11.1573 N   0  0  0  0  0  0  0  0  0  0  0  0
   12.7380   13.9008   -6.9007 C   0  0  1  0  0  0  0  0  0  0  0  0
   11.9259   15.0560   -6.6843 O   0  0  0  0  0  0  0  0  0  0  0  0
   12.0383    9.4470   -9.3882 C   0  0  2  0  0  0  0  0  0  0  0  0
   11.2156    9.4121   -8.1490 N   0  0  0  0  0  0  0  0  0  0  0  0
   10.6730   14.4577  -12.1629 C   0  0  2  0  0  0  0  0  0  0  0  0
   10.2151   15.5812  -11.3451 O   0  0  0  0  0  0  0  0  0  0  0  0
   10.7950   19.4358  -11.3926 C   0  0  1  0  0  0  0  0  0  0  0  0
   12.1127   19.5256  -10.8057 O   0  0  0  0  0  0  0  0  0  0  0  0
   13.7476   13.6968   -5.7482 C   0  0  2  0  0  0  0  0  0  0  0  0
   14.5502   14.8444   -5.5960 O   0  0  0  0  0  0  0  0  0  0  0  0
   12.4915   10.9316   -9.6820 C   0  0  2  0  0  0  0  0  0  0  0  0
   10.1450   13.1200  -11.6177 C   0  0  2  0  0  0  0  0  0  0  0  0
   11.1727   12.7120  -10.7178 O   0  0  0  0  0  0  0  0  0  0  0  0
   10.9096   19.5478  -12.9870 C   0  0  2  0  0  0  0  0  0  0  0  0
    9.5892   19.7088  -13.5037 O   0  0  0  0  0  0  0  0  0  0  0  0
   14.6300   12.4420   -6.0586 C   0  0  2  0  0  0  0  0  0  0  0  0
   13.7742   11.2669   -6.2216 O   0  0  0  0  0  0  0  0  0  0  0  0
   13.3402   11.0556  -10.9663 C   0  0  2  0  0  0  0  0  0  0  0  0
   13.5063   12.4847  -11.1779 O   0  0  0  0  0  0  0  0  0  0  0  0
    9.8797   12.0273  -12.6992 C   0  0  0  0  0  0  0  0  0  0  0  0
    9.0286   12.5614  -13.7088 O   0  0  0  0  0  0  0  0  0  0  0  0
   11.5765   18.2534  -13.5885 C   0  0  1  0  0  0  0  0  0  0  0  0
   10.7411   17.1216  -13.1510 O   0  0  0  0  0  0  0  0  0  0  0  0
   15.6460   12.1631   -4.9752 C   0  0  0  0  0  0  0  0  0  0  0  0
   16.4099   11.0293   -5.3071 O   0  0  0  0  0  0  0  0  0  0  0  0
   12.5832   10.3902  -12.1910 C   0  0  1  0  0  0  0  0  0  0  0  0
   13.4307   10.3700  -13.3429 O   0  0  0  0  0  0  0  0  0  0  0  0
   11.6993   18.2652  -15.1739 C   0  0  0  0  0  0  0  0  0  0  0  0
   12.2723   17.0334  -15.7829 N   0  0  0  0  0  0  0  0  0  0  0  0
  1  2  1  6  0  0  0
  1  7  1  0  0  0  0
  1 30  1  0  0  0  0
  3  4  1  6  0  0  0
  3  9  1  0  0  0  0
  3 39  1  0  0  0  0
  5 10  1  0  0  0  0
  5 26  1  0  0  0  0
  5 32  1  6  0  0  0
  6 12  1  0  0  0  0
  6 36  1  0  0  0  0
  6 19  1  6  0  0  0
  7  8  1  6  0  0  0
  7 14  1  0  0  0  0
  9 16  1  0  0  0  0
 10 11  1  1  0  0  0
 10 18  1  0  0  0  0
 12 13  1  6  0  0  0
 12 20  1  0  0  0  0
 14 15  1  1  0  0  0
 14 22  1  0  0  0  0
 16 17  1  1  0  0  0
 16 24  1  0  0  0  0
 18 19  1  1  0  0  0
 18 25  1  0  0  0  0
 20 21  1  1  0  0  0
 20 27  1  0  0  0  0
 22 23  1  6  0  0  0
 22 29  1  0  0  0  0
 24  2  1  1  0  0  0
 24 31  1  0  0  0  0
 25 26  1  0  0  0  0
 25 33  1  6  0  0  0
 27 28  1  6  0  0  0
 27 35  1  0  0  0  0
 29 30  1  0  0  0  0
 29 37  1  1  0  0  0
 31 32  1  6  0  0  0
 31 39  1  0  0  0  0
 33 34  1  0  0  0  0
 35 36  1  0  0  0  0
 35 41  1  6  0  0  0
 37 38  1  0  0  0  0
 39 40  1  6  0  0  0
 41 42  1  0  0  0  0
M  END
>  <CHROM.1>
-86.04267509,-129.22572946,171.21518756,54.47859831,-54.39835692,-53.28521302
-179.90992456,-39.68228523,-177.51674702,12.00267327,13.79715702,-10.38684151
-0.66398515,-1.18407325,0.21408388

>  <Name>
2o3w_lig

>  <RI>
0

>  <Rbt.Current_Directory>
/home/itssahil/PROJECTS/Mol_Feturizer/New_Systems/rnas/2o3w

>  <Rbt.Executable>
rbdock ($Id: //depot/dev/client3/rdock/2013.1/src/exe/rbdock.cxx#4 $)

>  <Rbt.Library>
libRbt.so (2013.1, Build901 2013/11/27)

>  <Rbt.Parameter_File>
/export/apps/rDock/src/rDock_2013.1_src/data/scripts/dock_solv.prm

>  <Rbt.Receptor>
prm/blind_docking_60.prm

>  <SCORE>
7.22183

>  <SCORE.INTER>
-11.3775

>  <SCORE.INTER.CONST>
1

>  <SCORE.INTER.POLAR>
-0.950714

>  <SCORE.INTER.ROT>
9

>  <SCORE.INTER.SOLV>
26.4137

>  <SCORE.INTER.VDW>
-22.8206

>  <SCORE.INTER.norm>
-0.270894

>  <SCORE.INTRA>
3.16188

>  <SCORE.INTRA.DIHEDRAL>
-15.4125

>  <SCORE.INTRA.DIHEDRAL.0>
27.8999

>  <SCORE.INTRA.POLAR>
0

>  <SCORE.INTRA.POLAR.0>
0

>  <SCORE.INTRA.REPUL>
0.182964

>  <SCORE.INTRA.REPUL.0>
0

>  <SCORE.INTRA.SOLV>
2.34009

>  <SCORE.INTRA.SOLV.lig_0>
-104.479

>  <SCORE.INTRA.VDW>
8.78325

>  <SCORE.INTRA.VDW.0>
-6.17816

>  <SCORE.INTRA.norm>
0.0752829

>  <SCORE.RESTR>
15.4375

>  <SCORE.RESTR.CAVITY>
15.4375

>  <SCORE.RESTR.norm>
0.367559

>  <SCORE.SYSTEM>
0

>  <SCORE.SYSTEM.CONST>
0

>  <SCORE.SYSTEM.DIHEDRAL>
0

>  <SCORE.SYSTEM.SOLV>
0

>  <SCORE.SYSTEM.norm>
0

>  <SCORE.heavy>
42

>  <SCORE.norm>
0.171948

>  <RMSD>
18.578

$$$$
2o3w_lig
 OpenBabel11021811463D
libRbt.so/2013.1/901 2013/11/27
 42 45  0  0  0  0  0  0  0  0999 V2000
   12.3287   10.9906   -8.2335 C   0  0  2  0  0  0  0  0  0  0  0  0
   13.3043   11.2285   -9.2626 O   0  0  0  0  0  0  0  0  0  0  0  0
   14.0707    8.9141  -12.8476 C   0  0  2  0  0  0  0  0  0  0  0  0
   13.9487    8.3016  -14.2042 N   0  0  0  0  0  0  0  0  0  0  0  0
   12.5458   13.0944  -11.9719 C   0  0  1  0  0  0  0  0  0  0  0  0
    9.5420   15.9863  -11.6008 C   0  0  1  0  0  0  0  0  0  0  0  0
   11.4831   12.2925   -8.0985 C   0  0  2  0  0  0  0  0  0  0  0  0
   10.9891   12.7813   -9.3976 N   0  0  0  0  0  0  0  0  0  0  0  0
   12.9109    8.4242  -11.8902 C   0  0  0  0  0  0  0  0  0  0  0  0
   12.3854   14.6112  -11.6485 C   0  0  2  0  0  0  0  0  0  0  0  0
   11.8873   14.8798  -10.3147 O   0  0  0  0  0  0  0  0  0  0  0  0
    8.0767   15.7343  -11.0927 C   0  0  2  0  0  0  0  0  0  0  0  0
    7.1465   15.5063  -12.2389 N   0  0  0  0  0  0  0  0  0  0  0  0
   12.2828   13.4455   -7.4644 C   0  0  1  0  0  0  0  0  0  0  0  0
   11.4587   14.6040   -7.3237 O   0  0  0  0  0  0  0  0  0  0  0  0
   13.1059    9.0846  -10.4730 C   0  0  2  0  0  0  0  0  0  0  0  0
   12.0380    8.6333   -9.5405 N   0  0  0  0  0  0  0  0  0  0  0  0
   11.4828   15.0658  -12.7965 C   0  0  2  0  0  0  0  0  0  0  0  0
   10.0671   14.9538  -12.4446 O   0  0  0  0  0  0  0  0  0  0  0  0
    7.6027   16.9818  -10.2062 C   0  0  1  0  0  0  0  0  0  0  0  0
    8.2821   16.9342   -8.9315 O   0  0  0  0  0  0  0  0  0  0  0  0
   12.8527   12.9895   -6.1019 C   0  0  2  0  0  0  0  0  0  0  0  0
   13.5738   14.0396   -5.5004 O   0  0  0  0  0  0  0  0  0  0  0  0
   13.0812   10.6603  -10.5846 C   0  0  2  0  0  0  0  0  0  0  0  0
   11.8324   14.1655  -13.9934 C   0  0  2  0  0  0  0  0  0  0  0  0
   12.2198   12.9420  -13.3725 O   0  0  0  0  0  0  0  0  0  0  0  0
    7.8876   18.3913  -10.9131 C   0  0  2  0  0  0  0  0  0  0  0  0
    7.0082   18.4980  -12.0318 O   0  0  0  0  0  0  0  0  0  0  0  0
   13.7730   11.7433   -6.3247 C   0  0  2  0  0  0  0  0  0  0  0  0
   13.0049   10.6716   -6.9581 O   0  0  0  0  0  0  0  0  0  0  0  0
   14.1541   11.2092  -11.5504 C   0  0  2  0  0  0  0  0  0  0  0  0
   13.8683   12.6298  -11.6713 O   0  0  0  0  0  0  0  0  0  0  0  0
   12.9658   14.7095  -14.9173 C   0  0  0  0  0  0  0  0  0  0  0  0
   12.5597   15.9550  -15.4765 O   0  0  0  0  0  0  0  0  0  0  0  0
    9.3872   18.4820  -11.3877 C   0  0  1  0  0  0  0  0  0  0  0  0
    9.6018   17.3349  -12.2869 O   0  0  0  0  0  0  0  0  0  0  0  0
   14.3708   11.2243   -5.0375 C   0  0  0  0  0  0  0  0  0  0  0  0
   15.0297   10.0026   -5.2668 O   0  0  0  0  0  0  0  0  0  0  0  0
   14.0426   10.4912  -12.9602 C   0  0  1  0  0  0  0  0  0  0  0  0
   15.1276   10.8881  -13.8033 O   0  0  0  0  0  0  0  0  0  0  0  0
    9.7498   19.8394  -12.1324 C   0  0  0  0  0  0  0  0  0  0  0  0
    8.6180   20.5136  -12.8259 N   0  0  0  0  0  0  0  0  0  0  0  0
  1  2  1  6  0  0  0
  1  7  1  0  0  0  0
  1 30  1  0  0  0  0
  3  4  1  6  0  0  0
  3  9  1  0  0  0  0
  3 39  1  0  0  0  0
  5 10  1  0  0  0  0
  5 26  1  0  0  0  0
  5 32  1  6  0  0  0
  6 12  1  0  0  0  0
  6 36  1  0  0  0  0
  6 19  1  6  0  0  0
  7  8  1  6  0  0  0
  7 14  1  0  0  0  0
  9 16  1  0  0  0  0
 10 11  1  1  0  0  0
 10 18  1  0  0  0  0
 12 13  1  6  0  0  0
 12 20  1  0  0  0  0
 14 15  1  1  0  0  0
 14 22  1  0  0  0  0
 16 17  1  1  0  0  0
 16 24  1  0  0  0  0
 18 19  1  1  0  0  0
 18 25  1  0  0  0  0
 20 21  1  1  0  0  0
 20 27  1  0  0  0  0
 22 23  1  6  0  0  0
 22 29  1  0  0  0  0
 24  2  1  1  0  0  0
 24 31  1  0  0  0  0
 25 26  1  0  0  0  0
 25 33  1  1  0  0  0
 27 28  1  6  0  0  0
 27 35  1  0  0  0  0
 29 30  1  0  0  0  0
 29 37  1  1  0  0  0
 31 32  1  6  0  0  0
 31 39  1  0  0  0  0
 33 34  1  0  0  0  0
 35 36  1  0  0  0  0
 35 41  1  6  0  0  0
 37 38  1  0  0  0  0
 39 40  1  6  0  0  0
 41 42  1  0  0  0  0
M  END
>  <CHROM.1>
-102.47175142,163.48456664,-172.38757225,77.98267772,-64.26764533,-61.33927443
171.70974651,-50.13518216,-27.20172148,11.71721242,13.59179201,-10.63346926
0.33789644,-0.98934849,1.60267636

>  <Name>
2o3w_lig

>  <RI>
0

>  <Rbt.Current_Directory>
/home/itssahil/PROJECTS/Mol_Feturizer/New_Systems/rnas/2o3w

>  <Rbt.Executable>
rbdock ($Id: //depot/dev/client3/rdock/2013.1/src/exe/rbdock.cxx#4 $)

>  <Rbt.Library>
libRbt.so (2013.1, Build901 2013/11/27)

>  <Rbt.Parameter_File>
/export/apps/rDock/src/rDock_2013.1_src/data/scripts/dock_solv.prm

>  <Rbt.Receptor>
prm/blind_docking_80.prm

>  <SCORE>
-8.97986

>  <SCORE.INTER>
-18.8144

>  <SCORE.INTER.CONST>
1

>  <SCORE.INTER.POLAR>
-2.2698

>  <SCORE.INTER.ROT>
9

>  <SCORE.INTER.SOLV>
22.8474

>  <SCORE.INTER.VDW>
-22.1927

>  <SCORE.INTER.norm>
-0.447962

>  <SCORE.INTRA>
-2.80944

>  <SCORE.INTRA.DIHEDRAL>
-15.1114

>  <SCORE.INTRA.DIHEDRAL.0>
27.8999

>  <SCORE.INTRA.POLAR>
0

>  <SCORE.INTRA.POLAR.0>
0

>  <SCORE.INTRA.REPUL>
0.0744243

>  <SCORE.INTRA.REPUL.0>
0

>  <SCORE.INTRA.SOLV>
2.35285

>  <SCORE.INTRA.SOLV.lig_0>
-104.479

>  <SCORE.INTRA.VDW>
3.19774

>  <SCORE.INTRA.VDW.0>
-6.17816

>  <SCORE.INTRA.norm>
-0.0668913

>  <SCORE.RESTR>
12.644

>  <SCORE.RESTR.CAVITY>
12.644

>  <SCORE.RESTR.norm>
0.301047

>  <SCORE.SYSTEM>
0

>  <SCORE.SYSTEM.CONST>
0

>  <SCORE.SYSTEM.DIHEDRAL>
0

>  <SCORE.SYSTEM.SOLV>
0

>  <SCORE.SYSTEM.norm>
0

>  <SCORE.heavy>
42

>  <SCORE.norm>
-0.213806

>  <RMSD>
18.578

$$$$
2o3w_lig
 OpenBabel11021811463D
libRbt.so/2013.1/901 2013/11/27
 42 45  0  0  0  0  0  0  0  0999 V2000
   11.9409   14.0827  -12.8282 C   0  0  2  0  0  0  0  0  0  0  0  0
   12.9516   13.8159  -11.8409 O   0  0  0  0  0  0  0  0  0  0  0  0
   12.8373    9.4830  -11.7458 C   0  0  2  0  0  0  0  0  0  0  0  0
   12.9046    8.0632  -11.2874 N   0  0  0  0  0  0  0  0  0  0  0  0
   11.2160   12.5012   -8.9299 C   0  0  1  0  0  0  0  0  0  0  0  0
   12.3986   12.4198   -6.0348 C   0  0  1  0  0  0  0  0  0  0  0  0
   12.4119   15.3292  -13.6360 C   0  0  2  0  0  0  0  0  0  0  0  0
   13.8014   15.2025  -14.1090 N   0  0  0  0  0  0  0  0  0  0  0  0
   14.2526   10.1833  -11.6548 C   0  0  0  0  0  0  0  0  0  0  0  0
   10.1077   13.1741   -8.0641 C   0  0  2  0  0  0  0  0  0  0  0  0
   10.3467   14.5759   -7.7864 O   0  0  0  0  0  0  0  0  0  0  0  0
   12.7558   10.8899   -6.0625 C   0  0  2  0  0  0  0  0  0  0  0  0
   12.3061   10.2143   -4.8086 N   0  0  0  0  0  0  0  0  0  0  0  0
   12.3409   16.6243  -12.8062 C   0  0  1  0  0  0  0  0  0  0  0  0
   12.7429   17.7443  -13.5967 O   0  0  0  0  0  0  0  0  0  0  0  0
   14.1223   11.6662  -12.1711 C   0  0  2  0  0  0  0  0  0  0  0  0
   15.4413   12.3521  -12.1129 N   0  0  0  0  0  0  0  0  0  0  0  0
   10.0832   12.2521   -6.8440 C   0  0  2  0  0  0  0  0  0  0  0  0
   11.0126   12.7051   -5.8086 O   0  0  0  0  0  0  0  0  0  0  0  0
   14.3349   10.7195   -6.2736 C   0  0  1  0  0  0  0  0  0  0  0  0
   14.6602   11.0400   -7.6448 O   0  0  0  0  0  0  0  0  0  0  0  0
   10.9078   16.8067  -12.2566 C   0  0  2  0  0  0  0  0  0  0  0  0
   10.8218   17.9971  -11.5082 O   0  0  0  0  0  0  0  0  0  0  0  0
   13.0700   12.4666  -11.3063 C   0  0  2  0  0  0  0  0  0  0  0  0
   10.4629   10.8542   -7.3606 C   0  0  2  0  0  0  0  0  0  0  0  0
   11.3326   11.1410   -8.4532 O   0  0  0  0  0  0  0  0  0  0  0  0
   15.1974   11.6429   -5.2882 C   0  0  2  0  0  0  0  0  0  0  0  0
   15.0387   11.1286   -3.9666 O   0  0  0  0  0  0  0  0  0  0  0  0
   10.5389   15.5694  -11.3721 C   0  0  2  0  0  0  0  0  0  0  0  0
   10.6447   14.3466  -12.1679 O   0  0  0  0  0  0  0  0  0  0  0  0
   11.6731   11.8079  -11.3024 C   0  0  2  0  0  0  0  0  0  0  0  0
   10.8994   12.5590  -10.3268 O   0  0  0  0  0  0  0  0  0  0  0  0
    9.2597    9.9722   -7.8176 C   0  0  0  0  0  0  0  0  0  0  0  0
    8.8775   10.3455   -9.1380 O   0  0  0  0  0  0  0  0  0  0  0  0
   14.7048   13.1380   -5.3543 C   0  0  1  0  0  0  0  0  0  0  0  0
   13.2726   13.1125   -5.0105 O   0  0  0  0  0  0  0  0  0  0  0  0
    9.1447   15.6613  -10.7961 C   0  0  0  0  0  0  0  0  0  0  0  0
    8.8969   16.9660  -10.3318 O   0  0  0  0  0  0  0  0  0  0  0  0
   11.7860   10.2839  -10.8775 C   0  0  1  0  0  0  0  0  0  0  0  0
   10.5186    9.6368  -11.0199 O   0  0  0  0  0  0  0  0  0  0  0  0
   15.4868   14.1211   -4.3793 C   0  0  0  0  0  0  0  0  0  0  0  0
   16.9720   14.0349   -4.4360 N   0  0  0  0  0  0  0  0  0  0  0  0
  1  2  1  1  0  0  0
  1  7  1  0  0  0  0
  1 30  1  0  0  0  0
  3  4  1  1  0  0  0
  3  9  1  0  0  0  0
  3 39  1  0  0  0  0
  5 10  1  0  0  0  0
  5 26  1  0  0  0  0
  5 32  1  6  0  0  0
  6 12  1  0  0  0  0
  6 36  1  0  0  0  0
  6 19  1  1  0  0  0
  7  8  1  1  0  0  0
  7 14  1  0  0  0  0
  9 16  1  0  0  0  0
 10 11  1  1  0  0  0
 10 18  1  0  0  0  0
 12 13  1  1  0  0  0
 12 20  1  0  0  0  0
 14 15  1  6  0  0  0
 14 22  1  0  0  0  0
 16 17  1  1  0  0  0
 16 24  1  0  0  0  0
 18 19  1  1  0  0  0
 18 25  1  0  0  0  0
 20 21  1  6  0  0  0
 20 27  1  0  0  0  0
 22 23  1  1  0  0  0
 22 29  1  0  0  0  0
 24  2  1  6  0  0  0
 24 31  1  0  0  0  0
 25 26  1  0  0  0  0
 25 33  1  6  0  0  0
 27 28  1  1  0  0  0
 27 35  1  0  0  0  0
 29 30  1  0  0  0  0
 29 37  1  6  0  0  0
 31 32  1  1  0  0  0
 31 39  1  0  0  0  0
 33 34  1  0  0  0  0
 35 36  1  0  0  0  0
 35 41  1  1  0  0  0
 37 38  1  0  0  0  0
 39 40  1  6  0  0  0
 41 42  1  0  0  0  0
M  END
>  <CHROM.1>
-156.09155740,-169.83266102,-64.35146961,-77.29780787,92.14804258,81.10386487
-42.60310182,-67.56793990,48.97034715,12.21755147,12.85298018,-9.28630598
2.74586285,-1.30468702,0.09362816

>  <Name>
2o3w_lig

>  <RI>
0

>  <Rbt.Current_Directory>
/home/itssahil/PROJECTS/Mol_Feturizer/New_Systems/rnas/2o3w

>  <Rbt.Executable>
rbdock ($Id: //depot/dev/client3/rdock/2013.1/src/exe/rbdock.cxx#4 $)

>  <Rbt.Library>
libRbt.so (2013.1, Build901 2013/11/27)

>  <Rbt.Parameter_File>
/export/apps/rDock/src/rDock_2013.1_src/data/scripts/dock_solv.prm

>  <Rbt.Receptor>
prm/blind_docking_100.prm

>  <SCORE>
17.0361

>  <SCORE.INTER>
4.24271

>  <SCORE.INTER.CONST>
1

>  <SCORE.INTER.POLAR>
-0.854259

>  <SCORE.INTER.ROT>
9

>  <SCORE.INTER.SOLV>
33.0938

>  <SCORE.INTER.VDW>
-14.9553

>  <SCORE.INTER.norm>
0.101017

>  <SCORE.INTRA>
0.273744

>  <SCORE.INTRA.DIHEDRAL>
-16.2014

>  <SCORE.INTRA.DIHEDRAL.0>
27.8999

>  <SCORE.INTRA.POLAR>
0

>  <SCORE.INTRA.POLAR.0>
0

>  <SCORE.INTRA.REPUL>
0

>  <SCORE.INTRA.REPUL.0>
0

>  <SCORE.INTRA.SOLV>
0.315518

>  <SCORE.INTRA.SOLV.lig_0>
-104.479

>  <SCORE.INTRA.VDW>
8.21671

>  <SCORE.INTRA.VDW.0>
-6.17816

>  <SCORE.INTRA.norm>
0.0065177

>  <SCORE.RESTR>
12.5196

>  <SCORE.RESTR.CAVITY>
12.5196

>  <SCORE.RESTR.norm>
0.298086

>  <SCORE.SYSTEM>
0

>  <SCORE.SYSTEM.CONST>
0

>  <SCORE.SYSTEM.DIHEDRAL>
0

>  <SCORE.SYSTEM.SOLV>
0

>  <SCORE.SYSTEM.norm>
0

>  <SCORE.heavy>
42

>  <SCORE.norm>
0.405621

>  <RMSD>
18.585

$$$$
2o3w_lig
 OpenBabel11021811463D
libRbt.so/2013.1/901 2013/11/27
 42 45  0  0  0  0  0  0  0  0999 V2000
   13.6600   11.4136  -11.3169 C   0  0  2  0  0  0  0  0  0  0  0  0
   13.4481   11.1286   -9.9236 O   0  0  0  0  0  0  0  0  0  0  0  0
   11.6251   13.4864   -6.7750 C   0  0  2  0  0  0  0  0  0  0  0  0
   11.3171   14.5836   -5.8099 N   0  0  0  0  0  0  0  0  0  0  0  0
   11.4501   14.7526  -11.0004 C   0  0  1  0  0  0  0  0  0  0  0  0
    9.0905   17.7577  -12.4819 C   0  0  1  0  0  0  0  0  0  0  0  0
   12.7472   10.4422  -12.1240 C   0  0  2  0  0  0  0  0  0  0  0  0
   11.3562   10.4415  -11.6386 N   0  0  0  0  0  0  0  0  0  0  0  0
   13.0471   12.8545   -6.4910 C   0  0  0  0  0  0  0  0  0  0  0  0
   11.8299   15.2040  -12.4436 C   0  0  2  0  0  0  0  0  0  0  0  0
   12.9736   16.0914  -12.5016 O   0  0  0  0  0  0  0  0  0  0  0  0
    9.0344   19.2585  -12.0200 C   0  0  2  0  0  0  0  0  0  0  0  0
    9.7886   19.4530  -10.7455 N   0  0  0  0  0  0  0  0  0  0  0  0
   13.2419    8.9855  -12.0583 C   0  0  1  0  0  0  0  0  0  0  0  0
   12.4003    8.1386  -12.8427 O   0  0  0  0  0  0  0  0  0  0  0  0
   13.3044   11.6922   -7.5231 C   0  0  2  0  0  0  0  0  0  0  0  0
   14.6303   11.0643   -7.2753 N   0  0  0  0  0  0  0  0  0  0  0  0
   10.5058   15.7975  -12.9272 C   0  0  2  0  0  0  0  0  0  0  0  0
   10.4136   17.2258  -12.6234 O   0  0  0  0  0  0  0  0  0  0  0  0
    7.5043   19.7046  -11.8570 C   0  0  1  0  0  0  0  0  0  0  0  0
    6.9214   19.8631  -13.1700 O   0  0  0  0  0  0  0  0  0  0  0  0
   14.7111    8.9180  -12.5338 C   0  0  2  0  0  0  0  0  0  0  0  0
   15.1738    7.5880  -12.4956 O   0  0  0  0  0  0  0  0  0  0  0  0
   13.2455   12.2393   -9.0040 C   0  0  2  0  0  0  0  0  0  0  0  0
    9.3988   15.0034  -12.2136 C   0  0  2  0  0  0  0  0  0  0  0  0
   10.0083   14.6443  -10.9758 O   0  0  0  0  0  0  0  0  0  0  0  0
    6.6379   18.6570  -11.0088 C   0  0  2  0  0  0  0  0  0  0  0  0
    7.0890   18.7198   -9.6564 O   0  0  0  0  0  0  0  0  0  0  0  0
   15.5872    9.8350  -11.6168 C   0  0  2  0  0  0  0  0  0  0  0  0
   15.0816   11.2068  -11.6660 O   0  0  0  0  0  0  0  0  0  0  0  0
   11.9012   12.9229   -9.3369 C   0  0  2  0  0  0  0  0  0  0  0  0
   12.0905   13.5190  -10.6497 O   0  0  0  0  0  0  0  0  0  0  0  0
    8.8969   13.7402  -12.9794 C   0  0  0  0  0  0  0  0  0  0  0  0
    8.9422   13.9908  -14.3809 O   0  0  0  0  0  0  0  0  0  0  0  0
    6.8178   17.1984  -11.5765 C   0  0  1  0  0  0  0  0  0  0  0  0
    8.2632   16.9174  -11.5319 O   0  0  0  0  0  0  0  0  0  0  0  0
   17.0447    9.8342  -12.0160 C   0  0  0  0  0  0  0  0  0  0  0  0
   17.2583   10.7372  -13.0735 O   0  0  0  0  0  0  0  0  0  0  0  0
   11.5690   14.0358   -8.2567 C   0  0  1  0  0  0  0  0  0  0  0  0
   10.2576   14.5621   -8.4778 O   0  0  0  0  0  0  0  0  0  0  0  0
    6.0165   16.0863  -10.7704 C   0  0  0  0  0  0  0  0  0  0  0  0
    6.2207   14.6859  -11.2326 N   0  0  0  0  0  0  0  0  0  0  0  0
  1  2  1  1  0  0  0
  1  7  1  0  0  0  0
  1 30  1  0  0  0  0
  3  4  1  1  0  0  0
  3  9  1  0  0  0  0
  3 39  1  0  0  0  0
  5 10  1  0  0  0  0
  5 26  1  0  0  0  0
  5 32  1  6  0  0  0
  6 12  1  0  0  0  0
  6 36  1  0  0  0  0
  6 19  1  1  0  0  0
  7  8  1  1  0  0  0
  7 14  1  0  0  0  0
  9 16  1  0  0  0  0
 10 11  1  1  0  0  0
 10 18  1  0  0  0  0
 12 13  1  1  0  0  0
 12 20  1  0  0  0  0
 14 15  1  6  0  0  0
 14 22  1  0  0  0  0
 16 17  1  1  0  0  0
 16 24  1  0  0  0  0
 18 19  1  1  0  0  0
 18 25  1  0  0  0  0
 20 21  1  6  0  0  0
 20 27  1  0  0  0  0
 22 23  1  1  0  0  0
 22 29  1  0  0  0  0
 24  2  1  6  0  0  0
 24 31  1  0  0  0  0
 25 26  1  0  0  0  0
 25 33  1  6  0  0  0
 27 28  1  1  0  0  0
 27 35  1  0  0  0  0
 29 30  1  0  0  0  0
 29 37  1  6  0  0  0
 31 32  1  6  0  0  0
 31 39  1  0  0  0  0
 33 34  1  0  0  0  0
 35 36  1  0  0  0  0
 35 41  1  1  0  0  0
 37 38  1  0  0  0  0
 39 40  1  6  0  0  0
 41 42  1  0  0  0  0
M  END
>  <CHROM.1>
-133.83159794,178.73802796,174.35965530,-153.96516679,-169.65414653,-33.99045662
82.57507693,-146.20311034,-176.82222388,11.25926241,13.90732876,-11.01133064
0.10730229,0.86220083,-1.75943604

>  <Name>
2o3w_lig

>  <RI>
0

>  <Rbt.Current_Directory>
/home/itssahil/PROJECTS/Mol_Feturizer/New_Systems/rnas/2o3w

>  <Rbt.Executable>
rbdock ($Id: //depot/dev/client3/rdock/2013.1/src/exe/rbdock.cxx#4 $)

>  <Rbt.Library>
libRbt.so (2013.1, Build901 2013/11/27)

>  <Rbt.Parameter_File>
/export/apps/rDock/src/rDock_2013.1_src/data/scripts/dock_solv.prm

>  <Rbt.Receptor>
prm/blind_docking_100.prm

>  <SCORE>
17.3074

>  <SCORE.INTER>
0.204396

>  <SCORE.INTER.CONST>
1

>  <SCORE.INTER.POLAR>
0

>  <SCORE.INTER.ROT>
9

>  <SCORE.INTER.SOLV>
28.3247

>  <SCORE.INTER.VDW>
-18.9053

>  <SCORE.INTER.norm>
0.00486657

>  <SCORE.INTRA>
4.91592

>  <SCORE.INTRA.DIHEDRAL>
-9.89632

>  <SCORE.INTRA.DIHEDRAL.0>
27.8999

>  <SCORE.INTRA.POLAR>
0

>  <SCORE.INTRA.POLAR.0>
0

>  <SCORE.INTRA.REPUL>
0.0383806

>  <SCORE.INTRA.REPUL.0>
0

>  <SCORE.INTRA.SOLV>
-1.46733

>  <SCORE.INTRA.SOLV.lig_0>
-104.479

>  <SCORE.INTRA.VDW>
10.4058

>  <SCORE.INTRA.VDW.0>
-6.17816

>  <SCORE.INTRA.norm>
0.117046

>  <SCORE.RESTR>
12.1871

>  <SCORE.RESTR.CAVITY>
12.1871

>  <SCORE.RESTR.norm>
0.290168

>  <SCORE.SYSTEM>
0

>  <SCORE.SYSTEM.CONST>
0

>  <SCORE.SYSTEM.DIHEDRAL>
0

>  <SCORE.SYSTEM.SOLV>
0

>  <SCORE.SYSTEM.norm>
0

>  <SCORE.heavy>
42

>  <SCORE.norm>
0.41208

>  <RMSD>
18.601

$$$$
2o3w_lig
 OpenBabel11021811463D
libRbt.so/2013.1/901 2013/11/27
 42 45  0  0  0  0  0  0  0  0999 V2000
   11.8215   14.0535  -12.6327 C   0  0  2  0  0  0  0  0  0  0  0  0
   12.7454   13.8742  -11.5457 O   0  0  0  0  0  0  0  0  0  0  0  0
   12.4270    9.5781  -11.0573 C   0  0  2  0  0  0  0  0  0  0  0  0
   12.4436    8.2027  -10.4755 N   0  0  0  0  0  0  0  0  0  0  0  0
   11.0462   12.8960   -8.4674 C   0  0  1  0  0  0  0  0  0  0  0  0
   12.9409   12.9466   -6.0945 C   0  0  1  0  0  0  0  0  0  0  0  0
   12.3896   15.1945  -13.5292 C   0  0  2  0  0  0  0  0  0  0  0  0
   13.8069   14.9877  -13.8743 N   0  0  0  0  0  0  0  0  0  0  0  0
   13.8768   10.2104  -11.0772 C   0  0  0  0  0  0  0  0  0  0  0  0
   11.6722   14.2673   -8.0691 C   0  0  2  0  0  0  0  0  0  0  0  0
   13.1176   14.3041   -8.1608 O   0  0  0  0  0  0  0  0  0  0  0  0
   12.3572   11.5454   -6.5004 C   0  0  2  0  0  0  0  0  0  0  0  0
   11.5716   10.9494   -5.3786 N   0  0  0  0  0  0  0  0  0  0  0  0
   12.2937   16.5733  -12.8506 C   0  0  1  0  0  0  0  0  0  0  0  0
   12.7880   17.5919  -13.7218 O   0  0  0  0  0  0  0  0  0  0  0  0
   13.7983   11.6467  -11.7202 C   0  0  2  0  0  0  0  0  0  0  0  0
   15.1499   12.2666  -11.7682 N   0  0  0  0  0  0  0  0  0  0  0  0
   11.0923   14.4626   -6.6674 C   0  0  2  0  0  0  0  0  0  0  0  0
   11.9638   13.8914   -5.6402 O   0  0  0  0  0  0  0  0  0  0  0  0
   13.5579   10.5795   -6.9389 C   0  0  1  0  0  0  0  0  0  0  0  0
   14.0409   10.9940   -8.2365 O   0  0  0  0  0  0  0  0  0  0  0  0
   10.8288   16.8447  -12.4389 C   0  0  2  0  0  0  0  0  0  0  0  0
   10.7211   18.1109  -11.8310 O   0  0  0  0  0  0  0  0  0  0  0  0
   12.8192   12.5730  -10.8961 C   0  0  2  0  0  0  0  0  0  0  0  0
    9.7170   13.7742   -6.6772 C   0  0  2  0  0  0  0  0  0  0  0  0
    9.8970   12.7106   -7.6094 O   0  0  0  0  0  0  0  0  0  0  0  0
   14.7701   10.5787   -5.8910 C   0  0  2  0  0  0  0  0  0  0  0  0
   14.3136    9.9302   -4.7046 O   0  0  0  0  0  0  0  0  0  0  0  0
   10.3568   15.7190  -11.4593 C   0  0  2  0  0  0  0  0  0  0  0  0
   10.4870   14.4150  -12.1092 O   0  0  0  0  0  0  0  0  0  0  0  0
   11.3934   11.9896  -10.7860 C   0  0  2  0  0  0  0  0  0  0  0  0
   10.6942   12.8624   -9.8566 O   0  0  0  0  0  0  0  0  0  0  0  0
    8.5253   14.6906   -7.0945 C   0  0  0  0  0  0  0  0  0  0  0  0
    8.7427   16.0044   -6.5891 O   0  0  0  0  0  0  0  0  0  0  0  0
   15.2252   12.0517   -5.5666 C   0  0  1  0  0  0  0  0  0  0  0  0
   14.0293   12.7475   -5.0607 O   0  0  0  0  0  0  0  0  0  0  0  0
    8.9261   15.9025  -11.0087 C   0  0  0  0  0  0  0  0  0  0  0  0
    8.7193   17.2257  -10.5779 O   0  0  0  0  0  0  0  0  0  0  0  0
   11.4492   10.5053  -10.2298 C   0  0  1  0  0  0  0  0  0  0  0  0
   10.1476    9.9138  -10.2708 O   0  0  0  0  0  0  0  0  0  0  0  0
   16.4059   12.1459   -4.5055 C   0  0  0  0  0  0  0  0  0  0  0  0
   16.3803   11.1232   -3.4238 N   0  0  0  0  0  0  0  0  0  0  0  0
  1  2  1  1  0  0  0
  1  7  1  0  0  0  0
  1 30  1  0  0  0  0
  3  4  1  1  0  0  0
  3  9  1  0  0  0  0
  3 39  1  0  0  0  0
  5 10  1  0  0  0  0
  5 26  1  0  0  0  0
  5 32  1  6  0  0  0
  6 12  1  0  0  0  0
  6 36  1  0  0  0  0
  6 19  1  1  0  0  0
  7  8  1  1  0  0  0
  7 14  1  0  0  0  0
  9 16  1  0  0  0  0
 10 11  1  1  0  0  0
 10 18  1  0  0  0  0
 12 13  1  1  0  0  0
 12 20  1  0  0  0  0
 14 15  1  6  0  0  0
 14 22  1  0  0  0  0
 16 17  1  1  0  0  0
 16 24  1  0  0  0  0
 18 19  1  1  0  0  0
 18 25  1  0  0  0  0
 20 21  1  6  0  0  0
 20 27  1  0  0  0  0
 22 23  1  1  0  0  0
 22 29  1  0  0  0  0
 24  2  1  6  0  0  0
 24 31  1  0  0  0  0
 25 26  1  0  0  0  0
 25 33  1  6  0  0  0
 27 28  1  1  0  0  0
 27 35  1  0  0  0  0
 29 30  1  0  0  0  0
 29 37  1  6  0  0  0
 31 32  1  1  0  0  0
 31 39  1  0  0  0  0
 33 34  1  0  0  0  0
 35 36  1  0  0  0  0
 35 41  1  1  0  0  0
 37 38  1  0  0  0  0
 39 40  1  6  0  0  0
 41 42  1  0  0  0  0
M  END
>  <CHROM.1>
-153.74858244,112.81075528,-73.03079704,-17.64878460,84.58317101,-36.16149529
-48.58959409,-68.58794677,-35.20917860,12.14945138,13.20091411,-9.10433402
-2.15081881,-0.91938681,1.70617047

>  <Name>
2o3w_lig

>  <RI>
0

>  <Rbt.Current_Directory>
/home/itssahil/PROJECTS/Mol_Feturizer/New_Systems/rnas/2o3w

>  <Rbt.Executable>
rbdock ($Id: //depot/dev/client3/rdock/2013.1/src/exe/rbdock.cxx#4 $)

>  <Rbt.Library>
libRbt.so (2013.1, Build901 2013/11/27)

>  <Rbt.Parameter_File>
/export/apps/rDock/src/rDock_2013.1_src/data/scripts/dock_solv.prm

>  <Rbt.Receptor>
prm/blind_docking_40.prm

>  <SCORE>
17.1863

>  <SCORE.INTER>
-3.88681

>  <SCORE.INTER.CONST>
1

>  <SCORE.INTER.POLAR>
-1.24687

>  <SCORE.INTER.ROT>
9

>  <SCORE.INTER.SOLV>
35.692

>  <SCORE.INTER.VDW>
-19.9323

>  <SCORE.INTER.norm>
-0.0925431

>  <SCORE.INTRA>
6.71665

>  <SCORE.INTRA.DIHEDRAL>
-4.2842

>  <SCORE.INTRA.DIHEDRAL.0>
27.8999

>  <SCORE.INTRA.POLAR>
0

>  <SCORE.INTRA.POLAR.0>
0

>  <SCORE.INTRA.REPUL>
0

>  <SCORE.INTRA.REPUL.0>
0

>  <SCORE.INTRA.SOLV>
2.81137

>  <SCORE.INTRA.SOLV.lig_0>
-104.479

>  <SCORE.INTRA.VDW>
7.45306

>  <SCORE.INTRA.VDW.0>
-6.17816

>  <SCORE.INTRA.norm>
0.15992

>  <SCORE.RESTR>
14.3564

>  <SCORE.RESTR.CAVITY>
14.3564

>  <SCORE.RESTR.norm>
0.34182

>  <SCORE.SYSTEM>
0

>  <SCORE.SYSTEM.CONST>
0

>  <SCORE.SYSTEM.DIHEDRAL>
0

>  <SCORE.SYSTEM.SOLV>
0

>  <SCORE.SYSTEM.norm>
0

>  <SCORE.heavy>
42

>  <SCORE.norm>
0.409197

>  <RMSD>
18.620

$$$$
2o3w_lig
 OpenBabel11021811463D
libRbt.so/2013.1/901 2013/11/27
 42 45  0  0  0  0  0  0  0  0999 V2000
   13.7763   11.2244  -11.0118 C   0  0  2  0  0  0  0  0  0  0  0  0
   13.9091   11.0300   -9.5934 O   0  0  0  0  0  0  0  0  0  0  0  0
   11.6837   13.4545   -6.7711 C   0  0  2  0  0  0  0  0  0  0  0  0
   11.2679   14.5576   -5.8542 N   0  0  0  0  0  0  0  0  0  0  0  0
   11.9000   14.0873  -11.4183 C   0  0  1  0  0  0  0  0  0  0  0  0
   10.3328   16.0595  -12.9532 C   0  0  1  0  0  0  0  0  0  0  0  0
   12.9307   10.0345  -11.5570 C   0  0  2  0  0  0  0  0  0  0  0  0
   11.6936    9.8220  -10.7856 N   0  0  0  0  0  0  0  0  0  0  0  0
   12.9967   12.7412   -6.2524 C   0  0  0  0  0  0  0  0  0  0  0  0
   12.5330   14.2820  -12.8298 C   0  0  2  0  0  0  0  0  0  0  0  0
   13.1393   15.5826  -13.0294 O   0  0  0  0  0  0  0  0  0  0  0  0
    9.3232   15.5348  -11.8695 C   0  0  2  0  0  0  0  0  0  0  0  0
    8.0170   15.1647  -12.4921 N   0  0  0  0  0  0  0  0  0  0  0  0
   13.7065    8.7048  -11.5285 C   0  0  1  0  0  0  0  0  0  0  0  0
   12.9090    7.6519  -12.0728 O   0  0  0  0  0  0  0  0  0  0  0  0
   13.3711   11.5767   -7.2455 C   0  0  2  0  0  0  0  0  0  0  0  0
   14.5964   10.8731   -6.7794 N   0  0  0  0  0  0  0  0  0  0  0  0
   11.3436   13.9596  -13.7357 C   0  0  2  0  0  0  0  0  0  0  0  0
   10.5611   15.1572  -14.0428 O   0  0  0  0  0  0  0  0  0  0  0  0
    9.1263   16.6570  -10.7430 C   0  0  1  0  0  0  0  0  0  0  0  0
   10.3145   16.7079   -9.9216 O   0  0  0  0  0  0  0  0  0  0  0  0
   15.0341    8.8657  -12.3037 C   0  0  2  0  0  0  0  0  0  0  0  0
   15.7488    7.6518  -12.3012 O   0  0  0  0  0  0  0  0  0  0  0  0
   13.6057   12.1410   -8.7024 C   0  0  2  0  0  0  0  0  0  0  0  0
   10.5000   12.9224  -12.9756 C   0  0  2  0  0  0  0  0  0  0  0  0
   10.7289   13.2610  -11.6098 O   0  0  0  0  0  0  0  0  0  0  0  0
    8.8355   18.1088  -11.3554 C   0  0  2  0  0  0  0  0  0  0  0  0
    7.5353   18.0763  -11.9425 O   0  0  0  0  0  0  0  0  0  0  0  0
   15.8774   10.0054  -11.6407 C   0  0  2  0  0  0  0  0  0  0  0  0
   15.1112   11.2514  -11.6467 O   0  0  0  0  0  0  0  0  0  0  0  0
   12.3804   12.9021   -9.2543 C   0  0  2  0  0  0  0  0  0  0  0  0
   12.8317   13.4997  -10.5008 O   0  0  0  0  0  0  0  0  0  0  0  0
   10.8769   11.4346  -13.2558 C   0  0  0  0  0  0  0  0  0  0  0  0
   10.3509   11.0463  -14.5212 O   0  0  0  0  0  0  0  0  0  0  0  0
    9.9150   18.4805  -12.4412 C   0  0  1  0  0  0  0  0  0  0  0  0
    9.8638   17.4101  -13.4521 O   0  0  0  0  0  0  0  0  0  0  0  0
   17.1959   10.2363  -12.3422 C   0  0  0  0  0  0  0  0  0  0  0  0
   18.0839    9.1808  -12.0652 O   0  0  0  0  0  0  0  0  0  0  0  0
   11.9213   14.0210   -8.2282 C   0  0  1  0  0  0  0  0  0  0  0  0
   10.7001   14.6221   -8.6674 O   0  0  0  0  0  0  0  0  0  0  0  0
    9.6826   19.8961  -13.1273 C   0  0  0  0  0  0  0  0  0  0  0  0
    9.4535   21.0326  -12.1933 N   0  0  0  0  0  0  0  0  0  0  0  0
  1  2  1  1  0  0  0
  1  7  1  0  0  0  0
  1 30  1  0  0  0  0
  3  4  1  1  0  0  0
  3  9  1  0  0  0  0
  3 39  1  0  0  0  0
  5 10  1  0  0  0  0
  5 26  1  0  0  0  0
  5 32  1  1  0  0  0
  6 12  1  0  0  0  0
  6 36  1  0  0  0  0
  6 19  1  6  0  0  0
  7  8  1  1  0  0  0
  7 14  1  0  0  0  0
  9 16  1  0  0  0  0
 10 11  1  1  0  0  0
 10 18  1  0  0  0  0
 12 13  1  6  0  0  0
 12 20  1  0  0  0  0
 14 15  1  6  0  0  0
 14 22  1  0  0  0  0
 16 17  1  1  0  0  0
 16 24  1  0  0  0  0
 18 19  1  1  0  0  0
 18 25  1  0  0  0  0
 20 21  1  6  0  0  0
 20 27  1  0  0  0  0
 22 23  1  1  0  0  0
 22 29  1  0  0  0  0
 24  2  1  6  0  0  0
 24 31  1  0  0  0  0
 25 26  1  0  0  0  0
 25 33  1  1  0  0  0
 27 28  1  6  0  0  0
 27 35  1  0  0  0  0
 29 30  1  0  0  0  0
 29 37  1  6  0  0  0
 31 32  1  6  0  0  0
 31 39  1  0  0  0  0
 33 34  1  0  0  0  0
 35 36  1  0  0  0  0
 35 41  1  6  0  0  0
 37 38  1  0  0  0  0
 39 40  1  6  0  0  0
 41 42  1  0  0  0  0
M  END
>  <CHROM.1>
-130.37788877,-163.47502170,-71.55755630,-41.88836037,161.98352102,-77.04151362
-72.85783339,168.74265628,49.65632710,12.05159226,13.34006267,-11.15621836
0.04581854,0.97841896,-1.75263660

>  <Name>
2o3w_lig

>  <RI>
0

>  <Rbt.Current_Directory>
/home/itssahil/PROJECTS/Mol_Feturizer/New_Systems/rnas/2o3w

>  <Rbt.Executable>
rbdock ($Id: //depot/dev/client3/rdock/2013.1/src/exe/rbdock.cxx#4 $)

>  <Rbt.Library>
libRbt.so (2013.1, Build901 2013/11/27)

>  <Rbt.Parameter_File>
/export/apps/rDock/src/rDock_2013.1_src/data/scripts/dock_solv.prm

>  <Rbt.Receptor>
prm/blind_docking_40.prm

>  <SCORE>
13.7433

>  <SCORE.INTER>
-0.940987

>  <SCORE.INTER.CONST>
1

>  <SCORE.INTER.POLAR>
-0.956307

>  <SCORE.INTER.ROT>
9

>  <SCORE.INTER.SOLV>
29.8013

>  <SCORE.INTER.VDW>
-16.9734

>  <SCORE.INTER.norm>
-0.0224045

>  <SCORE.INTRA>
-0.146627

>  <SCORE.INTRA.DIHEDRAL>
-13.669

>  <SCORE.INTRA.DIHEDRAL.0>
27.8999

>  <SCORE.INTRA.POLAR>
0

>  <SCORE.INTRA.POLAR.0>
0

>  <SCORE.INTRA.REPUL>
0

>  <SCORE.INTRA.REPUL.0>
0

>  <SCORE.INTRA.SOLV>
0.982383

>  <SCORE.INTRA.SOLV.lig_0>
-104.479

>  <SCORE.INTRA.VDW>
6.19667

>  <SCORE.INTRA.VDW.0>
-6.17816

>  <SCORE.INTRA.norm>
-0.00349113

>  <SCORE.RESTR>
14.8309

>  <SCORE.RESTR.CAVITY>
14.8309

>  <SCORE.RESTR.norm>
0.353116

>  <SCORE.SYSTEM>
0

>  <SCORE.SYSTEM.CONST>
0

>  <SCORE.SYSTEM.DIHEDRAL>
0

>  <SCORE.SYSTEM.SOLV>
0

>  <SCORE.SYSTEM.norm>
0

>  <SCORE.heavy>
42

>  <SCORE.norm>
0.327221

>  <RMSD>
18.624

$$$$
2o3w_lig
 OpenBabel11021811463D
libRbt.so/2013.1/901 2013/11/27
 42 45  0  0  0  0  0  0  0  0999 V2000
   13.1697   12.1105   -9.3275 C   0  0  2  0  0  0  0  0  0  0  0  0
   11.9093   11.9329   -9.9961 O   0  0  0  0  0  0  0  0  0  0  0  0
   13.3237   10.1950  -13.7076 C   0  0  2  0  0  0  0  0  0  0  0  0
   13.4315    9.7734  -15.1363 N   0  0  0  0  0  0  0  0  0  0  0  0
   11.3161   14.0932  -12.2844 C   0  0  1  0  0  0  0  0  0  0  0  0
    7.8063   16.7712  -11.6910 C   0  0  1  0  0  0  0  0  0  0  0  0
   13.4119   10.8344   -8.4666 C   0  0  2  0  0  0  0  0  0  0  0  0
   13.2243    9.5917   -9.2354 N   0  0  0  0  0  0  0  0  0  0  0  0
   12.0883    9.5081  -12.9980 C   0  0  0  0  0  0  0  0  0  0  0  0
   10.9849   15.3857  -11.4777 C   0  0  2  0  0  0  0  0  0  0  0  0
   10.4459   15.1339  -10.1567 O   0  0  0  0  0  0  0  0  0  0  0  0
    8.5727   17.9606  -11.0077 C   0  0  2  0  0  0  0  0  0  0  0  0
    9.4842   17.4616   -9.9348 N   0  0  0  0  0  0  0  0  0  0  0  0
   12.4623   10.7567   -7.2570 C   0  0  1  0  0  0  0  0  0  0  0  0
   12.7458    9.5946   -6.4759 O   0  0  0  0  0  0  0  0  0  0  0  0
   12.0410    9.9727  -11.4932 C   0  0  2  0  0  0  0  0  0  0  0  0
   10.8967    9.3328  -10.7898 N   0  0  0  0  0  0  0  0  0  0  0  0
   10.0499   16.1097  -12.4476 C   0  0  2  0  0  0  0  0  0  0  0  0
    8.6516   15.7429  -12.2218 O   0  0  0  0  0  0  0  0  0  0  0  0
    7.5103   19.0060  -10.4200 C   0  0  1  0  0  0  0  0  0  0  0  0
    6.9171   19.7360  -11.5173 O   0  0  0  0  0  0  0  0  0  0  0  0
   12.5918   12.0472   -6.4161 C   0  0  2  0  0  0  0  0  0  0  0  0
   11.7408   11.9846   -5.2953 O   0  0  0  0  0  0  0  0  0  0  0  0
   11.9090   11.5442  -11.3994 C   0  0  2  0  0  0  0  0  0  0  0  0
   10.5099   15.7093  -13.8595 C   0  0  2  0  0  0  0  0  0  0  0  0
   11.0240   14.3933  -13.6685 O   0  0  0  0  0  0  0  0  0  0  0  0
    6.3568   18.3027   -9.5584 C   0  0  2  0  0  0  0  0  0  0  0  0
    6.9535   17.8119   -8.3586 O   0  0  0  0  0  0  0  0  0  0  0  0
   12.2350   13.2791   -7.3133 C   0  0  2  0  0  0  0  0  0  0  0  0
   13.1249   13.3166   -8.4737 O   0  0  0  0  0  0  0  0  0  0  0  0
   13.0552   12.2856  -12.1219 C   0  0  2  0  0  0  0  0  0  0  0  0
   12.6786   13.6898  -12.0949 O   0  0  0  0  0  0  0  0  0  0  0  0
   11.5858   16.6459  -14.4915 C   0  0  0  0  0  0  0  0  0  0  0  0
   11.0936   17.9824  -14.5102 O   0  0  0  0  0  0  0  0  0  0  0  0
    5.7033   17.1184  -10.3663 C   0  0  1  0  0  0  0  0  0  0  0  0
    6.8037   16.2011  -10.7097 O   0  0  0  0  0  0  0  0  0  0  0  0
   12.3420   14.5904   -6.5698 C   0  0  0  0  0  0  0  0  0  0  0  0
   13.6776   14.8293   -6.1978 O   0  0  0  0  0  0  0  0  0  0  0  0
   13.1885   11.7678  -13.6152 C   0  0  1  0  0  0  0  0  0  0  0  0
   14.3421   12.3424  -14.2355 O   0  0  0  0  0  0  0  0  0  0  0  0
    4.5675   16.3406   -9.5704 C   0  0  0  0  0  0  0  0  0  0  0  0
    4.9022   15.9756   -8.1663 N   0  0  0  0  0  0  0  0  0  0  0  0
  1  2  1  1  0  0  0
  1  7  1  0  0  0  0
  1 30  1  0  0  0  0
  3  4  1  6  0  0  0
  3  9  1  0  0  0  0
  3 39  1  0  0  0  0
  5 10  1  0  0  0  0
  5 26  1  0  0  0  0
  5 32  1  6  0  0  0
  6 12  1  0  0  0  0
  6 36  1  0  0  0  0
  6 19  1  1  0  0  0
  7  8  1  6  0  0  0
  7 14  1  0  0  0  0
  9 16  1  0  0  0  0
 10 11  1  1  0  0  0
 10 18  1  0  0  0  0
 12 13  1  1  0  0  0
 12 20  1  0  0  0  0
 14 15  1  1  0  0  0
 14 22  1  0  0  0  0
 16 17  1  6  0  0  0
 16 24  1  0  0  0  0
 18 19  1  1  0  0  0
 18 25  1  0  0  0  0
 20 21  1  6  0  0  0
 20 27  1  0  0  0  0
 22 23  1  1  0  0  0
 22 29  1  0  0  0  0
 24  2  1  1  0  0  0
 24 31  1  0  0  0  0
 25 26  1  0  0  0  0
 25 33  1  1  0  0  0
 27 28  1  1  0  0  0
 27 35  1  0  0  0  0
 29 30  1  0  0  0  0
 29 37  1  1  0  0  0
 31 32  1  6  0  0  0
 31 39  1  0  0  0  0
 33 34  1  0  0  0  0
 35 36  1  0  0  0  0
 35 41  1  1  0  0  0
 37 38  1  0  0  0  0
 39 40  1  1  0  0  0
 41 42  1  0  0  0  0
M  END
>  <CHROM.1>
-101.93360556,148.00391583,-18.78778511,111.30505868,84.60525666,-56.29216263
64.94745796,-38.85737094,-46.39693134,10.73634113,14.05750723,-10.57651328
0.20617540,-0.85175579,1.77781998

>  <Name>
2o3w_lig

>  <RI>
0

>  <Rbt.Current_Directory>
/home/itssahil/PROJECTS/Mol_Feturizer/New_Systems/rnas/2o3w

>  <Rbt.Executable>
rbdock ($Id: //depot/dev/client3/rdock/2013.1/src/exe/rbdock.cxx#4 $)

>  <Rbt.Library>
libRbt.so (2013.1, Build901 2013/11/27)

>  <Rbt.Parameter_File>
/export/apps/rDock/src/rDock_2013.1_src/data/scripts/dock_solv.prm

>  <Rbt.Receptor>
prm/blind_docking_100.prm

>  <SCORE>
14.0926

>  <SCORE.INTER>
-2.20528

>  <SCORE.INTER.CONST>
1

>  <SCORE.INTER.POLAR>
-0.548757

>  <SCORE.INTER.ROT>
9

>  <SCORE.INTER.SOLV>
20.9605

>  <SCORE.INTER.VDW>
-16.2278

>  <SCORE.INTER.norm>
-0.0525067

>  <SCORE.INTRA>
8.19226

>  <SCORE.INTRA.DIHEDRAL>
-0.414143

>  <SCORE.INTRA.DIHEDRAL.0>
27.8999

>  <SCORE.INTRA.POLAR>
0

>  <SCORE.INTRA.POLAR.0>
0

>  <SCORE.INTRA.REPUL>
0

>  <SCORE.INTRA.REPUL.0>
0

>  <SCORE.INTRA.SOLV>
4.0498

>  <SCORE.INTRA.SOLV.lig_0>
-104.479

>  <SCORE.INTRA.VDW>
6.37443

>  <SCORE.INTRA.VDW.0>
-6.17816

>  <SCORE.INTRA.norm>
0.195054

>  <SCORE.RESTR>
8.10566

>  <SCORE.RESTR.CAVITY>
8.10566

>  <SCORE.RESTR.norm>
0.192992

>  <SCORE.SYSTEM>
0

>  <SCORE.SYSTEM.CONST>
0

>  <SCORE.SYSTEM.DIHEDRAL>
0

>  <SCORE.SYSTEM.SOLV>
0

>  <SCORE.SYSTEM.norm>
0

>  <SCORE.heavy>
42

>  <SCORE.norm>
0.335539

>  <RMSD>
18.657

$$$$
2o3w_lig
 OpenBabel11021811463D
libRbt.so/2013.1/901 2013/11/27
 42 45  0  0  0  0  0  0  0  0999 V2000
   11.4651   14.2079  -12.8819 C   0  0  2  0  0  0  0  0  0  0  0  0
   12.2758   13.9640  -11.7198 O   0  0  0  0  0  0  0  0  0  0  0  0
   11.9484    9.6418  -11.6314 C   0  0  2  0  0  0  0  0  0  0  0  0
   11.9784    8.2171  -11.1845 N   0  0  0  0  0  0  0  0  0  0  0  0
   10.9978   13.2277   -8.8878 C   0  0  1  0  0  0  0  0  0  0  0  0
   12.6734   13.7998   -5.5695 C   0  0  1  0  0  0  0  0  0  0  0  0
   12.0520   15.4655  -13.5905 C   0  0  2  0  0  0  0  0  0  0  0  0
   13.5086   15.3714  -13.7907 N   0  0  0  0  0  0  0  0  0  0  0  0
   13.4004   10.2690  -11.6475 C   0  0  0  0  0  0  0  0  0  0  0  0
   10.2944   14.4362   -8.1982 C   0  0  2  0  0  0  0  0  0  0  0  0
   10.7784   15.7291   -8.6379 O   0  0  0  0  0  0  0  0  0  0  0  0
   14.0972   14.3988   -5.2817 C   0  0  2  0  0  0  0  0  0  0  0  0
   14.7267   14.9053   -6.5379 N   0  0  0  0  0  0  0  0  0  0  0  0
   11.7952   16.7581  -12.7941 C   0  0  1  0  0  0  0  0  0  0  0  0
   12.3141   17.8875  -13.4983 O   0  0  0  0  0  0  0  0  0  0  0  0
   13.3066   11.7603  -12.1470 C   0  0  2  0  0  0  0  0  0  0  0  0
   14.6594   12.3782  -12.1886 N   0  0  0  0  0  0  0  0  0  0  0  0
   10.5240   14.1104   -6.7215 C   0  0  2  0  0  0  0  0  0  0  0  0
   11.7707   14.6966   -6.2288 O   0  0  0  0  0  0  0  0  0  0  0  0
   15.0118   13.2795   -4.5905 C   0  0  1  0  0  0  0  0  0  0  0  0
   14.5759   13.0982   -3.2244 O   0  0  0  0  0  0  0  0  0  0  0  0
   10.2800   16.9067  -12.5272 C   0  0  2  0  0  0  0  0  0  0  0  0
   10.0262   18.0943  -11.8132 O   0  0  0  0  0  0  0  0  0  0  0  0
   12.3662   12.6065  -11.2007 C   0  0  2  0  0  0  0  0  0  0  0  0
   10.5534   12.5758   -6.6250 C   0  0  2  0  0  0  0  0  0  0  0  0
   11.0823   12.1846   -7.8898 O   0  0  0  0  0  0  0  0  0  0  0  0
   14.9633   11.8746   -5.3595 C   0  0  2  0  0  0  0  0  0  0  0  0
   15.6317   12.0439   -6.6089 O   0  0  0  0  0  0  0  0  0  0  0  0
    9.7784   15.6606  -11.7240 C   0  0  2  0  0  0  0  0  0  0  0  0
   10.0614   14.4411  -12.4807 O   0  0  0  0  0  0  0  0  0  0  0  0
   10.9420   12.0192  -11.0911 C   0  0  2  0  0  0  0  0  0  0  0  0
   10.2849   12.8012  -10.0561 O   0  0  0  0  0  0  0  0  0  0  0  0
    9.1685   11.9061   -6.3644 C   0  0  0  0  0  0  0  0  0  0  0  0
    9.3072   10.4909   -6.4477 O   0  0  0  0  0  0  0  0  0  0  0  0
   13.4730   11.4212   -5.5954 C   0  0  1  0  0  0  0  0  0  0  0  0
   12.8282   12.5107   -6.3488 O   0  0  0  0  0  0  0  0  0  0  0  0
    8.2985   15.7197  -11.4234 C   0  0  0  0  0  0  0  0  0  0  0  0
    7.9606   16.9798  -10.8969 O   0  0  0  0  0  0  0  0  0  0  0  0
   11.0094   10.4884  -10.6816 C   0  0  1  0  0  0  0  0  0  0  0  0
    9.7034    9.9072  -10.7279 O   0  0  0  0  0  0  0  0  0  0  0  0
   13.3310   10.0481   -6.3847 C   0  0  0  0  0  0  0  0  0  0  0  0
   12.9736   10.1693   -7.8249 N   0  0  0  0  0  0  0  0  0  0  0  0
  1  2  1  1  0  0  0
  1  7  1  0  0  0  0
  1 30  1  0  0  0  0
  3  4  1  1  0  0  0
  3  9  1  0  0  0  0
  3 39  1  0  0  0  0
  5 10  1  0  0  0  0
  5 26  1  0  0  0  0
  5 32  1  6  0  0  0
  6 12  1  0  0  0  0
  6 36  1  0  0  0  0
  6 19  1  6  0  0  0
  7  8  1  1  0  0  0
  7 14  1  0  0  0  0
  9 16  1  0  0  0  0
 10 11  1  6  0  0  0
 10 18  1  0  0  0  0
 12 13  1  6  0  0  0
 12 20  1  0  0  0  0
 14 15  1  6  0  0  0
 14 22  1  0  0  0  0
 16 17  1  1  0  0  0
 16 24  1  0  0  0  0
 18 19  1  6  0  0  0
 18 25  1  0  0  0  0
 20 21  1  1  0  0  0
 20 27  1  0  0  0  0
 22 23  1  1  0  0  0
 22 29  1  0  0  0  0
 24  2  1  6  0  0  0
 24 31  1  0  0  0  0
 25 26  1  0  0  0  0
 25 33  1  6  0  0  0
 27 28  1  6  0  0  0
 27 35  1  0  0  0  0
 29 30  1  0  0  0  0
 29 37  1  6  0  0  0
 31 32  1  1  0  0  0
 31 39  1  0  0  0  0
 33 34  1  0  0  0  0
 35 36  1  0  0  0  0
 35 41  1  6  0  0  0
 37 38  1  0  0  0  0
 39 40  1  6  0  0  0
 41 42  1  0  0  0  0
M  END
>  <CHROM.1>
-153.54456218,159.44685436,169.72656128,-127.64960949,75.13074310,173.48093011
-48.26938220,-38.25768605,-102.10838243,11.83280288,13.32193169,-9.29717456
-2.91888885,-1.25549662,0.70962918

>  <Name>
2o3w_lig

>  <RI>
0

>  <Rbt.Current_Directory>
/home/itssahil/PROJECTS/Mol_Feturizer/New_Systems/rnas/2o3w

>  <Rbt.Executable>
rbdock ($Id: //depot/dev/client3/rdock/2013.1/src/exe/rbdock.cxx#4 $)

>  <Rbt.Library>
libRbt.so (2013.1, Build901 2013/11/27)

>  <Rbt.Parameter_File>
/export/apps/rDock/src/rDock_2013.1_src/data/scripts/dock_solv.prm

>  <Rbt.Receptor>
prm/blind_docking_40.prm

>  <SCORE>
42.3482

>  <SCORE.INTER>
19.0538

>  <SCORE.INTER.CONST>
1

>  <SCORE.INTER.POLAR>
-0.190517

>  <SCORE.INTER.ROT>
9

>  <SCORE.INTER.SOLV>
33.5926

>  <SCORE.INTER.VDW>
-7.45993

>  <SCORE.INTER.norm>
0.453662

>  <SCORE.INTRA>
10.5081

>  <SCORE.INTRA.DIHEDRAL>
-7.53536

>  <SCORE.INTRA.DIHEDRAL.0>
27.8999

>  <SCORE.INTRA.POLAR>
0

>  <SCORE.INTRA.POLAR.0>
0

>  <SCORE.INTRA.REPUL>
0

>  <SCORE.INTRA.REPUL.0>
0

>  <SCORE.INTRA.SOLV>
3.54798

>  <SCORE.INTRA.SOLV.lig_0>
-104.479

>  <SCORE.INTRA.VDW>
12.5018

>  <SCORE.INTRA.VDW.0>
-6.17816

>  <SCORE.INTRA.norm>
0.250193

>  <SCORE.RESTR>
12.7863

>  <SCORE.RESTR.CAVITY>
12.7863

>  <SCORE.RESTR.norm>
0.304437

>  <SCORE.SYSTEM>
0

>  <SCORE.SYSTEM.CONST>
0

>  <SCORE.SYSTEM.DIHEDRAL>
0

>  <SCORE.SYSTEM.SOLV>
0

>  <SCORE.SYSTEM.norm>
0

>  <SCORE.heavy>
42

>  <SCORE.norm>
1.00829

>  <RMSD>
18.659

$$$$
2o3w_lig
 OpenBabel11021811463D
libRbt.so/2013.1/901 2013/11/27
 42 45  0  0  0  0  0  0  0  0999 V2000
   13.6696   10.6743   -8.8783 C   0  0  2  0  0  0  0  0  0  0  0  0
   13.2699   11.2261  -10.1444 O   0  0  0  0  0  0  0  0  0  0  0  0
   14.0008    9.7767  -14.1645 C   0  0  2  0  0  0  0  0  0  0  0  0
   13.9761    8.9569  -15.4126 N   0  0  0  0  0  0  0  0  0  0  0  0
   10.6147   12.5424  -11.6089 C   0  0  1  0  0  0  0  0  0  0  0  0
   10.2301   16.7882  -10.6747 C   0  0  1  0  0  0  0  0  0  0  0  0
   12.4343    9.9210   -8.2998 C   0  0  2  0  0  0  0  0  0  0  0  0
   11.8272    9.0002   -9.2766 N   0  0  0  0  0  0  0  0  0  0  0  0
   14.6509    8.9766  -12.9650 C   0  0  0  0  0  0  0  0  0  0  0  0
   11.5605   13.2359  -10.5815 C   0  0  2  0  0  0  0  0  0  0  0  0
   11.2141   12.9831   -9.1976 O   0  0  0  0  0  0  0  0  0  0  0  0
    8.9550   17.4672  -10.0567 C   0  0  2  0  0  0  0  0  0  0  0  0
    7.7172   16.7221  -10.4357 N   0  0  0  0  0  0  0  0  0  0  0  0
   11.3222   10.8846   -7.8462 C   0  0  1  0  0  0  0  0  0  0  0  0
   10.2287   10.1544   -7.2876 O   0  0  0  0  0  0  0  0  0  0  0  0
   14.6690    9.8982  -11.6872 C   0  0  2  0  0  0  0  0  0  0  0  0
   15.2887    9.1808  -10.5405 N   0  0  0  0  0  0  0  0  0  0  0  0
   11.4689   14.6949  -11.0313 C   0  0  2  0  0  0  0  0  0  0  0  0
   10.3869   15.4022  -10.3459 O   0  0  0  0  0  0  0  0  0  0  0  0
    8.8802   18.9921  -10.5425 C   0  0  1  0  0  0  0  0  0  0  0  0
    9.8890   19.7552   -9.8433 O   0  0  0  0  0  0  0  0  0  0  0  0
   11.9001   11.8986   -6.8328 C   0  0  2  0  0  0  0  0  0  0  0  0
   10.8903   12.7777   -6.3949 O   0  0  0  0  0  0  0  0  0  0  0  0
   13.2036   10.3462  -11.3028 C   0  0  2  0  0  0  0  0  0  0  0  0
   11.2350   14.6568  -12.5509 C   0  0  2  0  0  0  0  0  0  0  0  0
   10.5059   13.4453  -12.7332 O   0  0  0  0  0  0  0  0  0  0  0  0
    9.0870   19.1522  -12.1234 C   0  0  2  0  0  0  0  0  0  0  0  0
    7.9382   18.6013  -12.7662 O   0  0  0  0  0  0  0  0  0  0  0  0
   13.0667   12.6907   -7.5120 C   0  0  2  0  0  0  0  0  0  0  0  0
   14.0967   11.7565   -7.9661 O   0  0  0  0  0  0  0  0  0  0  0  0
   12.4834   11.0871  -12.4506 C   0  0  2  0  0  0  0  0  0  0  0  0
   11.1124   11.2550  -11.9960 O   0  0  0  0  0  0  0  0  0  0  0  0
   12.5327   14.6666  -13.4170 C   0  0  0  0  0  0  0  0  0  0  0  0
   13.2772   13.4792  -13.1625 O   0  0  0  0  0  0  0  0  0  0  0  0
   10.3885   18.3986  -12.5928 C   0  0  1  0  0  0  0  0  0  0  0  0
   10.2223   16.9958  -12.1746 O   0  0  0  0  0  0  0  0  0  0  0  0
   13.6973   13.7049   -6.5861 C   0  0  0  0  0  0  0  0  0  0  0  0
   12.7045   14.5170   -6.0080 O   0  0  0  0  0  0  0  0  0  0  0  0
   12.5332   10.2218  -13.7790 C   0  0  1  0  0  0  0  0  0  0  0  0
   12.0017   10.9704  -14.8757 O   0  0  0  0  0  0  0  0  0  0  0  0
   10.6533   18.4775  -14.1588 C   0  0  0  0  0  0  0  0  0  0  0  0
   11.6438   17.5025  -14.6926 N   0  0  0  0  0  0  0  0  0  0  0  0
  1  2  1  6  0  0  0
  1  7  1  0  0  0  0
  1 30  1  0  0  0  0
  3  4  1  6  0  0  0
  3  9  1  0  0  0  0
  3 39  1  0  0  0  0
  5 10  1  0  0  0  0
  5 26  1  0  0  0  0
  5 32  1  6  0  0  0
  6 12  1  0  0  0  0
  6 36  1  0  0  0  0
  6 19  1  6  0  0  0
  7  8  1  6  0  0  0
  7 14  1  0  0  0  0
  9 16  1  0  0  0  0
 10 11  1  1  0  0  0
 10 18  1  0  0  0  0
 12 13  1  6  0  0  0
 12 20  1  0  0  0  0
 14 15  1  1  0  0  0
 14 22  1  0  0  0  0
 16 17  1  1  0  0  0
 16 24  1  0  0  0  0
 18 19  1  1  0  0  0
 18 25  1  0  0  0  0
 20 21  1  1  0  0  0
 20 27  1  0  0  0  0
 22 23  1  6  0  0  0
 22 29  1  0  0  0  0
 24  2  1  1  0  0  0
 24 31  1  0  0  0  0
 25 26  1  0  0  0  0
 25 33  1  6  0  0  0
 27 28  1  6  0  0  0
 27 35  1  0  0  0  0
 29 30  1  0  0  0  0
 29 37  1  1  0  0  0
 31 32  1  1  0  0  0
 31 39  1  0  0  0  0
 33 34  1  0  0  0  0
 35 36  1  0  0  0  0
 35 41  1  6  0  0  0
 37 38  1  0  0  0  0
 39 40  1  6  0  0  0
 41 42  1  0  0  0  0
M  END
>  <CHROM.1>
-78.06532487,-50.82366775,172.84052571,178.77652902,-68.22766353,64.03772221
-51.04400289,108.08351268,-164.49273360,11.68157213,13.44551028,-10.85752090
0.26464616,-1.12537268,1.72537403

>  <Name>
2o3w_lig

>  <RI>
0

>  <Rbt.Current_Directory>
/home/itssahil/PROJECTS/Mol_Feturizer/New_Systems/rnas/2o3w

>  <Rbt.Executable>
rbdock ($Id: //depot/dev/client3/rdock/2013.1/src/exe/rbdock.cxx#4 $)

>  <Rbt.Library>
libRbt.so (2013.1, Build901 2013/11/27)

>  <Rbt.Parameter_File>
/export/apps/rDock/src/rDock_2013.1_src/data/scripts/dock_solv.prm

>  <Rbt.Receptor>
prm/blind_docking_40.prm

>  <SCORE>
20.8338

>  <SCORE.INTER>
2.99757

>  <SCORE.INTER.CONST>
1

>  <SCORE.INTER.POLAR>
0

>  <SCORE.INTER.ROT>
9

>  <SCORE.INTER.SOLV>
21.1429

>  <SCORE.INTER.VDW>
-14.6493

>  <SCORE.INTER.norm>
0.0713706

>  <SCORE.INTRA>
1.71773

>  <SCORE.INTRA.DIHEDRAL>
-17.5826

>  <SCORE.INTRA.DIHEDRAL.0>
27.8999

>  <SCORE.INTRA.POLAR>
0

>  <SCORE.INTRA.POLAR.0>
0

>  <SCORE.INTRA.REPUL>
0.0794386

>  <SCORE.INTRA.REPUL.0>
0

>  <SCORE.INTRA.SOLV>
4.57854

>  <SCORE.INTRA.SOLV.lig_0>
-104.479

>  <SCORE.INTRA.VDW>
7.82256

>  <SCORE.INTRA.VDW.0>
-6.17816

>  <SCORE.INTRA.norm>
0.0408983

>  <SCORE.RESTR>
16.1185

>  <SCORE.RESTR.CAVITY>
16.1185

>  <SCORE.RESTR.norm>
0.383773

>  <SCORE.SYSTEM>
0

>  <SCORE.SYSTEM.CONST>
0

>  <SCORE.SYSTEM.DIHEDRAL>
0

>  <SCORE.SYSTEM.SOLV>
0

>  <SCORE.SYSTEM.norm>
0

>  <SCORE.heavy>
42

>  <SCORE.norm>
0.496042

>  <RMSD>
18.665

$$$$
2o3w_lig
 OpenBabel11021811463D
libRbt.so/2013.1/901 2013/11/27
 42 45  0  0  0  0  0  0  0  0999 V2000
   10.3505   13.4175   -6.9957 C   0  0  2  0  0  0  0  0  0  0  0  0
   10.4055   13.3775   -8.4319 O   0  0  0  0  0  0  0  0  0  0  0  0
    9.9715   16.5191  -11.3880 C   0  0  2  0  0  0  0  0  0  0  0  0
   10.1938   17.7462  -12.2097 N   0  0  0  0  0  0  0  0  0  0  0  0
   12.4789   12.2075  -11.0125 C   0  0  1  0  0  0  0  0  0  0  0  0
   13.3357    9.4396  -12.0244 C   0  0  1  0  0  0  0  0  0  0  0  0
   11.4991   14.3582   -6.5224 C   0  0  2  0  0  0  0  0  0  0  0  0
   11.5012   15.6479   -7.2346 N   0  0  0  0  0  0  0  0  0  0  0  0
    9.6777   16.8852   -9.8775 C   0  0  0  0  0  0  0  0  0  0  0  0
   11.4982   11.2241  -10.3040 C   0  0  2  0  0  0  0  0  0  0  0  0
   12.0626   10.5614   -9.1459 O   0  0  0  0  0  0  0  0  0  0  0  0
   13.5034    9.4702  -13.5864 C   0  0  2  0  0  0  0  0  0  0  0  0
   13.0267    8.1941  -14.1991 N   0  0  0  0  0  0  0  0  0  0  0  0
   12.8904   13.7325   -6.7315 C   0  0  1  0  0  0  0  0  0  0  0  0
   13.9084   14.6106   -6.2484 O   0  0  0  0  0  0  0  0  0  0  0  0
    9.4304   15.5556   -9.0691 C   0  0  2  0  0  0  0  0  0  0  0  0
    9.1359   15.8640   -7.6437 N   0  0  0  0  0  0  0  0  0  0  0  0
   11.1052   10.3089  -11.4647 C   0  0  2  0  0  0  0  0  0  0  0  0
   12.0049    9.1600  -11.5723 O   0  0  0  0  0  0  0  0  0  0  0  0
   15.0402    9.7433  -13.9479 C   0  0  1  0  0  0  0  0  0  0  0  0
   15.3457   11.1289  -13.6729 O   0  0  0  0  0  0  0  0  0  0  0  0
   12.9490   12.3583   -6.0264 C   0  0  2  0  0  0  0  0  0  0  0  0
   14.2223   11.7796   -6.1943 O   0  0  0  0  0  0  0  0  0  0  0  0
   10.6912   14.6077   -9.1569 C   0  0  2  0  0  0  0  0  0  0  0  0
   11.1609   11.1808  -12.7305 C   0  0  2  0  0  0  0  0  0  0  0  0
   12.1864   12.1233  -12.4262 O   0  0  0  0  0  0  0  0  0  0  0  0
   16.0478    8.8004  -13.1334 C   0  0  2  0  0  0  0  0  0  0  0  0
   15.8821    7.4696  -13.6212 O   0  0  0  0  0  0  0  0  0  0  0  0
   11.8373   11.4312   -6.6215 C   0  0  2  0  0  0  0  0  0  0  0  0
   10.5274   12.0575   -6.4438 O   0  0  0  0  0  0  0  0  0  0  0  0
   11.0730   14.2521  -10.6105 C   0  0  2  0  0  0  0  0  0  0  0  0
   12.3385   13.5429  -10.5104 O   0  0  0  0  0  0  0  0  0  0  0  0
    9.8254   11.9017  -13.0924 C   0  0  0  0  0  0  0  0  0  0  0  0
   10.0878   12.9278  -14.0448 O   0  0  0  0  0  0  0  0  0  0  0  0
   15.7379    8.8580  -11.5898 C   0  0  1  0  0  0  0  0  0  0  0  0
   14.3283    8.4566  -11.4402 O   0  0  0  0  0  0  0  0  0  0  0  0
   11.8179   10.0622   -5.9819 C   0  0  0  0  0  0  0  0  0  0  0  0
   13.1245    9.5471   -5.8992 O   0  0  0  0  0  0  0  0  0  0  0  0
   11.2353   15.5726  -11.4741 C   0  0  1  0  0  0  0  0  0  0  0  0
   11.4390   15.2402  -12.8502 O   0  0  0  0  0  0  0  0  0  0  0  0
   16.6724    7.9227  -10.7063 C   0  0  0  0  0  0  0  0  0  0  0  0
   16.7103    6.4895  -11.1078 N   0  0  0  0  0  0  0  0  0  0  0  0
  1  2  1  6  0  0  0
  1  7  1  0  0  0  0
  1 30  1  0  0  0  0
  3  4  1  6  0  0  0
  3  9  1  0  0  0  0
  3 39  1  0  0  0  0
  5 10  1  0  0  0  0
  5 26  1  0  0  0  0
  5 32  1  1  0  0  0
  6 12  1  0  0  0  0
  6 36  1  0  0  0  0
  6 19  1  6  0  0  0
  7  8  1  6  0  0  0
  7 14  1  0  0  0  0
  9 16  1  0  0  0  0
 10 11  1  1  0  0  0
 10 18  1  0  0  0  0
 12 13  1  6  0  0  0
 12 20  1  0  0  0  0
 14 15  1  1  0  0  0
 14 22  1  0  0  0  0
 16 17  1  1  0  0  0
 16 24  1  0  0  0  0
 18 19  1  6  0  0  0
 18 25  1  0  0  0  0
 20 21  1  1  0  0  0
 20 27  1  0  0  0  0
 22 23  1  6  0  0  0
 22 29  1  0  0  0  0
 24  2  1  1  0  0  0
 24 31  1  0  0  0  0
 25 26  1  0  0  0  0
 25 33  1  1  0  0  0
 27 28  1  6  0  0  0
 27 35  1  0  0  0  0
 29 30  1  0  0  0  0
 29 37  1  1  0  0  0
 31 32  1  1  0  0  0
 31 39  1  0  0  0  0
 33 34  1  0  0  0  0
 35 36  1  0  0  0  0
 35 41  1  1  0  0  0
 37 38  1  0  0  0  0
 39 40  1  6  0  0  0
 41 42  1  0  0  0  0
M  END
>  <CHROM.1>
-39.82346948,-60.08606483,-85.76950497,-70.53623880,-71.88026989,164.84695829
-46.37587892,121.57527827,-54.36629736,12.36086650,12.01220415,-10.21074157
-2.59938617,0.98187461,-1.63412417

>  <Name>
2o3w_lig

>  <RI>
0

>  <Rbt.Current_Directory>
/home/itssahil/PROJECTS/Mol_Feturizer/New_Systems/rnas/2o3w

>  <Rbt.Executable>
rbdock ($Id: //depot/dev/client3/rdock/2013.1/src/exe/rbdock.cxx#4 $)

>  <Rbt.Library>
libRbt.so (2013.1, Build901 2013/11/27)

>  <Rbt.Parameter_File>
/export/apps/rDock/src/rDock_2013.1_src/data/scripts/dock_solv.prm

>  <Rbt.Receptor>
prm/blind_docking_40.prm

>  <SCORE>
19.7758

>  <SCORE.INTER>
-4.08093

>  <SCORE.INTER.CONST>
1

>  <SCORE.INTER.POLAR>
-0.980356

>  <SCORE.INTER.ROT>
9

>  <SCORE.INTER.SOLV>
34.2497

>  <SCORE.INTER.VDW>
-20.4693

>  <SCORE.INTER.norm>
-0.0971649

>  <SCORE.INTRA>
7.30709

>  <SCORE.INTRA.DIHEDRAL>
-13.2135

>  <SCORE.INTRA.DIHEDRAL.0>
27.8999

>  <SCORE.INTRA.POLAR>
0

>  <SCORE.INTRA.POLAR.0>
0

>  <SCORE.INTRA.REPUL>
0

>  <SCORE.INTRA.REPUL.0>
0

>  <SCORE.INTRA.SOLV>
6.41877

>  <SCORE.INTRA.SOLV.lig_0>
-104.479

>  <SCORE.INTRA.VDW>
10.7044

>  <SCORE.INTRA.VDW.0>
-6.17816

>  <SCORE.INTRA.norm>
0.173978

>  <SCORE.RESTR>
16.5497

>  <SCORE.RESTR.CAVITY>
16.5497

>  <SCORE.RESTR.norm>
0.39404

>  <SCORE.SYSTEM>
0

>  <SCORE.SYSTEM.CONST>
0

>  <SCORE.SYSTEM.DIHEDRAL>
0

>  <SCORE.SYSTEM.SOLV>
0

>  <SCORE.SYSTEM.norm>
0

>  <SCORE.heavy>
42

>  <SCORE.norm>
0.470853

>  <RMSD>
18.674

$$$$
2o3w_lig
 OpenBabel11021811463D
libRbt.so/2013.1/901 2013/11/27
 42 45  0  0  0  0  0  0  0  0999 V2000
   11.8487   11.9072   -8.3394 C   0  0  2  0  0  0  0  0  0  0  0  0
   12.8430   12.1386   -9.3520 O   0  0  0  0  0  0  0  0  0  0  0  0
   14.8532    8.9117  -11.4359 C   0  0  2  0  0  0  0  0  0  0  0  0
   15.1974    7.8482  -12.4263 N   0  0  0  0  0  0  0  0  0  0  0  0
   12.6886   13.3106  -11.7057 C   0  0  1  0  0  0  0  0  0  0  0  0
   10.5415   16.3381  -12.1186 C   0  0  1  0  0  0  0  0  0  0  0  0
   11.2978   13.3018   -7.9156 C   0  0  2  0  0  0  0  0  0  0  0  0
   10.9059   14.1280   -9.0707 N   0  0  0  0  0  0  0  0  0  0  0  0
   13.5135    8.5690  -10.6680 C   0  0  0  0  0  0  0  0  0  0  0  0
   12.3398   14.2858  -12.8711 C   0  0  2  0  0  0  0  0  0  0  0  0
   12.7536   15.6545  -12.6380 O   0  0  0  0  0  0  0  0  0  0  0  0
    9.7387   17.2807  -11.1513 C   0  0  2  0  0  0  0  0  0  0  0  0
    8.2812   17.2631  -11.4772 N   0  0  0  0  0  0  0  0  0  0  0  0
   12.3283   14.1182   -7.1141 C   0  0  1  0  0  0  0  0  0  0  0  0
   11.7682   15.3698   -6.7133 O   0  0  0  0  0  0  0  0  0  0  0  0
   13.2163    9.7123   -9.6253 C   0  0  2  0  0  0  0  0  0  0  0  0
   11.9677    9.4146   -8.8730 N   0  0  0  0  0  0  0  0  0  0  0  0
   10.8325   14.0631  -13.0038 C   0  0  2  0  0  0  0  0  0  0  0  0
   10.0759   14.9832  -12.1543 O   0  0  0  0  0  0  0  0  0  0  0  0
   10.3321   18.7659  -11.2474 C   0  0  1  0  0  0  0  0  0  0  0  0
   11.6091   18.8034  -10.5716 O   0  0  0  0  0  0  0  0  0  0  0  0
   12.8020   13.2953   -5.8943 C   0  0  2  0  0  0  0  0  0  0  0  0
   13.7337   14.0357   -5.1405 O   0  0  0  0  0  0  0  0  0  0  0  0
   13.0766   11.1074  -10.3533 C   0  0  2  0  0  0  0  0  0  0  0  0
   10.5825   12.5999  -12.6013 C   0  0  2  0  0  0  0  0  0  0  0  0
   11.6090   12.3504  -11.6439 O   0  0  0  0  0  0  0  0  0  0  0  0
   10.5104   19.2678  -12.7586 C   0  0  2  0  0  0  0  0  0  0  0  0
    9.2065   19.4558  -13.3070 O   0  0  0  0  0  0  0  0  0  0  0  0
   13.4369   11.9561   -6.3974 C   0  0  2  0  0  0  0  0  0  0  0  0
   12.4544   11.2110   -7.1843 O   0  0  0  0  0  0  0  0  0  0  0  0
   14.3307   11.4836  -11.1725 C   0  0  2  0  0  0  0  0  0  0  0  0
   13.9604   12.6812  -11.9095 O   0  0  0  0  0  0  0  0  0  0  0  0
   10.6483   11.5740  -13.7750 C   0  0  0  0  0  0  0  0  0  0  0  0
   10.6144   10.2517  -13.2465 O   0  0  0  0  0  0  0  0  0  0  0  0
   11.3106   18.2075  -13.6057 C   0  0  1  0  0  0  0  0  0  0  0  0
   10.5537   16.9476  -13.5047 O   0  0  0  0  0  0  0  0  0  0  0  0
   13.9239   11.0820   -5.2649 C   0  0  0  0  0  0  0  0  0  0  0  0
   14.8032   10.0991   -5.7546 O   0  0  0  0  0  0  0  0  0  0  0  0
   14.7106   10.3071  -12.1661 C   0  0  1  0  0  0  0  0  0  0  0  0
   15.9541   10.5902  -12.8135 O   0  0  0  0  0  0  0  0  0  0  0  0
   11.5051   18.6109  -15.1315 C   0  0  0  0  0  0  0  0  0  0  0  0
   12.8865   19.0080  -15.5197 N   0  0  0  0  0  0  0  0  0  0  0  0
  1  2  1  6  0  0  0
  1  7  1  0  0  0  0
  1 30  1  0  0  0  0
  3  4  1  6  0  0  0
  3  9  1  0  0  0  0
  3 39  1  0  0  0  0
  5 10  1  0  0  0  0
  5 26  1  0  0  0  0
  5 32  1  6  0  0  0
  6 12  1  0  0  0  0
  6 36  1  0  0  0  0
  6 19  1  6  0  0  0
  7  8  1  6  0  0  0
  7 14  1  0  0  0  0
  9 16  1  0  0  0  0
 10 11  1  1  0  0  0
 10 18  1  0  0  0  0
 12 13  1  6  0  0  0
 12 20  1  0  0  0  0
 14 15  1  1  0  0  0
 14 22  1  0  0  0  0
 16 17  1  6  0  0  0
 16 24  1  0  0  0  0
 18 19  1  1  0  0  0
 18 25  1  0  0  0  0
 20 21  1  6  0  0  0
 20 27  1  0  0  0  0
 22 23  1  6  0  0  0
 22 29  1  0  0  0  0
 24  2  1  1  0  0  0
 24 31  1  0  0  0  0
 25 26  1  0  0  0  0
 25 33  1  6  0  0  0
 27 28  1  6  0  0  0
 27 35  1  0  0  0  0
 29 30  1  0  0  0  0
 29 37  1  1  0  0  0
 31 32  1  6  0  0  0
 31 39  1  0  0  0  0
 33 34  1  0  0  0  0
 35 36  1  0  0  0  0
 35 41  1  6  0  0  0
 37 38  1  0  0  0  0
 39 40  1  1  0  0  0
 41 42  1  0  0  0  0
M  END
>  <CHROM.1>
-151.53127876,-162.87982899,-177.65029756,41.79859616,-47.47408411,170.80776460
-163.46879021,4.56146140,108.11863024,12.18550602,13.63631751,-10.69527608
0.40671657,-1.19919503,1.48339842

>  <Name>
2o3w_lig

>  <RI>
0

>  <Rbt.Current_Directory>
/home/itssahil/PROJECTS/Mol_Feturizer/New_Systems/rnas/2o3w

>  <Rbt.Executable>
rbdock ($Id: //depot/dev/client3/rdock/2013.1/src/exe/rbdock.cxx#4 $)

>  <Rbt.Library>
libRbt.so (2013.1, Build901 2013/11/27)

>  <Rbt.Parameter_File>
/export/apps/rDock/src/rDock_2013.1_src/data/scripts/dock_solv.prm

>  <Rbt.Receptor>
prm/blind_docking_80.prm

>  <SCORE>
16.4956

>  <SCORE.INTER>
-7.96369

>  <SCORE.INTER.CONST>
1

>  <SCORE.INTER.POLAR>
-1.46151

>  <SCORE.INTER.ROT>
9

>  <SCORE.INTER.SOLV>
24.4545

>  <SCORE.INTER.VDW>
-18.1889

>  <SCORE.INTER.norm>
-0.189612

>  <SCORE.INTRA>
15.7198

>  <SCORE.INTRA.DIHEDRAL>
-7.69068

>  <SCORE.INTRA.DIHEDRAL.0>
27.8999

>  <SCORE.INTRA.POLAR>
0

>  <SCORE.INTRA.POLAR.0>
0

>  <SCORE.INTRA.REPUL>
0

>  <SCORE.INTRA.REPUL.0>
0

>  <SCORE.INTRA.SOLV>
1.35169

>  <SCORE.INTRA.SOLV.lig_0>
-104.479

>  <SCORE.INTRA.VDW>
18.8893

>  <SCORE.INTRA.VDW.0>
-6.17816

>  <SCORE.INTRA.norm>
0.374282

>  <SCORE.RESTR>
8.73948

>  <SCORE.RESTR.CAVITY>
8.73948

>  <SCORE.RESTR.norm>
0.208083

>  <SCORE.SYSTEM>
0

>  <SCORE.SYSTEM.CONST>
0

>  <SCORE.SYSTEM.DIHEDRAL>
0

>  <SCORE.SYSTEM.SOLV>
0

>  <SCORE.SYSTEM.norm>
0

>  <SCORE.heavy>
42

>  <SCORE.norm>
0.392753

>  <RMSD>
18.687

$$$$
2o3w_lig
 OpenBabel11021811463D
libRbt.so/2013.1/901 2013/11/27
 42 45  0  0  0  0  0  0  0  0999 V2000
   13.2469   12.7219   -8.0712 C   0  0  2  0  0  0  0  0  0  0  0  0
   11.9226   13.2162   -7.8082 O   0  0  0  0  0  0  0  0  0  0  0  0
    9.2599   15.7715  -10.0834 C   0  0  2  0  0  0  0  0  0  0  0  0
    8.6993   16.9175  -10.8597 N   0  0  0  0  0  0  0  0  0  0  0  0
   12.7228   12.7299  -11.5645 C   0  0  1  0  0  0  0  0  0  0  0  0
   14.2146    8.9438  -12.9374 C   0  0  1  0  0  0  0  0  0  0  0  0
   13.2116   11.1812   -7.8410 C   0  0  2  0  0  0  0  0  0  0  0  0
   12.0950   10.5308   -8.5487 N   0  0  0  0  0  0  0  0  0  0  0  0
    9.5899   16.1931   -8.5950 C   0  0  0  0  0  0  0  0  0  0  0  0
   13.2897   11.3971  -10.9875 C   0  0  2  0  0  0  0  0  0  0  0  0
   14.7353   11.3071  -11.0233 O   0  0  0  0  0  0  0  0  0  0  0  0
   15.5978    9.3350  -12.3031 C   0  0  2  0  0  0  0  0  0  0  0  0
   16.2283   10.4629  -13.0522 N   0  0  0  0  0  0  0  0  0  0  0  0
   13.0676   10.8159   -6.3521 C   0  0  1  0  0  0  0  0  0  0  0  0
   13.0797    9.3973   -6.1846 O   0  0  0  0  0  0  0  0  0  0  0  0
   10.1546   14.9410   -7.8232 C   0  0  2  0  0  0  0  0  0  0  0  0
   10.4629   15.2986   -6.4123 N   0  0  0  0  0  0  0  0  0  0  0  0
   12.5408   10.3653  -11.8323 C   0  0  2  0  0  0  0  0  0  0  0  0
   13.2811   10.0255  -13.0477 O   0  0  0  0  0  0  0  0  0  0  0  0
   16.5541    8.0496  -12.2860 C   0  0  1  0  0  0  0  0  0  0  0  0
   16.0972    7.1410  -11.2592 O   0  0  0  0  0  0  0  0  0  0  0  0
   14.2002   11.4894   -5.5441 C   0  0  2  0  0  0  0  0  0  0  0  0
   14.0922   11.1512   -4.1809 O   0  0  0  0  0  0  0  0  0  0  0  0
   11.4581   14.3935   -8.5282 C   0  0  2  0  0  0  0  0  0  0  0  0
   11.1798   10.9984  -12.1675 C   0  0  2  0  0  0  0  0  0  0  0  0
   11.4774   12.3917  -12.2170 O   0  0  0  0  0  0  0  0  0  0  0  0
   16.5975    7.2879  -13.6951 C   0  0  2  0  0  0  0  0  0  0  0  0
   17.2845    8.1306  -14.6195 O   0  0  0  0  0  0  0  0  0  0  0  0
   14.1131   13.0400   -5.7378 C   0  0  2  0  0  0  0  0  0  0  0  0
   14.2179   13.3647   -7.1603 O   0  0  0  0  0  0  0  0  0  0  0  0
   11.2245   14.0132  -10.0068 C   0  0  2  0  0  0  0  0  0  0  0  0
   12.5449   13.7140  -10.5374 O   0  0  0  0  0  0  0  0  0  0  0  0
   10.0451   10.7029  -11.1382 C   0  0  0  0  0  0  0  0  0  0  0  0
    9.8864    9.2938  -11.0045 O   0  0  0  0  0  0  0  0  0  0  0  0
   15.1390    6.9885  -14.2102 C   0  0  1  0  0  0  0  0  0  0  0  0
   14.4551    8.2912  -14.2826 O   0  0  0  0  0  0  0  0  0  0  0  0
   15.1927   13.7817   -4.9840 C   0  0  0  0  0  0  0  0  0  0  0  0
   14.9918   15.1701   -5.0903 O   0  0  0  0  0  0  0  0  0  0  0  0
   10.5663   15.2264  -10.7882 C   0  0  1  0  0  0  0  0  0  0  0  0
   10.2117   14.8249  -12.1144 O   0  0  0  0  0  0  0  0  0  0  0  0
   15.0879    6.2616  -15.6236 C   0  0  0  0  0  0  0  0  0  0  0  0
   15.8312    4.9746  -15.7112 N   0  0  0  0  0  0  0  0  0  0  0  0
  1  2  1  1  0  0  0
  1  7  1  0  0  0  0
  1 30  1  0  0  0  0
  3  4  1  6  0  0  0
  3  9  1  0  0  0  0
  3 39  1  0  0  0  0
  5 10  1  0  0  0  0
  5 26  1  0  0  0  0
  5 32  1  1  0  0  0
  6 12  1  0  0  0  0
  6 36  1  0  0  0  0
  6 19  1  6  0  0  0
  7  8  1  6  0  0  0
  7 14  1  0  0  0  0
  9 16  1  0  0  0  0
 10 11  1  6  0  0  0
 10 18  1  0  0  0  0
 12 13  1  6  0  0  0
 12 20  1  0  0  0  0
 14 15  1  6  0  0  0
 14 22  1  0  0  0  0
 16 17  1  1  0  0  0
 16 24  1  0  0  0  0
 18 19  1  6  0  0  0
 18 25  1  0  0  0  0
 20 21  1  1  0  0  0
 20 27  1  0  0  0  0
 22 23  1  1  0  0  0
 22 29  1  0  0  0  0
 24  2  1  1  0  0  0
 24 31  1  0  0  0  0
 25 26  1  0  0  0  0
 25 33  1  1  0  0  0
 27 28  1  6  0  0  0
 27 35  1  0  0  0  0
 29 30  1  0  0  0  0
 29 37  1  1  0  0  0
 31 32  1  6  0  0  0
 31 39  1  0  0  0  0
 33 34  1  0  0  0  0
 35 36  1  0  0  0  0
 35 41  1  6  0  0  0
 37 38  1  0  0  0  0
 39 40  1  6  0  0  0
 41 42  1  0  0  0  0
M  END
>  <CHROM.1>
-149.82111865,-103.19560479,-80.73040919,89.01253200,-166.10916621,-56.81348923
-174.46333459,147.94561133,56.53821021,13.10888404,11.46812181,-10.18977927
-2.11708404,0.77802095,-1.98133783

>  <Name>
2o3w_lig

>  <RI>
0

>  <Rbt.Current_Directory>
/home/itssahil/PROJECTS/Mol_Feturizer/New_Systems/rnas/2o3w

>  <Rbt.Executable>
rbdock ($Id: //depot/dev/client3/rdock/2013.1/src/exe/rbdock.cxx#4 $)

>  <Rbt.Library>
libRbt.so (2013.1, Build901 2013/11/27)

>  <Rbt.Parameter_File>
/export/apps/rDock/src/rDock_2013.1_src/data/scripts/dock_solv.prm

>  <Rbt.Receptor>
prm/blind_docking_80.prm

>  <SCORE>
12.146

>  <SCORE.INTER>
0.958921

>  <SCORE.INTER.CONST>
1

>  <SCORE.INTER.POLAR>
-0.651962

>  <SCORE.INTER.ROT>
9

>  <SCORE.INTER.SOLV>
29.5643

>  <SCORE.INTER.VDW>
-16.6423

>  <SCORE.INTER.norm>
0.0228315

>  <SCORE.INTRA>
0.0206434

>  <SCORE.INTRA.DIHEDRAL>
-7.85918

>  <SCORE.INTRA.DIHEDRAL.0>
27.8999

>  <SCORE.INTRA.POLAR>
0

>  <SCORE.INTRA.POLAR.0>
0

>  <SCORE.INTRA.REPUL>
0

>  <SCORE.INTRA.REPUL.0>
0

>  <SCORE.INTRA.SOLV>
1.55638

>  <SCORE.INTRA.SOLV.lig_0>
-104.479

>  <SCORE.INTRA.VDW>
3.17205

>  <SCORE.INTRA.VDW.0>
-6.17816

>  <SCORE.INTRA.norm>
0.00049151

>  <SCORE.RESTR>
11.1664

>  <SCORE.RESTR.CAVITY>
11.1664

>  <SCORE.RESTR.norm>
0.265867

>  <SCORE.SYSTEM>
0

>  <SCORE.SYSTEM.CONST>
0

>  <SCORE.SYSTEM.DIHEDRAL>
0

>  <SCORE.SYSTEM.SOLV>
0

>  <SCORE.SYSTEM.norm>
0

>  <SCORE.heavy>
42

>  <SCORE.norm>
0.28919

>  <RMSD>
18.693

$$$$
2o3w_lig
 OpenBabel11021811463D
libRbt.so/2013.1/901 2013/11/27
 42 45  0  0  0  0  0  0  0  0999 V2000
   12.2954   11.4723   -7.5998 C   0  0  2  0  0  0  0  0  0  0  0  0
   13.1827   11.6533   -8.7165 O   0  0  0  0  0  0  0  0  0  0  0  0
   13.5235    8.9423  -12.0827 C   0  0  2  0  0  0  0  0  0  0  0  0
   13.2873    8.2408  -13.3798 N   0  0  0  0  0  0  0  0  0  0  0  0
   12.6715   13.4121  -11.3436 C   0  0  1  0  0  0  0  0  0  0  0  0
   10.8123   16.4220  -12.3808 C   0  0  1  0  0  0  0  0  0  0  0  0
   11.5772   12.8348   -7.3637 C   0  0  2  0  0  0  0  0  0  0  0  0
   11.0014   13.3904   -8.6008 N   0  0  0  0  0  0  0  0  0  0  0  0
   12.3139    8.7287  -11.0861 C   0  0  0  0  0  0  0  0  0  0  0  0
   12.5912   14.2690  -12.6437 C   0  0  2  0  0  0  0  0  0  0  0  0
   13.0168   15.6431  -12.4709 O   0  0  0  0  0  0  0  0  0  0  0  0
    9.9200   17.4617  -11.6115 C   0  0  2  0  0  0  0  0  0  0  0  0
    8.5439   17.5148  -12.1899 N   0  0  0  0  0  0  0  0  0  0  0  0
   12.5270   13.9053   -6.7955 C   0  0  1  0  0  0  0  0  0  0  0  0
   11.8188   15.1231   -6.5580 O   0  0  0  0  0  0  0  0  0  0  0  0
   12.6305    9.4708   -9.7328 C   0  0  2  0  0  0  0  0  0  0  0  0
   11.5174    9.2783   -8.7644 N   0  0  0  0  0  0  0  0  0  0  0  0
   11.1264   14.0740  -13.0380 C   0  0  2  0  0  0  0  0  0  0  0  0
   10.2678   15.0978  -12.4418 O   0  0  0  0  0  0  0  0  0  0  0  0
   10.6219   18.9011  -11.6630 C   0  0  1  0  0  0  0  0  0  0  0  0
   11.7611   18.8974  -10.7735 O   0  0  0  0  0  0  0  0  0  0  0  0
   13.1870   13.3749   -5.5023 C   0  0  2  0  0  0  0  0  0  0  0  0
   14.0472   14.3499   -4.9603 O   0  0  0  0  0  0  0  0  0  0  0  0
   12.8543   11.0145   -9.9832 C   0  0  2  0  0  0  0  0  0  0  0  0
   10.7388   12.6681  -12.5494 C   0  0  2  0  0  0  0  0  0  0  0  0
   11.5564   12.4928  -11.3947 O   0  0  0  0  0  0  0  0  0  0  0  0
   11.0950   19.3100  -13.1382 C   0  0  2  0  0  0  0  0  0  0  0  0
    9.9227   19.5468  -13.9166 O   0  0  0  0  0  0  0  0  0  0  0  0
   13.9754   12.0637   -5.8323 C   0  0  2  0  0  0  0  0  0  0  0  0
   13.0637   11.0717   -6.4019 O   0  0  0  0  0  0  0  0  0  0  0  0
   13.9874   11.2993  -10.9933 C   0  0  2  0  0  0  0  0  0  0  0  0
   13.9287   12.7312  -11.2395 O   0  0  0  0  0  0  0  0  0  0  0  0
   10.9749   11.5237  -13.5832 C   0  0  0  0  0  0  0  0  0  0  0  0
   10.5395   10.2879  -13.0246 O   0  0  0  0  0  0  0  0  0  0  0  0
   11.9556   18.1596  -13.7848 C   0  0  1  0  0  0  0  0  0  0  0  0
   11.1078   16.9550  -13.7670 O   0  0  0  0  0  0  0  0  0  0  0  0
   14.6506   11.4699   -4.6176 C   0  0  0  0  0  0  0  0  0  0  0  0
   14.7186   10.0698   -4.7366 O   0  0  0  0  0  0  0  0  0  0  0  0
   13.7441   10.4878  -12.3342 C   0  0  1  0  0  0  0  0  0  0  0  0
   14.8667   10.6319  -13.2087 O   0  0  0  0  0  0  0  0  0  0  0  0
   12.4404   18.4686  -15.2674 C   0  0  0  0  0  0  0  0  0  0  0  0
   13.7839   19.0993  -15.3855 N   0  0  0  0  0  0  0  0  0  0  0  0
  1  2  1  6  0  0  0
  1  7  1  0  0  0  0
  1 30  1  0  0  0  0
  3  4  1  6  0  0  0
  3  9  1  0  0  0  0
  3 39  1  0  0  0  0
  5 10  1  0  0  0  0
  5 26  1  0  0  0  0
  5 32  1  6  0  0  0
  6 12  1  0  0  0  0
  6 36  1  0  0  0  0
  6 19  1  6  0  0  0
  7  8  1  6  0  0  0
  7 14  1  0  0  0  0
  9 16  1  0  0  0  0
 10 11  1  1  0  0  0
 10 18  1  0  0  0  0
 12 13  1  6  0  0  0
 12 20  1  0  0  0  0
 14 15  1  1  0  0  0
 14 22  1  0  0  0  0
 16 17  1  1  0  0  0
 16 24  1  0  0  0  0
 18 19  1  1  0  0  0
 18 25  1  0  0  0  0
 20 21  1  1  0  0  0
 20 27  1  0  0  0  0
 22 23  1  6  0  0  0
 22 29  1  0  0  0  0
 24  2  1  1  0  0  0
 24 31  1  0  0  0  0
 25 26  1  0  0  0  0
 25 33  1  6  0  0  0
 27 28  1  6  0  0  0
 27 35  1  0  0  0  0
 29 30  1  0  0  0  0
 29 37  1  1  0  0  0
 31 32  1  6  0  0  0
 31 39  1  0  0  0  0
 33 34  1  0  0  0  0
 35 36  1  0  0  0  0
 35 41  1  6  0  0  0
 37 38  1  0  0  0  0
 39 40  1  6  0  0  0
 41 42  1  0  0  0  0
M  END
>  <CHROM.1>
-108.84833628,-128.42367181,-174.38938675,38.31748035,-53.89968106,-178.22998640
149.08151397,-38.87150606,92.81343415,12.25093538,13.62611137,-10.62467682
0.05476238,-1.33875084,0.95226058

>  <Name>
2o3w_lig

>  <RI>
0

>  <Rbt.Current_Directory>
/home/itssahil/PROJECTS/Mol_Feturizer/New_Systems/rnas/2o3w

>  <Rbt.Executable>
rbdock ($Id: //depot/dev/client3/rdock/2013.1/src/exe/rbdock.cxx#4 $)

>  <Rbt.Library>
libRbt.so (2013.1, Build901 2013/11/27)

>  <Rbt.Parameter_File>
/export/apps/rDock/src/rDock_2013.1_src/data/scripts/dock_solv.prm

>  <Rbt.Receptor>
prm/blind_docking_80.prm

>  <SCORE>
0.494192

>  <SCORE.INTER>
-19.6118

>  <SCORE.INTER.CONST>
1

>  <SCORE.INTER.POLAR>
-2.72152

>  <SCORE.INTER.ROT>
9

>  <SCORE.INTER.SOLV>
25.5566

>  <SCORE.INTER.VDW>
-22.1217

>  <SCORE.INTER.norm>
-0.466949

>  <SCORE.INTRA>
12.0073

>  <SCORE.INTRA.DIHEDRAL>
-4.11829

>  <SCORE.INTRA.DIHEDRAL.0>
27.8999

>  <SCORE.INTRA.POLAR>
0

>  <SCORE.INTRA.POLAR.0>
0

>  <SCORE.INTRA.REPUL>
0

>  <SCORE.INTRA.REPUL.0>
0

>  <SCORE.INTRA.SOLV>
1.70408

>  <SCORE.INTRA.SOLV.lig_0>
-104.479

>  <SCORE.INTRA.VDW>
13.2144

>  <SCORE.INTRA.VDW.0>
-6.17816

>  <SCORE.INTRA.norm>
0.285887

>  <SCORE.RESTR>
8.09877

>  <SCORE.RESTR.CAVITY>
8.09877

>  <SCORE.RESTR.norm>
0.192828

>  <SCORE.SYSTEM>
0

>  <SCORE.SYSTEM.CONST>
0

>  <SCORE.SYSTEM.DIHEDRAL>
0

>  <SCORE.SYSTEM.SOLV>
0

>  <SCORE.SYSTEM.norm>
0

>  <SCORE.heavy>
42

>  <SCORE.norm>
0.0117665

>  <RMSD>
18.717

$$$$
2o3w_lig
 OpenBabel11021811463D
libRbt.so/2013.1/901 2013/11/27
 42 45  0  0  0  0  0  0  0  0999 V2000
   12.0494   10.2777   -8.3705 C   0  0  2  0  0  0  0  0  0  0  0  0
   11.4276   10.6111   -9.6233 O   0  0  0  0  0  0  0  0  0  0  0  0
   14.3726    8.8341  -12.2626 C   0  0  2  0  0  0  0  0  0  0  0  0
   15.1796    8.4805  -13.4684 N   0  0  0  0  0  0  0  0  0  0  0  0
   12.9530   13.0240  -11.8270 C   0  0  1  0  0  0  0  0  0  0  0  0
   11.1859   15.5879  -14.4214 C   0  0  1  0  0  0  0  0  0  0  0  0
   10.9098   10.1590   -7.3143 C   0  0  2  0  0  0  0  0  0  0  0  0
    9.8055    9.2973   -7.7709 N   0  0  0  0  0  0  0  0  0  0  0  0
   12.8680    8.3736  -12.4237 C   0  0  0  0  0  0  0  0  0  0  0  0
   11.4729   12.6491  -12.1423 C   0  0  2  0  0  0  0  0  0  0  0  0
   11.3289   11.5830  -13.1128 O   0  0  0  0  0  0  0  0  0  0  0  0
   12.6507   15.9989  -14.8142 C   0  0  2  0  0  0  0  0  0  0  0  0
   13.6012   15.7186  -13.6967 N   0  0  0  0  0  0  0  0  0  0  0  0
   10.2923   11.5256   -6.9649 C   0  0  1  0  0  0  0  0  0  0  0  0
    9.2819   11.3741   -5.9665 O   0  0  0  0  0  0  0  0  0  0  0  0
   12.0755    8.7526  -11.1157 C   0  0  2  0  0  0  0  0  0  0  0  0
   10.6563    8.3200  -11.2269 N   0  0  0  0  0  0  0  0  0  0  0  0
   10.9052   14.0064  -12.5603 C   0  0  2  0  0  0  0  0  0  0  0  0
   11.0407   14.2257  -14.0005 O   0  0  0  0  0  0  0  0  0  0  0  0
   12.6751   17.5499  -15.2151 C   0  0  1  0  0  0  0  0  0  0  0  0
   12.0541   17.7074  -16.5106 O   0  0  0  0  0  0  0  0  0  0  0  0
   11.4061   12.4907   -6.4989 C   0  0  2  0  0  0  0  0  0  0  0  0
   10.8548   13.7417   -6.1592 O   0  0  0  0  0  0  0  0  0  0  0  0
   12.1363   10.3104  -10.8593 C   0  0  2  0  0  0  0  0  0  0  0  0
   11.6900   15.0594  -11.7599 C   0  0  2  0  0  0  0  0  0  0  0  0
   12.9695   14.4518  -11.5981 O   0  0  0  0  0  0  0  0  0  0  0  0
   11.9279   18.4805  -14.1459 C   0  0  2  0  0  0  0  0  0  0  0  0
   12.7173   18.4905  -12.9571 O   0  0  0  0  0  0  0  0  0  0  0  0
   12.4612   12.6441   -7.6447 C   0  0  2  0  0  0  0  0  0  0  0  0
   13.0114   11.3323   -7.9857 O   0  0  0  0  0  0  0  0  0  0  0  0
   13.5816   10.8429  -10.7472 C   0  0  2  0  0  0  0  0  0  0  0  0
   13.4528   12.2906  -10.7012 O   0  0  0  0  0  0  0  0  0  0  0  0
   11.0681   15.4346  -10.3791 C   0  0  0  0  0  0  0  0  0  0  0  0
    9.8414   16.1277  -10.5883 O   0  0  0  0  0  0  0  0  0  0  0  0
   10.4857   17.9261  -13.8381 C   0  0  1  0  0  0  0  0  0  0  0  0
   10.6713   16.5432  -13.3653 O   0  0  0  0  0  0  0  0  0  0  0  0
   13.5953   13.5702   -7.2707 C   0  0  0  0  0  0  0  0  0  0  0  0
   14.4023   12.9747   -6.2841 O   0  0  0  0  0  0  0  0  0  0  0  0
   14.4315   10.3938  -12.0088 C   0  0  1  0  0  0  0  0  0  0  0  0
   15.8040   10.7561  -11.8335 O   0  0  0  0  0  0  0  0  0  0  0  0
    9.6831   18.7732  -12.7580 C   0  0  0  0  0  0  0  0  0  0  0  0
    8.4035   18.1717  -12.2917 N   0  0  0  0  0  0  0  0  0  0  0  0
  1  2  1  6  0  0  0
  1  7  1  0  0  0  0
  1 30  1  0  0  0  0
  3  4  1  6  0  0  0
  3  9  1  0  0  0  0
  3 39  1  0  0  0  0
  5 10  1  0  0  0  0
  5 26  1  0  0  0  0
  5 32  1  1  0  0  0
  6 12  1  0  0  0  0
  6 36  1  0  0  0  0
  6 19  1  1  0  0  0
  7  8  1  6  0  0  0
  7 14  1  0  0  0  0
  9 16  1  0  0  0  0
 10 11  1  6  0  0  0
 10 18  1  0  0  0  0
 12 13  1  1  0  0  0
 12 20  1  0  0  0  0
 14 15  1  1  0  0  0
 14 22  1  0  0  0  0
 16 17  1  6  0  0  0
 16 24  1  0  0  0  0
 18 19  1  6  0  0  0
 18 25  1  0  0  0  0
 20 21  1  6  0  0  0
 20 27  1  0  0  0  0
 22 23  1  6  0  0  0
 22 29  1  0  0  0  0
 24  2  1  1  0  0  0
 24 31  1  0  0  0  0
 25 26  1  0  0  0  0
 25 33  1  1  0  0  0
 27 28  1  1  0  0  0
 27 35  1  0  0  0  0
 29 30  1  0  0  0  0
 29 37  1  1  0  0  0
 31 32  1  6  0  0  0
 31 39  1  0  0  0  0
 33 34  1  0  0  0  0
 35 36  1  0  0  0  0
 35 41  1  1  0  0  0
 37 38  1  0  0  0  0
 39 40  1  1  0  0  0
 41 42  1  0  0  0  0
M  END
>  <CHROM.1>
-157.56987204,63.89535964,103.31745954,-150.16755407,74.19653733,-67.89450110
69.67971342,-65.54376840,-171.28642270,11.98558504,13.24275988,-11.08490051
1.36176207,-1.11460492,2.31413140

>  <Name>
2o3w_lig

>  <RI>
0

>  <Rbt.Current_Directory>
/home/itssahil/PROJECTS/Mol_Feturizer/New_Systems/rnas/2o3w

>  <Rbt.Executable>
rbdock ($Id: //depot/dev/client3/rdock/2013.1/src/exe/rbdock.cxx#4 $)

>  <Rbt.Library>
libRbt.so (2013.1, Build901 2013/11/27)

>  <Rbt.Parameter_File>
/export/apps/rDock/src/rDock_2013.1_src/data/scripts/dock_solv.prm

>  <Rbt.Receptor>
prm/blind_docking_80.prm

>  <SCORE>
6.62233

>  <SCORE.INTER>
-2.47373

>  <SCORE.INTER.CONST>
1

>  <SCORE.INTER.POLAR>
-0.276713

>  <SCORE.INTER.ROT>
9

>  <SCORE.INTER.SOLV>
28.2466

>  <SCORE.INTER.VDW>
-19.7423

>  <SCORE.INTER.norm>
-0.0588983

>  <SCORE.INTRA>
2.75114

>  <SCORE.INTRA.DIHEDRAL>
-14.161

>  <SCORE.INTRA.DIHEDRAL.0>
27.8999

>  <SCORE.INTRA.POLAR>
0

>  <SCORE.INTRA.POLAR.0>
0

>  <SCORE.INTRA.REPUL>
0

>  <SCORE.INTRA.REPUL.0>
0

>  <SCORE.INTRA.SOLV>
2.96644

>  <SCORE.INTRA.SOLV.lig_0>
-104.479

>  <SCORE.INTRA.VDW>
8.34843

>  <SCORE.INTRA.VDW.0>
-6.17816

>  <SCORE.INTRA.norm>
0.0655033

>  <SCORE.RESTR>
6.34492

>  <SCORE.RESTR.CAVITY>
6.34492

>  <SCORE.RESTR.norm>
0.15107

>  <SCORE.SYSTEM>
0

>  <SCORE.SYSTEM.CONST>
0

>  <SCORE.SYSTEM.DIHEDRAL>
0

>  <SCORE.SYSTEM.SOLV>
0

>  <SCORE.SYSTEM.norm>
0

>  <SCORE.heavy>
42

>  <SCORE.norm>
0.157675

>  <RMSD>
18.719

$$$$
2o3w_lig
 OpenBabel11021811463D
libRbt.so/2013.1/901 2013/11/27
 42 45  0  0  0  0  0  0  0  0999 V2000
   11.2975   13.7004  -12.4138 C   0  0  2  0  0  0  0  0  0  0  0  0
   12.6534   13.3019  -12.6781 O   0  0  0  0  0  0  0  0  0  0  0  0
   13.9990    9.4046  -11.3377 C   0  0  2  0  0  0  0  0  0  0  0  0
   14.5827    8.2998  -10.5197 N   0  0  0  0  0  0  0  0  0  0  0  0
   11.4784   12.0979   -9.0590 C   0  0  1  0  0  0  0  0  0  0  0  0
   12.3760   12.2822   -6.1375 C   0  0  1  0  0  0  0  0  0  0  0  0
   10.5699   13.7790  -13.7895 C   0  0  2  0  0  0  0  0  0  0  0  0
   10.7714   12.5679  -14.6038 N   0  0  0  0  0  0  0  0  0  0  0  0
   15.1016   10.4643  -11.7413 C   0  0  0  0  0  0  0  0  0  0  0  0
   10.2969   12.8187   -8.3411 C   0  0  2  0  0  0  0  0  0  0  0  0
   10.5261   14.2288   -8.1000 O   0  0  0  0  0  0  0  0  0  0  0  0
   12.8890   10.8039   -5.9952 C   0  0  2  0  0  0  0  0  0  0  0  0
   12.4577   10.2127   -4.6931 N   0  0  0  0  0  0  0  0  0  0  0  0
   11.0511   14.9705  -14.6378 C   0  0  1  0  0  0  0  0  0  0  0  0
   10.3309   15.0266  -15.8703 O   0  0  0  0  0  0  0  0  0  0  0  0
   14.4318   11.5888  -12.6185 C   0  0  2  0  0  0  0  0  0  0  0  0
   15.4456   12.5974  -13.0291 N   0  0  0  0  0  0  0  0  0  0  0  0
   10.1347   11.9511   -7.0920 C   0  0  2  0  0  0  0  0  0  0  0  0
   10.9596   12.4397   -5.9867 O   0  0  0  0  0  0  0  0  0  0  0  0
   14.4847   10.7821   -6.1366 C   0  0  1  0  0  0  0  0  0  0  0  0
   14.8338   10.9971   -7.5226 O   0  0  0  0  0  0  0  0  0  0  0  0
   10.8890   16.2779  -13.8293 C   0  0  2  0  0  0  0  0  0  0  0  0
   11.3097   17.3805  -14.5985 O   0  0  0  0  0  0  0  0  0  0  0  0
   13.2696   12.3004  -11.8192 C   0  0  2  0  0  0  0  0  0  0  0  0
   10.5454   10.5283   -7.5072 C   0  0  2  0  0  0  0  0  0  0  0  0
   11.5263   10.7587   -8.5157 O   0  0  0  0  0  0  0  0  0  0  0  0
   15.2051   11.8856   -5.2251 C   0  0  2  0  0  0  0  0  0  0  0  0
   15.0436   11.4916   -3.8631 O   0  0  0  0  0  0  0  0  0  0  0  0
   11.7269   16.1706  -12.5118 C   0  0  2  0  0  0  0  0  0  0  0  0
   11.2784   15.0143  -11.7362 O   0  0  0  0  0  0  0  0  0  0  0  0
   12.1803   11.3149  -11.3422 C   0  0  2  0  0  0  0  0  0  0  0  0
   11.3071   12.0977  -10.4823 O   0  0  0  0  0  0  0  0  0  0  0  0
    9.3829    9.6390   -8.0476 C   0  0  0  0  0  0  0  0  0  0  0  0
    9.3214    9.7560   -9.4658 O   0  0  0  0  0  0  0  0  0  0  0  0
   14.5653   13.3057   -5.4614 C   0  0  1  0  0  0  0  0  0  0  0  0
   13.1297   13.1626   -5.1630 O   0  0  0  0  0  0  0  0  0  0  0  0
   11.6206   17.4093  -11.6526 C   0  0  0  0  0  0  0  0  0  0  0  0
   12.0241   18.5421  -12.3829 O   0  0  0  0  0  0  0  0  0  0  0  0
   12.8380   10.1181  -10.5355 C   0  0  1  0  0  0  0  0  0  0  0  0
   11.8508    9.1307  -10.2254 O   0  0  0  0  0  0  0  0  0  0  0  0
   15.1999   14.4587   -4.5689 C   0  0  0  0  0  0  0  0  0  0  0  0
   15.4651   15.7435   -5.2729 N   0  0  0  0  0  0  0  0  0  0  0  0
  1  2  1  6  0  0  0
  1  7  1  0  0  0  0
  1 30  1  0  0  0  0
  3  4  1  1  0  0  0
  3  9  1  0  0  0  0
  3 39  1  0  0  0  0
  5 10  1  0  0  0  0
  5 26  1  0  0  0  0
  5 32  1  6  0  0  0
  6 12  1  0  0  0  0
  6 36  1  0  0  0  0
  6 19  1  1  0  0  0
  7  8  1  6  0  0  0
  7 14  1  0  0  0  0
  9 16  1  0  0  0  0
 10 11  1  1  0  0  0
 10 18  1  0  0  0  0
 12 13  1  1  0  0  0
 12 20  1  0  0  0  0
 14 15  1  6  0  0  0
 14 22  1  0  0  0  0
 16 17  1  1  0  0  0
 16 24  1  0  0  0  0
 18 19  1  1  0  0  0
 18 25  1  0  0  0  0
 20 21  1  6  0  0  0
 20 27  1  0  0  0  0
 22 23  1  6  0  0  0
 22 29  1  0  0  0  0
 24  2  1  6  0  0  0
 24 31  1  0  0  0  0
 25 26  1  0  0  0  0
 25 33  1  6  0  0  0
 27 28  1  1  0  0  0
 27 35  1  0  0  0  0
 29 30  1  0  0  0  0
 29 37  1  1  0  0  0
 31 32  1  1  0  0  0
 31 39  1  0  0  0  0
 33 34  1  0  0  0  0
 35 36  1  0  0  0  0
 35 41  1  1  0  0  0
 37 38  1  0  0  0  0
 39 40  1  6  0  0  0
 41 42  1  0  0  0  0
M  END
>  <CHROM.1>
-136.93081262,-170.88145566,-72.49951065,-69.62363473,155.72500642,92.81060375
-57.05069586,-96.03700633,136.81588806,12.36675813,12.66619195,-9.67921838
2.73369603,-1.33113562,-0.00886102

>  <Name>
2o3w_lig

>  <RI>
0

>  <Rbt.Current_Directory>
/home/itssahil/PROJECTS/Mol_Feturizer/New_Systems/rnas/2o3w

>  <Rbt.Executable>
rbdock ($Id: //depot/dev/client3/rdock/2013.1/src/exe/rbdock.cxx#4 $)

>  <Rbt.Library>
libRbt.so (2013.1, Build901 2013/11/27)

>  <Rbt.Parameter_File>
/export/apps/rDock/src/rDock_2013.1_src/data/scripts/dock_solv.prm

>  <Rbt.Receptor>
prm/blind_docking_60.prm

>  <SCORE>
25.6844

>  <SCORE.INTER>
1.51527

>  <SCORE.INTER.CONST>
1

>  <SCORE.INTER.POLAR>
-0.973528

>  <SCORE.INTER.ROT>
9

>  <SCORE.INTER.SOLV>
35.7043

>  <SCORE.INTER.VDW>
-17.2462

>  <SCORE.INTER.norm>
0.0360778

>  <SCORE.INTRA>
6.79134

>  <SCORE.INTRA.DIHEDRAL>
-5.74814

>  <SCORE.INTRA.DIHEDRAL.0>
27.8999

>  <SCORE.INTRA.POLAR>
0

>  <SCORE.INTRA.POLAR.0>
0

>  <SCORE.INTRA.REPUL>
0

>  <SCORE.INTRA.REPUL.0>
0

>  <SCORE.INTRA.SOLV>
-1.70685

>  <SCORE.INTRA.SOLV.lig_0>
-104.479

>  <SCORE.INTRA.VDW>
10.5188

>  <SCORE.INTRA.VDW.0>
-6.17816

>  <SCORE.INTRA.norm>
0.161698

>  <SCORE.RESTR>
17.3778

>  <SCORE.RESTR.CAVITY>
17.3778

>  <SCORE.RESTR.norm>
0.413757

>  <SCORE.SYSTEM>
0

>  <SCORE.SYSTEM.CONST>
0

>  <SCORE.SYSTEM.DIHEDRAL>
0

>  <SCORE.SYSTEM.SOLV>
0

>  <SCORE.SYSTEM.norm>
0

>  <SCORE.heavy>
42

>  <SCORE.norm>
0.611534

>  <RMSD>
18.724

$$$$
2o3w_lig
 OpenBabel11021811463D
libRbt.so/2013.1/901 2013/11/27
 42 45  0  0  0  0  0  0  0  0999 V2000
   12.4228   14.1690  -11.7955 C   0  0  2  0  0  0  0  0  0  0  0  0
   12.9973   13.0502  -12.4923 O   0  0  0  0  0  0  0  0  0  0  0  0
   14.6696    9.2144  -11.3581 C   0  0  2  0  0  0  0  0  0  0  0  0
   15.4140    8.1390  -10.6372 N   0  0  0  0  0  0  0  0  0  0  0  0
   12.7303   12.4924   -9.0137 C   0  0  1  0  0  0  0  0  0  0  0  0
   13.9038   13.9430   -5.0634 C   0  0  1  0  0  0  0  0  0  0  0  0
   10.8778   14.0706  -11.9723 C   0  0  2  0  0  0  0  0  0  0  0  0
   10.3571   12.7317  -11.6455 N   0  0  0  0  0  0  0  0  0  0  0  0
   15.6569   10.3029  -11.9431 C   0  0  0  0  0  0  0  0  0  0  0  0
   11.7173   13.2212   -8.0791 C   0  0  2  0  0  0  0  0  0  0  0  0
   11.4862   14.6082   -8.4280 O   0  0  0  0  0  0  0  0  0  0  0  0
   14.8301   15.1533   -4.6811 C   0  0  2  0  0  0  0  0  0  0  0  0
   15.8771   15.3737   -5.7232 N   0  0  0  0  0  0  0  0  0  0  0  0
   10.4336   14.3809  -13.4136 C   0  0  1  0  0  0  0  0  0  0  0  0
    9.0103   14.3180  -13.5198 O   0  0  0  0  0  0  0  0  0  0  0  0
   14.8174   11.3945  -12.7087 C   0  0  2  0  0  0  0  0  0  0  0  0
   15.7176   12.4290  -13.2858 N   0  0  0  0  0  0  0  0  0  0  0  0
   12.3513   12.9799   -6.7083 C   0  0  2  0  0  0  0  0  0  0  0  0
   13.2825   14.0501   -6.3503 O   0  0  0  0  0  0  0  0  0  0  0  0
   15.4928   14.8798   -3.2483 C   0  0  1  0  0  0  0  0  0  0  0  0
   14.4847   15.0511   -2.2269 O   0  0  0  0  0  0  0  0  0  0  0  0
   10.9699   15.7693  -13.8308 C   0  0  2  0  0  0  0  0  0  0  0  0
   10.5576   16.0757  -15.1425 O   0  0  0  0  0  0  0  0  0  0  0  0
   13.7769   12.0795  -11.7371 C   0  0  2  0  0  0  0  0  0  0  0  0
   13.0713   11.6244   -6.8063 C   0  0  2  0  0  0  0  0  0  0  0  0
   13.4590   11.5651   -8.1769 O   0  0  0  0  0  0  0  0  0  0  0  0
   16.1338   13.4162   -3.1285 C   0  0  2  0  0  0  0  0  0  0  0  0
   17.2819   13.3780   -3.9752 O   0  0  0  0  0  0  0  0  0  0  0  0
   12.5316   15.7651  -13.7287 C   0  0  2  0  0  0  0  0  0  0  0  0
   12.9344   15.4354  -12.3616 O   0  0  0  0  0  0  0  0  0  0  0  0
   12.8122   11.0667  -11.0823 C   0  0  2  0  0  0  0  0  0  0  0  0
   12.0643   11.8328  -10.0983 O   0  0  0  0  0  0  0  0  0  0  0  0
   12.2035   10.3883   -6.4146 C   0  0  0  0  0  0  0  0  0  0  0  0
   12.1139   10.3072   -4.9953 O   0  0  0  0  0  0  0  0  0  0  0  0
   15.0949   12.3166   -3.5687 C   0  0  1  0  0  0  0  0  0  0  0  0
   14.6963   12.6580   -4.9452 O   0  0  0  0  0  0  0  0  0  0  0  0
   13.1432   17.0921  -14.1142 C   0  0  0  0  0  0  0  0  0  0  0  0
   14.5185   16.9372  -14.3669 O   0  0  0  0  0  0  0  0  0  0  0  0
   13.6307    9.9015  -10.3838 C   0  0  1  0  0  0  0  0  0  0  0  0
   12.7397    8.8878   -9.9103 O   0  0  0  0  0  0  0  0  0  0  0  0
   15.6607   10.8316   -3.5127 C   0  0  0  0  0  0  0  0  0  0  0  0
   14.7991    9.7919   -4.1398 N   0  0  0  0  0  0  0  0  0  0  0  0
  1  2  1  6  0  0  0
  1  7  1  0  0  0  0
  1 30  1  0  0  0  0
  3  4  1  1  0  0  0
  3  9  1  0  0  0  0
  3 39  1  0  0  0  0
  5 10  1  0  0  0  0
  5 26  1  0  0  0  0
  5 32  1  6  0  0  0
  6 12  1  0  0  0  0
  6 36  1  0  0  0  0
  6 19  1  6  0  0  0
  7  8  1  6  0  0  0
  7 14  1  0  0  0  0
  9 16  1  0  0  0  0
 10 11  1  6  0  0  0
 10 18  1  0  0  0  0
 12 13  1  6  0  0  0
 12 20  1  0  0  0  0
 14 15  1  1  0  0  0
 14 22  1  0  0  0  0
 16 17  1  1  0  0  0
 16 24  1  0  0  0  0
 18 19  1  6  0  0  0
 18 25  1  0  0  0  0
 20 21  1  1  0  0  0
 20 27  1  0  0  0  0
 22 23  1  6  0  0  0
 22 29  1  0  0  0  0
 24  2  1  6  0  0  0
 24 31  1  0  0  0  0
 25 26  1  0  0  0  0
 25 33  1  6  0  0  0
 27 28  1  6  0  0  0
 27 35  1  0  0  0  0
 29 30  1  0  0  0  0
 29 37  1  1  0  0  0
 31 32  1  1  0  0  0
 31 39  1  0  0  0  0
 33 34  1  0  0  0  0
 35 36  1  0  0  0  0
 35 41  1  6  0  0  0
 37 38  1  0  0  0  0
 39 40  1  6  0  0  0
 41 42  1  0  0  0  0
M  END
>  <CHROM.1>
-119.04743525,-178.81941579,-176.53910094,178.18577348,-153.62076941,-77.71848277
-163.65487329,-60.54343836,-169.82137692,13.38224254,12.95042239,-9.06475066
2.78040034,1.27112394,-2.59226069

>  <Name>
2o3w_lig

>  <RI>
0

>  <Rbt.Current_Directory>
/home/itssahil/PROJECTS/Mol_Feturizer/New_Systems/rnas/2o3w

>  <Rbt.Executable>
rbdock ($Id: //depot/dev/client3/rdock/2013.1/src/exe/rbdock.cxx#4 $)

>  <Rbt.Library>
libRbt.so (2013.1, Build901 2013/11/27)

>  <Rbt.Parameter_File>
/export/apps/rDock/src/rDock_2013.1_src/data/scripts/dock_solv.prm

>  <Rbt.Receptor>
prm/blind_docking_80.prm

>  <SCORE>
0.364758

>  <SCORE.INTER>
-4.26804

>  <SCORE.INTER.CONST>
1

>  <SCORE.INTER.POLAR>
-1.21641

>  <SCORE.INTER.ROT>
9

>  <SCORE.INTER.SOLV>
37.5223

>  <SCORE.INTER.VDW>
-20.8981

>  <SCORE.INTER.norm>
-0.10162

>  <SCORE.INTRA>
-4.82952

>  <SCORE.INTRA.DIHEDRAL>
-15.2335

>  <SCORE.INTRA.DIHEDRAL.0>
27.8999

>  <SCORE.INTRA.POLAR>
0

>  <SCORE.INTRA.POLAR.0>
0

>  <SCORE.INTRA.REPUL>
0

>  <SCORE.INTRA.REPUL.0>
0

>  <SCORE.INTRA.SOLV>
0.662444

>  <SCORE.INTRA.SOLV.lig_0>
-104.479

>  <SCORE.INTRA.VDW>
2.45602

>  <SCORE.INTRA.VDW.0>
-6.17816

>  <SCORE.INTRA.norm>
-0.114989

>  <SCORE.RESTR>
9.46232

>  <SCORE.RESTR.CAVITY>
9.46232

>  <SCORE.RESTR.norm>
0.225293

>  <SCORE.SYSTEM>
0

>  <SCORE.SYSTEM.CONST>
0

>  <SCORE.SYSTEM.DIHEDRAL>
0

>  <SCORE.SYSTEM.SOLV>
0

>  <SCORE.SYSTEM.norm>
0

>  <SCORE.heavy>
42

>  <SCORE.norm>
0.00868471

>  <RMSD>
18.725

$$$$
2o3w_lig
 OpenBabel11021811463D
libRbt.so/2013.1/901 2013/11/27
 42 45  0  0  0  0  0  0  0  0999 V2000
   11.9112   14.5378  -11.0783 C   0  0  2  0  0  0  0  0  0  0  0  0
   11.3320   13.3936  -11.7284 O   0  0  0  0  0  0  0  0  0  0  0  0
   12.6697    9.3910  -12.7216 C   0  0  2  0  0  0  0  0  0  0  0  0
   13.5041    8.2331  -13.1611 N   0  0  0  0  0  0  0  0  0  0  0  0
   13.1848   12.1012   -8.6890 C   0  0  1  0  0  0  0  0  0  0  0  0
   13.4112   12.2736   -5.7124 C   0  0  1  0  0  0  0  0  0  0  0  0
   10.7327   15.3772  -10.4995 C   0  0  2  0  0  0  0  0  0  0  0  0
    9.7902   14.5600   -9.7156 N   0  0  0  0  0  0  0  0  0  0  0  0
   12.4090   10.3963  -13.9146 C   0  0  0  0  0  0  0  0  0  0  0  0
   11.8925   12.8261   -8.2041 C   0  0  2  0  0  0  0  0  0  0  0  0
   12.1035   14.2027   -7.8050 O   0  0  0  0  0  0  0  0  0  0  0  0
   14.0713   10.8832   -5.3965 C   0  0  2  0  0  0  0  0  0  0  0  0
   13.5063   10.2967   -4.1444 N   0  0  0  0  0  0  0  0  0  0  0  0
    9.9108   16.0687  -11.6027 C   0  0  1  0  0  0  0  0  0  0  0  0
    8.8682   16.8570  -11.0260 O   0  0  0  0  0  0  0  0  0  0  0  0
   11.5080   11.5804  -13.3965 C   0  0  2  0  0  0  0  0  0  0  0  0
   11.2301   12.5400  -14.4991 N   0  0  0  0  0  0  0  0  0  0  0  0
   11.4190   11.8812   -7.0985 C   0  0  2  0  0  0  0  0  0  0  0  0
   11.9809   12.2496   -5.7987 O   0  0  0  0  0  0  0  0  0  0  0  0
   15.6588   11.0657   -5.2811 C   0  0  1  0  0  0  0  0  0  0  0  0
   16.2036   11.2651   -6.6049 O   0  0  0  0  0  0  0  0  0  0  0  0
   10.8478   16.9281  -12.4817 C   0  0  2  0  0  0  0  0  0  0  0  0
   10.1078   17.5814  -13.4867 O   0  0  0  0  0  0  0  0  0  0  0  0
   12.2136   12.3357  -12.2017 C   0  0  2  0  0  0  0  0  0  0  0  0
   11.8700   10.4730   -7.5216 C   0  0  2  0  0  0  0  0  0  0  0  0
   13.0642   10.7261   -8.2581 O   0  0  0  0  0  0  0  0  0  0  0  0
   16.0772   12.2924   -4.3390 C   0  0  2  0  0  0  0  0  0  0  0  0
   15.7420   11.9394   -2.9976 O   0  0  0  0  0  0  0  0  0  0  0  0
   11.9437   16.0061  -13.1128 C   0  0  2  0  0  0  0  0  0  0  0  0
   12.6910   15.3325  -12.0510 O   0  0  0  0  0  0  0  0  0  0  0  0
   12.5510   11.4018  -11.0188 C   0  0  2  0  0  0  0  0  0  0  0  0
   13.3473   12.2100  -10.1092 O   0  0  0  0  0  0  0  0  0  0  0  0
   10.8367    9.6819   -8.3823 C   0  0  0  0  0  0  0  0  0  0  0  0
    9.7604    9.2566   -7.5520 O   0  0  0  0  0  0  0  0  0  0  0  0
   15.3156   13.6045   -4.7640 C   0  0  1  0  0  0  0  0  0  0  0  0
   13.8792   13.2865   -4.6887 O   0  0  0  0  0  0  0  0  0  0  0  0
   12.9121   16.7685  -13.9872 C   0  0  0  0  0  0  0  0  0  0  0  0
   12.2096   17.5355  -14.9346 O   0  0  0  0  0  0  0  0  0  0  0  0
   13.3785   10.1481  -11.5279 C   0  0  1  0  0  0  0  0  0  0  0  0
   13.5596    9.2109  -10.4627 O   0  0  0  0  0  0  0  0  0  0  0  0
   15.6471   14.8682   -3.8575 C   0  0  0  0  0  0  0  0  0  0  0  0
   15.2248   14.7655   -2.4335 N   0  0  0  0  0  0  0  0  0  0  0  0
  1  2  1  6  0  0  0
  1  7  1  0  0  0  0
  1 30  1  0  0  0  0
  3  4  1  6  0  0  0
  3  9  1  0  0  0  0
  3 39  1  0  0  0  0
  5 10  1  0  0  0  0
  5 26  1  0  0  0  0
  5 32  1  6  0  0  0
  6 12  1  0  0  0  0
  6 36  1  0  0  0  0
  6 19  1  1  0  0  0
  7  8  1  6  0  0  0
  7 14  1  0  0  0  0
  9 16  1  0  0  0  0
 10 11  1  1  0  0  0
 10 18  1  0  0  0  0
 12 13  1  1  0  0  0
 12 20  1  0  0  0  0
 14 15  1  1  0  0  0
 14 22  1  0  0  0  0
 16 17  1  6  0  0  0
 16 24  1  0  0  0  0
 18 19  1  1  0  0  0
 18 25  1  0  0  0  0
 20 21  1  6  0  0  0
 20 27  1  0  0  0  0
 22 23  1  6  0  0  0
 22 29  1  0  0  0  0
 24  2  1  1  0  0  0
 24 31  1  0  0  0  0
 25 26  1  0  0  0  0
 25 33  1  6  0  0  0
 27 28  1  1  0  0  0
 27 35  1  0  0  0  0
 29 30  1  0  0  0  0
 29 37  1  1  0  0  0
 31 32  1  1  0  0  0
 31 39  1  0  0  0  0
 33 34  1  0  0  0  0
 35 36  1  0  0  0  0
 35 41  1  1  0  0  0
 37 38  1  0  0  0  0
 39 40  1  1  0  0  0
 41 42  1  0  0  0  0
M  END
>  <CHROM.1>
-171.60062082,-76.21714380,-85.32451557,-58.34902912,-154.20525813,-73.16599808
-52.12817896,141.21747851,-64.55296543,12.62288384,12.84005174,-9.23602490
3.05053164,1.22929828,-2.72657784

>  <Name>
2o3w_lig

>  <RI>
0

>  <Rbt.Current_Directory>
/home/itssahil/PROJECTS/Mol_Feturizer/New_Systems/rnas/2o3w

>  <Rbt.Executable>
rbdock ($Id: //depot/dev/client3/rdock/2013.1/src/exe/rbdock.cxx#4 $)

>  <Rbt.Library>
libRbt.so (2013.1, Build901 2013/11/27)

>  <Rbt.Parameter_File>
/export/apps/rDock/src/rDock_2013.1_src/data/scripts/dock_solv.prm

>  <Rbt.Receptor>
prm/blind_docking_60.prm

>  <SCORE>
-4.13725

>  <SCORE.INTER>
-14.5357

>  <SCORE.INTER.CONST>
1

>  <SCORE.INTER.POLAR>
-1.03834

>  <SCORE.INTER.ROT>
9

>  <SCORE.INTER.SOLV>
27.4877

>  <SCORE.INTER.VDW>
-24.9919

>  <SCORE.INTER.norm>
-0.346089

>  <SCORE.INTRA>
-5.81882

>  <SCORE.INTRA.DIHEDRAL>
-14.5998

>  <SCORE.INTRA.DIHEDRAL.0>
27.8999

>  <SCORE.INTRA.POLAR>
0

>  <SCORE.INTRA.POLAR.0>
0

>  <SCORE.INTRA.REPUL>
0

>  <SCORE.INTRA.REPUL.0>
0

>  <SCORE.INTRA.SOLV>
0.817383

>  <SCORE.INTRA.SOLV.lig_0>
-104.479

>  <SCORE.INTRA.VDW>
1.07241

>  <SCORE.INTRA.VDW.0>
-6.17816

>  <SCORE.INTRA.norm>
-0.138543

>  <SCORE.RESTR>
16.2173

>  <SCORE.RESTR.CAVITY>
16.2173

>  <SCORE.RESTR.norm>
0.386126

>  <SCORE.SYSTEM>
0

>  <SCORE.SYSTEM.CONST>
0

>  <SCORE.SYSTEM.DIHEDRAL>
0

>  <SCORE.SYSTEM.SOLV>
0

>  <SCORE.SYSTEM.norm>
0

>  <SCORE.heavy>
42

>  <SCORE.norm>
-0.098506

>  <RMSD>
18.751

$$$$
2o3w_lig
 OpenBabel11021811463D
libRbt.so/2013.1/901 2013/11/27
 42 45  0  0  0  0  0  0  0  0999 V2000
   11.4702   13.0303   -6.6653 C   0  0  2  0  0  0  0  0  0  0  0  0
   11.4845   12.9726   -8.1019 O   0  0  0  0  0  0  0  0  0  0  0  0
    9.6638   15.7110  -10.9271 C   0  0  2  0  0  0  0  0  0  0  0  0
    9.3729   16.9124  -11.7653 N   0  0  0  0  0  0  0  0  0  0  0  0
   13.3878   12.3096  -10.8099 C   0  0  1  0  0  0  0  0  0  0  0  0
   14.6098    9.5006  -11.9905 C   0  0  1  0  0  0  0  0  0  0  0  0
   12.2666   14.3046   -6.2532 C   0  0  2  0  0  0  0  0  0  0  0  0
   11.8242   15.5062   -6.9819 N   0  0  0  0  0  0  0  0  0  0  0  0
    9.5120   16.0356   -9.3865 C   0  0  0  0  0  0  0  0  0  0  0  0
   13.0424   11.2714   -9.6992 C   0  0  2  0  0  0  0  0  0  0  0  0
   14.0914   11.0884   -8.7167 O   0  0  0  0  0  0  0  0  0  0  0  0
   14.1084    8.7242  -13.2611 C   0  0  2  0  0  0  0  0  0  0  0  0
   14.1060    7.2503  -13.0192 N   0  0  0  0  0  0  0  0  0  0  0  0
   13.7775   14.1587   -6.5120 C   0  0  1  0  0  0  0  0  0  0  0  0
   14.4711   15.3318   -6.0837 O   0  0  0  0  0  0  0  0  0  0  0  0
    9.8084   14.7285   -8.5581 C   0  0  2  0  0  0  0  0  0  0  0  0
    9.6602   14.9943   -7.1017 N   0  0  0  0  0  0  0  0  0  0  0  0
   12.7000   10.0402  -10.5395 C   0  0  2  0  0  0  0  0  0  0  0  0
   13.8815    9.2142  -10.7900 O   0  0  0  0  0  0  0  0  0  0  0  0
   15.0369    9.1007  -14.5113 C   0  0  1  0  0  0  0  0  0  0  0  0
   14.7190   10.4433  -14.9418 O   0  0  0  0  0  0  0  0  0  0  0  0
   14.3044   12.8967   -5.7916 C   0  0  2  0  0  0  0  0  0  0  0  0
   15.6900   12.7580   -6.0049 O   0  0  0  0  0  0  0  0  0  0  0  0
   11.2673   14.1999   -8.8548 C   0  0  2  0  0  0  0  0  0  0  0  0
   12.1052   10.5749  -11.8532 C   0  0  2  0  0  0  0  0  0  0  0  0
   12.7763   11.8208  -12.0258 O   0  0  0  0  0  0  0  0  0  0  0  0
   16.6008    9.0012  -14.1769 C   0  0  2  0  0  0  0  0  0  0  0  0
   16.9175    7.6206  -14.0041 O   0  0  0  0  0  0  0  0  0  0  0  0
   13.5342   11.6440   -6.3272 C   0  0  2  0  0  0  0  0  0  0  0  0
   12.0989   11.8160   -6.1031 O   0  0  0  0  0  0  0  0  0  0  0  0
   11.5076   13.9142  -10.3534 C   0  0  2  0  0  0  0  0  0  0  0  0
   12.9279   13.6225  -10.4638 O   0  0  0  0  0  0  0  0  0  0  0  0
   10.5570   10.7678  -11.8443 C   0  0  0  0  0  0  0  0  0  0  0  0
   10.1134   11.0730  -13.1629 O   0  0  0  0  0  0  0  0  0  0  0  0
   16.9414    9.8070  -12.8666 C   0  0  1  0  0  0  0  0  0  0  0  0
   16.0902    9.2413  -11.8056 O   0  0  0  0  0  0  0  0  0  0  0  0
   13.9835   10.3599   -5.6691 C   0  0  0  0  0  0  0  0  0  0  0  0
   13.6671   10.3810   -4.2984 O   0  0  0  0  0  0  0  0  0  0  0  0
   11.1254   15.1847  -11.2226 C   0  0  1  0  0  0  0  0  0  0  0  0
   11.2032   14.8710  -12.6158 O   0  0  0  0  0  0  0  0  0  0  0  0
   18.4718    9.7341  -12.4409 C   0  0  0  0  0  0  0  0  0  0  0  0
   18.7858   10.2544  -11.0817 N   0  0  0  0  0  0  0  0  0  0  0  0
  1  2  1  6  0  0  0
  1  7  1  0  0  0  0
  1 30  1  0  0  0  0
  3  4  1  6  0  0  0
  3  9  1  0  0  0  0
  3 39  1  0  0  0  0
  5 10  1  0  0  0  0
  5 26  1  0  0  0  0
  5 32  1  1  0  0  0
  6 12  1  0  0  0  0
  6 36  1  0  0  0  0
  6 19  1  1  0  0  0
  7  8  1  6  0  0  0
  7 14  1  0  0  0  0
  9 16  1  0  0  0  0
 10 11  1  1  0  0  0
 10 18  1  0  0  0  0
 12 13  1  1  0  0  0
 12 20  1  0  0  0  0
 14 15  1  1  0  0  0
 14 22  1  0  0  0  0
 16 17  1  1  0  0  0
 16 24  1  0  0  0  0
 18 19  1  6  0  0  0
 18 25  1  0  0  0  0
 20 21  1  1  0  0  0
 20 27  1  0  0  0  0
 22 23  1  6  0  0  0
 22 29  1  0  0  0  0
 24  2  1  1  0  0  0
 24 31  1  0  0  0  0
 25 26  1  0  0  0  0
 25 33  1  1  0  0  0
 27 28  1  1  0  0  0
 27 35  1  0  0  0  0
 29 30  1  0  0  0  0
 29 37  1  1  0  0  0
 31 32  1  1  0  0  0
 31 39  1  0  0  0  0
 33 34  1  0  0  0  0
 35 36  1  0  0  0  0
 35 41  1  1  0  0  0
 37 38  1  0  0  0  0
 39 40  1  6  0  0  0
 41 42  1  0  0  0  0
M  END
>  <CHROM.1>
-42.62672670,-65.87077477,-88.31275853,-91.61403246,-63.85827490,-171.49796957
64.91470448,112.63394315,-168.65949471,13.20636661,11.98135012,-9.98531274
-2.25006841,0.71781847,-1.84301852

>  <Name>
2o3w_lig

>  <RI>
0

>  <Rbt.Current_Directory>
/home/itssahil/PROJECTS/Mol_Feturizer/New_Systems/rnas/2o3w

>  <Rbt.Executable>
rbdock ($Id: //depot/dev/client3/rdock/2013.1/src/exe/rbdock.cxx#4 $)

>  <Rbt.Library>
libRbt.so (2013.1, Build901 2013/11/27)

>  <Rbt.Parameter_File>
/export/apps/rDock/src/rDock_2013.1_src/data/scripts/dock_solv.prm

>  <Rbt.Receptor>
prm/blind_docking_40.prm

>  <SCORE>
33.3031

>  <SCORE.INTER>
4.67955

>  <SCORE.INTER.CONST>
1

>  <SCORE.INTER.POLAR>
-1.0139

>  <SCORE.INTER.ROT>
9

>  <SCORE.INTER.SOLV>
28.1498

>  <SCORE.INTER.VDW>
-12.4839

>  <SCORE.INTER.norm>
0.111418

>  <SCORE.INTRA>
11.7442

>  <SCORE.INTRA.DIHEDRAL>
-11.2767

>  <SCORE.INTRA.DIHEDRAL.0>
27.8999

>  <SCORE.INTRA.POLAR>
0

>  <SCORE.INTRA.POLAR.0>
0

>  <SCORE.INTRA.REPUL>
0

>  <SCORE.INTRA.REPUL.0>
0

>  <SCORE.INTRA.SOLV>
4.23948

>  <SCORE.INTRA.SOLV.lig_0>
-104.479

>  <SCORE.INTRA.VDW>
15.2629

>  <SCORE.INTRA.VDW.0>
-6.17816

>  <SCORE.INTRA.norm>
0.279625

>  <SCORE.RESTR>
16.8793

>  <SCORE.RESTR.CAVITY>
16.8793

>  <SCORE.RESTR.norm>
0.401887

>  <SCORE.SYSTEM>
0

>  <SCORE.SYSTEM.CONST>
0

>  <SCORE.SYSTEM.DIHEDRAL>
0

>  <SCORE.SYSTEM.SOLV>
0

>  <SCORE.SYSTEM.norm>
0

>  <SCORE.heavy>
42

>  <SCORE.norm>
0.79293

>  <RMSD>
18.755

$$$$
2o3w_lig
 OpenBabel11021811463D
libRbt.so/2013.1/901 2013/11/27
 42 45  0  0  0  0  0  0  0  0999 V2000
   12.8683   11.9058  -12.0965 C   0  0  2  0  0  0  0  0  0  0  0  0
   12.1986   11.7295  -10.8364 O   0  0  0  0  0  0  0  0  0  0  0  0
   12.1835   13.4131   -6.8412 C   0  0  2  0  0  0  0  0  0  0  0  0
   12.5423   14.1956   -5.6209 N   0  0  0  0  0  0  0  0  0  0  0  0
   10.5036   14.9441  -11.2342 C   0  0  1  0  0  0  0  0  0  0  0  0
    7.0583   16.8668  -11.1140 C   0  0  1  0  0  0  0  0  0  0  0  0
   12.3478   10.7875  -13.0487 C   0  0  2  0  0  0  0  0  0  0  0  0
   10.8769   10.7056  -13.0711 N   0  0  0  0  0  0  0  0  0  0  0  0
   13.2951   12.3410   -7.1831 C   0  0  0  0  0  0  0  0  0  0  0  0
    9.9030   16.2256  -10.5800 C   0  0  2  0  0  0  0  0  0  0  0  0
    8.9010   15.9567   -9.5687 O   0  0  0  0  0  0  0  0  0  0  0  0
    5.5700   16.6181  -11.5524 C   0  0  2  0  0  0  0  0  0  0  0  0
    5.2238   17.4363  -12.7531 N   0  0  0  0  0  0  0  0  0  0  0  0
   12.8648    9.3930  -12.6500 C   0  0  1  0  0  0  0  0  0  0  0  0
   12.3963    8.4067  -13.5712 O   0  0  0  0  0  0  0  0  0  0  0  0
   12.8507   11.5351   -8.4620 C   0  0  2  0  0  0  0  0  0  0  0  0
   13.8687   10.5057   -8.8045 N   0  0  0  0  0  0  0  0  0  0  0  0
    9.4122   16.9863  -11.8128 C   0  0  2  0  0  0  0  0  0  0  0  0
    8.0295   16.6404  -12.1432 O   0  0  0  0  0  0  0  0  0  0  0  0
    4.5946   16.9537  -10.3265 C   0  0  1  0  0  0  0  0  0  0  0  0
    4.7055   15.9032   -9.3401 O   0  0  0  0  0  0  0  0  0  0  0  0
   14.4090    9.4152  -12.5839 C   0  0  2  0  0  0  0  0  0  0  0  0
   14.8991    8.1410  -12.2363 O   0  0  0  0  0  0  0  0  0  0  0  0
   12.6463   12.5078   -9.6900 C   0  0  2  0  0  0  0  0  0  0  0  0
   10.3697   16.6065  -12.9549 C   0  0  2  0  0  0  0  0  0  0  0  0
   10.7610   15.2778  -12.6175 O   0  0  0  0  0  0  0  0  0  0  0  0
    4.9178   18.3667   -9.6433 C   0  0  2  0  0  0  0  0  0  0  0  0
    4.5548   19.3875  -10.5720 O   0  0  0  0  0  0  0  0  0  0  0  0
   14.8597   10.4861  -11.5353 C   0  0  2  0  0  0  0  0  0  0  0  0
   14.3312   11.7969  -11.9125 O   0  0  0  0  0  0  0  0  0  0  0  0
   11.6119   13.6194   -9.4079 C   0  0  2  0  0  0  0  0  0  0  0  0
   11.6888   14.5123  -10.5531 O   0  0  0  0  0  0  0  0  0  0  0  0
   11.6133   17.5362  -13.1077 C   0  0  0  0  0  0  0  0  0  0  0  0
   11.1816   18.8429  -13.4752 O   0  0  0  0  0  0  0  0  0  0  0  0
    6.4484   18.4740   -9.2857 C   0  0  1  0  0  0  0  0  0  0  0  0
    7.1791   18.2661  -10.5479 O   0  0  0  0  0  0  0  0  0  0  0  0
   16.3628   10.5803  -11.4097 C   0  0  0  0  0  0  0  0  0  0  0  0
   16.9182   11.0837  -12.6002 O   0  0  0  0  0  0  0  0  0  0  0  0
   11.9823   14.3873   -8.0704 C   0  0  1  0  0  0  0  0  0  0  0  0
   10.9461   15.3123   -7.7294 O   0  0  0  0  0  0  0  0  0  0  0  0
    6.8649   19.8624   -8.6319 C   0  0  0  0  0  0  0  0  0  0  0  0
    8.3294   20.1022   -8.5118 N   0  0  0  0  0  0  0  0  0  0  0  0
  1  2  1  1  0  0  0
  1  7  1  0  0  0  0
  1 30  1  0  0  0  0
  3  4  1  1  0  0  0
  3  9  1  0  0  0  0
  3 39  1  0  0  0  0
  5 10  1  0  0  0  0
  5 26  1  0  0  0  0
  5 32  1  1  0  0  0
  6 12  1  0  0  0  0
  6 36  1  0  0  0  0
  6 19  1  6  0  0  0
  7  8  1  1  0  0  0
  7 14  1  0  0  0  0
  9 16  1  0  0  0  0
 10 11  1  1  0  0  0
 10 18  1  0  0  0  0
 12 13  1  6  0  0  0
 12 20  1  0  0  0  0
 14 15  1  6  0  0  0
 14 22  1  0  0  0  0
 16 17  1  6  0  0  0
 16 24  1  0  0  0  0
 18 19  1  6  0  0  0
 18 25  1  0  0  0  0
 20 21  1  1  0  0  0
 20 27  1  0  0  0  0
 22 23  1  1  0  0  0
 22 29  1  0  0  0  0
 24  2  1  6  0  0  0
 24 31  1  0  0  0  0
 25 26  1  0  0  0  0
 25 33  1  1  0  0  0
 27 28  1  6  0  0  0
 27 35  1  0  0  0  0
 29 30  1  0  0  0  0
 29 37  1  6  0  0  0
 31 32  1  6  0  0  0
 31 39  1  0  0  0  0
 33 34  1  0  0  0  0
 35 36  1  0  0  0  0
 35 41  1  6  0  0  0
 37 38  1  0  0  0  0
 39 40  1  1  0  0  0
 41 42  1  0  0  0  0
M  END
>  <CHROM.1>
170.47803986,87.47299645,174.25516022,57.78229428,-130.71165927,-64.90826683
66.82467080,131.54756274,-169.14758510,10.60472279,14.38732406,-10.73368756
0.30488949,0.74405791,-1.87408529

>  <Name>
2o3w_lig

>  <RI>
0

>  <Rbt.Current_Directory>
/home/itssahil/PROJECTS/Mol_Feturizer/New_Systems/rnas/2o3w

>  <Rbt.Executable>
rbdock ($Id: //depot/dev/client3/rdock/2013.1/src/exe/rbdock.cxx#4 $)

>  <Rbt.Library>
libRbt.so (2013.1, Build901 2013/11/27)

>  <Rbt.Parameter_File>
/export/apps/rDock/src/rDock_2013.1_src/data/scripts/dock_solv.prm

>  <Rbt.Receptor>
prm/blind_docking_100.prm

>  <SCORE>
4.46499

>  <SCORE.INTER>
0.325028

>  <SCORE.INTER.CONST>
1

>  <SCORE.INTER.POLAR>
-0.19133

>  <SCORE.INTER.ROT>
9

>  <SCORE.INTER.SOLV>
29.1868

>  <SCORE.INTER.VDW>
-18.4745

>  <SCORE.INTER.norm>
0.00773876

>  <SCORE.INTRA>
-3.67417

>  <SCORE.INTRA.DIHEDRAL>
-10.1866

>  <SCORE.INTRA.DIHEDRAL.0>
27.8999

>  <SCORE.INTRA.POLAR>
0

>  <SCORE.INTRA.POLAR.0>
0

>  <SCORE.INTRA.REPUL>
0

>  <SCORE.INTRA.REPUL.0>
0

>  <SCORE.INTRA.SOLV>
-2.32437

>  <SCORE.INTRA.SOLV.lig_0>
-104.479

>  <SCORE.INTRA.VDW>
2.58133

>  <SCORE.INTRA.VDW.0>
-6.17816

>  <SCORE.INTRA.norm>
-0.0874803

>  <SCORE.RESTR>
7.81413

>  <SCORE.RESTR.CAVITY>
7.81413

>  <SCORE.RESTR.norm>
0.186051

>  <SCORE.SYSTEM>
0

>  <SCORE.SYSTEM.CONST>
0

>  <SCORE.SYSTEM.DIHEDRAL>
0

>  <SCORE.SYSTEM.SOLV>
0

>  <SCORE.SYSTEM.norm>
0

>  <SCORE.heavy>
42

>  <SCORE.norm>
0.106309

>  <RMSD>
18.762

$$$$
2o3w_lig
 OpenBabel11021811463D
libRbt.so/2013.1/901 2013/11/27
 42 45  0  0  0  0  0  0  0  0999 V2000
   12.0713   14.4600  -11.1365 C   0  0  2  0  0  0  0  0  0  0  0  0
   11.5113   13.2590  -11.6944 O   0  0  0  0  0  0  0  0  0  0  0  0
   12.9305    9.2821  -12.6775 C   0  0  2  0  0  0  0  0  0  0  0  0
   13.7881    8.1405  -13.1152 N   0  0  0  0  0  0  0  0  0  0  0  0
   13.3312   12.0839   -8.6603 C   0  0  1  0  0  0  0  0  0  0  0  0
   13.4392   12.4024   -5.6920 C   0  0  1  0  0  0  0  0  0  0  0  0
   10.8788   15.3253  -10.6294 C   0  0  2  0  0  0  0  0  0  0  0  0
    9.9454   14.5595   -9.7850 N   0  0  0  0  0  0  0  0  0  0  0  0
   12.6462   10.2778  -13.8732 C   0  0  0  0  0  0  0  0  0  0  0  0
   12.0367   12.8570   -8.2637 C   0  0  2  0  0  0  0  0  0  0  0  0
   12.2621   14.2461   -7.9192 O   0  0  0  0  0  0  0  0  0  0  0  0
   14.0783   10.9987   -5.3921 C   0  0  2  0  0  0  0  0  0  0  0  0
   13.4626   10.3802   -4.1800 N   0  0  0  0  0  0  0  0  0  0  0  0
   10.0508   15.9143  -11.7864 C   0  0  1  0  0  0  0  0  0  0  0  0
    8.9948   16.7306  -11.2770 O   0  0  0  0  0  0  0  0  0  0  0  0
   11.7216   11.4445  -13.3570 C   0  0  2  0  0  0  0  0  0  0  0  0
   11.4214   12.3943  -14.4621 N   0  0  0  0  0  0  0  0  0  0  0  0
   11.4970   11.9744   -7.1372 C   0  0  2  0  0  0  0  0  0  0  0  0
   12.0131   12.3911   -5.8330 O   0  0  0  0  0  0  0  0  0  0  0  0
   15.6614   11.1664   -5.2114 C   0  0  1  0  0  0  0  0  0  0  0  0
   16.2573   11.4003   -6.5072 O   0  0  0  0  0  0  0  0  0  0  0  0
   10.9782   16.7145  -12.7290 C   0  0  2  0  0  0  0  0  0  0  0  0
   10.2324   17.2744  -13.7848 O   0  0  0  0  0  0  0  0  0  0  0  0
   12.4139   12.2183  -12.1662 C   0  0  2  0  0  0  0  0  0  0  0  0
   11.9332   10.5391   -7.4764 C   0  0  2  0  0  0  0  0  0  0  0  0
   13.1620   10.7331   -8.1726 O   0  0  0  0  0  0  0  0  0  0  0  0
   16.0510   12.3622   -4.2186 C   0  0  2  0  0  0  0  0  0  0  0  0
   15.6629   11.9728   -2.9017 O   0  0  0  0  0  0  0  0  0  0  0  0
   12.0897   15.7613  -13.2818 C   0  0  2  0  0  0  0  0  0  0  0  0
   12.8430   15.1859  -12.1677 O   0  0  0  0  0  0  0  0  0  0  0  0
   12.7733   11.2956  -10.9810 C   0  0  2  0  0  0  0  0  0  0  0  0
   13.5544   12.1233  -10.0758 O   0  0  0  0  0  0  0  0  0  0  0  0
   10.9187    9.7304   -8.3429 C   0  0  0  0  0  0  0  0  0  0  0  0
   10.8759   10.2826   -9.6552 O   0  0  0  0  0  0  0  0  0  0  0  0
   15.3141   13.6915   -4.6335 C   0  0  1  0  0  0  0  0  0  0  0  0
   13.8739   13.3818   -4.6220 O   0  0  0  0  0  0  0  0  0  0  0  0
   13.0501   16.4657  -14.2120 C   0  0  0  0  0  0  0  0  0  0  0  0
   13.5324   17.6426  -13.6106 O   0  0  0  0  0  0  0  0  0  0  0  0
   13.6258   10.0578  -11.4878 C   0  0  1  0  0  0  0  0  0  0  0  0
   13.8288    9.1282  -10.4201 O   0  0  0  0  0  0  0  0  0  0  0  0
   15.6185   14.9259   -3.6784 C   0  0  0  0  0  0  0  0  0  0  0  0
   15.1449   14.7835   -2.2741 N   0  0  0  0  0  0  0  0  0  0  0  0
  1  2  1  6  0  0  0
  1  7  1  0  0  0  0
  1 30  1  0  0  0  0
  3  4  1  6  0  0  0
  3  9  1  0  0  0  0
  3 39  1  0  0  0  0
  5 10  1  0  0  0  0
  5 26  1  0  0  0  0
  5 32  1  6  0  0  0
  6 12  1  0  0  0  0
  6 36  1  0  0  0  0
  6 19  1  1  0  0  0
  7  8  1  1  0  0  0
  7 14  1  0  0  0  0
  9 16  1  0  0  0  0
 10 11  1  1  0  0  0
 10 18  1  0  0  0  0
 12 13  1  1  0  0  0
 12 20  1  0  0  0  0
 14 15  1  1  0  0  0
 14 22  1  0  0  0  0
 16 17  1  6  0  0  0
 16 24  1  0  0  0  0
 18 19  1  1  0  0  0
 18 25  1  0  0  0  0
 20 21  1  6  0  0  0
 20 27  1  0  0  0  0
 22 23  1  6  0  0  0
 22 29  1  0  0  0  0
 24  2  1  1  0  0  0
 24 31  1  0  0  0  0
 25 26  1  0  0  0  0
 25 33  1  6  0  0  0
 27 28  1  1  0  0  0
 27 35  1  0  0  0  0
 29 30  1  0  0  0  0
 29 37  1  6  0  0  0
 31 32  1  1  0  0  0
 31 39  1  0  0  0  0
 33 34  1  0  0  0  0
 35 36  1  0  0  0  0
 35 41  1  1  0  0  0
 37 38  1  0  0  0  0
 39 40  1  1  0  0  0
 41 42  1  0  0  0  0
M  END
>  <CHROM.1>
-175.86187322,-75.88422726,-81.22283256,-57.75146645,-149.78883140,69.01736614
50.63348731,136.78363355,-64.39816874,12.79567682,12.83465188,-9.26833002
2.88407490,1.22890620,-2.61137662

>  <Name>
2o3w_lig

>  <RI>
0

>  <Rbt.Current_Directory>
/home/itssahil/PROJECTS/Mol_Feturizer/New_Systems/rnas/2o3w

>  <Rbt.Executable>
rbdock ($Id: //depot/dev/client3/rdock/2013.1/src/exe/rbdock.cxx#4 $)

>  <Rbt.Library>
libRbt.so (2013.1, Build901 2013/11/27)

>  <Rbt.Parameter_File>
/export/apps/rDock/src/rDock_2013.1_src/data/scripts/dock_solv.prm

>  <Rbt.Receptor>
prm/blind_docking_100.prm

>  <SCORE>
-7.61407

>  <SCORE.INTER>
-14.1912

>  <SCORE.INTER.CONST>
1

>  <SCORE.INTER.POLAR>
-1.19461

>  <SCORE.INTER.ROT>
9

>  <SCORE.INTER.SOLV>
27.7513

>  <SCORE.INTER.VDW>
-24.3292

>  <SCORE.INTER.norm>
-0.337887

>  <SCORE.INTRA>
-4.13916

>  <SCORE.INTRA.DIHEDRAL>
-14.3496

>  <SCORE.INTRA.DIHEDRAL.0>
27.8999

>  <SCORE.INTRA.POLAR>
0

>  <SCORE.INTRA.POLAR.0>
0

>  <SCORE.INTRA.REPUL>
0

>  <SCORE.INTRA.REPUL.0>
0

>  <SCORE.INTRA.SOLV>
2.89237

>  <SCORE.INTRA.SOLV.lig_0>
-104.479

>  <SCORE.INTRA.VDW>
1.58945

>  <SCORE.INTRA.VDW.0>
-6.17816

>  <SCORE.INTRA.norm>
-0.0985514

>  <SCORE.RESTR>
10.7163

>  <SCORE.RESTR.CAVITY>
10.7163

>  <SCORE.RESTR.norm>
0.25515

>  <SCORE.SYSTEM>
0

>  <SCORE.SYSTEM.CONST>
0

>  <SCORE.SYSTEM.DIHEDRAL>
0

>  <SCORE.SYSTEM.SOLV>
0

>  <SCORE.SYSTEM.norm>
0

>  <SCORE.heavy>
42

>  <SCORE.norm>
-0.181287

>  <RMSD>
18.763

$$$$
2o3w_lig
 OpenBabel11021811463D
libRbt.so/2013.1/901 2013/11/27
 42 45  0  0  0  0  0  0  0  0999 V2000
   12.0236   10.2850   -8.3698 C   0  0  2  0  0  0  0  0  0  0  0  0
   11.4024   10.6325   -9.6191 O   0  0  0  0  0  0  0  0  0  0  0  0
   14.3235    8.8375  -12.2727 C   0  0  2  0  0  0  0  0  0  0  0  0
   15.1218    8.4781  -13.4827 N   0  0  0  0  0  0  0  0  0  0  0  0
   12.9350   13.0355  -11.8395 C   0  0  1  0  0  0  0  0  0  0  0  0
   11.2016   15.6183  -14.4404 C   0  0  1  0  0  0  0  0  0  0  0  0
   10.8860   10.1779   -7.3103 C   0  0  2  0  0  0  0  0  0  0  0  0
    9.7682    9.3337   -7.7667 N   0  0  0  0  0  0  0  0  0  0  0  0
   12.8159    8.3836  -12.4241 C   0  0  0  0  0  0  0  0  0  0  0  0
   11.4418   12.6964  -12.1334 C   0  0  2  0  0  0  0  0  0  0  0  0
   11.2584   11.6245  -13.0908 O   0  0  0  0  0  0  0  0  0  0  0  0
   12.6763   15.9982  -14.8272 C   0  0  2  0  0  0  0  0  0  0  0  0
   13.6134   15.7156  -13.6989 N   0  0  0  0  0  0  0  0  0  0  0  0
   10.2889   11.5516   -6.9531 C   0  0  1  0  0  0  0  0  0  0  0  0
    9.2797   11.4101   -5.9519 O   0  0  0  0  0  0  0  0  0  0  0  0
   12.0329    8.7685  -11.1121 C   0  0  2  0  0  0  0  0  0  0  0  0
   10.6112    8.3421  -11.2141 N   0  0  0  0  0  0  0  0  0  0  0  0
   10.9050   14.0638  -12.5592 C   0  0  2  0  0  0  0  0  0  0  0  0
   11.0290   14.2646  -14.0032 O   0  0  0  0  0  0  0  0  0  0  0  0
   12.7314   17.5431  -15.2478 C   0  0  1  0  0  0  0  0  0  0  0  0
   12.1230   17.6948  -16.5500 O   0  0  0  0  0  0  0  0  0  0  0  0
   11.4177   12.4989   -6.4868 C   0  0  2  0  0  0  0  0  0  0  0  0
   10.8851   13.7561   -6.1400 O   0  0  0  0  0  0  0  0  0  0  0  0
   12.1023   10.3263  -10.8588 C   0  0  2  0  0  0  0  0  0  0  0  0
   11.7266   15.1040  -11.7793 C   0  0  2  0  0  0  0  0  0  0  0  0
   12.9916   14.4646  -11.6260 O   0  0  0  0  0  0  0  0  0  0  0  0
   11.9930   18.5007  -14.1965 C   0  0  2  0  0  0  0  0  0  0  0  0
   12.7736   18.5121  -13.0019 O   0  0  0  0  0  0  0  0  0  0  0  0
   12.4710   12.6424   -7.6356 C   0  0  2  0  0  0  0  0  0  0  0  0
   13.0016   11.3244   -7.9838 O   0  0  0  0  0  0  0  0  0  0  0  0
   13.5508   10.8524  -10.7561 C   0  0  2  0  0  0  0  0  0  0  0  0
   13.4289   12.3008  -10.7119 O   0  0  0  0  0  0  0  0  0  0  0  0
   11.1314   15.5097  -10.3954 C   0  0  0  0  0  0  0  0  0  0  0  0
    9.8239   16.0426  -10.5836 O   0  0  0  0  0  0  0  0  0  0  0  0
   10.5389   17.9760  -13.8927 C   0  0  1  0  0  0  0  0  0  0  0  0
   10.6962   16.5963  -13.4006 O   0  0  0  0  0  0  0  0  0  0  0  0
   13.6192   13.5509   -7.2616 C   0  0  0  0  0  0  0  0  0  0  0  0
   13.1296   14.7511   -6.7147 O   0  0  0  0  0  0  0  0  0  0  0  0
   14.3911   10.3973  -12.0220 C   0  0  1  0  0  0  0  0  0  0  0  0
   15.7662   10.7536  -11.8554 O   0  0  0  0  0  0  0  0  0  0  0  0
    9.7435   18.8512  -12.8297 C   0  0  0  0  0  0  0  0  0  0  0  0
    8.5833   18.1785  -12.1832 N   0  0  0  0  0  0  0  0  0  0  0  0
  1  2  1  6  0  0  0
  1  7  1  0  0  0  0
  1 30  1  0  0  0  0
  3  4  1  6  0  0  0
  3  9  1  0  0  0  0
  3 39  1  0  0  0  0
  5 10  1  0  0  0  0
  5 26  1  0  0  0  0
  5 32  1  1  0  0  0
  6 12  1  0  0  0  0
  6 36  1  0  0  0  0
  6 19  1  1  0  0  0
  7  8  1  6  0  0  0
  7 14  1  0  0  0  0
  9 16  1  0  0  0  0
 10 11  1  6  0  0  0
 10 18  1  0  0  0  0
 12 13  1  1  0  0  0
 12 20  1  0  0  0  0
 14 15  1  1  0  0  0
 14 22  1  0  0  0  0
 16 17  1  6  0  0  0
 16 24  1  0  0  0  0
 18 19  1  6  0  0  0
 18 25  1  0  0  0  0
 20 21  1  6  0  0  0
 20 27  1  0  0  0  0
 22 23  1  6  0  0  0
 22 29  1  0  0  0  0
 24  2  1  1  0  0  0
 24 31  1  0  0  0  0
 25 26  1  0  0  0  0
 25 33  1  1  0  0  0
 27 28  1  1  0  0  0
 27 35  1  0  0  0  0
 29 30  1  0  0  0  0
 29 37  1  1  0  0  0
 31 32  1  6  0  0  0
 31 39  1  0  0  0  0
 33 34  1  0  0  0  0
 35 36  1  0  0  0  0
 35 41  1  1  0  0  0
 37 38  1  0  0  0  0
 39 40  1  1  0  0  0
 41 42  1  0  0  0  0
M  END
>  <CHROM.1>
-157.53727567,65.45938207,102.16629582,-150.31032598,73.52555523,-58.77426883
-48.51505076,-66.00746116,-160.73024343,11.95450504,13.30676540,-11.10282262
1.41015956,-1.13946660,2.36595553

>  <Name>
2o3w_lig

>  <RI>
0

>  <Rbt.Current_Directory>
/home/itssahil/PROJECTS/Mol_Feturizer/New_Systems/rnas/2o3w

>  <Rbt.Executable>
rbdock ($Id: //depot/dev/client3/rdock/2013.1/src/exe/rbdock.cxx#4 $)

>  <Rbt.Library>
libRbt.so (2013.1, Build901 2013/11/27)

>  <Rbt.Parameter_File>
/export/apps/rDock/src/rDock_2013.1_src/data/scripts/dock_solv.prm

>  <Rbt.Receptor>
prm/blind_docking_80.prm

>  <SCORE>
8.72268

>  <SCORE.INTER>
-1.2579

>  <SCORE.INTER.CONST>
1

>  <SCORE.INTER.POLAR>
-0.2555

>  <SCORE.INTER.ROT>
9

>  <SCORE.INTER.SOLV>
28.5193

>  <SCORE.INTER.VDW>
-19.0934

>  <SCORE.INTER.norm>
-0.02995

>  <SCORE.INTRA>
3.63487

>  <SCORE.INTRA.DIHEDRAL>
-13.4636

>  <SCORE.INTRA.DIHEDRAL.0>
27.8999

>  <SCORE.INTRA.POLAR>
0

>  <SCORE.INTRA.POLAR.0>
0

>  <SCORE.INTRA.REPUL>
0

>  <SCORE.INTRA.REPUL.0>
0

>  <SCORE.INTRA.SOLV>
3.56693

>  <SCORE.INTRA.SOLV.lig_0>
-104.479

>  <SCORE.INTRA.VDW>
8.58319

>  <SCORE.INTRA.VDW.0>
-6.17816

>  <SCORE.INTRA.norm>
0.0865446

>  <SCORE.RESTR>
6.3457

>  <SCORE.RESTR.CAVITY>
6.3457

>  <SCORE.RESTR.norm>
0.151088

>  <SCORE.SYSTEM>
0

>  <SCORE.SYSTEM.CONST>
0

>  <SCORE.SYSTEM.DIHEDRAL>
0

>  <SCORE.SYSTEM.SOLV>
0

>  <SCORE.SYSTEM.norm>
0

>  <SCORE.heavy>
42

>  <SCORE.norm>
0.207683

>  <RMSD>
18.778

$$$$
2o3w_lig
 OpenBabel11021811463D
libRbt.so/2013.1/901 2013/11/27
 42 45  0  0  0  0  0  0  0  0999 V2000
   12.0360   10.2285   -8.4255 C   0  0  2  0  0  0  0  0  0  0  0  0
   11.4464   10.6673   -9.6612 O   0  0  0  0  0  0  0  0  0  0  0  0
   14.3237    8.8649  -12.3574 C   0  0  2  0  0  0  0  0  0  0  0  0
   15.1041    8.5047  -13.5787 N   0  0  0  0  0  0  0  0  0  0  0  0
   12.9482   13.0672  -11.8912 C   0  0  1  0  0  0  0  0  0  0  0  0
   11.1676   15.6437  -14.4440 C   0  0  1  0  0  0  0  0  0  0  0  0
   10.8825   10.1231   -7.3831 C   0  0  2  0  0  0  0  0  0  0  0  0
    9.7312    9.3573   -7.8918 N   0  0  0  0  0  0  0  0  0  0  0  0
   12.8120    8.4185  -12.4898 C   0  0  0  0  0  0  0  0  0  0  0  0
   11.4602   12.7007  -12.1783 C   0  0  2  0  0  0  0  0  0  0  0  0
   11.2917   11.6376  -13.1480 O   0  0  0  0  0  0  0  0  0  0  0  0
   12.6400   16.0328  -14.8309 C   0  0  2  0  0  0  0  0  0  0  0  0
   13.5818   15.7376  -13.7099 N   0  0  0  0  0  0  0  0  0  0  0  0
   10.3470   11.5042   -6.9625 C   0  0  1  0  0  0  0  0  0  0  0  0
    9.3208   11.3614   -5.9790 O   0  0  0  0  0  0  0  0  0  0  0  0
   12.0483    8.8039  -11.1667 C   0  0  2  0  0  0  0  0  0  0  0  0
   10.6233    8.3845  -11.2509 N   0  0  0  0  0  0  0  0  0  0  0  0
   10.8918   14.0619  -12.5823 C   0  0  2  0  0  0  0  0  0  0  0  0
   11.0003   14.2837  -14.0245 O   0  0  0  0  0  0  0  0  0  0  0  0
   12.6893   17.5835  -15.2307 C   0  0  1  0  0  0  0  0  0  0  0  0
   12.0757   17.7511  -16.5285 O   0  0  0  0  0  0  0  0  0  0  0  0
   11.5140   12.3720   -6.4387 C   0  0  2  0  0  0  0  0  0  0  0  0
   11.0376   13.6343   -6.0338 O   0  0  0  0  0  0  0  0  0  0  0  0
   12.1284   10.3608  -10.9108 C   0  0  2  0  0  0  0  0  0  0  0  0
   11.6976   15.1091  -11.7953 C   0  0  2  0  0  0  0  0  0  0  0  0
   12.9768   14.4943  -11.6597 O   0  0  0  0  0  0  0  0  0  0  0  0
   11.9521   18.5247  -14.1638 C   0  0  2  0  0  0  0  0  0  0  0  0
   12.7370   18.5221  -12.9720 O   0  0  0  0  0  0  0  0  0  0  0  0
   12.5861   12.5220   -7.5691 C   0  0  2  0  0  0  0  0  0  0  0  0
   13.0576   11.1992   -7.9786 O   0  0  0  0  0  0  0  0  0  0  0  0
   13.5805   10.8799  -10.8261 C   0  0  2  0  0  0  0  0  0  0  0  0
   13.4660   12.3287  -10.7770 O   0  0  0  0  0  0  0  0  0  0  0  0
   11.1049   15.4846  -10.4018 C   0  0  0  0  0  0  0  0  0  0  0  0
    9.8312   16.0965  -10.5818 O   0  0  0  0  0  0  0  0  0  0  0  0
   10.5005   17.9918  -13.8619 C   0  0  1  0  0  0  0  0  0  0  0  0
   10.6634   16.6061  -13.3892 O   0  0  0  0  0  0  0  0  0  0  0  0
   13.7717   13.3547   -7.1392 C   0  0  0  0  0  0  0  0  0  0  0  0
   13.3353   14.5835   -6.6112 O   0  0  0  0  0  0  0  0  0  0  0  0
   14.4019   10.4239  -12.1040 C   0  0  1  0  0  0  0  0  0  0  0  0
   15.7808   10.7733  -11.9549 O   0  0  0  0  0  0  0  0  0  0  0  0
    9.7066   18.8504  -12.7843 C   0  0  0  0  0  0  0  0  0  0  0  0
   10.1444   18.6727  -11.3725 N   0  0  0  0  0  0  0  0  0  0  0  0
  1  2  1  6  0  0  0
  1  7  1  0  0  0  0
  1 30  1  0  0  0  0
  3  4  1  6  0  0  0
  3  9  1  0  0  0  0
  3 39  1  0  0  0  0
  5 10  1  0  0  0  0
  5 26  1  0  0  0  0
  5 32  1  1  0  0  0
  6 12  1  0  0  0  0
  6 36  1  0  0  0  0
  6 19  1  1  0  0  0
  7  8  1  6  0  0  0
  7 14  1  0  0  0  0
  9 16  1  0  0  0  0
 10 11  1  6  0  0  0
 10 18  1  0  0  0  0
 12 13  1  1  0  0  0
 12 20  1  0  0  0  0
 14 15  1  1  0  0  0
 14 22  1  0  0  0  0
 16 17  1  6  0  0  0
 16 24  1  0  0  0  0
 18 19  1  6  0  0  0
 18 25  1  0  0  0  0
 20 21  1  6  0  0  0
 20 27  1  0  0  0  0
 22 23  1  6  0  0  0
 22 29  1  0  0  0  0
 24  2  1  1  0  0  0
 24 31  1  0  0  0  0
 25 26  1  0  0  0  0
 25 33  1  1  0  0  0
 27 28  1  1  0  0  0
 27 35  1  0  0  0  0
 29 30  1  0  0  0  0
 29 37  1  1  0  0  0
 31 32  1  6  0  0  0
 31 39  1  0  0  0  0
 33 34  1  0  0  0  0
 35 36  1  0  0  0  0
 35 41  1  1  0  0  0
 37 38  1  0  0  0  0
 39 40  1  1  0  0  0
 41 42  1  0  0  0  0
M  END
>  <CHROM.1>
-156.00724793,63.61481495,101.74223283,-149.13097828,69.09639062,-63.63678725
-52.08703754,-65.37797489,-74.18346017,12.00637268,13.30993833,-11.09899604
1.41074506,-1.18432298,2.37058195

>  <Name>
2o3w_lig

>  <RI>
0

>  <Rbt.Current_Directory>
/home/itssahil/PROJECTS/Mol_Feturizer/New_Systems/rnas/2o3w

>  <Rbt.Executable>
rbdock ($Id: //depot/dev/client3/rdock/2013.1/src/exe/rbdock.cxx#4 $)

>  <Rbt.Library>
libRbt.so (2013.1, Build901 2013/11/27)

>  <Rbt.Parameter_File>
/export/apps/rDock/src/rDock_2013.1_src/data/scripts/dock_solv.prm

>  <Rbt.Receptor>
prm/blind_docking_80.prm

>  <SCORE>
8.23478

>  <SCORE.INTER>
-2.96271

>  <SCORE.INTER.CONST>
1

>  <SCORE.INTER.POLAR>
-0.352217

>  <SCORE.INTER.ROT>
9

>  <SCORE.INTER.SOLV>
27.1544

>  <SCORE.INTER.VDW>
-19.4526

>  <SCORE.INTER.norm>
-0.0705407

>  <SCORE.INTRA>
4.79707

>  <SCORE.INTRA.DIHEDRAL>
-14.3513

>  <SCORE.INTRA.DIHEDRAL.0>
27.8999

>  <SCORE.INTRA.POLAR>
0

>  <SCORE.INTRA.POLAR.0>
0

>  <SCORE.INTRA.REPUL>
0

>  <SCORE.INTRA.REPUL.0>
0

>  <SCORE.INTRA.SOLV>
5.88425

>  <SCORE.INTRA.SOLV.lig_0>
-104.479

>  <SCORE.INTRA.VDW>
9.0306

>  <SCORE.INTRA.VDW.0>
-6.17816

>  <SCORE.INTRA.norm>
0.114216

>  <SCORE.RESTR>
6.40042

>  <SCORE.RESTR.CAVITY>
6.40042

>  <SCORE.RESTR.norm>
0.152391

>  <SCORE.SYSTEM>
0

>  <SCORE.SYSTEM.CONST>
0

>  <SCORE.SYSTEM.DIHEDRAL>
0

>  <SCORE.SYSTEM.SOLV>
0

>  <SCORE.SYSTEM.norm>
0

>  <SCORE.heavy>
42

>  <SCORE.norm>
0.196066

>  <RMSD>
18.791

$$$$
2o3w_lig
 OpenBabel11021811463D
libRbt.so/2013.1/901 2013/11/27
 42 45  0  0  0  0  0  0  0  0999 V2000
   12.1586   11.5271   -7.5734 C   0  0  2  0  0  0  0  0  0  0  0  0
   12.9908   11.5834   -8.7446 O   0  0  0  0  0  0  0  0  0  0  0  0
   12.8393    8.9422  -12.1792 C   0  0  2  0  0  0  0  0  0  0  0  0
   12.4339    8.2854  -13.4578 N   0  0  0  0  0  0  0  0  0  0  0  0
   12.6159   13.2893  -12.2378 C   0  0  1  0  0  0  0  0  0  0  0  0
   10.5146   16.6757  -13.6699 C   0  0  1  0  0  0  0  0  0  0  0  0
   11.5332   12.9426   -7.3911 C   0  0  2  0  0  0  0  0  0  0  0  0
   10.9214   13.4525   -8.6306 N   0  0  0  0  0  0  0  0  0  0  0  0
   11.7299    8.7648  -11.0658 C   0  0  0  0  0  0  0  0  0  0  0  0
   12.6695   14.8455  -12.1592 C   0  0  2  0  0  0  0  0  0  0  0  0
   11.7039   15.4231  -11.2465 O   0  0  0  0  0  0  0  0  0  0  0  0
   11.5522   17.8507  -13.5627 C   0  0  2  0  0  0  0  0  0  0  0  0
   12.6210   17.5296  -12.5700 N   0  0  0  0  0  0  0  0  0  0  0  0
   12.5725   13.9877   -6.9455 C   0  0  1  0  0  0  0  0  0  0  0  0
   11.9489   15.2585   -6.7528 O   0  0  0  0  0  0  0  0  0  0  0  0
   12.2233    9.4568   -9.7391 C   0  0  2  0  0  0  0  0  0  0  0  0
   11.2080    9.2964   -8.6634 N   0  0  0  0  0  0  0  0  0  0  0  0
   12.4977   15.2233  -13.6313 C   0  0  2  0  0  0  0  0  0  0  0  0
   11.0878   15.3996  -13.9805 O   0  0  0  0  0  0  0  0  0  0  0  0
   10.7843   19.1996  -13.1655 C   0  0  1  0  0  0  0  0  0  0  0  0
   10.0446   19.6716  -14.3140 O   0  0  0  0  0  0  0  0  0  0  0  0
   13.2728   13.5013   -5.6563 C   0  0  2  0  0  0  0  0  0  0  0  0
   14.2159   14.4551   -5.2258 O   0  0  0  0  0  0  0  0  0  0  0  0
   12.5001   10.9931   -9.9819 C   0  0  2  0  0  0  0  0  0  0  0  0
   13.1334   14.0800  -14.4400 C   0  0  2  0  0  0  0  0  0  0  0  0
   12.9219   12.9419  -13.6077 O   0  0  0  0  0  0  0  0  0  0  0  0
    9.7855   19.0053  -11.9276 C   0  0  2  0  0  0  0  0  0  0  0  0
   10.5804   18.7873  -10.7627 O   0  0  0  0  0  0  0  0  0  0  0  0
   13.9659   12.1268   -5.9393 C   0  0  2  0  0  0  0  0  0  0  0  0
   12.9689   11.1575   -6.3933 O   0  0  0  0  0  0  0  0  0  0  0  0
   13.5358   11.2457  -11.0994 C   0  0  2  0  0  0  0  0  0  0  0  0
   13.5267   12.6843  -11.3106 O   0  0  0  0  0  0  0  0  0  0  0  0
   14.6485   14.2654  -14.7628 C   0  0  0  0  0  0  0  0  0  0  0  0
   15.3971   13.2447  -14.1096 O   0  0  0  0  0  0  0  0  0  0  0  0
    8.8289   17.7777  -12.1726 C   0  0  1  0  0  0  0  0  0  0  0  0
    9.7049   16.6137  -12.3918 O   0  0  0  0  0  0  0  0  0  0  0  0
   14.6733   11.5714   -4.7249 C   0  0  0  0  0  0  0  0  0  0  0  0
   14.6882   10.1655   -4.7731 O   0  0  0  0  0  0  0  0  0  0  0  0
   13.1130   10.4805  -12.4229 C   0  0  1  0  0  0  0  0  0  0  0  0
   14.1450   10.5898  -13.4071 O   0  0  0  0  0  0  0  0  0  0  0  0
    7.8234   17.4911  -10.9746 C   0  0  0  0  0  0  0  0  0  0  0  0
    8.4565   17.1134   -9.6811 N   0  0  0  0  0  0  0  0  0  0  0  0
  1  2  1  6  0  0  0
  1  7  1  0  0  0  0
  1 30  1  0  0  0  0
  3  4  1  6  0  0  0
  3  9  1  0  0  0  0
  3 39  1  0  0  0  0
  5 10  1  0  0  0  0
  5 26  1  0  0  0  0
  5 32  1  1  0  0  0
  6 12  1  0  0  0  0
  6 36  1  0  0  0  0
  6 19  1  1  0  0  0
  7  8  1  6  0  0  0
  7 14  1  0  0  0  0
  9 16  1  0  0  0  0
 10 11  1  1  0  0  0
 10 18  1  0  0  0  0
 12 13  1  1  0  0  0
 12 20  1  0  0  0  0
 14 15  1  1  0  0  0
 14 22  1  0  0  0  0
 16 17  1  1  0  0  0
 16 24  1  0  0  0  0
 18 19  1  6  0  0  0
 18 25  1  0  0  0  0
 20 21  1  6  0  0  0
 20 27  1  0  0  0  0
 22 23  1  6  0  0  0
 22 29  1  0  0  0  0
 24  2  1  1  0  0  0
 24 31  1  0  0  0  0
 25 26  1  0  0  0  0
 25 33  1  1  0  0  0
 27 28  1  1  0  0  0
 27 35  1  0  0  0  0
 29 30  1  0  0  0  0
 29 37  1  1  0  0  0
 31 32  1  6  0  0  0
 31 39  1  0  0  0  0
 33 34  1  0  0  0  0
 35 36  1  0  0  0  0
 35 41  1  1  0  0  0
 37 38  1  0  0  0  0
 39 40  1  6  0  0  0
 41 42  1  0  0  0  0
M  END
>  <CHROM.1>
-103.23200125,172.81557308,23.84978743,82.71399591,-59.58634972,115.57889665
150.73687933,-88.30427743,-63.21194340,12.17624740,13.79776739,-10.64057992
0.65141445,-1.19189775,1.58356823

>  <Name>
2o3w_lig

>  <RI>
0

>  <Rbt.Current_Directory>
/home/itssahil/PROJECTS/Mol_Feturizer/New_Systems/rnas/2o3w

>  <Rbt.Executable>
rbdock ($Id: //depot/dev/client3/rdock/2013.1/src/exe/rbdock.cxx#4 $)

>  <Rbt.Library>
libRbt.so (2013.1, Build901 2013/11/27)

>  <Rbt.Parameter_File>
/export/apps/rDock/src/rDock_2013.1_src/data/scripts/dock_solv.prm

>  <Rbt.Receptor>
prm/blind_docking_40.prm

>  <SCORE>
6.35031

>  <SCORE.INTER>
-16.3128

>  <SCORE.INTER.CONST>
1

>  <SCORE.INTER.POLAR>
-2.48811

>  <SCORE.INTER.ROT>
9

>  <SCORE.INTER.SOLV>
28.2451

>  <SCORE.INTER.VDW>
-21.5965

>  <SCORE.INTER.norm>
-0.3884

>  <SCORE.INTRA>
7.91967

>  <SCORE.INTRA.DIHEDRAL>
-3.70467

>  <SCORE.INTRA.DIHEDRAL.0>
27.8999

>  <SCORE.INTRA.POLAR>
0

>  <SCORE.INTRA.POLAR.0>
0

>  <SCORE.INTRA.REPUL>
0.0025167

>  <SCORE.INTRA.REPUL.0>
0

>  <SCORE.INTRA.SOLV>
5.26497

>  <SCORE.INTRA.SOLV.lig_0>
-104.479

>  <SCORE.INTRA.VDW>
7.12694

>  <SCORE.INTRA.VDW.0>
-6.17816

>  <SCORE.INTRA.norm>
0.188564

>  <SCORE.RESTR>
14.7434

>  <SCORE.RESTR.CAVITY>
14.7434

>  <SCORE.RESTR.norm>
0.351034

>  <SCORE.SYSTEM>
0

>  <SCORE.SYSTEM.CONST>
0

>  <SCORE.SYSTEM.DIHEDRAL>
0

>  <SCORE.SYSTEM.SOLV>
0

>  <SCORE.SYSTEM.norm>
0

>  <SCORE.heavy>
42

>  <SCORE.norm>
0.151198

>  <RMSD>
18.798

$$$$
2o3w_lig
 OpenBabel11021811463D
libRbt.so/2013.1/901 2013/11/27
 42 45  0  0  0  0  0  0  0  0999 V2000
   12.1776   11.5721   -7.6257 C   0  0  2  0  0  0  0  0  0  0  0  0
   13.0058   11.6838   -8.7957 O   0  0  0  0  0  0  0  0  0  0  0  0
   12.9266    9.0808  -12.2618 C   0  0  2  0  0  0  0  0  0  0  0  0
   12.5436    8.4333  -13.5520 N   0  0  0  0  0  0  0  0  0  0  0  0
   12.6221   13.4276  -12.2493 C   0  0  1  0  0  0  0  0  0  0  0  0
   10.3555   16.7934  -13.5796 C   0  0  1  0  0  0  0  0  0  0  0  0
   11.5161   12.9651   -7.4018 C   0  0  2  0  0  0  0  0  0  0  0  0
   10.8890   13.4946   -8.6252 N   0  0  0  0  0  0  0  0  0  0  0  0
   11.8082    8.8753  -11.1623 C   0  0  0  0  0  0  0  0  0  0  0  0
   12.5746   14.9756  -12.0700 C   0  0  2  0  0  0  0  0  0  0  0  0
   11.5580   15.4306  -11.1434 O   0  0  0  0  0  0  0  0  0  0  0  0
   11.3289   18.0240  -13.4975 C   0  0  2  0  0  0  0  0  0  0  0  0
   12.4265   17.7714  -12.5165 N   0  0  0  0  0  0  0  0  0  0  0  0
   12.5289   14.0234   -6.9273 C   0  0  1  0  0  0  0  0  0  0  0  0
   11.8731   15.2715   -6.6972 O   0  0  0  0  0  0  0  0  0  0  0  0
   12.2781    9.5585   -9.8226 C   0  0  2  0  0  0  0  0  0  0  0  0
   11.2540    9.3718   -8.7596 N   0  0  0  0  0  0  0  0  0  0  0  0
   12.4051   15.4373  -13.5182 C   0  0  2  0  0  0  0  0  0  0  0  0
   10.9933   15.5472  -13.8861 O   0  0  0  0  0  0  0  0  0  0  0  0
   10.4940   19.3331  -13.1024 C   0  0  1  0  0  0  0  0  0  0  0  0
    9.7148   19.7527  -14.2451 O   0  0  0  0  0  0  0  0  0  0  0  0
   13.2440   13.5183   -5.6535 C   0  0  2  0  0  0  0  0  0  0  0  0
   14.1630   14.4833   -5.1967 O   0  0  0  0  0  0  0  0  0  0  0  0
   12.5362   11.1012  -10.0449 C   0  0  2  0  0  0  0  0  0  0  0  0
   13.1269   14.3913  -14.3844 C   0  0  2  0  0  0  0  0  0  0  0  0
   12.9740   13.1903  -13.6317 O   0  0  0  0  0  0  0  0  0  0  0  0
    9.5236   19.0973  -11.8493 C   0  0  2  0  0  0  0  0  0  0  0  0
   10.3444   18.9345  -10.6934 O   0  0  0  0  0  0  0  0  0  0  0  0
   13.9719   12.1710   -5.9769 C   0  0  2  0  0  0  0  0  0  0  0  0
   12.9994   11.1896   -6.4577 O   0  0  0  0  0  0  0  0  0  0  0  0
   13.5799   11.3808  -11.1484 C   0  0  2  0  0  0  0  0  0  0  0  0
   13.5531   12.8216  -11.3431 O   0  0  0  0  0  0  0  0  0  0  0  0
   14.6325   14.6921  -14.6616 C   0  0  0  0  0  0  0  0  0  0  0  0
   15.3926   13.5025  -14.4720 O   0  0  0  0  0  0  0  0  0  0  0  0
    8.6321   17.8172  -12.0698 C   0  0  1  0  0  0  0  0  0  0  0  0
    9.5672   16.7003  -12.2901 O   0  0  0  0  0  0  0  0  0  0  0  0
   14.6958   11.5992   -4.7799 C   0  0  0  0  0  0  0  0  0  0  0  0
   14.6269   10.1941   -4.7973 O   0  0  0  0  0  0  0  0  0  0  0  0
   13.1816   10.6253  -12.4849 C   0  0  1  0  0  0  0  0  0  0  0  0
   14.2222   10.7602  -13.4568 O   0  0  0  0  0  0  0  0  0  0  0  0
    7.6595   17.4884  -10.8556 C   0  0  0  0  0  0  0  0  0  0  0  0
    7.0547   16.1280  -10.8673 N   0  0  0  0  0  0  0  0  0  0  0  0
  1  2  1  6  0  0  0
  1  7  1  0  0  0  0
  1 30  1  0  0  0  0
  3  4  1  6  0  0  0
  3  9  1  0  0  0  0
  3 39  1  0  0  0  0
  5 10  1  0  0  0  0
  5 26  1  0  0  0  0
  5 32  1  1  0  0  0
  6 12  1  0  0  0  0
  6 36  1  0  0  0  0
  6 19  1  1  0  0  0
  7  8  1  6  0  0  0
  7 14  1  0  0  0  0
  9 16  1  0  0  0  0
 10 11  1  1  0  0  0
 10 18  1  0  0  0  0
 12 13  1  1  0  0  0
 12 20  1  0  0  0  0
 14 15  1  1  0  0  0
 14 22  1  0  0  0  0
 16 17  1  1  0  0  0
 16 24  1  0  0  0  0
 18 19  1  6  0  0  0
 18 25  1  0  0  0  0
 20 21  1  6  0  0  0
 20 27  1  0  0  0  0
 22 23  1  6  0  0  0
 22 29  1  0  0  0  0
 24  2  1  1  0  0  0
 24 31  1  0  0  0  0
 25 26  1  0  0  0  0
 25 33  1  1  0  0  0
 27 28  1  1  0  0  0
 27 35  1  0  0  0  0
 29 30  1  0  0  0  0
 29 37  1  1  0  0  0
 31 32  1  6  0  0  0
 31 39  1  0  0  0  0
 33 34  1  0  0  0  0
 35 36  1  0  0  0  0
 35 41  1  1  0  0  0
 37 38  1  0  0  0  0
 39 40  1  6  0  0  0
 41 42  1  0  0  0  0
M  END
>  <CHROM.1>
-104.04801991,168.03504132,25.60322799,86.36932074,-57.99379250,134.90593867
144.67189415,-86.80265858,-165.50341314,12.09095250,13.88624331,-10.66723589
0.66860878,-1.14327502,1.61611813

>  <Name>
2o3w_lig

>  <RI>
0

>  <Rbt.Current_Directory>
/home/itssahil/PROJECTS/Mol_Feturizer/New_Systems/rnas/2o3w

>  <Rbt.Executable>
rbdock ($Id: //depot/dev/client3/rdock/2013.1/src/exe/rbdock.cxx#4 $)

>  <Rbt.Library>
libRbt.so (2013.1, Build901 2013/11/27)

>  <Rbt.Parameter_File>
/export/apps/rDock/src/rDock_2013.1_src/data/scripts/dock_solv.prm

>  <Rbt.Receptor>
prm/blind_docking_40.prm

>  <SCORE>
1.21519

>  <SCORE.INTER>
-21.1446

>  <SCORE.INTER.CONST>
1

>  <SCORE.INTER.POLAR>
-2.62673

>  <SCORE.INTER.ROT>
9

>  <SCORE.INTER.SOLV>
25.3721

>  <SCORE.INTER.VDW>
-23.398

>  <SCORE.INTER.norm>
-0.503442

>  <SCORE.INTRA>
7.16097

>  <SCORE.INTRA.DIHEDRAL>
-2.2206

>  <SCORE.INTRA.DIHEDRAL.0>
27.8999

>  <SCORE.INTRA.POLAR>
0

>  <SCORE.INTRA.POLAR.0>
0

>  <SCORE.INTRA.REPUL>
0.0262821

>  <SCORE.INTRA.REPUL.0>
0

>  <SCORE.INTRA.SOLV>
3.06476

>  <SCORE.INTRA.SOLV.lig_0>
-104.479

>  <SCORE.INTRA.VDW>
6.60748

>  <SCORE.INTRA.VDW.0>
-6.17816

>  <SCORE.INTRA.norm>
0.170499

>  <SCORE.RESTR>
15.1988

>  <SCORE.RESTR.CAVITY>
15.1988

>  <SCORE.RESTR.norm>
0.361876

>  <SCORE.SYSTEM>
0

>  <SCORE.SYSTEM.CONST>
0

>  <SCORE.SYSTEM.DIHEDRAL>
0

>  <SCORE.SYSTEM.SOLV>
0

>  <SCORE.SYSTEM.norm>
0

>  <SCORE.heavy>
42

>  <SCORE.norm>
0.028933

>  <RMSD>
18.839

$$$$
2o3w_lig
 OpenBabel11021811463D
libRbt.so/2013.1/901 2013/11/27
 42 45  0  0  0  0  0  0  0  0999 V2000
   11.7903   11.7001  -11.4171 C   0  0  2  0  0  0  0  0  0  0  0  0
   11.4040   11.5867  -10.0368 O   0  0  0  0  0  0  0  0  0  0  0  0
   12.9655   12.7760   -6.1712 C   0  0  2  0  0  0  0  0  0  0  0  0
   13.6346   13.5392   -5.0756 N   0  0  0  0  0  0  0  0  0  0  0  0
   10.7413   15.0715   -9.2459 C   0  0  1  0  0  0  0  0  0  0  0  0
   12.1278   17.6051  -12.4734 C   0  0  1  0  0  0  0  0  0  0  0  0
   10.5997   11.1649  -12.2682 C   0  0  2  0  0  0  0  0  0  0  0  0
    9.3121   11.7636  -11.8757 N   0  0  0  0  0  0  0  0  0  0  0  0
   14.0040   12.3323   -7.2787 C   0  0  0  0  0  0  0  0  0  0  0  0
   10.7780   15.0881  -10.8045 C   0  0  2  0  0  0  0  0  0  0  0  0
   12.0376   14.6479  -11.3691 O   0  0  0  0  0  0  0  0  0  0  0  0
   11.2112   18.4172  -13.4578 C   0  0  2  0  0  0  0  0  0  0  0  0
    9.8661   17.7799  -13.5824 N   0  0  0  0  0  0  0  0  0  0  0  0
   10.4354    9.6386  -12.1484 C   0  0  1  0  0  0  0  0  0  0  0  0
    9.3602    9.1877  -12.9740 O   0  0  0  0  0  0  0  0  0  0  0  0
   13.2450   11.5152   -8.3917 C   0  0  2  0  0  0  0  0  0  0  0  0
   14.1963   11.0685   -9.4449 N   0  0  0  0  0  0  0  0  0  0  0  0
   10.3932   16.5395  -11.0952 C   0  0  2  0  0  0  0  0  0  0  0  0
   11.5713   17.4042  -11.1682 O   0  0  0  0  0  0  0  0  0  0  0  0
   11.9318   18.5238  -14.8848 C   0  0  1  0  0  0  0  0  0  0  0  0
   13.0256   19.4635  -14.7868 O   0  0  0  0  0  0  0  0  0  0  0  0
   11.7649    8.9457  -12.5248 C   0  0  2  0  0  0  0  0  0  0  0  0
   11.6261    7.5467  -12.4363 O   0  0  0  0  0  0  0  0  0  0  0  0
   12.1038   12.3909   -9.0449 C   0  0  2  0  0  0  0  0  0  0  0  0
    9.4576   16.9678   -9.9522 C   0  0  2  0  0  0  0  0  0  0  0  0
    9.9270   16.1982   -8.8477 O   0  0  0  0  0  0  0  0  0  0  0  0
   12.4822   17.1137  -15.4106 C   0  0  2  0  0  0  0  0  0  0  0  0
   11.3526   16.3030  -15.7319 O   0  0  0  0  0  0  0  0  0  0  0  0
   12.8935    9.4513  -11.5656 C   0  0  2  0  0  0  0  0  0  0  0  0
   13.0116   10.9057  -11.6684 O   0  0  0  0  0  0  0  0  0  0  0  0
   11.0801   12.9085   -8.0109 C   0  0  2  0  0  0  0  0  0  0  0  0
   10.2281   13.8301   -8.7453 O   0  0  0  0  0  0  0  0  0  0  0  0
    7.9408   16.7101  -10.2115 C   0  0  0  0  0  0  0  0  0  0  0  0
    7.5587   17.3390  -11.4311 O   0  0  0  0  0  0  0  0  0  0  0  0
   13.3599   16.4127  -14.3058 C   0  0  1  0  0  0  0  0  0  0  0  0
   12.4979   16.2858  -13.1179 O   0  0  0  0  0  0  0  0  0  0  0  0
   14.2363    8.8271  -11.8677 C   0  0  0  0  0  0  0  0  0  0  0  0
   15.2002    9.2824  -10.9497 O   0  0  0  0  0  0  0  0  0  0  0  0
   11.8257   13.6546   -6.8263 C   0  0  1  0  0  0  0  0  0  0  0  0
   10.8945   13.9999   -5.7971 O   0  0  0  0  0  0  0  0  0  0  0  0
   13.9210   14.9874  -14.7325 C   0  0  0  0  0  0  0  0  0  0  0  0
   14.8121   14.9787  -15.9252 N   0  0  0  0  0  0  0  0  0  0  0  0
  1  2  1  1  0  0  0
  1  7  1  0  0  0  0
  1 30  1  0  0  0  0
  3  4  1  1  0  0  0
  3  9  1  0  0  0  0
  3 39  1  0  0  0  0
  5 10  1  0  0  0  0
  5 26  1  0  0  0  0
  5 32  1  6  0  0  0
  6 12  1  0  0  0  0
  6 36  1  0  0  0  0
  6 19  1  1  0  0  0
  7  8  1  1  0  0  0
  7 14  1  0  0  0  0
  9 16  1  0  0  0  0
 10 11  1  1  0  0  0
 10 18  1  0  0  0  0
 12 13  1  6  0  0  0
 12 20  1  0  0  0  0
 14 15  1  6  0  0  0
 14 22  1  0  0  0  0
 16 17  1  6  0  0  0
 16 24  1  0  0  0  0
 18 19  1  1  0  0  0
 18 25  1  0  0  0  0
 20 21  1  1  0  0  0
 20 27  1  0  0  0  0
 22 23  1  1  0  0  0
 22 29  1  0  0  0  0
 24  2  1  6  0  0  0
 24 31  1  0  0  0  0
 25 26  1  0  0  0  0
 25 33  1  6  0  0  0
 27 28  1  1  0  0  0
 27 35  1  0  0  0  0
 29 30  1  0  0  0  0
 29 37  1  6  0  0  0
 31 32  1  6  0  0  0
 31 39  1  0  0  0  0
 33 34  1  0  0  0  0
 35 36  1  0  0  0  0
 35 41  1  6  0  0  0
 37 38  1  0  0  0  0
 39 40  1  1  0  0  0
 41 42  1  0  0  0  0
M  END
>  <CHROM.1>
-160.11811611,112.78788641,67.15452892,93.18290359,-96.31837322,-55.10923517
-178.04454439,-67.50808966,60.85045473,11.72121032,13.84924692,-11.18059232
-1.08238491,1.28372502,-0.94894941

>  <Name>
2o3w_lig

>  <RI>
0

>  <Rbt.Current_Directory>
/home/itssahil/PROJECTS/Mol_Feturizer/New_Systems/rnas/2o3w

>  <Rbt.Executable>
rbdock ($Id: //depot/dev/client3/rdock/2013.1/src/exe/rbdock.cxx#4 $)

>  <Rbt.Library>
libRbt.so (2013.1, Build901 2013/11/27)

>  <Rbt.Parameter_File>
/export/apps/rDock/src/rDock_2013.1_src/data/scripts/dock_solv.prm

>  <Rbt.Receptor>
prm/blind_docking_40.prm

>  <SCORE>
23.5805

>  <SCORE.INTER>
4.28132

>  <SCORE.INTER.CONST>
1

>  <SCORE.INTER.POLAR>
-0.00139299

>  <SCORE.INTER.ROT>
9

>  <SCORE.INTER.SOLV>
26.6876

>  <SCORE.INTER.VDW>
-15.637

>  <SCORE.INTER.norm>
0.101936

>  <SCORE.INTRA>
-0.769547

>  <SCORE.INTRA.DIHEDRAL>
-9.50411

>  <SCORE.INTRA.DIHEDRAL.0>
27.8999

>  <SCORE.INTRA.POLAR>
0

>  <SCORE.INTRA.POLAR.0>
0

>  <SCORE.INTRA.REPUL>
0

>  <SCORE.INTRA.REPUL.0>
0

>  <SCORE.INTRA.SOLV>
3.39934

>  <SCORE.INTRA.SOLV.lig_0>
-104.479

>  <SCORE.INTRA.VDW>
2.28283

>  <SCORE.INTRA.VDW.0>
-6.17816

>  <SCORE.INTRA.norm>
-0.0183225

>  <SCORE.RESTR>
20.0687

>  <SCORE.RESTR.CAVITY>
20.0687

>  <SCORE.RESTR.norm>
0.477827

>  <SCORE.SYSTEM>
0

>  <SCORE.SYSTEM.CONST>
0

>  <SCORE.SYSTEM.DIHEDRAL>
0

>  <SCORE.SYSTEM.SOLV>
0

>  <SCORE.SYSTEM.norm>
0

>  <SCORE.heavy>
42

>  <SCORE.norm>
0.56144

>  <RMSD>
18.878

$$$$
2o3w_lig
 OpenBabel11021811463D
libRbt.so/2013.1/901 2013/11/27
 42 45  0  0  0  0  0  0  0  0999 V2000
   11.0301   15.4207  -10.5388 C   0  0  2  0  0  0  0  0  0  0  0  0
   10.7501   14.2222  -11.2821 O   0  0  0  0  0  0  0  0  0  0  0  0
   13.0624   11.1157  -13.2313 C   0  0  2  0  0  0  0  0  0  0  0  0
   14.1032   10.0883  -13.5334 N   0  0  0  0  0  0  0  0  0  0  0  0
   11.6161   10.9623   -9.1468 C   0  0  1  0  0  0  0  0  0  0  0  0
   14.4361   11.1575   -6.2649 C   0  0  1  0  0  0  0  0  0  0  0  0
    9.6792   15.9065   -9.9329 C   0  0  2  0  0  0  0  0  0  0  0  0
    8.9562   14.8307   -9.2325 N   0  0  0  0  0  0  0  0  0  0  0  0
   13.6903   12.5658  -13.1622 C   0  0  0  0  0  0  0  0  0  0  0  0
   12.0857   11.9288   -8.0171 C   0  0  2  0  0  0  0  0  0  0  0  0
   13.3620   12.5632   -8.2771 O   0  0  0  0  0  0  0  0  0  0  0  0
   15.3759   10.5818   -5.1450 C   0  0  2  0  0  0  0  0  0  0  0  0
   14.6018   10.2734   -3.9054 N   0  0  0  0  0  0  0  0  0  0  0  0
    8.7231   16.4598  -11.0055 C   0  0  1  0  0  0  0  0  0  0  0  0
    7.5163   16.9290  -10.4018 O   0  0  0  0  0  0  0  0  0  0  0  0
   12.5438   13.6046  -12.8639 C   0  0  2  0  0  0  0  0  0  0  0  0
   13.0978   14.9843  -12.8063 N   0  0  0  0  0  0  0  0  0  0  0  0
   12.0411   11.0053   -6.7986 C   0  0  2  0  0  0  0  0  0  0  0  0
   13.3189   10.3225   -6.5940 O   0  0  0  0  0  0  0  0  0  0  0  0
   16.5471   11.6332   -4.8456 C   0  0  1  0  0  0  0  0  0  0  0  0
   17.4859   11.6123   -5.9443 O   0  0  0  0  0  0  0  0  0  0  0  0
    9.4313   17.5822  -11.7979 C   0  0  2  0  0  0  0  0  0  0  0  0
    8.5632   18.1110  -12.7732 O   0  0  0  0  0  0  0  0  0  0  0  0
   11.8253   13.2644  -11.4986 C   0  0  2  0  0  0  0  0  0  0  0  0
   10.9091   10.0000   -7.0691 C   0  0  2  0  0  0  0  0  0  0  0  0
   10.9204    9.8783   -8.4895 O   0  0  0  0  0  0  0  0  0  0  0  0
   16.0038   13.1256   -4.6331 C   0  0  2  0  0  0  0  0  0  0  0  0
   15.2875   13.1519   -3.3992 O   0  0  0  0  0  0  0  0  0  0  0  0
   10.7226   17.0004  -12.4639 C   0  0  2  0  0  0  0  0  0  0  0  0
   11.6022   16.4496  -11.4331 O   0  0  0  0  0  0  0  0  0  0  0  0
   11.2346   11.8377  -11.4720 C   0  0  2  0  0  0  0  0  0  0  0  0
   10.7870   11.6351  -10.1034 O   0  0  0  0  0  0  0  0  0  0  0  0
    9.5029   10.4382   -6.5545 C   0  0  0  0  0  0  0  0  0  0  0  0
    9.5273   11.8283   -6.2450 O   0  0  0  0  0  0  0  0  0  0  0  0
   15.0590   13.5476   -5.8211 C   0  0  1  0  0  0  0  0  0  0  0  0
   13.9809   12.5446   -5.8626 O   0  0  0  0  0  0  0  0  0  0  0  0
   11.4847   18.0362  -13.2576 C   0  0  0  0  0  0  0  0  0  0  0  0
   10.8538   18.2595  -14.4952 O   0  0  0  0  0  0  0  0  0  0  0  0
   12.3461   10.7760  -11.8630 C   0  0  1  0  0  0  0  0  0  0  0  0
   11.7644    9.4752  -11.9859 O   0  0  0  0  0  0  0  0  0  0  0  0
   14.4461   15.0075   -5.6740 C   0  0  0  0  0  0  0  0  0  0  0  0
   15.4022   16.1295   -5.8832 N   0  0  0  0  0  0  0  0  0  0  0  0
  1  2  1  6  0  0  0
  1  7  1  0  0  0  0
  1 30  1  0  0  0  0
  3  4  1  1  0  0  0
  3  9  1  0  0  0  0
  3 39  1  0  0  0  0
  5 10  1  0  0  0  0
  5 26  1  0  0  0  0
  5 32  1  6  0  0  0
  6 12  1  0  0  0  0
  6 36  1  0  0  0  0
  6 19  1  1  0  0  0
  7  8  1  6  0  0  0
  7 14  1  0  0  0  0
  9 16  1  0  0  0  0
 10 11  1  6  0  0  0
 10 18  1  0  0  0  0
 12 13  1  1  0  0  0
 12 20  1  0  0  0  0
 14 15  1  1  0  0  0
 14 22  1  0  0  0  0
 16 17  1  1  0  0  0
 16 24  1  0  0  0  0
 18 19  1  6  0  0  0
 18 25  1  0  0  0  0
 20 21  1  6  0  0  0
 20 27  1  0  0  0  0
 22 23  1  6  0  0  0
 22 29  1  0  0  0  0
 24  2  1  6  0  0  0
 24 31  1  0  0  0  0
 25 26  1  0  0  0  0
 25 33  1  6  0  0  0
 27 28  1  1  0  0  0
 27 35  1  0  0  0  0
 29 30  1  0  0  0  0
 29 37  1  1  0  0  0
 31 32  1  1  0  0  0
 31 39  1  0  0  0  0
 33 34  1  0  0  0  0
 35 36  1  0  0  0  0
 35 41  1  1  0  0  0
 37 38  1  0  0  0  0
 39 40  1  6  0  0  0
 41 42  1  0  0  0  0
M  END
>  <CHROM.1>
-155.44084700,113.18376333,138.31376244,64.92924819,-91.61603669,14.60648250
-77.51694802,-96.14125362,72.12473703,12.25514967,13.25710621,-9.17935757
-3.01830127,1.09454006,-2.70149132

>  <Name>
2o3w_lig

>  <RI>
0

>  <Rbt.Current_Directory>
/home/itssahil/PROJECTS/Mol_Feturizer/New_Systems/rnas/2o3w

>  <Rbt.Executable>
rbdock ($Id: //depot/dev/client3/rdock/2013.1/src/exe/rbdock.cxx#4 $)

>  <Rbt.Library>
libRbt.so (2013.1, Build901 2013/11/27)

>  <Rbt.Parameter_File>
/export/apps/rDock/src/rDock_2013.1_src/data/scripts/dock_solv.prm

>  <Rbt.Receptor>
prm/blind_docking_100.prm

>  <SCORE>
21.9813

>  <SCORE.INTER>
4.03579

>  <SCORE.INTER.CONST>
1

>  <SCORE.INTER.POLAR>
-0.498518

>  <SCORE.INTER.ROT>
9

>  <SCORE.INTER.SOLV>
30.231

>  <SCORE.INTER.VDW>
-15.3247

>  <SCORE.INTER.norm>
0.0960903

>  <SCORE.INTRA>
5.54147

>  <SCORE.INTRA.DIHEDRAL>
2.14911

>  <SCORE.INTRA.DIHEDRAL.0>
27.8999

>  <SCORE.INTRA.POLAR>
0

>  <SCORE.INTRA.POLAR.0>
0

>  <SCORE.INTRA.REPUL>
0.0102678

>  <SCORE.INTRA.REPUL.0>
0

>  <SCORE.INTRA.SOLV>
-0.832589

>  <SCORE.INTRA.SOLV.lig_0>
-104.479

>  <SCORE.INTRA.VDW>
4.83187

>  <SCORE.INTRA.VDW.0>
-6.17816

>  <SCORE.INTRA.norm>
0.13194

>  <SCORE.RESTR>
12.404

>  <SCORE.RESTR.CAVITY>
12.404

>  <SCORE.RESTR.norm>
0.295333

>  <SCORE.SYSTEM>
0

>  <SCORE.SYSTEM.CONST>
0

>  <SCORE.SYSTEM.DIHEDRAL>
0

>  <SCORE.SYSTEM.SOLV>
0

>  <SCORE.SYSTEM.norm>
0

>  <SCORE.heavy>
42

>  <SCORE.norm>
0.523364

>  <RMSD>
18.906

$$$$
2o3w_lig
 OpenBabel11021811463D
libRbt.so/2013.1/901 2013/11/27
 42 45  0  0  0  0  0  0  0  0999 V2000
    9.6817   15.5239  -12.2965 C   0  0  2  0  0  0  0  0  0  0  0  0
   10.0185   14.6302  -11.2218 O   0  0  0  0  0  0  0  0  0  0  0  0
   11.5239   10.8123  -12.6197 C   0  0  2  0  0  0  0  0  0  0  0  0
   12.4127    9.6466  -12.9049 N   0  0  0  0  0  0  0  0  0  0  0  0
   11.9889   12.7316   -8.6850 C   0  0  1  0  0  0  0  0  0  0  0  0
   15.2244   12.7250   -5.5555 C   0  0  1  0  0  0  0  0  0  0  0  0
   10.6460   16.7436  -12.1932 C   0  0  2  0  0  0  0  0  0  0  0  0
   12.0569   16.3379  -12.0691 N   0  0  0  0  0  0  0  0  0  0  0  0
   12.0360   12.1173  -13.3521 C   0  0  0  0  0  0  0  0  0  0  0  0
   11.9141   13.2582   -7.2195 C   0  0  2  0  0  0  0  0  0  0  0  0
   12.0740   14.6932   -7.1001 O   0  0  0  0  0  0  0  0  0  0  0  0
   15.2724   11.1944   -5.2034 C   0  0  2  0  0  0  0  0  0  0  0  0
   13.9128   10.6846   -4.8536 N   0  0  0  0  0  0  0  0  0  0  0  0
   10.3314   17.6360  -10.9785 C   0  0  1  0  0  0  0  0  0  0  0  0
   11.2121   18.7603  -10.9459 O   0  0  0  0  0  0  0  0  0  0  0  0
   11.0487   13.3028  -13.0322 C   0  0  2  0  0  0  0  0  0  0  0  0
   11.4931   14.5458  -13.7186 N   0  0  0  0  0  0  0  0  0  0  0  0
   12.9954   12.4130   -6.5446 C   0  0  2  0  0  0  0  0  0  0  0  0
   14.3021   13.0692   -6.5969 O   0  0  0  0  0  0  0  0  0  0  0  0
   16.3021   10.9612   -3.9983 C   0  0  1  0  0  0  0  0  0  0  0  0
   17.6496   11.1076   -4.5003 O   0  0  0  0  0  0  0  0  0  0  0  0
    8.8517   18.0796  -11.0341 C   0  0  2  0  0  0  0  0  0  0  0  0
    8.5520   18.9113   -9.9373 O   0  0  0  0  0  0  0  0  0  0  0  0
   10.9692   13.5567  -11.4750 C   0  0  2  0  0  0  0  0  0  0  0  0
   13.0155   11.0709   -7.2955 C   0  0  2  0  0  0  0  0  0  0  0  0
   12.6307   11.4374   -8.6184 O   0  0  0  0  0  0  0  0  0  0  0  0
   16.0716   11.9741   -2.7784 C   0  0  2  0  0  0  0  0  0  0  0  0
   14.8356   11.6254   -2.1563 O   0  0  0  0  0  0  0  0  0  0  0  0
    7.9374   16.8093  -11.0310 C   0  0  2  0  0  0  0  0  0  0  0  0
    8.2740   15.9582  -12.1721 O   0  0  0  0  0  0  0  0  0  0  0  0
   10.5284   12.3044  -10.6858 C   0  0  2  0  0  0  0  0  0  0  0  0
   10.6889   12.6597   -9.2849 O   0  0  0  0  0  0  0  0  0  0  0  0
   12.0638    9.9785   -6.7165 C   0  0  0  0  0  0  0  0  0  0  0  0
   10.7214   10.4528   -6.7605 O   0  0  0  0  0  0  0  0  0  0  0  0
   16.0221   13.4623   -3.2933 C   0  0  1  0  0  0  0  0  0  0  0  0
   14.9421   13.5133   -4.2939 O   0  0  0  0  0  0  0  0  0  0  0  0
    6.4666   17.1513  -11.0903 C   0  0  0  0  0  0  0  0  0  0  0  0
    6.1766   17.8396  -12.2826 O   0  0  0  0  0  0  0  0  0  0  0  0
   11.4476   11.0674  -11.0609 C   0  0  1  0  0  0  0  0  0  0  0  0
   10.9466    9.8765  -10.4476 O   0  0  0  0  0  0  0  0  0  0  0  0
   15.7622   14.5353   -2.1488 C   0  0  0  0  0  0  0  0  0  0  0  0
   15.4053   15.9021   -2.6190 N   0  0  0  0  0  0  0  0  0  0  0  0
  1  2  1  1  0  0  0
  1  7  1  0  0  0  0
  1 30  1  0  0  0  0
  3  4  1  1  0  0  0
  3  9  1  0  0  0  0
  3 39  1  0  0  0  0
  5 10  1  0  0  0  0
  5 26  1  0  0  0  0
  5 32  1  1  0  0  0
  6 12  1  0  0  0  0
  6 36  1  0  0  0  0
  6 19  1  6  0  0  0
  7  8  1  1  0  0  0
  7 14  1  0  0  0  0
  9 16  1  0  0  0  0
 10 11  1  6  0  0  0
 10 18  1  0  0  0  0
 12 13  1  1  0  0  0
 12 20  1  0  0  0  0
 14 15  1  6  0  0  0
 14 22  1  0  0  0  0
 16 17  1  6  0  0  0
 16 24  1  0  0  0  0
 18 19  1  6  0  0  0
 18 25  1  0  0  0  0
 20 21  1  6  0  0  0
 20 27  1  0  0  0  0
 22 23  1  1  0  0  0
 22 29  1  0  0  0  0
 24  2  1  6  0  0  0
 24 31  1  0  0  0  0
 25 26  1  0  0  0  0
 25 33  1  1  0  0  0
 27 28  1  6  0  0  0
 27 35  1  0  0  0  0
 29 30  1  0  0  0  0
 29 37  1  6  0  0  0
 31 32  1  1  0  0  0
 31 39  1  0  0  0  0
 33 34  1  0  0  0  0
 35 36  1  0  0  0  0
 35 41  1  1  0  0  0
 37 38  1  0  0  0  0
 39 40  1  1  0  0  0
 41 42  1  0  0  0  0
M  END
>  <CHROM.1>
-93.00621935,174.68420296,42.52545154,153.40188010,-19.84214879,60.06575073
61.68989651,-74.49353284,-166.80290609,12.03351162,13.61510104,-8.61727614
3.04228995,0.96940595,-2.57054382

>  <Name>
2o3w_lig

>  <RI>
0

>  <Rbt.Current_Directory>
/home/itssahil/PROJECTS/Mol_Feturizer/New_Systems/rnas/2o3w

>  <Rbt.Executable>
rbdock ($Id: //depot/dev/client3/rdock/2013.1/src/exe/rbdock.cxx#4 $)

>  <Rbt.Library>
libRbt.so (2013.1, Build901 2013/11/27)

>  <Rbt.Parameter_File>
/export/apps/rDock/src/rDock_2013.1_src/data/scripts/dock_solv.prm

>  <Rbt.Receptor>
prm/blind_docking_80.prm

>  <SCORE>
8.23963

>  <SCORE.INTER>
-13.5916

>  <SCORE.INTER.CONST>
1

>  <SCORE.INTER.POLAR>
-1.11355

>  <SCORE.INTER.ROT>
9

>  <SCORE.INTER.SOLV>
22.6454

>  <SCORE.INTER.VDW>
-22.4977

>  <SCORE.INTER.norm>
-0.32361

>  <SCORE.INTRA>
7.45705

>  <SCORE.INTRA.DIHEDRAL>
-12.1327

>  <SCORE.INTRA.DIHEDRAL.0>
27.8999

>  <SCORE.INTRA.POLAR>
0

>  <SCORE.INTRA.POLAR.0>
0

>  <SCORE.INTRA.REPUL>
0

>  <SCORE.INTRA.REPUL.0>
0

>  <SCORE.INTRA.SOLV>
4.65346

>  <SCORE.INTRA.SOLV.lig_0>
-104.479

>  <SCORE.INTRA.VDW>
11.1967

>  <SCORE.INTRA.VDW.0>
-6.17816

>  <SCORE.INTRA.norm>
0.177549

>  <SCORE.RESTR>
14.3742

>  <SCORE.RESTR.CAVITY>
14.3742

>  <SCORE.RESTR.norm>
0.342243

>  <SCORE.SYSTEM>
0

>  <SCORE.SYSTEM.CONST>
0

>  <SCORE.SYSTEM.DIHEDRAL>
0

>  <SCORE.SYSTEM.SOLV>
0

>  <SCORE.SYSTEM.norm>
0

>  <SCORE.heavy>
42

>  <SCORE.norm>
0.196182

>  <RMSD>
18.978

$$$$
2o3w_lig
 OpenBabel11021811463D
libRbt.so/2013.1/901 2013/11/27
 42 45  0  0  0  0  0  0  0  0999 V2000
   10.4304   14.8800  -12.7809 C   0  0  2  0  0  0  0  0  0  0  0  0
   11.0681   14.0852  -11.7665 O   0  0  0  0  0  0  0  0  0  0  0  0
   12.5936   10.1406  -12.7199 C   0  0  2  0  0  0  0  0  0  0  0  0
   13.4955    9.0130  -13.1012 N   0  0  0  0  0  0  0  0  0  0  0  0
   12.8775   12.5432   -8.5924 C   0  0  1  0  0  0  0  0  0  0  0  0
   13.3087   12.1956   -5.6484 C   0  0  1  0  0  0  0  0  0  0  0  0
   11.4594   15.9629  -13.2242 C   0  0  2  0  0  0  0  0  0  0  0  0
   12.7783   15.3898  -13.5448 N   0  0  0  0  0  0  0  0  0  0  0  0
   12.4325   11.1733  -13.9071 C   0  0  0  0  0  0  0  0  0  0  0  0
   11.5967   13.1116   -7.9089 C   0  0  2  0  0  0  0  0  0  0  0  0
   11.7840   14.4095   -7.2928 O   0  0  0  0  0  0  0  0  0  0  0  0
   14.0154   10.8291   -5.3291 C   0  0  2  0  0  0  0  0  0  0  0  0
   13.5370   10.2723   -4.0283 N   0  0  0  0  0  0  0  0  0  0  0  0
   11.6902   17.0293  -12.1376 C   0  0  1  0  0  0  0  0  0  0  0  0
   12.6080   18.0211  -12.6010 O   0  0  0  0  0  0  0  0  0  0  0  0
   11.4558   12.3236  -13.4538 C   0  0  2  0  0  0  0  0  0  0  0  0
   11.2695   13.3077  -14.5540 N   0  0  0  0  0  0  0  0  0  0  0  0
   11.2382   11.9712   -6.9548 C   0  0  2  0  0  0  0  0  0  0  0  0
   11.8767   12.1412   -5.6493 O   0  0  0  0  0  0  0  0  0  0  0  0
   15.6027   11.0457   -5.3134 C   0  0  1  0  0  0  0  0  0  0  0  0
   16.0648   11.2130   -6.6726 O   0  0  0  0  0  0  0  0  0  0  0  0
   10.3362   17.6571  -11.7356 C   0  0  2  0  0  0  0  0  0  0  0  0
   10.5321   18.6476  -10.7532 O   0  0  0  0  0  0  0  0  0  0  0  0
   12.0179   13.0595  -12.1739 C   0  0  2  0  0  0  0  0  0  0  0  0
   11.7102   10.6787   -7.6418 C   0  0  2  0  0  0  0  0  0  0  0  0
   12.8389   11.1108   -8.3980 O   0  0  0  0  0  0  0  0  0  0  0  0
   16.0493   12.3099   -4.4360 C   0  0  2  0  0  0  0  0  0  0  0  0
   15.8006   11.9938   -3.0669 O   0  0  0  0  0  0  0  0  0  0  0  0
    9.3888   16.5305  -11.2039 C   0  0  2  0  0  0  0  0  0  0  0  0
    9.2089   15.5108  -12.2371 O   0  0  0  0  0  0  0  0  0  0  0  0
   12.2547   12.1001  -10.9870 C   0  0  2  0  0  0  0  0  0  0  0  0
   12.9348   12.8987   -9.9800 O   0  0  0  0  0  0  0  0  0  0  0  0
   10.6487    9.9953   -8.5586 C   0  0  0  0  0  0  0  0  0  0  0  0
   11.2511    8.8985   -9.2391 O   0  0  0  0  0  0  0  0  0  0  0  0
   15.2367   13.5928   -4.8557 C   0  0  1  0  0  0  0  0  0  0  0  0
   13.8141   13.2497   -4.6859 O   0  0  0  0  0  0  0  0  0  0  0  0
    8.0334   17.0568  -10.7921 C   0  0  0  0  0  0  0  0  0  0  0  0
    8.1736   18.0034   -9.7607 O   0  0  0  0  0  0  0  0  0  0  0  0
   13.1589   10.8784  -11.4406 C   0  0  1  0  0  0  0  0  0  0  0  0
   13.2523    9.9158  -10.3870 O   0  0  0  0  0  0  0  0  0  0  0  0
   15.5938   14.8911   -4.0098 C   0  0  0  0  0  0  0  0  0  0  0  0
   16.9617   15.4393   -4.2214 N   0  0  0  0  0  0  0  0  0  0  0  0
  1  2  1  1  0  0  0
  1  7  1  0  0  0  0
  1 30  1  0  0  0  0
  3  4  1  6  0  0  0
  3  9  1  0  0  0  0
  3 39  1  0  0  0  0
  5 10  1  0  0  0  0
  5 26  1  0  0  0  0
  5 32  1  6  0  0  0
  6 12  1  0  0  0  0
  6 36  1  0  0  0  0
  6 19  1  1  0  0  0
  7  8  1  1  0  0  0
  7 14  1  0  0  0  0
  9 16  1  0  0  0  0
 10 11  1  1  0  0  0
 10 18  1  0  0  0  0
 12 13  1  1  0  0  0
 12 20  1  0  0  0  0
 14 15  1  6  0  0  0
 14 22  1  0  0  0  0
 16 17  1  6  0  0  0
 16 24  1  0  0  0  0
 18 19  1  1  0  0  0
 18 25  1  0  0  0  0
 20 21  1  6  0  0  0
 20 27  1  0  0  0  0
 22 23  1  1  0  0  0
 22 29  1  0  0  0  0
 24  2  1  1  0  0  0
 24 31  1  0  0  0  0
 25 26  1  0  0  0  0
 25 33  1  6  0  0  0
 27 28  1  1  0  0  0
 27 35  1  0  0  0  0
 29 30  1  0  0  0  0
 29 37  1  6  0  0  0
 31 32  1  1  0  0  0
 31 39  1  0  0  0  0
 33 34  1  0  0  0  0
 35 36  1  0  0  0  0
 35 41  1  1  0  0  0
 37 38  1  0  0  0  0
 39 40  1  1  0  0  0
 41 42  1  0  0  0  0
M  END
>  <CHROM.1>
-78.90280919,-85.00613180,-96.53325893,-59.44587229,-40.88977580,173.92753387
-60.37981923,156.17733814,67.75846969,12.42759897,13.24619206,-9.20433115
-2.97034269,-1.12093880,0.62118984

>  <Name>
2o3w_lig

>  <RI>
0

>  <Rbt.Current_Directory>
/home/itssahil/PROJECTS/Mol_Feturizer/New_Systems/rnas/2o3w

>  <Rbt.Executable>
rbdock ($Id: //depot/dev/client3/rdock/2013.1/src/exe/rbdock.cxx#4 $)

>  <Rbt.Library>
libRbt.so (2013.1, Build901 2013/11/27)

>  <Rbt.Parameter_File>
/export/apps/rDock/src/rDock_2013.1_src/data/scripts/dock_solv.prm

>  <Rbt.Receptor>
prm/blind_docking_60.prm

>  <SCORE>
5.60758

>  <SCORE.INTER>
-8.67091

>  <SCORE.INTER.CONST>
1

>  <SCORE.INTER.POLAR>
-0.391076

>  <SCORE.INTER.ROT>
9

>  <SCORE.INTER.SOLV>
24.9784

>  <SCORE.INTER.VDW>
-22.4032

>  <SCORE.INTER.norm>
-0.20645

>  <SCORE.INTRA>
0.904092

>  <SCORE.INTRA.DIHEDRAL>
-14.2761

>  <SCORE.INTRA.DIHEDRAL.0>
27.8999

>  <SCORE.INTRA.POLAR>
0

>  <SCORE.INTRA.POLAR.0>
0

>  <SCORE.INTRA.REPUL>
0

>  <SCORE.INTRA.REPUL.0>
0

>  <SCORE.INTRA.SOLV>
2.31206

>  <SCORE.INTRA.SOLV.lig_0>
-104.479

>  <SCORE.INTRA.VDW>
6.88612

>  <SCORE.INTRA.VDW.0>
-6.17816

>  <SCORE.INTRA.norm>
0.021526

>  <SCORE.RESTR>
13.3744

>  <SCORE.RESTR.CAVITY>
13.3744

>  <SCORE.RESTR.norm>
0.318438

>  <SCORE.SYSTEM>
0

>  <SCORE.SYSTEM.CONST>
0

>  <SCORE.SYSTEM.DIHEDRAL>
0

>  <SCORE.SYSTEM.SOLV>
0

>  <SCORE.SYSTEM.norm>
0

>  <SCORE.heavy>
42

>  <SCORE.norm>
0.133514

>  <RMSD>
19.031

$$$$
2o3w_lig
 OpenBabel11021811463D
libRbt.so/2013.1/901 2013/11/27
 42 45  0  0  0  0  0  0  0  0999 V2000
   10.9585   13.9583  -10.6120 C   0  0  2  0  0  0  0  0  0  0  0  0
   11.7868   14.2320   -9.4691 O   0  0  0  0  0  0  0  0  0  0  0  0
   13.1367   11.5742   -6.3211 C   0  0  2  0  0  0  0  0  0  0  0  0
   13.1639   10.6315   -5.1631 N   0  0  0  0  0  0  0  0  0  0  0  0
   11.4933   10.5702  -10.7507 C   0  0  1  0  0  0  0  0  0  0  0  0
   12.8968    8.8660  -12.7336 C   0  0  1  0  0  0  0  0  0  0  0  0
   11.8829   14.0047  -11.8656 C   0  0  2  0  0  0  0  0  0  0  0  0
   13.0978   13.1878  -11.7007 N   0  0  0  0  0  0  0  0  0  0  0  0
   12.5707   12.9888   -5.8966 C   0  0  0  0  0  0  0  0  0  0  0  0
   11.2096    9.0874  -10.3612 C   0  0  2  0  0  0  0  0  0  0  0  0
   12.3484    8.4010   -9.7857 O   0  0  0  0  0  0  0  0  0  0  0  0
   13.2839    9.0446  -14.2459 C   0  0  2  0  0  0  0  0  0  0  0  0
   13.5539    7.7228  -14.8870 N   0  0  0  0  0  0  0  0  0  0  0  0
   12.3497   15.4347  -12.1947 C   0  0  1  0  0  0  0  0  0  0  0  0
   13.1602   15.4349  -13.3711 O   0  0  0  0  0  0  0  0  0  0  0  0
   12.5879   13.9426   -7.1506 C   0  0  2  0  0  0  0  0  0  0  0  0
   12.0743   15.2897   -6.7831 N   0  0  0  0  0  0  0  0  0  0  0  0
   10.6982    8.5243  -11.6881 C   0  0  2  0  0  0  0  0  0  0  0  0
   11.7896    7.9865  -12.5007 O   0  0  0  0  0  0  0  0  0  0  0  0
   14.5591   10.0084  -14.3551 C   0  0  1  0  0  0  0  0  0  0  0  0
   14.1443   11.3650  -14.0789 O   0  0  0  0  0  0  0  0  0  0  0  0
   11.1182   16.3544  -12.3576 C   0  0  2  0  0  0  0  0  0  0  0  0
   11.5282   17.6641  -12.6758 O   0  0  0  0  0  0  0  0  0  0  0  0
   11.7111   13.3416   -8.3194 C   0  0  2  0  0  0  0  0  0  0  0  0
    9.9950    9.6913  -12.4016 C   0  0  2  0  0  0  0  0  0  0  0  0
   10.7199   10.8307  -11.9445 O   0  0  0  0  0  0  0  0  0  0  0  0
   15.7392    9.5943  -13.3534 C   0  0  2  0  0  0  0  0  0  0  0  0
   16.2855    8.3605  -13.8178 O   0  0  0  0  0  0  0  0  0  0  0  0
   10.2917   16.3412  -11.0286 C   0  0  2  0  0  0  0  0  0  0  0  0
    9.8864   14.9711  -10.7150 O   0  0  0  0  0  0  0  0  0  0  0  0
   12.1720   11.9318   -8.7498 C   0  0  2  0  0  0  0  0  0  0  0  0
   11.1589   11.4673   -9.6838 O   0  0  0  0  0  0  0  0  0  0  0  0
    8.4728    9.8323  -12.0895 C   0  0  0  0  0  0  0  0  0  0  0  0
    8.2949   10.0162  -10.6883 O   0  0  0  0  0  0  0  0  0  0  0  0
   15.1905    9.4296  -11.8858 C   0  0  1  0  0  0  0  0  0  0  0  0
   14.1199    8.4204  -11.9600 O   0  0  0  0  0  0  0  0  0  0  0  0
    9.0597   17.2134  -11.1012 C   0  0  0  0  0  0  0  0  0  0  0  0
    8.0586   16.5764  -11.8571 O   0  0  0  0  0  0  0  0  0  0  0  0
   12.2563   10.9731   -7.4891 C   0  0  1  0  0  0  0  0  0  0  0  0
   12.8262    9.7156   -7.8627 O   0  0  0  0  0  0  0  0  0  0  0  0
   16.2921    8.9855  -10.8285 C   0  0  0  0  0  0  0  0  0  0  0  0
   17.0333   10.0953  -10.1686 N   0  0  0  0  0  0  0  0  0  0  0  0
  1  2  1  1  0  0  0
  1  7  1  0  0  0  0
  1 30  1  0  0  0  0
  3  4  1  1  0  0  0
  3  9  1  0  0  0  0
  3 39  1  0  0  0  0
  5 10  1  0  0  0  0
  5 26  1  0  0  0  0
  5 32  1  1  0  0  0
  6 12  1  0  0  0  0
  6 36  1  0  0  0  0
  6 19  1  6  0  0  0
  7  8  1  1  0  0  0
  7 14  1  0  0  0  0
  9 16  1  0  0  0  0
 10 11  1  6  0  0  0
 10 18  1  0  0  0  0
 12 13  1  1  0  0  0
 12 20  1  0  0  0  0
 14 15  1  6  0  0  0
 14 22  1  0  0  0  0
 16 17  1  1  0  0  0
 16 24  1  0  0  0  0
 18 19  1  6  0  0  0
 18 25  1  0  0  0  0
 20 21  1  1  0  0  0
 20 27  1  0  0  0  0
 22 23  1  1  0  0  0
 22 29  1  0  0  0  0
 24  2  1  6  0  0  0
 24 31  1  0  0  0  0
 25 26  1  0  0  0  0
 25 33  1  1  0  0  0
 27 28  1  6  0  0  0
 27 35  1  0  0  0  0
 29 30  1  0  0  0  0
 29 37  1  6  0  0  0
 31 32  1  6  0  0  0
 31 39  1  0  0  0  0
 33 34  1  0  0  0  0
 35 36  1  0  0  0  0
 35 41  1  1  0  0  0
 37 38  1  0  0  0  0
 39 40  1  6  0  0  0
 41 42  1  0  0  0  0
M  END
>  <CHROM.1>
-130.43101380,95.83566936,-127.16072949,-52.73034944,-173.85045553,59.01146617
76.02629857,149.56869809,89.02095883,12.24134686,11.76732888,-10.90339005
2.90126147,-1.12548101,1.59637607

>  <Name>
2o3w_lig

>  <RI>
0

>  <Rbt.Current_Directory>
/home/itssahil/PROJECTS/Mol_Feturizer/New_Systems/rnas/2o3w

>  <Rbt.Executable>
rbdock ($Id: //depot/dev/client3/rdock/2013.1/src/exe/rbdock.cxx#4 $)

>  <Rbt.Library>
libRbt.so (2013.1, Build901 2013/11/27)

>  <Rbt.Parameter_File>
/export/apps/rDock/src/rDock_2013.1_src/data/scripts/dock_solv.prm

>  <Rbt.Receptor>
prm/blind_docking_60.prm

>  <SCORE>
11.8789

>  <SCORE.INTER>
-5.69419

>  <SCORE.INTER.CONST>
1

>  <SCORE.INTER.POLAR>
-2.30843

>  <SCORE.INTER.ROT>
9

>  <SCORE.INTER.SOLV>
39.4529

>  <SCORE.INTER.VDW>
-18.8523

>  <SCORE.INTER.norm>
-0.135576

>  <SCORE.INTRA>
1.18081

>  <SCORE.INTRA.DIHEDRAL>
-2.04077

>  <SCORE.INTRA.DIHEDRAL.0>
27.8999

>  <SCORE.INTRA.POLAR>
0

>  <SCORE.INTRA.POLAR.0>
0

>  <SCORE.INTRA.REPUL>
0.0100086

>  <SCORE.INTRA.REPUL.0>
0

>  <SCORE.INTRA.SOLV>
-0.720495

>  <SCORE.INTRA.SOLV.lig_0>
-104.479

>  <SCORE.INTRA.VDW>
2.5114

>  <SCORE.INTRA.VDW.0>
-6.17816

>  <SCORE.INTRA.norm>
0.0281145

>  <SCORE.RESTR>
16.3923

>  <SCORE.RESTR.CAVITY>
16.3923

>  <SCORE.RESTR.norm>
0.390293

>  <SCORE.SYSTEM>
0

>  <SCORE.SYSTEM.CONST>
0

>  <SCORE.SYSTEM.DIHEDRAL>
0

>  <SCORE.SYSTEM.SOLV>
0

>  <SCORE.SYSTEM.norm>
0

>  <SCORE.heavy>
42

>  <SCORE.norm>
0.282832

>  <RMSD>
19.038

$$$$
2o3w_lig
 OpenBabel11021811463D
libRbt.so/2013.1/901 2013/11/27
 42 45  0  0  0  0  0  0  0  0999 V2000
   11.1573   14.4247  -12.5631 C   0  0  2  0  0  0  0  0  0  0  0  0
   12.2420   13.9072  -11.7739 O   0  0  0  0  0  0  0  0  0  0  0  0
   11.8476    9.7292  -12.8622 C   0  0  2  0  0  0  0  0  0  0  0  0
   11.9714    8.2410  -12.8792 N   0  0  0  0  0  0  0  0  0  0  0  0
   11.6273   11.7964   -8.9287 C   0  0  1  0  0  0  0  0  0  0  0  0
   15.0562   11.8403   -5.9874 C   0  0  1  0  0  0  0  0  0  0  0  0
   11.7311   15.6002  -13.4100 C   0  0  2  0  0  0  0  0  0  0  0  0
   12.9678   15.2317  -14.1208 N   0  0  0  0  0  0  0  0  0  0  0  0
   13.2468   10.4243  -13.1090 C   0  0  0  0  0  0  0  0  0  0  0  0
   13.0850   12.3235   -9.0964 C   0  0  2  0  0  0  0  0  0  0  0  0
   13.9753   11.3933   -9.7606 O   0  0  0  0  0  0  0  0  0  0  0  0
   15.3852   10.6723   -4.9893 C   0  0  2  0  0  0  0  0  0  0  0  0
   14.1493   10.1972   -4.2981 N   0  0  0  0  0  0  0  0  0  0  0  0
   12.0633   16.8328  -12.5492 C   0  0  1  0  0  0  0  0  0  0  0  0
   12.5477   17.8969  -13.3701 O   0  0  0  0  0  0  0  0  0  0  0  0
   13.0484   11.9873  -13.1023 C   0  0  2  0  0  0  0  0  0  0  0  0
   14.3451   12.6746  -13.3466 N   0  0  0  0  0  0  0  0  0  0  0  0
   13.4449   12.6668   -7.6500 C   0  0  2  0  0  0  0  0  0  0  0  0
   14.0534   11.5277   -6.9622 O   0  0  0  0  0  0  0  0  0  0  0  0
   16.4797   11.1731   -3.9317 C   0  0  1  0  0  0  0  0  0  0  0  0
   17.7626   11.2580   -4.5919 O   0  0  0  0  0  0  0  0  0  0  0  0
   10.8085   17.2598  -11.7540 C   0  0  2  0  0  0  0  0  0  0  0  0
   11.0915   18.3977  -10.9732 O   0  0  0  0  0  0  0  0  0  0  0  0
   12.4462   12.4664  -11.7225 C   0  0  2  0  0  0  0  0  0  0  0  0
   12.1294   13.0882   -6.9738 C   0  0  2  0  0  0  0  0  0  0  0  0
   11.1509   12.3167   -7.6664 O   0  0  0  0  0  0  0  0  0  0  0  0
   16.1150   12.5927   -3.2843 C   0  0  2  0  0  0  0  0  0  0  0  0
   14.9814   12.4023   -2.4387 O   0  0  0  0  0  0  0  0  0  0  0  0
   10.3478   16.0688  -10.8491 C   0  0  2  0  0  0  0  0  0  0  0  0
   10.0695   14.8981  -11.6808 O   0  0  0  0  0  0  0  0  0  0  0  0
   11.1018   11.7844  -11.3868 C   0  0  2  0  0  0  0  0  0  0  0  0
   10.7948   12.1944  -10.0259 O   0  0  0  0  0  0  0  0  0  0  0  0
   11.8050   14.6120   -7.0576 C   0  0  0  0  0  0  0  0  0  0  0  0
   10.5245   14.8527   -6.4820 O   0  0  0  0  0  0  0  0  0  0  0  0
   15.7865   13.6478   -4.4072 C   0  0  1  0  0  0  0  0  0  0  0  0
   14.6816   13.0756   -5.1958 O   0  0  0  0  0  0  0  0  0  0  0  0
    9.1166   16.3980  -10.0369 C   0  0  0  0  0  0  0  0  0  0  0  0
    8.0234   16.6383  -10.8892 O   0  0  0  0  0  0  0  0  0  0  0  0
   11.2478   10.2077  -11.4796 C   0  0  1  0  0  0  0  0  0  0  0  0
    9.9711    9.5836  -11.3182 O   0  0  0  0  0  0  0  0  0  0  0  0
   15.3799   15.0808   -3.8505 C   0  0  0  0  0  0  0  0  0  0  0  0
   16.4518   15.8154   -3.1240 N   0  0  0  0  0  0  0  0  0  0  0  0
  1  2  1  1  0  0  0
  1  7  1  0  0  0  0
  1 30  1  0  0  0  0
  3  4  1  1  0  0  0
  3  9  1  0  0  0  0
  3 39  1  0  0  0  0
  5 10  1  0  0  0  0
  5 26  1  0  0  0  0
  5 32  1  6  0  0  0
  6 12  1  0  0  0  0
  6 36  1  0  0  0  0
  6 19  1  6  0  0  0
  7  8  1  1  0  0  0
  7 14  1  0  0  0  0
  9 16  1  0  0  0  0
 10 11  1  1  0  0  0
 10 18  1  0  0  0  0
 12 13  1  1  0  0  0
 12 20  1  0  0  0  0
 14 15  1  6  0  0  0
 14 22  1  0  0  0  0
 16 17  1  1  0  0  0
 16 24  1  0  0  0  0
 18 19  1  1  0  0  0
 18 25  1  0  0  0  0
 20 21  1  6  0  0  0
 20 27  1  0  0  0  0
 22 23  1  1  0  0  0
 22 29  1  0  0  0  0
 24  2  1  6  0  0  0
 24 31  1  0  0  0  0
 25 26  1  0  0  0  0
 25 33  1  6  0  0  0
 27 28  1  1  0  0  0
 27 35  1  0  0  0  0
 29 30  1  0  0  0  0
 29 37  1  6  0  0  0
 31 32  1  1  0  0  0
 31 39  1  0  0  0  0
 33 34  1  0  0  0  0
 35 36  1  0  0  0  0
 35 41  1  1  0  0  0
 37 38  1  0  0  0  0
 39 40  1  6  0  0  0
 41 42  1  0  0  0  0
M  END
>  <CHROM.1>
-133.15375483,60.57157527,163.10699130,146.34304925,73.33291806,175.87818036
63.68647865,-64.80920442,65.39281823,12.74013177,13.24456019,-9.07149668
2.87204735,1.08876987,-2.60298736

>  <Name>
2o3w_lig

>  <RI>
0

>  <Rbt.Current_Directory>
/home/itssahil/PROJECTS/Mol_Feturizer/New_Systems/rnas/2o3w

>  <Rbt.Executable>
rbdock ($Id: //depot/dev/client3/rdock/2013.1/src/exe/rbdock.cxx#4 $)

>  <Rbt.Library>
libRbt.so (2013.1, Build901 2013/11/27)

>  <Rbt.Parameter_File>
/export/apps/rDock/src/rDock_2013.1_src/data/scripts/dock_solv.prm

>  <Rbt.Receptor>
prm/blind_docking_80.prm

>  <SCORE>
-2.55244

>  <SCORE.INTER>
-10.6053

>  <SCORE.INTER.CONST>
1

>  <SCORE.INTER.POLAR>
-1.10873

>  <SCORE.INTER.ROT>
9

>  <SCORE.INTER.SOLV>
29.2001

>  <SCORE.INTER.VDW>
-22.7078

>  <SCORE.INTER.norm>
-0.252506

>  <SCORE.INTRA>
-3.69802

>  <SCORE.INTRA.DIHEDRAL>
-14.6294

>  <SCORE.INTRA.DIHEDRAL.0>
27.8999

>  <SCORE.INTRA.POLAR>
0

>  <SCORE.INTRA.POLAR.0>
0

>  <SCORE.INTRA.REPUL>
0

>  <SCORE.INTRA.REPUL.0>
0

>  <SCORE.INTRA.SOLV>
-1.35306

>  <SCORE.INTRA.SOLV.lig_0>
-104.479

>  <SCORE.INTRA.VDW>
4.2932

>  <SCORE.INTRA.VDW.0>
-6.17816

>  <SCORE.INTRA.norm>
-0.0880481

>  <SCORE.RESTR>
11.7509

>  <SCORE.RESTR.CAVITY>
11.7509

>  <SCORE.RESTR.norm>
0.279782

>  <SCORE.SYSTEM>
0

>  <SCORE.SYSTEM.CONST>
0

>  <SCORE.SYSTEM.DIHEDRAL>
0

>  <SCORE.SYSTEM.SOLV>
0

>  <SCORE.SYSTEM.norm>
0

>  <SCORE.heavy>
42

>  <SCORE.norm>
-0.0607723

>  <RMSD>
19.042

$$$$
2o3w_lig
 OpenBabel11021811463D
libRbt.so/2013.1/901 2013/11/27
 42 45  0  0  0  0  0  0  0  0999 V2000
   11.2378   13.2106   -9.9700 C   0  0  2  0  0  0  0  0  0  0  0  0
   11.9386   14.3579  -10.4798 O   0  0  0  0  0  0  0  0  0  0  0  0
   11.6102   17.2675  -13.6770 C   0  0  2  0  0  0  0  0  0  0  0  0
   11.0767   18.1242  -14.7779 N   0  0  0  0  0  0  0  0  0  0  0  0
    8.9297   16.7059  -10.2657 C   0  0  1  0  0  0  0  0  0  0  0  0
    4.8159   16.6162   -8.8802 C   0  0  1  0  0  0  0  0  0  0  0  0
   11.9462   12.7963   -8.6453 C   0  0  2  0  0  0  0  0  0  0  0  0
   12.1371   13.9336   -7.7285 N   0  0  0  0  0  0  0  0  0  0  0  0
   11.5675   15.7358  -14.0695 C   0  0  0  0  0  0  0  0  0  0  0  0
    8.1326   16.7652   -8.9270 C   0  0  2  0  0  0  0  0  0  0  0  0
    7.7445   15.4670   -8.4142 O   0  0  0  0  0  0  0  0  0  0  0  0
    3.7501   17.7446   -8.6364 C   0  0  2  0  0  0  0  0  0  0  0  0
    4.4089   19.0214   -8.2280 N   0  0  0  0  0  0  0  0  0  0  0  0
   13.3381   12.1863   -8.8931 C   0  0  1  0  0  0  0  0  0  0  0  0
   13.9326   11.7855   -7.6574 O   0  0  0  0  0  0  0  0  0  0  0  0
   12.1616   14.8879  -12.8819 C   0  0  2  0  0  0  0  0  0  0  0  0
   12.1502   13.4399  -13.2235 N   0  0  0  0  0  0  0  0  0  0  0  0
    6.9818   17.6980   -9.3076 C   0  0  2  0  0  0  0  0  0  0  0  0
    5.8355   16.9531   -9.8292 O   0  0  0  0  0  0  0  0  0  0  0  0
    2.7060   17.2544   -7.5245 C   0  0  1  0  0  0  0  0  0  0  0  0
    1.8347   16.2597   -8.1080 O   0  0  0  0  0  0  0  0  0  0  0  0
   13.2128   10.9961   -9.8713 C   0  0  2  0  0  0  0  0  0  0  0  0
   14.4767   10.4159  -10.0956 O   0  0  0  0  0  0  0  0  0  0  0  0
   11.3333   15.1268  -11.5580 C   0  0  2  0  0  0  0  0  0  0  0  0
    7.5479   18.6614  -10.3644 C   0  0  2  0  0  0  0  0  0  0  0  0
    8.5318   17.8698  -11.0261 O   0  0  0  0  0  0  0  0  0  0  0  0
    3.4203   16.6456   -6.2258 C   0  0  2  0  0  0  0  0  0  0  0  0
    4.0644   17.7212   -5.5442 O   0  0  0  0  0  0  0  0  0  0  0  0
   12.5907   11.5031  -11.2151 C   0  0  2  0  0  0  0  0  0  0  0  0
   11.2850   12.1091  -10.9549 O   0  0  0  0  0  0  0  0  0  0  0  0
   11.2835   16.6135  -11.1427 C   0  0  2  0  0  0  0  0  0  0  0  0
   10.3439   16.6693  -10.0343 O   0  0  0  0  0  0  0  0  0  0  0  0
    8.1731   19.9716   -9.7928 C   0  0  0  0  0  0  0  0  0  0  0  0
    7.3850   20.4306   -8.6988 O   0  0  0  0  0  0  0  0  0  0  0  0
    4.4755   15.5493   -6.6344 C   0  0  1  0  0  0  0  0  0  0  0  0
    5.4193   16.2114   -7.5516 O   0  0  0  0  0  0  0  0  0  0  0  0
   12.4253   10.3981  -12.2327 C   0  0  0  0  0  0  0  0  0  0  0  0
   11.5531    9.4108  -11.7389 O   0  0  0  0  0  0  0  0  0  0  0  0
   10.7783   17.5051  -12.3534 C   0  0  1  0  0  0  0  0  0  0  0  0
   10.8763   18.8923  -12.0192 O   0  0  0  0  0  0  0  0  0  0  0  0
    5.2584   14.9139   -5.4048 C   0  0  0  0  0  0  0  0  0  0  0  0
    4.4884   13.9337   -4.5906 N   0  0  0  0  0  0  0  0  0  0  0  0
  1  2  1  6  0  0  0
  1  7  1  0  0  0  0
  1 30  1  0  0  0  0
  3  4  1  6  0  0  0
  3  9  1  0  0  0  0
  3 39  1  0  0  0  0
  5 10  1  0  0  0  0
  5 26  1  0  0  0  0
  5 32  1  1  0  0  0
  6 12  1  0  0  0  0
  6 36  1  0  0  0  0
  6 19  1  6  0  0  0
  7  8  1  1  0  0  0
  7 14  1  0  0  0  0
  9 16  1  0  0  0  0
 10 11  1  6  0  0  0
 10 18  1  0  0  0  0
 12 13  1  1  0  0  0
 12 20  1  0  0  0  0
 14 15  1  1  0  0  0
 14 22  1  0  0  0  0
 16 17  1  6  0  0  0
 16 24  1  0  0  0  0
 18 19  1  6  0  0  0
 18 25  1  0  0  0  0
 20 21  1  6  0  0  0
 20 27  1  0  0  0  0
 22 23  1  6  0  0  0
 22 29  1  0  0  0  0
 24  2  1  1  0  0  0
 24 31  1  0  0  0  0
 25 26  1  0  0  0  0
 25 33  1  1  0  0  0
 27 28  1  6  0  0  0
 27 35  1  0  0  0  0
 29 30  1  0  0  0  0
 29 37  1  6  0  0  0
 31 32  1  1  0  0  0
 31 39  1  0  0  0  0
 33 34  1  0  0  0  0
 35 36  1  0  0  0  0
 35 41  1  1  0  0  0
 37 38  1  0  0  0  0
 39 40  1  1  0  0  0
 41 42  1  0  0  0  0
M  END
>  <CHROM.1>
-167.45196897,-179.91712223,84.85383788,94.46978414,-109.48476561,-38.59197968
61.39283948,-81.48759079,75.54084398,8.97897912,15.46069817,-9.72509386,0.18345983
-0.59580236,2.55259206

>  <Name>
2o3w_lig

>  <RI>
0

>  <Rbt.Current_Directory>
/home/itssahil/PROJECTS/Mol_Feturizer/New_Systems/rnas/2o3w

>  <Rbt.Executable>
rbdock ($Id: //depot/dev/client3/rdock/2013.1/src/exe/rbdock.cxx#4 $)

>  <Rbt.Library>
libRbt.so (2013.1, Build901 2013/11/27)

>  <Rbt.Parameter_File>
/export/apps/rDock/src/rDock_2013.1_src/data/scripts/dock_solv.prm

>  <Rbt.Receptor>
prm/blind_docking_100.prm

>  <SCORE>
-0.235507

>  <SCORE.INTER>
-7.74798

>  <SCORE.INTER.CONST>
1

>  <SCORE.INTER.POLAR>
0

>  <SCORE.INTER.ROT>
9

>  <SCORE.INTER.SOLV>
21.3989

>  <SCORE.INTER.VDW>
-21.8983

>  <SCORE.INTER.norm>
-0.184476

>  <SCORE.INTRA>
-1.18843

>  <SCORE.INTRA.DIHEDRAL>
-9.03769

>  <SCORE.INTRA.DIHEDRAL.0>
27.8999

>  <SCORE.INTRA.POLAR>
0

>  <SCORE.INTRA.POLAR.0>
0

>  <SCORE.INTRA.REPUL>
0

>  <SCORE.INTRA.REPUL.0>
0

>  <SCORE.INTRA.SOLV>
0.716046

>  <SCORE.INTRA.SOLV.lig_0>
-104.479

>  <SCORE.INTRA.VDW>
2.97239

>  <SCORE.INTRA.VDW.0>
-6.17816

>  <SCORE.INTRA.norm>
-0.028296

>  <SCORE.RESTR>
8.70091

>  <SCORE.RESTR.CAVITY>
8.70091

>  <SCORE.RESTR.norm>
0.207165

>  <SCORE.SYSTEM>
0

>  <SCORE.SYSTEM.CONST>
0

>  <SCORE.SYSTEM.DIHEDRAL>
0

>  <SCORE.SYSTEM.SOLV>
0

>  <SCORE.SYSTEM.norm>
0

>  <SCORE.heavy>
42

>  <SCORE.norm>
-0.00560731

>  <RMSD>
19.043

$$$$
2o3w_lig
 OpenBabel11021811463D
libRbt.so/2013.1/901 2013/11/27
 42 45  0  0  0  0  0  0  0  0999 V2000
   12.2814   10.0914   -8.4780 C   0  0  2  0  0  0  0  0  0  0  0  0
   11.7549   10.6171   -9.7083 O   0  0  0  0  0  0  0  0  0  0  0  0
   15.2313    9.8602  -12.1858 C   0  0  2  0  0  0  0  0  0  0  0  0
   16.1654    9.7810  -13.3483 N   0  0  0  0  0  0  0  0  0  0  0  0
   12.7088   13.4617  -11.9094 C   0  0  1  0  0  0  0  0  0  0  0  0
   11.2053   15.7217  -14.7536 C   0  0  1  0  0  0  0  0  0  0  0  0
   11.0766    9.9160   -7.5055 C   0  0  2  0  0  0  0  0  0  0  0  0
    9.9536    9.1904   -8.1244 N   0  0  0  0  0  0  0  0  0  0  0  0
   13.9559    8.9522  -12.4114 C   0  0  0  0  0  0  0  0  0  0  0  0
   11.2086   13.1143  -12.1531 C   0  0  2  0  0  0  0  0  0  0  0  0
   11.0017   11.9455  -12.9838 O   0  0  0  0  0  0  0  0  0  0  0  0
   12.7252   15.8026  -15.1439 C   0  0  2  0  0  0  0  0  0  0  0  0
   13.5946   15.4859  -13.9715 N   0  0  0  0  0  0  0  0  0  0  0  0
   10.5188   11.2655   -7.0169 C   0  0  1  0  0  0  0  0  0  0  0  0
    9.4441   11.0565   -6.0992 O   0  0  0  0  0  0  0  0  0  0  0  0
   13.0227    9.0598  -11.1465 C   0  0  2  0  0  0  0  0  0  0  0  0
   11.8173    8.2049  -11.3186 N   0  0  0  0  0  0  0  0  0  0  0  0
   10.6873   14.4337  -12.7247 C   0  0  2  0  0  0  0  0  0  0  0  0
   10.8014   14.4708  -14.1829 O   0  0  0  0  0  0  0  0  0  0  0  0
   13.0460   17.2626  -15.7205 C   0  0  1  0  0  0  0  0  0  0  0  0
   12.4787   17.3769  -17.0449 O   0  0  0  0  0  0  0  0  0  0  0  0
   11.6566   12.0917   -6.3750 C   0  0  2  0  0  0  0  0  0  0  0  0
   11.1587   13.3236   -5.9073 O   0  0  0  0  0  0  0  0  0  0  0  0
   12.5806   10.5574  -10.9062 C   0  0  2  0  0  0  0  0  0  0  0  0
   11.5302   15.5419  -12.0714 C   0  0  2  0  0  0  0  0  0  0  0  0
   12.7874   14.9047  -11.8568 O   0  0  0  0  0  0  0  0  0  0  0  0
   12.4775   18.4373  -14.7908 C   0  0  2  0  0  0  0  0  0  0  0  0
   13.2428   18.4421  -13.5863 O   0  0  0  0  0  0  0  0  0  0  0  0
   12.7845   12.3180   -7.4362 C   0  0  2  0  0  0  0  0  0  0  0  0
   13.2778   11.0261   -7.9129 O   0  0  0  0  0  0  0  0  0  0  0  0
   13.7796   11.5153  -10.7332 C   0  0  2  0  0  0  0  0  0  0  0  0
   13.2022   12.8497  -10.7106 O   0  0  0  0  0  0  0  0  0  0  0  0
   10.9528   16.1079  -10.7371 C   0  0  0  0  0  0  0  0  0  0  0  0
    9.5609   16.3639  -10.8979 O   0  0  0  0  0  0  0  0  0  0  0  0
   10.9535   18.2021  -14.4675 C   0  0  1  0  0  0  0  0  0  0  0  0
   10.8700   16.8756  -13.8322 O   0  0  0  0  0  0  0  0  0  0  0  0
   13.9457   13.1157   -6.8894 C   0  0  0  0  0  0  0  0  0  0  0  0
   13.5046   14.3792   -6.4556 O   0  0  0  0  0  0  0  0  0  0  0  0
   14.7869   11.3591  -11.9483 C   0  0  1  0  0  0  0  0  0  0  0  0
   15.9670   12.1323  -11.7135 O   0  0  0  0  0  0  0  0  0  0  0  0
   10.3147   19.3070  -13.5190 C   0  0  0  0  0  0  0  0  0  0  0  0
   10.5654   20.7191  -13.9184 N   0  0  0  0  0  0  0  0  0  0  0  0
  1  2  1  6  0  0  0
  1  7  1  0  0  0  0
  1 30  1  0  0  0  0
  3  4  1  6  0  0  0
  3  9  1  0  0  0  0
  3 39  1  0  0  0  0
  5 10  1  0  0  0  0
  5 26  1  0  0  0  0
  5 32  1  1  0  0  0
  6 12  1  0  0  0  0
  6 36  1  0  0  0  0
  6 19  1  1  0  0  0
  7  8  1  6  0  0  0
  7 14  1  0  0  0  0
  9 16  1  0  0  0  0
 10 11  1  6  0  0  0
 10 18  1  0  0  0  0
 12 13  1  1  0  0  0
 12 20  1  0  0  0  0
 14 15  1  1  0  0  0
 14 22  1  0  0  0  0
 16 17  1  6  0  0  0
 16 24  1  0  0  0  0
 18 19  1  6  0  0  0
 18 25  1  0  0  0  0
 20 21  1  6  0  0  0
 20 27  1  0  0  0  0
 22 23  1  6  0  0  0
 22 29  1  0  0  0  0
 24  2  1  1  0  0  0
 24 31  1  0  0  0  0
 25 26  1  0  0  0  0
 25 33  1  1  0  0  0
 27 28  1  1  0  0  0
 27 35  1  0  0  0  0
 29 30  1  0  0  0  0
 29 37  1  1  0  0  0
 31 32  1  6  0  0  0
 31 39  1  0  0  0  0
 33 34  1  0  0  0  0
 35 36  1  0  0  0  0
 35 41  1  1  0  0  0
 37 38  1  0  0  0  0
 39 40  1  1  0  0  0
 41 42  1  0  0  0  0
M  END
>  <CHROM.1>
-164.20165230,89.00596651,99.92643469,-140.45471455,55.13807405,-46.10261553
-59.65056486,-73.74068449,49.49337943,12.24119640,13.52497811,-11.27759281
-1.45318092,1.05929598,-0.81409910

>  <Name>
2o3w_lig

>  <RI>
0

>  <Rbt.Current_Directory>
/home/itssahil/PROJECTS/Mol_Feturizer/New_Systems/rnas/2o3w

>  <Rbt.Executable>
rbdock ($Id: //depot/dev/client3/rdock/2013.1/src/exe/rbdock.cxx#4 $)

>  <Rbt.Library>
libRbt.so (2013.1, Build901 2013/11/27)

>  <Rbt.Parameter_File>
/export/apps/rDock/src/rDock_2013.1_src/data/scripts/dock_solv.prm

>  <Rbt.Receptor>
prm/blind_docking_80.prm

>  <SCORE>
12.5797

>  <SCORE.INTER>
-3.94057

>  <SCORE.INTER.CONST>
1

>  <SCORE.INTER.POLAR>
-0.134536

>  <SCORE.INTER.ROT>
9

>  <SCORE.INTER.SOLV>
27.0506

>  <SCORE.INTER.VDW>
-20.7955

>  <SCORE.INTER.norm>
-0.0938232

>  <SCORE.INTRA>
7.84965

>  <SCORE.INTRA.DIHEDRAL>
-10.5246

>  <SCORE.INTRA.DIHEDRAL.0>
27.8999

>  <SCORE.INTRA.POLAR>
0

>  <SCORE.INTRA.POLAR.0>
0

>  <SCORE.INTRA.REPUL>
0

>  <SCORE.INTRA.REPUL.0>
0

>  <SCORE.INTRA.SOLV>
1.68761

>  <SCORE.INTRA.SOLV.lig_0>
-104.479

>  <SCORE.INTRA.VDW>
12.2681

>  <SCORE.INTRA.VDW.0>
-6.17816

>  <SCORE.INTRA.norm>
0.186896

>  <SCORE.RESTR>
8.67063

>  <SCORE.RESTR.CAVITY>
8.67063

>  <SCORE.RESTR.norm>
0.206444

>  <SCORE.SYSTEM>
0

>  <SCORE.SYSTEM.CONST>
0

>  <SCORE.SYSTEM.DIHEDRAL>
0

>  <SCORE.SYSTEM.SOLV>
0

>  <SCORE.SYSTEM.norm>
0

>  <SCORE.heavy>
42

>  <SCORE.norm>
0.299517

>  <RMSD>
19.078

$$$$
2o3w_lig
 OpenBabel11021811463D
libRbt.so/2013.1/901 2013/11/27
 42 45  0  0  0  0  0  0  0  0999 V2000
   10.9367   13.9589  -10.7242 C   0  0  2  0  0  0  0  0  0  0  0  0
   11.6147   14.2995   -9.5029 O   0  0  0  0  0  0  0  0  0  0  0  0
   13.0053   11.6600   -6.3572 C   0  0  2  0  0  0  0  0  0  0  0  0
   13.0467   10.6872   -5.2248 N   0  0  0  0  0  0  0  0  0  0  0  0
   11.6573   10.5686  -10.8218 C   0  0  1  0  0  0  0  0  0  0  0  0
   13.1468    8.7349  -12.7115 C   0  0  1  0  0  0  0  0  0  0  0  0
   11.9699   14.1226  -11.8791 C   0  0  2  0  0  0  0  0  0  0  0  0
   13.2425   13.4352  -11.5987 N   0  0  0  0  0  0  0  0  0  0  0  0
   12.3067   13.0122   -5.9270 C   0  0  0  0  0  0  0  0  0  0  0  0
   11.0014    9.1687  -10.6200 C   0  0  2  0  0  0  0  0  0  0  0  0
   11.7879    8.2607   -9.8100 O   0  0  0  0  0  0  0  0  0  0  0  0
   13.5964    9.0321  -14.1874 C   0  0  2  0  0  0  0  0  0  0  0  0
   13.6982    7.7694  -14.9786 N   0  0  0  0  0  0  0  0  0  0  0  0
   12.3124   15.5988  -12.1519 C   0  0  1  0  0  0  0  0  0  0  0  0
   13.2301   15.7033  -13.2417 O   0  0  0  0  0  0  0  0  0  0  0  0
   12.3135   14.0025   -7.1525 C   0  0  2  0  0  0  0  0  0  0  0  0
   11.6754   15.2934   -6.7781 N   0  0  0  0  0  0  0  0  0  0  0  0
   10.7738    8.7356  -12.0691 C   0  0  2  0  0  0  0  0  0  0  0  0
   11.9225    7.9990  -12.5972 O   0  0  0  0  0  0  0  0  0  0  0  0
   14.9953    9.8128  -14.1670 C   0  0  1  0  0  0  0  0  0  0  0  0
   14.7651   11.1728  -13.7355 O   0  0  0  0  0  0  0  0  0  0  0  0
   11.0122   16.3866  -12.4314 C   0  0  2  0  0  0  0  0  0  0  0  0
   11.3102   17.7371  -12.6996 O   0  0  0  0  0  0  0  0  0  0  0  0
   11.5500   13.3710   -8.3830 C   0  0  2  0  0  0  0  0  0  0  0  0
   10.5272   10.0284  -12.8648 C   0  0  2  0  0  0  0  0  0  0  0  0
   11.3029   10.9934  -12.1579 O   0  0  0  0  0  0  0  0  0  0  0  0
   16.0787    9.1227  -13.2090 C   0  0  2  0  0  0  0  0  0  0  0  0
   16.4614    7.8869  -13.8112 O   0  0  0  0  0  0  0  0  0  0  0  0
   10.0650   16.2650  -11.1914 C   0  0  2  0  0  0  0  0  0  0  0  0
    9.7785   14.8550  -10.9277 O   0  0  0  0  0  0  0  0  0  0  0  0
   12.1440   12.0155   -8.8247 C   0  0  2  0  0  0  0  0  0  0  0  0
   11.2216   11.5020   -9.8248 O   0  0  0  0  0  0  0  0  0  0  0  0
    9.0334   10.4688  -12.9585 C   0  0  0  0  0  0  0  0  0  0  0  0
    8.2673    9.4143  -13.5330 O   0  0  0  0  0  0  0  0  0  0  0  0
   15.4723    8.8671  -11.7776 C   0  0  1  0  0  0  0  0  0  0  0  0
   14.2746    8.0344  -11.9833 O   0  0  0  0  0  0  0  0  0  0  0  0
    8.7606   17.0040  -11.3814 C   0  0  0  0  0  0  0  0  0  0  0  0
    9.0085   18.3345  -11.7655 O   0  0  0  0  0  0  0  0  0  0  0  0
   12.2382   11.0280   -7.5871 C   0  0  1  0  0  0  0  0  0  0  0  0
   12.9254    9.8311   -7.9621 O   0  0  0  0  0  0  0  0  0  0  0  0
   16.4722    8.1521  -10.7689 C   0  0  0  0  0  0  0  0  0  0  0  0
   16.6778    6.6947  -10.9933 N   0  0  0  0  0  0  0  0  0  0  0  0
  1  2  1  1  0  0  0
  1  7  1  0  0  0  0
  1 30  1  0  0  0  0
  3  4  1  1  0  0  0
  3  9  1  0  0  0  0
  3 39  1  0  0  0  0
  5 10  1  0  0  0  0
  5 26  1  0  0  0  0
  5 32  1  1  0  0  0
  6 12  1  0  0  0  0
  6 36  1  0  0  0  0
  6 19  1  6  0  0  0
  7  8  1  1  0  0  0
  7 14  1  0  0  0  0
  9 16  1  0  0  0  0
 10 11  1  6  0  0  0
 10 18  1  0  0  0  0
 12 13  1  6  0  0  0
 12 20  1  0  0  0  0
 14 15  1  6  0  0  0
 14 22  1  0  0  0  0
 16 17  1  1  0  0  0
 16 24  1  0  0  0  0
 18 19  1  6  0  0  0
 18 25  1  0  0  0  0
 20 21  1  1  0  0  0
 20 27  1  0  0  0  0
 22 23  1  1  0  0  0
 22 29  1  0  0  0  0
 24  2  1  6  0  0  0
 24 31  1  0  0  0  0
 25 26  1  0  0  0  0
 25 33  1  1  0  0  0
 27 28  1  6  0  0  0
 27 35  1  0  0  0  0
 29 30  1  0  0  0  0
 29 37  1  6  0  0  0
 31 32  1  6  0  0  0
 31 39  1  0  0  0  0
 33 34  1  0  0  0  0
 35 36  1  0  0  0  0
 35 41  1  1  0  0  0
 37 38  1  0  0  0  0
 39 40  1  6  0  0  0
 41 42  1  0  0  0  0
M  END
>  <CHROM.1>
-128.85038903,112.55777889,-110.42486775,-64.51598814,-177.49271524,-56.95135674
-52.36620671,155.41193084,-75.44904930,12.30664425,11.69829464,-11.06140657
2.82164204,-1.11419703,1.46128233

>  <Name>
2o3w_lig

>  <RI>
0

>  <Rbt.Current_Directory>
/home/itssahil/PROJECTS/Mol_Feturizer/New_Systems/rnas/2o3w

>  <Rbt.Executable>
rbdock ($Id: //depot/dev/client3/rdock/2013.1/src/exe/rbdock.cxx#4 $)

>  <Rbt.Library>
libRbt.so (2013.1, Build901 2013/11/27)

>  <Rbt.Parameter_File>
/export/apps/rDock/src/rDock_2013.1_src/data/scripts/dock_solv.prm

>  <Rbt.Receptor>
prm/blind_docking_40.prm

>  <SCORE>
7.2084

>  <SCORE.INTER>
-6.27948

>  <SCORE.INTER.CONST>
1

>  <SCORE.INTER.POLAR>
-2.17843

>  <SCORE.INTER.ROT>
9

>  <SCORE.INTER.SOLV>
42.5768

>  <SCORE.INTER.VDW>
-20.7172

>  <SCORE.INTER.norm>
-0.149511

>  <SCORE.INTRA>
1.26449

>  <SCORE.INTRA.DIHEDRAL>
-3.57743

>  <SCORE.INTRA.DIHEDRAL.0>
27.8999

>  <SCORE.INTRA.POLAR>
0

>  <SCORE.INTRA.POLAR.0>
0

>  <SCORE.INTRA.REPUL>
0.151129

>  <SCORE.INTRA.REPUL.0>
0

>  <SCORE.INTRA.SOLV>
-0.0525222

>  <SCORE.INTRA.SOLV.lig_0>
-104.479

>  <SCORE.INTRA.VDW>
2.32381

>  <SCORE.INTRA.VDW.0>
-6.17816

>  <SCORE.INTRA.norm>
0.0301068

>  <SCORE.RESTR>
12.2234

>  <SCORE.RESTR.CAVITY>
12.2234

>  <SCORE.RESTR.norm>
0.291033

>  <SCORE.SYSTEM>
0

>  <SCORE.SYSTEM.CONST>
0

>  <SCORE.SYSTEM.DIHEDRAL>
0

>  <SCORE.SYSTEM.SOLV>
0

>  <SCORE.SYSTEM.norm>
0

>  <SCORE.heavy>
42

>  <SCORE.norm>
0.171629

>  <RMSD>
19.235

$$$$
2o3w_lig
 OpenBabel11021811463D
libRbt.so/2013.1/901 2013/11/27
 42 45  0  0  0  0  0  0  0  0999 V2000
   11.7075   14.9700  -11.3781 C   0  0  2  0  0  0  0  0  0  0  0  0
   11.0171   13.8789  -12.0106 O   0  0  0  0  0  0  0  0  0  0  0  0
   11.9476    9.8707  -13.3761 C   0  0  2  0  0  0  0  0  0  0  0  0
   12.5253    8.4978  -13.4836 N   0  0  0  0  0  0  0  0  0  0  0  0
   11.0460   11.4802   -9.3286 C   0  0  1  0  0  0  0  0  0  0  0  0
   14.0377   11.0256   -6.8303 C   0  0  1  0  0  0  0  0  0  0  0  0
   10.6238   15.9978  -10.9337 C   0  0  2  0  0  0  0  0  0  0  0  0
    9.5240   15.3681  -10.1824 N   0  0  0  0  0  0  0  0  0  0  0  0
   13.0666   10.9780  -13.5295 C   0  0  0  0  0  0  0  0  0  0  0  0
   11.3575    9.9672   -9.1179 C   0  0  2  0  0  0  0  0  0  0  0  0
   10.4786    9.3107   -8.1716 O   0  0  0  0  0  0  0  0  0  0  0  0
   14.8692   10.4948   -5.6073 C   0  0  2  0  0  0  0  0  0  0  0  0
   13.9745   10.1590   -4.4594 N   0  0  0  0  0  0  0  0  0  0  0  0
    9.9849   16.7272  -12.1298 C   0  0  1  0  0  0  0  0  0  0  0  0
    9.0282   17.6856  -11.6747 O   0  0  0  0  0  0  0  0  0  0  0  0
   12.3948   12.3997  -13.4300 C   0  0  2  0  0  0  0  0  0  0  0  0
   13.4188   13.4679  -13.5849 N   0  0  0  0  0  0  0  0  0  0  0  0
   12.8343   10.0200   -8.7235 C   0  0  2  0  0  0  0  0  0  0  0  0
   13.0003   10.1427   -7.2750 O   0  0  0  0  0  0  0  0  0  0  0  0
   15.9546   11.5962   -5.1880 C   0  0  1  0  0  0  0  0  0  0  0  0
   17.0107   11.6107   -6.1746 O   0  0  0  0  0  0  0  0  0  0  0  0
   11.0916   17.3936  -12.9784 C   0  0  2  0  0  0  0  0  0  0  0  0
   10.5215   18.0799  -14.0686 O   0  0  0  0  0  0  0  0  0  0  0  0
   11.6558   12.5708  -12.0442 C   0  0  2  0  0  0  0  0  0  0  0  0
   13.4263   11.2352   -9.4571 C   0  0  2  0  0  0  0  0  0  0  0  0
   12.3201   12.1308   -9.5395 O   0  0  0  0  0  0  0  0  0  0  0  0
   15.3292   13.0651   -5.0507 C   0  0  2  0  0  0  0  0  0  0  0  0
   14.4785   13.0660   -3.9050 O   0  0  0  0  0  0  0  0  0  0  0  0
   12.0856   16.2922  -13.4769 C   0  0  2  0  0  0  0  0  0  0  0  0
   12.6562   15.5884  -12.3284 O   0  0  0  0  0  0  0  0  0  0  0  0
   10.5836   11.4864  -11.7993 C   0  0  2  0  0  0  0  0  0  0  0  0
   10.1470   11.6841  -10.4265 O   0  0  0  0  0  0  0  0  0  0  0  0
   14.0082   10.9304  -10.8723 C   0  0  0  0  0  0  0  0  0  0  0  0
   14.7427   12.0607  -11.3325 O   0  0  0  0  0  0  0  0  0  0  0  0
   14.5068   13.4418   -6.3407 C   0  0  1  0  0  0  0  0  0  0  0  0
   13.4828   12.3938   -6.4937 O   0  0  0  0  0  0  0  0  0  0  0  0
   13.2094   16.8588  -14.3135 C   0  0  0  0  0  0  0  0  0  0  0  0
   14.0943   15.8337  -14.6950 O   0  0  0  0  0  0  0  0  0  0  0  0
   11.2109   10.0419  -11.9874 C   0  0  1  0  0  0  0  0  0  0  0  0
   10.1875    9.0457  -11.9103 O   0  0  0  0  0  0  0  0  0  0  0  0
   13.8209   14.8750   -6.2758 C   0  0  0  0  0  0  0  0  0  0  0  0
   12.4193   14.9394   -6.7738 N   0  0  0  0  0  0  0  0  0  0  0  0
  1  2  1  6  0  0  0
  1  7  1  0  0  0  0
  1 30  1  0  0  0  0
  3  4  1  1  0  0  0
  3  9  1  0  0  0  0
  3 39  1  0  0  0  0
  5 10  1  0  0  0  0
  5 26  1  0  0  0  0
  5 32  1  6  0  0  0
  6 12  1  0  0  0  0
  6 36  1  0  0  0  0
  6 19  1  1  0  0  0
  7  8  1  6  0  0  0
  7 14  1  0  0  0  0
  9 16  1  0  0  0  0
 10 11  1  1  0  0  0
 10 18  1  0  0  0  0
 12 13  1  1  0  0  0
 12 20  1  0  0  0  0
 14 15  1  1  0  0  0
 14 22  1  0  0  0  0
 16 17  1  1  0  0  0
 16 24  1  0  0  0  0
 18 19  1  1  0  0  0
 18 25  1  0  0  0  0
 20 21  1  6  0  0  0
 20 27  1  0  0  0  0
 22 23  1  6  0  0  0
 22 29  1  0  0  0  0
 24  2  1  6  0  0  0
 24 31  1  0  0  0  0
 25 26  1  0  0  0  0
 25 33  1  6  0  0  0
 27 28  1  1  0  0  0
 27 35  1  0  0  0  0
 29 30  1  0  0  0  0
 29 37  1  1  0  0  0
 31 32  1  1  0  0  0
 31 39  1  0  0  0  0
 33 34  1  0  0  0  0
 35 36  1  0  0  0  0
 35 41  1  1  0  0  0
 37 38  1  0  0  0  0
 39 40  1  6  0  0  0
 41 42  1  0  0  0  0
M  END
>  <CHROM.1>
-155.62114274,-71.46820687,-139.29697065,-139.87295323,-96.09946279,-169.07723458
178.01325497,-64.99539211,-136.72511791,12.51371988,12.84120784,-10.06387565
-2.72557512,1.20558037,-3.06408578

>  <Name>
2o3w_lig

>  <RI>
0

>  <Rbt.Current_Directory>
/home/itssahil/PROJECTS/Mol_Feturizer/New_Systems/rnas/2o3w

>  <Rbt.Executable>
rbdock ($Id: //depot/dev/client3/rdock/2013.1/src/exe/rbdock.cxx#4 $)

>  <Rbt.Library>
libRbt.so (2013.1, Build901 2013/11/27)

>  <Rbt.Parameter_File>
/export/apps/rDock/src/rDock_2013.1_src/data/scripts/dock_solv.prm

>  <Rbt.Receptor>
prm/blind_docking_40.prm

>  <SCORE>
15.8091

>  <SCORE.INTER>
-1.09038

>  <SCORE.INTER.CONST>
1

>  <SCORE.INTER.POLAR>
-1.48891

>  <SCORE.INTER.ROT>
9

>  <SCORE.INTER.SOLV>
34.0396

>  <SCORE.INTER.VDW>
-16.7104

>  <SCORE.INTER.norm>
-0.0259614

>  <SCORE.INTRA>
5.29305

>  <SCORE.INTRA.DIHEDRAL>
-4.18004

>  <SCORE.INTRA.DIHEDRAL.0>
27.8999

>  <SCORE.INTRA.POLAR>
0

>  <SCORE.INTRA.POLAR.0>
0

>  <SCORE.INTRA.REPUL>
0

>  <SCORE.INTRA.REPUL.0>
0

>  <SCORE.INTRA.SOLV>
3.04494

>  <SCORE.INTRA.SOLV.lig_0>
-104.479

>  <SCORE.INTRA.VDW>
5.8606

>  <SCORE.INTRA.VDW.0>
-6.17816

>  <SCORE.INTRA.norm>
0.126025

>  <SCORE.RESTR>
11.6064

>  <SCORE.RESTR.CAVITY>
11.6064

>  <SCORE.RESTR.norm>
0.276343

>  <SCORE.SYSTEM>
0

>  <SCORE.SYSTEM.CONST>
0

>  <SCORE.SYSTEM.DIHEDRAL>
0

>  <SCORE.SYSTEM.SOLV>
0

>  <SCORE.SYSTEM.norm>
0

>  <SCORE.heavy>
42

>  <SCORE.norm>
0.376407

>  <RMSD>
19.248

$$$$
2o3w_lig
 OpenBabel11021811463D
libRbt.so/2013.1/901 2013/11/27
 42 45  0  0  0  0  0  0  0  0999 V2000
   10.8229   14.0364  -12.7444 C   0  0  2  0  0  0  0  0  0  0  0  0
   12.1372   13.7609  -12.2306 O   0  0  0  0  0  0  0  0  0  0  0  0
   12.5812    9.5860  -13.3120 C   0  0  2  0  0  0  0  0  0  0  0  0
   12.9601    8.1415  -13.3014 N   0  0  0  0  0  0  0  0  0  0  0  0
   11.4303   11.2690   -9.4372 C   0  0  1  0  0  0  0  0  0  0  0  0
   14.4428   10.6975   -6.1128 C   0  0  1  0  0  0  0  0  0  0  0  0
   11.0093   14.8687  -14.0485 C   0  0  2  0  0  0  0  0  0  0  0  0
   11.9815   14.2588  -14.9723 N   0  0  0  0  0  0  0  0  0  0  0  0
   13.8578   10.5135  -13.4210 C   0  0  0  0  0  0  0  0  0  0  0  0
   12.9635   11.5479   -9.3889 C   0  0  2  0  0  0  0  0  0  0  0  0
   13.7732   10.4891   -9.9568 O   0  0  0  0  0  0  0  0  0  0  0  0
   13.9431   11.5067   -4.8620 C   0  0  2  0  0  0  0  0  0  0  0  0
   13.4724   12.8671   -5.2601 N   0  0  0  0  0  0  0  0  0  0  0  0
   11.5036   16.2988  -13.7634 C   0  0  1  0  0  0  0  0  0  0  0  0
   11.6221   17.0362  -14.9812 O   0  0  0  0  0  0  0  0  0  0  0  0
   13.3938   12.0189  -13.4502 C   0  0  2  0  0  0  0  0  0  0  0  0
   14.5712   12.9211  -13.5671 N   0  0  0  0  0  0  0  0  0  0  0  0
   13.1705   11.8121   -7.8967 C   0  0  2  0  0  0  0  0  0  0  0  0
   13.4832   10.5809   -7.1707 O   0  0  0  0  0  0  0  0  0  0  0  0
   15.1257   11.5991   -3.7851 C   0  0  1  0  0  0  0  0  0  0  0  0
   15.2856   10.3083   -3.1548 O   0  0  0  0  0  0  0  0  0  0  0  0
   10.5366   16.9913  -12.7761 C   0  0  2  0  0  0  0  0  0  0  0  0
   10.9660   18.3078  -12.5177 O   0  0  0  0  0  0  0  0  0  0  0  0
   12.5798   12.3763  -12.1443 C   0  0  2  0  0  0  0  0  0  0  0  0
   11.8606   12.4398   -7.3911 C   0  0  2  0  0  0  0  0  0  0  0  0
   10.8748   11.8487   -8.2345 O   0  0  0  0  0  0  0  0  0  0  0  0
   16.5194   12.0571   -4.4295 C   0  0  2  0  0  0  0  0  0  0  0  0
   16.3879   13.4254   -4.8128 O   0  0  0  0  0  0  0  0  0  0  0  0
   10.4765   16.1592  -11.4519 C   0  0  2  0  0  0  0  0  0  0  0  0
   10.0380   14.7953  -11.7475 O   0  0  0  0  0  0  0  0  0  0  0  0
   11.3454   11.4705  -11.9414 C   0  0  2  0  0  0  0  0  0  0  0  0
   10.8345   11.8108  -10.6232 O   0  0  0  0  0  0  0  0  0  0  0  0
   11.8044   13.9971   -7.4680 C   0  0  0  0  0  0  0  0  0  0  0  0
   10.8959   14.4842   -6.4850 O   0  0  0  0  0  0  0  0  0  0  0  0
   16.8698   11.1707   -5.6840 C   0  0  1  0  0  0  0  0  0  0  0  0
   15.7347   11.3092   -6.6128 O   0  0  0  0  0  0  0  0  0  0  0  0
    9.5447   16.7635  -10.4272 C   0  0  0  0  0  0  0  0  0  0  0  0
    8.2655   16.9467  -10.9834 O   0  0  0  0  0  0  0  0  0  0  0  0
   11.7692    9.9433  -12.0030 C   0  0  1  0  0  0  0  0  0  0  0  0
   10.6091    9.1075  -11.9671 O   0  0  0  0  0  0  0  0  0  0  0  0
   18.2253   11.5798   -6.4078 C   0  0  0  0  0  0  0  0  0  0  0  0
   18.7506   10.5939   -7.3920 N   0  0  0  0  0  0  0  0  0  0  0  0
  1  2  1  1  0  0  0
  1  7  1  0  0  0  0
  1 30  1  0  0  0  0
  3  4  1  1  0  0  0
  3  9  1  0  0  0  0
  3 39  1  0  0  0  0
  5 10  1  0  0  0  0
  5 26  1  0  0  0  0
  5 32  1  6  0  0  0
  6 12  1  0  0  0  0
  6 36  1  0  0  0  0
  6 19  1  6  0  0  0
  7  8  1  6  0  0  0
  7 14  1  0  0  0  0
  9 16  1  0  0  0  0
 10 11  1  1  0  0  0
 10 18  1  0  0  0  0
 12 13  1  6  0  0  0
 12 20  1  0  0  0  0
 14 15  1  6  0  0  0
 14 22  1  0  0  0  0
 16 17  1  1  0  0  0
 16 24  1  0  0  0  0
 18 19  1  1  0  0  0
 18 25  1  0  0  0  0
 20 21  1  6  0  0  0
 20 27  1  0  0  0  0
 22 23  1  1  0  0  0
 22 29  1  0  0  0  0
 24  2  1  6  0  0  0
 24 31  1  0  0  0  0
 25 26  1  0  0  0  0
 25 33  1  6  0  0  0
 27 28  1  6  0  0  0
 27 35  1  0  0  0  0
 29 30  1  0  0  0  0
 29 37  1  1  0  0  0
 31 32  1  1  0  0  0
 31 39  1  0  0  0  0
 33 34  1  0  0  0  0
 35 36  1  0  0  0  0
 35 41  1  6  0  0  0
 37 38  1  0  0  0  0
 39 40  1  6  0  0  0
 41 42  1  0  0  0  0
M  END
>  <CHROM.1>
-116.99414188,54.34905064,69.18118050,142.56420709,94.40588215,-154.17386010
54.63675879,-80.44705810,166.65211349,12.79304799,12.73410755,-9.75009797
2.61203843,0.99267713,-2.10161474

>  <Name>
2o3w_lig

>  <RI>
0

>  <Rbt.Current_Directory>
/home/itssahil/PROJECTS/Mol_Feturizer/New_Systems/rnas/2o3w

>  <Rbt.Executable>
rbdock ($Id: //depot/dev/client3/rdock/2013.1/src/exe/rbdock.cxx#4 $)

>  <Rbt.Library>
libRbt.so (2013.1, Build901 2013/11/27)

>  <Rbt.Parameter_File>
/export/apps/rDock/src/rDock_2013.1_src/data/scripts/dock_solv.prm

>  <Rbt.Receptor>
prm/blind_docking_40.prm

>  <SCORE>
10.947

>  <SCORE.INTER>
-7.44817

>  <SCORE.INTER.CONST>
1

>  <SCORE.INTER.POLAR>
-0.339738

>  <SCORE.INTER.ROT>
9

>  <SCORE.INTER.SOLV>
21.7779

>  <SCORE.INTER.VDW>
-20.6923

>  <SCORE.INTER.norm>
-0.177337

>  <SCORE.INTRA>
2.17063

>  <SCORE.INTRA.DIHEDRAL>
-6.09672

>  <SCORE.INTRA.DIHEDRAL.0>
27.8999

>  <SCORE.INTRA.POLAR>
0

>  <SCORE.INTRA.POLAR.0>
0

>  <SCORE.INTRA.REPUL>
0

>  <SCORE.INTRA.REPUL.0>
0

>  <SCORE.INTRA.SOLV>
1.4085

>  <SCORE.INTRA.SOLV.lig_0>
-104.479

>  <SCORE.INTRA.VDW>
4.51475

>  <SCORE.INTRA.VDW.0>
-6.17816

>  <SCORE.INTRA.norm>
0.0516817

>  <SCORE.RESTR>
16.2245

>  <SCORE.RESTR.CAVITY>
16.2245

>  <SCORE.RESTR.norm>
0.386298

>  <SCORE.SYSTEM>
0

>  <SCORE.SYSTEM.CONST>
0

>  <SCORE.SYSTEM.DIHEDRAL>
0

>  <SCORE.SYSTEM.SOLV>
0

>  <SCORE.SYSTEM.norm>
0

>  <SCORE.heavy>
42

>  <SCORE.norm>
0.260643

>  <RMSD>
19.281

$$$$
2o3w_lig
 OpenBabel11021811463D
libRbt.so/2013.1/901 2013/11/27
 42 45  0  0  0  0  0  0  0  0999 V2000
   13.7217   10.0384   -9.7712 C   0  0  2  0  0  0  0  0  0  0  0  0
   13.5448   11.4565   -9.9290 O   0  0  0  0  0  0  0  0  0  0  0  0
   10.4446   11.9769   -6.9434 C   0  0  2  0  0  0  0  0  0  0  0  0
    9.3872   12.5720   -6.0726 N   0  0  0  0  0  0  0  0  0  0  0  0
   10.9568   13.3724  -11.1922 C   0  0  1  0  0  0  0  0  0  0  0  0
   12.6728   16.8978  -13.3228 C   0  0  1  0  0  0  0  0  0  0  0  0
   14.7610    9.5877  -10.8412 C   0  0  2  0  0  0  0  0  0  0  0  0
   15.9737   10.4243  -10.8368 N   0  0  0  0  0  0  0  0  0  0  0  0
   11.8573   12.6284   -6.6576 C   0  0  0  0  0  0  0  0  0  0  0  0
   12.1903   13.6683  -12.0986 C   0  0  2  0  0  0  0  0  0  0  0  0
   13.3691   14.0910  -11.3701 O   0  0  0  0  0  0  0  0  0  0  0  0
   12.3414   18.4323  -13.2588 C   0  0  2  0  0  0  0  0  0  0  0  0
   10.9347   18.6927  -13.6881 N   0  0  0  0  0  0  0  0  0  0  0  0
   14.1893    9.6408  -12.2699 C   0  0  1  0  0  0  0  0  0  0  0  0
   15.1608    9.1826  -13.2118 O   0  0  0  0  0  0  0  0  0  0  0  0
   12.9312   11.9463   -7.5871 C   0  0  2  0  0  0  0  0  0  0  0  0
   14.2778   12.5262   -7.3339 N   0  0  0  0  0  0  0  0  0  0  0  0
   11.6065   14.6973  -13.0680 C   0  0  2  0  0  0  0  0  0  0  0  0
   11.7817   16.0629  -12.5727 O   0  0  0  0  0  0  0  0  0  0  0  0
   13.3809   19.2363  -14.1753 C   0  0  1  0  0  0  0  0  0  0  0  0
   14.6638   19.2667  -13.5103 O   0  0  0  0  0  0  0  0  0  0  0  0
   12.8950    8.7986  -12.3391 C   0  0  2  0  0  0  0  0  0  0  0  0
   12.3680    8.8233  -13.6452 O   0  0  0  0  0  0  0  0  0  0  0  0
   12.5506   12.1343   -9.1088 C   0  0  2  0  0  0  0  0  0  0  0  0
   10.1168   14.3446  -13.2150 C   0  0  2  0  0  0  0  0  0  0  0  0
    9.7927   13.7842  -11.9448 O   0  0  0  0  0  0  0  0  0  0  0  0
   13.5486   18.5958  -15.6344 C   0  0  2  0  0  0  0  0  0  0  0  0
   12.3296   18.8141  -16.3435 O   0  0  0  0  0  0  0  0  0  0  0  0
   11.8592    9.3692  -11.3138 C   0  0  2  0  0  0  0  0  0  0  0  0
   12.4326    9.3419   -9.9684 O   0  0  0  0  0  0  0  0  0  0  0  0
   11.1542   11.5703   -9.4510 C   0  0  2  0  0  0  0  0  0  0  0  0
   10.8978   11.9894  -10.8196 O   0  0  0  0  0  0  0  0  0  0  0  0
    9.7872   13.3476  -14.3689 C   0  0  0  0  0  0  0  0  0  0  0  0
    8.3777   13.3115  -14.5712 O   0  0  0  0  0  0  0  0  0  0  0  0
   13.8516   17.0531  -15.5328 C   0  0  1  0  0  0  0  0  0  0  0  0
   12.7344   16.4659  -14.7729 O   0  0  0  0  0  0  0  0  0  0  0  0
   10.5598    8.5977  -11.3096 C   0  0  0  0  0  0  0  0  0  0  0  0
    9.6853    9.1155  -12.2825 O   0  0  0  0  0  0  0  0  0  0  0  0
   10.0642   12.1685   -8.4662 C   0  0  1  0  0  0  0  0  0  0  0  0
    8.8011   11.5337   -8.6839 O   0  0  0  0  0  0  0  0  0  0  0  0
   14.0000   16.3281  -16.9403 C   0  0  0  0  0  0  0  0  0  0  0  0
   12.7649   16.2775  -17.7700 N   0  0  0  0  0  0  0  0  0  0  0  0
  1  2  1  6  0  0  0
  1  7  1  0  0  0  0
  1 30  1  0  0  0  0
  3  4  1  1  0  0  0
  3  9  1  0  0  0  0
  3 39  1  0  0  0  0
  5 10  1  0  0  0  0
  5 26  1  0  0  0  0
  5 32  1  6  0  0  0
  6 12  1  0  0  0  0
  6 36  1  0  0  0  0
  6 19  1  1  0  0  0
  7  8  1  6  0  0  0
  7 14  1  0  0  0  0
  9 16  1  0  0  0  0
 10 11  1  1  0  0  0
 10 18  1  0  0  0  0
 12 13  1  6  0  0  0
 12 20  1  0  0  0  0
 14 15  1  6  0  0  0
 14 22  1  0  0  0  0
 16 17  1  6  0  0  0
 16 24  1  0  0  0  0
 18 19  1  1  0  0  0
 18 25  1  0  0  0  0
 20 21  1  1  0  0  0
 20 27  1  0  0  0  0
 22 23  1  6  0  0  0
 22 29  1  0  0  0  0
 24  2  1  6  0  0  0
 24 31  1  0  0  0  0
 25 26  1  0  0  0  0
 25 33  1  6  0  0  0
 27 28  1  6  0  0  0
 27 35  1  0  0  0  0
 29 30  1  0  0  0  0
 29 37  1  1  0  0  0
 31 32  1  6  0  0  0
 31 39  1  0  0  0  0
 33 34  1  0  0  0  0
 35 36  1  0  0  0  0
 35 41  1  6  0  0  0
 37 38  1  0  0  0  0
 39 40  1  1  0  0  0
 41 42  1  0  0  0  0
M  END
>  <CHROM.1>
175.88269635,110.05314094,151.40173235,112.85629128,60.54700386,-168.49056799
-87.34998302,-55.58241426,-65.79243290,12.13861087,13.27842334,-11.89659491
-1.79407103,1.19483123,-0.43514165

>  <Name>
2o3w_lig

>  <RI>
0

>  <Rbt.Current_Directory>
/home/itssahil/PROJECTS/Mol_Feturizer/New_Systems/rnas/2o3w

>  <Rbt.Executable>
rbdock ($Id: //depot/dev/client3/rdock/2013.1/src/exe/rbdock.cxx#4 $)

>  <Rbt.Library>
libRbt.so (2013.1, Build901 2013/11/27)

>  <Rbt.Parameter_File>
/export/apps/rDock/src/rDock_2013.1_src/data/scripts/dock_solv.prm

>  <Rbt.Receptor>
prm/blind_docking_80.prm

>  <SCORE>
15.8232

>  <SCORE.INTER>
5.05683

>  <SCORE.INTER.CONST>
1

>  <SCORE.INTER.POLAR>
-0.259643

>  <SCORE.INTER.ROT>
9

>  <SCORE.INTER.SOLV>
30.8399

>  <SCORE.INTER.VDW>
-15.6433

>  <SCORE.INTER.norm>
0.120401

>  <SCORE.INTRA>
-2.59296

>  <SCORE.INTRA.DIHEDRAL>
-7.81688

>  <SCORE.INTRA.DIHEDRAL.0>
27.8999

>  <SCORE.INTRA.POLAR>
0

>  <SCORE.INTRA.POLAR.0>
0

>  <SCORE.INTRA.REPUL>
0

>  <SCORE.INTRA.REPUL.0>
0

>  <SCORE.INTRA.SOLV>
-3.34012

>  <SCORE.INTRA.SOLV.lig_0>
-104.479

>  <SCORE.INTRA.VDW>
2.98554

>  <SCORE.INTRA.VDW.0>
-6.17816

>  <SCORE.INTRA.norm>
-0.0617371

>  <SCORE.RESTR>
13.3593

>  <SCORE.RESTR.CAVITY>
13.3593

>  <SCORE.RESTR.norm>
0.318079

>  <SCORE.SYSTEM>
0

>  <SCORE.SYSTEM.CONST>
0

>  <SCORE.SYSTEM.DIHEDRAL>
0

>  <SCORE.SYSTEM.SOLV>
0

>  <SCORE.SYSTEM.norm>
0

>  <SCORE.heavy>
42

>  <SCORE.norm>
0.376743

>  <RMSD>
19.305

$$$$
2o3w_lig
 OpenBabel11021811463D
libRbt.so/2013.1/901 2013/11/27
 42 45  0  0  0  0  0  0  0  0999 V2000
   10.6890   14.2210  -12.7998 C   0  0  2  0  0  0  0  0  0  0  0  0
   11.9359   13.9090  -12.1554 O   0  0  0  0  0  0  0  0  0  0  0  0
   12.3392    9.7724  -13.3890 C   0  0  2  0  0  0  0  0  0  0  0  0
   12.7233    8.3302  -13.4431 N   0  0  0  0  0  0  0  0  0  0  0  0
   11.4999   11.5041   -9.4093 C   0  0  1  0  0  0  0  0  0  0  0  0
   14.8315   11.6312   -6.3507 C   0  0  1  0  0  0  0  0  0  0  0  0
   11.0267   15.0925  -14.0466 C   0  0  2  0  0  0  0  0  0  0  0  0
   12.0872   14.4985  -14.8792 N   0  0  0  0  0  0  0  0  0  0  0  0
   13.6054   10.7094  -13.5331 C   0  0  0  0  0  0  0  0  0  0  0  0
   12.9182   12.1510   -9.4301 C   0  0  2  0  0  0  0  0  0  0  0  0
   13.9292   11.3343  -10.0704 O   0  0  0  0  0  0  0  0  0  0  0  0
   15.0571   10.5720   -5.2122 C   0  0  2  0  0  0  0  0  0  0  0  0
   13.7920   10.3209   -4.4589 N   0  0  0  0  0  0  0  0  0  0  0  0
   11.5030   16.5050  -13.6606 C   0  0  1  0  0  0  0  0  0  0  0  0
   11.7626   17.2798  -14.8324 O   0  0  0  0  0  0  0  0  0  0  0  0
   13.1352   12.2126  -13.4914 C   0  0  2  0  0  0  0  0  0  0  0  0
   14.3018   13.1239  -13.6392 N   0  0  0  0  0  0  0  0  0  0  0  0
   13.1383   12.4322   -7.9429 C   0  0  2  0  0  0  0  0  0  0  0  0
   13.7836   11.3036   -7.2717 O   0  0  0  0  0  0  0  0  0  0  0  0
   16.2170   11.0863   -4.2339 C   0  0  1  0  0  0  0  0  0  0  0  0
   17.4892   10.9516   -4.9064 O   0  0  0  0  0  0  0  0  0  0  0  0
   10.4417   17.1793  -12.7617 C   0  0  2  0  0  0  0  0  0  0  0  0
   10.8552   18.4801  -12.4132 O   0  0  0  0  0  0  0  0  0  0  0  0
   12.3872   12.5247  -12.1353 C   0  0  2  0  0  0  0  0  0  0  0  0
   11.7454   12.7092   -7.3526 C   0  0  2  0  0  0  0  0  0  0  0  0
   10.8883   11.9083   -8.1628 O   0  0  0  0  0  0  0  0  0  0  0  0
   16.0129   12.6072   -3.7727 C   0  0  2  0  0  0  0  0  0  0  0  0
   14.8818   12.6458   -2.9035 O   0  0  0  0  0  0  0  0  0  0  0  0
   10.2274   16.3054  -11.4812 C   0  0  2  0  0  0  0  0  0  0  0  0
    9.8083   14.9587  -11.8691 O   0  0  0  0  0  0  0  0  0  0  0  0
   11.1679   11.6066  -11.8988 C   0  0  2  0  0  0  0  0  0  0  0  0
   10.7233   11.9029  -10.5464 O   0  0  0  0  0  0  0  0  0  0  0  0
   11.3052   14.2058   -7.3787 C   0  0  0  0  0  0  0  0  0  0  0  0
   11.3518   14.6865   -8.7187 O   0  0  0  0  0  0  0  0  0  0  0  0
   15.7739   13.5390   -5.0204 C   0  0  1  0  0  0  0  0  0  0  0  0
   14.6012   12.9897   -5.7227 O   0  0  0  0  0  0  0  0  0  0  0  0
    9.1959   16.8899  -10.5441 C   0  0  0  0  0  0  0  0  0  0  0  0
    7.9204   16.8411  -11.1358 O   0  0  0  0  0  0  0  0  0  0  0  0
   11.5934   10.0843  -12.0299 C   0  0  1  0  0  0  0  0  0  0  0  0
   10.4397    9.2419  -11.9617 O   0  0  0  0  0  0  0  0  0  0  0  0
   15.5277   15.0659   -4.6506 C   0  0  0  0  0  0  0  0  0  0  0  0
   15.2293   15.9648   -5.7992 N   0  0  0  0  0  0  0  0  0  0  0  0
  1  2  1  1  0  0  0
  1  7  1  0  0  0  0
  1 30  1  0  0  0  0
  3  4  1  1  0  0  0
  3  9  1  0  0  0  0
  3 39  1  0  0  0  0
  5 10  1  0  0  0  0
  5 26  1  0  0  0  0
  5 32  1  6  0  0  0
  6 12  1  0  0  0  0
  6 36  1  0  0  0  0
  6 19  1  1  0  0  0
  7  8  1  1  0  0  0
  7 14  1  0  0  0  0
  9 16  1  0  0  0  0
 10 11  1  1  0  0  0
 10 18  1  0  0  0  0
 12 13  1  1  0  0  0
 12 20  1  0  0  0  0
 14 15  1  6  0  0  0
 14 22  1  0  0  0  0
 16 17  1  1  0  0  0
 16 24  1  0  0  0  0
 18 19  1  1  0  0  0
 18 25  1  0  0  0  0
 20 21  1  6  0  0  0
 20 27  1  0  0  0  0
 22 23  1  1  0  0  0
 22 29  1  0  0  0  0
 24  2  1  6  0  0  0
 24 31  1  0  0  0  0
 25 26  1  0  0  0  0
 25 33  1  6  0  0  0
 27 28  1  1  0  0  0
 27 35  1  0  0  0  0
 29 30  1  0  0  0  0
 29 37  1  1  0  0  0
 31 32  1  1  0  0  0
 31 39  1  0  0  0  0
 33 34  1  0  0  0  0
 35 36  1  0  0  0  0
 35 41  1  1  0  0  0
 37 38  1  0  0  0  0
 39 40  1  6  0  0  0
 41 42  1  0  0  0  0
M  END
>  <CHROM.1>
-113.55508919,60.29304859,153.78121528,136.95797715,84.01621257,56.74656585
67.37777415,-70.48737105,-177.01479021,12.59112235,13.15075683,-9.68633291
2.81715081,1.09342713,-2.47378253

>  <Name>
2o3w_lig

>  <RI>
0

>  <Rbt.Current_Directory>
/home/itssahil/PROJECTS/Mol_Feturizer/New_Systems/rnas/2o3w

>  <Rbt.Executable>
rbdock ($Id: //depot/dev/client3/rdock/2013.1/src/exe/rbdock.cxx#4 $)

>  <Rbt.Library>
libRbt.so (2013.1, Build901 2013/11/27)

>  <Rbt.Parameter_File>
/export/apps/rDock/src/rDock_2013.1_src/data/scripts/dock_solv.prm

>  <Rbt.Receptor>
prm/blind_docking_40.prm

>  <SCORE>
9.82726

>  <SCORE.INTER>
-6.51993

>  <SCORE.INTER.CONST>
1

>  <SCORE.INTER.POLAR>
-1.12238

>  <SCORE.INTER.ROT>
9

>  <SCORE.INTER.SOLV>
29.3698

>  <SCORE.INTER.VDW>
-19.9953

>  <SCORE.INTER.norm>
-0.155237

>  <SCORE.INTRA>
-0.521714

>  <SCORE.INTRA.DIHEDRAL>
-8.78516

>  <SCORE.INTRA.DIHEDRAL.0>
27.8999

>  <SCORE.INTRA.POLAR>
0

>  <SCORE.INTRA.POLAR.0>
0

>  <SCORE.INTRA.REPUL>
0

>  <SCORE.INTRA.REPUL.0>
0

>  <SCORE.INTRA.SOLV>
0.530565

>  <SCORE.INTRA.SOLV.lig_0>
-104.479

>  <SCORE.INTRA.VDW>
3.60558

>  <SCORE.INTRA.VDW.0>
-6.17816

>  <SCORE.INTRA.norm>
-0.0124218

>  <SCORE.RESTR>
16.8689

>  <SCORE.RESTR.CAVITY>
16.8689

>  <SCORE.RESTR.norm>
0.401641

>  <SCORE.SYSTEM>
0

>  <SCORE.SYSTEM.CONST>
0

>  <SCORE.SYSTEM.DIHEDRAL>
0

>  <SCORE.SYSTEM.SOLV>
0

>  <SCORE.SYSTEM.norm>
0

>  <SCORE.heavy>
42

>  <SCORE.norm>
0.233982

>  <RMSD>
19.322

$$$$
2o3w_lig
 OpenBabel11021811463D
libRbt.so/2013.1/901 2013/11/27
 42 45  0  0  0  0  0  0  0  0999 V2000
   11.0564   15.3417   -9.9866 C   0  0  2  0  0  0  0  0  0  0  0  0
   10.4526   14.1080   -9.5613 O   0  0  0  0  0  0  0  0  0  0  0  0
   13.5363   12.7692   -6.8236 C   0  0  2  0  0  0  0  0  0  0  0  0
   14.2701   12.0394   -5.7469 N   0  0  0  0  0  0  0  0  0  0  0  0
   12.1838   10.4996  -10.6430 C   0  0  1  0  0  0  0  0  0  0  0  0
   14.0536    8.4983  -12.8787 C   0  0  1  0  0  0  0  0  0  0  0  0
    9.9090   16.2476  -10.5260 C   0  0  2  0  0  0  0  0  0  0  0  0
    8.7748   16.3380   -9.5901 N   0  0  0  0  0  0  0  0  0  0  0  0
   12.3459   13.6243   -6.2289 C   0  0  0  0  0  0  0  0  0  0  0  0
   11.4125    9.1468  -10.7187 C   0  0  2  0  0  0  0  0  0  0  0  0
   11.7812    8.1996   -9.6863 O   0  0  0  0  0  0  0  0  0  0  0  0
   15.2177    7.5012  -13.2239 C   0  0  2  0  0  0  0  0  0  0  0  0
   15.6783    6.7754  -12.0024 N   0  0  0  0  0  0  0  0  0  0  0  0
    9.3420   15.7380  -11.8639 C   0  0  1  0  0  0  0  0  0  0  0  0
    8.3226   16.6185  -12.3397 O   0  0  0  0  0  0  0  0  0  0  0  0
   11.6268   14.3858   -7.4061 C   0  0  2  0  0  0  0  0  0  0  0  0
   10.5081   15.2135   -6.8798 N   0  0  0  0  0  0  0  0  0  0  0  0
   11.7142    8.7128  -12.1540 C   0  0  2  0  0  0  0  0  0  0  0  0
   12.9276    7.8984  -12.2260 O   0  0  0  0  0  0  0  0  0  0  0  0
   16.4233    8.3101  -13.9015 C   0  0  1  0  0  0  0  0  0  0  0  0
   16.0446    8.6714  -15.2487 O   0  0  0  0  0  0  0  0  0  0  0  0
   10.4896   15.5966  -12.8897 C   0  0  2  0  0  0  0  0  0  0  0  0
    9.9844   15.1467  -14.1254 O   0  0  0  0  0  0  0  0  0  0  0  0
   11.0722   13.3627   -8.4746 C   0  0  2  0  0  0  0  0  0  0  0  0
   11.8645   10.0097  -12.9669 C   0  0  2  0  0  0  0  0  0  0  0  0
   12.3805   10.9310  -12.0091 O   0  0  0  0  0  0  0  0  0  0  0  0
   16.8233    9.6296  -13.0851 C   0  0  2  0  0  0  0  0  0  0  0  0
   17.4251    9.2126  -11.8602 O   0  0  0  0  0  0  0  0  0  0  0  0
   11.5542   14.5952  -12.3299 C   0  0  2  0  0  0  0  0  0  0  0  0
   12.0559   15.0787  -11.0437 O   0  0  0  0  0  0  0  0  0  0  0  0
   12.1737   12.4519   -9.0597 C   0  0  2  0  0  0  0  0  0  0  0  0
   11.4682   11.4701   -9.8677 O   0  0  0  0  0  0  0  0  0  0  0  0
   10.5443   10.5435  -13.6045 C   0  0  0  0  0  0  0  0  0  0  0  0
   10.6682   10.5303  -15.0234 O   0  0  0  0  0  0  0  0  0  0  0  0
   15.5501   10.5110  -12.7948 C   0  0  1  0  0  0  0  0  0  0  0  0
   14.6112    9.6446  -12.0613 O   0  0  0  0  0  0  0  0  0  0  0  0
   12.7209   14.4010  -13.2705 C   0  0  0  0  0  0  0  0  0  0  0  0
   13.2122   15.6481  -13.6977 O   0  0  0  0  0  0  0  0  0  0  0  0
   12.9789   11.7440   -7.8908 C   0  0  1  0  0  0  0  0  0  0  0  0
   14.0918   11.0218   -8.4253 O   0  0  0  0  0  0  0  0  0  0  0  0
   15.8518   11.8283  -11.9567 C   0  0  0  0  0  0  0  0  0  0  0  0
   14.7188   12.3430  -11.1394 N   0  0  0  0  0  0  0  0  0  0  0  0
  1  2  1  6  0  0  0
  1  7  1  0  0  0  0
  1 30  1  0  0  0  0
  3  4  1  1  0  0  0
  3  9  1  0  0  0  0
  3 39  1  0  0  0  0
  5 10  1  0  0  0  0
  5 26  1  0  0  0  0
  5 32  1  1  0  0  0
  6 12  1  0  0  0  0
  6 36  1  0  0  0  0
  6 19  1  1  0  0  0
  7  8  1  1  0  0  0
  7 14  1  0  0  0  0
  9 16  1  0  0  0  0
 10 11  1  1  0  0  0
 10 18  1  0  0  0  0
 12 13  1  1  0  0  0
 12 20  1  0  0  0  0
 14 15  1  6  0  0  0
 14 22  1  0  0  0  0
 16 17  1  1  0  0  0
 16 24  1  0  0  0  0
 18 19  1  1  0  0  0
 18 25  1  0  0  0  0
 20 21  1  6  0  0  0
 20 27  1  0  0  0  0
 22 23  1  6  0  0  0
 22 29  1  0  0  0  0
 24  2  1  6  0  0  0
 24 31  1  0  0  0  0
 25 26  1  0  0  0  0
 25 33  1  1  0  0  0
 27 28  1  1  0  0  0
 27 35  1  0  0  0  0
 29 30  1  0  0  0  0
 29 37  1  6  0  0  0
 31 32  1  6  0  0  0
 31 39  1  0  0  0  0
 33 34  1  0  0  0  0
 35 36  1  0  0  0  0
 35 41  1  1  0  0  0
 37 38  1  0  0  0  0
 39 40  1  6  0  0  0
 41 42  1  0  0  0  0
M  END
>  <CHROM.1>
-150.35962562,146.37242172,-166.93352006,-111.17405277,37.49751243,-116.95323239
48.78326348,175.95392483,-152.95566830,12.61204002,11.95324848,-11.16515440
-2.69269894,0.92938282,-1.72767279

>  <Name>
2o3w_lig

>  <RI>
0

>  <Rbt.Current_Directory>
/home/itssahil/PROJECTS/Mol_Feturizer/New_Systems/rnas/2o3w

>  <Rbt.Executable>
rbdock ($Id: //depot/dev/client3/rdock/2013.1/src/exe/rbdock.cxx#4 $)

>  <Rbt.Library>
libRbt.so (2013.1, Build901 2013/11/27)

>  <Rbt.Parameter_File>
/export/apps/rDock/src/rDock_2013.1_src/data/scripts/dock_solv.prm

>  <Rbt.Receptor>
prm/blind_docking_40.prm

>  <SCORE>
24.6688

>  <SCORE.INTER>
5.33814

>  <SCORE.INTER.CONST>
1

>  <SCORE.INTER.POLAR>
-0.741519

>  <SCORE.INTER.ROT>
9

>  <SCORE.INTER.SOLV>
33.0047

>  <SCORE.INTER.VDW>
-14.5711

>  <SCORE.INTER.norm>
0.127099

>  <SCORE.INTRA>
4.90953

>  <SCORE.INTRA.DIHEDRAL>
-2.20156

>  <SCORE.INTRA.DIHEDRAL.0>
27.8999

>  <SCORE.INTRA.POLAR>
0

>  <SCORE.INTRA.POLAR.0>
0

>  <SCORE.INTRA.REPUL>
0.259535

>  <SCORE.INTRA.REPUL.0>
0

>  <SCORE.INTRA.SOLV>
3.53566

>  <SCORE.INTRA.SOLV.lig_0>
-104.479

>  <SCORE.INTRA.VDW>
2.9448

>  <SCORE.INTRA.VDW.0>
-6.17816

>  <SCORE.INTRA.norm>
0.116894

>  <SCORE.RESTR>
14.4212

>  <SCORE.RESTR.CAVITY>
14.4212

>  <SCORE.RESTR.norm>
0.343361

>  <SCORE.SYSTEM>
0

>  <SCORE.SYSTEM.CONST>
0

>  <SCORE.SYSTEM.DIHEDRAL>
0

>  <SCORE.SYSTEM.SOLV>
0

>  <SCORE.SYSTEM.norm>
0

>  <SCORE.heavy>
42

>  <SCORE.norm>
0.587353

>  <RMSD>
19.333

$$$$
2o3w_lig
 OpenBabel11021811463D
libRbt.so/2013.1/901 2013/11/27
 42 45  0  0  0  0  0  0  0  0999 V2000
   10.8884   14.8291  -13.5200 C   0  0  2  0  0  0  0  0  0  0  0  0
   11.5131   13.8219  -12.7059 O   0  0  0  0  0  0  0  0  0  0  0  0
   14.8847   11.3941  -13.9444 C   0  0  2  0  0  0  0  0  0  0  0  0
   16.2699   10.9169  -14.2338 N   0  0  0  0  0  0  0  0  0  0  0  0
   13.3256   12.0378   -9.5396 C   0  0  1  0  0  0  0  0  0  0  0  0
   13.6245   11.0034   -6.7857 C   0  0  1  0  0  0  0  0  0  0  0  0
   11.5753   16.1843  -13.1741 C   0  0  2  0  0  0  0  0  0  0  0  0
   13.0455   16.0980  -13.2159 N   0  0  0  0  0  0  0  0  0  0  0  0
   14.5085   12.6419  -14.8408 C   0  0  0  0  0  0  0  0  0  0  0  0
   11.8988   11.8316   -8.9458 C   0  0  2  0  0  0  0  0  0  0  0  0
   11.5443   12.7890   -7.9179 O   0  0  0  0  0  0  0  0  0  0  0  0
   14.5131   10.3589   -5.6615 C   0  0  2  0  0  0  0  0  0  0  0  0
   13.7146   10.1195   -4.4221 N   0  0  0  0  0  0  0  0  0  0  0  0
   11.1992   16.6881  -11.7685 C   0  0  1  0  0  0  0  0  0  0  0  0
   11.8183   17.9494  -11.5100 O   0  0  0  0  0  0  0  0  0  0  0  0
   13.0334   13.0837  -14.5071 C   0  0  2  0  0  0  0  0  0  0  0  0
   12.6404   14.2490  -15.3445 N   0  0  0  0  0  0  0  0  0  0  0  0
   11.9732   10.3722   -8.4941 C   0  0  2  0  0  0  0  0  0  0  0  0
   12.4442   10.2596   -7.1135 O   0  0  0  0  0  0  0  0  0  0  0  0
   15.7646   11.3139   -5.3643 C   0  0  1  0  0  0  0  0  0  0  0  0
   16.7005   11.2125   -6.4610 O   0  0  0  0  0  0  0  0  0  0  0  0
    9.6609   16.7792  -11.6480 C   0  0  2  0  0  0  0  0  0  0  0  0
    9.3005   17.2551  -10.3720 O   0  0  0  0  0  0  0  0  0  0  0  0
   12.8967   13.4592  -12.9787 C   0  0  2  0  0  0  0  0  0  0  0  0
   12.9358    9.6744   -9.4699 C   0  0  2  0  0  0  0  0  0  0  0  0
   13.8375   10.7175   -9.8323 O   0  0  0  0  0  0  0  0  0  0  0  0
   15.3430   12.8462   -5.1594 C   0  0  2  0  0  0  0  0  0  0  0  0
   14.6291   12.9356   -3.9271 O   0  0  0  0  0  0  0  0  0  0  0  0
    9.0439   15.3640  -11.9050 C   0  0  2  0  0  0  0  0  0  0  0  0
    9.4398   14.8881  -13.2304 O   0  0  0  0  0  0  0  0  0  0  0  0
   13.3030   12.3026  -12.0392 C   0  0  2  0  0  0  0  0  0  0  0  0
   13.2949   12.8754  -10.7027 O   0  0  0  0  0  0  0  0  0  0  0  0
   12.2589    9.0542  -10.7314 C   0  0  0  0  0  0  0  0  0  0  0  0
   11.6353   10.0881  -11.4870 O   0  0  0  0  0  0  0  0  0  0  0  0
   14.4372   13.3375   -6.3512 C   0  0  1  0  0  0  0  0  0  0  0  0
   13.2818   12.4244   -6.3904 O   0  0  0  0  0  0  0  0  0  0  0  0
    7.5356   15.3617  -11.8127 C   0  0  0  0  0  0  0  0  0  0  0  0
    7.1294   15.6779  -10.5034 O   0  0  0  0  0  0  0  0  0  0  0  0
   14.7499   11.7726  -12.4150 C   0  0  1  0  0  0  0  0  0  0  0  0
   15.0632   10.6071  -11.6475 O   0  0  0  0  0  0  0  0  0  0  0  0
   13.9437   14.8427   -6.2116 C   0  0  0  0  0  0  0  0  0  0  0  0
   12.5545   15.1088   -6.6763 N   0  0  0  0  0  0  0  0  0  0  0  0
  1  2  1  1  0  0  0
  1  7  1  0  0  0  0
  1 30  1  0  0  0  0
  3  4  1  1  0  0  0
  3  9  1  0  0  0  0
  3 39  1  0  0  0  0
  5 10  1  0  0  0  0
  5 26  1  0  0  0  0
  5 32  1  6  0  0  0
  6 12  1  0  0  0  0
  6 36  1  0  0  0  0
  6 19  1  1  0  0  0
  7  8  1  1  0  0  0
  7 14  1  0  0  0  0
  9 16  1  0  0  0  0
 10 11  1  1  0  0  0
 10 18  1  0  0  0  0
 12 13  1  1  0  0  0
 12 20  1  0  0  0  0
 14 15  1  6  0  0  0
 14 22  1  0  0  0  0
 16 17  1  6  0  0  0
 16 24  1  0  0  0  0
 18 19  1  1  0  0  0
 18 25  1  0  0  0  0
 20 21  1  6  0  0  0
 20 27  1  0  0  0  0
 22 23  1  1  0  0  0
 22 29  1  0  0  0  0
 24  2  1  6  0  0  0
 24 31  1  0  0  0  0
 25 26  1  0  0  0  0
 25 33  1  6  0  0  0
 27 28  1  1  0  0  0
 27 35  1  0  0  0  0
 29 30  1  0  0  0  0
 29 37  1  6  0  0  0
 31 32  1  1  0  0  0
 31 39  1  0  0  0  0
 33 34  1  0  0  0  0
 35 36  1  0  0  0  0
 35 41  1  1  0  0  0
 37 38  1  0  0  0  0
 39 40  1  1  0  0  0
 41 42  1  0  0  0  0
M  END
>  <CHROM.1>
-68.94757110,-98.22271534,-149.78188316,-48.79812618,-53.02745249,61.67166733
-64.36436800,165.70727959,-142.37752737,12.66738386,13.02127261,-10.08968863
2.21901982,0.84488827,-1.58740394

>  <Name>
2o3w_lig

>  <RI>
0

>  <Rbt.Current_Directory>
/home/itssahil/PROJECTS/Mol_Feturizer/New_Systems/rnas/2o3w

>  <Rbt.Executable>
rbdock ($Id: //depot/dev/client3/rdock/2013.1/src/exe/rbdock.cxx#4 $)

>  <Rbt.Library>
libRbt.so (2013.1, Build901 2013/11/27)

>  <Rbt.Parameter_File>
/export/apps/rDock/src/rDock_2013.1_src/data/scripts/dock_solv.prm

>  <Rbt.Receptor>
prm/blind_docking_100.prm

>  <SCORE>
17.1412

>  <SCORE.INTER>
-1.8858

>  <SCORE.INTER.CONST>
1

>  <SCORE.INTER.POLAR>
-1.19243

>  <SCORE.INTER.ROT>
9

>  <SCORE.INTER.SOLV>
30.8925

>  <SCORE.INTER.VDW>
-17.1799

>  <SCORE.INTER.norm>
-0.0449

>  <SCORE.INTRA>
7.0943

>  <SCORE.INTRA.DIHEDRAL>
-13.1414

>  <SCORE.INTRA.DIHEDRAL.0>
27.8999

>  <SCORE.INTRA.POLAR>
0

>  <SCORE.INTRA.POLAR.0>
0

>  <SCORE.INTRA.REPUL>
0.164378

>  <SCORE.INTRA.REPUL.0>
0

>  <SCORE.INTRA.SOLV>
4.98092

>  <SCORE.INTRA.SOLV.lig_0>
-104.479

>  <SCORE.INTRA.VDW>
10.3527

>  <SCORE.INTRA.VDW.0>
-6.17816

>  <SCORE.INTRA.norm>
0.168912

>  <SCORE.RESTR>
11.9327

>  <SCORE.RESTR.CAVITY>
11.9327

>  <SCORE.RESTR.norm>
0.284112

>  <SCORE.SYSTEM>
0

>  <SCORE.SYSTEM.CONST>
0

>  <SCORE.SYSTEM.DIHEDRAL>
0

>  <SCORE.SYSTEM.SOLV>
0

>  <SCORE.SYSTEM.norm>
0

>  <SCORE.heavy>
42

>  <SCORE.norm>
0.408123

>  <RMSD>
19.366

$$$$
2o3w_lig
 OpenBabel11021811463D
libRbt.so/2013.1/901 2013/11/27
 42 45  0  0  0  0  0  0  0  0999 V2000
   11.8780   10.9000   -7.0382 C   0  0  2  0  0  0  0  0  0  0  0  0
   12.3713   10.9784   -8.3865 O   0  0  0  0  0  0  0  0  0  0  0  0
   11.1232    9.5204  -12.2740 C   0  0  2  0  0  0  0  0  0  0  0  0
   10.2965    9.1500  -13.4613 N   0  0  0  0  0  0  0  0  0  0  0  0
   12.0751   14.0161  -10.8554 C   0  0  1  0  0  0  0  0  0  0  0  0
   13.0732   17.3342  -13.7345 C   0  0  1  0  0  0  0  0  0  0  0  0
   11.1377   12.2396   -6.7459 C   0  0  2  0  0  0  0  0  0  0  0  0
   10.1700   12.5906   -7.7999 N   0  0  0  0  0  0  0  0  0  0  0  0
   10.7187    8.6680  -11.0045 C   0  0  0  0  0  0  0  0  0  0  0  0
   12.0019   14.0056  -12.4127 C   0  0  2  0  0  0  0  0  0  0  0  0
   13.1430   13.3826  -13.0521 O   0  0  0  0  0  0  0  0  0  0  0  0
   12.0449   17.2631  -14.9204 C   0  0  2  0  0  0  0  0  0  0  0  0
   12.2678   16.0392  -15.7470 N   0  0  0  0  0  0  0  0  0  0  0  0
   12.1084   13.4282   -6.6196 C   0  0  1  0  0  0  0  0  0  0  0  0
   11.3917   14.6253   -6.3130 O   0  0  0  0  0  0  0  0  0  0  0  0
   11.6375    9.0866   -9.7948 C   0  0  2  0  0  0  0  0  0  0  0  0
   11.2934    8.2924   -8.5847 N   0  0  0  0  0  0  0  0  0  0  0  0
   11.8061   15.4929  -12.7109 C   0  0  2  0  0  0  0  0  0  0  0  0
   13.0861   16.1797  -12.8856 O   0  0  0  0  0  0  0  0  0  0  0  0
   12.1715   18.5894  -15.8102 C   0  0  1  0  0  0  0  0  0  0  0  0
   11.5868   19.6952  -15.0862 O   0  0  0  0  0  0  0  0  0  0  0  0
   13.1704   13.1142   -5.5413 C   0  0  2  0  0  0  0  0  0  0  0  0
   14.0572   14.1998   -5.4017 O   0  0  0  0  0  0  0  0  0  0  0  0
   11.4778   10.6268   -9.4812 C   0  0  2  0  0  0  0  0  0  0  0  0
   11.0247   16.0660  -11.5166 C   0  0  2  0  0  0  0  0  0  0  0  0
   11.4587   15.2528  -10.4290 O   0  0  0  0  0  0  0  0  0  0  0  0
   13.6877   18.9402  -16.1916 C   0  0  2  0  0  0  0  0  0  0  0  0
   14.1418   17.9473  -17.1105 O   0  0  0  0  0  0  0  0  0  0  0  0
   13.9446   11.8167   -5.9497 C   0  0  2  0  0  0  0  0  0  0  0  0
   13.0023   10.7077   -6.0976 O   0  0  0  0  0  0  0  0  0  0  0  0
   11.8028   11.5223  -10.6968 C   0  0  2  0  0  0  0  0  0  0  0  0
   11.4290   12.8677  -10.2909 O   0  0  0  0  0  0  0  0  0  0  0  0
    9.4721   16.0235  -11.6645 C   0  0  0  0  0  0  0  0  0  0  0  0
    8.8770   16.7373  -10.5850 O   0  0  0  0  0  0  0  0  0  0  0  0
   14.5968   18.9488  -14.9048 C   0  0  1  0  0  0  0  0  0  0  0  0
   14.4522   17.6165  -14.2928 O   0  0  0  0  0  0  0  0  0  0  0  0
   15.0036   11.4304   -4.9432 C   0  0  0  0  0  0  0  0  0  0  0  0
   15.3740   10.0849   -5.1214 O   0  0  0  0  0  0  0  0  0  0  0  0
   10.9602   11.0614  -11.9591 C   0  0  1  0  0  0  0  0  0  0  0  0
   11.3710   11.7900  -13.1193 O   0  0  0  0  0  0  0  0  0  0  0  0
   16.1294   19.2561  -15.1967 C   0  0  0  0  0  0  0  0  0  0  0  0
   16.4305   20.6391  -15.6584 N   0  0  0  0  0  0  0  0  0  0  0  0
  1  2  1  6  0  0  0
  1  7  1  0  0  0  0
  1 30  1  0  0  0  0
  3  4  1  6  0  0  0
  3  9  1  0  0  0  0
  3 39  1  0  0  0  0
  5 10  1  0  0  0  0
  5 26  1  0  0  0  0
  5 32  1  1  0  0  0
  6 12  1  0  0  0  0
  6 36  1  0  0  0  0
  6 19  1  6  0  0  0
  7  8  1  6  0  0  0
  7 14  1  0  0  0  0
  9 16  1  0  0  0  0
 10 11  1  6  0  0  0
 10 18  1  0  0  0  0
 12 13  1  6  0  0  0
 12 20  1  0  0  0  0
 14 15  1  1  0  0  0
 14 22  1  0  0  0  0
 16 17  1  1  0  0  0
 16 24  1  0  0  0  0
 18 19  1  1  0  0  0
 18 25  1  0  0  0  0
 20 21  1  1  0  0  0
 20 27  1  0  0  0  0
 22 23  1  6  0  0  0
 22 29  1  0  0  0  0
 24  2  1  1  0  0  0
 24 31  1  0  0  0  0
 25 26  1  0  0  0  0
 25 33  1  6  0  0  0
 27 28  1  6  0  0  0
 27 35  1  0  0  0  0
 29 30  1  0  0  0  0
 29 37  1  1  0  0  0
 31 32  1  1  0  0  0
 31 39  1  0  0  0  0
 33 34  1  0  0  0  0
 35 36  1  0  0  0  0
 35 41  1  6  0  0  0
 37 38  1  0  0  0  0
 39 40  1  6  0  0  0
 41 42  1  0  0  0  0
M  END
>  <CHROM.1>
-84.29160530,54.57899696,-32.60363038,152.13794325,-90.85174498,-172.34640228
161.88013094,152.57412988,68.10564630,12.37719330,14.02654519,-10.96594440
-1.78625979,-1.11109817,-1.01748336

>  <Name>
2o3w_lig

>  <RI>
0

>  <Rbt.Current_Directory>
/home/itssahil/PROJECTS/Mol_Feturizer/New_Systems/rnas/2o3w

>  <Rbt.Executable>
rbdock ($Id: //depot/dev/client3/rdock/2013.1/src/exe/rbdock.cxx#4 $)

>  <Rbt.Library>
libRbt.so (2013.1, Build901 2013/11/27)

>  <Rbt.Parameter_File>
/export/apps/rDock/src/rDock_2013.1_src/data/scripts/dock_solv.prm

>  <Rbt.Receptor>
prm/blind_docking_80.prm

>  <SCORE>
10.008

>  <SCORE.INTER>
2.13472

>  <SCORE.INTER.CONST>
1

>  <SCORE.INTER.POLAR>
-1.7164

>  <SCORE.INTER.ROT>
9

>  <SCORE.INTER.SOLV>
27.7734

>  <SCORE.INTER.VDW>
-11.7133

>  <SCORE.INTER.norm>
0.0508266

>  <SCORE.INTRA>
1.99046

>  <SCORE.INTRA.DIHEDRAL>
-10.4563

>  <SCORE.INTRA.DIHEDRAL.0>
27.8999

>  <SCORE.INTRA.POLAR>
0

>  <SCORE.INTRA.POLAR.0>
0

>  <SCORE.INTRA.REPUL>
0

>  <SCORE.INTRA.REPUL.0>
0

>  <SCORE.INTRA.SOLV>
-0.339351

>  <SCORE.INTRA.SOLV.lig_0>
-104.479

>  <SCORE.INTRA.VDW>
7.38827

>  <SCORE.INTRA.VDW.0>
-6.17816

>  <SCORE.INTRA.norm>
0.047392

>  <SCORE.RESTR>
5.88278

>  <SCORE.RESTR.CAVITY>
5.88278

>  <SCORE.RESTR.norm>
0.140066

>  <SCORE.SYSTEM>
0

>  <SCORE.SYSTEM.CONST>
0

>  <SCORE.SYSTEM.DIHEDRAL>
0

>  <SCORE.SYSTEM.SOLV>
0

>  <SCORE.SYSTEM.norm>
0

>  <SCORE.heavy>
42

>  <SCORE.norm>
0.238285

>  <RMSD>
19.421

$$$$
2o3w_lig
 OpenBabel11021811463D
libRbt.so/2013.1/901 2013/11/27
 42 45  0  0  0  0  0  0  0  0999 V2000
    7.8410   17.7291  -11.0638 C   0  0  2  0  0  0  0  0  0  0  0  0
    9.0091   17.3206  -10.3318 O   0  0  0  0  0  0  0  0  0  0  0  0
   11.1550   15.4134  -13.5805 C   0  0  2  0  0  0  0  0  0  0  0  0
   12.2247   14.7722  -14.4022 N   0  0  0  0  0  0  0  0  0  0  0  0
   11.0549   14.5342   -9.2320 C   0  0  1  0  0  0  0  0  0  0  0  0
   14.1878   13.0324   -6.3960 C   0  0  1  0  0  0  0  0  0  0  0  0
    7.3544   19.0686  -10.4335 C   0  0  2  0  0  0  0  0  0  0  0  0
    8.4414   20.0529  -10.2921 N   0  0  0  0  0  0  0  0  0  0  0  0
   11.5117   16.9179  -13.2470 C   0  0  0  0  0  0  0  0  0  0  0  0
   10.8186   13.8386   -7.8568 C   0  0  2  0  0  0  0  0  0  0  0  0
   10.5246   14.7564   -6.7750 O   0  0  0  0  0  0  0  0  0  0  0  0
   14.2322   11.5201   -6.8201 C   0  0  2  0  0  0  0  0  0  0  0  0
   12.9155   10.8587   -6.5758 N   0  0  0  0  0  0  0  0  0  0  0  0
    6.7501   18.8690   -9.0313 C   0  0  1  0  0  0  0  0  0  0  0  0
    6.2823   20.1139   -8.5095 O   0  0  0  0  0  0  0  0  0  0  0  0
   10.3397   17.5446  -12.4007 C   0  0  2  0  0  0  0  0  0  0  0  0
   10.6358   18.9671  -12.0808 N   0  0  0  0  0  0  0  0  0  0  0  0
   12.1084   13.0302   -7.7074 C   0  0  2  0  0  0  0  0  0  0  0  0
   13.1465   13.7962   -7.0172 O   0  0  0  0  0  0  0  0  0  0  0  0
   15.4054   10.7803   -6.0181 C   0  0  1  0  0  0  0  0  0  0  0  0
   16.6778   11.1933   -6.5652 O   0  0  0  0  0  0  0  0  0  0  0  0
    5.6131   17.8244   -9.1038 C   0  0  2  0  0  0  0  0  0  0  0  0
    5.0380   17.6425   -7.8308 O   0  0  0  0  0  0  0  0  0  0  0  0
   10.1240   16.7339  -11.0620 C   0  0  2  0  0  0  0  0  0  0  0  0
   12.5452   12.6601   -9.1349 C   0  0  2  0  0  0  0  0  0  0  0  0
   12.0669   13.7560   -9.9113 O   0  0  0  0  0  0  0  0  0  0  0  0
   15.3732   11.0868   -4.4457 C   0  0  2  0  0  0  0  0  0  0  0  0
   14.2205   10.4427   -3.9046 O   0  0  0  0  0  0  0  0  0  0  0  0
    6.1927   16.4757   -9.6467 C   0  0  2  0  0  0  0  0  0  0  0  0
    6.7918   16.6924  -10.9634 O   0  0  0  0  0  0  0  0  0  0  0  0
    9.8263   15.2387  -11.3087 C   0  0  2  0  0  0  0  0  0  0  0  0
    9.8421   14.6236   -9.9912 O   0  0  0  0  0  0  0  0  0  0  0  0
   11.9794   11.3067   -9.6662 C   0  0  0  0  0  0  0  0  0  0  0  0
   11.4059   10.5793   -8.5840 O   0  0  0  0  0  0  0  0  0  0  0  0
   15.3042   12.6388   -4.1832 C   0  0  1  0  0  0  0  0  0  0  0  0
   14.1025   13.1197   -4.8867 O   0  0  0  0  0  0  0  0  0  0  0  0
    5.1430   15.3941   -9.7567 C   0  0  0  0  0  0  0  0  0  0  0  0
    4.5532   15.1613   -8.5008 O   0  0  0  0  0  0  0  0  0  0  0  0
   10.9423   14.6030  -12.2394 C   0  0  1  0  0  0  0  0  0  0  0  0
   10.5871   13.2629  -12.5908 O   0  0  0  0  0  0  0  0  0  0  0  0
   15.2348   13.0329   -2.6442 C   0  0  0  0  0  0  0  0  0  0  0  0
   15.3725   14.4850   -2.3463 N   0  0  0  0  0  0  0  0  0  0  0  0
  1  2  1  1  0  0  0
  1  7  1  0  0  0  0
  1 30  1  0  0  0  0
  3  4  1  1  0  0  0
  3  9  1  0  0  0  0
  3 39  1  0  0  0  0
  5 10  1  0  0  0  0
  5 26  1  0  0  0  0
  5 32  1  6  0  0  0
  6 12  1  0  0  0  0
  6 36  1  0  0  0  0
  6 19  1  6  0  0  0
  7  8  1  1  0  0  0
  7 14  1  0  0  0  0
  9 16  1  0  0  0  0
 10 11  1  1  0  0  0
 10 18  1  0  0  0  0
 12 13  1  1  0  0  0
 12 20  1  0  0  0  0
 14 15  1  6  0  0  0
 14 22  1  0  0  0  0
 16 17  1  1  0  0  0
 16 24  1  0  0  0  0
 18 19  1  6  0  0  0
 18 25  1  0  0  0  0
 20 21  1  6  0  0  0
 20 27  1  0  0  0  0
 22 23  1  1  0  0  0
 22 29  1  0  0  0  0
 24  2  1  6  0  0  0
 24 31  1  0  0  0  0
 25 26  1  0  0  0  0
 25 33  1  6  0  0  0
 27 28  1  6  0  0  0
 27 35  1  0  0  0  0
 29 30  1  0  0  0  0
 29 37  1  6  0  0  0
 31 32  1  1  0  0  0
 31 39  1  0  0  0  0
 33 34  1  0  0  0  0
 35 36  1  0  0  0  0
 35 41  1  1  0  0  0
 37 38  1  0  0  0  0
 39 40  1  6  0  0  0
 41 42  1  0  0  0  0
M  END
>  <CHROM.1>
-140.58884845,179.92660766,13.05936080,158.14612162,41.48312891,-12.38156220
-58.33214004,-67.02807787,171.27239599,10.80349092,14.76464728,-8.75664724
2.57579542,0.62976638,-1.48667240

>  <Name>
2o3w_lig

>  <RI>
0

>  <Rbt.Current_Directory>
/home/itssahil/PROJECTS/Mol_Feturizer/New_Systems/rnas/2o3w

>  <Rbt.Executable>
rbdock ($Id: //depot/dev/client3/rdock/2013.1/src/exe/rbdock.cxx#4 $)

>  <Rbt.Library>
libRbt.so (2013.1, Build901 2013/11/27)

>  <Rbt.Parameter_File>
/export/apps/rDock/src/rDock_2013.1_src/data/scripts/dock_solv.prm

>  <Rbt.Receptor>
prm/blind_docking_100.prm

>  <SCORE>
-0.818602

>  <SCORE.INTER>
-16.1175

>  <SCORE.INTER.CONST>
1

>  <SCORE.INTER.POLAR>
-0.749468

>  <SCORE.INTER.ROT>
9

>  <SCORE.INTER.SOLV>
17.7632

>  <SCORE.INTER.VDW>
-23.7678

>  <SCORE.INTER.norm>
-0.383751

>  <SCORE.INTRA>
4.18716

>  <SCORE.INTRA.DIHEDRAL>
-7.30872

>  <SCORE.INTRA.DIHEDRAL.0>
27.8999

>  <SCORE.INTRA.POLAR>
0

>  <SCORE.INTRA.POLAR.0>
0

>  <SCORE.INTRA.REPUL>
0

>  <SCORE.INTRA.REPUL.0>
0

>  <SCORE.INTRA.SOLV>
1.48289

>  <SCORE.INTRA.SOLV.lig_0>
-104.479

>  <SCORE.INTRA.VDW>
7.10007

>  <SCORE.INTRA.VDW.0>
-6.17816

>  <SCORE.INTRA.norm>
0.0996942

>  <SCORE.RESTR>
11.1118

>  <SCORE.RESTR.CAVITY>
11.1118

>  <SCORE.RESTR.norm>
0.264566

>  <SCORE.SYSTEM>
0

>  <SCORE.SYSTEM.CONST>
0

>  <SCORE.SYSTEM.DIHEDRAL>
0

>  <SCORE.SYSTEM.SOLV>
0

>  <SCORE.SYSTEM.norm>
0

>  <SCORE.heavy>
42

>  <SCORE.norm>
-0.0194905

>  <RMSD>
19.515

$$$$
2o3w_lig
 OpenBabel11021811463D
libRbt.so/2013.1/901 2013/11/27
 42 45  0  0  0  0  0  0  0  0999 V2000
   12.7593    9.5305   -9.6327 C   0  0  2  0  0  0  0  0  0  0  0  0
   13.5163   10.7447   -9.7747 O   0  0  0  0  0  0  0  0  0  0  0  0
   11.3497   13.1189   -6.8652 C   0  0  2  0  0  0  0  0  0  0  0  0
   10.8514   14.2603   -6.0410 N   0  0  0  0  0  0  0  0  0  0  0  0
   12.2011   13.9459  -11.1117 C   0  0  1  0  0  0  0  0  0  0  0  0
   12.9275   17.5582  -13.7336 C   0  0  1  0  0  0  0  0  0  0  0  0
   13.4282    8.4668  -10.5542 C   0  0  2  0  0  0  0  0  0  0  0  0
   14.8851    8.3820  -10.3521 N   0  0  0  0  0  0  0  0  0  0  0  0
   12.8822   12.8391   -6.5912 C   0  0  0  0  0  0  0  0  0  0  0  0
   12.0238   14.2079  -12.6384 C   0  0  2  0  0  0  0  0  0  0  0  0
   13.1523   13.7867  -13.4435 O   0  0  0  0  0  0  0  0  0  0  0  0
   12.0666   17.2587  -15.0134 C   0  0  2  0  0  0  0  0  0  0  0  0
   12.5114   15.9938  -15.6715 N   0  0  0  0  0  0  0  0  0  0  0  0
   13.2031    8.7636  -12.0483 C   0  0  1  0  0  0  0  0  0  0  0  0
   13.7980    7.7441  -12.8531 O   0  0  0  0  0  0  0  0  0  0  0  0
   13.3423   11.6145   -7.4695 C   0  0  2  0  0  0  0  0  0  0  0  0
   14.7788   11.3135   -7.2255 N   0  0  0  0  0  0  0  0  0  0  0  0
   11.7253   15.7079  -12.6496 C   0  0  2  0  0  0  0  0  0  0  0  0
   12.9502   16.4993  -12.7682 O   0  0  0  0  0  0  0  0  0  0  0  0
   12.1696   18.4992  -16.0220 C   0  0  1  0  0  0  0  0  0  0  0  0
   11.3922   19.5970  -15.4934 O   0  0  0  0  0  0  0  0  0  0  0  0
   11.6878    8.8896  -12.3263 C   0  0  2  0  0  0  0  0  0  0  0  0
   11.4639    9.1448  -13.6934 O   0  0  0  0  0  0  0  0  0  0  0  0
   13.1166   11.9138   -9.0042 C   0  0  2  0  0  0  0  0  0  0  0  0
   10.9953   16.0054  -11.3290 C   0  0  2  0  0  0  0  0  0  0  0  0
   11.5465   15.0427  -10.4336 O   0  0  0  0  0  0  0  0  0  0  0  0
   13.6788   18.9795  -16.2653 C   0  0  2  0  0  0  0  0  0  0  0  0
   14.3402   17.9601  -17.0134 O   0  0  0  0  0  0  0  0  0  0  0  0
   11.1013   10.0426  -11.4452 C   0  0  2  0  0  0  0  0  0  0  0  0
   11.3545    9.7596  -10.0325 O   0  0  0  0  0  0  0  0  0  0  0  0
   11.6473   12.2524   -9.3386 C   0  0  2  0  0  0  0  0  0  0  0  0
   11.6598   12.6745  -10.7300 O   0  0  0  0  0  0  0  0  0  0  0  0
    9.4411   15.8857  -11.3947 C   0  0  0  0  0  0  0  0  0  0  0  0
    8.9257   16.9096  -12.2402 O   0  0  0  0  0  0  0  0  0  0  0  0
   14.4157   19.2134  -14.8925 C   0  0  1  0  0  0  0  0  0  0  0  0
   14.3300   17.9384  -14.1596 O   0  0  0  0  0  0  0  0  0  0  0  0
    9.6160   10.2324  -11.6494 C   0  0  0  0  0  0  0  0  0  0  0  0
    8.9545    8.9928  -11.5787 O   0  0  0  0  0  0  0  0  0  0  0  0
   11.1262   13.4210   -8.4012 C   0  0  1  0  0  0  0  0  0  0  0  0
    9.7263   13.6305   -8.6058 O   0  0  0  0  0  0  0  0  0  0  0  0
   15.9343   19.6612  -15.0408 C   0  0  0  0  0  0  0  0  0  0  0  0
   16.7879   18.7708  -15.8746 N   0  0  0  0  0  0  0  0  0  0  0  0
  1  2  1  6  0  0  0
  1  7  1  0  0  0  0
  1 30  1  0  0  0  0
  3  4  1  1  0  0  0
  3  9  1  0  0  0  0
  3 39  1  0  0  0  0
  5 10  1  0  0  0  0
  5 26  1  0  0  0  0
  5 32  1  1  0  0  0
  6 12  1  0  0  0  0
  6 36  1  0  0  0  0
  6 19  1  1  0  0  0
  7  8  1  6  0  0  0
  7 14  1  0  0  0  0
  9 16  1  0  0  0  0
 10 11  1  6  0  0  0
 10 18  1  0  0  0  0
 12 13  1  6  0  0  0
 12 20  1  0  0  0  0
 14 15  1  6  0  0  0
 14 22  1  0  0  0  0
 16 17  1  6  0  0  0
 16 24  1  0  0  0  0
 18 19  1  1  0  0  0
 18 25  1  0  0  0  0
 20 21  1  1  0  0  0
 20 27  1  0  0  0  0
 22 23  1  6  0  0  0
 22 29  1  0  0  0  0
 24  2  1  6  0  0  0
 24 31  1  0  0  0  0
 25 26  1  0  0  0  0
 25 33  1  6  0  0  0
 27 28  1  6  0  0  0
 27 35  1  0  0  0  0
 29 30  1  0  0  0  0
 29 37  1  1  0  0  0
 31 32  1  6  0  0  0
 31 39  1  0  0  0  0
 33 34  1  0  0  0  0
 35 36  1  0  0  0  0
 35 41  1  6  0  0  0
 37 38  1  0  0  0  0
 39 40  1  1  0  0  0
 41 42  1  0  0  0  0
M  END
>  <CHROM.1>
-179.28703242,-176.53739028,-33.61647499,133.12587393,66.11223068,-66.71909461
48.23152530,-72.94244580,-54.00453290,12.35506354,13.73815519,-11.77952031
-1.95410136,1.22244178,-0.21644704

>  <Name>
2o3w_lig

>  <RI>
0

>  <Rbt.Current_Directory>
/home/itssahil/PROJECTS/Mol_Feturizer/New_Systems/rnas/2o3w

>  <Rbt.Executable>
rbdock ($Id: //depot/dev/client3/rdock/2013.1/src/exe/rbdock.cxx#4 $)

>  <Rbt.Library>
libRbt.so (2013.1, Build901 2013/11/27)

>  <Rbt.Parameter_File>
/export/apps/rDock/src/rDock_2013.1_src/data/scripts/dock_solv.prm

>  <Rbt.Receptor>
prm/blind_docking_80.prm

>  <SCORE>
3.36575

>  <SCORE.INTER>
1.28006

>  <SCORE.INTER.CONST>
1

>  <SCORE.INTER.POLAR>
-0.198202

>  <SCORE.INTER.ROT>
9

>  <SCORE.INTER.SOLV>
34.3819

>  <SCORE.INTER.VDW>
-19.5466

>  <SCORE.INTER.norm>
0.0304777

>  <SCORE.INTRA>
-4.35638

>  <SCORE.INTRA.DIHEDRAL>
-16.6976

>  <SCORE.INTRA.DIHEDRAL.0>
27.8999

>  <SCORE.INTRA.POLAR>
0

>  <SCORE.INTRA.POLAR.0>
0

>  <SCORE.INTRA.REPUL>
0

>  <SCORE.INTRA.REPUL.0>
0

>  <SCORE.INTRA.SOLV>
-1.39402

>  <SCORE.INTRA.SOLV.lig_0>
-104.479

>  <SCORE.INTRA.VDW>
4.68942

>  <SCORE.INTRA.VDW.0>
-6.17816

>  <SCORE.INTRA.norm>
-0.103723

>  <SCORE.RESTR>
6.44207

>  <SCORE.RESTR.CAVITY>
6.44207

>  <SCORE.RESTR.norm>
0.153383

>  <SCORE.SYSTEM>
0

>  <SCORE.SYSTEM.CONST>
0

>  <SCORE.SYSTEM.DIHEDRAL>
0

>  <SCORE.SYSTEM.SOLV>
0

>  <SCORE.SYSTEM.norm>
0

>  <SCORE.heavy>
42

>  <SCORE.norm>
0.080137

>  <RMSD>
19.549

$$$$
2o3w_lig
 OpenBabel11021811463D
libRbt.so/2013.1/901 2013/11/27
 42 45  0  0  0  0  0  0  0  0999 V2000
   10.3847   14.6301  -10.9683 C   0  0  2  0  0  0  0  0  0  0  0  0
   10.9799   15.1026   -9.7477 O   0  0  0  0  0  0  0  0  0  0  0  0
   13.0089   13.1136   -6.4730 C   0  0  2  0  0  0  0  0  0  0  0  0
   13.3438   12.1733   -5.3622 N   0  0  0  0  0  0  0  0  0  0  0  0
   12.5970   11.2408  -10.5369 C   0  0  1  0  0  0  0  0  0  0  0  0
   14.2476    8.4729  -11.8996 C   0  0  1  0  0  0  0  0  0  0  0  0
   11.4416   14.8275  -12.0961 C   0  0  2  0  0  0  0  0  0  0  0  0
   12.7616   14.2830  -11.7333 N   0  0  0  0  0  0  0  0  0  0  0  0
   11.7274   13.9748   -6.1294 C   0  0  0  0  0  0  0  0  0  0  0  0
   11.9862   10.0115   -9.7977 C   0  0  2  0  0  0  0  0  0  0  0  0
   12.6519    9.6813   -8.5540 O   0  0  0  0  0  0  0  0  0  0  0  0
   15.5199    7.5509  -11.9018 C   0  0  2  0  0  0  0  0  0  0  0  0
   16.2282    7.6160  -10.5885 N   0  0  0  0  0  0  0  0  0  0  0  0
   11.6535   16.3122  -12.4450 C   0  0  1  0  0  0  0  0  0  0  0  0
   12.5987   16.4433  -13.5081 O   0  0  0  0  0  0  0  0  0  0  0  0
   11.4387   14.9596   -7.3249 C   0  0  2  0  0  0  0  0  0  0  0  0
   10.2454   15.7974   -7.0286 N   0  0  0  0  0  0  0  0  0  0  0  0
   12.0559    8.9432  -10.8901 C   0  0  2  0  0  0  0  0  0  0  0  0
   13.3187    8.2057  -10.8416 O   0  0  0  0  0  0  0  0  0  0  0  0
   16.4884    7.9893  -13.1004 C   0  0  1  0  0  0  0  0  0  0  0  0
   15.9086    7.5567  -14.3517 O   0  0  0  0  0  0  0  0  0  0  0  0
   10.2966   16.9540  -12.8138 C   0  0  2  0  0  0  0  0  0  0  0  0
   10.4759   18.3096  -13.1521 O   0  0  0  0  0  0  0  0  0  0  0  0
   11.2026   14.1556   -8.6642 C   0  0  2  0  0  0  0  0  0  0  0  0
   11.8978    9.6903  -12.2251 C   0  0  2  0  0  0  0  0  0  0  0  0
   12.4780   10.9635  -11.9512 O   0  0  0  0  0  0  0  0  0  0  0  0
   16.7445    9.5704  -13.1466 C   0  0  2  0  0  0  0  0  0  0  0  0
   17.5388    9.9116  -12.0113 O   0  0  0  0  0  0  0  0  0  0  0  0
    9.3179   16.8114  -11.6007 C   0  0  2  0  0  0  0  0  0  0  0  0
    9.1558   15.3974  -11.2630 O   0  0  0  0  0  0  0  0  0  0  0  0
   12.3945   13.2460   -9.0347 C   0  0  2  0  0  0  0  0  0  0  0  0
   11.9360   12.4581  -10.1676 O   0  0  0  0  0  0  0  0  0  0  0  0
   10.4277    9.8395  -12.7257 C   0  0  0  0  0  0  0  0  0  0  0  0
    9.6239   10.3665  -11.6744 O   0  0  0  0  0  0  0  0  0  0  0  0
   15.3792   10.3558  -13.1128 C   0  0  1  0  0  0  0  0  0  0  0  0
   14.6877    9.9217  -11.8865 O   0  0  0  0  0  0  0  0  0  0  0  0
    7.9579   17.4092  -11.8775 C   0  0  0  0  0  0  0  0  0  0  0  0
    8.0682   18.7992  -12.0649 O   0  0  0  0  0  0  0  0  0  0  0  0
   12.7697   12.3076   -7.8123 C   0  0  1  0  0  0  0  0  0  0  0  0
   13.9641   11.5755   -8.1005 O   0  0  0  0  0  0  0  0  0  0  0  0
   15.5416   11.9376  -13.1215 C   0  0  0  0  0  0  0  0  0  0  0  0
   14.2786   12.7122  -13.2678 N   0  0  0  0  0  0  0  0  0  0  0  0
  1  2  1  1  0  0  0
  1  7  1  0  0  0  0
  1 30  1  0  0  0  0
  3  4  1  1  0  0  0
  3  9  1  0  0  0  0
  3 39  1  0  0  0  0
  5 10  1  0  0  0  0
  5 26  1  0  0  0  0
  5 32  1  6  0  0  0
  6 12  1  0  0  0  0
  6 36  1  0  0  0  0
  6 19  1  1  0  0  0
  7  8  1  1  0  0  0
  7 14  1  0  0  0  0
  9 16  1  0  0  0  0
 10 11  1  1  0  0  0
 10 18  1  0  0  0  0
 12 13  1  1  0  0  0
 12 20  1  0  0  0  0
 14 15  1  6  0  0  0
 14 22  1  0  0  0  0
 16 17  1  1  0  0  0
 16 24  1  0  0  0  0
 18 19  1  6  0  0  0
 18 25  1  0  0  0  0
 20 21  1  6  0  0  0
 20 27  1  0  0  0  0
 22 23  1  1  0  0  0
 22 29  1  0  0  0  0
 24  2  1  6  0  0  0
 24 31  1  0  0  0  0
 25 26  1  0  0  0  0
 25 33  1  1  0  0  0
 27 28  1  1  0  0  0
 27 35  1  0  0  0  0
 29 30  1  0  0  0  0
 29 37  1  6  0  0  0
 31 32  1  6  0  0  0
 31 39  1  0  0  0  0
 33 34  1  0  0  0  0
 35 36  1  0  0  0  0
 35 41  1  1  0  0  0
 37 38  1  0  0  0  0
 39 40  1  6  0  0  0
 41 42  1  0  0  0  0
M  END
>  <CHROM.1>
-116.69727066,89.44548545,-173.60529400,-108.47380100,-163.00785919,50.68633009
-64.36447586,-161.11784313,172.41042051,12.52938075,12.42938028,-10.90448743
-3.04780412,-0.98790972,1.81299427

>  <Name>
2o3w_lig

>  <RI>
0

>  <Rbt.Current_Directory>
/home/itssahil/PROJECTS/Mol_Feturizer/New_Systems/rnas/2o3w

>  <Rbt.Executable>
rbdock ($Id: //depot/dev/client3/rdock/2013.1/src/exe/rbdock.cxx#4 $)

>  <Rbt.Library>
libRbt.so (2013.1, Build901 2013/11/27)

>  <Rbt.Parameter_File>
/export/apps/rDock/src/rDock_2013.1_src/data/scripts/dock_solv.prm

>  <Rbt.Receptor>
prm/blind_docking_80.prm

>  <SCORE>
11.3569

>  <SCORE.INTER>
-3.14322

>  <SCORE.INTER.CONST>
1

>  <SCORE.INTER.POLAR>
-0.169303

>  <SCORE.INTER.ROT>
9

>  <SCORE.INTER.SOLV>
35.2147

>  <SCORE.INTER.VDW>
-22.8694

>  <SCORE.INTER.norm>
-0.0748386

>  <SCORE.INTRA>
6.65726

>  <SCORE.INTRA.DIHEDRAL>
-6.84667

>  <SCORE.INTRA.DIHEDRAL.0>
27.8999

>  <SCORE.INTRA.POLAR>
0

>  <SCORE.INTRA.POLAR.0>
0

>  <SCORE.INTRA.REPUL>
0.125147

>  <SCORE.INTRA.REPUL.0>
0

>  <SCORE.INTRA.SOLV>
4.90173

>  <SCORE.INTRA.SOLV.lig_0>
-104.479

>  <SCORE.INTRA.VDW>
7.004

>  <SCORE.INTRA.VDW.0>
-6.17816

>  <SCORE.INTRA.norm>
0.158506

>  <SCORE.RESTR>
7.84286

>  <SCORE.RESTR.CAVITY>
7.84286

>  <SCORE.RESTR.norm>
0.186735

>  <SCORE.SYSTEM>
0

>  <SCORE.SYSTEM.CONST>
0

>  <SCORE.SYSTEM.DIHEDRAL>
0

>  <SCORE.SYSTEM.SOLV>
0

>  <SCORE.SYSTEM.norm>
0

>  <SCORE.heavy>
42

>  <SCORE.norm>
0.270403

>  <RMSD>
19.567

$$$$
2o3w_lig
 OpenBabel11021811463D
libRbt.so/2013.1/901 2013/11/27
 42 45  0  0  0  0  0  0  0  0999 V2000
   10.5092   16.0962  -12.0576 C   0  0  2  0  0  0  0  0  0  0  0  0
   11.0761   15.7970  -10.7705 O   0  0  0  0  0  0  0  0  0  0  0  0
    8.7540   14.9890   -7.1996 C   0  0  2  0  0  0  0  0  0  0  0  0
    7.9516   14.3016   -6.1442 N   0  0  0  0  0  0  0  0  0  0  0  0
   12.1050   12.6948   -8.8513 C   0  0  1  0  0  0  0  0  0  0  0  0
   12.8571    9.8552  -10.2285 C   0  0  1  0  0  0  0  0  0  0  0  0
   10.9807   14.9769  -13.0338 C   0  0  2  0  0  0  0  0  0  0  0  0
   10.7539   13.6252  -12.4934 N   0  0  0  0  0  0  0  0  0  0  0  0
    7.9923   14.9971   -8.5858 C   0  0  0  0  0  0  0  0  0  0  0  0
   13.5037   12.0079   -8.8004 C   0  0  2  0  0  0  0  0  0  0  0  0
   14.0874   11.7623  -10.1035 O   0  0  0  0  0  0  0  0  0  0  0  0
   11.4842   10.2279  -10.8957 C   0  0  2  0  0  0  0  0  0  0  0  0
   10.4480    9.1944  -10.5970 N   0  0  0  0  0  0  0  0  0  0  0  0
   12.4823   15.0796  -13.3590 C   0  0  1  0  0  0  0  0  0  0  0  0
   12.8613   14.0607  -14.2858 O   0  0  0  0  0  0  0  0  0  0  0  0
    8.8758   15.7529   -9.6492 C   0  0  2  0  0  0  0  0  0  0  0  0
    8.1816   15.7922  -10.9646 N   0  0  0  0  0  0  0  0  0  0  0  0
   13.1930   10.7626   -7.9685 C   0  0  2  0  0  0  0  0  0  0  0  0
   12.7934    9.6370   -8.8136 O   0  0  0  0  0  0  0  0  0  0  0  0
   11.6922   10.3945  -12.4756 C   0  0  1  0  0  0  0  0  0  0  0  0
   12.3948   11.6323  -12.7263 O   0  0  0  0  0  0  0  0  0  0  0  0
   12.7951   16.4892  -13.9108 C   0  0  2  0  0  0  0  0  0  0  0  0
   14.1633   16.5940  -14.2292 O   0  0  0  0  0  0  0  0  0  0  0  0
   10.2790   15.0454   -9.8113 C   0  0  2  0  0  0  0  0  0  0  0  0
   12.0628   11.1659   -7.0065 C   0  0  2  0  0  0  0  0  0  0  0  0
   11.3452   12.1492   -7.7485 O   0  0  0  0  0  0  0  0  0  0  0  0
   12.5031    9.1762  -13.1281 C   0  0  2  0  0  0  0  0  0  0  0  0
   11.6621    8.0242  -13.0806 O   0  0  0  0  0  0  0  0  0  0  0  0
   12.3930   17.5574  -12.8399 C   0  0  2  0  0  0  0  0  0  0  0  0
   10.9722   17.4221  -12.5194 O   0  0  0  0  0  0  0  0  0  0  0  0
   11.0589   14.9503   -8.4816 C   0  0  2  0  0  0  0  0  0  0  0  0
   12.2171   14.1220   -8.7765 O   0  0  0  0  0  0  0  0  0  0  0  0
   12.5386   11.7351   -5.6340 C   0  0  0  0  0  0  0  0  0  0  0  0
   13.1968   10.7064   -4.9008 O   0  0  0  0  0  0  0  0  0  0  0  0
   13.8384    8.9095  -12.3358 C   0  0  1  0  0  0  0  0  0  0  0  0
   13.4420    8.6534  -10.9402 O   0  0  0  0  0  0  0  0  0  0  0  0
   12.6599   18.9717  -13.3007 C   0  0  0  0  0  0  0  0  0  0  0  0
   11.9194   19.2506  -14.4640 O   0  0  0  0  0  0  0  0  0  0  0  0
   10.1571   14.2782   -7.3632 C   0  0  1  0  0  0  0  0  0  0  0  0
   10.8218   14.3276   -6.0977 O   0  0  0  0  0  0  0  0  0  0  0  0
   14.6923    7.6911  -12.8971 C   0  0  0  0  0  0  0  0  0  0  0  0
   15.5237    7.9879  -14.0959 N   0  0  0  0  0  0  0  0  0  0  0  0
  1  2  1  1  0  0  0
  1  7  1  0  0  0  0
  1 30  1  0  0  0  0
  3  4  1  1  0  0  0
  3  9  1  0  0  0  0
  3 39  1  0  0  0  0
  5 10  1  0  0  0  0
  5 26  1  0  0  0  0
  5 32  1  1  0  0  0
  6 12  1  0  0  0  0
  6 36  1  0  0  0  0
  6 19  1  1  0  0  0
  7  8  1  1  0  0  0
  7 14  1  0  0  0  0
  9 16  1  0  0  0  0
 10 11  1  6  0  0  0
 10 18  1  0  0  0  0
 12 13  1  6  0  0  0
 12 20  1  0  0  0  0
 14 15  1  6  0  0  0
 14 22  1  0  0  0  0
 16 17  1  6  0  0  0
 16 24  1  0  0  0  0
 18 19  1  6  0  0  0
 18 25  1  0  0  0  0
 20 21  1  1  0  0  0
 20 27  1  0  0  0  0
 22 23  1  1  0  0  0
 22 29  1  0  0  0  0
 24  2  1  6  0  0  0
 24 31  1  0  0  0  0
 25 26  1  0  0  0  0
 25 33  1  1  0  0  0
 27 28  1  1  0  0  0
 27 35  1  0  0  0  0
 29 30  1  0  0  0  0
 29 37  1  6  0  0  0
 31 32  1  6  0  0  0
 31 39  1  0  0  0  0
 33 34  1  0  0  0  0
 35 36  1  0  0  0  0
 35 41  1  6  0  0  0
 37 38  1  0  0  0  0
 39 40  1  1  0  0  0
 41 42  1  0  0  0  0
M  END
>  <CHROM.1>
-94.58907481,-164.94248068,-98.29481686,4.41404298,-52.34729800,-66.13163198
60.41210832,-78.95065420,80.14038962,11.82138661,13.06822700,-10.56845817
-2.15137784,-1.12111399,2.37833872

>  <Name>
2o3w_lig

>  <RI>
0

>  <Rbt.Current_Directory>
/home/itssahil/PROJECTS/Mol_Feturizer/New_Systems/rnas/2o3w

>  <Rbt.Executable>
rbdock ($Id: //depot/dev/client3/rdock/2013.1/src/exe/rbdock.cxx#4 $)

>  <Rbt.Library>
libRbt.so (2013.1, Build901 2013/11/27)

>  <Rbt.Parameter_File>
/export/apps/rDock/src/rDock_2013.1_src/data/scripts/dock_solv.prm

>  <Rbt.Receptor>
prm/blind_docking_60.prm

>  <SCORE>
22.9092

>  <SCORE.INTER>
-10.2167

>  <SCORE.INTER.CONST>
1

>  <SCORE.INTER.POLAR>
-1.16308

>  <SCORE.INTER.ROT>
9

>  <SCORE.INTER.SOLV>
21.096

>  <SCORE.INTER.VDW>
-19.5662

>  <SCORE.INTER.norm>
-0.243254

>  <SCORE.INTRA>
13.8842

>  <SCORE.INTRA.DIHEDRAL>
-6.72098

>  <SCORE.INTRA.DIHEDRAL.0>
27.8999

>  <SCORE.INTRA.POLAR>
0

>  <SCORE.INTRA.POLAR.0>
0

>  <SCORE.INTRA.REPUL>
0

>  <SCORE.INTRA.REPUL.0>
0

>  <SCORE.INTRA.SOLV>
2.92176

>  <SCORE.INTRA.SOLV.lig_0>
-104.479

>  <SCORE.INTRA.VDW>
15.7838

>  <SCORE.INTRA.VDW.0>
-6.17816

>  <SCORE.INTRA.norm>
0.330577

>  <SCORE.RESTR>
19.2416

>  <SCORE.RESTR.CAVITY>
19.2416

>  <SCORE.RESTR.norm>
0.458135

>  <SCORE.SYSTEM>
0

>  <SCORE.SYSTEM.CONST>
0

>  <SCORE.SYSTEM.DIHEDRAL>
0

>  <SCORE.SYSTEM.SOLV>
0

>  <SCORE.SYSTEM.norm>
0

>  <SCORE.heavy>
42

>  <SCORE.norm>
0.545457

>  <RMSD>
19.593

$$$$
2o3w_lig
 OpenBabel11021811463D
libRbt.so/2013.1/901 2013/11/27
 42 45  0  0  0  0  0  0  0  0999 V2000
    8.3569   17.8694  -10.9941 C   0  0  2  0  0  0  0  0  0  0  0  0
    9.4881   17.4460  -10.2142 O   0  0  0  0  0  0  0  0  0  0  0  0
   11.6610   15.3886  -13.3513 C   0  0  2  0  0  0  0  0  0  0  0  0
   12.7260   14.6771  -14.1194 N   0  0  0  0  0  0  0  0  0  0  0  0
   11.2362   14.7725   -8.9093 C   0  0  1  0  0  0  0  0  0  0  0  0
   13.8647   13.7776   -5.3726 C   0  0  1  0  0  0  0  0  0  0  0  0
    7.6249   18.9726  -10.1724 C   0  0  2  0  0  0  0  0  0  0  0  0
    8.5430   20.0193   -9.6907 N   0  0  0  0  0  0  0  0  0  0  0  0
   12.0944   16.8703  -13.0069 C   0  0  0  0  0  0  0  0  0  0  0  0
   10.8590   14.1810   -7.5169 C   0  0  2  0  0  0  0  0  0  0  0  0
   10.3625   15.1630   -6.5744 O   0  0  0  0  0  0  0  0  0  0  0  0
   14.6965   14.7897   -4.5051 C   0  0  2  0  0  0  0  0  0  0  0  0
   15.5431   15.6641   -5.3709 N   0  0  0  0  0  0  0  0  0  0  0  0
    6.9118   18.4016   -8.9329 C   0  0  1  0  0  0  0  0  0  0  0  0
    6.2228   19.4392   -8.2333 O   0  0  0  0  0  0  0  0  0  0  0  0
   10.9253   17.5738  -12.2190 C   0  0  2  0  0  0  0  0  0  0  0  0
   11.2938   18.9773  -11.8906 N   0  0  0  0  0  0  0  0  0  0  0  0
   12.1649   13.4880   -7.1249 C   0  0  2  0  0  0  0  0  0  0  0  0
   13.0484   14.3862   -6.3810 O   0  0  0  0  0  0  0  0  0  0  0  0
   15.5941   13.9749   -3.4576 C   0  0  1  0  0  0  0  0  0  0  0  0
   14.7387   13.4531   -2.4160 O   0  0  0  0  0  0  0  0  0  0  0  0
    5.9458   17.2756   -9.3668 C   0  0  2  0  0  0  0  0  0  0  0  0
    5.2725   16.7535   -8.2450 O   0  0  0  0  0  0  0  0  0  0  0  0
   10.5974   16.7867  -10.8890 C   0  0  2  0  0  0  0  0  0  0  0  0
   12.8150   13.0314   -8.4418 C   0  0  2  0  0  0  0  0  0  0  0  0
   12.3788   14.0177   -9.3741 O   0  0  0  0  0  0  0  0  0  0  0  0
   16.4057   12.7721   -4.1373 C   0  0  2  0  0  0  0  0  0  0  0  0
   17.4100   13.3474   -4.9720 O   0  0  0  0  0  0  0  0  0  0  0  0
    6.7616   16.1548  -10.0933 C   0  0  2  0  0  0  0  0  0  0  0  0
    7.4583   16.7230  -11.2472 O   0  0  0  0  0  0  0  0  0  0  0  0
   10.2192   15.3112  -11.1440 C   0  0  2  0  0  0  0  0  0  0  0  0
   10.1353   14.7049   -9.8249 O   0  0  0  0  0  0  0  0  0  0  0  0
   12.4140   11.5987   -8.9117 C   0  0  0  0  0  0  0  0  0  0  0  0
   12.7342   10.6611   -7.8882 O   0  0  0  0  0  0  0  0  0  0  0  0
   15.4421   11.8636   -4.9906 C   0  0  1  0  0  0  0  0  0  0  0  0
   14.8048   12.7549   -5.9753 O   0  0  0  0  0  0  0  0  0  0  0  0
    5.8907   15.0112  -10.5597 C   0  0  0  0  0  0  0  0  0  0  0  0
    4.9094   15.4815  -11.4514 O   0  0  0  0  0  0  0  0  0  0  0  0
   11.3359   14.6017  -12.0188 C   0  0  1  0  0  0  0  0  0  0  0  0
   10.9150   13.2838  -12.3817 O   0  0  0  0  0  0  0  0  0  0  0  0
   16.1726   10.6603   -5.7303 C   0  0  0  0  0  0  0  0  0  0  0  0
   17.3296   11.0405   -6.5867 N   0  0  0  0  0  0  0  0  0  0  0  0
  1  2  1  1  0  0  0
  1  7  1  0  0  0  0
  1 30  1  0  0  0  0
  3  4  1  1  0  0  0
  3  9  1  0  0  0  0
  3 39  1  0  0  0  0
  5 10  1  0  0  0  0
  5 26  1  0  0  0  0
  5 32  1  6  0  0  0
  6 12  1  0  0  0  0
  6 36  1  0  0  0  0
  6 19  1  6  0  0  0
  7  8  1  1  0  0  0
  7 14  1  0  0  0  0
  9 16  1  0  0  0  0
 10 11  1  1  0  0  0
 10 18  1  0  0  0  0
 12 13  1  6  0  0  0
 12 20  1  0  0  0  0
 14 15  1  6  0  0  0
 14 22  1  0  0  0  0
 16 17  1  1  0  0  0
 16 24  1  0  0  0  0
 18 19  1  6  0  0  0
 18 25  1  0  0  0  0
 20 21  1  1  0  0  0
 20 27  1  0  0  0  0
 22 23  1  1  0  0  0
 22 29  1  0  0  0  0
 24  2  1  6  0  0  0
 24 31  1  0  0  0  0
 25 26  1  0  0  0  0
 25 33  1  6  0  0  0
 27 28  1  6  0  0  0
 27 35  1  0  0  0  0
 29 30  1  0  0  0  0
 29 37  1  6  0  0  0
 31 32  1  1  0  0  0
 31 39  1  0  0  0  0
 33 34  1  0  0  0  0
 35 36  1  0  0  0  0
 35 41  1  6  0  0  0
 37 38  1  0  0  0  0
 39 40  1  6  0  0  0
 41 42  1  0  0  0  0
M  END
>  <CHROM.1>
-158.91295574,174.23954404,-174.45698600,146.62259629,44.14598254,-57.15837034
59.37960403,-55.03093960,-53.79453273,11.29091049,15.05510907,-8.66398150
2.63404692,0.56335788,-1.64967670

>  <Name>
2o3w_lig

>  <RI>
0

>  <Rbt.Current_Directory>
/home/itssahil/PROJECTS/Mol_Feturizer/New_Systems/rnas/2o3w

>  <Rbt.Executable>
rbdock ($Id: //depot/dev/client3/rdock/2013.1/src/exe/rbdock.cxx#4 $)

>  <Rbt.Library>
libRbt.so (2013.1, Build901 2013/11/27)

>  <Rbt.Parameter_File>
/export/apps/rDock/src/rDock_2013.1_src/data/scripts/dock_solv.prm

>  <Rbt.Receptor>
prm/blind_docking_100.prm

>  <SCORE>
-0.469373

>  <SCORE.INTER>
-6.72351

>  <SCORE.INTER.CONST>
1

>  <SCORE.INTER.POLAR>
-0.00201052

>  <SCORE.INTER.ROT>
9

>  <SCORE.INTER.SOLV>
27.7934

>  <SCORE.INTER.VDW>
-23.3401

>  <SCORE.INTER.norm>
-0.160084

>  <SCORE.INTRA>
-8.75525

>  <SCORE.INTRA.DIHEDRAL>
-19.7919

>  <SCORE.INTRA.DIHEDRAL.0>
27.8999

>  <SCORE.INTRA.POLAR>
0

>  <SCORE.INTRA.POLAR.0>
0

>  <SCORE.INTRA.REPUL>
0

>  <SCORE.INTRA.REPUL.0>
0

>  <SCORE.INTRA.SOLV>
-2.23531

>  <SCORE.INTRA.SOLV.lig_0>
-104.479

>  <SCORE.INTRA.VDW>
2.25835

>  <SCORE.INTRA.VDW.0>
-6.17816

>  <SCORE.INTRA.norm>
-0.208458

>  <SCORE.RESTR>
15.0094

>  <SCORE.RESTR.CAVITY>
15.0094

>  <SCORE.RESTR.norm>
0.357366

>  <SCORE.SYSTEM>
0

>  <SCORE.SYSTEM.CONST>
0

>  <SCORE.SYSTEM.DIHEDRAL>
0

>  <SCORE.SYSTEM.SOLV>
0

>  <SCORE.SYSTEM.norm>
0

>  <SCORE.heavy>
42

>  <SCORE.norm>
-0.0111756

>  <RMSD>
19.602

$$$$
2o3w_lig
 OpenBabel11021811463D
libRbt.so/2013.1/901 2013/11/27
 42 45  0  0  0  0  0  0  0  0999 V2000
   12.1210   12.5869   -7.1818 C   0  0  2  0  0  0  0  0  0  0  0  0
   12.5611   12.5175   -8.5489 O   0  0  0  0  0  0  0  0  0  0  0  0
   12.4592    9.3789  -11.5381 C   0  0  2  0  0  0  0  0  0  0  0  0
   11.9889    8.3182  -12.4783 N   0  0  0  0  0  0  0  0  0  0  0  0
   11.8521   14.3858  -11.2362 C   0  0  1  0  0  0  0  0  0  0  0  0
   12.9166   17.7669  -13.7564 C   0  0  1  0  0  0  0  0  0  0  0  0
   12.4258   14.0298   -6.6784 C   0  0  2  0  0  0  0  0  0  0  0  0
   11.9296   15.0655   -7.6012 N   0  0  0  0  0  0  0  0  0  0  0  0
   12.1963    8.9696  -10.0330 C   0  0  0  0  0  0  0  0  0  0  0  0
   11.6398   14.8794  -12.6998 C   0  0  2  0  0  0  0  0  0  0  0  0
   12.7437   14.5794  -13.5889 O   0  0  0  0  0  0  0  0  0  0  0  0
   11.7842   17.6851  -14.8425 C   0  0  2  0  0  0  0  0  0  0  0  0
   11.3652   16.2697  -15.0708 N   0  0  0  0  0  0  0  0  0  0  0  0
   13.9347   14.2795   -6.4993 C   0  0  1  0  0  0  0  0  0  0  0  0
   14.1647   15.5981   -5.9999 O   0  0  0  0  0  0  0  0  0  0  0  0
   12.7323   10.1140   -9.0919 C   0  0  2  0  0  0  0  0  0  0  0  0
   12.5139    9.7549   -7.6647 N   0  0  0  0  0  0  0  0  0  0  0  0
   11.3562   16.3653  -12.4740 C   0  0  2  0  0  0  0  0  0  0  0  0
   12.5857   17.1579  -12.5020 O   0  0  0  0  0  0  0  0  0  0  0  0
   12.3046   18.3574  -16.2005 C   0  0  1  0  0  0  0  0  0  0  0  0
   12.3341   19.7923  -16.0300 O   0  0  0  0  0  0  0  0  0  0  0  0
   14.5264   13.2075   -5.5561 C   0  0  2  0  0  0  0  0  0  0  0  0
   15.9044   13.4321   -5.3685 O   0  0  0  0  0  0  0  0  0  0  0  0
   12.0091   11.4819   -9.4110 C   0  0  2  0  0  0  0  0  0  0  0  0
   10.6622   16.4617  -11.1049 C   0  0  2  0  0  0  0  0  0  0  0  0
   11.2256   15.3699  -10.3817 O   0  0  0  0  0  0  0  0  0  0  0  0
   13.7574   17.8392  -16.6342 C   0  0  2  0  0  0  0  0  0  0  0  0
   13.6270   16.4755  -17.0339 O   0  0  0  0  0  0  0  0  0  0  0  0
   14.2758   11.7908   -6.1725 C   0  0  2  0  0  0  0  0  0  0  0  0
   12.8406   11.5855   -6.3663 O   0  0  0  0  0  0  0  0  0  0  0  0
   12.1757   11.9182  -10.8831 C   0  0  2  0  0  0  0  0  0  0  0  0
   11.3077   13.0743  -11.0394 O   0  0  0  0  0  0  0  0  0  0  0  0
    9.1057   16.3630  -11.1477 C   0  0  0  0  0  0  0  0  0  0  0  0
    8.5782   16.6889   -9.8654 O   0  0  0  0  0  0  0  0  0  0  0  0
   14.7719   17.9612  -15.4350 C   0  0  1  0  0  0  0  0  0  0  0  0
   14.1916   17.1825  -14.3272 O   0  0  0  0  0  0  0  0  0  0  0  0
   14.8190   10.6764   -5.3083 C   0  0  0  0  0  0  0  0  0  0  0  0
   14.1450    9.4735   -5.5880 O   0  0  0  0  0  0  0  0  0  0  0  0
   11.7324   10.7468  -11.8563 C   0  0  1  0  0  0  0  0  0  0  0  0
   12.0282   11.0932  -13.2121 O   0  0  0  0  0  0  0  0  0  0  0  0
   16.2352   17.4358  -15.7686 C   0  0  0  0  0  0  0  0  0  0  0  0
   17.0923   18.3726  -16.5461 N   0  0  0  0  0  0  0  0  0  0  0  0
  1  2  1  6  0  0  0
  1  7  1  0  0  0  0
  1 30  1  0  0  0  0
  3  4  1  6  0  0  0
  3  9  1  0  0  0  0
  3 39  1  0  0  0  0
  5 10  1  0  0  0  0
  5 26  1  0  0  0  0
  5 32  1  6  0  0  0
  6 12  1  0  0  0  0
  6 36  1  0  0  0  0
  6 19  1  1  0  0  0
  7  8  1  6  0  0  0
  7 14  1  0  0  0  0
  9 16  1  0  0  0  0
 10 11  1  6  0  0  0
 10 18  1  0  0  0  0
 12 13  1  6  0  0  0
 12 20  1  0  0  0  0
 14 15  1  1  0  0  0
 14 22  1  0  0  0  0
 16 17  1  1  0  0  0
 16 24  1  0  0  0  0
 18 19  1  1  0  0  0
 18 25  1  0  0  0  0
 20 21  1  1  0  0  0
 20 27  1  0  0  0  0
 22 23  1  6  0  0  0
 22 29  1  0  0  0  0
 24  2  1  1  0  0  0
 24 31  1  0  0  0  0
 25 26  1  0  0  0  0
 25 33  1  6  0  0  0
 27 28  1  1  0  0  0
 27 35  1  0  0  0  0
 29 30  1  0  0  0  0
 29 37  1  1  0  0  0
 31 32  1  6  0  0  0
 31 39  1  0  0  0  0
 33 34  1  0  0  0  0
 35 36  1  0  0  0  0
 35 41  1  6  0  0  0
 37 38  1  0  0  0  0
 39 40  1  6  0  0  0
 41 42  1  0  0  0  0
M  END
>  <CHROM.1>
-159.13916372,107.88608034,9.70126198,95.40449074,-78.50041586,-170.29725821
156.77307551,110.89136799,79.24447782,12.74024970,14.21686205,-10.95575180
-1.53739847,-1.39325439,-0.89521286

>  <Name>
2o3w_lig

>  <RI>
0

>  <Rbt.Current_Directory>
/home/itssahil/PROJECTS/Mol_Feturizer/New_Systems/rnas/2o3w

>  <Rbt.Executable>
rbdock ($Id: //depot/dev/client3/rdock/2013.1/src/exe/rbdock.cxx#4 $)

>  <Rbt.Library>
libRbt.so (2013.1, Build901 2013/11/27)

>  <Rbt.Parameter_File>
/export/apps/rDock/src/rDock_2013.1_src/data/scripts/dock_solv.prm

>  <Rbt.Receptor>
prm/blind_docking_80.prm

>  <SCORE>
20.7372

>  <SCORE.INTER>
3.39097

>  <SCORE.INTER.CONST>
1

>  <SCORE.INTER.POLAR>
-0.27874

>  <SCORE.INTER.ROT>
9

>  <SCORE.INTER.SOLV>
31.0065

>  <SCORE.INTER.VDW>
-16.7457

>  <SCORE.INTER.norm>
0.0807373

>  <SCORE.INTRA>
13.8661

>  <SCORE.INTRA.DIHEDRAL>
3.51544

>  <SCORE.INTRA.DIHEDRAL.0>
27.8999

>  <SCORE.INTRA.POLAR>
0

>  <SCORE.INTRA.POLAR.0>
0

>  <SCORE.INTRA.REPUL>
0.64945

>  <SCORE.INTRA.REPUL.0>
0

>  <SCORE.INTRA.SOLV>
3.99869

>  <SCORE.INTRA.SOLV.lig_0>
-104.479

>  <SCORE.INTRA.VDW>
6.86176

>  <SCORE.INTRA.VDW.0>
-6.17816

>  <SCORE.INTRA.norm>
0.330145

>  <SCORE.RESTR>
3.48015

>  <SCORE.RESTR.CAVITY>
3.48015

>  <SCORE.RESTR.norm>
0.0828606

>  <SCORE.SYSTEM>
0

>  <SCORE.SYSTEM.CONST>
0

>  <SCORE.SYSTEM.DIHEDRAL>
0

>  <SCORE.SYSTEM.SOLV>
0

>  <SCORE.SYSTEM.norm>
0

>  <SCORE.heavy>
42

>  <SCORE.norm>
0.493742

>  <RMSD>
19.612

$$$$
2o3w_lig
 OpenBabel11021811463D
libRbt.so/2013.1/901 2013/11/27
 42 45  0  0  0  0  0  0  0  0999 V2000
   11.0204   14.9434  -12.4248 C   0  0  2  0  0  0  0  0  0  0  0  0
   11.5314   14.9643  -11.0811 O   0  0  0  0  0  0  0  0  0  0  0  0
    9.1514   15.2736   -7.4705 C   0  0  2  0  0  0  0  0  0  0  0  0
    8.2800   14.9449   -6.3031 N   0  0  0  0  0  0  0  0  0  0  0  0
   12.1770   12.3054   -9.0398 C   0  0  1  0  0  0  0  0  0  0  0  0
   12.7105    9.5908  -10.5064 C   0  0  1  0  0  0  0  0  0  0  0  0
   12.2499   14.8523  -13.3779 C   0  0  2  0  0  0  0  0  0  0  0  0
   13.1830   13.7790  -12.9933 N   0  0  0  0  0  0  0  0  0  0  0  0
    8.3878   15.0506   -8.8376 C   0  0  0  0  0  0  0  0  0  0  0  0
   13.3322   11.3527   -8.6058 C   0  0  2  0  0  0  0  0  0  0  0  0
   14.3043   11.0922   -9.6481 O   0  0  0  0  0  0  0  0  0  0  0  0
   11.5827    9.4969  -11.5964 C   0  0  2  0  0  0  0  0  0  0  0  0
   11.0163    8.1163  -11.6604 N   0  0  0  0  0  0  0  0  0  0  0  0
   13.0635   16.1592  -13.4085 C   0  0  1  0  0  0  0  0  0  0  0  0
   14.1552   16.0441  -14.3228 O   0  0  0  0  0  0  0  0  0  0  0  0
    9.3477   15.4340  -10.0267 C   0  0  2  0  0  0  0  0  0  0  0  0
    8.6553   15.2497  -11.3307 N   0  0  0  0  0  0  0  0  0  0  0  0
   12.5456   10.1363   -8.1150 C   0  0  2  0  0  0  0  0  0  0  0  0
   12.3085    9.1775   -9.1944 O   0  0  0  0  0  0  0  0  0  0  0  0
   12.1804    9.9402  -13.0152 C   0  0  1  0  0  0  0  0  0  0  0  0
   12.3621   11.3740  -13.0183 O   0  0  0  0  0  0  0  0  0  0  0  0
   12.1346   17.3362  -13.7839 C   0  0  2  0  0  0  0  0  0  0  0  0
   12.8680   18.5379  -13.8327 O   0  0  0  0  0  0  0  0  0  0  0  0
   10.6572   14.5509   -9.9924 C   0  0  2  0  0  0  0  0  0  0  0  0
   11.2218   10.6844   -7.5558 C   0  0  2  0  0  0  0  0  0  0  0  0
   10.9907   11.8423   -8.3547 O   0  0  0  0  0  0  0  0  0  0  0  0
   13.5723    9.2229  -13.3552 C   0  0  2  0  0  0  0  0  0  0  0  0
   13.2994    7.8420  -13.5902 O   0  0  0  0  0  0  0  0  0  0  0  0
   10.9825   17.4338  -12.7291 C   0  0  2  0  0  0  0  0  0  0  0  0
   10.2428   16.1724  -12.6904 O   0  0  0  0  0  0  0  0  0  0  0  0
   11.4282   14.6747   -8.6599 C   0  0  2  0  0  0  0  0  0  0  0  0
   12.4794   13.6726   -8.7323 O   0  0  0  0  0  0  0  0  0  0  0  0
   11.2477   11.0456   -6.0382 C   0  0  0  0  0  0  0  0  0  0  0  0
   12.1785   10.2000   -5.3692 O   0  0  0  0  0  0  0  0  0  0  0  0
   14.5865    9.3826  -12.1602 C   0  0  1  0  0  0  0  0  0  0  0  0
   13.9193    8.8102  -10.9780 O   0  0  0  0  0  0  0  0  0  0  0  0
   10.0184   18.5597  -13.0236 C   0  0  0  0  0  0  0  0  0  0  0  0
    9.0148   18.6086  -12.0389 O   0  0  0  0  0  0  0  0  0  0  0  0
   10.4603   14.3868   -7.4368 C   0  0  1  0  0  0  0  0  0  0  0  0
   11.1336   14.6489   -6.2025 O   0  0  0  0  0  0  0  0  0  0  0  0
   15.9873    8.6693  -12.3998 C   0  0  0  0  0  0  0  0  0  0  0  0
   15.9206    7.2231  -12.7470 N   0  0  0  0  0  0  0  0  0  0  0  0
  1  2  1  1  0  0  0
  1  7  1  0  0  0  0
  1 30  1  0  0  0  0
  3  4  1  1  0  0  0
  3  9  1  0  0  0  0
  3 39  1  0  0  0  0
  5 10  1  0  0  0  0
  5 26  1  0  0  0  0
  5 32  1  1  0  0  0
  6 12  1  0  0  0  0
  6 36  1  0  0  0  0
  6 19  1  1  0  0  0
  7  8  1  1  0  0  0
  7 14  1  0  0  0  0
  9 16  1  0  0  0  0
 10 11  1  6  0  0  0
 10 18  1  0  0  0  0
 12 13  1  6  0  0  0
 12 20  1  0  0  0  0
 14 15  1  6  0  0  0
 14 22  1  0  0  0  0
 16 17  1  6  0  0  0
 16 24  1  0  0  0  0
 18 19  1  6  0  0  0
 18 25  1  0  0  0  0
 20 21  1  1  0  0  0
 20 27  1  0  0  0  0
 22 23  1  1  0  0  0
 22 29  1  0  0  0  0
 24  2  1  6  0  0  0
 24 31  1  0  0  0  0
 25 26  1  0  0  0  0
 25 33  1  1  0  0  0
 27 28  1  1  0  0  0
 27 35  1  0  0  0  0
 29 30  1  0  0  0  0
 29 37  1  6  0  0  0
 31 32  1  6  0  0  0
 31 39  1  0  0  0  0
 33 34  1  0  0  0  0
 35 36  1  0  0  0  0
 35 41  1  6  0  0  0
 37 38  1  0  0  0  0
 39 40  1  1  0  0  0
 41 42  1  0  0  0  0
M  END
>  <CHROM.1>
-157.36780096,-161.02540654,-126.34064958,-6.29561547,-56.15458965,-29.81650493
-179.39804665,-52.59928655,-54.37975295,11.87190615,12.92764360,-10.65641062
-2.32084245,-1.04281675,2.36519621

>  <Name>
2o3w_lig

>  <RI>
0

>  <Rbt.Current_Directory>
/home/itssahil/PROJECTS/Mol_Feturizer/New_Systems/rnas/2o3w

>  <Rbt.Executable>
rbdock ($Id: //depot/dev/client3/rdock/2013.1/src/exe/rbdock.cxx#4 $)

>  <Rbt.Library>
libRbt.so (2013.1, Build901 2013/11/27)

>  <Rbt.Parameter_File>
/export/apps/rDock/src/rDock_2013.1_src/data/scripts/dock_solv.prm

>  <Rbt.Receptor>
prm/blind_docking_60.prm

>  <SCORE>
20.2338

>  <SCORE.INTER>
-7.46749

>  <SCORE.INTER.CONST>
1

>  <SCORE.INTER.POLAR>
-1.29971

>  <SCORE.INTER.ROT>
9

>  <SCORE.INTER.SOLV>
30.2614

>  <SCORE.INTER.VDW>
-20.3331

>  <SCORE.INTER.norm>
-0.177797

>  <SCORE.INTRA>
11.1614

>  <SCORE.INTRA.DIHEDRAL>
-6.92524

>  <SCORE.INTRA.DIHEDRAL.0>
27.8999

>  <SCORE.INTRA.POLAR>
0

>  <SCORE.INTRA.POLAR.0>
0

>  <SCORE.INTRA.REPUL>
0

>  <SCORE.INTRA.REPUL.0>
0

>  <SCORE.INTRA.SOLV>
2.71855

>  <SCORE.INTRA.SOLV.lig_0>
-104.479

>  <SCORE.INTRA.VDW>
13.2647

>  <SCORE.INTRA.VDW.0>
-6.17816

>  <SCORE.INTRA.norm>
0.265747

>  <SCORE.RESTR>
16.5399

>  <SCORE.RESTR.CAVITY>
16.5399

>  <SCORE.RESTR.norm>
0.393807

>  <SCORE.SYSTEM>
0

>  <SCORE.SYSTEM.CONST>
0

>  <SCORE.SYSTEM.DIHEDRAL>
0

>  <SCORE.SYSTEM.SOLV>
0

>  <SCORE.SYSTEM.norm>
0

>  <SCORE.heavy>
42

>  <SCORE.norm>
0.481757

>  <RMSD>
19.670

$$$$
2o3w_lig
 OpenBabel11021811463D
libRbt.so/2013.1/901 2013/11/27
 42 45  0  0  0  0  0  0  0  0999 V2000
   13.1288    9.6853   -9.8366 C   0  0  2  0  0  0  0  0  0  0  0  0
   13.6786   11.0107   -9.9270 O   0  0  0  0  0  0  0  0  0  0  0  0
   10.9514   12.9464   -7.1682 C   0  0  2  0  0  0  0  0  0  0  0  0
   10.2335   13.9735   -6.3557 N   0  0  0  0  0  0  0  0  0  0  0  0
   12.2040   14.0604  -11.2706 C   0  0  1  0  0  0  0  0  0  0  0  0
   12.8963   17.6922  -13.7977 C   0  0  1  0  0  0  0  0  0  0  0  0
   14.0096    8.7650  -10.7341 C   0  0  2  0  0  0  0  0  0  0  0  0
   15.4487    8.9196  -10.4591 N   0  0  0  0  0  0  0  0  0  0  0  0
   12.4722   12.8409   -6.7462 C   0  0  0  0  0  0  0  0  0  0  0  0
   11.9463   14.4721  -12.7521 C   0  0  2  0  0  0  0  0  0  0  0  0
   13.0369   14.1528  -13.6508 O   0  0  0  0  0  0  0  0  0  0  0  0
   12.0663   17.2499  -15.0563 C   0  0  2  0  0  0  0  0  0  0  0  0
   12.4759   15.8883  -15.5139 N   0  0  0  0  0  0  0  0  0  0  0  0
   13.8106    9.0484  -12.2344 C   0  0  1  0  0  0  0  0  0  0  0  0
   14.6055    8.1573  -13.0186 O   0  0  0  0  0  0  0  0  0  0  0  0
   13.1682   11.7297   -7.6198 C   0  0  2  0  0  0  0  0  0  0  0  0
   14.5999   11.5931   -7.2385 N   0  0  0  0  0  0  0  0  0  0  0  0
   11.6309   15.9606  -12.5961 C   0  0  2  0  0  0  0  0  0  0  0  0
   12.8393   16.7797  -12.6942 O   0  0  0  0  0  0  0  0  0  0  0  0
   12.2583   18.3310  -16.2230 C   0  0  1  0  0  0  0  0  0  0  0  0
   11.5134   19.5221  -15.8834 O   0  0  0  0  0  0  0  0  0  0  0  0
   12.3108    8.9263  -12.5877 C   0  0  2  0  0  0  0  0  0  0  0  0
   12.1138    9.1665  -13.9617 O   0  0  0  0  0  0  0  0  0  0  0  0
   13.0599   12.0802   -9.1564 C   0  0  2  0  0  0  0  0  0  0  0  0
   10.9659   16.1114  -11.2175 C   0  0  2  0  0  0  0  0  0  0  0  0
   11.5726   15.0723  -10.4530 O   0  0  0  0  0  0  0  0  0  0  0  0
   13.7948   18.7123  -16.4710 C   0  0  2  0  0  0  0  0  0  0  0  0
   14.4347   17.5723  -17.0433 O   0  0  0  0  0  0  0  0  0  0  0  0
   11.4982    9.9490  -11.7254 C   0  0  2  0  0  0  0  0  0  0  0  0
   11.7265    9.6853  -10.3048 O   0  0  0  0  0  0  0  0  0  0  0  0
   11.6001   12.2547   -9.6294 C   0  0  2  0  0  0  0  0  0  0  0  0
   11.6971   12.7483  -10.9938 O   0  0  0  0  0  0  0  0  0  0  0  0
    9.4118   15.9737  -11.2179 C   0  0  0  0  0  0  0  0  0  0  0  0
    8.8890   16.5397  -10.0199 O   0  0  0  0  0  0  0  0  0  0  0  0
   14.4950   19.1077  -15.1162 C   0  0  1  0  0  0  0  0  0  0  0  0
   14.3279   17.9529  -14.2169 O   0  0  0  0  0  0  0  0  0  0  0  0
   10.0137    9.8933  -12.0029 C   0  0  0  0  0  0  0  0  0  0  0  0
    9.4820    8.6708  -11.5536 O   0  0  0  0  0  0  0  0  0  0  0  0
   10.8451   13.2999   -8.7058 C   0  0  1  0  0  0  0  0  0  0  0  0
    9.4571   13.3482   -9.0477 O   0  0  0  0  0  0  0  0  0  0  0  0
   16.0362   19.4697  -15.2652 C   0  0  0  0  0  0  0  0  0  0  0  0
   16.8864   18.4159  -15.8844 N   0  0  0  0  0  0  0  0  0  0  0  0
  1  2  1  6  0  0  0
  1  7  1  0  0  0  0
  1 30  1  0  0  0  0
  3  4  1  1  0  0  0
  3  9  1  0  0  0  0
  3 39  1  0  0  0  0
  5 10  1  0  0  0  0
  5 26  1  0  0  0  0
  5 32  1  1  0  0  0
  6 12  1  0  0  0  0
  6 36  1  0  0  0  0
  6 19  1  1  0  0  0
  7  8  1  1  0  0  0
  7 14  1  0  0  0  0
  9 16  1  0  0  0  0
 10 11  1  6  0  0  0
 10 18  1  0  0  0  0
 12 13  1  6  0  0  0
 12 20  1  0  0  0  0
 14 15  1  6  0  0  0
 14 22  1  0  0  0  0
 16 17  1  1  0  0  0
 16 24  1  0  0  0  0
 18 19  1  1  0  0  0
 18 25  1  0  0  0  0
 20 21  1  1  0  0  0
 20 27  1  0  0  0  0
 22 23  1  6  0  0  0
 22 29  1  0  0  0  0
 24  2  1  6  0  0  0
 24 31  1  0  0  0  0
 25 26  1  0  0  0  0
 25 33  1  6  0  0  0
 27 28  1  1  0  0  0
 27 35  1  0  0  0  0
 29 30  1  0  0  0  0
 29 37  1  1  0  0  0
 31 32  1  6  0  0  0
 31 39  1  0  0  0  0
 33 34  1  0  0  0  0
 35 36  1  0  0  0  0
 35 41  1  6  0  0  0
 37 38  1  0  0  0  0
 39 40  1  6  0  0  0
 41 42  1  0  0  0  0
M  END
>  <CHROM.1>
-178.75592941,-168.47268041,-27.48042933,116.37444204,61.58839186,-161.63710897
67.73815371,-68.20187089,-56.30200349,12.44960609,13.74984887,-11.86672048
-1.83084632,1.03897493,-0.36772681

>  <Name>
2o3w_lig

>  <RI>
0

>  <Rbt.Current_Directory>
/home/itssahil/PROJECTS/Mol_Feturizer/New_Systems/rnas/2o3w

>  <Rbt.Executable>
rbdock ($Id: //depot/dev/client3/rdock/2013.1/src/exe/rbdock.cxx#4 $)

>  <Rbt.Library>
libRbt.so (2013.1, Build901 2013/11/27)

>  <Rbt.Parameter_File>
/export/apps/rDock/src/rDock_2013.1_src/data/scripts/dock_solv.prm

>  <Rbt.Receptor>
prm/blind_docking_80.prm

>  <SCORE>
2.60015

>  <SCORE.INTER>
-1.31466

>  <SCORE.INTER.CONST>
1

>  <SCORE.INTER.POLAR>
0

>  <SCORE.INTER.ROT>
9

>  <SCORE.INTER.SOLV>
29.9939

>  <SCORE.INTER.VDW>
-20.4744

>  <SCORE.INTER.norm>
-0.0313013

>  <SCORE.INTRA>
-2.82737

>  <SCORE.INTRA.DIHEDRAL>
-14.2786

>  <SCORE.INTRA.DIHEDRAL.0>
27.8999

>  <SCORE.INTRA.POLAR>
0

>  <SCORE.INTRA.POLAR.0>
0

>  <SCORE.INTRA.REPUL>
0

>  <SCORE.INTRA.REPUL.0>
0

>  <SCORE.INTRA.SOLV>
-0.480488

>  <SCORE.INTRA.SOLV.lig_0>
-104.479

>  <SCORE.INTRA.VDW>
4.55218

>  <SCORE.INTRA.VDW.0>
-6.17816

>  <SCORE.INTRA.norm>
-0.0673183

>  <SCORE.RESTR>
6.74218

>  <SCORE.RESTR.CAVITY>
6.74218

>  <SCORE.RESTR.norm>
0.160528

>  <SCORE.SYSTEM>
0

>  <SCORE.SYSTEM.CONST>
0

>  <SCORE.SYSTEM.DIHEDRAL>
0

>  <SCORE.SYSTEM.SOLV>
0

>  <SCORE.SYSTEM.norm>
0

>  <SCORE.heavy>
42

>  <SCORE.norm>
0.0619084

>  <RMSD>
19.677

$$$$
2o3w_lig
 OpenBabel11021811463D
libRbt.so/2013.1/901 2013/11/27
 42 45  0  0  0  0  0  0  0  0999 V2000
   11.2605   15.4296  -10.0594 C   0  0  2  0  0  0  0  0  0  0  0  0
   10.5514   14.2882   -9.5477 O   0  0  0  0  0  0  0  0  0  0  0  0
   13.3130   13.2191   -6.3812 C   0  0  2  0  0  0  0  0  0  0  0  0
   13.9286   12.5808   -5.1795 N   0  0  0  0  0  0  0  0  0  0  0  0
   12.4426   10.5454   -9.9796 C   0  0  1  0  0  0  0  0  0  0  0  0
   14.3715    7.4977  -12.6861 C   0  0  1  0  0  0  0  0  0  0  0  0
   10.1887   16.4469  -10.5540 C   0  0  2  0  0  0  0  0  0  0  0  0
    9.1422   16.6973   -9.5477 N   0  0  0  0  0  0  0  0  0  0  0  0
   12.0394   14.0713   -5.9893 C   0  0  0  0  0  0  0  0  0  0  0  0
   11.9117    9.9478  -11.3182 C   0  0  2  0  0  0  0  0  0  0  0  0
   10.9532    8.8752  -11.1455 O   0  0  0  0  0  0  0  0  0  0  0  0
   15.8545    7.1735  -12.2810 C   0  0  2  0  0  0  0  0  0  0  0  0
   16.5819    8.4153  -11.8811 N   0  0  0  0  0  0  0  0  0  0  0  0
    9.4729   15.9673  -11.8302 C   0  0  1  0  0  0  0  0  0  0  0  0
    8.5296   16.9463  -12.2691 O   0  0  0  0  0  0  0  0  0  0  0  0
   11.4497   14.7355   -7.2907 C   0  0  2  0  0  0  0  0  0  0  0  0
   10.2561   15.5584   -6.9563 N   0  0  0  0  0  0  0  0  0  0  0  0
   13.2197    9.5620  -12.0107 C   0  0  2  0  0  0  0  0  0  0  0  0
   13.6173    8.1921  -11.6847 O   0  0  0  0  0  0  0  0  0  0  0  0
   16.5894    6.4446  -13.5040 C   0  0  1  0  0  0  0  0  0  0  0  0
   16.0947    5.0905  -13.6062 O   0  0  0  0  0  0  0  0  0  0  0  0
   10.5203   15.6619  -12.9251 C   0  0  2  0  0  0  0  0  0  0  0  0
    9.8798   15.2375  -14.1058 O   0  0  0  0  0  0  0  0  0  0  0  0
   11.0528   13.6314   -8.3487 C   0  0  2  0  0  0  0  0  0  0  0  0
   14.2703   10.5767  -11.5292 C   0  0  2  0  0  0  0  0  0  0  0  0
   13.8245   10.9011  -10.2144 O   0  0  0  0  0  0  0  0  0  0  0  0
   16.3729    7.2011  -14.8998 C   0  0  2  0  0  0  0  0  0  0  0  0
   17.0929    8.4317  -14.8392 O   0  0  0  0  0  0  0  0  0  0  0  0
   11.5005   14.5601  -12.4009 C   0  0  2  0  0  0  0  0  0  0  0  0
   12.1451   15.0200  -11.1709 O   0  0  0  0  0  0  0  0  0  0  0  0
   12.2384   12.7215   -8.7380 C   0  0  2  0  0  0  0  0  0  0  0  0
   11.6594   11.6698   -9.5586 O   0  0  0  0  0  0  0  0  0  0  0  0
   14.3999   11.8580  -12.4099 C   0  0  0  0  0  0  0  0  0  0  0  0
   15.3177   11.6091  -13.4704 O   0  0  0  0  0  0  0  0  0  0  0  0
   14.8422    7.4769  -15.1510 C   0  0  1  0  0  0  0  0  0  0  0  0
   14.3723    8.2596  -13.9948 O   0  0  0  0  0  0  0  0  0  0  0  0
   12.5670   14.2028  -13.4102 C   0  0  0  0  0  0  0  0  0  0  0  0
   13.1283   15.3713  -13.9568 O   0  0  0  0  0  0  0  0  0  0  0  0
   12.9133   12.1129   -7.4380 C   0  0  1  0  0  0  0  0  0  0  0  0
   14.0995   11.3946   -7.7881 O   0  0  0  0  0  0  0  0  0  0  0  0
   14.5380    8.2568  -16.5029 C   0  0  0  0  0  0  0  0  0  0  0  0
   14.8929    7.5341  -17.7552 N   0  0  0  0  0  0  0  0  0  0  0  0
  1  2  1  6  0  0  0
  1  7  1  0  0  0  0
  1 30  1  0  0  0  0
  3  4  1  1  0  0  0
  3  9  1  0  0  0  0
  3 39  1  0  0  0  0
  5 10  1  0  0  0  0
  5 26  1  0  0  0  0
  5 32  1  6  0  0  0
  6 12  1  0  0  0  0
  6 36  1  0  0  0  0
  6 19  1  1  0  0  0
  7  8  1  1  0  0  0
  7 14  1  0  0  0  0
  9 16  1  0  0  0  0
 10 11  1  1  0  0  0
 10 18  1  0  0  0  0
 12 13  1  6  0  0  0
 12 20  1  0  0  0  0
 14 15  1  6  0  0  0
 14 22  1  0  0  0  0
 16 17  1  1  0  0  0
 16 24  1  0  0  0  0
 18 19  1  1  0  0  0
 18 25  1  0  0  0  0
 20 21  1  6  0  0  0
 20 27  1  0  0  0  0
 22 23  1  6  0  0  0
 22 29  1  0  0  0  0
 24  2  1  6  0  0  0
 24 31  1  0  0  0  0
 25 26  1  0  0  0  0
 25 33  1  6  0  0  0
 27 28  1  1  0  0  0
 27 35  1  0  0  0  0
 29 30  1  0  0  0  0
 29 37  1  6  0  0  0
 31 32  1  6  0  0  0
 31 39  1  0  0  0  0
 33 34  1  0  0  0  0
 35 36  1  0  0  0  0
 35 41  1  6  0  0  0
 37 38  1  0  0  0  0
 39 40  1  6  0  0  0
 41 42  1  0  0  0  0
M  END
>  <CHROM.1>
-141.06701313,-152.67321642,113.35374483,150.50885360,44.12396789,-86.81542864
46.39559146,-172.73974149,64.23369557,12.94189416,11.69334923,-11.37961146
2.62479742,-1.01151673,1.53206714

>  <Name>
2o3w_lig

>  <RI>
0

>  <Rbt.Current_Directory>
/home/itssahil/PROJECTS/Mol_Feturizer/New_Systems/rnas/2o3w

>  <Rbt.Executable>
rbdock ($Id: //depot/dev/client3/rdock/2013.1/src/exe/rbdock.cxx#4 $)

>  <Rbt.Library>
libRbt.so (2013.1, Build901 2013/11/27)

>  <Rbt.Parameter_File>
/export/apps/rDock/src/rDock_2013.1_src/data/scripts/dock_solv.prm

>  <Rbt.Receptor>
prm/blind_docking_80.prm

>  <SCORE>
22.9975

>  <SCORE.INTER>
7.62239

>  <SCORE.INTER.CONST>
1

>  <SCORE.INTER.POLAR>
0

>  <SCORE.INTER.ROT>
9

>  <SCORE.INTER.SOLV>
28.3807

>  <SCORE.INTER.VDW>
-13.9786

>  <SCORE.INTER.norm>
0.181486

>  <SCORE.INTRA>
0.725881

>  <SCORE.INTRA.DIHEDRAL>
-4.74974

>  <SCORE.INTRA.DIHEDRAL.0>
27.8999

>  <SCORE.INTRA.POLAR>
0

>  <SCORE.INTRA.POLAR.0>
0

>  <SCORE.INTRA.REPUL>
0

>  <SCORE.INTRA.REPUL.0>
0

>  <SCORE.INTRA.SOLV>
0.0459951

>  <SCORE.INTRA.SOLV.lig_0>
-104.479

>  <SCORE.INTRA.VDW>
3.07775

>  <SCORE.INTRA.VDW.0>
-6.17816

>  <SCORE.INTRA.norm>
0.0172829

>  <SCORE.RESTR>
14.6492

>  <SCORE.RESTR.CAVITY>
14.6492

>  <SCORE.RESTR.norm>
0.348791

>  <SCORE.SYSTEM>
0

>  <SCORE.SYSTEM.CONST>
0

>  <SCORE.SYSTEM.DIHEDRAL>
0

>  <SCORE.SYSTEM.SOLV>
0

>  <SCORE.SYSTEM.norm>
0

>  <SCORE.heavy>
42

>  <SCORE.norm>
0.547559

>  <RMSD>
19.703

$$$$
2o3w_lig
 OpenBabel11021811463D
libRbt.so/2013.1/901 2013/11/27
 42 45  0  0  0  0  0  0  0  0999 V2000
   12.5218    9.6751   -9.8707 C   0  0  2  0  0  0  0  0  0  0  0  0
   13.2371   10.9082  -10.0583 O   0  0  0  0  0  0  0  0  0  0  0  0
   11.1217   13.2485   -7.0844 C   0  0  2  0  0  0  0  0  0  0  0  0
   10.6595   14.3738   -6.2181 N   0  0  0  0  0  0  0  0  0  0  0  0
   12.0881   14.2317  -11.2695 C   0  0  1  0  0  0  0  0  0  0  0  0
   12.9585   17.7521  -13.8805 C   0  0  1  0  0  0  0  0  0  0  0  0
   13.2555    8.5905  -10.7154 C   0  0  2  0  0  0  0  0  0  0  0  0
   14.7082    8.5727  -10.4708 N   0  0  0  0  0  0  0  0  0  0  0  0
   12.6333   12.8844   -6.7943 C   0  0  0  0  0  0  0  0  0  0  0  0
   11.7912   14.6580  -12.7395 C   0  0  2  0  0  0  0  0  0  0  0  0
   12.8074   14.2500  -13.6881 O   0  0  0  0  0  0  0  0  0  0  0  0
   12.1262   17.2827  -15.1278 C   0  0  2  0  0  0  0  0  0  0  0  0
   12.5000   15.8925  -15.5260 N   0  0  0  0  0  0  0  0  0  0  0  0
   13.0618    8.7986  -12.2287 C   0  0  1  0  0  0  0  0  0  0  0  0
   13.7165    7.7614  -12.9612 O   0  0  0  0  0  0  0  0  0  0  0  0
   13.0547   11.6803   -7.7192 C   0  0  2  0  0  0  0  0  0  0  0  0
   14.4701   11.3010   -7.4619 N   0  0  0  0  0  0  0  0  0  0  0  0
   11.6030   16.1673  -12.5787 C   0  0  2  0  0  0  0  0  0  0  0  0
   12.8662   16.8873  -12.7415 O   0  0  0  0  0  0  0  0  0  0  0  0
   12.3589   18.3095  -16.3355 C   0  0  1  0  0  0  0  0  0  0  0  0
   11.6460   19.5343  -16.0513 O   0  0  0  0  0  0  0  0  0  0  0  0
   11.5513    8.8512  -12.5527 C   0  0  2  0  0  0  0  0  0  0  0  0
   11.3568    9.0246  -13.9371 O   0  0  0  0  0  0  0  0  0  0  0  0
   12.8758   12.0590   -9.2425 C   0  0  2  0  0  0  0  0  0  0  0  0
   11.0207   16.3749  -11.1704 C   0  0  2  0  0  0  0  0  0  0  0  0
   11.5800   15.2932  -10.4291 O   0  0  0  0  0  0  0  0  0  0  0  0
   13.9077   18.6363  -16.5845 C   0  0  2  0  0  0  0  0  0  0  0  0
   14.5189   17.4562  -17.1042 O   0  0  0  0  0  0  0  0  0  0  0  0
   10.8979   10.0259  -11.7510 C   0  0  2  0  0  0  0  0  0  0  0  0
   11.1214    9.8284  -10.3190 O   0  0  0  0  0  0  0  0  0  0  0  0
   11.4313   12.4815   -9.5890 C   0  0  2  0  0  0  0  0  0  0  0  0
   11.4929   12.9650  -10.9590 O   0  0  0  0  0  0  0  0  0  0  0  0
    9.4625   16.3613  -11.0940 C   0  0  0  0  0  0  0  0  0  0  0  0
    8.9555   15.3862  -12.0000 O   0  0  0  0  0  0  0  0  0  0  0  0
   14.6081   19.0665  -15.2404 C   0  0  1  0  0  0  0  0  0  0  0  0
   14.4004   17.9545  -14.2966 O   0  0  0  0  0  0  0  0  0  0  0  0
    9.4129   10.1474  -12.0041 C   0  0  0  0  0  0  0  0  0  0  0  0
    8.7683    8.9346  -11.6994 O   0  0  0  0  0  0  0  0  0  0  0  0
   10.9452   13.6299   -8.6088 C   0  0  1  0  0  0  0  0  0  0  0  0
    9.5611   13.9145   -8.8303 O   0  0  0  0  0  0  0  0  0  0  0  0
   16.1603   19.3779  -15.3898 C   0  0  0  0  0  0  0  0  0  0  0  0
   16.5456   20.8082  -15.2404 N   0  0  0  0  0  0  0  0  0  0  0  0
  1  2  1  6  0  0  0
  1  7  1  0  0  0  0
  1 30  1  0  0  0  0
  3  4  1  1  0  0  0
  3  9  1  0  0  0  0
  3 39  1  0  0  0  0
  5 10  1  0  0  0  0
  5 26  1  0  0  0  0
  5 32  1  1  0  0  0
  6 12  1  0  0  0  0
  6 36  1  0  0  0  0
  6 19  1  1  0  0  0
  7  8  1  6  0  0  0
  7 14  1  0  0  0  0
  9 16  1  0  0  0  0
 10 11  1  6  0  0  0
 10 18  1  0  0  0  0
 12 13  1  6  0  0  0
 12 20  1  0  0  0  0
 14 15  1  6  0  0  0
 14 22  1  0  0  0  0
 16 17  1  6  0  0  0
 16 24  1  0  0  0  0
 18 19  1  1  0  0  0
 18 25  1  0  0  0  0
 20 21  1  1  0  0  0
 20 27  1  0  0  0  0
 22 23  1  6  0  0  0
 22 29  1  0  0  0  0
 24  2  1  6  0  0  0
 24 31  1  0  0  0  0
 25 26  1  0  0  0  0
 25 33  1  6  0  0  0
 27 28  1  1  0  0  0
 27 35  1  0  0  0  0
 29 30  1  0  0  0  0
 29 37  1  1  0  0  0
 31 32  1  6  0  0  0
 31 39  1  0  0  0  0
 33 34  1  0  0  0  0
 35 36  1  0  0  0  0
 35 41  1  6  0  0  0
 37 38  1  0  0  0  0
 39 40  1  1  0  0  0
 41 42  1  0  0  0  0
M  END
>  <CHROM.1>
-171.92590226,-168.83133526,-30.95398616,114.18192842,58.75506048,37.44688797
56.56810129,-73.60155988,110.40480931,12.26054115,13.83162204,-11.92564152
-2.17817213,1.25624464,0.02419238

>  <Name>
2o3w_lig

>  <RI>
0

>  <Rbt.Current_Directory>
/home/itssahil/PROJECTS/Mol_Feturizer/New_Systems/rnas/2o3w

>  <Rbt.Executable>
rbdock ($Id: //depot/dev/client3/rdock/2013.1/src/exe/rbdock.cxx#4 $)

>  <Rbt.Library>
libRbt.so (2013.1, Build901 2013/11/27)

>  <Rbt.Parameter_File>
/export/apps/rDock/src/rDock_2013.1_src/data/scripts/dock_solv.prm

>  <Rbt.Receptor>
prm/blind_docking_80.prm

>  <SCORE>
3.61163

>  <SCORE.INTER>
-4.14279

>  <SCORE.INTER.CONST>
1

>  <SCORE.INTER.POLAR>
-0.19201

>  <SCORE.INTER.ROT>
9

>  <SCORE.INTER.SOLV>
31.4495

>  <SCORE.INTER.VDW>
-22.205

>  <SCORE.INTER.norm>
-0.0986379

>  <SCORE.INTRA>
-0.294105

>  <SCORE.INTRA.DIHEDRAL>
-8.94222

>  <SCORE.INTRA.DIHEDRAL.0>
27.8999

>  <SCORE.INTRA.POLAR>
0

>  <SCORE.INTRA.POLAR.0>
0

>  <SCORE.INTRA.REPUL>
0

>  <SCORE.INTRA.REPUL.0>
0

>  <SCORE.INTRA.SOLV>
-1.54589

>  <SCORE.INTRA.SOLV.lig_0>
-104.479

>  <SCORE.INTRA.VDW>
4.94995

>  <SCORE.INTRA.VDW.0>
-6.17816

>  <SCORE.INTRA.norm>
-0.0070025

>  <SCORE.RESTR>
8.04852

>  <SCORE.RESTR.CAVITY>
8.04852

>  <SCORE.RESTR.norm>
0.191632

>  <SCORE.SYSTEM>
0

>  <SCORE.SYSTEM.CONST>
0

>  <SCORE.SYSTEM.DIHEDRAL>
0

>  <SCORE.SYSTEM.SOLV>
0

>  <SCORE.SYSTEM.norm>
0

>  <SCORE.heavy>
42

>  <SCORE.norm>
0.0859911

>  <RMSD>
19.707

$$$$
2o3w_lig
 OpenBabel11021811463D
libRbt.so/2013.1/901 2013/11/27
 42 45  0  0  0  0  0  0  0  0999 V2000
   13.4091   11.1408   -8.1706 C   0  0  2  0  0  0  0  0  0  0  0  0
   13.1537   11.6923   -9.4737 O   0  0  0  0  0  0  0  0  0  0  0  0
   12.0155    9.6161  -13.1055 C   0  0  2  0  0  0  0  0  0  0  0  0
   11.2377    8.8676  -14.1375 N   0  0  0  0  0  0  0  0  0  0  0  0
   11.6646   14.2687  -11.2706 C   0  0  1  0  0  0  0  0  0  0  0  0
   12.6600   17.7851  -13.5826 C   0  0  1  0  0  0  0  0  0  0  0  0
   12.0236   10.8352   -7.5263 C   0  0  2  0  0  0  0  0  0  0  0  0
   11.1415   10.0684   -8.4232 N   0  0  0  0  0  0  0  0  0  0  0  0
   12.2098    8.7522  -11.7948 C   0  0  0  0  0  0  0  0  0  0  0  0
   11.5197   14.8086  -12.7260 C   0  0  2  0  0  0  0  0  0  0  0  0
   12.7081   14.6413  -13.5377 O   0  0  0  0  0  0  0  0  0  0  0  0
   11.5781   17.7806  -14.7220 C   0  0  2  0  0  0  0  0  0  0  0  0
   11.1225   16.3896  -15.0194 N   0  0  0  0  0  0  0  0  0  0  0  0
   11.2620   12.1173   -7.1428 C   0  0  1  0  0  0  0  0  0  0  0  0
   10.0182   11.7898   -6.5210 O   0  0  0  0  0  0  0  0  0  0  0  0
   13.0537    9.5837  -10.7560 C   0  0  2  0  0  0  0  0  0  0  0  0
   13.2685    8.7939   -9.5136 N   0  0  0  0  0  0  0  0  0  0  0  0
   11.0939   16.2543  -12.4655 C   0  0  2  0  0  0  0  0  0  0  0  0
   12.2497   17.1462  -12.3672 O   0  0  0  0  0  0  0  0  0  0  0  0
   12.1847   18.4795  -16.0298 C   0  0  1  0  0  0  0  0  0  0  0  0
   12.2549   19.9058  -15.8073 O   0  0  0  0  0  0  0  0  0  0  0  0
   12.1451   12.9841   -6.2165 C   0  0  2  0  0  0  0  0  0  0  0  0
   11.4555   14.1542   -5.8427 O   0  0  0  0  0  0  0  0  0  0  0  0
   12.3231   10.9392  -10.4028 C   0  0  2  0  0  0  0  0  0  0  0  0
   10.2946   16.2312  -11.1517 C   0  0  2  0  0  0  0  0  0  0  0  0
   10.8944   15.1581  -10.4298 O   0  0  0  0  0  0  0  0  0  0  0  0
   13.6380   17.9248  -16.4142 C   0  0  2  0  0  0  0  0  0  0  0  0
   13.4802   16.5809  -16.8677 O   0  0  0  0  0  0  0  0  0  0  0  0
   13.4734   13.3398   -6.9638 C   0  0  2  0  0  0  0  0  0  0  0  0
   14.1654   12.1101   -7.3495 O   0  0  0  0  0  0  0  0  0  0  0  0
   12.0484   11.8130  -11.6463 C   0  0  2  0  0  0  0  0  0  0  0  0
   11.2215   12.9092  -11.1676 O   0  0  0  0  0  0  0  0  0  0  0  0
    8.7598   16.0065  -11.3190 C   0  0  0  0  0  0  0  0  0  0  0  0
    8.1812   17.1520  -11.9370 O   0  0  0  0  0  0  0  0  0  0  0  0
   14.5982   17.9699  -15.1660 C   0  0  1  0  0  0  0  0  0  0  0  0
   13.9399   17.1753  -14.1145 O   0  0  0  0  0  0  0  0  0  0  0  0
   14.4042   14.1847   -6.1250 C   0  0  0  0  0  0  0  0  0  0  0  0
   14.8436   13.4557   -5.0048 O   0  0  0  0  0  0  0  0  0  0  0  0
   11.2818   10.9711  -12.7504 C   0  0  1  0  0  0  0  0  0  0  0  0
   11.1619   11.7315  -13.9558 O   0  0  0  0  0  0  0  0  0  0  0  0
   16.0569   17.4042  -15.4502 C   0  0  0  0  0  0  0  0  0  0  0  0
   16.9993   18.3560  -16.1003 N   0  0  0  0  0  0  0  0  0  0  0  0
  1  2  1  6  0  0  0
  1  7  1  0  0  0  0
  1 30  1  0  0  0  0
  3  4  1  6  0  0  0
  3  9  1  0  0  0  0
  3 39  1  0  0  0  0
  5 10  1  0  0  0  0
  5 26  1  0  0  0  0
  5 32  1  6  0  0  0
  6 12  1  0  0  0  0
  6 36  1  0  0  0  0
  6 19  1  1  0  0  0
  7  8  1  6  0  0  0
  7 14  1  0  0  0  0
  9 16  1  0  0  0  0
 10 11  1  1  0  0  0
 10 18  1  0  0  0  0
 12 13  1  6  0  0  0
 12 20  1  0  0  0  0
 14 15  1  1  0  0  0
 14 22  1  0  0  0  0
 16 17  1  1  0  0  0
 16 24  1  0  0  0  0
 18 19  1  1  0  0  0
 18 25  1  0  0  0  0
 20 21  1  1  0  0  0
 20 27  1  0  0  0  0
 22 23  1  6  0  0  0
 22 29  1  0  0  0  0
 24  2  1  1  0  0  0
 24 31  1  0  0  0  0
 25 26  1  0  0  0  0
 25 33  1  6  0  0  0
 27 28  1  1  0  0  0
 27 35  1  0  0  0  0
 29 30  1  0  0  0  0
 29 37  1  1  0  0  0
 31 32  1  1  0  0  0
 31 39  1  0  0  0  0
 33 34  1  0  0  0  0
 35 36  1  0  0  0  0
 35 41  1  6  0  0  0
 37 38  1  0  0  0  0
 39 40  1  6  0  0  0
 41 42  1  0  0  0  0
M  END
>  <CHROM.1>
-54.63627524,76.77282047,17.53204077,92.40612465,-63.98128099,-68.69355964
65.04619672,119.25054118,81.79786427,12.30817400,14.06369273,-11.41900675
-2.41202933,-1.48005461,-1.69598749

>  <Name>
2o3w_lig

>  <RI>
0

>  <Rbt.Current_Directory>
/home/itssahil/PROJECTS/Mol_Feturizer/New_Systems/rnas/2o3w

>  <Rbt.Executable>
rbdock ($Id: //depot/dev/client3/rdock/2013.1/src/exe/rbdock.cxx#4 $)

>  <Rbt.Library>
libRbt.so (2013.1, Build901 2013/11/27)

>  <Rbt.Parameter_File>
/export/apps/rDock/src/rDock_2013.1_src/data/scripts/dock_solv.prm

>  <Rbt.Receptor>
prm/blind_docking_80.prm

>  <SCORE>
5.41588

>  <SCORE.INTER>
-6.4713

>  <SCORE.INTER.CONST>
1

>  <SCORE.INTER.POLAR>
0

>  <SCORE.INTER.ROT>
9

>  <SCORE.INTER.SOLV>
28.9339

>  <SCORE.INTER.VDW>
-23.5588

>  <SCORE.INTER.norm>
-0.154079

>  <SCORE.INTRA>
6.55868

>  <SCORE.INTRA.DIHEDRAL>
-7.38916

>  <SCORE.INTRA.DIHEDRAL.0>
27.8999

>  <SCORE.INTRA.POLAR>
0

>  <SCORE.INTRA.POLAR.0>
0

>  <SCORE.INTRA.REPUL>
0

>  <SCORE.INTRA.REPUL.0>
0

>  <SCORE.INTRA.SOLV>
4.36966

>  <SCORE.INTRA.SOLV.lig_0>
-104.479

>  <SCORE.INTRA.VDW>
8.06843

>  <SCORE.INTRA.VDW.0>
-6.17816

>  <SCORE.INTRA.norm>
0.156159

>  <SCORE.RESTR>
5.3285

>  <SCORE.RESTR.CAVITY>
5.3285

>  <SCORE.RESTR.norm>
0.126869

>  <SCORE.SYSTEM>
0

>  <SCORE.SYSTEM.CONST>
0

>  <SCORE.SYSTEM.DIHEDRAL>
0

>  <SCORE.SYSTEM.SOLV>
0

>  <SCORE.SYSTEM.norm>
0

>  <SCORE.heavy>
42

>  <SCORE.norm>
0.12895

>  <RMSD>
19.729

$$$$
2o3w_lig
 OpenBabel11021811463D
libRbt.so/2013.1/901 2013/11/27
 42 45  0  0  0  0  0  0  0  0999 V2000
   11.7007   11.3917  -11.6062 C   0  0  2  0  0  0  0  0  0  0  0  0
   11.4382   11.3065  -10.1952 O   0  0  0  0  0  0  0  0  0  0  0  0
   12.4659   13.3233   -6.4975 C   0  0  2  0  0  0  0  0  0  0  0  0
   13.0476   14.2762   -5.5055 N   0  0  0  0  0  0  0  0  0  0  0  0
   11.2374   14.9174  -10.4532 C   0  0  1  0  0  0  0  0  0  0  0  0
   12.6752   17.6567  -13.7471 C   0  0  1  0  0  0  0  0  0  0  0  0
   11.2739   10.0297  -12.2315 C   0  0  2  0  0  0  0  0  0  0  0  0
    9.9199    9.6200  -11.8198 N   0  0  0  0  0  0  0  0  0  0  0  0
   13.5958   12.4787   -7.2130 C   0  0  0  0  0  0  0  0  0  0  0  0
   11.1360   14.7679  -12.0018 C   0  0  2  0  0  0  0  0  0  0  0  0
   12.1627   13.9255  -12.5809 O   0  0  0  0  0  0  0  0  0  0  0  0
   11.9756   17.2584  -15.0965 C   0  0  2  0  0  0  0  0  0  0  0  0
   12.4380   15.9163  -15.5612 N   0  0  0  0  0  0  0  0  0  0  0  0
   12.2240    8.8833  -11.8392 C   0  0  1  0  0  0  0  0  0  0  0  0
   11.8185    7.6649  -12.4652 O   0  0  0  0  0  0  0  0  0  0  0  0
   12.9211   11.4797   -8.2274 C   0  0  2  0  0  0  0  0  0  0  0  0
   13.9564   10.6571   -8.9095 N   0  0  0  0  0  0  0  0  0  0  0  0
   11.1538   16.2321  -12.4434 C   0  0  2  0  0  0  0  0  0  0  0  0
   12.5170   16.7036  -12.6887 O   0  0  0  0  0  0  0  0  0  0  0  0
   12.2732   18.3829  -16.1983 C   0  0  1  0  0  0  0  0  0  0  0  0
   11.4899   19.5578  -15.8900 O   0  0  0  0  0  0  0  0  0  0  0  0
   13.6730    9.2602  -12.2234 C   0  0  2  0  0  0  0  0  0  0  0  0
   14.5534    8.2136  -11.8859 O   0  0  0  0  0  0  0  0  0  0  0  0
   12.0749   12.2667   -9.3047 C   0  0  2  0  0  0  0  0  0  0  0  0
   10.4854   17.0259  -11.3083 C   0  0  2  0  0  0  0  0  0  0  0  0
   10.8153   16.2664  -10.1478 O   0  0  0  0  0  0  0  0  0  0  0  0
   13.8237   18.7787  -16.2801 C   0  0  2  0  0  0  0  0  0  0  0  0
   14.5249   17.6632  -16.8282 O   0  0  0  0  0  0  0  0  0  0  0  0
   14.0714   10.5792  -11.4809 C   0  0  2  0  0  0  0  0  0  0  0  0
   13.1381   11.6468  -11.8398 O   0  0  0  0  0  0  0  0  0  0  0  0
   10.9845   13.1601   -8.6737 C   0  0  2  0  0  0  0  0  0  0  0  0
   10.4409   13.9360   -9.7769 O   0  0  0  0  0  0  0  0  0  0  0  0
    8.9408   17.1977  -11.4462 C   0  0  0  0  0  0  0  0  0  0  0  0
    8.3231   15.9143  -11.4488 O   0  0  0  0  0  0  0  0  0  0  0  0
   14.3849   19.1260  -14.8495 C   0  0  1  0  0  0  0  0  0  0  0  0
   14.1390   17.9380  -14.0139 O   0  0  0  0  0  0  0  0  0  0  0  0
   15.4779   11.0269  -11.8052 C   0  0  0  0  0  0  0  0  0  0  0  0
   15.5417   11.5065  -13.1262 O   0  0  0  0  0  0  0  0  0  0  0  0
   11.6218   14.1124   -7.5770 C   0  0  1  0  0  0  0  0  0  0  0  0
   10.5935   14.8294   -6.8885 O   0  0  0  0  0  0  0  0  0  0  0  0
   15.9307   19.4990  -14.8332 C   0  0  0  0  0  0  0  0  0  0  0  0
   16.8209   18.5807  -15.5953 N   0  0  0  0  0  0  0  0  0  0  0  0
  1  2  1  1  0  0  0
  1  7  1  0  0  0  0
  1 30  1  0  0  0  0
  3  4  1  1  0  0  0
  3  9  1  0  0  0  0
  3 39  1  0  0  0  0
  5 10  1  0  0  0  0
  5 26  1  0  0  0  0
  5 32  1  1  0  0  0
  6 12  1  0  0  0  0
  6 36  1  0  0  0  0
  6 19  1  1  0  0  0
  7  8  1  1  0  0  0
  7 14  1  0  0  0  0
  9 16  1  0  0  0  0
 10 11  1  6  0  0  0
 10 18  1  0  0  0  0
 12 13  1  6  0  0  0
 12 20  1  0  0  0  0
 14 15  1  6  0  0  0
 14 22  1  0  0  0  0
 16 17  1  6  0  0  0
 16 24  1  0  0  0  0
 18 19  1  1  0  0  0
 18 25  1  0  0  0  0
 20 21  1  1  0  0  0
 20 27  1  0  0  0  0
 22 23  1  1  0  0  0
 22 29  1  0  0  0  0
 24  2  1  6  0  0  0
 24 31  1  0  0  0  0
 25 26  1  0  0  0  0
 25 33  1  6  0  0  0
 27 28  1  1  0  0  0
 27 35  1  0  0  0  0
 29 30  1  0  0  0  0
 29 37  1  6  0  0  0
 31 32  1  6  0  0  0
 31 39  1  0  0  0  0
 33 34  1  0  0  0  0
 35 36  1  0  0  0  0
 35 41  1  6  0  0  0
 37 38  1  0  0  0  0
 39 40  1  1  0  0  0
 41 42  1  0  0  0  0
M  END
>  <CHROM.1>
162.82567616,132.40498405,-48.91863650,145.65077746,-122.48878492,60.81678612
71.19983364,-66.90364155,-46.85458330,12.46869603,14.16245895,-11.79309713
-1.75381815,1.05978923,-0.44237127

>  <Name>
2o3w_lig

>  <RI>
0

>  <Rbt.Current_Directory>
/home/itssahil/PROJECTS/Mol_Feturizer/New_Systems/rnas/2o3w

>  <Rbt.Executable>
rbdock ($Id: //depot/dev/client3/rdock/2013.1/src/exe/rbdock.cxx#4 $)

>  <Rbt.Library>
libRbt.so (2013.1, Build901 2013/11/27)

>  <Rbt.Parameter_File>
/export/apps/rDock/src/rDock_2013.1_src/data/scripts/dock_solv.prm

>  <Rbt.Receptor>
prm/blind_docking_80.prm

>  <SCORE>
0.142943

>  <SCORE.INTER>
-5.5515

>  <SCORE.INTER.CONST>
1

>  <SCORE.INTER.POLAR>
0

>  <SCORE.INTER.ROT>
9

>  <SCORE.INTER.SOLV>
29.3533

>  <SCORE.INTER.VDW>
-23.0854

>  <SCORE.INTER.norm>
-0.132179

>  <SCORE.INTRA>
2.13065

>  <SCORE.INTRA.DIHEDRAL>
-6.56627

>  <SCORE.INTRA.DIHEDRAL.0>
27.8999

>  <SCORE.INTRA.POLAR>
0

>  <SCORE.INTRA.POLAR.0>
0

>  <SCORE.INTRA.REPUL>
0.236477

>  <SCORE.INTRA.REPUL.0>
0

>  <SCORE.INTRA.SOLV>
2.41775

>  <SCORE.INTRA.SOLV.lig_0>
-104.479

>  <SCORE.INTRA.VDW>
3.02252

>  <SCORE.INTRA.VDW.0>
-6.17816

>  <SCORE.INTRA.norm>
0.0507298

>  <SCORE.RESTR>
3.56379

>  <SCORE.RESTR.CAVITY>
3.56379

>  <SCORE.RESTR.norm>
0.0848522

>  <SCORE.SYSTEM>
0

>  <SCORE.SYSTEM.CONST>
0

>  <SCORE.SYSTEM.DIHEDRAL>
0

>  <SCORE.SYSTEM.SOLV>
0

>  <SCORE.SYSTEM.norm>
0

>  <SCORE.heavy>
42

>  <SCORE.norm>
0.0034034

>  <RMSD>
19.791

$$$$
2o3w_lig
 OpenBabel11021811463D
libRbt.so/2013.1/901 2013/11/27
 42 45  0  0  0  0  0  0  0  0999 V2000
   12.4219   11.3625   -7.7750 C   0  0  2  0  0  0  0  0  0  0  0  0
   13.0242   11.5541   -9.0664 O   0  0  0  0  0  0  0  0  0  0  0  0
   12.4466   10.2470  -13.1596 C   0  0  2  0  0  0  0  0  0  0  0  0
   11.8285    9.7544  -14.4267 N   0  0  0  0  0  0  0  0  0  0  0  0
   11.7869   14.5767  -11.0085 C   0  0  1  0  0  0  0  0  0  0  0  0
   12.6797   18.0099  -13.5790 C   0  0  1  0  0  0  0  0  0  0  0  0
   11.8182   12.7337   -7.3465 C   0  0  2  0  0  0  0  0  0  0  0  0
   10.9815   13.3351   -8.3995 N   0  0  0  0  0  0  0  0  0  0  0  0
   12.3710    9.1522  -12.0206 C   0  0  0  0  0  0  0  0  0  0  0  0
   11.8332   14.9238  -12.5278 C   0  0  2  0  0  0  0  0  0  0  0  0
   13.1512   14.8095  -13.1185 O   0  0  0  0  0  0  0  0  0  0  0  0
   11.5618   18.1636  -14.6724 C   0  0  2  0  0  0  0  0  0  0  0  0
   10.9599   16.8389  -15.0099 N   0  0  0  0  0  0  0  0  0  0  0  0
   12.9050   13.7672   -6.9975 C   0  0  1  0  0  0  0  0  0  0  0  0
   12.3074   14.9934   -6.5731 O   0  0  0  0  0  0  0  0  0  0  0  0
   13.0566    9.7201  -10.7205 C   0  0  2  0  0  0  0  0  0  0  0  0
   13.0163    8.7085   -9.6303 N   0  0  0  0  0  0  0  0  0  0  0  0
   11.2258   16.3275  -12.5304 C   0  0  2  0  0  0  0  0  0  0  0  0
   12.2526   17.3584  -12.3762 O   0  0  0  0  0  0  0  0  0  0  0  0
   12.1865   18.8600  -15.9731 C   0  0  1  0  0  0  0  0  0  0  0  0
   12.4059   20.2608  -15.6931 O   0  0  0  0  0  0  0  0  0  0  0  0
   13.8375   13.1875   -5.9096 C   0  0  2  0  0  0  0  0  0  0  0  0
   14.8284   14.1283   -5.5668 O   0  0  0  0  0  0  0  0  0  0  0  0
   12.3361   11.0426  -10.2434 C   0  0  2  0  0  0  0  0  0  0  0  0
   10.2248   16.3591  -11.3631 C   0  0  2  0  0  0  0  0  0  0  0  0
   10.8011   15.4570  -10.4215 O   0  0  0  0  0  0  0  0  0  0  0  0
   13.5627   18.1847  -16.4398 C   0  0  2  0  0  0  0  0  0  0  0  0
   13.2560   16.8851  -16.9432 O   0  0  0  0  0  0  0  0  0  0  0  0
   14.4885   11.8687   -6.4449 C   0  0  2  0  0  0  0  0  0  0  0  0
   13.4406   10.9128   -6.8025 O   0  0  0  0  0  0  0  0  0  0  0  0
   12.3213   12.1414  -11.3286 C   0  0  2  0  0  0  0  0  0  0  0  0
   11.4726   13.1945  -10.7944 O   0  0  0  0  0  0  0  0  0  0  0  0
    8.7702   15.9320  -11.7318 C   0  0  0  0  0  0  0  0  0  0  0  0
    7.8527   16.5869  -10.8610 O   0  0  0  0  0  0  0  0  0  0  0  0
   14.5675   18.0781  -15.2310 C   0  0  1  0  0  0  0  0  0  0  0  0
   13.8726   17.3036  -14.1883 O   0  0  0  0  0  0  0  0  0  0  0  0
   15.4154   11.2275   -5.4381 C   0  0  0  0  0  0  0  0  0  0  0  0
   14.9539    9.9410   -5.1047 O   0  0  0  0  0  0  0  0  0  0  0  0
   11.7227   11.5690  -12.6813 C   0  0  1  0  0  0  0  0  0  0  0  0
   11.8485   12.5380  -13.7256 O   0  0  0  0  0  0  0  0  0  0  0  0
   15.9516   17.3869  -15.5985 C   0  0  0  0  0  0  0  0  0  0  0  0
   17.0063   18.2988  -16.1206 N   0  0  0  0  0  0  0  0  0  0  0  0
  1  2  1  6  0  0  0
  1  7  1  0  0  0  0
  1 30  1  0  0  0  0
  3  4  1  6  0  0  0
  3  9  1  0  0  0  0
  3 39  1  0  0  0  0
  5 10  1  0  0  0  0
  5 26  1  0  0  0  0
  5 32  1  6  0  0  0
  6 12  1  0  0  0  0
  6 36  1  0  0  0  0
  6 19  1  1  0  0  0
  7  8  1  6  0  0  0
  7 14  1  0  0  0  0
  9 16  1  0  0  0  0
 10 11  1  1  0  0  0
 10 18  1  0  0  0  0
 12 13  1  6  0  0  0
 12 20  1  0  0  0  0
 14 15  1  1  0  0  0
 14 22  1  0  0  0  0
 16 17  1  1  0  0  0
 16 24  1  0  0  0  0
 18 19  1  1  0  0  0
 18 25  1  0  0  0  0
 20 21  1  1  0  0  0
 20 27  1  0  0  0  0
 22 23  1  6  0  0  0
 22 29  1  0  0  0  0
 24  2  1  1  0  0  0
 24 31  1  0  0  0  0
 25 26  1  0  0  0  0
 25 33  1  6  0  0  0
 27 28  1  1  0  0  0
 27 35  1  0  0  0  0
 29 30  1  0  0  0  0
 29 37  1  1  0  0  0
 31 32  1  1  0  0  0
 31 39  1  0  0  0  0
 33 34  1  0  0  0  0
 35 36  1  0  0  0  0
 35 41  1  6  0  0  0
 37 38  1  0  0  0  0
 39 40  1  6  0  0  0
 41 42  1  0  0  0  0
M  END
>  <CHROM.1>
-104.34790414,59.62132774,32.59881246,99.52841777,-103.62463254,-151.67116588
119.02769156,142.21267784,87.60818219,12.59045586,14.25149518,-11.29682951
-0.22124459,-1.52575298,0.47068815

>  <Name>
2o3w_lig

>  <RI>
0

>  <Rbt.Current_Directory>
/home/itssahil/PROJECTS/Mol_Feturizer/New_Systems/rnas/2o3w

>  <Rbt.Executable>
rbdock ($Id: //depot/dev/client3/rdock/2013.1/src/exe/rbdock.cxx#4 $)

>  <Rbt.Library>
libRbt.so (2013.1, Build901 2013/11/27)

>  <Rbt.Parameter_File>
/export/apps/rDock/src/rDock_2013.1_src/data/scripts/dock_solv.prm

>  <Rbt.Receptor>
prm/blind_docking_80.prm

>  <SCORE>
-2.79526

>  <SCORE.INTER>
-20.6376

>  <SCORE.INTER.CONST>
1

>  <SCORE.INTER.POLAR>
-1.94182

>  <SCORE.INTER.ROT>
9

>  <SCORE.INTER.SOLV>
26.7769

>  <SCORE.INTER.VDW>
-25.8113

>  <SCORE.INTER.norm>
-0.491372

>  <SCORE.INTRA>
11.7194

>  <SCORE.INTRA.DIHEDRAL>
7.52977

>  <SCORE.INTRA.DIHEDRAL.0>
27.8999

>  <SCORE.INTRA.POLAR>
0

>  <SCORE.INTRA.POLAR.0>
0

>  <SCORE.INTRA.REPUL>
0.369981

>  <SCORE.INTRA.REPUL.0>
0

>  <SCORE.INTRA.SOLV>
2.04146

>  <SCORE.INTRA.SOLV.lig_0>
-104.479

>  <SCORE.INTRA.VDW>
5.0839

>  <SCORE.INTRA.VDW.0>
-6.17816

>  <SCORE.INTRA.norm>
0.279034

>  <SCORE.RESTR>
6.12294

>  <SCORE.RESTR.CAVITY>
6.12294

>  <SCORE.RESTR.norm>
0.145784

>  <SCORE.SYSTEM>
0

>  <SCORE.SYSTEM.CONST>
0

>  <SCORE.SYSTEM.DIHEDRAL>
0

>  <SCORE.SYSTEM.SOLV>
0

>  <SCORE.SYSTEM.norm>
0

>  <SCORE.heavy>
42

>  <SCORE.norm>
-0.0665537

>  <RMSD>
19.793

$$$$
2o3w_lig
 OpenBabel11021811463D
libRbt.so/2013.1/901 2013/11/27
 42 45  0  0  0  0  0  0  0  0999 V2000
   11.9877   11.4404   -7.8765 C   0  0  2  0  0  0  0  0  0  0  0  0
   12.4906   12.0021   -9.1008 O   0  0  0  0  0  0  0  0  0  0  0  0
   13.5762   10.0372  -12.8098 C   0  0  2  0  0  0  0  0  0  0  0  0
   13.5102    9.2969  -14.1052 N   0  0  0  0  0  0  0  0  0  0  0  0
   12.0037   14.5814  -11.6170 C   0  0  1  0  0  0  0  0  0  0  0  0
   13.2598   17.6241  -13.7760 C   0  0  1  0  0  0  0  0  0  0  0  0
   11.3129   12.6017   -7.0865 C   0  0  2  0  0  0  0  0  0  0  0  0
   10.3687   13.3725   -7.9140 N   0  0  0  0  0  0  0  0  0  0  0  0
   13.1118    9.1257  -11.6034 C   0  0  0  0  0  0  0  0  0  0  0  0
   11.8200   15.1425  -13.0600 C   0  0  2  0  0  0  0  0  0  0  0  0
   13.0167   15.0782  -13.8741 O   0  0  0  0  0  0  0  0  0  0  0  0
   13.8243   19.0680  -14.0316 C   0  0  2  0  0  0  0  0  0  0  0  0
   12.7144   20.0582  -14.1679 N   0  0  0  0  0  0  0  0  0  0  0  0
   12.3405   13.6056   -6.5321 C   0  0  1  0  0  0  0  0  0  0  0  0
   11.6822   14.6287   -5.7832 O   0  0  0  0  0  0  0  0  0  0  0  0
   13.2245    9.9520  -10.2666 C   0  0  2  0  0  0  0  0  0  0  0  0
   12.8083    9.1186   -9.1066 N   0  0  0  0  0  0  0  0  0  0  0  0
   11.2929   16.5481  -12.7673 C   0  0  2  0  0  0  0  0  0  0  0  0
   12.3825   17.5172  -12.6479 O   0  0  0  0  0  0  0  0  0  0  0  0
   14.7448   19.0512  -15.3428 C   0  0  1  0  0  0  0  0  0  0  0  0
   15.9900   18.3869  -15.0310 O   0  0  0  0  0  0  0  0  0  0  0  0
   13.3806   12.8553   -5.6693 C   0  0  2  0  0  0  0  0  0  0  0  0
   14.3192   13.7630   -5.1405 O   0  0  0  0  0  0  0  0  0  0  0  0
   12.3262   11.2497  -10.3366 C   0  0  2  0  0  0  0  0  0  0  0  0
   10.4981   16.4387  -11.4552 C   0  0  2  0  0  0  0  0  0  0  0  0
   11.1729   15.3948  -10.7572 O   0  0  0  0  0  0  0  0  0  0  0  0
   14.0443   18.3212  -16.5853 C   0  0  2  0  0  0  0  0  0  0  0  0
   12.9639   19.1473  -17.0174 O   0  0  0  0  0  0  0  0  0  0  0  0
   14.0918   11.7755   -6.5512 C   0  0  2  0  0  0  0  0  0  0  0  0
   13.0967   10.8519   -7.0958 O   0  0  0  0  0  0  0  0  0  0  0  0
   12.6863   12.1638  -11.5282 C   0  0  2  0  0  0  0  0  0  0  0  0
   11.6581   13.1920  -11.5452 O   0  0  0  0  0  0  0  0  0  0  0  0
    8.9829   16.1095  -11.6290 C   0  0  0  0  0  0  0  0  0  0  0  0
    8.2694   17.3107  -11.9064 O   0  0  0  0  0  0  0  0  0  0  0  0
   13.5098   16.8998  -16.1656 C   0  0  1  0  0  0  0  0  0  0  0  0
   12.5885   17.1255  -15.0384 O   0  0  0  0  0  0  0  0  0  0  0  0
   15.1258   10.9858   -5.7824 C   0  0  0  0  0  0  0  0  0  0  0  0
   16.2310   11.8013   -5.4779 O   0  0  0  0  0  0  0  0  0  0  0  0
   12.6742   11.3341  -12.8799 C   0  0  1  0  0  0  0  0  0  0  0  0
   13.1535   12.1416  -13.9588 O   0  0  0  0  0  0  0  0  0  0  0  0
   12.7677   16.1162  -17.3335 C   0  0  0  0  0  0  0  0  0  0  0  0
   11.6174   15.2711  -16.9101 N   0  0  0  0  0  0  0  0  0  0  0  0
  1  2  1  6  0  0  0
  1  7  1  0  0  0  0
  1 30  1  0  0  0  0
  3  4  1  6  0  0  0
  3  9  1  0  0  0  0
  3 39  1  0  0  0  0
  5 10  1  0  0  0  0
  5 26  1  0  0  0  0
  5 32  1  6  0  0  0
  6 12  1  0  0  0  0
  6 36  1  0  0  0  0
  6 19  1  1  0  0  0
  7  8  1  6  0  0  0
  7 14  1  0  0  0  0
  9 16  1  0  0  0  0
 10 11  1  1  0  0  0
 10 18  1  0  0  0  0
 12 13  1  6  0  0  0
 12 20  1  0  0  0  0
 14 15  1  1  0  0  0
 14 22  1  0  0  0  0
 16 17  1  1  0  0  0
 16 24  1  0  0  0  0
 18 19  1  1  0  0  0
 18 25  1  0  0  0  0
 20 21  1  1  0  0  0
 20 27  1  0  0  0  0
 22 23  1  6  0  0  0
 22 29  1  0  0  0  0
 24  2  1  1  0  0  0
 24 31  1  0  0  0  0
 25 26  1  0  0  0  0
 25 33  1  6  0  0  0
 27 28  1  1  0  0  0
 27 35  1  0  0  0  0
 29 30  1  0  0  0  0
 29 37  1  1  0  0  0
 31 32  1  6  0  0  0
 31 39  1  0  0  0  0
 33 34  1  0  0  0  0
 35 36  1  0  0  0  0
 35 41  1  6  0  0  0
 37 38  1  0  0  0  0
 39 40  1  6  0  0  0
 41 42  1  0  0  0  0
M  END
>  <CHROM.1>
-138.30212029,101.54533207,146.35333704,56.94239665,-67.68689999,-82.84581830
-69.91264432,130.15255034,-144.92068637,12.68361249,14.27911208,-11.39391424
1.36891012,-1.41777649,2.02240683

>  <Name>
2o3w_lig

>  <RI>
0

>  <Rbt.Current_Directory>
/home/itssahil/PROJECTS/Mol_Feturizer/New_Systems/rnas/2o3w

>  <Rbt.Executable>
rbdock ($Id: //depot/dev/client3/rdock/2013.1/src/exe/rbdock.cxx#4 $)

>  <Rbt.Library>
libRbt.so (2013.1, Build901 2013/11/27)

>  <Rbt.Parameter_File>
/export/apps/rDock/src/rDock_2013.1_src/data/scripts/dock_solv.prm

>  <Rbt.Receptor>
prm/blind_docking_80.prm

>  <SCORE>
5.07721

>  <SCORE.INTER>
-9.42285

>  <SCORE.INTER.CONST>
1

>  <SCORE.INTER.POLAR>
-0.400104

>  <SCORE.INTER.ROT>
9

>  <SCORE.INTER.SOLV>
21.4309

>  <SCORE.INTER.VDW>
-21.6918

>  <SCORE.INTER.norm>
-0.224354

>  <SCORE.INTRA>
6.71238

>  <SCORE.INTRA.DIHEDRAL>
0.158455

>  <SCORE.INTRA.DIHEDRAL.0>
27.8999

>  <SCORE.INTRA.POLAR>
0

>  <SCORE.INTRA.POLAR.0>
0

>  <SCORE.INTRA.REPUL>
0.223178

>  <SCORE.INTRA.REPUL.0>
0

>  <SCORE.INTRA.SOLV>
0.404992

>  <SCORE.INTRA.SOLV.lig_0>
-104.479

>  <SCORE.INTRA.VDW>
5.31477

>  <SCORE.INTRA.VDW.0>
-6.17816

>  <SCORE.INTRA.norm>
0.159819

>  <SCORE.RESTR>
7.78769

>  <SCORE.RESTR.CAVITY>
7.78769

>  <SCORE.RESTR.norm>
0.185421

>  <SCORE.SYSTEM>
0

>  <SCORE.SYSTEM.CONST>
0

>  <SCORE.SYSTEM.DIHEDRAL>
0

>  <SCORE.SYSTEM.SOLV>
0

>  <SCORE.SYSTEM.norm>
0

>  <SCORE.heavy>
42

>  <SCORE.norm>
0.120886

>  <RMSD>
19.808

$$$$
2o3w_lig
 OpenBabel11021811463D
libRbt.so/2013.1/901 2013/11/27
 42 45  0  0  0  0  0  0  0  0999 V2000
   11.5485   11.4543  -11.5775 C   0  0  2  0  0  0  0  0  0  0  0  0
   11.4362   11.3680  -10.1467 O   0  0  0  0  0  0  0  0  0  0  0  0
   12.7476   13.4634   -6.5850 C   0  0  2  0  0  0  0  0  0  0  0  0
   13.4168   14.4275   -5.6613 N   0  0  0  0  0  0  0  0  0  0  0  0
   11.2455   15.1375  -10.3518 C   0  0  1  0  0  0  0  0  0  0  0  0
   12.8190   17.5706  -13.7665 C   0  0  1  0  0  0  0  0  0  0  0  0
   11.0318   10.1032  -12.1568 C   0  0  2  0  0  0  0  0  0  0  0  0
    9.7218    9.7170  -11.6041 N   0  0  0  0  0  0  0  0  0  0  0  0
   13.8062   12.5624   -7.3395 C   0  0  0  0  0  0  0  0  0  0  0  0
   11.3174   14.9945  -11.9026 C   0  0  2  0  0  0  0  0  0  0  0  0
   12.5100   14.3232  -12.3779 O   0  0  0  0  0  0  0  0  0  0  0  0
   12.7276   16.4685  -14.8828 C   0  0  2  0  0  0  0  0  0  0  0  0
   13.5413   15.2705  -14.5174 N   0  0  0  0  0  0  0  0  0  0  0  0
   11.9964    8.9376  -11.8705 C   0  0  1  0  0  0  0  0  0  0  0  0
   11.5034    7.7297  -12.4525 O   0  0  0  0  0  0  0  0  0  0  0  0
   13.0414   11.5545   -8.2786 C   0  0  2  0  0  0  0  0  0  0  0  0
   14.0081   10.6793   -8.9948 N   0  0  0  0  0  0  0  0  0  0  0  0
   11.1569   16.4505  -12.3429 C   0  0  2  0  0  0  0  0  0  0  0  0
   12.4509   17.1242  -12.4555 O   0  0  0  0  0  0  0  0  0  0  0  0
   13.2110   17.0886  -16.2787 C   0  0  1  0  0  0  0  0  0  0  0  0
   12.1866   17.9799  -16.7737 O   0  0  0  0  0  0  0  0  0  0  0  0
   13.4031    9.2890  -12.4061 C   0  0  2  0  0  0  0  0  0  0  0  0
   14.2944    8.2248  -12.1666 O   0  0  0  0  0  0  0  0  0  0  0  0
   12.1544   12.3344   -9.3278 C   0  0  2  0  0  0  0  0  0  0  0  0
   10.2706   17.1203  -11.2794 C   0  0  2  0  0  0  0  0  0  0  0  0
   10.5978   16.4039  -10.0911 O   0  0  0  0  0  0  0  0  0  0  0  0
   14.5989   17.8806  -16.1602 C   0  0  2  0  0  0  0  0  0  0  0  0
   15.6244   16.9187  -15.9159 O   0  0  0  0  0  0  0  0  0  0  0  0
   13.9033   10.5972  -11.7073 C   0  0  2  0  0  0  0  0  0  0  0  0
   12.9575   11.6836  -11.9623 O   0  0  0  0  0  0  0  0  0  0  0  0
   11.1315   13.2805   -8.6615 C   0  0  2  0  0  0  0  0  0  0  0  0
   10.5444   14.0390   -9.7544 O   0  0  0  0  0  0  0  0  0  0  0  0
    8.7383   17.0603  -11.5670 C   0  0  0  0  0  0  0  0  0  0  0  0
    8.3950   18.0780  -12.5026 O   0  0  0  0  0  0  0  0  0  0  0  0
   14.5426   18.9281  -14.9848 C   0  0  1  0  0  0  0  0  0  0  0  0
   14.2127   18.1627  -13.7700 O   0  0  0  0  0  0  0  0  0  0  0  0
   15.2755   11.0199  -12.1785 C   0  0  0  0  0  0  0  0  0  0  0  0
   15.6973   12.1648  -11.4781 O   0  0  0  0  0  0  0  0  0  0  0  0
   11.8626   14.2453   -7.6366 C   0  0  1  0  0  0  0  0  0  0  0  0
   10.9000   15.0150   -6.9109 O   0  0  0  0  0  0  0  0  0  0  0  0
   15.8946   19.7381  -14.7738 C   0  0  0  0  0  0  0  0  0  0  0  0
   15.8175   20.8794  -13.8209 N   0  0  0  0  0  0  0  0  0  0  0  0
  1  2  1  1  0  0  0
  1  7  1  0  0  0  0
  1 30  1  0  0  0  0
  3  4  1  1  0  0  0
  3  9  1  0  0  0  0
  3 39  1  0  0  0  0
  5 10  1  0  0  0  0
  5 26  1  0  0  0  0
  5 32  1  1  0  0  0
  6 12  1  0  0  0  0
  6 36  1  0  0  0  0
  6 19  1  1  0  0  0
  7  8  1  1  0  0  0
  7 14  1  0  0  0  0
  9 16  1  0  0  0  0
 10 11  1  1  0  0  0
 10 18  1  0  0  0  0
 12 13  1  1  0  0  0
 12 20  1  0  0  0  0
 14 15  1  6  0  0  0
 14 22  1  0  0  0  0
 16 17  1  6  0  0  0
 16 24  1  0  0  0  0
 18 19  1  1  0  0  0
 18 25  1  0  0  0  0
 20 21  1  1  0  0  0
 20 27  1  0  0  0  0
 22 23  1  1  0  0  0
 22 29  1  0  0  0  0
 24  2  1  1  0  0  0
 24 31  1  0  0  0  0
 25 26  1  0  0  0  0
 25 33  1  6  0  0  0
 27 28  1  1  0  0  0
 27 35  1  0  0  0  0
 29 30  1  0  0  0  0
 29 37  1  6  0  0  0
 31 32  1  6  0  0  0
 31 39  1  0  0  0  0
 33 34  1  0  0  0  0
 35 36  1  0  0  0  0
 35 41  1  1  0  0  0
 37 38  1  0  0  0  0
 39 40  1  1  0  0  0
 41 42  1  0  0  0  0
M  END
>  <CHROM.1>
164.42508350,128.12189704,-51.90246687,116.37192227,-126.31639658,-80.34976412
-177.49357918,-78.15957896,170.81234560,12.57506976,14.23135483,-11.71610997
-1.84276774,1.12703689,-0.29738394

>  <Name>
2o3w_lig

>  <RI>
0

>  <Rbt.Current_Directory>
/home/itssahil/PROJECTS/Mol_Feturizer/New_Systems/rnas/2o3w

>  <Rbt.Executable>
rbdock ($Id: //depot/dev/client3/rdock/2013.1/src/exe/rbdock.cxx#4 $)

>  <Rbt.Library>
libRbt.so (2013.1, Build901 2013/11/27)

>  <Rbt.Parameter_File>
/export/apps/rDock/src/rDock_2013.1_src/data/scripts/dock_solv.prm

>  <Rbt.Receptor>
prm/blind_docking_80.prm

>  <SCORE>
5.84199

>  <SCORE.INTER>
-0.74988

>  <SCORE.INTER.CONST>
1

>  <SCORE.INTER.POLAR>
-0.183594

>  <SCORE.INTER.ROT>
9

>  <SCORE.INTER.SOLV>
33.4851

>  <SCORE.INTER.VDW>
-20.6496

>  <SCORE.INTER.norm>
-0.0178543

>  <SCORE.INTRA>
1.37322

>  <SCORE.INTRA.DIHEDRAL>
-2.18653

>  <SCORE.INTRA.DIHEDRAL.0>
27.8999

>  <SCORE.INTRA.POLAR>
0

>  <SCORE.INTRA.POLAR.0>
0

>  <SCORE.INTRA.REPUL>
0.0823415

>  <SCORE.INTRA.REPUL.0>
0

>  <SCORE.INTRA.SOLV>
0.6506

>  <SCORE.INTRA.SOLV.lig_0>
-104.479

>  <SCORE.INTRA.VDW>
1.72948

>  <SCORE.INTRA.VDW.0>
-6.17816

>  <SCORE.INTRA.norm>
0.0326958

>  <SCORE.RESTR>
5.21865

>  <SCORE.RESTR.CAVITY>
5.21865

>  <SCORE.RESTR.norm>
0.124254

>  <SCORE.SYSTEM>
0

>  <SCORE.SYSTEM.CONST>
0

>  <SCORE.SYSTEM.DIHEDRAL>
0

>  <SCORE.SYSTEM.SOLV>
0

>  <SCORE.SYSTEM.norm>
0

>  <SCORE.heavy>
42

>  <SCORE.norm>
0.139095

>  <RMSD>
19.810

$$$$
2o3w_lig
 OpenBabel11021811463D
libRbt.so/2013.1/901 2013/11/27
 42 45  0  0  0  0  0  0  0  0999 V2000
   12.3340   11.4498   -7.7519 C   0  0  2  0  0  0  0  0  0  0  0  0
   12.9142   12.0009   -8.9465 O   0  0  0  0  0  0  0  0  0  0  0  0
   12.8816   10.5133  -13.0186 C   0  0  2  0  0  0  0  0  0  0  0  0
   12.4372   10.0943  -14.3815 N   0  0  0  0  0  0  0  0  0  0  0  0
   12.0574   14.7636  -12.0967 C   0  0  1  0  0  0  0  0  0  0  0  0
   11.8507   17.0058  -14.4495 C   0  0  1  0  0  0  0  0  0  0  0  0
   11.4742   12.5754   -7.1025 C   0  0  2  0  0  0  0  0  0  0  0  0
   10.5595   13.2129   -8.0656 N   0  0  0  0  0  0  0  0  0  0  0  0
   12.2328    9.6042  -11.8986 C   0  0  0  0  0  0  0  0  0  0  0  0
   10.6296   14.5393  -12.6815 C   0  0  2  0  0  0  0  0  0  0  0  0
   10.5933   13.6456  -13.8213 O   0  0  0  0  0  0  0  0  0  0  0  0
   11.8773   18.5626  -14.2383 C   0  0  2  0  0  0  0  0  0  0  0  0
   10.9087   19.2413  -15.1504 N   0  0  0  0  0  0  0  0  0  0  0  0
   12.3394   13.6980   -6.5008 C   0  0  1  0  0  0  0  0  0  0  0  0
   11.5130   14.6860   -5.8828 O   0  0  0  0  0  0  0  0  0  0  0  0
   12.7551   10.0791  -10.4900 C   0  0  2  0  0  0  0  0  0  0  0  0
   12.1749    9.2345   -9.4113 N   0  0  0  0  0  0  0  0  0  0  0  0
   10.1910   15.9789  -12.9546 C   0  0  2  0  0  0  0  0  0  0  0  0
   10.5572   16.4060  -14.3052 O   0  0  0  0  0  0  0  0  0  0  0  0
   13.3669   19.1029  -14.4756 C   0  0  1  0  0  0  0  0  0  0  0  0
   14.1877   18.7202  -13.3493 O   0  0  0  0  0  0  0  0  0  0  0  0
   13.3433   13.0918   -5.4938 C   0  0  2  0  0  0  0  0  0  0  0  0
   14.1320   14.1091   -4.9214 O   0  0  0  0  0  0  0  0  0  0  0  0
   12.3794   11.5928  -10.2380 C   0  0  2  0  0  0  0  0  0  0  0  0
   10.8856   16.8436  -11.8892 C   0  0  2  0  0  0  0  0  0  0  0  0
   12.0979   16.1355  -11.6414 O   0  0  0  0  0  0  0  0  0  0  0  0
   14.0215   18.5481  -15.8289 C   0  0  2  0  0  0  0  0  0  0  0  0
   13.3312   19.1536  -16.9213 O   0  0  0  0  0  0  0  0  0  0  0  0
   14.2418   12.0465   -6.2352 C   0  0  2  0  0  0  0  0  0  0  0  0
   13.4003   11.0073   -6.8283 O   0  0  0  0  0  0  0  0  0  0  0  0
   12.9337   12.5368  -11.3275 C   0  0  2  0  0  0  0  0  0  0  0  0
   12.3455   13.8358  -11.0426 O   0  0  0  0  0  0  0  0  0  0  0  0
   10.0735   17.0440  -10.5721 C   0  0  0  0  0  0  0  0  0  0  0  0
    8.8320   17.6726  -10.8761 O   0  0  0  0  0  0  0  0  0  0  0  0
   13.8944   16.9797  -15.9056 C   0  0  1  0  0  0  0  0  0  0  0  0
   12.4559   16.6800  -15.7987 O   0  0  0  0  0  0  0  0  0  0  0  0
   15.2533   11.3962   -5.3199 C   0  0  0  0  0  0  0  0  0  0  0  0
   14.8322   10.0988   -4.9757 O   0  0  0  0  0  0  0  0  0  0  0  0
   12.5022   12.0276  -12.7663 C   0  0  1  0  0  0  0  0  0  0  0  0
   13.1391   12.8118  -13.7787 O   0  0  0  0  0  0  0  0  0  0  0  0
   14.4904   16.3459  -17.2367 C   0  0  0  0  0  0  0  0  0  0  0  0
   14.4912   14.8583  -17.2953 N   0  0  0  0  0  0  0  0  0  0  0  0
  1  2  1  6  0  0  0
  1  7  1  0  0  0  0
  1 30  1  0  0  0  0
  3  4  1  6  0  0  0
  3  9  1  0  0  0  0
  3 39  1  0  0  0  0
  5 10  1  0  0  0  0
  5 26  1  0  0  0  0
  5 32  1  1  0  0  0
  6 12  1  0  0  0  0
  6 36  1  0  0  0  0
  6 19  1  6  0  0  0
  7  8  1  6  0  0  0
  7 14  1  0  0  0  0
  9 16  1  0  0  0  0
 10 11  1  6  0  0  0
 10 18  1  0  0  0  0
 12 13  1  6  0  0  0
 12 20  1  0  0  0  0
 14 15  1  1  0  0  0
 14 22  1  0  0  0  0
 16 17  1  1  0  0  0
 16 24  1  0  0  0  0
 18 19  1  6  0  0  0
 18 25  1  0  0  0  0
 20 21  1  1  0  0  0
 20 27  1  0  0  0  0
 22 23  1  6  0  0  0
 22 29  1  0  0  0  0
 24  2  1  1  0  0  0
 24 31  1  0  0  0  0
 25 26  1  0  0  0  0
 25 33  1  1  0  0  0
 27 28  1  6  0  0  0
 27 35  1  0  0  0  0
 29 30  1  0  0  0  0
 29 37  1  1  0  0  0
 31 32  1  1  0  0  0
 31 39  1  0  0  0  0
 33 34  1  0  0  0  0
 35 36  1  0  0  0  0
 35 41  1  6  0  0  0
 37 38  1  0  0  0  0
 39 40  1  6  0  0  0
 41 42  1  0  0  0  0
M  END
>  <CHROM.1>
-105.84820404,88.51843248,-88.99376896,-89.37830624,-69.23970820,-59.63142751
103.04697083,-148.74150801,175.11249400,12.45143185,14.30637430,-11.35825293
-1.23832987,1.38707222,-1.29967179

>  <Name>
2o3w_lig

>  <RI>
0

>  <Rbt.Current_Directory>
/home/itssahil/PROJECTS/Mol_Feturizer/New_Systems/rnas/2o3w

>  <Rbt.Executable>
rbdock ($Id: //depot/dev/client3/rdock/2013.1/src/exe/rbdock.cxx#4 $)

>  <Rbt.Library>
libRbt.so (2013.1, Build901 2013/11/27)

>  <Rbt.Parameter_File>
/export/apps/rDock/src/rDock_2013.1_src/data/scripts/dock_solv.prm

>  <Rbt.Receptor>
prm/blind_docking_80.prm

>  <SCORE>
-7.2846

>  <SCORE.INTER>
-18.6582

>  <SCORE.INTER.CONST>
1

>  <SCORE.INTER.POLAR>
-1.99184

>  <SCORE.INTER.ROT>
9

>  <SCORE.INTER.SOLV>
21.4022

>  <SCORE.INTER.VDW>
-22.5334

>  <SCORE.INTER.norm>
-0.444243

>  <SCORE.INTRA>
3.33302

>  <SCORE.INTRA.DIHEDRAL>
-2.71746

>  <SCORE.INTRA.DIHEDRAL.0>
27.8999

>  <SCORE.INTRA.POLAR>
0

>  <SCORE.INTRA.POLAR.0>
0

>  <SCORE.INTRA.REPUL>
0

>  <SCORE.INTRA.REPUL.0>
0

>  <SCORE.INTRA.SOLV>
-1.73073

>  <SCORE.INTRA.SOLV.lig_0>
-104.479

>  <SCORE.INTRA.VDW>
5.55711

>  <SCORE.INTRA.VDW.0>
-6.17816

>  <SCORE.INTRA.norm>
0.0793576

>  <SCORE.RESTR>
8.0406

>  <SCORE.RESTR.CAVITY>
8.0406

>  <SCORE.RESTR.norm>
0.191443

>  <SCORE.SYSTEM>
0

>  <SCORE.SYSTEM.CONST>
0

>  <SCORE.SYSTEM.DIHEDRAL>
0

>  <SCORE.SYSTEM.SOLV>
0

>  <SCORE.SYSTEM.norm>
0

>  <SCORE.heavy>
42

>  <SCORE.norm>
-0.173443

>  <RMSD>
19.816

$$$$
2o3w_lig
 OpenBabel11021811463D
libRbt.so/2013.1/901 2013/11/27
 42 45  0  0  0  0  0  0  0  0999 V2000
   11.7268   11.4032  -11.5858 C   0  0  2  0  0  0  0  0  0  0  0  0
   11.4759   11.3438  -10.1713 O   0  0  0  0  0  0  0  0  0  0  0  0
   12.5554   13.4107   -6.5163 C   0  0  2  0  0  0  0  0  0  0  0  0
   13.1526   14.3757   -5.5455 N   0  0  0  0  0  0  0  0  0  0  0  0
   11.3157   14.8687  -10.5519 C   0  0  1  0  0  0  0  0  0  0  0  0
   12.6991   17.5520  -13.8847 C   0  0  1  0  0  0  0  0  0  0  0  0
   11.3187   10.0212  -12.1788 C   0  0  2  0  0  0  0  0  0  0  0  0
    9.9749    9.5976  -11.7483 N   0  0  0  0  0  0  0  0  0  0  0  0
   13.6734   12.5511   -7.2325 C   0  0  0  0  0  0  0  0  0  0  0  0
   11.0472   14.7122  -12.0797 C   0  0  2  0  0  0  0  0  0  0  0  0
   11.9203   13.7610  -12.7371 O   0  0  0  0  0  0  0  0  0  0  0  0
   11.8657   17.3820  -15.2058 C   0  0  2  0  0  0  0  0  0  0  0  0
   12.1757   16.0797  -15.8682 N   0  0  0  0  0  0  0  0  0  0  0  0
   12.2910    8.8995  -11.7692 C   0  0  1  0  0  0  0  0  0  0  0  0
   11.9017    7.6614  -12.3661 O   0  0  0  0  0  0  0  0  0  0  0  0
   12.9828   11.5400   -8.2241 C   0  0  2  0  0  0  0  0  0  0  0  0
   14.0066   10.7031   -8.9061 N   0  0  0  0  0  0  0  0  0  0  0  0
   11.1706   16.1613  -12.5530 C   0  0  2  0  0  0  0  0  0  0  0  0
   12.5439   16.4859  -12.9397 O   0  0  0  0  0  0  0  0  0  0  0  0
   12.1705   18.6127  -16.1853 C   0  0  1  0  0  0  0  0  0  0  0  0
   11.5155   19.7934  -15.6696 O   0  0  0  0  0  0  0  0  0  0  0  0
   13.7306    9.2924  -12.1722 C   0  0  2  0  0  0  0  0  0  0  0  0
   14.6310    8.2682  -11.8191 O   0  0  0  0  0  0  0  0  0  0  0  0
   12.1269   12.3144   -9.3027 C   0  0  2  0  0  0  0  0  0  0  0  0
   10.7021   17.0336  -11.3761 C   0  0  2  0  0  0  0  0  0  0  0  0
   11.0657   16.2577  -10.2367 O   0  0  0  0  0  0  0  0  0  0  0  0
   13.7378   18.8999  -16.3542 C   0  0  2  0  0  0  0  0  0  0  0  0
   14.2976   17.8146  -17.0926 O   0  0  0  0  0  0  0  0  0  0  0  0
   14.1118   10.6334  -11.4610 C   0  0  2  0  0  0  0  0  0  0  0  0
   13.1580   11.6774  -11.8355 O   0  0  0  0  0  0  0  0  0  0  0  0
   11.0476   13.2215   -8.6722 C   0  0  2  0  0  0  0  0  0  0  0  0
   10.4939   13.9832   -9.7802 O   0  0  0  0  0  0  0  0  0  0  0  0
    9.1771   17.3630  -11.3673 C   0  0  0  0  0  0  0  0  0  0  0  0
    8.8985   18.2733  -10.3077 O   0  0  0  0  0  0  0  0  0  0  0  0
   14.4358   19.0194  -14.9469 C   0  0  1  0  0  0  0  0  0  0  0  0
   14.1562   17.7559  -14.2428 O   0  0  0  0  0  0  0  0  0  0  0  0
   15.5082   11.0977  -11.8052 C   0  0  0  0  0  0  0  0  0  0  0  0
   15.5751   11.4703  -13.1602 O   0  0  0  0  0  0  0  0  0  0  0  0
   11.7016   14.1872   -7.5973 C   0  0  1  0  0  0  0  0  0  0  0  0
   10.6844   14.9185   -6.9073 O   0  0  0  0  0  0  0  0  0  0  0  0
   16.0041   19.2717  -15.0212 C   0  0  0  0  0  0  0  0  0  0  0  0
   16.7801   18.2672  -15.7992 N   0  0  0  0  0  0  0  0  0  0  0  0
  1  2  1  1  0  0  0
  1  7  1  0  0  0  0
  1 30  1  0  0  0  0
  3  4  1  1  0  0  0
  3  9  1  0  0  0  0
  3 39  1  0  0  0  0
  5 10  1  0  0  0  0
  5 26  1  0  0  0  0
  5 32  1  1  0  0  0
  6 12  1  0  0  0  0
  6 36  1  0  0  0  0
  6 19  1  1  0  0  0
  7  8  1  1  0  0  0
  7 14  1  0  0  0  0
  9 16  1  0  0  0  0
 10 11  1  6  0  0  0
 10 18  1  0  0  0  0
 12 13  1  6  0  0  0
 12 20  1  0  0  0  0
 14 15  1  6  0  0  0
 14 22  1  0  0  0  0
 16 17  1  6  0  0  0
 16 24  1  0  0  0  0
 18 19  1  1  0  0  0
 18 25  1  0  0  0  0
 20 21  1  1  0  0  0
 20 27  1  0  0  0  0
 22 23  1  1  0  0  0
 22 29  1  0  0  0  0
 24  2  1  6  0  0  0
 24 31  1  0  0  0  0
 25 26  1  0  0  0  0
 25 33  1  6  0  0  0
 27 28  1  6  0  0  0
 27 35  1  0  0  0  0
 29 30  1  0  0  0  0
 29 37  1  6  0  0  0
 31 32  1  6  0  0  0
 31 39  1  0  0  0  0
 33 34  1  0  0  0  0
 35 36  1  0  0  0  0
 35 41  1  6  0  0  0
 37 38  1  0  0  0  0
 39 40  1  1  0  0  0
 41 42  1  0  0  0  0
M  END
>  <CHROM.1>
161.43149834,135.70692327,-53.67425516,154.84379031,-122.19908294,-174.54477715
67.48748077,-61.61755490,-55.83516322,12.51097995,14.23940621,-11.80620386
-1.70282831,1.08570356,-0.48170661

>  <Name>
2o3w_lig

>  <RI>
0

>  <Rbt.Current_Directory>
/home/itssahil/PROJECTS/Mol_Feturizer/New_Systems/rnas/2o3w

>  <Rbt.Executable>
rbdock ($Id: //depot/dev/client3/rdock/2013.1/src/exe/rbdock.cxx#4 $)

>  <Rbt.Library>
libRbt.so (2013.1, Build901 2013/11/27)

>  <Rbt.Parameter_File>
/export/apps/rDock/src/rDock_2013.1_src/data/scripts/dock_solv.prm

>  <Rbt.Receptor>
prm/blind_docking_80.prm

>  <SCORE>
-0.532608

>  <SCORE.INTER>
-4.78051

>  <SCORE.INTER.CONST>
1

>  <SCORE.INTER.POLAR>
0

>  <SCORE.INTER.ROT>
9

>  <SCORE.INTER.SOLV>
29.9466

>  <SCORE.INTER.VDW>
-22.7692

>  <SCORE.INTER.norm>
-0.113822

>  <SCORE.INTRA>
0.445807

>  <SCORE.INTRA.DIHEDRAL>
-9.76699

>  <SCORE.INTRA.DIHEDRAL.0>
27.8999

>  <SCORE.INTRA.POLAR>
0

>  <SCORE.INTRA.POLAR.0>
0

>  <SCORE.INTRA.REPUL>
0.165403

>  <SCORE.INTRA.REPUL.0>
0

>  <SCORE.INTRA.SOLV>
1.457

>  <SCORE.INTRA.SOLV.lig_0>
-104.479

>  <SCORE.INTRA.VDW>
3.77379

>  <SCORE.INTRA.VDW.0>
-6.17816

>  <SCORE.INTRA.norm>
0.0106145

>  <SCORE.RESTR>
3.80209

>  <SCORE.RESTR.CAVITY>
3.80209

>  <SCORE.RESTR.norm>
0.090526

>  <SCORE.SYSTEM>
0

>  <SCORE.SYSTEM.CONST>
0

>  <SCORE.SYSTEM.DIHEDRAL>
0

>  <SCORE.SYSTEM.SOLV>
0

>  <SCORE.SYSTEM.norm>
0

>  <SCORE.heavy>
42

>  <SCORE.norm>
-0.0126811

>  <RMSD>
19.863

$$$$
2o3w_lig
 OpenBabel11021811463D
libRbt.so/2013.1/901 2013/11/27
 42 45  0  0  0  0  0  0  0  0999 V2000
   11.9969   11.5341   -8.0010 C   0  0  2  0  0  0  0  0  0  0  0  0
   12.4490   12.1734   -9.2069 O   0  0  0  0  0  0  0  0  0  0  0  0
   14.3495   10.1635  -12.5452 C   0  0  2  0  0  0  0  0  0  0  0  0
   14.5803    9.3821  -13.7968 N   0  0  0  0  0  0  0  0  0  0  0  0
   12.3272   14.6482  -11.7868 C   0  0  1  0  0  0  0  0  0  0  0  0
   12.8084   18.2946  -13.7915 C   0  0  1  0  0  0  0  0  0  0  0  0
   11.2866   12.6260   -7.1458 C   0  0  2  0  0  0  0  0  0  0  0  0
   10.2920   13.3895   -7.9194 N   0  0  0  0  0  0  0  0  0  0  0  0
   13.7003    9.2635  -11.4181 C   0  0  0  0  0  0  0  0  0  0  0  0
   11.9275   15.3314  -13.1300 C   0  0  2  0  0  0  0  0  0  0  0  0
   13.0078   15.4181  -14.0915 O   0  0  0  0  0  0  0  0  0  0  0  0
   11.6634   18.3741  -14.8645 C   0  0  2  0  0  0  0  0  0  0  0  0
   11.0869   17.0222  -15.1306 N   0  0  0  0  0  0  0  0  0  0  0  0
   12.2789   13.6498   -6.5642 C   0  0  1  0  0  0  0  0  0  0  0  0
   11.5905   14.6064   -5.7569 O   0  0  0  0  0  0  0  0  0  0  0  0
   13.5026   10.1347  -10.1202 C   0  0  2  0  0  0  0  0  0  0  0  0
   12.9059    9.3140   -9.0321 N   0  0  0  0  0  0  0  0  0  0  0  0
   11.3763   16.6680  -12.6309 C   0  0  2  0  0  0  0  0  0  0  0  0
   12.4239   17.6863  -12.5522 O   0  0  0  0  0  0  0  0  0  0  0  0
   12.2422   19.0276  -16.2079 C   0  0  1  0  0  0  0  0  0  0  0  0
   12.4333   20.4441  -15.9937 O   0  0  0  0  0  0  0  0  0  0  0  0
   13.3691   12.9097   -5.7563 C   0  0  2  0  0  0  0  0  0  0  0  0
   14.2763   13.8345   -5.2030 O   0  0  0  0  0  0  0  0  0  0  0  0
   12.5722   11.3760  -10.4190 C   0  0  2  0  0  0  0  0  0  0  0  0
   10.7681   16.3860  -11.2467 C   0  0  2  0  0  0  0  0  0  0  0  0
   11.5790   15.3238  -10.7500 O   0  0  0  0  0  0  0  0  0  0  0  0
   13.6239   18.3651  -16.6766 C   0  0  2  0  0  0  0  0  0  0  0  0
   13.3381   17.0380  -17.1164 O   0  0  0  0  0  0  0  0  0  0  0  0
   14.1102   11.9048   -6.7000 C   0  0  2  0  0  0  0  0  0  0  0  0
   13.1469   10.9623   -7.2687 O   0  0  0  0  0  0  0  0  0  0  0  0
   13.1163   12.2732  -11.5523 C   0  0  2  0  0  0  0  0  0  0  0  0
   12.0619   13.2397  -11.8140 O   0  0  0  0  0  0  0  0  0  0  0  0
    9.2610   15.9827  -11.2597 C   0  0  0  0  0  0  0  0  0  0  0  0
    8.6526   16.3970  -10.0403 O   0  0  0  0  0  0  0  0  0  0  0  0
   14.6573   18.3350  -15.4878 C   0  0  1  0  0  0  0  0  0  0  0  0
   14.0046   17.5906  -14.3970 O   0  0  0  0  0  0  0  0  0  0  0  0
   15.1941   11.1294   -5.9876 C   0  0  0  0  0  0  0  0  0  0  0  0
   14.6242   10.1177   -5.1932 O   0  0  0  0  0  0  0  0  0  0  0  0
   13.4156   11.4039  -12.8448 C   0  0  1  0  0  0  0  0  0  0  0  0
   14.0592   12.2047  -13.8399 O   0  0  0  0  0  0  0  0  0  0  0  0
   16.0495   17.6611  -15.8569 C   0  0  0  0  0  0  0  0  0  0  0  0
   17.2033   18.5945  -15.9758 N   0  0  0  0  0  0  0  0  0  0  0  0
  1  2  1  6  0  0  0
  1  7  1  0  0  0  0
  1 30  1  0  0  0  0
  3  4  1  6  0  0  0
  3  9  1  0  0  0  0
  3 39  1  0  0  0  0
  5 10  1  0  0  0  0
  5 26  1  0  0  0  0
  5 32  1  6  0  0  0
  6 12  1  0  0  0  0
  6 36  1  0  0  0  0
  6 19  1  1  0  0  0
  7  8  1  6  0  0  0
  7 14  1  0  0  0  0
  9 16  1  0  0  0  0
 10 11  1  6  0  0  0
 10 18  1  0  0  0  0
 12 13  1  6  0  0  0
 12 20  1  0  0  0  0
 14 15  1  1  0  0  0
 14 22  1  0  0  0  0
 16 17  1  1  0  0  0
 16 24  1  0  0  0  0
 18 19  1  1  0  0  0
 18 25  1  0  0  0  0
 20 21  1  1  0  0  0
 20 27  1  0  0  0  0
 22 23  1  6  0  0  0
 22 29  1  0  0  0  0
 24  2  1  1  0  0  0
 24 31  1  0  0  0  0
 25 26  1  0  0  0  0
 25 33  1  6  0  0  0
 27 28  1  1  0  0  0
 27 35  1  0  0  0  0
 29 30  1  0  0  0  0
 29 37  1  1  0  0  0
 31 32  1  6  0  0  0
 31 39  1  0  0  0  0
 33 34  1  0  0  0  0
 35 36  1  0  0  0  0
 35 41  1  6  0  0  0
 37 38  1  0  0  0  0
 39 40  1  6  0  0  0
 41 42  1  0  0  0  0
M  END
>  <CHROM.1>
-151.76757590,123.77278520,29.94620328,78.23733262,-54.81042156,-150.76322015
76.43020268,126.05478873,108.42705194,12.83805453,14.35694967,-11.33674987
1.58515235,-1.05920982,2.26636214

>  <Name>
2o3w_lig

>  <RI>
0

>  <Rbt.Current_Directory>
/home/itssahil/PROJECTS/Mol_Feturizer/New_Systems/rnas/2o3w

>  <Rbt.Executable>
rbdock ($Id: //depot/dev/client3/rdock/2013.1/src/exe/rbdock.cxx#4 $)

>  <Rbt.Library>
libRbt.so (2013.1, Build901 2013/11/27)

>  <Rbt.Parameter_File>
/export/apps/rDock/src/rDock_2013.1_src/data/scripts/dock_solv.prm

>  <Rbt.Receptor>
prm/blind_docking_80.prm

>  <SCORE>
-4.75887

>  <SCORE.INTER>
-20.8222

>  <SCORE.INTER.CONST>
1

>  <SCORE.INTER.POLAR>
-2.16226

>  <SCORE.INTER.ROT>
9

>  <SCORE.INTER.SOLV>
24.0323

>  <SCORE.INTER.VDW>
-24.2846

>  <SCORE.INTER.norm>
-0.495766

>  <SCORE.INTRA>
10.9205

>  <SCORE.INTRA.DIHEDRAL>
3.07409

>  <SCORE.INTRA.DIHEDRAL.0>
27.8999

>  <SCORE.INTRA.POLAR>
0

>  <SCORE.INTRA.POLAR.0>
0

>  <SCORE.INTRA.REPUL>
0.220325

>  <SCORE.INTRA.REPUL.0>
0

>  <SCORE.INTRA.SOLV>
1.72467

>  <SCORE.INTRA.SOLV.lig_0>
-104.479

>  <SCORE.INTRA.VDW>
7.41951

>  <SCORE.INTRA.VDW.0>
-6.17816

>  <SCORE.INTRA.norm>
0.260012

>  <SCORE.RESTR>
5.14277

>  <SCORE.RESTR.CAVITY>
5.14277

>  <SCORE.RESTR.norm>
0.122447

>  <SCORE.SYSTEM>
0

>  <SCORE.SYSTEM.CONST>
0

>  <SCORE.SYSTEM.DIHEDRAL>
0

>  <SCORE.SYSTEM.SOLV>
0

>  <SCORE.SYSTEM.norm>
0

>  <SCORE.heavy>
42

>  <SCORE.norm>
-0.113306

>  <RMSD>
19.880

$$$$
2o3w_lig
 OpenBabel11021811463D
libRbt.so/2013.1/901 2013/11/27
 42 45  0  0  0  0  0  0  0  0999 V2000
   12.1322   11.5551   -7.9950 C   0  0  2  0  0  0  0  0  0  0  0  0
   12.6719   11.9360   -9.2721 O   0  0  0  0  0  0  0  0  0  0  0  0
   13.0174    9.8449  -13.0541 C   0  0  2  0  0  0  0  0  0  0  0  0
   12.6943    9.1064  -14.3114 N   0  0  0  0  0  0  0  0  0  0  0  0
   11.7219   14.3030  -12.4962 C   0  0  1  0  0  0  0  0  0  0  0  0
   12.3005   17.1800  -14.3547 C   0  0  1  0  0  0  0  0  0  0  0  0
   11.4901   12.8315   -7.3732 C   0  0  2  0  0  0  0  0  0  0  0  0
   10.5862   13.5214   -8.3100 N   0  0  0  0  0  0  0  0  0  0  0  0
   12.6396    8.9940  -11.7754 C   0  0  0  0  0  0  0  0  0  0  0  0
   10.3539   14.6086  -13.1788 C   0  0  2  0  0  0  0  0  0  0  0  0
   10.1695   13.9439  -14.4528 O   0  0  0  0  0  0  0  0  0  0  0  0
   12.3976   18.7106  -14.6963 C   0  0  2  0  0  0  0  0  0  0  0  0
   11.8551   18.9883  -16.0599 N   0  0  0  0  0  0  0  0  0  0  0  0
   12.5464   13.8622   -6.9341 C   0  0  1  0  0  0  0  0  0  0  0  0
   11.9163   14.9958   -6.3352 O   0  0  0  0  0  0  0  0  0  0  0  0
   13.0232    9.8135  -10.4856 C   0  0  2  0  0  0  0  0  0  0  0  0
   12.6941    9.0351   -9.2611 N   0  0  0  0  0  0  0  0  0  0  0  0
   10.3810   16.1371  -13.2271 C   0  0  2  0  0  0  0  0  0  0  0  0
   10.9839   16.6256  -14.4675 O   0  0  0  0  0  0  0  0  0  0  0  0
   13.9238   19.1832  -14.5769 C   0  0  1  0  0  0  0  0  0  0  0  0
   14.2833   19.2528  -13.1788 O   0  0  0  0  0  0  0  0  0  0  0  0
   13.5465   13.1939   -5.9633 C   0  0  2  0  0  0  0  0  0  0  0  0
   14.5107   14.1291   -5.5387 O   0  0  0  0  0  0  0  0  0  0  0  0
   12.2591   11.1960  -10.4563 C   0  0  2  0  0  0  0  0  0  0  0  0
   11.1909   16.5864  -11.9992 C   0  0  2  0  0  0  0  0  0  0  0  0
   12.1153   15.5167  -11.8155 O   0  0  0  0  0  0  0  0  0  0  0  0
   14.9386   18.2082  -15.3433 C   0  0  2  0  0  0  0  0  0  0  0  0
   14.7106   18.3633  -16.7434 O   0  0  0  0  0  0  0  0  0  0  0  0
   14.2292   11.9851   -6.6859 C   0  0  2  0  0  0  0  0  0  0  0  0
   13.2081   11.0341   -7.1252 O   0  0  0  0  0  0  0  0  0  0  0  0
   12.5366   12.0603  -11.7058 C   0  0  2  0  0  0  0  0  0  0  0  0
   11.6250   13.1882  -11.6001 O   0  0  0  0  0  0  0  0  0  0  0  0
   10.3491   16.8286  -10.7082 C   0  0  0  0  0  0  0  0  0  0  0  0
    9.5701   15.6689  -10.4300 O   0  0  0  0  0  0  0  0  0  0  0  0
   14.7013   16.7108  -14.9147 C   0  0  1  0  0  0  0  0  0  0  0  0
   13.2886   16.4187  -15.2133 O   0  0  0  0  0  0  0  0  0  0  0  0
   15.2229   11.2658   -5.8033 C   0  0  0  0  0  0  0  0  0  0  0  0
   14.6281   10.1259   -5.2324 O   0  0  0  0  0  0  0  0  0  0  0  0
   12.2496   11.2270  -13.0244 C   0  0  1  0  0  0  0  0  0  0  0  0
   12.6497   11.9736  -14.1768 O   0  0  0  0  0  0  0  0  0  0  0  0
   15.6465   15.6679  -15.6547 C   0  0  0  0  0  0  0  0  0  0  0  0
   15.6783   15.7711  -17.1396 N   0  0  0  0  0  0  0  0  0  0  0  0
  1  2  1  6  0  0  0
  1  7  1  0  0  0  0
  1 30  1  0  0  0  0
  3  4  1  6  0  0  0
  3  9  1  0  0  0  0
  3 39  1  0  0  0  0
  5 10  1  0  0  0  0
  5 26  1  0  0  0  0
  5 32  1  1  0  0  0
  6 12  1  0  0  0  0
  6 36  1  0  0  0  0
  6 19  1  6  0  0  0
  7  8  1  6  0  0  0
  7 14  1  0  0  0  0
  9 16  1  0  0  0  0
 10 11  1  6  0  0  0
 10 18  1  0  0  0  0
 12 13  1  6  0  0  0
 12 20  1  0  0  0  0
 14 15  1  1  0  0  0
 14 22  1  0  0  0  0
 16 17  1  1  0  0  0
 16 24  1  0  0  0  0
 18 19  1  6  0  0  0
 18 25  1  0  0  0  0
 20 21  1  1  0  0  0
 20 27  1  0  0  0  0
 22 23  1  6  0  0  0
 22 29  1  0  0  0  0
 24  2  1  1  0  0  0
 24 31  1  0  0  0  0
 25 26  1  0  0  0  0
 25 33  1  1  0  0  0
 27 28  1  6  0  0  0
 27 35  1  0  0  0  0
 29 30  1  0  0  0  0
 29 37  1  1  0  0  0
 31 32  1  1  0  0  0
 31 39  1  0  0  0  0
 33 34  1  0  0  0  0
 35 36  1  0  0  0  0
 35 41  1  6  0  0  0
 37 38  1  0  0  0  0
 39 40  1  6  0  0  0
 41 42  1  0  0  0  0
M  END
>  <CHROM.1>
-125.21766288,127.13694078,-115.50112880,-106.58567640,-76.82502178,53.48785001
98.05895535,171.44297487,-51.22308874,12.68122371,14.10172257,-11.48357167
1.80209521,-1.54272378,2.45182173

>  <Name>
2o3w_lig

>  <RI>
0

>  <Rbt.Current_Directory>
/home/itssahil/PROJECTS/Mol_Feturizer/New_Systems/rnas/2o3w

>  <Rbt.Executable>
rbdock ($Id: //depot/dev/client3/rdock/2013.1/src/exe/rbdock.cxx#4 $)

>  <Rbt.Library>
libRbt.so (2013.1, Build901 2013/11/27)

>  <Rbt.Parameter_File>
/export/apps/rDock/src/rDock_2013.1_src/data/scripts/dock_solv.prm

>  <Rbt.Receptor>
prm/blind_docking_80.prm

>  <SCORE>
-4.06443

>  <SCORE.INTER>
-18.5445

>  <SCORE.INTER.CONST>
1

>  <SCORE.INTER.POLAR>
-2.12832

>  <SCORE.INTER.ROT>
9

>  <SCORE.INTER.SOLV>
22.5983

>  <SCORE.INTER.VDW>
-22.4013

>  <SCORE.INTER.norm>
-0.441535

>  <SCORE.INTRA>
6.42298

>  <SCORE.INTRA.DIHEDRAL>
5.38335

>  <SCORE.INTRA.DIHEDRAL.0>
27.8999

>  <SCORE.INTRA.POLAR>
0

>  <SCORE.INTRA.POLAR.0>
0

>  <SCORE.INTRA.REPUL>
0.0102313

>  <SCORE.INTRA.REPUL.0>
0

>  <SCORE.INTRA.SOLV>
0.326787

>  <SCORE.INTRA.SOLV.lig_0>
-104.479

>  <SCORE.INTRA.VDW>
3.51675

>  <SCORE.INTRA.VDW.0>
-6.17816

>  <SCORE.INTRA.norm>
0.152928

>  <SCORE.RESTR>
8.05707

>  <SCORE.RESTR.CAVITY>
8.05707

>  <SCORE.RESTR.norm>
0.191835

>  <SCORE.SYSTEM>
0

>  <SCORE.SYSTEM.CONST>
0

>  <SCORE.SYSTEM.DIHEDRAL>
0

>  <SCORE.SYSTEM.SOLV>
0

>  <SCORE.SYSTEM.norm>
0

>  <SCORE.heavy>
42

>  <SCORE.norm>
-0.0967722

>  <RMSD>
19.893

$$$$
2o3w_lig
 OpenBabel11021811463D
libRbt.so/2013.1/901 2013/11/27
 42 45  0  0  0  0  0  0  0  0999 V2000
   11.5546   11.4549  -11.7294 C   0  0  2  0  0  0  0  0  0  0  0  0
   11.3990   11.3613  -10.3031 O   0  0  0  0  0  0  0  0  0  0  0  0
   12.5895   13.4501   -6.6953 C   0  0  2  0  0  0  0  0  0  0  0  0
   13.2313   14.4091   -5.7473 N   0  0  0  0  0  0  0  0  0  0  0  0
   11.2440   15.1468  -10.5060 C   0  0  1  0  0  0  0  0  0  0  0  0
   12.7066   17.9326  -13.7419 C   0  0  1  0  0  0  0  0  0  0  0  0
   11.2151   10.0523  -12.3172 C   0  0  2  0  0  0  0  0  0  0  0  0
    9.9370    9.5229  -11.8104 N   0  0  0  0  0  0  0  0  0  0  0  0
   13.6679   12.5371   -7.4061 C   0  0  0  0  0  0  0  0  0  0  0  0
   11.2589   15.0953  -12.0642 C   0  0  2  0  0  0  0  0  0  0  0  0
   12.4072   14.4088  -12.6201 O   0  0  0  0  0  0  0  0  0  0  0  0
   12.0767   17.2882  -15.0290 C   0  0  2  0  0  0  0  0  0  0  0  0
   12.5264   15.8732  -15.1919 N   0  0  0  0  0  0  0  0  0  0  0  0
   12.2931    9.0036  -11.9866 C   0  0  1  0  0  0  0  0  0  0  0  0
   11.9612    7.7459  -12.5772 O   0  0  0  0  0  0  0  0  0  0  0  0
   12.9308   11.5352   -8.3733 C   0  0  2  0  0  0  0  0  0  0  0  0
   13.9163   10.6491   -9.0494 N   0  0  0  0  0  0  0  0  0  0  0  0
   11.1428   16.5802  -12.4116 C   0  0  2  0  0  0  0  0  0  0  0  0
   12.4584   17.2095  -12.5298 O   0  0  0  0  0  0  0  0  0  0  0  0
   12.4714   18.1684  -16.3082 C   0  0  1  0  0  0  0  0  0  0  0  0
   11.7059   19.3941  -16.2862 O   0  0  0  0  0  0  0  0  0  0  0  0
   13.6705    9.5094  -12.4724 C   0  0  2  0  0  0  0  0  0  0  0  0
   14.6661    8.5530  -12.1921 O   0  0  0  0  0  0  0  0  0  0  0  0
   12.0939   12.3221   -9.4578 C   0  0  2  0  0  0  0  0  0  0  0  0
   10.3197   17.2180  -11.2798 C   0  0  2  0  0  0  0  0  0  0  0  0
   10.6567   16.4190  -10.1482 O   0  0  0  0  0  0  0  0  0  0  0  0
   14.0349   18.5139  -16.3671 C   0  0  2  0  0  0  0  0  0  0  0  0
   14.7344   17.3006  -16.6407 O   0  0  0  0  0  0  0  0  0  0  0  0
   13.9939   10.8679  -11.7656 C   0  0  2  0  0  0  0  0  0  0  0  0
   12.9423   11.8400  -12.0636 O   0  0  0  0  0  0  0  0  0  0  0  0
   11.0550   13.2795   -8.8339 C   0  0  2  0  0  0  0  0  0  0  0  0
   10.5192   14.0419   -9.9503 O   0  0  0  0  0  0  0  0  0  0  0  0
    8.7776   17.2341  -11.5161 C   0  0  0  0  0  0  0  0  0  0  0  0
    8.2776   15.9020  -11.4506 O   0  0  0  0  0  0  0  0  0  0  0  0
   14.5206   19.1267  -14.9993 C   0  0  1  0  0  0  0  0  0  0  0  0
   14.1912   18.1309  -13.9648 O   0  0  0  0  0  0  0  0  0  0  0  0
   15.3267   11.4408  -12.1890 C   0  0  0  0  0  0  0  0  0  0  0  0
   16.3710   10.5893  -11.7847 O   0  0  0  0  0  0  0  0  0  0  0  0
   11.7547   14.2389   -7.7823 C   0  0  1  0  0  0  0  0  0  0  0  0
   10.7719   15.0194   -7.0963 O   0  0  0  0  0  0  0  0  0  0  0  0
   16.0729   19.4692  -14.9579 C   0  0  0  0  0  0  0  0  0  0  0  0
   16.9650   18.4896  -15.6369 N   0  0  0  0  0  0  0  0  0  0  0  0
  1  2  1  1  0  0  0
  1  7  1  0  0  0  0
  1 30  1  0  0  0  0
  3  4  1  1  0  0  0
  3  9  1  0  0  0  0
  3 39  1  0  0  0  0
  5 10  1  0  0  0  0
  5 26  1  0  0  0  0
  5 32  1  1  0  0  0
  6 12  1  0  0  0  0
  6 36  1  0  0  0  0
  6 19  1  1  0  0  0
  7  8  1  1  0  0  0
  7 14  1  0  0  0  0
  9 16  1  0  0  0  0
 10 11  1  1  0  0  0
 10 18  1  0  0  0  0
 12 13  1  6  0  0  0
 12 20  1  0  0  0  0
 14 15  1  6  0  0  0
 14 22  1  0  0  0  0
 16 17  1  6  0  0  0
 16 24  1  0  0  0  0
 18 19  1  1  0  0  0
 18 25  1  0  0  0  0
 20 21  1  1  0  0  0
 20 27  1  0  0  0  0
 22 23  1  1  0  0  0
 22 29  1  0  0  0  0
 24  2  1  6  0  0  0
 24 31  1  0  0  0  0
 25 26  1  0  0  0  0
 25 33  1  6  0  0  0
 27 28  1  1  0  0  0
 27 35  1  0  0  0  0
 29 30  1  0  0  0  0
 29 37  1  6  0  0  0
 31 32  1  6  0  0  0
 31 39  1  0  0  0  0
 33 34  1  0  0  0  0
 35 36  1  0  0  0  0
 35 41  1  6  0  0  0
 37 38  1  0  0  0  0
 39 40  1  1  0  0  0
 41 42  1  0  0  0  0
M  END
>  <CHROM.1>
157.81537853,134.35875373,-36.67330746,127.38426340,-127.12940805,69.09461182
-64.36782651,-79.25065953,-38.72679019,12.53427659,14.24068151,-11.85309268
-1.73388709,1.00637822,-0.44526647

>  <Name>
2o3w_lig

>  <RI>
0

>  <Rbt.Current_Directory>
/home/itssahil/PROJECTS/Mol_Feturizer/New_Systems/rnas/2o3w

>  <Rbt.Executable>
rbdock ($Id: //depot/dev/client3/rdock/2013.1/src/exe/rbdock.cxx#4 $)

>  <Rbt.Library>
libRbt.so (2013.1, Build901 2013/11/27)

>  <Rbt.Parameter_File>
/export/apps/rDock/src/rDock_2013.1_src/data/scripts/dock_solv.prm

>  <Rbt.Receptor>
prm/blind_docking_80.prm

>  <SCORE>
1.67242

>  <SCORE.INTER>
-5.72431

>  <SCORE.INTER.CONST>
1

>  <SCORE.INTER.POLAR>
0

>  <SCORE.INTER.ROT>
9

>  <SCORE.INTER.SOLV>
29.0302

>  <SCORE.INTER.VDW>
-23.0929

>  <SCORE.INTER.norm>
-0.136293

>  <SCORE.INTRA>
4.21613

>  <SCORE.INTRA.DIHEDRAL>
0.271635

>  <SCORE.INTRA.DIHEDRAL.0>
27.8999

>  <SCORE.INTRA.POLAR>
0

>  <SCORE.INTRA.POLAR.0>
0

>  <SCORE.INTRA.REPUL>
0.0719874

>  <SCORE.INTRA.REPUL.0>
0

>  <SCORE.INTRA.SOLV>
3.33882

>  <SCORE.INTRA.SOLV.lig_0>
-104.479

>  <SCORE.INTRA.VDW>
2.05096

>  <SCORE.INTRA.VDW.0>
-6.17816

>  <SCORE.INTRA.norm>
0.100384

>  <SCORE.RESTR>
3.1806

>  <SCORE.RESTR.CAVITY>
3.1806

>  <SCORE.RESTR.norm>
0.0757287

>  <SCORE.SYSTEM>
0

>  <SCORE.SYSTEM.CONST>
0

>  <SCORE.SYSTEM.DIHEDRAL>
0

>  <SCORE.SYSTEM.SOLV>
0

>  <SCORE.SYSTEM.norm>
0

>  <SCORE.heavy>
42

>  <SCORE.norm>
0.0398196

>  <RMSD>
19.901

$$$$
2o3w_lig
 OpenBabel11021811463D
libRbt.so/2013.1/901 2013/11/27
 42 45  0  0  0  0  0  0  0  0999 V2000
   13.3676   11.4366  -12.0413 C   0  0  2  0  0  0  0  0  0  0  0  0
   12.4561   11.1372  -10.9704 O   0  0  0  0  0  0  0  0  0  0  0  0
   11.1629   13.3126   -7.4503 C   0  0  2  0  0  0  0  0  0  0  0  0
   11.1565   14.1157   -6.1911 N   0  0  0  0  0  0  0  0  0  0  0  0
   12.3868   14.9303  -11.8337 C   0  0  1  0  0  0  0  0  0  0  0  0
   12.0163   17.0078  -13.9725 C   0  0  1  0  0  0  0  0  0  0  0  0
   12.9875   10.5097  -13.2349 C   0  0  2  0  0  0  0  0  0  0  0  0
   11.5473   10.5490  -13.5428 N   0  0  0  0  0  0  0  0  0  0  0  0
   11.8599   11.9095   -7.2326 C   0  0  0  0  0  0  0  0  0  0  0  0
   11.3587   14.3170  -12.8326 C   0  0  2  0  0  0  0  0  0  0  0  0
   11.9503   13.8297  -14.0620 O   0  0  0  0  0  0  0  0  0  0  0  0
   11.9856   18.5587  -14.2226 C   0  0  2  0  0  0  0  0  0  0  0  0
   11.3857   18.8726  -15.5540 N   0  0  0  0  0  0  0  0  0  0  0  0
   13.3450    9.0361  -12.9672 C   0  0  1  0  0  0  0  0  0  0  0  0
   13.0165    8.2308  -14.1005 O   0  0  0  0  0  0  0  0  0  0  0  0
   11.8157   11.1025   -8.5851 C   0  0  2  0  0  0  0  0  0  0  0  0
   12.4513    9.7684   -8.4127 N   0  0  0  0  0  0  0  0  0  0  0  0
   10.3686   15.4726  -12.9866 C   0  0  2  0  0  0  0  0  0  0  0  0
   10.7437   16.3592  -14.0884 O   0  0  0  0  0  0  0  0  0  0  0  0
   13.4736   19.1419  -14.1100 C   0  0  1  0  0  0  0  0  0  0  0  0
   13.8653   19.1573  -12.7189 O   0  0  0  0  0  0  0  0  0  0  0  0
   14.8454    8.9258  -12.6124 C   0  0  2  0  0  0  0  0  0  0  0  0
   15.1926    7.5803  -12.3807 O   0  0  0  0  0  0  0  0  0  0  0  0
   12.5552   11.8977   -9.7326 C   0  0  2  0  0  0  0  0  0  0  0  0
   10.3762   16.2201  -11.6425 C   0  0  2  0  0  0  0  0  0  0  0  0
   11.7077   16.0227  -11.1729 O   0  0  0  0  0  0  0  0  0  0  0  0
   14.5389   18.2965  -14.9574 C   0  0  2  0  0  0  0  0  0  0  0  0
   14.2608   18.5152  -16.3399 O   0  0  0  0  0  0  0  0  0  0  0  0
   15.1359    9.7979  -11.3456 C   0  0  2  0  0  0  0  0  0  0  0  0
   14.7587   11.1867  -11.6075 O   0  0  0  0  0  0  0  0  0  0  0  0
   11.9625   13.3050   -9.9637 C   0  0  2  0  0  0  0  0  0  0  0  0
   12.8653   13.9500  -10.9036 O   0  0  0  0  0  0  0  0  0  0  0  0
    9.3323   15.7113  -10.6005 C   0  0  0  0  0  0  0  0  0  0  0  0
    9.1068   16.7258   -9.6266 O   0  0  0  0  0  0  0  0  0  0  0  0
   14.4297   16.7625  -14.6153 C   0  0  1  0  0  0  0  0  0  0  0  0
   13.0359   16.3783  -14.8984 O   0  0  0  0  0  0  0  0  0  0  0  0
   16.5880    9.7535  -10.9296 C   0  0  0  0  0  0  0  0  0  0  0  0
   17.4126   10.1261  -12.0068 O   0  0  0  0  0  0  0  0  0  0  0  0
   11.9060   14.1081   -8.5971 C   0  0  1  0  0  0  0  0  0  0  0  0
   11.2203   15.3495   -8.7823 O   0  0  0  0  0  0  0  0  0  0  0  0
   15.4315   15.8424  -15.4389 C   0  0  0  0  0  0  0  0  0  0  0  0
   15.3382   15.9570  -16.9204 N   0  0  0  0  0  0  0  0  0  0  0  0
  1  2  1  1  0  0  0
  1  7  1  0  0  0  0
  1 30  1  0  0  0  0
  3  4  1  1  0  0  0
  3  9  1  0  0  0  0
  3 39  1  0  0  0  0
  5 10  1  0  0  0  0
  5 26  1  0  0  0  0
  5 32  1  1  0  0  0
  6 12  1  0  0  0  0
  6 36  1  0  0  0  0
  6 19  1  6  0  0  0
  7  8  1  1  0  0  0
  7 14  1  0  0  0  0
  9 16  1  0  0  0  0
 10 11  1  6  0  0  0
 10 18  1  0  0  0  0
 12 13  1  6  0  0  0
 12 20  1  0  0  0  0
 14 15  1  6  0  0  0
 14 22  1  0  0  0  0
 16 17  1  1  0  0  0
 16 24  1  0  0  0  0
 18 19  1  6  0  0  0
 18 25  1  0  0  0  0
 20 21  1  1  0  0  0
 20 27  1  0  0  0  0
 22 23  1  1  0  0  0
 22 29  1  0  0  0  0
 24  2  1  6  0  0  0
 24 31  1  0  0  0  0
 25 26  1  0  0  0  0
 25 33  1  1  0  0  0
 27 28  1  6  0  0  0
 27 35  1  0  0  0  0
 29 30  1  0  0  0  0
 29 37  1  6  0  0  0
 31 32  1  6  0  0  0
 31 39  1  0  0  0  0
 33 34  1  0  0  0  0
 35 36  1  0  0  0  0
 35 41  1  6  0  0  0
 37 38  1  0  0  0  0
 39 40  1  6  0  0  0
 41 42  1  0  0  0  0
M  END
>  <CHROM.1>
-177.94188114,-63.25240315,-130.44333400,-61.10806771,-161.59006765,-159.90145139
55.07969243,149.57130069,-55.86244493,12.79224565,13.83796791,-12.07045907
-1.35629598,0.95524986,-0.58778496

>  <Name>
2o3w_lig

>  <RI>
0

>  <Rbt.Current_Directory>
/home/itssahil/PROJECTS/Mol_Feturizer/New_Systems/rnas/2o3w

>  <Rbt.Executable>
rbdock ($Id: //depot/dev/client3/rdock/2013.1/src/exe/rbdock.cxx#4 $)

>  <Rbt.Library>
libRbt.so (2013.1, Build901 2013/11/27)

>  <Rbt.Parameter_File>
/export/apps/rDock/src/rDock_2013.1_src/data/scripts/dock_solv.prm

>  <Rbt.Receptor>
prm/blind_docking_80.prm

>  <SCORE>
-5.53952

>  <SCORE.INTER>
-7.73678

>  <SCORE.INTER.CONST>
1

>  <SCORE.INTER.POLAR>
-0.970608

>  <SCORE.INTER.ROT>
9

>  <SCORE.INTER.SOLV>
25.7426

>  <SCORE.INTER.VDW>
-20.1034

>  <SCORE.INTER.norm>
-0.184209

>  <SCORE.INTRA>
-5.10857

>  <SCORE.INTRA.DIHEDRAL>
-14.4473

>  <SCORE.INTRA.DIHEDRAL.0>
27.8999

>  <SCORE.INTRA.POLAR>
0

>  <SCORE.INTRA.POLAR.0>
0

>  <SCORE.INTRA.REPUL>
0

>  <SCORE.INTRA.REPUL.0>
0

>  <SCORE.INTRA.SOLV>
-0.899166

>  <SCORE.INTRA.SOLV.lig_0>
-104.479

>  <SCORE.INTRA.VDW>
2.56466

>  <SCORE.INTRA.VDW.0>
-6.17816

>  <SCORE.INTRA.norm>
-0.121633

>  <SCORE.RESTR>
7.30584

>  <SCORE.RESTR.CAVITY>
7.30584

>  <SCORE.RESTR.norm>
0.173949

>  <SCORE.SYSTEM>
0

>  <SCORE.SYSTEM.CONST>
0

>  <SCORE.SYSTEM.DIHEDRAL>
0

>  <SCORE.SYSTEM.SOLV>
0

>  <SCORE.SYSTEM.norm>
0

>  <SCORE.heavy>
42

>  <SCORE.norm>
-0.131893

>  <RMSD>
19.903

$$$$
2o3w_lig
 OpenBabel11021811463D
libRbt.so/2013.1/901 2013/11/27
 42 45  0  0  0  0  0  0  0  0999 V2000
   11.8805   11.5932   -8.0426 C   0  0  2  0  0  0  0  0  0  0  0  0
   12.4041   12.1853   -9.2437 O   0  0  0  0  0  0  0  0  0  0  0  0
   14.3100   10.0981  -12.5311 C   0  0  2  0  0  0  0  0  0  0  0  0
   14.5429    9.2864  -13.7629 N   0  0  0  0  0  0  0  0  0  0  0  0
   12.2563   14.5966  -11.8059 C   0  0  1  0  0  0  0  0  0  0  0  0
   12.7875   18.2718  -13.7081 C   0  0  1  0  0  0  0  0  0  0  0  0
   11.1407   12.7221   -7.2639 C   0  0  2  0  0  0  0  0  0  0  0  0
   10.1986   13.4698   -8.1147 N   0  0  0  0  0  0  0  0  0  0  0  0
   13.6632    9.2247  -11.3820 C   0  0  0  0  0  0  0  0  0  0  0  0
   11.9015   15.3055  -13.1485 C   0  0  2  0  0  0  0  0  0  0  0  0
   13.0191   15.4307  -14.0620 O   0  0  0  0  0  0  0  0  0  0  0  0
   11.7128   18.3282  -14.8529 C   0  0  2  0  0  0  0  0  0  0  0  0
   11.1846   16.9644  -15.1563 N   0  0  0  0  0  0  0  0  0  0  0  0
   12.1145   13.7538   -6.6653 C   0  0  1  0  0  0  0  0  0  0  0  0
   11.3972   14.7456   -5.9286 O   0  0  0  0  0  0  0  0  0  0  0  0
   13.4632   10.1273  -10.1061 C   0  0  2  0  0  0  0  0  0  0  0  0
   12.8686    9.3323   -8.9979 N   0  0  0  0  0  0  0  0  0  0  0  0
   11.3095   16.6217  -12.6420 C   0  0  2  0  0  0  0  0  0  0  0  0
   12.3371   17.6531  -12.4965 O   0  0  0  0  0  0  0  0  0  0  0  0
   12.3628   18.9966  -16.1558 C   0  0  1  0  0  0  0  0  0  0  0  0
   12.5085   20.4165  -15.9292 O   0  0  0  0  0  0  0  0  0  0  0  0
   13.1505   13.0295   -5.7759 C   0  0  2  0  0  0  0  0  0  0  0  0
   14.0395   13.9623   -5.2068 O   0  0  0  0  0  0  0  0  0  0  0  0
   12.5295   11.3584  -10.4356 C   0  0  2  0  0  0  0  0  0  0  0  0
   10.6494   16.2982  -11.2911 C   0  0  2  0  0  0  0  0  0  0  0  0
   11.4556   15.2366  -10.7858 O   0  0  0  0  0  0  0  0  0  0  0  0
   13.7862   18.3654  -16.5344 C   0  0  2  0  0  0  0  0  0  0  0  0
   13.5587   17.0331  -16.9922 O   0  0  0  0  0  0  0  0  0  0  0  0
   13.9270   11.9842   -6.6444 C   0  0  2  0  0  0  0  0  0  0  0  0
   12.9826   11.0338   -7.2313 O   0  0  0  0  0  0  0  0  0  0  0  0
   13.0713   12.2285  -11.5909 C   0  0  2  0  0  0  0  0  0  0  0  0
   12.0143   13.1854  -11.8765 O   0  0  0  0  0  0  0  0  0  0  0  0
    9.1506   15.8733  -11.3760 C   0  0  0  0  0  0  0  0  0  0  0  0
    8.3762   16.9716  -11.8482 O   0  0  0  0  0  0  0  0  0  0  0  0
   14.7409   18.3558  -15.2812 C   0  0  1  0  0  0  0  0  0  0  0  0
   14.0355   17.5953  -14.2351 O   0  0  0  0  0  0  0  0  0  0  0  0
   14.9613   11.2214   -5.8494 C   0  0  0  0  0  0  0  0  0  0  0  0
   16.0261   12.0710   -5.4977 O   0  0  0  0  0  0  0  0  0  0  0  0
   13.3728   11.3282  -12.8614 C   0  0  1  0  0  0  0  0  0  0  0  0
   14.0143   12.1057  -13.8761 O   0  0  0  0  0  0  0  0  0  0  0  0
   16.1686   17.7132  -15.5596 C   0  0  0  0  0  0  0  0  0  0  0  0
   17.1446   18.5948  -16.2573 N   0  0  0  0  0  0  0  0  0  0  0  0
  1  2  1  6  0  0  0
  1  7  1  0  0  0  0
  1 30  1  0  0  0  0
  3  4  1  6  0  0  0
  3  9  1  0  0  0  0
  3 39  1  0  0  0  0
  5 10  1  0  0  0  0
  5 26  1  0  0  0  0
  5 32  1  6  0  0  0
  6 12  1  0  0  0  0
  6 36  1  0  0  0  0
  6 19  1  1  0  0  0
  7  8  1  6  0  0  0
  7 14  1  0  0  0  0
  9 16  1  0  0  0  0
 10 11  1  6  0  0  0
 10 18  1  0  0  0  0
 12 13  1  6  0  0  0
 12 20  1  0  0  0  0
 14 15  1  1  0  0  0
 14 22  1  0  0  0  0
 16 17  1  1  0  0  0
 16 24  1  0  0  0  0
 18 19  1  1  0  0  0
 18 25  1  0  0  0  0
 20 21  1  1  0  0  0
 20 27  1  0  0  0  0
 22 23  1  6  0  0  0
 22 29  1  0  0  0  0
 24  2  1  1  0  0  0
 24 31  1  0  0  0  0
 25 26  1  0  0  0  0
 25 33  1  6  0  0  0
 27 28  1  1  0  0  0
 27 35  1  0  0  0  0
 29 30  1  0  0  0  0
 29 37  1  1  0  0  0
 31 32  1  6  0  0  0
 31 39  1  0  0  0  0
 33 34  1  0  0  0  0
 35 36  1  0  0  0  0
 35 41  1  6  0  0  0
 37 38  1  0  0  0  0
 39 40  1  6  0  0  0
 41 42  1  0  0  0  0
M  END
>  <CHROM.1>
-149.29844316,123.89957067,29.34832558,76.68727510,-58.36185880,-65.17275669
-69.80001806,122.28359807,79.17509860,12.82270729,14.42398155,-11.38884719
1.57650316,-1.06135700,2.25490776

>  <Name>
2o3w_lig

>  <RI>
0

>  <Rbt.Current_Directory>
/home/itssahil/PROJECTS/Mol_Feturizer/New_Systems/rnas/2o3w

>  <Rbt.Executable>
rbdock ($Id: //depot/dev/client3/rdock/2013.1/src/exe/rbdock.cxx#4 $)

>  <Rbt.Library>
libRbt.so (2013.1, Build901 2013/11/27)

>  <Rbt.Parameter_File>
/export/apps/rDock/src/rDock_2013.1_src/data/scripts/dock_solv.prm

>  <Rbt.Receptor>
prm/blind_docking_80.prm

>  <SCORE>
0.987794

>  <SCORE.INTER>
-12.4352

>  <SCORE.INTER.CONST>
1

>  <SCORE.INTER.POLAR>
0

>  <SCORE.INTER.ROT>
9

>  <SCORE.INTER.SOLV>
21.69

>  <SCORE.INTER.VDW>
-25.1201

>  <SCORE.INTER.norm>
-0.296076

>  <SCORE.INTRA>
8.13824

>  <SCORE.INTRA.DIHEDRAL>
-3.1067

>  <SCORE.INTRA.DIHEDRAL.0>
27.8999

>  <SCORE.INTRA.POLAR>
0

>  <SCORE.INTRA.POLAR.0>
0

>  <SCORE.INTRA.REPUL>
0.224833

>  <SCORE.INTRA.REPUL.0>
0

>  <SCORE.INTRA.SOLV>
2.59515

>  <SCORE.INTRA.SOLV.lig_0>
-104.479

>  <SCORE.INTRA.VDW>
7.26986

>  <SCORE.INTRA.VDW.0>
-6.17816

>  <SCORE.INTRA.norm>
0.193768

>  <SCORE.RESTR>
5.28476

>  <SCORE.RESTR.CAVITY>
5.28476

>  <SCORE.RESTR.norm>
0.125828

>  <SCORE.SYSTEM>
0

>  <SCORE.SYSTEM.CONST>
0

>  <SCORE.SYSTEM.DIHEDRAL>
0

>  <SCORE.SYSTEM.SOLV>
0

>  <SCORE.SYSTEM.norm>
0

>  <SCORE.heavy>
42

>  <SCORE.norm>
0.0235189

>  <RMSD>
19.956

$$$$
2o3w_lig
 OpenBabel11021811463D
libRbt.so/2013.1/901 2013/11/27
 42 45  0  0  0  0  0  0  0  0999 V2000
   13.2222   11.3602  -11.5540 C   0  0  2  0  0  0  0  0  0  0  0  0
   12.5506   11.0648  -10.3175 O   0  0  0  0  0  0  0  0  0  0  0  0
   11.1206   13.5855   -7.0930 C   0  0  2  0  0  0  0  0  0  0  0  0
   11.0492   14.5965   -5.9961 N   0  0  0  0  0  0  0  0  0  0  0  0
   11.8720   15.0628  -11.3796 C   0  0  1  0  0  0  0  0  0  0  0  0
   12.1255   17.7107  -14.2224 C   0  0  1  0  0  0  0  0  0  0  0  0
   12.6680   10.3689  -12.6210 C   0  0  2  0  0  0  0  0  0  0  0  0
   11.1954   10.3311  -12.6444 N   0  0  0  0  0  0  0  0  0  0  0  0
   12.1048   12.4043   -6.7217 C   0  0  0  0  0  0  0  0  0  0  0  0
   12.1500   15.0925  -12.9134 C   0  0  2  0  0  0  0  0  0  0  0  0
   13.3870   15.7542  -13.2755 O   0  0  0  0  0  0  0  0  0  0  0  0
   12.1337   19.2700  -14.4154 C   0  0  2  0  0  0  0  0  0  0  0  0
   10.8714   19.7337  -15.0655 N   0  0  0  0  0  0  0  0  0  0  0  0
   13.1462    8.9250  -12.3812 C   0  0  1  0  0  0  0  0  0  0  0  0
   12.6478    8.0598  -13.4029 O   0  0  0  0  0  0  0  0  0  0  0  0
   12.1204   11.3624   -7.9035 C   0  0  2  0  0  0  0  0  0  0  0  0
   13.0271   10.2277   -7.5811 N   0  0  0  0  0  0  0  0  0  0  0  0
   10.8707   15.7490  -13.4345 C   0  0  2  0  0  0  0  0  0  0  0  0
   10.9992   17.2052  -13.4946 O   0  0  0  0  0  0  0  0  0  0  0  0
   13.4147   19.6888  -15.2818 C   0  0  1  0  0  0  0  0  0  0  0  0
   14.5957   19.5692  -14.4573 O   0  0  0  0  0  0  0  0  0  0  0  0
   14.6904    8.8965  -12.3212 C   0  0  2  0  0  0  0  0  0  0  0  0
   15.1449    7.5786  -12.1188 O   0  0  0  0  0  0  0  0  0  0  0  0
   12.5890   12.0504   -9.2463 C   0  0  2  0  0  0  0  0  0  0  0  0
    9.7526   15.3278  -12.4660 C   0  0  2  0  0  0  0  0  0  0  0  0
   10.4395   15.1858  -11.2249 O   0  0  0  0  0  0  0  0  0  0  0  0
   13.5905   18.7985  -16.6024 C   0  0  2  0  0  0  0  0  0  0  0  0
   12.5306   19.1382  -17.4954 O   0  0  0  0  0  0  0  0  0  0  0  0
   15.1737    9.8321  -11.1633 C   0  0  2  0  0  0  0  0  0  0  0  0
   14.6818   11.1908  -11.3909 O   0  0  0  0  0  0  0  0  0  0  0  0
   11.7047   13.2527   -9.6435 C   0  0  2  0  0  0  0  0  0  0  0  0
   12.3797   13.8655  -10.7764 O   0  0  0  0  0  0  0  0  0  0  0  0
    9.0104   14.0104  -12.8506 C   0  0  0  0  0  0  0  0  0  0  0  0
    9.9562   12.9504  -12.9532 O   0  0  0  0  0  0  0  0  0  0  0  0
   13.5356   17.2640  -16.2497 C   0  0  1  0  0  0  0  0  0  0  0  0
   12.2433   17.0447  -15.5772 O   0  0  0  0  0  0  0  0  0  0  0  0
   16.6791    9.8698  -11.0361 C   0  0  0  0  0  0  0  0  0  0  0  0
   17.2632   10.1770  -12.2786 O   0  0  0  0  0  0  0  0  0  0  0  0
   11.5928   14.2746   -8.4357 C   0  0  1  0  0  0  0  0  0  0  0  0
   10.6552   15.3082   -8.7491 O   0  0  0  0  0  0  0  0  0  0  0  0
   13.6689   16.3045  -17.5107 C   0  0  0  0  0  0  0  0  0  0  0  0
   15.0465   16.1416  -18.0511 N   0  0  0  0  0  0  0  0  0  0  0  0
  1  2  1  1  0  0  0
  1  7  1  0  0  0  0
  1 30  1  0  0  0  0
  3  4  1  1  0  0  0
  3  9  1  0  0  0  0
  3 39  1  0  0  0  0
  5 10  1  0  0  0  0
  5 26  1  0  0  0  0
  5 32  1  6  0  0  0
  6 12  1  0  0  0  0
  6 36  1  0  0  0  0
  6 19  1  6  0  0  0
  7  8  1  1  0  0  0
  7 14  1  0  0  0  0
  9 16  1  0  0  0  0
 10 11  1  1  0  0  0
 10 18  1  0  0  0  0
 12 13  1  6  0  0  0
 12 20  1  0  0  0  0
 14 15  1  6  0  0  0
 14 22  1  0  0  0  0
 16 17  1  1  0  0  0
 16 24  1  0  0  0  0
 18 19  1  1  0  0  0
 18 25  1  0  0  0  0
 20 21  1  1  0  0  0
 20 27  1  0  0  0  0
 22 23  1  1  0  0  0
 22 29  1  0  0  0  0
 24  2  1  6  0  0  0
 24 31  1  0  0  0  0
 25 26  1  0  0  0  0
 25 33  1  6  0  0  0
 27 28  1  6  0  0  0
 27 35  1  0  0  0  0
 29 30  1  0  0  0  0
 29 37  1  6  0  0  0
 31 32  1  6  0  0  0
 31 39  1  0  0  0  0
 33 34  1  0  0  0  0
 35 36  1  0  0  0  0
 35 41  1  6  0  0  0
 37 38  1  0  0  0  0
 39 40  1  6  0  0  0
 41 42  1  0  0  0  0
M  END
>  <CHROM.1>
-163.33086913,-146.94269898,172.81981705,53.61259175,-165.61382557,57.20086599
52.52229657,-177.07099002,77.19029494,12.62287283,13.93380068,-12.27094128
-1.43075519,1.00144800,-0.72620498

>  <Name>
2o3w_lig

>  <RI>
0

>  <Rbt.Current_Directory>
/home/itssahil/PROJECTS/Mol_Feturizer/New_Systems/rnas/2o3w

>  <Rbt.Executable>
rbdock ($Id: //depot/dev/client3/rdock/2013.1/src/exe/rbdock.cxx#4 $)

>  <Rbt.Library>
libRbt.so (2013.1, Build901 2013/11/27)

>  <Rbt.Parameter_File>
/export/apps/rDock/src/rDock_2013.1_src/data/scripts/dock_solv.prm

>  <Rbt.Receptor>
prm/blind_docking_80.prm

>  <SCORE>
-3.71163

>  <SCORE.INTER>
-5.93325

>  <SCORE.INTER.CONST>
1

>  <SCORE.INTER.POLAR>
-0.145466

>  <SCORE.INTER.ROT>
9

>  <SCORE.INTER.SOLV>
26.7284

>  <SCORE.INTER.VDW>
-21.9801

>  <SCORE.INTER.norm>
-0.141268

>  <SCORE.INTRA>
-6.44598

>  <SCORE.INTRA.DIHEDRAL>
-19.6118

>  <SCORE.INTRA.DIHEDRAL.0>
27.8999

>  <SCORE.INTRA.POLAR>
0

>  <SCORE.INTRA.POLAR.0>
0

>  <SCORE.INTRA.REPUL>
0

>  <SCORE.INTRA.REPUL.0>
0

>  <SCORE.INTRA.SOLV>
-2.6803

>  <SCORE.INTRA.SOLV.lig_0>
-104.479

>  <SCORE.INTRA.VDW>
4.70007

>  <SCORE.INTRA.VDW.0>
-6.17816

>  <SCORE.INTRA.norm>
-0.153476

>  <SCORE.RESTR>
8.6676

>  <SCORE.RESTR.CAVITY>
8.6676

>  <SCORE.RESTR.norm>
0.206371

>  <SCORE.SYSTEM>
0

>  <SCORE.SYSTEM.CONST>
0

>  <SCORE.SYSTEM.DIHEDRAL>
0

>  <SCORE.SYSTEM.SOLV>
0

>  <SCORE.SYSTEM.norm>
0

>  <SCORE.heavy>
42

>  <SCORE.norm>
-0.0883721

>  <RMSD>
19.995

$$$$
2o3w_lig
 OpenBabel11021811463D
libRbt.so/2013.1/901 2013/11/27
 42 45  0  0  0  0  0  0  0  0999 V2000
   13.1765   11.4436  -11.6437 C   0  0  2  0  0  0  0  0  0  0  0  0
   12.5858   11.1466  -10.3669 O   0  0  0  0  0  0  0  0  0  0  0  0
   11.0676   13.8265   -7.3158 C   0  0  2  0  0  0  0  0  0  0  0  0
   10.9696   14.8814   -6.2631 N   0  0  0  0  0  0  0  0  0  0  0  0
   12.0511   15.0997  -11.6301 C   0  0  1  0  0  0  0  0  0  0  0  0
   12.4940   17.5416  -14.5206 C   0  0  1  0  0  0  0  0  0  0  0  0
   12.5495   10.4585  -12.6754 C   0  0  2  0  0  0  0  0  0  0  0  0
   11.0783   10.4270  -12.6028 N   0  0  0  0  0  0  0  0  0  0  0  0
   12.0010   12.6371   -6.8513 C   0  0  0  0  0  0  0  0  0  0  0  0
   12.3465   15.0150  -13.1586 C   0  0  2  0  0  0  0  0  0  0  0  0
   13.6091   15.6091  -13.5486 O   0  0  0  0  0  0  0  0  0  0  0  0
   13.5178   18.2360  -13.5519 C   0  0  2  0  0  0  0  0  0  0  0  0
   12.8883   19.3962  -12.8529 N   0  0  0  0  0  0  0  0  0  0  0  0
   13.0359    9.0117  -12.4721 C   0  0  1  0  0  0  0  0  0  0  0  0
   12.4680    8.1523  -13.4620 O   0  0  0  0  0  0  0  0  0  0  0  0
   12.0466   11.5495   -7.9904 C   0  0  2  0  0  0  0  0  0  0  0  0
   12.9063   10.4065   -7.5803 N   0  0  0  0  0  0  0  0  0  0  0  0
   11.0959   15.6762  -13.7399 C   0  0  2  0  0  0  0  0  0  0  0  0
   11.2744   17.1199  -13.8974 O   0  0  0  0  0  0  0  0  0  0  0  0
   14.8059   18.6966  -14.3860 C   0  0  1  0  0  0  0  0  0  0  0  0
   15.5876   17.5281  -14.7215 O   0  0  0  0  0  0  0  0  0  0  0  0
   14.5806    8.9765  -12.5132 C   0  0  2  0  0  0  0  0  0  0  0  0
   15.0414    7.6559  -12.3452 O   0  0  0  0  0  0  0  0  0  0  0  0
   12.5980   12.1724   -9.3335 C   0  0  2  0  0  0  0  0  0  0  0  0
    9.9538   15.3596  -12.7597 C   0  0  2  0  0  0  0  0  0  0  0  0
   10.6221   15.2804  -11.5029 O   0  0  0  0  0  0  0  0  0  0  0  0
   14.4282   19.4914  -15.7251 C   0  0  2  0  0  0  0  0  0  0  0  0
   13.8844   20.7529  -15.3387 O   0  0  0  0  0  0  0  0  0  0  0  0
   15.1426    9.9059  -11.3863 C   0  0  2  0  0  0  0  0  0  0  0  0
   14.6429   11.2674  -11.5768 O   0  0  0  0  0  0  0  0  0  0  0  0
   11.7661   13.3794   -9.8196 C   0  0  2  0  0  0  0  0  0  0  0  0
   12.5114   13.9305  -10.9401 O   0  0  0  0  0  0  0  0  0  0  0  0
    9.1715   14.0443  -13.0633 C   0  0  0  0  0  0  0  0  0  0  0  0
   10.0711   12.9408  -13.0178 O   0  0  0  0  0  0  0  0  0  0  0  0
   13.3771   18.6816  -16.5744 C   0  0  1  0  0  0  0  0  0  0  0  0
   12.2188   18.4623  -15.6909 O   0  0  0  0  0  0  0  0  0  0  0  0
   16.6532    9.9367  -11.3575 C   0  0  0  0  0  0  0  0  0  0  0  0
   17.1594    8.6523  -11.0870 O   0  0  0  0  0  0  0  0  0  0  0  0
   11.6226   14.4505   -8.6587 C   0  0  1  0  0  0  0  0  0  0  0  0
   10.7290   15.4936   -9.0574 O   0  0  0  0  0  0  0  0  0  0  0  0
   12.9193   19.4153  -17.9088 C   0  0  0  0  0  0  0  0  0  0  0  0
   12.1017   20.6448  -17.7176 N   0  0  0  0  0  0  0  0  0  0  0  0
  1  2  1  1  0  0  0
  1  7  1  0  0  0  0
  1 30  1  0  0  0  0
  3  4  1  1  0  0  0
  3  9  1  0  0  0  0
  3 39  1  0  0  0  0
  5 10  1  0  0  0  0
  5 26  1  0  0  0  0
  5 32  1  1  0  0  0
  6 12  1  0  0  0  0
  6 36  1  0  0  0  0
  6 19  1  1  0  0  0
  7  8  1  1  0  0  0
  7 14  1  0  0  0  0
  9 16  1  0  0  0  0
 10 11  1  1  0  0  0
 10 18  1  0  0  0  0
 12 13  1  6  0  0  0
 12 20  1  0  0  0  0
 14 15  1  6  0  0  0
 14 22  1  0  0  0  0
 16 17  1  1  0  0  0
 16 24  1  0  0  0  0
 18 19  1  1  0  0  0
 18 25  1  0  0  0  0
 20 21  1  6  0  0  0
 20 27  1  0  0  0  0
 22 23  1  1  0  0  0
 22 29  1  0  0  0  0
 24  2  1  6  0  0  0
 24 31  1  0  0  0  0
 25 26  1  0  0  0  0
 25 33  1  6  0  0  0
 27 28  1  1  0  0  0
 27 35  1  0  0  0  0
 29 30  1  0  0  0  0
 29 37  1  6  0  0  0
 31 32  1  6  0  0  0
 31 39  1  0  0  0  0
 33 34  1  0  0  0  0
 35 36  1  0  0  0  0
 35 41  1  6  0  0  0
 37 38  1  0  0  0  0
 39 40  1  6  0  0  0
 41 42  1  0  0  0  0
M  END
>  <CHROM.1>
-158.14399023,-143.74646386,-108.99002375,47.34038494,-173.56173905,59.96105859
-61.96970908,-178.33616642,-68.42252868,12.74643842,14.14670468,-12.22724288
-1.48384195,1.01013365,-0.59129128

>  <Name>
2o3w_lig

>  <RI>
0

>  <Rbt.Current_Directory>
/home/itssahil/PROJECTS/Mol_Feturizer/New_Systems/rnas/2o3w

>  <Rbt.Executable>
rbdock ($Id: //depot/dev/client3/rdock/2013.1/src/exe/rbdock.cxx#4 $)

>  <Rbt.Library>
libRbt.so (2013.1, Build901 2013/11/27)

>  <Rbt.Parameter_File>
/export/apps/rDock/src/rDock_2013.1_src/data/scripts/dock_solv.prm

>  <Rbt.Receptor>
prm/blind_docking_80.prm

>  <SCORE>
4.28596

>  <SCORE.INTER>
-6.3026

>  <SCORE.INTER.CONST>
1

>  <SCORE.INTER.POLAR>
-0.134271

>  <SCORE.INTER.ROT>
9

>  <SCORE.INTER.SOLV>
31.8998

>  <SCORE.INTER.VDW>
-23.9874

>  <SCORE.INTER.norm>
-0.150062

>  <SCORE.INTRA>
0.606704

>  <SCORE.INTRA.DIHEDRAL>
-13.1335

>  <SCORE.INTRA.DIHEDRAL.0>
27.8999

>  <SCORE.INTRA.POLAR>
0

>  <SCORE.INTRA.POLAR.0>
0

>  <SCORE.INTRA.REPUL>
0

>  <SCORE.INTRA.REPUL.0>
0

>  <SCORE.INTRA.SOLV>
-0.297555

>  <SCORE.INTRA.SOLV.lig_0>
-104.479

>  <SCORE.INTRA.VDW>
7.32224

>  <SCORE.INTRA.VDW.0>
-6.17816

>  <SCORE.INTRA.norm>
0.0144453

>  <SCORE.RESTR>
9.98185

>  <SCORE.RESTR.CAVITY>
9.98185

>  <SCORE.RESTR.norm>
0.237663

>  <SCORE.SYSTEM>
0

>  <SCORE.SYSTEM.CONST>
0

>  <SCORE.SYSTEM.DIHEDRAL>
0

>  <SCORE.SYSTEM.SOLV>
0

>  <SCORE.SYSTEM.norm>
0

>  <SCORE.heavy>
42

>  <SCORE.norm>
0.102047

>  <RMSD>
20.090

$$$$
2o3w_lig
 OpenBabel11021811463D
libRbt.so/2013.1/901 2013/11/27
 42 45  0  0  0  0  0  0  0  0999 V2000
   11.5564   11.4149   -7.7400 C   0  0  2  0  0  0  0  0  0  0  0  0
   11.9339   11.9026   -9.0388 O   0  0  0  0  0  0  0  0  0  0  0  0
   12.5682    9.1635  -12.3389 C   0  0  2  0  0  0  0  0  0  0  0  0
   12.3603    8.3199  -13.5537 N   0  0  0  0  0  0  0  0  0  0  0  0
   12.7251   14.0329  -12.0865 C   0  0  1  0  0  0  0  0  0  0  0  0
   14.8250   16.9927  -14.7708 C   0  0  1  0  0  0  0  0  0  0  0  0
   10.9214   12.6123   -6.9711 C   0  0  2  0  0  0  0  0  0  0  0  0
    9.8870   13.3039   -7.7599 N   0  0  0  0  0  0  0  0  0  0  0  0
   11.6676    8.6695  -11.1361 C   0  0  0  0  0  0  0  0  0  0  0  0
   13.1967   13.8703  -13.5636 C   0  0  2  0  0  0  0  0  0  0  0  0
   14.4639   13.1823  -13.7053 O   0  0  0  0  0  0  0  0  0  0  0  0
   14.4802   18.4606  -14.3290 C   0  0  2  0  0  0  0  0  0  0  0  0
   13.0303   18.5904  -13.9947 N   0  0  0  0  0  0  0  0  0  0  0  0
   11.9652   13.6740   -6.5785 C   0  0  1  0  0  0  0  0  0  0  0  0
   11.3469   14.7312   -5.8429 O   0  0  0  0  0  0  0  0  0  0  0  0
   11.9469    9.5809   -9.8816 C   0  0  2  0  0  0  0  0  0  0  0  0
   11.1252    9.1345   -8.7244 N   0  0  0  0  0  0  0  0  0  0  0  0
   13.1742   15.3222  -14.0440 C   0  0  2  0  0  0  0  0  0  0  0  0
   14.4608   15.9825  -13.8218 O   0  0  0  0  0  0  0  0  0  0  0  0
   14.8946   19.4755  -15.4974 C   0  0  1  0  0  0  0  0  0  0  0  0
   16.3348   19.5932  -15.5250 O   0  0  0  0  0  0  0  0  0  0  0  0
   13.0977   13.0075   -5.7646 C   0  0  2  0  0  0  0  0  0  0  0  0
   14.0533   13.9696   -5.3830 O   0  0  0  0  0  0  0  0  0  0  0  0
   11.6248   11.0926  -10.2087 C   0  0  2  0  0  0  0  0  0  0  0  0
   12.0495   16.0131  -13.2547 C   0  0  2  0  0  0  0  0  0  0  0  0
   12.0472   15.3082  -12.0155 O   0  0  0  0  0  0  0  0  0  0  0  0
   14.3668   19.0141  -16.9382 C   0  0  2  0  0  0  0  0  0  0  0  0
   12.9466   19.1542  -16.9421 O   0  0  0  0  0  0  0  0  0  0  0  0
   13.7586   11.8858   -6.6334 C   0  0  2  0  0  0  0  0  0  0  0  0
   12.7458   10.9056   -7.0246 O   0  0  0  0  0  0  0  0  0  0  0  0
   12.4292   11.6293  -11.4130 C   0  0  2  0  0  0  0  0  0  0  0  0
   11.8794   12.9483  -11.6822 O   0  0  0  0  0  0  0  0  0  0  0  0
   10.6444   15.9638  -13.9311 C   0  0  0  0  0  0  0  0  0  0  0  0
   10.7534   16.4202  -15.2760 O   0  0  0  0  0  0  0  0  0  0  0  0
   14.7679   17.5176  -17.2241 C   0  0  1  0  0  0  0  0  0  0  0  0
   14.1974   16.7234  -16.1223 O   0  0  0  0  0  0  0  0  0  0  0  0
   14.8778   11.1734   -5.9097 C   0  0  0  0  0  0  0  0  0  0  0  0
   14.3639   10.1008   -5.1582 O   0  0  0  0  0  0  0  0  0  0  0  0
   12.2425   10.6758  -12.6666 C   0  0  1  0  0  0  0  0  0  0  0  0
   13.1037   11.0869  -13.7319 O   0  0  0  0  0  0  0  0  0  0  0  0
   14.2532   16.9653  -18.6236 C   0  0  0  0  0  0  0  0  0  0  0  0
   14.8028   17.6503  -19.8258 N   0  0  0  0  0  0  0  0  0  0  0  0
  1  2  1  6  0  0  0
  1  7  1  0  0  0  0
  1 30  1  0  0  0  0
  3  4  1  6  0  0  0
  3  9  1  0  0  0  0
  3 39  1  0  0  0  0
  5 10  1  0  0  0  0
  5 26  1  0  0  0  0
  5 32  1  6  0  0  0
  6 12  1  0  0  0  0
  6 36  1  0  0  0  0
  6 19  1  1  0  0  0
  7  8  1  6  0  0  0
  7 14  1  0  0  0  0
  9 16  1  0  0  0  0
 10 11  1  1  0  0  0
 10 18  1  0  0  0  0
 12 13  1  6  0  0  0
 12 20  1  0  0  0  0
 14 15  1  1  0  0  0
 14 22  1  0  0  0  0
 16 17  1  1  0  0  0
 16 24  1  0  0  0  0
 18 19  1  1  0  0  0
 18 25  1  0  0  0  0
 20 21  1  6  0  0  0
 20 27  1  0  0  0  0
 22 23  1  6  0  0  0
 22 29  1  0  0  0  0
 24  2  1  1  0  0  0
 24 31  1  0  0  0  0
 25 26  1  0  0  0  0
 25 33  1  6  0  0  0
 27 28  1  1  0  0  0
 27 35  1  0  0  0  0
 29 30  1  0  0  0  0
 29 37  1  1  0  0  0
 31 32  1  6  0  0  0
 31 39  1  0  0  0  0
 33 34  1  0  0  0  0
 35 36  1  0  0  0  0
 35 41  1  6  0  0  0
 37 38  1  0  0  0  0
 39 40  1  6  0  0  0
 41 42  1  0  0  0  0
M  END
>  <CHROM.1>
-135.39156704,73.78913186,96.17011377,148.44753100,-42.32840175,-51.22628122
87.55357750,142.35004291,63.14211842,12.95951516,14.00248247,-11.81498608
-2.36707418,-1.36514741,-1.72571536

>  <Name>
2o3w_lig

>  <RI>
0

>  <Rbt.Current_Directory>
/home/itssahil/PROJECTS/Mol_Feturizer/New_Systems/rnas/2o3w

>  <Rbt.Executable>
rbdock ($Id: //depot/dev/client3/rdock/2013.1/src/exe/rbdock.cxx#4 $)

>  <Rbt.Library>
libRbt.so (2013.1, Build901 2013/11/27)

>  <Rbt.Parameter_File>
/export/apps/rDock/src/rDock_2013.1_src/data/scripts/dock_solv.prm

>  <Rbt.Receptor>
prm/blind_docking_80.prm

>  <SCORE>
4.33198

>  <SCORE.INTER>
-10.6125

>  <SCORE.INTER.CONST>
1

>  <SCORE.INTER.POLAR>
-2.11524

>  <SCORE.INTER.ROT>
9

>  <SCORE.INTER.SOLV>
24.5203

>  <SCORE.INTER.VDW>
-17.7977

>  <SCORE.INTER.norm>
-0.252679

>  <SCORE.INTRA>
3.81312

>  <SCORE.INTRA.DIHEDRAL>
-3.18694

>  <SCORE.INTRA.DIHEDRAL.0>
27.8999

>  <SCORE.INTRA.POLAR>
0

>  <SCORE.INTRA.POLAR.0>
0

>  <SCORE.INTRA.REPUL>
0

>  <SCORE.INTRA.REPUL.0>
0

>  <SCORE.INTRA.SOLV>
0.197546

>  <SCORE.INTRA.SOLV.lig_0>
-104.479

>  <SCORE.INTRA.VDW>
5.30782

>  <SCORE.INTRA.VDW.0>
-6.17816

>  <SCORE.INTRA.norm>
0.0907886

>  <SCORE.RESTR>
11.1314

>  <SCORE.RESTR.CAVITY>
11.1314

>  <SCORE.RESTR.norm>
0.265033

>  <SCORE.SYSTEM>
0

>  <SCORE.SYSTEM.CONST>
0

>  <SCORE.SYSTEM.DIHEDRAL>
0

>  <SCORE.SYSTEM.SOLV>
0

>  <SCORE.SYSTEM.norm>
0

>  <SCORE.heavy>
42

>  <SCORE.norm>
0.103142

>  <RMSD>
20.138

$$$$
2o3w_lig
 OpenBabel11021811463D
libRbt.so/2013.1/901 2013/11/27
 42 45  0  0  0  0  0  0  0  0999 V2000
   11.9799   11.6170   -8.1237 C   0  0  2  0  0  0  0  0  0  0  0  0
   12.4606   12.0149   -9.4191 O   0  0  0  0  0  0  0  0  0  0  0  0
   13.6401    9.3570  -12.6347 C   0  0  2  0  0  0  0  0  0  0  0  0
   13.6055    8.4215  -13.7984 N   0  0  0  0  0  0  0  0  0  0  0  0
   12.4218   13.9408  -12.9388 C   0  0  1  0  0  0  0  0  0  0  0  0
   13.3193   17.3534  -14.6966 C   0  0  1  0  0  0  0  0  0  0  0  0
   11.4005   12.8928   -7.4418 C   0  0  2  0  0  0  0  0  0  0  0  0
   10.4647   13.6229   -8.3146 N   0  0  0  0  0  0  0  0  0  0  0  0
   12.9611    8.7124  -11.3598 C   0  0  0  0  0  0  0  0  0  0  0  0
   11.2825   14.3832  -13.9069 C   0  0  2  0  0  0  0  0  0  0  0  0
   11.3134   13.7207  -15.1950 O   0  0  0  0  0  0  0  0  0  0  0  0
   12.6853   18.7910  -14.7029 C   0  0  2  0  0  0  0  0  0  0  0  0
   12.0209   19.0752  -16.0101 N   0  0  0  0  0  0  0  0  0  0  0  0
   12.5015   13.8902   -7.0372 C   0  0  1  0  0  0  0  0  0  0  0  0
   11.9296   15.0234   -6.3817 O   0  0  0  0  0  0  0  0  0  0  0  0
   13.0483    9.7343  -10.1637 C   0  0  2  0  0  0  0  0  0  0  0  0
   12.4305    9.1537   -8.9411 N   0  0  0  0  0  0  0  0  0  0  0  0
   11.4894   15.8983  -13.9363 C   0  0  2  0  0  0  0  0  0  0  0  0
   12.4035   16.2958  -15.0073 O   0  0  0  0  0  0  0  0  0  0  0  0
   13.8249   19.8727  -14.3894 C   0  0  1  0  0  0  0  0  0  0  0  0
   14.1682   19.7966  -12.9875 O   0  0  0  0  0  0  0  0  0  0  0  0
   13.5355   13.1788   -6.1350 C   0  0  2  0  0  0  0  0  0  0  0  0
   14.5416   14.0831   -5.7421 O   0  0  0  0  0  0  0  0  0  0  0  0
   12.3218   11.0876  -10.5332 C   0  0  2  0  0  0  0  0  0  0  0  0
   12.0507   16.2770  -12.5554 C   0  0  2  0  0  0  0  0  0  0  0  0
   12.7864   15.1155  -12.1784 O   0  0  0  0  0  0  0  0  0  0  0  0
   15.1428   19.6627  -15.2762 C   0  0  2  0  0  0  0  0  0  0  0  0
   14.8122   19.9932  -16.6245 O   0  0  0  0  0  0  0  0  0  0  0  0
   14.1518   11.9720   -6.9183 C   0  0  2  0  0  0  0  0  0  0  0  0
   13.0878   11.0535   -7.3232 O   0  0  0  0  0  0  0  0  0  0  0  0
   12.8967   11.7480  -11.8055 C   0  0  2  0  0  0  0  0  0  0  0  0
   12.0047   12.8592  -12.0955 O   0  0  0  0  0  0  0  0  0  0  0  0
   10.9750   16.6328  -11.4828 C   0  0  0  0  0  0  0  0  0  0  0  0
   11.1837   15.8319  -10.3235 O   0  0  0  0  0  0  0  0  0  0  0  0
   15.6408   18.1706  -15.1870 C   0  0  1  0  0  0  0  0  0  0  0  0
   14.5113   17.3351  -15.6303 O   0  0  0  0  0  0  0  0  0  0  0  0
   15.1737   11.2118   -6.1049 C   0  0  0  0  0  0  0  0  0  0  0  0
   14.5446   10.1935   -5.3656 O   0  0  0  0  0  0  0  0  0  0  0  0
   12.9099   10.7099  -13.0047 C   0  0  1  0  0  0  0  0  0  0  0  0
   13.5794   11.2721  -14.1366 O   0  0  0  0  0  0  0  0  0  0  0  0
   16.9295   17.8643  -16.0668 C   0  0  0  0  0  0  0  0  0  0  0  0
   17.4534   16.4736  -15.9759 N   0  0  0  0  0  0  0  0  0  0  0  0
  1  2  1  6  0  0  0
  1  7  1  0  0  0  0
  1 30  1  0  0  0  0
  3  4  1  6  0  0  0
  3  9  1  0  0  0  0
  3 39  1  0  0  0  0
  5 10  1  0  0  0  0
  5 26  1  0  0  0  0
  5 32  1  1  0  0  0
  6 12  1  0  0  0  0
  6 36  1  0  0  0  0
  6 19  1  6  0  0  0
  7  8  1  6  0  0  0
  7 14  1  0  0  0  0
  9 16  1  0  0  0  0
 10 11  1  6  0  0  0
 10 18  1  0  0  0  0
 12 13  1  6  0  0  0
 12 20  1  0  0  0  0
 14 15  1  1  0  0  0
 14 22  1  0  0  0  0
 16 17  1  1  0  0  0
 16 24  1  0  0  0  0
 18 19  1  6  0  0  0
 18 25  1  0  0  0  0
 20 21  1  1  0  0  0
 20 27  1  0  0  0  0
 22 23  1  6  0  0  0
 22 29  1  0  0  0  0
 24  2  1  1  0  0  0
 24 31  1  0  0  0  0
 25 26  1  0  0  0  0
 25 33  1  1  0  0  0
 27 28  1  6  0  0  0
 27 35  1  0  0  0  0
 29 30  1  0  0  0  0
 29 37  1  1  0  0  0
 31 32  1  6  0  0  0
 31 39  1  0  0  0  0
 33 34  1  0  0  0  0
 35 36  1  0  0  0  0
 35 41  1  6  0  0  0
 37 38  1  0  0  0  0
 39 40  1  6  0  0  0
 41 42  1  0  0  0  0
M  END
>  <CHROM.1>
-144.22294550,138.79838423,-76.95255858,-141.27525814,-57.21142970,126.28514480
89.10482656,160.64810977,178.24875770,13.13673802,14.21552730,-11.60030292
3.10599118,-1.47525997,-2.41652149

>  <Name>
2o3w_lig

>  <RI>
0

>  <Rbt.Current_Directory>
/home/itssahil/PROJECTS/Mol_Feturizer/New_Systems/rnas/2o3w

>  <Rbt.Executable>
rbdock ($Id: //depot/dev/client3/rdock/2013.1/src/exe/rbdock.cxx#4 $)

>  <Rbt.Library>
libRbt.so (2013.1, Build901 2013/11/27)

>  <Rbt.Parameter_File>
/export/apps/rDock/src/rDock_2013.1_src/data/scripts/dock_solv.prm

>  <Rbt.Receptor>
prm/blind_docking_80.prm

>  <SCORE>
-2.54871

>  <SCORE.INTER>
-17.2921

>  <SCORE.INTER.CONST>
1

>  <SCORE.INTER.POLAR>
-2.80187

>  <SCORE.INTER.ROT>
9

>  <SCORE.INTER.SOLV>
24.9986

>  <SCORE.INTER.VDW>
-20.1213

>  <SCORE.INTER.norm>
-0.411716

>  <SCORE.INTRA>
5.05584

>  <SCORE.INTRA.DIHEDRAL>
-1.66295

>  <SCORE.INTRA.DIHEDRAL.0>
27.8999

>  <SCORE.INTRA.POLAR>
0

>  <SCORE.INTRA.POLAR.0>
0

>  <SCORE.INTRA.REPUL>
0.326598

>  <SCORE.INTRA.REPUL.0>
0

>  <SCORE.INTRA.SOLV>
-1.57498

>  <SCORE.INTRA.SOLV.lig_0>
-104.479

>  <SCORE.INTRA.VDW>
5.04181

>  <SCORE.INTRA.VDW.0>
-6.17816

>  <SCORE.INTRA.norm>
0.120377

>  <SCORE.RESTR>
9.68753

>  <SCORE.RESTR.CAVITY>
9.68753

>  <SCORE.RESTR.norm>
0.230656

>  <SCORE.SYSTEM>
0

>  <SCORE.SYSTEM.CONST>
0

>  <SCORE.SYSTEM.DIHEDRAL>
0

>  <SCORE.SYSTEM.SOLV>
0

>  <SCORE.SYSTEM.norm>
0

>  <SCORE.heavy>
42

>  <SCORE.norm>
-0.0606836

>  <RMSD>
20.153

$$$$
2o3w_lig
 OpenBabel11021811463D
libRbt.so/2013.1/901 2013/11/27
 42 45  0  0  0  0  0  0  0  0999 V2000
   13.1847   11.1414   -9.2495 C   0  0  2  0  0  0  0  0  0  0  0  0
   12.2873   11.5381  -10.3005 O   0  0  0  0  0  0  0  0  0  0  0  0
   14.9909   12.0159  -13.6558 C   0  0  2  0  0  0  0  0  0  0  0  0
   15.5630   12.0430  -15.0351 N   0  0  0  0  0  0  0  0  0  0  0  0
   11.5840   14.9050  -12.7491 C   0  0  1  0  0  0  0  0  0  0  0  0
   11.7218   17.6616  -14.1859 C   0  0  1  0  0  0  0  0  0  0  0  0
   12.4671   10.0225   -8.4365 C   0  0  2  0  0  0  0  0  0  0  0  0
   11.9247    8.9584   -9.2991 N   0  0  0  0  0  0  0  0  0  0  0  0
   14.6131   10.5431  -13.2200 C   0  0  0  0  0  0  0  0  0  0  0  0
   10.1107   15.1651  -13.1881 C   0  0  2  0  0  0  0  0  0  0  0  0
    9.8394   14.8272  -14.5705 O   0  0  0  0  0  0  0  0  0  0  0  0
   12.1905   19.1396  -14.4404 C   0  0  2  0  0  0  0  0  0  0  0  0
   11.4185   19.7588  -15.5591 N   0  0  0  0  0  0  0  0  0  0  0  0
   11.2890   10.5667   -7.6076 C   0  0  1  0  0  0  0  0  0  0  0  0
   10.6870    9.5161   -6.8495 O   0  0  0  0  0  0  0  0  0  0  0  0
   14.0381   10.5765  -11.7535 C   0  0  2  0  0  0  0  0  0  0  0  0
   13.6848    9.2027  -11.3048 N   0  0  0  0  0  0  0  0  0  0  0  0
    9.9482   16.6415  -12.8230 C   0  0  2  0  0  0  0  0  0  0  0  0
   10.3182   17.5150  -13.9369 O   0  0  0  0  0  0  0  0  0  0  0  0
   13.7622   19.1497  -14.7510 C   0  0  1  0  0  0  0  0  0  0  0  0
   14.4828   18.9055  -13.5222 O   0  0  0  0  0  0  0  0  0  0  0  0
   11.7864   11.7091   -6.6929 C   0  0  2  0  0  0  0  0  0  0  0  0
   10.7228   12.2071   -5.9149 O   0  0  0  0  0  0  0  0  0  0  0  0
   12.7613   11.5039  -11.6769 C   0  0  2  0  0  0  0  0  0  0  0  0
   10.8546   16.8794  -11.6034 C   0  0  2  0  0  0  0  0  0  0  0  0
   11.9164   15.9500  -11.8064 O   0  0  0  0  0  0  0  0  0  0  0  0
   14.1868   18.0606  -15.8469 C   0  0  2  0  0  0  0  0  0  0  0  0
   13.6549   18.4823  -17.1021 O   0  0  0  0  0  0  0  0  0  0  0  0
   12.4007   12.8427   -7.5801 C   0  0  2  0  0  0  0  0  0  0  0  0
   13.4951   12.2994   -8.3843 O   0  0  0  0  0  0  0  0  0  0  0  0
   13.0421   12.9492  -12.1432 C   0  0  2  0  0  0  0  0  0  0  0  0
   11.7409   13.5972  -12.1835 O   0  0  0  0  0  0  0  0  0  0  0  0
   10.1690   16.6549  -10.2201 C   0  0  0  0  0  0  0  0  0  0  0  0
    9.7683   15.2926  -10.1092 O   0  0  0  0  0  0  0  0  0  0  0  0
   13.6232   16.6396  -15.4656 C   0  0  1  0  0  0  0  0  0  0  0  0
   12.1632   16.7965  -15.3477 O   0  0  0  0  0  0  0  0  0  0  0  0
   12.9207   14.0030   -6.7633 C   0  0  0  0  0  0  0  0  0  0  0  0
   11.8490   14.7083   -6.1858 O   0  0  0  0  0  0  0  0  0  0  0  0
   13.7113   12.9419  -13.5812 C   0  0  1  0  0  0  0  0  0  0  0  0
   14.1087   14.2662  -13.9472 O   0  0  0  0  0  0  0  0  0  0  0  0
   13.9702   15.5010  -16.5201 C   0  0  0  0  0  0  0  0  0  0  0  0
   15.3733   15.4927  -17.0179 N   0  0  0  0  0  0  0  0  0  0  0  0
  1  2  1  6  0  0  0
  1  7  1  0  0  0  0
  1 30  1  0  0  0  0
  3  4  1  6  0  0  0
  3  9  1  0  0  0  0
  3 39  1  0  0  0  0
  5 10  1  0  0  0  0
  5 26  1  0  0  0  0
  5 32  1  1  0  0  0
  6 12  1  0  0  0  0
  6 36  1  0  0  0  0
  6 19  1  6  0  0  0
  7  8  1  6  0  0  0
  7 14  1  0  0  0  0
  9 16  1  0  0  0  0
 10 11  1  6  0  0  0
 10 18  1  0  0  0  0
 12 13  1  6  0  0  0
 12 20  1  0  0  0  0
 14 15  1  1  0  0  0
 14 22  1  0  0  0  0
 16 17  1  6  0  0  0
 16 24  1  0  0  0  0
 18 19  1  6  0  0  0
 18 25  1  0  0  0  0
 20 21  1  1  0  0  0
 20 27  1  0  0  0  0
 22 23  1  6  0  0  0
 22 29  1  0  0  0  0
 24  2  1  1  0  0  0
 24 31  1  0  0  0  0
 25 26  1  0  0  0  0
 25 33  1  1  0  0  0
 27 28  1  6  0  0  0
 27 35  1  0  0  0  0
 29 30  1  0  0  0  0
 29 37  1  1  0  0  0
 31 32  1  6  0  0  0
 31 39  1  0  0  0  0
 33 34  1  0  0  0  0
 35 36  1  0  0  0  0
 35 41  1  6  0  0  0
 37 38  1  0  0  0  0
 39 40  1  1  0  0  0
 41 42  1  0  0  0  0
M  END
>  <CHROM.1>
-125.40825646,157.89723205,-134.96823361,-75.50221349,18.62952526,62.78820853
-69.65899771,-171.43108183,44.40445155,12.45740645,14.27340220,-11.94031050
-1.72287660,0.99622137,-0.71805060

>  <Name>
2o3w_lig

>  <RI>
0

>  <Rbt.Current_Directory>
/home/itssahil/PROJECTS/Mol_Feturizer/New_Systems/rnas/2o3w

>  <Rbt.Executable>
rbdock ($Id: //depot/dev/client3/rdock/2013.1/src/exe/rbdock.cxx#4 $)

>  <Rbt.Library>
libRbt.so (2013.1, Build901 2013/11/27)

>  <Rbt.Parameter_File>
/export/apps/rDock/src/rDock_2013.1_src/data/scripts/dock_solv.prm

>  <Rbt.Receptor>
prm/blind_docking_80.prm

>  <SCORE>
14.3505

>  <SCORE.INTER>
0.769461

>  <SCORE.INTER.CONST>
1

>  <SCORE.INTER.POLAR>
0

>  <SCORE.INTER.ROT>
9

>  <SCORE.INTER.SOLV>
22.7661

>  <SCORE.INTER.VDW>
-16.6757

>  <SCORE.INTER.norm>
0.0183205

>  <SCORE.INTRA>
3.02561

>  <SCORE.INTRA.DIHEDRAL>
-4.27453

>  <SCORE.INTRA.DIHEDRAL.0>
27.8999

>  <SCORE.INTRA.POLAR>
0

>  <SCORE.INTRA.POLAR.0>
0

>  <SCORE.INTRA.REPUL>
0

>  <SCORE.INTRA.REPUL.0>
0

>  <SCORE.INTRA.SOLV>
2.04248

>  <SCORE.INTRA.SOLV.lig_0>
-104.479

>  <SCORE.INTRA.VDW>
4.14163

>  <SCORE.INTRA.VDW.0>
-6.17816

>  <SCORE.INTRA.norm>
0.0720383

>  <SCORE.RESTR>
10.5554

>  <SCORE.RESTR.CAVITY>
10.5554

>  <SCORE.RESTR.norm>
0.251319

>  <SCORE.SYSTEM>
0

>  <SCORE.SYSTEM.CONST>
0

>  <SCORE.SYSTEM.DIHEDRAL>
0

>  <SCORE.SYSTEM.SOLV>
0

>  <SCORE.SYSTEM.norm>
0

>  <SCORE.heavy>
42

>  <SCORE.norm>
0.341678

>  <RMSD>
20.159

$$$$
2o3w_lig
 OpenBabel11021811463D
libRbt.so/2013.1/901 2013/11/27
 42 45  0  0  0  0  0  0  0  0999 V2000
   13.3449   11.4763  -11.7152 C   0  0  2  0  0  0  0  0  0  0  0  0
   12.5987   11.1986  -10.5179 O   0  0  0  0  0  0  0  0  0  0  0  0
   11.1389   13.6899   -7.2840 C   0  0  2  0  0  0  0  0  0  0  0  0
   11.0588   14.6865   -6.1745 N   0  0  0  0  0  0  0  0  0  0  0  0
   12.0165   15.2508  -11.4948 C   0  0  1  0  0  0  0  0  0  0  0  0
   12.0219   18.0707  -14.6088 C   0  0  1  0  0  0  0  0  0  0  0  0
   12.8302   10.4944  -12.8102 C   0  0  2  0  0  0  0  0  0  0  0  0
   11.3607   10.4883  -12.9163 N   0  0  0  0  0  0  0  0  0  0  0  0
   12.1041   12.4933   -6.9121 C   0  0  0  0  0  0  0  0  0  0  0  0
   12.3226   15.3403  -13.0209 C   0  0  2  0  0  0  0  0  0  0  0  0
   13.5914   15.9670  -13.3318 O   0  0  0  0  0  0  0  0  0  0  0  0
   11.9454   17.2406  -15.9407 C   0  0  2  0  0  0  0  0  0  0  0  0
   12.3590   15.8239  -15.7109 N   0  0  0  0  0  0  0  0  0  0  0  0
   13.2627    9.0411  -12.5419 C   0  0  1  0  0  0  0  0  0  0  0  0
   12.8039    8.1842  -13.5888 O   0  0  0  0  0  0  0  0  0  0  0  0
   12.1295   11.4677   -8.1079 C   0  0  2  0  0  0  0  0  0  0  0  0
   13.0185   10.3191   -7.7856 N   0  0  0  0  0  0  0  0  0  0  0  0
   11.0800   16.0721  -13.5307 C   0  0  2  0  0  0  0  0  0  0  0  0
   11.2680   17.5231  -13.5200 O   0  0  0  0  0  0  0  0  0  0  0  0
   12.8673   17.9364  -17.0510 C   0  0  1  0  0  0  0  0  0  0  0  0
   12.2150   19.1409  -17.5119 O   0  0  0  0  0  0  0  0  0  0  0  0
   14.8002    8.9795  -12.3951 C   0  0  2  0  0  0  0  0  0  0  0  0
   15.2139    7.6526  -12.1657 O   0  0  0  0  0  0  0  0  0  0  0  0
   12.6286   12.1690   -9.4326 C   0  0  2  0  0  0  0  0  0  0  0  0
    9.9290   15.6525  -12.6009 C   0  0  2  0  0  0  0  0  0  0  0  0
   10.5876   15.4250  -11.3571 O   0  0  0  0  0  0  0  0  0  0  0  0
   14.3319   18.2941  -16.5083 C   0  0  2  0  0  0  0  0  0  0  0  0
   15.0274   17.0651  -16.3030 O   0  0  0  0  0  0  0  0  0  0  0  0
   15.2379    9.9075  -11.2133 C   0  0  2  0  0  0  0  0  0  0  0  0
   14.7890   11.2759  -11.4700 O   0  0  0  0  0  0  0  0  0  0  0  0
   11.7640   13.3859   -9.8284 C   0  0  2  0  0  0  0  0  0  0  0  0
   12.4650   14.0071  -10.9407 O   0  0  0  0  0  0  0  0  0  0  0  0
    9.1415   14.3858  -13.0588 C   0  0  0  0  0  0  0  0  0  0  0  0
   10.0244   13.2685  -13.0894 O   0  0  0  0  0  0  0  0  0  0  0  0
   14.2425   19.1021  -15.1587 C   0  0  1  0  0  0  0  0  0  0  0  0
   13.4751   18.2582  -14.2265 O   0  0  0  0  0  0  0  0  0  0  0  0
   16.7342    9.9130  -11.0017 C   0  0  0  0  0  0  0  0  0  0  0  0
   17.3922   10.2431  -12.2005 O   0  0  0  0  0  0  0  0  0  0  0  0
   11.6416   14.3923   -8.6085 C   0  0  1  0  0  0  0  0  0  0  0  0
   10.7205   15.4401   -8.9238 O   0  0  0  0  0  0  0  0  0  0  0  0
   15.6558   19.4709  -14.5299 C   0  0  0  0  0  0  0  0  0  0  0  0
   15.6656   20.6478  -13.6182 N   0  0  0  0  0  0  0  0  0  0  0  0
  1  2  1  1  0  0  0
  1  7  1  0  0  0  0
  1 30  1  0  0  0  0
  3  4  1  1  0  0  0
  3  9  1  0  0  0  0
  3 39  1  0  0  0  0
  5 10  1  0  0  0  0
  5 26  1  0  0  0  0
  5 32  1  6  0  0  0
  6 12  1  0  0  0  0
  6 36  1  0  0  0  0
  6 19  1  1  0  0  0
  7  8  1  1  0  0  0
  7 14  1  0  0  0  0
  9 16  1  0  0  0  0
 10 11  1  1  0  0  0
 10 18  1  0  0  0  0
 12 13  1  1  0  0  0
 12 20  1  0  0  0  0
 14 15  1  6  0  0  0
 14 22  1  0  0  0  0
 16 17  1  1  0  0  0
 16 24  1  0  0  0  0
 18 19  1  1  0  0  0
 18 25  1  0  0  0  0
 20 21  1  1  0  0  0
 20 27  1  0  0  0  0
 22 23  1  1  0  0  0
 22 29  1  0  0  0  0
 24  2  1  6  0  0  0
 24 31  1  0  0  0  0
 25 26  1  0  0  0  0
 25 33  1  6  0  0  0
 27 28  1  1  0  0  0
 27 35  1  0  0  0  0
 29 30  1  0  0  0  0
 29 37  1  6  0  0  0
 31 32  1  6  0  0  0
 31 39  1  0  0  0  0
 33 34  1  0  0  0  0
 35 36  1  0  0  0  0
 35 41  1  1  0  0  0
 37 38  1  0  0  0  0
 39 40  1  6  0  0  0
 41 42  1  0  0  0  0
M  END
>  <CHROM.1>
-165.03416907,-148.38341730,28.06663343,79.39887431,-162.80826460,61.97033006
54.25262078,-174.09192222,156.20793499,12.84432370,14.05886025,-12.27841932
-1.51568260,0.97986617,-0.60385669

>  <Name>
2o3w_lig

>  <RI>
0

>  <Rbt.Current_Directory>
/home/itssahil/PROJECTS/Mol_Feturizer/New_Systems/rnas/2o3w

>  <Rbt.Executable>
rbdock ($Id: //depot/dev/client3/rdock/2013.1/src/exe/rbdock.cxx#4 $)

>  <Rbt.Library>
libRbt.so (2013.1, Build901 2013/11/27)

>  <Rbt.Parameter_File>
/export/apps/rDock/src/rDock_2013.1_src/data/scripts/dock_solv.prm

>  <Rbt.Receptor>
prm/blind_docking_80.prm

>  <SCORE>
2.54892

>  <SCORE.INTER>
-3.13002

>  <SCORE.INTER.CONST>
1

>  <SCORE.INTER.POLAR>
-0.263595

>  <SCORE.INTER.ROT>
9

>  <SCORE.INTER.SOLV>
30.4189

>  <SCORE.INTER.VDW>
-20.9477

>  <SCORE.INTER.norm>
-0.0745243

>  <SCORE.INTRA>
-0.412089

>  <SCORE.INTRA.DIHEDRAL>
-13.7621

>  <SCORE.INTRA.DIHEDRAL.0>
27.8999

>  <SCORE.INTRA.POLAR>
0

>  <SCORE.INTRA.POLAR.0>
0

>  <SCORE.INTRA.REPUL>
0

>  <SCORE.INTRA.REPUL.0>
0

>  <SCORE.INTRA.SOLV>
0.662853

>  <SCORE.INTRA.SOLV.lig_0>
-104.479

>  <SCORE.INTRA.VDW>
6.13752

>  <SCORE.INTRA.VDW.0>
-6.17816

>  <SCORE.INTRA.norm>
-0.00981165

>  <SCORE.RESTR>
6.09103

>  <SCORE.RESTR.CAVITY>
6.09103

>  <SCORE.RESTR.norm>
0.145025

>  <SCORE.SYSTEM>
0

>  <SCORE.SYSTEM.CONST>
0

>  <SCORE.SYSTEM.DIHEDRAL>
0

>  <SCORE.SYSTEM.SOLV>
0

>  <SCORE.SYSTEM.norm>
0

>  <SCORE.heavy>
42

>  <SCORE.norm>
0.0606886

>  <RMSD>
20.176

$$$$
2o3w_lig
 OpenBabel11021811463D
libRbt.so/2013.1/901 2013/11/27
 42 45  0  0  0  0  0  0  0  0999 V2000
   12.5299   10.8942  -11.6343 C   0  0  2  0  0  0  0  0  0  0  0  0
   12.5971   10.7661  -10.2038 O   0  0  0  0  0  0  0  0  0  0  0  0
   11.2772   13.3962   -7.0200 C   0  0  2  0  0  0  0  0  0  0  0  0
   11.0913   14.5856   -6.1361 N   0  0  0  0  0  0  0  0  0  0  0  0
   11.7810   14.0421  -11.3984 C   0  0  1  0  0  0  0  0  0  0  0  0
   13.0545   16.7334  -14.5698 C   0  0  1  0  0  0  0  0  0  0  0  0
   12.5085    9.4504  -12.2199 C   0  0  2  0  0  0  0  0  0  0  0  0
   11.5014    8.5934  -11.5704 N   0  0  0  0  0  0  0  0  0  0  0  0
   12.7681   12.8705   -6.9687 C   0  0  0  0  0  0  0  0  0  0  0  0
   11.3359   14.4737  -12.8289 C   0  0  2  0  0  0  0  0  0  0  0  0
   12.0284   13.7802  -13.8959 O   0  0  0  0  0  0  0  0  0  0  0  0
   14.4450   16.3763  -15.2085 C   0  0  2  0  0  0  0  0  0  0  0  0
   15.5645   16.9564  -14.4079 N   0  0  0  0  0  0  0  0  0  0  0  0
   13.8647    8.7375  -12.0665 C   0  0  1  0  0  0  0  0  0  0  0  0
   13.8109    7.4351  -12.6511 O   0  0  0  0  0  0  0  0  0  0  0  0
   12.8956   11.6062   -7.9003 C   0  0  2  0  0  0  0  0  0  0  0  0
   14.2851   11.0754   -7.8648 N   0  0  0  0  0  0  0  0  0  0  0  0
   11.5605   15.9853  -12.7664 C   0  0  2  0  0  0  0  0  0  0  0  0
   12.9112   16.3468  -13.1973 O   0  0  0  0  0  0  0  0  0  0  0  0
   14.4839   16.9057  -16.7202 C   0  0  1  0  0  0  0  0  0  0  0  0
   13.6488   16.0531  -17.5354 O   0  0  0  0  0  0  0  0  0  0  0  0
   14.9756    9.5990  -12.7088 C   0  0  2  0  0  0  0  0  0  0  0  0
   16.2215    8.9522  -12.5916 O   0  0  0  0  0  0  0  0  0  0  0  0
   12.5043   11.9683   -9.3874 C   0  0  2  0  0  0  0  0  0  0  0  0
   11.3151   16.3909  -11.3033 C   0  0  2  0  0  0  0  0  0  0  0  0
   11.7142   15.2306  -10.5773 O   0  0  0  0  0  0  0  0  0  0  0  0
   13.9961   18.4255  -16.8597 C   0  0  2  0  0  0  0  0  0  0  0  0
   14.9867   19.2536  -16.2519 O   0  0  0  0  0  0  0  0  0  0  0  0
   15.0095   10.9963  -12.0046 C   0  0  2  0  0  0  0  0  0  0  0  0
   13.7036   11.6430  -12.1317 O   0  0  0  0  0  0  0  0  0  0  0  0
   11.0759   12.5432   -9.5077 C   0  0  2  0  0  0  0  0  0  0  0  0
   10.9572   12.9858  -10.8878 O   0  0  0  0  0  0  0  0  0  0  0  0
    9.8431   16.7843  -10.9674 C   0  0  0  0  0  0  0  0  0  0  0  0
    9.4676   17.9134  -11.7503 O   0  0  0  0  0  0  0  0  0  0  0  0
   12.6044   18.6300  -16.1502 C   0  0  1  0  0  0  0  0  0  0  0  0
   12.7940   18.2142  -14.7497 O   0  0  0  0  0  0  0  0  0  0  0  0
   16.0680   11.9105  -12.5771 C   0  0  0  0  0  0  0  0  0  0  0  0
   15.9130   12.0185  -13.9712 O   0  0  0  0  0  0  0  0  0  0  0  0
   10.8882   13.7608   -8.5087 C   0  0  1  0  0  0  0  0  0  0  0  0
    9.5254   14.1947   -8.5101 O   0  0  0  0  0  0  0  0  0  0  0  0
   12.0593   20.1226  -16.2114 C   0  0  0  0  0  0  0  0  0  0  0  0
   11.7181   20.6265  -17.5701 N   0  0  0  0  0  0  0  0  0  0  0  0
  1  2  1  1  0  0  0
  1  7  1  0  0  0  0
  1 30  1  0  0  0  0
  3  4  1  1  0  0  0
  3  9  1  0  0  0  0
  3 39  1  0  0  0  0
  5 10  1  0  0  0  0
  5 26  1  0  0  0  0
  5 32  1  1  0  0  0
  6 12  1  0  0  0  0
  6 36  1  0  0  0  0
  6 19  1  1  0  0  0
  7  8  1  1  0  0  0
  7 14  1  0  0  0  0
  9 16  1  0  0  0  0
 10 11  1  6  0  0  0
 10 18  1  0  0  0  0
 12 13  1  1  0  0  0
 12 20  1  0  0  0  0
 14 15  1  6  0  0  0
 14 22  1  0  0  0  0
 16 17  1  6  0  0  0
 16 24  1  0  0  0  0
 18 19  1  1  0  0  0
 18 25  1  0  0  0  0
 20 21  1  6  0  0  0
 20 27  1  0  0  0  0
 22 23  1  1  0  0  0
 22 29  1  0  0  0  0
 24  2  1  6  0  0  0
 24 31  1  0  0  0  0
 25 26  1  0  0  0  0
 25 33  1  6  0  0  0
 27 28  1  1  0  0  0
 27 35  1  0  0  0  0
 29 30  1  0  0  0  0
 29 37  1  6  0  0  0
 31 32  1  6  0  0  0
 31 39  1  0  0  0  0
 33 34  1  0  0  0  0
 35 36  1  0  0  0  0
 35 41  1  1  0  0  0
 37 38  1  0  0  0  0
 39 40  1  1  0  0  0
 41 42  1  0  0  0  0
M  END
>  <CHROM.1>
-174.34484608,-171.91867928,-148.65032777,95.49911207,-168.57632447,-61.28593034
53.74672245,-63.81872342,65.60491208,12.79798836,14.03332795,-12.26484571
-1.58570307,0.96010989,-0.63645013

>  <Name>
2o3w_lig

>  <RI>
0

>  <Rbt.Current_Directory>
/home/itssahil/PROJECTS/Mol_Feturizer/New_Systems/rnas/2o3w

>  <Rbt.Executable>
rbdock ($Id: //depot/dev/client3/rdock/2013.1/src/exe/rbdock.cxx#4 $)

>  <Rbt.Library>
libRbt.so (2013.1, Build901 2013/11/27)

>  <Rbt.Parameter_File>
/export/apps/rDock/src/rDock_2013.1_src/data/scripts/dock_solv.prm

>  <Rbt.Receptor>
prm/blind_docking_80.prm

>  <SCORE>
0.843317

>  <SCORE.INTER>
1.09854

>  <SCORE.INTER.CONST>
1

>  <SCORE.INTER.POLAR>
-0.360267

>  <SCORE.INTER.ROT>
9

>  <SCORE.INTER.SOLV>
36.4294

>  <SCORE.INTER.VDW>
-19.8099

>  <SCORE.INTER.norm>
0.0261557

>  <SCORE.INTRA>
-9.07218

>  <SCORE.INTRA.DIHEDRAL>
-17.9259

>  <SCORE.INTRA.DIHEDRAL.0>
27.8999

>  <SCORE.INTRA.POLAR>
0

>  <SCORE.INTRA.POLAR.0>
0

>  <SCORE.INTRA.REPUL>
0

>  <SCORE.INTRA.REPUL.0>
0

>  <SCORE.INTRA.SOLV>
-5.06587

>  <SCORE.INTRA.SOLV.lig_0>
-104.479

>  <SCORE.INTRA.VDW>
2.42368

>  <SCORE.INTRA.VDW.0>
-6.17816

>  <SCORE.INTRA.norm>
-0.216004

>  <SCORE.RESTR>
8.81696

>  <SCORE.RESTR.CAVITY>
8.81696

>  <SCORE.RESTR.norm>
0.209928

>  <SCORE.SYSTEM>
0

>  <SCORE.SYSTEM.CONST>
0

>  <SCORE.SYSTEM.DIHEDRAL>
0

>  <SCORE.SYSTEM.SOLV>
0

>  <SCORE.SYSTEM.norm>
0

>  <SCORE.heavy>
42

>  <SCORE.norm>
0.020079

>  <RMSD>
20.184

$$$$
2o3w_lig
 OpenBabel11021811463D
libRbt.so/2013.1/901 2013/11/27
 42 45  0  0  0  0  0  0  0  0999 V2000
   13.2840   11.5838  -11.7339 C   0  0  2  0  0  0  0  0  0  0  0  0
   12.8695   11.4260  -10.3662 O   0  0  0  0  0  0  0  0  0  0  0  0
   11.0341   14.0626   -7.4549 C   0  0  2  0  0  0  0  0  0  0  0  0
   10.7212   15.2444   -6.5972 N   0  0  0  0  0  0  0  0  0  0  0  0
   12.0764   15.0227  -11.5783 C   0  0  1  0  0  0  0  0  0  0  0  0
   13.8363   17.4982  -14.1379 C   0  0  1  0  0  0  0  0  0  0  0  0
   12.4991   10.5301  -12.5717 C   0  0  2  0  0  0  0  0  0  0  0  0
   11.0518   10.5562  -12.2972 N   0  0  0  0  0  0  0  0  0  0  0  0
   12.4573   13.4643   -7.1107 C   0  0  0  0  0  0  0  0  0  0  0  0
   12.0219   15.3726  -13.0966 C   0  0  2  0  0  0  0  0  0  0  0  0
   13.2113   14.9934  -13.8318 O   0  0  0  0  0  0  0  0  0  0  0  0
   14.7994   18.7122  -14.3974 C   0  0  2  0  0  0  0  0  0  0  0  0
   14.0276   19.9812  -14.5549 N   0  0  0  0  0  0  0  0  0  0  0  0
   12.9778    9.0923  -12.2987 C   0  0  1  0  0  0  0  0  0  0  0  0
   12.2599    8.1656  -13.1153 O   0  0  0  0  0  0  0  0  0  0  0  0
   12.7198   12.2113   -8.0292 C   0  0  2  0  0  0  0  0  0  0  0  0
   14.0470   11.6132   -7.7216 N   0  0  0  0  0  0  0  0  0  0  0  0
   11.7249   16.8721  -13.0454 C   0  0  2  0  0  0  0  0  0  0  0  0
   12.9551   17.6637  -13.0200 O   0  0  0  0  0  0  0  0  0  0  0  0
   15.6878   18.4139  -15.6969 C   0  0  1  0  0  0  0  0  0  0  0  0
   16.6823   17.4192  -15.3647 O   0  0  0  0  0  0  0  0  0  0  0  0
   14.5008    9.0003  -12.5458 C   0  0  2  0  0  0  0  0  0  0  0  0
   14.9520    7.6857  -12.3162 O   0  0  0  0  0  0  0  0  0  0  0  0
   12.6622   12.6172   -9.5549 C   0  0  2  0  0  0  0  0  0  0  0  0
   10.8914   17.0965  -11.7724 C   0  0  2  0  0  0  0  0  0  0  0  0
   11.3694   16.0816  -10.8927 O   0  0  0  0  0  0  0  0  0  0  0  0
   14.8170   17.9060  -16.9425 C   0  0  2  0  0  0  0  0  0  0  0  0
   14.0284   19.0063  -17.3941 O   0  0  0  0  0  0  0  0  0  0  0  0
   15.2333   10.0095  -11.6000 C   0  0  2  0  0  0  0  0  0  0  0  0
   14.7414   11.3642  -11.8504 O   0  0  0  0  0  0  0  0  0  0  0  0
   11.3166   13.2627   -9.9524 C   0  0  2  0  0  0  0  0  0  0  0  0
   11.5067   13.7339  -11.3149 O   0  0  0  0  0  0  0  0  0  0  0  0
    9.3475   16.9875  -11.9689 C   0  0  0  0  0  0  0  0  0  0  0  0
    8.9950   15.6234  -12.1784 O   0  0  0  0  0  0  0  0  0  0  0  0
   13.8876   16.7066  -16.5187 C   0  0  1  0  0  0  0  0  0  0  0  0
   13.0612   17.2030  -15.4048 O   0  0  0  0  0  0  0  0  0  0  0  0
   16.7337    9.9909  -11.7798 C   0  0  0  0  0  0  0  0  0  0  0  0
   17.2559    8.7510  -11.3685 O   0  0  0  0  0  0  0  0  0  0  0  0
   10.9792   14.4708   -8.9816 C   0  0  1  0  0  0  0  0  0  0  0  0
    9.6668   14.9703   -9.2531 O   0  0  0  0  0  0  0  0  0  0  0  0
   12.9608   16.1604  -17.6897 C   0  0  0  0  0  0  0  0  0  0  0  0
   13.6709   15.4737  -18.8036 N   0  0  0  0  0  0  0  0  0  0  0  0
  1  2  1  1  0  0  0
  1  7  1  0  0  0  0
  1 30  1  0  0  0  0
  3  4  1  1  0  0  0
  3  9  1  0  0  0  0
  3 39  1  0  0  0  0
  5 10  1  0  0  0  0
  5 26  1  0  0  0  0
  5 32  1  6  0  0  0
  6 12  1  0  0  0  0
  6 36  1  0  0  0  0
  6 19  1  1  0  0  0
  7  8  1  1  0  0  0
  7 14  1  0  0  0  0
  9 16  1  0  0  0  0
 10 11  1  1  0  0  0
 10 18  1  0  0  0  0
 12 13  1  6  0  0  0
 12 20  1  0  0  0  0
 14 15  1  6  0  0  0
 14 22  1  0  0  0  0
 16 17  1  1  0  0  0
 16 24  1  0  0  0  0
 18 19  1  1  0  0  0
 18 25  1  0  0  0  0
 20 21  1  1  0  0  0
 20 27  1  0  0  0  0
 22 23  1  1  0  0  0
 22 29  1  0  0  0  0
 24  2  1  6  0  0  0
 24 31  1  0  0  0  0
 25 26  1  0  0  0  0
 25 33  1  6  0  0  0
 27 28  1  1  0  0  0
 27 35  1  0  0  0  0
 29 30  1  0  0  0  0
 29 37  1  6  0  0  0
 31 32  1  6  0  0  0
 31 39  1  0  0  0  0
 33 34  1  0  0  0  0
 35 36  1  0  0  0  0
 35 41  1  6  0  0  0
 37 38  1  0  0  0  0
 39 40  1  6  0  0  0
 41 42  1  0  0  0  0
M  END
>  <CHROM.1>
-139.81309524,-173.18282818,156.25126770,59.71221852,-160.28133595,71.84159237
-66.13981789,-85.93330112,68.11424896,12.99405849,14.12696223,-12.35644388
-1.63904481,0.95402958,-0.57124281

>  <Name>
2o3w_lig

>  <RI>
0

>  <Rbt.Current_Directory>
/home/itssahil/PROJECTS/Mol_Feturizer/New_Systems/rnas/2o3w

>  <Rbt.Executable>
rbdock ($Id: //depot/dev/client3/rdock/2013.1/src/exe/rbdock.cxx#4 $)

>  <Rbt.Library>
libRbt.so (2013.1, Build901 2013/11/27)

>  <Rbt.Parameter_File>
/export/apps/rDock/src/rDock_2013.1_src/data/scripts/dock_solv.prm

>  <Rbt.Receptor>
prm/blind_docking_80.prm

>  <SCORE>
-3.64262

>  <SCORE.INTER>
-8.83914

>  <SCORE.INTER.CONST>
1

>  <SCORE.INTER.POLAR>
0

>  <SCORE.INTER.ROT>
9

>  <SCORE.INTER.SOLV>
24.9803

>  <SCORE.INTER.VDW>
-23.8195

>  <SCORE.INTER.norm>
-0.210456

>  <SCORE.INTRA>
-2.87074

>  <SCORE.INTRA.DIHEDRAL>
-14.2738

>  <SCORE.INTRA.DIHEDRAL.0>
27.8999

>  <SCORE.INTRA.POLAR>
0

>  <SCORE.INTRA.POLAR.0>
0

>  <SCORE.INTRA.REPUL>
0

>  <SCORE.INTRA.REPUL.0>
0

>  <SCORE.INTRA.SOLV>
-2.23639

>  <SCORE.INTRA.SOLV.lig_0>
-104.479

>  <SCORE.INTRA.VDW>
5.38434

>  <SCORE.INTRA.VDW.0>
-6.17816

>  <SCORE.INTRA.norm>
-0.068351

>  <SCORE.RESTR>
8.06727

>  <SCORE.RESTR.CAVITY>
8.06727

>  <SCORE.RESTR.norm>
0.192078

>  <SCORE.SYSTEM>
0

>  <SCORE.SYSTEM.CONST>
0

>  <SCORE.SYSTEM.DIHEDRAL>
0

>  <SCORE.SYSTEM.SOLV>
0

>  <SCORE.SYSTEM.norm>
0

>  <SCORE.heavy>
42

>  <SCORE.norm>
-0.0867291

>  <RMSD>
20.330

$$$$
2o3w_lig
 OpenBabel11021811463D
libRbt.so/2013.1/901 2013/11/27
 42 45  0  0  0  0  0  0  0  0999 V2000
   10.6546   17.4726  -12.5861 C   0  0  2  0  0  0  0  0  0  0  0  0
   11.4672   16.4775  -11.9406 O   0  0  0  0  0  0  0  0  0  0  0  0
   10.3908   13.0354  -14.3466 C   0  0  2  0  0  0  0  0  0  0  0  0
   10.3976   11.6926  -15.0003 N   0  0  0  0  0  0  0  0  0  0  0  0
   11.4311   12.9152  -10.1393 C   0  0  1  0  0  0  0  0  0  0  0  0
   13.6093   10.7125  -10.3452 C   0  0  1  0  0  0  0  0  0  0  0  0
   10.6931   18.7448  -11.6870 C   0  0  2  0  0  0  0  0  0  0  0  0
   12.0654   19.1308  -11.3149 N   0  0  0  0  0  0  0  0  0  0  0  0
   11.6160   13.9133  -14.8261 C   0  0  0  0  0  0  0  0  0  0  0  0
   12.9206   13.2354   -9.8083 C   0  0  2  0  0  0  0  0  0  0  0  0
   13.8308   13.0130  -10.9133 O   0  0  0  0  0  0  0  0  0  0  0  0
   12.2089   10.2574  -10.8933 C   0  0  2  0  0  0  0  0  0  0  0  0
   11.6828    9.0966  -10.1145 N   0  0  0  0  0  0  0  0  0  0  0  0
    9.9126   18.5556  -10.3732 C   0  0  1  0  0  0  0  0  0  0  0  0
    9.9413   19.7568   -9.6003 O   0  0  0  0  0  0  0  0  0  0  0  0
   11.5418   15.3208  -14.1218 C   0  0  2  0  0  0  0  0  0  0  0  0
   12.6739   16.1800  -14.5619 N   0  0  0  0  0  0  0  0  0  0  0  0
   13.1467   12.3567   -8.5770 C   0  0  2  0  0  0  0  0  0  0  0  0
   13.6299   11.0261   -8.9470 O   0  0  0  0  0  0  0  0  0  0  0  0
   12.3423    9.8942  -12.4481 C   0  0  1  0  0  0  0  0  0  0  0  0
   12.4801   11.1186  -13.2037 O   0  0  0  0  0  0  0  0  0  0  0  0
    8.4631   18.1242  -10.6921 C   0  0  2  0  0  0  0  0  0  0  0  0
    7.7303   17.9630   -9.4999 O   0  0  0  0  0  0  0  0  0  0  0  0
   11.5781   15.1599  -12.5506 C   0  0  2  0  0  0  0  0  0  0  0  0
   11.7897   12.2766   -7.8576 C   0  0  2  0  0  0  0  0  0  0  0  0
   10.8528   12.3789   -8.9272 O   0  0  0  0  0  0  0  0  0  0  0  0
   13.5847    8.9308  -12.7574 C   0  0  2  0  0  0  0  0  0  0  0  0
   13.2871    7.6513  -12.1999 O   0  0  0  0  0  0  0  0  0  0  0  0
    8.4956   16.7878  -11.5063 C   0  0  2  0  0  0  0  0  0  0  0  0
    9.2691   16.9780  -12.7331 O   0  0  0  0  0  0  0  0  0  0  0  0
   10.4396   14.2651  -12.0137 C   0  0  2  0  0  0  0  0  0  0  0  0
   10.7334   14.0791  -10.6018 O   0  0  0  0  0  0  0  0  0  0  0  0
   11.5449   13.3867   -6.7889 C   0  0  0  0  0  0  0  0  0  0  0  0
   11.6429   14.6657   -7.4081 O   0  0  0  0  0  0  0  0  0  0  0  0
   14.9067    9.5076  -12.1236 C   0  0  1  0  0  0  0  0  0  0  0  0
   14.6392    9.6548  -10.6824 O   0  0  0  0  0  0  0  0  0  0  0  0
    7.1141   16.2938  -11.8684 C   0  0  0  0  0  0  0  0  0  0  0  0
    6.3919   17.3090  -12.5220 O   0  0  0  0  0  0  0  0  0  0  0  0
   10.4304   12.8732  -12.7742 C   0  0  1  0  0  0  0  0  0  0  0  0
    9.2875   12.1061  -12.3855 O   0  0  0  0  0  0  0  0  0  0  0  0
   16.1877    8.5941  -12.3543 C   0  0  0  0  0  0  0  0  0  0  0  0
   16.0707    7.1903  -11.8725 N   0  0  0  0  0  0  0  0  0  0  0  0
  1  2  1  1  0  0  0
  1  7  1  0  0  0  0
  1 30  1  0  0  0  0
  3  4  1  6  0  0  0
  3  9  1  0  0  0  0
  3 39  1  0  0  0  0
  5 10  1  0  0  0  0
  5 26  1  0  0  0  0
  5 32  1  1  0  0  0
  6 12  1  0  0  0  0
  6 36  1  0  0  0  0
  6 19  1  1  0  0  0
  7  8  1  1  0  0  0
  7 14  1  0  0  0  0
  9 16  1  0  0  0  0
 10 11  1  6  0  0  0
 10 18  1  0  0  0  0
 12 13  1  1  0  0  0
 12 20  1  0  0  0  0
 14 15  1  6  0  0  0
 14 22  1  0  0  0  0
 16 17  1  6  0  0  0
 16 24  1  0  0  0  0
 18 19  1  6  0  0  0
 18 25  1  0  0  0  0
 20 21  1  6  0  0  0
 20 27  1  0  0  0  0
 22 23  1  1  0  0  0
 22 29  1  0  0  0  0
 24  2  1  1  0  0  0
 24 31  1  0  0  0  0
 25 26  1  0  0  0  0
 25 33  1  1  0  0  0
 27 28  1  1  0  0  0
 27 35  1  0  0  0  0
 29 30  1  0  0  0  0
 29 37  1  6  0  0  0
 31 32  1  1  0  0  0
 31 39  1  0  0  0  0
 33 34  1  0  0  0  0
 35 36  1  0  0  0  0
 35 41  1  1  0  0  0
 37 38  1  0  0  0  0
 39 40  1  1  0  0  0
 41 42  1  0  0  0  0
M  END
>  <CHROM.1>
178.20301036,103.33618610,-81.09102706,-9.15767719,34.32458056,58.26718945
53.30727505,-96.13664641,-56.33880352,11.48234702,13.58296492,-11.34969890
2.88665709,-1.05128078,1.28825050

>  <Name>
2o3w_lig

>  <RI>
0

>  <Rbt.Current_Directory>
/home/itssahil/PROJECTS/Mol_Feturizer/New_Systems/rnas/2o3w

>  <Rbt.Executable>
rbdock ($Id: //depot/dev/client3/rdock/2013.1/src/exe/rbdock.cxx#4 $)

>  <Rbt.Library>
libRbt.so (2013.1, Build901 2013/11/27)

>  <Rbt.Parameter_File>
/export/apps/rDock/src/rDock_2013.1_src/data/scripts/dock_solv.prm

>  <Rbt.Receptor>
prm/blind_docking_40.prm

>  <SCORE>
22.0081

>  <SCORE.INTER>
-6.56211

>  <SCORE.INTER.CONST>
1

>  <SCORE.INTER.POLAR>
-1.25723

>  <SCORE.INTER.ROT>
9

>  <SCORE.INTER.SOLV>
25.4623

>  <SCORE.INTER.VDW>
-18.2714

>  <SCORE.INTER.norm>
-0.156241

>  <SCORE.INTRA>
7.42293

>  <SCORE.INTRA.DIHEDRAL>
-5.38524

>  <SCORE.INTRA.DIHEDRAL.0>
27.8999

>  <SCORE.INTRA.POLAR>
0

>  <SCORE.INTRA.POLAR.0>
0

>  <SCORE.INTRA.REPUL>
0

>  <SCORE.INTRA.REPUL.0>
0

>  <SCORE.INTRA.SOLV>
3.04878

>  <SCORE.INTRA.SOLV.lig_0>
-104.479

>  <SCORE.INTRA.VDW>
8.59116

>  <SCORE.INTRA.VDW.0>
-6.17816

>  <SCORE.INTRA.norm>
0.176736

>  <SCORE.RESTR>
21.1473

>  <SCORE.RESTR.CAVITY>
21.1473

>  <SCORE.RESTR.norm>
0.503507

>  <SCORE.SYSTEM>
0

>  <SCORE.SYSTEM.CONST>
0

>  <SCORE.SYSTEM.DIHEDRAL>
0

>  <SCORE.SYSTEM.SOLV>
0

>  <SCORE.SYSTEM.norm>
0

>  <SCORE.heavy>
42

>  <SCORE.norm>
0.524002

>  <RMSD>
20.536

$$$$
2o3w_lig
 OpenBabel11021811463D
libRbt.so/2013.1/901 2013/11/27
 42 45  0  0  0  0  0  0  0  0999 V2000
   12.4893   10.9526  -12.2528 C   0  0  2  0  0  0  0  0  0  0  0  0
   12.3335   10.8212  -10.8295 O   0  0  0  0  0  0  0  0  0  0  0  0
   11.3976   13.9099   -7.9346 C   0  0  2  0  0  0  0  0  0  0  0  0
   11.4795   15.1155   -7.0570 N   0  0  0  0  0  0  0  0  0  0  0  0
   11.6583   14.7787  -12.2950 C   0  0  1  0  0  0  0  0  0  0  0  0
   12.3459   18.0642  -15.0770 C   0  0  1  0  0  0  0  0  0  0  0  0
   12.5295    9.5103  -12.8412 C   0  0  2  0  0  0  0  0  0  0  0  0
   11.4177    8.6730  -12.3579 N   0  0  0  0  0  0  0  0  0  0  0  0
   12.4875   12.8350   -7.5365 C   0  0  0  0  0  0  0  0  0  0  0  0
   12.4920   15.0812  -13.5772 C   0  0  2  0  0  0  0  0  0  0  0  0
   13.7460   15.7592  -13.3185 O   0  0  0  0  0  0  0  0  0  0  0  0
   12.2834   17.5615  -16.5643 C   0  0  2  0  0  0  0  0  0  0  0  0
   12.6668   16.1209  -16.6570 N   0  0  0  0  0  0  0  0  0  0  0  0
   13.8316    8.7698  -12.4847 C   0  0  1  0  0  0  0  0  0  0  0  0
   13.8424    7.4696  -13.0765 O   0  0  0  0  0  0  0  0  0  0  0  0
   12.3367   11.5818   -8.4795 C   0  0  2  0  0  0  0  0  0  0  0  0
   13.3394   10.5422   -8.1228 N   0  0  0  0  0  0  0  0  0  0  0  0
   11.4773   15.8621  -14.4139 C   0  0  2  0  0  0  0  0  0  0  0  0
   11.5592   17.2998  -14.1549 O   0  0  0  0  0  0  0  0  0  0  0  0
   13.2412   18.4714  -17.4707 C   0  0  1  0  0  0  0  0  0  0  0  0
   12.6204   19.7634  -17.6555 O   0  0  0  0  0  0  0  0  0  0  0  0
   15.0449    9.6095  -12.9450 C   0  0  2  0  0  0  0  0  0  0  0  0
   16.2449    8.9374  -12.6408 O   0  0  0  0  0  0  0  0  0  0  0  0
   12.5199   11.9981   -9.9925 C   0  0  2  0  0  0  0  0  0  0  0  0
   10.0952   15.3052  -14.0333 C   0  0  2  0  0  0  0  0  0  0  0  0
   10.2693   14.9159  -12.6729 O   0  0  0  0  0  0  0  0  0  0  0  0
   14.6999   18.6635  -16.8360 C   0  0  2  0  0  0  0  0  0  0  0  0
   15.3690   17.4049  -16.9049 O   0  0  0  0  0  0  0  0  0  0  0  0
   14.9979   11.0049  -12.2376 C   0  0  2  0  0  0  0  0  0  0  0  0
   13.7401   11.6781  -12.5608 O   0  0  0  0  0  0  0  0  0  0  0  0
   11.5224   13.0896  -10.4383 C   0  0  2  0  0  0  0  0  0  0  0  0
   11.9501   13.4756  -11.7735 O   0  0  0  0  0  0  0  0  0  0  0  0
    9.6072   14.1049  -14.9025 C   0  0  0  0  0  0  0  0  0  0  0  0
    9.6278   14.4799  -16.2764 O   0  0  0  0  0  0  0  0  0  0  0  0
   14.5958   19.1445  -15.3393 C   0  0  1  0  0  0  0  0  0  0  0  0
   13.7937   18.1275  -14.6375 O   0  0  0  0  0  0  0  0  0  0  0  0
   16.1497   11.8982  -12.6367 C   0  0  0  0  0  0  0  0  0  0  0  0
   17.3463   11.1593  -12.6733 O   0  0  0  0  0  0  0  0  0  0  0  0
   11.5843   14.3273   -9.4484 C   0  0  1  0  0  0  0  0  0  0  0  0
   10.5577   15.2693   -9.7713 O   0  0  0  0  0  0  0  0  0  0  0  0
   16.0015   19.3288  -14.6192 C   0  0  0  0  0  0  0  0  0  0  0  0
   17.0351   20.0573  -15.4050 N   0  0  0  0  0  0  0  0  0  0  0  0
  1  2  1  1  0  0  0
  1  7  1  0  0  0  0
  1 30  1  0  0  0  0
  3  4  1  1  0  0  0
  3  9  1  0  0  0  0
  3 39  1  0  0  0  0
  5 10  1  0  0  0  0
  5 26  1  0  0  0  0
  5 32  1  6  0  0  0
  6 12  1  0  0  0  0
  6 36  1  0  0  0  0
  6 19  1  1  0  0  0
  7  8  1  1  0  0  0
  7 14  1  0  0  0  0
  9 16  1  0  0  0  0
 10 11  1  1  0  0  0
 10 18  1  0  0  0  0
 12 13  1  1  0  0  0
 12 20  1  0  0  0  0
 14 15  1  6  0  0  0
 14 22  1  0  0  0  0
 16 17  1  1  0  0  0
 16 24  1  0  0  0  0
 18 19  1  1  0  0  0
 18 25  1  0  0  0  0
 20 21  1  1  0  0  0
 20 27  1  0  0  0  0
 22 23  1  1  0  0  0
 22 29  1  0  0  0  0
 24  2  1  6  0  0  0
 24 31  1  0  0  0  0
 25 26  1  0  0  0  0
 25 33  1  6  0  0  0
 27 28  1  1  0  0  0
 27 35  1  0  0  0  0
 29 30  1  0  0  0  0
 29 37  1  6  0  0  0
 31 32  1  6  0  0  0
 31 39  1  0  0  0  0
 33 34  1  0  0  0  0
 35 36  1  0  0  0  0
 35 41  1  1  0  0  0
 37 38  1  0  0  0  0
 39 40  1  6  0  0  0
 41 42  1  0  0  0  0
M  END
>  <CHROM.1>
168.42118124,166.40749076,35.05755380,96.73935345,-178.37070645,-55.36843561
-42.56755345,-154.05373169,45.88288564,12.97389392,14.11456464,-12.95433799
-1.62808445,0.88566177,-0.54899997

>  <Name>
2o3w_lig

>  <RI>
0

>  <Rbt.Current_Directory>
/home/itssahil/PROJECTS/Mol_Feturizer/New_Systems/rnas/2o3w

>  <Rbt.Executable>
rbdock ($Id: //depot/dev/client3/rdock/2013.1/src/exe/rbdock.cxx#4 $)

>  <Rbt.Library>
libRbt.so (2013.1, Build901 2013/11/27)

>  <Rbt.Parameter_File>
/export/apps/rDock/src/rDock_2013.1_src/data/scripts/dock_solv.prm

>  <Rbt.Receptor>
prm/blind_docking_80.prm

>  <SCORE>
6.46816

>  <SCORE.INTER>
-1.43367

>  <SCORE.INTER.CONST>
1

>  <SCORE.INTER.POLAR>
-1.38908

>  <SCORE.INTER.ROT>
9

>  <SCORE.INTER.SOLV>
32.7536

>  <SCORE.INTER.VDW>
-16.8434

>  <SCORE.INTER.norm>
-0.0341351

>  <SCORE.INTRA>
-1.26356

>  <SCORE.INTRA.DIHEDRAL>
-14.149

>  <SCORE.INTRA.DIHEDRAL.0>
27.8999

>  <SCORE.INTRA.POLAR>
0

>  <SCORE.INTRA.POLAR.0>
0

>  <SCORE.INTRA.REPUL>
0

>  <SCORE.INTRA.REPUL.0>
0

>  <SCORE.INTRA.SOLV>
-1.32703

>  <SCORE.INTRA.SOLV.lig_0>
-104.479

>  <SCORE.INTRA.VDW>
6.47445

>  <SCORE.INTRA.VDW.0>
-6.17816

>  <SCORE.INTRA.norm>
-0.0300848

>  <SCORE.RESTR>
9.1654

>  <SCORE.RESTR.CAVITY>
9.1654

>  <SCORE.RESTR.norm>
0.218224

>  <SCORE.SYSTEM>
0

>  <SCORE.SYSTEM.CONST>
0

>  <SCORE.SYSTEM.DIHEDRAL>
0

>  <SCORE.SYSTEM.SOLV>
0

>  <SCORE.SYSTEM.norm>
0

>  <SCORE.heavy>
42

>  <SCORE.norm>
0.154004

>  <RMSD>
20.798

$$$$
2o3w_lig
 OpenBabel11021811463D
libRbt.so/2013.1/901 2013/11/27
 42 45  0  0  0  0  0  0  0  0999 V2000
   13.1925   16.3997  -15.2088 C   0  0  2  0  0  0  0  0  0  0  0  0
   13.0341   16.5159  -13.7844 O   0  0  0  0  0  0  0  0  0  0  0  0
    9.7302   16.8365  -10.9956 C   0  0  2  0  0  0  0  0  0  0  0  0
    8.4192   16.6409  -10.3076 N   0  0  0  0  0  0  0  0  0  0  0  0
   12.5356   13.2658  -11.1186 C   0  0  1  0  0  0  0  0  0  0  0  0
   12.8698   11.3472   -8.5629 C   0  0  1  0  0  0  0  0  0  0  0  0
   14.7205   16.2753  -15.4880 C   0  0  2  0  0  0  0  0  0  0  0  0
   15.3649   15.2486  -14.6507 N   0  0  0  0  0  0  0  0  0  0  0  0
    9.5344   17.4485  -12.4409 C   0  0  0  0  0  0  0  0  0  0  0  0
   11.7741   11.9723  -11.5402 C   0  0  2  0  0  0  0  0  0  0  0  0
   10.3971   11.9266  -11.0921 O   0  0  0  0  0  0  0  0  0  0  0  0
   13.2467   10.5694   -7.2507 C   0  0  2  0  0  0  0  0  0  0  0  0
   12.0712    9.8151   -6.7214 N   0  0  0  0  0  0  0  0  0  0  0  0
   15.4709   17.5948  -15.2301 C   0  0  1  0  0  0  0  0  0  0  0  0
   16.8584   17.4460  -15.5363 O   0  0  0  0  0  0  0  0  0  0  0  0
   10.9487   17.6518  -13.1049 C   0  0  2  0  0  0  0  0  0  0  0  0
   10.8026   18.2409  -14.4633 N   0  0  0  0  0  0  0  0  0  0  0  0
   12.6918   10.8888  -10.9716 C   0  0  2  0  0  0  0  0  0  0  0  0
   12.3178   10.5307   -9.6032 O   0  0  0  0  0  0  0  0  0  0  0  0
   13.8026   11.6060   -6.1629 C   0  0  1  0  0  0  0  0  0  0  0  0
   15.1301   12.0246   -6.5521 O   0  0  0  0  0  0  0  0  0  0  0  0
   14.8270   18.7257  -16.0642 C   0  0  2  0  0  0  0  0  0  0  0  0
   15.5134   19.9375  -15.8521 O   0  0  0  0  0  0  0  0  0  0  0  0
   11.7204   16.2768  -13.2036 C   0  0  2  0  0  0  0  0  0  0  0  0
   14.1160   11.4667  -11.0269 C   0  0  2  0  0  0  0  0  0  0  0  0
   13.9012   12.8662  -10.8604 O   0  0  0  0  0  0  0  0  0  0  0  0
   12.8631   12.8928   -5.9928 C   0  0  2  0  0  0  0  0  0  0  0  0
   11.6525   12.4634   -5.3712 O   0  0  0  0  0  0  0  0  0  0  0  0
   13.3215   18.8647  -15.6597 C   0  0  2  0  0  0  0  0  0  0  0  0
   12.6336   17.5926  -15.8798 O   0  0  0  0  0  0  0  0  0  0  0  0
   11.8997   15.5909  -11.8315 C   0  0  2  0  0  0  0  0  0  0  0  0
   12.4510   14.2787  -12.1295 O   0  0  0  0  0  0  0  0  0  0  0  0
   14.8953   11.1715  -12.3460 C   0  0  0  0  0  0  0  0  0  0  0  0
   15.0474    9.7634  -12.4973 O   0  0  0  0  0  0  0  0  0  0  0  0
   12.5552   13.5452   -7.3935 C   0  0  1  0  0  0  0  0  0  0  0  0
   11.9369   12.4869   -8.2108 O   0  0  0  0  0  0  0  0  0  0  0  0
   12.6089   19.9488  -16.4347 C   0  0  0  0  0  0  0  0  0  0  0  0
   11.2492   19.9879  -16.0753 O   0  0  0  0  0  0  0  0  0  0  0  0
   10.5004   15.4591  -11.0966 C   0  0  1  0  0  0  0  0  0  0  0  0
   10.6857   14.9640   -9.7676 O   0  0  0  0  0  0  0  0  0  0  0  0
   11.5984   14.8132   -7.3209 C   0  0  0  0  0  0  0  0  0  0  0  0
   10.2622   14.5754   -6.7088 N   0  0  0  0  0  0  0  0  0  0  0  0
  1  2  1  1  0  0  0
  1  7  1  0  0  0  0
  1 30  1  0  0  0  0
  3  4  1  6  0  0  0
  3  9  1  0  0  0  0
  3 39  1  0  0  0  0
  5 10  1  0  0  0  0
  5 26  1  0  0  0  0
  5 32  1  6  0  0  0
  6 12  1  0  0  0  0
  6 36  1  0  0  0  0
  6 19  1  6  0  0  0
  7  8  1  1  0  0  0
  7 14  1  0  0  0  0
  9 16  1  0  0  0  0
 10 11  1  1  0  0  0
 10 18  1  0  0  0  0
 12 13  1  1  0  0  0
 12 20  1  0  0  0  0
 14 15  1  6  0  0  0
 14 22  1  0  0  0  0
 16 17  1  6  0  0  0
 16 24  1  0  0  0  0
 18 19  1  1  0  0  0
 18 25  1  0  0  0  0
 20 21  1  6  0  0  0
 20 27  1  0  0  0  0
 22 23  1  1  0  0  0
 22 29  1  0  0  0  0
 24  2  1  1  0  0  0
 24 31  1  0  0  0  0
 25 26  1  0  0  0  0
 25 33  1  6  0  0  0
 27 28  1  6  0  0  0
 27 35  1  0  0  0  0
 29 30  1  0  0  0  0
 29 37  1  6  0  0  0
 31 32  1  6  0  0  0
 31 39  1  0  0  0  0
 33 34  1  0  0  0  0
 35 36  1  0  0  0  0
 35 41  1  1  0  0  0
 37 38  1  0  0  0  0
 39 40  1  1  0  0  0
 41 42  1  0  0  0  0
M  END
>  <CHROM.1>
-163.17381573,122.63120353,-143.65670744,-85.54153732,-92.12477793,-61.52268490
177.31956930,-169.03493136,-58.38295669,12.66147481,14.70563516,-11.49695680
-1.47091034,-0.67767392,2.34121710

>  <Name>
2o3w_lig

>  <RI>
0

>  <Rbt.Current_Directory>
/home/itssahil/PROJECTS/Mol_Feturizer/New_Systems/rnas/2o3w

>  <Rbt.Executable>
rbdock ($Id: //depot/dev/client3/rdock/2013.1/src/exe/rbdock.cxx#4 $)

>  <Rbt.Library>
libRbt.so (2013.1, Build901 2013/11/27)

>  <Rbt.Parameter_File>
/export/apps/rDock/src/rDock_2013.1_src/data/scripts/dock_solv.prm

>  <Rbt.Receptor>
prm/blind_docking_80.prm

>  <SCORE>
-1.49631

>  <SCORE.INTER>
-10.8037

>  <SCORE.INTER.CONST>
1

>  <SCORE.INTER.POLAR>
-0.824621

>  <SCORE.INTER.ROT>
9

>  <SCORE.INTER.SOLV>
28.849

>  <SCORE.INTER.VDW>
-23.6701

>  <SCORE.INTER.norm>
-0.257231

>  <SCORE.INTRA>
3.34765

>  <SCORE.INTRA.DIHEDRAL>
-7.24221

>  <SCORE.INTRA.DIHEDRAL.0>
27.8999

>  <SCORE.INTRA.POLAR>
0

>  <SCORE.INTRA.POLAR.0>
0

>  <SCORE.INTRA.REPUL>
0.0867648

>  <SCORE.INTRA.REPUL.0>
0

>  <SCORE.INTRA.SOLV>
2.62468

>  <SCORE.INTRA.SOLV.lig_0>
-104.479

>  <SCORE.INTRA.VDW>
5.22259

>  <SCORE.INTRA.VDW.0>
-6.17816

>  <SCORE.INTRA.norm>
0.0797058

>  <SCORE.RESTR>
5.95976

>  <SCORE.RESTR.CAVITY>
5.95976

>  <SCORE.RESTR.norm>
0.141899

>  <SCORE.SYSTEM>
0

>  <SCORE.SYSTEM.CONST>
0

>  <SCORE.SYSTEM.DIHEDRAL>
0

>  <SCORE.SYSTEM.SOLV>
0

>  <SCORE.SYSTEM.norm>
0

>  <SCORE.heavy>
42

>  <SCORE.norm>
-0.0356264

>  <RMSD>
21.548

$$$$
2o3w_lig
 OpenBabel11021811463D
libRbt.so/2013.1/901 2013/11/27
 42 45  0  0  0  0  0  0  0  0999 V2000
    9.3420   18.7854  -12.4459 C   0  0  2  0  0  0  0  0  0  0  0  0
    9.8705   17.9669  -13.5033 O   0  0  0  0  0  0  0  0  0  0  0  0
   13.0829   18.3476  -16.3897 C   0  0  2  0  0  0  0  0  0  0  0  0
   14.4130   18.6020  -17.0195 N   0  0  0  0  0  0  0  0  0  0  0  0
   12.1954   14.7387  -13.3915 C   0  0  1  0  0  0  0  0  0  0  0  0
   12.6546   10.9899  -11.4999 C   0  0  1  0  0  0  0  0  0  0  0  0
    9.9534   18.2578  -11.1132 C   0  0  2  0  0  0  0  0  0  0  0  0
   11.4173   18.1087  -11.1846 N   0  0  0  0  0  0  0  0  0  0  0  0
   12.4637   19.6779  -15.7991 C   0  0  0  0  0  0  0  0  0  0  0  0
   11.9864   14.0745  -11.9966 C   0  0  2  0  0  0  0  0  0  0  0  0
   13.2105   13.8835  -11.2455 O   0  0  0  0  0  0  0  0  0  0  0  0
   12.0938    9.5310  -11.3388 C   0  0  2  0  0  0  0  0  0  0  0  0
   10.6003    9.5322  -11.3247 N   0  0  0  0  0  0  0  0  0  0  0  0
    9.3853   16.8835  -10.7135 C   0  0  1  0  0  0  0  0  0  0  0  0
    9.9427   16.4578   -9.4689 O   0  0  0  0  0  0  0  0  0  0  0  0
   11.0564   19.3505  -15.1706 C   0  0  2  0  0  0  0  0  0  0  0  0
   10.4372   20.5849  -14.6171 N   0  0  0  0  0  0  0  0  0  0  0  0
   11.2414   12.7964  -12.3848 C   0  0  2  0  0  0  0  0  0  0  0  0
   12.1662   11.6937  -12.6487 O   0  0  0  0  0  0  0  0  0  0  0  0
   12.6815    8.8839   -9.9961 C   0  0  1  0  0  0  0  0  0  0  0  0
   14.0734    8.5560  -10.2058 O   0  0  0  0  0  0  0  0  0  0  0  0
    7.8433   16.9635  -10.6434 C   0  0  2  0  0  0  0  0  0  0  0  0
    7.3086   15.7173  -10.2622 O   0  0  0  0  0  0  0  0  0  0  0  0
   11.1950   18.2686  -14.0277 C   0  0  2  0  0  0  0  0  0  0  0  0
   10.4208   13.1472  -13.6374 C   0  0  2  0  0  0  0  0  0  0  0  0
   11.2176   14.1429  -14.2747 O   0  0  0  0  0  0  0  0  0  0  0  0
   12.5444    9.8526   -8.7271 C   0  0  2  0  0  0  0  0  0  0  0  0
   11.1575    9.9461   -8.4041 O   0  0  0  0  0  0  0  0  0  0  0  0
    7.2905   17.3982  -12.0416 C   0  0  2  0  0  0  0  0  0  0  0  0
    7.8670   18.6885  -12.4191 O   0  0  0  0  0  0  0  0  0  0  0  0
   11.8464   16.9576  -14.5199 C   0  0  2  0  0  0  0  0  0  0  0  0
   12.0615   16.1643  -13.3204 O   0  0  0  0  0  0  0  0  0  0  0  0
    8.9810   13.6772  -13.3537 C   0  0  0  0  0  0  0  0  0  0  0  0
    9.0526   14.7672  -12.4396 O   0  0  0  0  0  0  0  0  0  0  0  0
   13.1260   11.2803   -9.0522 C   0  0  1  0  0  0  0  0  0  0  0  0
   12.3838   11.7663  -10.2283 O   0  0  0  0  0  0  0  0  0  0  0  0
    5.7835   17.5086  -12.0624 C   0  0  0  0  0  0  0  0  0  0  0  0
    5.3295   17.7010  -13.3801 O   0  0  0  0  0  0  0  0  0  0  0  0
   13.2234   17.2669  -15.2438 C   0  0  1  0  0  0  0  0  0  0  0  0
   13.7510   16.0742  -15.8308 O   0  0  0  0  0  0  0  0  0  0  0  0
   12.9997   12.3190   -7.8548 C   0  0  0  0  0  0  0  0  0  0  0  0
   13.7214   11.9503   -6.6059 N   0  0  0  0  0  0  0  0  0  0  0  0
  1  2  1  6  0  0  0
  1  7  1  0  0  0  0
  1 30  1  0  0  0  0
  3  4  1  1  0  0  0
  3  9  1  0  0  0  0
  3 39  1  0  0  0  0
  5 10  1  0  0  0  0
  5 26  1  0  0  0  0
  5 32  1  1  0  0  0
  6 12  1  0  0  0  0
  6 36  1  0  0  0  0
  6 19  1  6  0  0  0
  7  8  1  6  0  0  0
  7 14  1  0  0  0  0
  9 16  1  0  0  0  0
 10 11  1  6  0  0  0
 10 18  1  0  0  0  0
 12 13  1  1  0  0  0
 12 20  1  0  0  0  0
 14 15  1  1  0  0  0
 14 22  1  0  0  0  0
 16 17  1  1  0  0  0
 16 24  1  0  0  0  0
 18 19  1  6  0  0  0
 18 25  1  0  0  0  0
 20 21  1  6  0  0  0
 20 27  1  0  0  0  0
 22 23  1  6  0  0  0
 22 29  1  0  0  0  0
 24  2  1  6  0  0  0
 24 31  1  0  0  0  0
 25 26  1  0  0  0  0
 25 33  1  1  0  0  0
 27 28  1  6  0  0  0
 27 35  1  0  0  0  0
 29 30  1  0  0  0  0
 29 37  1  1  0  0  0
 31 32  1  1  0  0  0
 31 39  1  0  0  0  0
 33 34  1  0  0  0  0
 35 36  1  0  0  0  0
 35 41  1  1  0  0  0
 37 38  1  0  0  0  0
 39 40  1  6  0  0  0
 41 42  1  0  0  0  0
M  END
>  <CHROM.1>
-81.82380707,-162.81501603,109.47085356,81.64583771,-86.86875180,53.06553284
-171.11320968,157.49739526,61.41419613,11.00980078,14.96320302,-12.17088574
1.86995471,0.54057969,-0.63988698

>  <Name>
2o3w_lig

>  <RI>
0

>  <Rbt.Current_Directory>
/home/itssahil/PROJECTS/Mol_Feturizer/New_Systems/rnas/2o3w

>  <Rbt.Executable>
rbdock ($Id: //depot/dev/client3/rdock/2013.1/src/exe/rbdock.cxx#4 $)

>  <Rbt.Library>
libRbt.so (2013.1, Build901 2013/11/27)

>  <Rbt.Parameter_File>
/export/apps/rDock/src/rDock_2013.1_src/data/scripts/dock_solv.prm

>  <Rbt.Receptor>
prm/blind_docking_80.prm

>  <SCORE>
-2.20808

>  <SCORE.INTER>
-10.0466

>  <SCORE.INTER.CONST>
1

>  <SCORE.INTER.POLAR>
-0.470983

>  <SCORE.INTER.ROT>
9

>  <SCORE.INTER.SOLV>
21.9136

>  <SCORE.INTER.VDW>
-22.0323

>  <SCORE.INTER.norm>
-0.239204

>  <SCORE.INTRA>
-2.8596

>  <SCORE.INTRA.DIHEDRAL>
-9.97909

>  <SCORE.INTRA.DIHEDRAL.0>
27.8999

>  <SCORE.INTRA.POLAR>
0

>  <SCORE.INTRA.POLAR.0>
0

>  <SCORE.INTRA.REPUL>
0.0243251

>  <SCORE.INTRA.REPUL.0>
0

>  <SCORE.INTRA.SOLV>
1.09837

>  <SCORE.INTRA.SOLV.lig_0>
-104.479

>  <SCORE.INTRA.VDW>
1.45913

>  <SCORE.INTRA.VDW.0>
-6.17816

>  <SCORE.INTRA.norm>
-0.0680857

>  <SCORE.RESTR>
10.6981

>  <SCORE.RESTR.CAVITY>
10.6981

>  <SCORE.RESTR.norm>
0.254717

>  <SCORE.SYSTEM>
0

>  <SCORE.SYSTEM.CONST>
0

>  <SCORE.SYSTEM.DIHEDRAL>
0

>  <SCORE.SYSTEM.SOLV>
0

>  <SCORE.SYSTEM.norm>
0

>  <SCORE.heavy>
42

>  <SCORE.norm>
-0.0525733

>  <RMSD>
21.769

$$$$
