ligand
 OpenBabel11021811503D
libRbt.so/2013.1/901 2013/11/27
 12 12  0  0  0  0  0  0  0  0999 V2000
    9.7215   13.5242  148.3812 C   0  0  0  0  0  0  0  0  0  0  0  0
   12.6893    9.7939  145.6166 C   0  0  0  0  0  0  0  0  0  0  0  0
   11.4645   14.2523  146.4358 N   0  0  0  0  0  0  0  0  0  0  0  0
    9.4559   13.1445  149.7768 N   0  0  0  0  0  0  0  0  0  0  0  0
    8.4640   12.6593  149.9852 N   0  0  0  0  0  0  0  0  0  0  0  0
    7.4757   12.1695  150.1898 N   0  0  0  0  0  0  0  0  0  0  0  0
   11.1086   10.3202  147.2783 N   0  0  0  0  0  0  0  0  0  0  0  0
   11.9413   10.7361  146.3119 C   0  0  0  0  0  0  0  0  0  0  0  0
   12.1128   12.0438  146.0716 N   0  0  0  0  0  0  0  0  0  0  0  0
   11.4562   12.9690  146.7843 C   0  0  0  0  0  0  0  0  0  0  0  0
   10.5826   12.5998  147.8021 C   0  0  0  0  0  0  0  0  0  0  0  0
   10.4107   11.2469  148.0599 C   0  0  0  0  0  0  0  0  0  0  0  0
  1 11  1  0  0  0  0
  1  4  1  0  0  0  0
  2  8  1  0  0  0  0
  3 10  1  0  0  0  0
  4  5  1  0  0  0  0
  5  6  1  0  0  0  0
  7  8  2  0  0  0  0
  7 12  1  0  0  0  0
  8  9  1  0  0  0  0
  9 10  2  0  0  0  0
 10 11  1  0  0  0  0
 11 12  2  0  0  0  0
M  END
>  <CHROM.1>
-150.65276630,-102.82238832,67.79780086,10.56101099,12.11852823,147.73511726
-2.84847007,-0.80213148,3.10639137

>  <Name>
ligand

>  <RI>
0

>  <Rbt.Current_Directory>
/home/itssahil/PROJECTS/Mol_Feturizer/New_Systems/rnas/4NYA

>  <Rbt.Executable>
rbdock ($Id: //depot/dev/client3/rdock/2013.1/src/exe/rbdock.cxx#4 $)

>  <Rbt.Library>
libRbt.so (2013.1, Build901 2013/11/27)

>  <Rbt.Parameter_File>
/export/apps/rDock/src/rDock_2013.1_src/data/scripts/dock_solv.prm

>  <Rbt.Receptor>
prm/pocket_docking_4.prm

>  <SCORE>
-10.5778

>  <SCORE.INTER>
-10.4584

>  <SCORE.INTER.CONST>
1

>  <SCORE.INTER.POLAR>
0

>  <SCORE.INTER.ROT>
3

>  <SCORE.INTER.SOLV>
14.4871

>  <SCORE.INTER.VDW>
-17.4013

>  <SCORE.INTER.norm>
-0.871532

>  <SCORE.INTRA>
-0.119421

>  <SCORE.INTRA.DIHEDRAL>
0.0382072

>  <SCORE.INTRA.DIHEDRAL.0>
2.1382

>  <SCORE.INTRA.POLAR>
0

>  <SCORE.INTRA.POLAR.0>
0

>  <SCORE.INTRA.REPUL>
0

>  <SCORE.INTRA.REPUL.0>
0

>  <SCORE.INTRA.SOLV>
-0.808921

>  <SCORE.INTRA.SOLV.lig_0>
-59.6513

>  <SCORE.INTRA.VDW>
0.265936

>  <SCORE.INTRA.VDW.0>
-0.569808

>  <SCORE.INTRA.norm>
-0.00995177

>  <SCORE.RESTR>
0

>  <SCORE.RESTR.CAVITY>
0

>  <SCORE.RESTR.norm>
0

>  <SCORE.SYSTEM>
0

>  <SCORE.SYSTEM.CONST>
0

>  <SCORE.SYSTEM.DIHEDRAL>
0

>  <SCORE.SYSTEM.SOLV>
0

>  <SCORE.SYSTEM.norm>
0

>  <SCORE.heavy>
12

>  <SCORE.norm>
-0.881484

>  <RMSD>
0.737

$$$$
ligand
 OpenBabel11021811503D
libRbt.so/2013.1/901 2013/11/27
 12 12  0  0  0  0  0  0  0  0999 V2000
   10.2364   12.7845  148.3291 C   0  0  0  0  0  0  0  0  0  0  0  0
   12.9612    8.9391  145.4735 C   0  0  0  0  0  0  0  0  0  0  0  0
   11.7093   13.4151  146.1414 N   0  0  0  0  0  0  0  0  0  0  0  0
   10.5393   12.8302  149.7673 N   0  0  0  0  0  0  0  0  0  0  0  0
    9.8939   12.1994  150.4368 N   0  0  0  0  0  0  0  0  0  0  0  0
    9.2518   11.5641  151.1020 N   0  0  0  0  0  0  0  0  0  0  0  0
   11.5771    9.5436  147.2778 N   0  0  0  0  0  0  0  0  0  0  0  0
   12.2742    9.9102  146.1916 C   0  0  0  0  0  0  0  0  0  0  0  0
   12.3757   11.2017  145.8466 N   0  0  0  0  0  0  0  0  0  0  0  0
   11.7820   12.1591  146.5719 C   0  0  0  0  0  0  0  0  0  0  0  0
   11.0491   11.8416  147.7111 C   0  0  0  0  0  0  0  0  0  0  0  0
   10.9508   10.5063  148.0763 C   0  0  0  0  0  0  0  0  0  0  0  0
  1 11  1  0  0  0  0
  1  4  1  0  0  0  0
  2  8  1  0  0  0  0
  3 10  1  0  0  0  0
  4  5  1  0  0  0  0
  5  6  1  0  0  0  0
  7  8  2  0  0  0  0
  7 12  1  0  0  0  0
  8  9  1  0  0  0  0
  9 10  2  0  0  0  0
 10 11  1  0  0  0  0
 11 12  2  0  0  0  0
M  END
>  <CHROM.1>
-129.39632421,-94.76139326,61.62303988,11.21300338,11.40737834,147.75940707
-2.97606546,-1.06873889,2.87914482

>  <Name>
ligand

>  <RI>
0

>  <Rbt.Current_Directory>
/home/itssahil/PROJECTS/Mol_Feturizer/New_Systems/rnas/4NYA

>  <Rbt.Executable>
rbdock ($Id: //depot/dev/client3/rdock/2013.1/src/exe/rbdock.cxx#4 $)

>  <Rbt.Library>
libRbt.so (2013.1, Build901 2013/11/27)

>  <Rbt.Parameter_File>
/export/apps/rDock/src/rDock_2013.1_src/data/scripts/dock_solv.prm

>  <Rbt.Receptor>
prm/pocket_docking_4.prm

>  <SCORE>
-10.7967

>  <SCORE.INTER>
-10.6939

>  <SCORE.INTER.CONST>
1

>  <SCORE.INTER.POLAR>
0

>  <SCORE.INTER.ROT>
3

>  <SCORE.INTER.SOLV>
16.1744

>  <SCORE.INTER.VDW>
-18.1207

>  <SCORE.INTER.norm>
-0.891161

>  <SCORE.INTRA>
-0.102754

>  <SCORE.INTRA.DIHEDRAL>
0.197832

>  <SCORE.INTRA.DIHEDRAL.0>
2.1382

>  <SCORE.INTRA.POLAR>
0

>  <SCORE.INTRA.POLAR.0>
0

>  <SCORE.INTRA.REPUL>
0

>  <SCORE.INTRA.REPUL.0>
0

>  <SCORE.INTRA.SOLV>
-0.383627

>  <SCORE.INTRA.SOLV.lig_0>
-59.6513

>  <SCORE.INTRA.VDW>
-0.00985649

>  <SCORE.INTRA.VDW.0>
-0.569808

>  <SCORE.INTRA.norm>
-0.00856281

>  <SCORE.RESTR>
0

>  <SCORE.RESTR.CAVITY>
0

>  <SCORE.RESTR.norm>
0

>  <SCORE.SYSTEM>
0

>  <SCORE.SYSTEM.CONST>
0

>  <SCORE.SYSTEM.DIHEDRAL>
0

>  <SCORE.SYSTEM.SOLV>
0

>  <SCORE.SYSTEM.norm>
0

>  <SCORE.heavy>
12

>  <SCORE.norm>
-0.899724

>  <RMSD>
0.808

$$$$
ligand
 OpenBabel11021811503D
libRbt.so/2013.1/901 2013/11/27
 12 12  0  0  0  0  0  0  0  0999 V2000
   10.2040   12.7129  148.3701 C   0  0  0  0  0  0  0  0  0  0  0  0
   13.0125    8.9453  145.4919 C   0  0  0  0  0  0  0  0  0  0  0  0
   11.5301   13.3597  146.0950 N   0  0  0  0  0  0  0  0  0  0  0  0
   10.5424   12.7866  149.7992 N   0  0  0  0  0  0  0  0  0  0  0  0
    9.8807   12.2117  150.5023 N   0  0  0  0  0  0  0  0  0  0  0  0
    9.2218   11.6321  151.2011 N   0  0  0  0  0  0  0  0  0  0  0  0
   11.6831    9.5242  147.3450 N   0  0  0  0  0  0  0  0  0  0  0  0
   12.3042    9.8967  146.2156 C   0  0  0  0  0  0  0  0  0  0  0  0
   12.3120   11.1806  145.8298 N   0  0  0  0  0  0  0  0  0  0  0  0
   11.6980   12.1240  146.5565 C   0  0  0  0  0  0  0  0  0  0  0  0
   11.0408   11.8000  147.7392 C   0  0  0  0  0  0  0  0  0  0  0  0
   11.0396   10.4732  148.1463 C   0  0  0  0  0  0  0  0  0  0  0  0
  1 11  1  0  0  0  0
  1  4  1  0  0  0  0
  2  8  1  0  0  0  0
  3 10  1  0  0  0  0
  4  5  1  0  0  0  0
  5  6  1  0  0  0  0
  7  8  2  0  0  0  0
  7 12  1  0  0  0  0
  8  9  1  0  0  0  0
  9 10  2  0  0  0  0
 10 11  1  0  0  0  0
 11 12  2  0  0  0  0
M  END
>  <CHROM.1>
-131.31437989,-100.43086326,60.58975773,11.20156710,11.38739503,147.79007493
-3.09761927,-1.07670628,2.74387034

>  <Name>
ligand

>  <RI>
0

>  <Rbt.Current_Directory>
/home/itssahil/PROJECTS/Mol_Feturizer/New_Systems/rnas/4NYA

>  <Rbt.Executable>
rbdock ($Id: //depot/dev/client3/rdock/2013.1/src/exe/rbdock.cxx#4 $)

>  <Rbt.Library>
libRbt.so (2013.1, Build901 2013/11/27)

>  <Rbt.Parameter_File>
/export/apps/rDock/src/rDock_2013.1_src/data/scripts/dock_solv.prm

>  <Rbt.Receptor>
prm/pocket_docking_2.prm

>  <SCORE>
-10.8101

>  <SCORE.INTER>
-10.6732

>  <SCORE.INTER.CONST>
1

>  <SCORE.INTER.POLAR>
0

>  <SCORE.INTER.ROT>
3

>  <SCORE.INTER.SOLV>
16.3226

>  <SCORE.INTER.VDW>
-18.1563

>  <SCORE.INTER.norm>
-0.88943

>  <SCORE.INTRA>
-0.136957

>  <SCORE.INTRA.DIHEDRAL>
0.310727

>  <SCORE.INTRA.DIHEDRAL.0>
2.1382

>  <SCORE.INTRA.POLAR>
0

>  <SCORE.INTRA.POLAR.0>
0

>  <SCORE.INTRA.REPUL>
0

>  <SCORE.INTRA.REPUL.0>
0

>  <SCORE.INTRA.SOLV>
-0.581791

>  <SCORE.INTRA.SOLV.lig_0>
-59.6513

>  <SCORE.INTRA.VDW>
-0.00142501

>  <SCORE.INTRA.VDW.0>
-0.569808

>  <SCORE.INTRA.norm>
-0.0114131

>  <SCORE.RESTR>
0

>  <SCORE.RESTR.CAVITY>
0

>  <SCORE.RESTR.norm>
0

>  <SCORE.SYSTEM>
0

>  <SCORE.SYSTEM.CONST>
0

>  <SCORE.SYSTEM.DIHEDRAL>
0

>  <SCORE.SYSTEM.SOLV>
0

>  <SCORE.SYSTEM.norm>
0

>  <SCORE.heavy>
12

>  <SCORE.norm>
-0.900843

>  <RMSD>
0.812

$$$$
ligand
 OpenBabel11021811503D
libRbt.so/2013.1/901 2013/11/27
 12 12  0  0  0  0  0  0  0  0999 V2000
    9.6142   13.5074  148.4681 C   0  0  0  0  0  0  0  0  0  0  0  0
   12.6773    9.9510  145.5810 C   0  0  0  0  0  0  0  0  0  0  0  0
   11.3997   14.3507  146.6096 N   0  0  0  0  0  0  0  0  0  0  0  0
    9.2631   13.0147  149.8083 N   0  0  0  0  0  0  0  0  0  0  0  0
    9.9033   13.3739  150.6592 N   0  0  0  0  0  0  0  0  0  0  0  0
   10.5405   13.7387  151.5072 N   0  0  0  0  0  0  0  0  0  0  0  0
   11.0520   10.3766  147.2284 N   0  0  0  0  0  0  0  0  0  0  0  0
   11.9053   10.8494  146.3073 C   0  0  0  0  0  0  0  0  0  0  0  0
   12.0731   12.1693  146.1426 N   0  0  0  0  0  0  0  0  0  0  0  0
   11.3921   13.0504  146.8876 C   0  0  0  0  0  0  0  0  0  0  0  0
   10.4963   12.6211  147.8616 C   0  0  0  0  0  0  0  0  0  0  0  0
   10.3281   11.2552  148.0413 C   0  0  0  0  0  0  0  0  0  0  0  0
  1 11  1  0  0  0  0
  1  4  1  0  0  0  0
  2  8  1  0  0  0  0
  3 10  1  0  0  0  0
  4  5  1  0  0  0  0
  5  6  1  0  0  0  0
  7  8  2  0  0  0  0
  7 12  1  0  0  0  0
  8  9  1  0  0  0  0
  9 10  2  0  0  0  0
 10 11  1  0  0  0  0
 11 12  2  0  0  0  0
M  END
>  <CHROM.1>
-153.53148085,91.53951135,61.51959221,10.89124342,12.36003957,147.94254000
-2.81557992,-1.14330470,2.96039268

>  <Name>
ligand

>  <RI>
0

>  <Rbt.Current_Directory>
/home/itssahil/PROJECTS/Mol_Feturizer/New_Systems/rnas/4NYA

>  <Rbt.Executable>
rbdock ($Id: //depot/dev/client3/rdock/2013.1/src/exe/rbdock.cxx#4 $)

>  <Rbt.Library>
libRbt.so (2013.1, Build901 2013/11/27)

>  <Rbt.Parameter_File>
/export/apps/rDock/src/rDock_2013.1_src/data/scripts/dock_solv.prm

>  <Rbt.Receptor>
prm/pocket_docking_7.prm

>  <SCORE>
-10.8712

>  <SCORE.INTER>
-10.5298

>  <SCORE.INTER.CONST>
1

>  <SCORE.INTER.POLAR>
0

>  <SCORE.INTER.ROT>
3

>  <SCORE.INTER.SOLV>
12.6367

>  <SCORE.INTER.VDW>
-16.8321

>  <SCORE.INTER.norm>
-0.877483

>  <SCORE.INTRA>
-0.341407

>  <SCORE.INTRA.DIHEDRAL>
-0.317907

>  <SCORE.INTRA.DIHEDRAL.0>
2.1382

>  <SCORE.INTRA.POLAR>
0

>  <SCORE.INTRA.POLAR.0>
0

>  <SCORE.INTRA.REPUL>
0

>  <SCORE.INTRA.REPUL.0>
0

>  <SCORE.INTRA.SOLV>
-1.02328

>  <SCORE.INTRA.SOLV.lig_0>
-59.6513

>  <SCORE.INTRA.VDW>
0.329186

>  <SCORE.INTRA.VDW.0>
-0.569808

>  <SCORE.INTRA.norm>
-0.0284506

>  <SCORE.RESTR>
0

>  <SCORE.RESTR.CAVITY>
0

>  <SCORE.RESTR.norm>
0

>  <SCORE.SYSTEM>
0

>  <SCORE.SYSTEM.CONST>
0

>  <SCORE.SYSTEM.DIHEDRAL>
0

>  <SCORE.SYSTEM.SOLV>
0

>  <SCORE.SYSTEM.norm>
0

>  <SCORE.heavy>
12

>  <SCORE.norm>
-0.905934

>  <RMSD>
0.839

$$$$
ligand
 OpenBabel11021811503D
libRbt.so/2013.1/901 2013/11/27
 12 12  0  0  0  0  0  0  0  0999 V2000
   10.2278   12.7413  148.2623 C   0  0  0  0  0  0  0  0  0  0  0  0
   12.9641    8.8666  145.4577 C   0  0  0  0  0  0  0  0  0  0  0  0
   11.7911   13.3625  146.1355 N   0  0  0  0  0  0  0  0  0  0  0  0
   10.4782   12.7614  149.7112 N   0  0  0  0  0  0  0  0  0  0  0  0
    9.7788   12.1572  150.3502 N   0  0  0  0  0  0  0  0  0  0  0  0
    9.0825   11.5482  150.9849 N   0  0  0  0  0  0  0  0  0  0  0  0
   11.5312    9.4824  147.2195 N   0  0  0  0  0  0  0  0  0  0  0  0
   12.2744    9.8451  146.1630 C   0  0  0  0  0  0  0  0  0  0  0  0
   12.4172   11.1378  145.8375 N   0  0  0  0  0  0  0  0  0  0  0  0
   11.8201   12.1004  146.5530 C   0  0  0  0  0  0  0  0  0  0  0  0
   11.0404   11.7870  147.6618 C   0  0  0  0  0  0  0  0  0  0  0  0
   10.8989   10.4502  148.0071 C   0  0  0  0  0  0  0  0  0  0  0  0
  1 11  1  0  0  0  0
  1  4  1  0  0  0  0
  2  8  1  0  0  0  0
  3 10  1  0  0  0  0
  4  5  1  0  0  0  0
  5  6  1  0  0  0  0
  7  8  2  0  0  0  0
  7 12  1  0  0  0  0
  8  9  1  0  0  0  0
  9 10  2  0  0  0  0
 10 11  1  0  0  0  0
 11 12  2  0  0  0  0
M  END
>  <CHROM.1>
-129.53425594,-96.15381465,60.86614459,11.18756656,11.35290248,147.71078440
-2.90962294,-1.03648130,2.94766977

>  <Name>
ligand

>  <RI>
0

>  <Rbt.Current_Directory>
/home/itssahil/PROJECTS/Mol_Feturizer/New_Systems/rnas/4NYA

>  <Rbt.Executable>
rbdock ($Id: //depot/dev/client3/rdock/2013.1/src/exe/rbdock.cxx#4 $)

>  <Rbt.Library>
libRbt.so (2013.1, Build901 2013/11/27)

>  <Rbt.Parameter_File>
/export/apps/rDock/src/rDock_2013.1_src/data/scripts/dock_solv.prm

>  <Rbt.Receptor>
prm/pocket_docking_6.prm

>  <SCORE>
-10.8165

>  <SCORE.INTER>
-10.7078

>  <SCORE.INTER.CONST>
1

>  <SCORE.INTER.POLAR>
0

>  <SCORE.INTER.ROT>
3

>  <SCORE.INTER.SOLV>
16.2282

>  <SCORE.INTER.VDW>
-18.1479

>  <SCORE.INTER.norm>
-0.892313

>  <SCORE.INTRA>
-0.108787

>  <SCORE.INTRA.DIHEDRAL>
0.235638

>  <SCORE.INTRA.DIHEDRAL.0>
2.1382

>  <SCORE.INTRA.POLAR>
0

>  <SCORE.INTRA.POLAR.0>
0

>  <SCORE.INTRA.REPUL>
0

>  <SCORE.INTRA.REPUL.0>
0

>  <SCORE.INTRA.SOLV>
-0.429638

>  <SCORE.INTRA.SOLV.lig_0>
-59.6513

>  <SCORE.INTRA.VDW>
-0.0117877

>  <SCORE.INTRA.VDW.0>
-0.569808

>  <SCORE.INTRA.norm>
-0.00906562

>  <SCORE.RESTR>
0

>  <SCORE.RESTR.CAVITY>
0

>  <SCORE.RESTR.norm>
0

>  <SCORE.SYSTEM>
0

>  <SCORE.SYSTEM.CONST>
0

>  <SCORE.SYSTEM.DIHEDRAL>
0

>  <SCORE.SYSTEM.SOLV>
0

>  <SCORE.SYSTEM.norm>
0

>  <SCORE.heavy>
12

>  <SCORE.norm>
-0.901379

>  <RMSD>
0.851

$$$$
ligand
 OpenBabel11021811503D
libRbt.so/2013.1/901 2013/11/27
 12 12  0  0  0  0  0  0  0  0999 V2000
    9.7715   13.1295  148.5765 C   0  0  0  0  0  0  0  0  0  0  0  0
   12.8360    9.7171  145.5218 C   0  0  0  0  0  0  0  0  0  0  0  0
   11.2808   14.0352  146.5138 N   0  0  0  0  0  0  0  0  0  0  0  0
    9.7324   12.7788  150.0040 N   0  0  0  0  0  0  0  0  0  0  0  0
    9.6886   13.6349  150.7305 N   0  0  0  0  0  0  0  0  0  0  0  0
    9.6507   14.4920  151.4533 N   0  0  0  0  0  0  0  0  0  0  0  0
   11.3515   10.0783  147.3113 N   0  0  0  0  0  0  0  0  0  0  0  0
   12.0634   10.5792  146.2902 C   0  0  0  0  0  0  0  0  0  0  0  0
   12.0958   11.8996  146.0606 N   0  0  0  0  0  0  0  0  0  0  0  0
   11.4167   12.7530  146.8389 C   0  0  0  0  0  0  0  0  0  0  0  0
   10.6642   12.2943  147.9153 C   0  0  0  0  0  0  0  0  0  0  0  0
   10.6369   10.9287  148.1616 C   0  0  0  0  0  0  0  0  0  0  0  0
  1 11  1  0  0  0  0
  1  4  1  0  0  0  0
  2  8  1  0  0  0  0
  3 10  1  0  0  0  0
  4  5  1  0  0  0  0
  5  6  1  0  0  0  0
  7  8  2  0  0  0  0
  7 12  1  0  0  0  0
  8  9  1  0  0  0  0
  9 10  2  0  0  0  0
 10 11  1  0  0  0  0
 11 12  2  0  0  0  0
M  END
>  <CHROM.1>
-146.27860905,139.47005572,-58.86993459,10.93135515,12.20518509,147.96479684
-2.81849766,-1.11549910,2.88240977

>  <Name>
ligand

>  <RI>
0

>  <Rbt.Current_Directory>
/home/itssahil/PROJECTS/Mol_Feturizer/New_Systems/rnas/4NYA

>  <Rbt.Executable>
rbdock ($Id: //depot/dev/client3/rdock/2013.1/src/exe/rbdock.cxx#4 $)

>  <Rbt.Library>
libRbt.so (2013.1, Build901 2013/11/27)

>  <Rbt.Parameter_File>
/export/apps/rDock/src/rDock_2013.1_src/data/scripts/dock_solv.prm

>  <Rbt.Receptor>
prm/pocket_docking_7.prm

>  <SCORE>
-10.9695

>  <SCORE.INTER>
-10.5485

>  <SCORE.INTER.CONST>
1

>  <SCORE.INTER.POLAR>
0

>  <SCORE.INTER.ROT>
3

>  <SCORE.INTER.SOLV>
12.3652

>  <SCORE.INTER.VDW>
-16.754

>  <SCORE.INTER.norm>
-0.879039

>  <SCORE.INTRA>
-0.42104

>  <SCORE.INTRA.DIHEDRAL>
0.00776962

>  <SCORE.INTRA.DIHEDRAL.0>
2.1382

>  <SCORE.INTRA.POLAR>
0

>  <SCORE.INTRA.POLAR.0>
0

>  <SCORE.INTRA.REPUL>
0

>  <SCORE.INTRA.REPUL.0>
0

>  <SCORE.INTRA.SOLV>
-1.42358

>  <SCORE.INTRA.SOLV.lig_0>
-59.6513

>  <SCORE.INTRA.VDW>
0.286863

>  <SCORE.INTRA.VDW.0>
-0.569808

>  <SCORE.INTRA.norm>
-0.0350867

>  <SCORE.RESTR>
0

>  <SCORE.RESTR.CAVITY>
0

>  <SCORE.RESTR.norm>
0

>  <SCORE.SYSTEM>
0

>  <SCORE.SYSTEM.CONST>
0

>  <SCORE.SYSTEM.DIHEDRAL>
0

>  <SCORE.SYSTEM.SOLV>
0

>  <SCORE.SYSTEM.norm>
0

>  <SCORE.heavy>
12

>  <SCORE.norm>
-0.914125

>  <RMSD>
0.867

$$$$
ligand
 OpenBabel11021811503D
libRbt.so/2013.1/901 2013/11/27
 12 12  0  0  0  0  0  0  0  0999 V2000
    9.8498   13.2661  148.2591 C   0  0  0  0  0  0  0  0  0  0  0  0
   12.7676    9.3939  145.6402 C   0  0  0  0  0  0  0  0  0  0  0  0
   11.5880   13.8943  146.2749 N   0  0  0  0  0  0  0  0  0  0  0  0
    9.7250   13.0486  149.7080 N   0  0  0  0  0  0  0  0  0  0  0  0
    9.2788   13.8891  150.3056 N   0  0  0  0  0  0  0  0  0  0  0  0
    8.8340   14.7245  150.9078 N   0  0  0  0  0  0  0  0  0  0  0  0
   11.2015   10.0052  147.2865 N   0  0  0  0  0  0  0  0  0  0  0  0
   12.0322   10.3718  146.2987 C   0  0  0  0  0  0  0  0  0  0  0  0
   12.2141   11.6664  146.0018 N   0  0  0  0  0  0  0  0  0  0  0  0
   11.5701   12.6273  146.6779 C   0  0  0  0  0  0  0  0  0  0  0  0
   10.6992   12.3099  147.7153 C   0  0  0  0  0  0  0  0  0  0  0  0
   10.5166   10.9709  148.0316 C   0  0  0  0  0  0  0  0  0  0  0  0
  1 11  1  0  0  0  0
  1  4  1  0  0  0  0
  2  8  1  0  0  0  0
  3 10  1  0  0  0  0
  4  5  1  0  0  0  0
  5  6  1  0  0  0  0
  7  8  2  0  0  0  0
  7 12  1  0  0  0  0
  8  9  1  0  0  0  0
  9 10  2  0  0  0  0
 10 11  1  0  0  0  0
 11 12  2  0  0  0  0
M  END
>  <CHROM.1>
-143.50176257,165.39194735,179.45081351,10.85120550,12.19328540,147.77413733
-2.64289995,-0.99839726,2.98684131

>  <Name>
ligand

>  <RI>
0

>  <Rbt.Current_Directory>
/home/itssahil/PROJECTS/Mol_Feturizer/New_Systems/rnas/4NYA

>  <Rbt.Executable>
rbdock ($Id: //depot/dev/client3/rdock/2013.1/src/exe/rbdock.cxx#4 $)

>  <Rbt.Library>
libRbt.so (2013.1, Build901 2013/11/27)

>  <Rbt.Parameter_File>
/export/apps/rDock/src/rDock_2013.1_src/data/scripts/dock_solv.prm

>  <Rbt.Receptor>
prm/pocket_docking_3.prm

>  <SCORE>
-11.3824

>  <SCORE.INTER>
-10.5684

>  <SCORE.INTER.CONST>
1

>  <SCORE.INTER.POLAR>
0

>  <SCORE.INTER.ROT>
3

>  <SCORE.INTER.SOLV>
14.8151

>  <SCORE.INTER.VDW>
-17.584

>  <SCORE.INTER.norm>
-0.880701

>  <SCORE.INTRA>
-0.814027

>  <SCORE.INTRA.DIHEDRAL>
-0.699012

>  <SCORE.INTRA.DIHEDRAL.0>
2.1382

>  <SCORE.INTRA.POLAR>
0

>  <SCORE.INTRA.POLAR.0>
0

>  <SCORE.INTRA.REPUL>
0

>  <SCORE.INTRA.REPUL.0>
0

>  <SCORE.INTRA.SOLV>
-1.45743

>  <SCORE.INTRA.SOLV.lig_0>
-59.6513

>  <SCORE.INTRA.VDW>
0.264194

>  <SCORE.INTRA.VDW.0>
-0.569808

>  <SCORE.INTRA.norm>
-0.0678356

>  <SCORE.RESTR>
0

>  <SCORE.RESTR.CAVITY>
0

>  <SCORE.RESTR.norm>
0

>  <SCORE.SYSTEM>
0

>  <SCORE.SYSTEM.CONST>
0

>  <SCORE.SYSTEM.DIHEDRAL>
0

>  <SCORE.SYSTEM.SOLV>
0

>  <SCORE.SYSTEM.norm>
0

>  <SCORE.heavy>
12

>  <SCORE.norm>
-0.948536

>  <RMSD>
0.922

$$$$
ligand
 OpenBabel11021811503D
libRbt.so/2013.1/901 2013/11/27
 12 12  0  0  0  0  0  0  0  0999 V2000
   10.2201   12.6583  148.2495 C   0  0  0  0  0  0  0  0  0  0  0  0
   13.0648    8.8672  145.4385 C   0  0  0  0  0  0  0  0  0  0  0  0
   11.7431   13.3231  146.1067 N   0  0  0  0  0  0  0  0  0  0  0  0
   10.4925   12.7050  149.6938 N   0  0  0  0  0  0  0  0  0  0  0  0
    9.9961   11.9183  150.3242 N   0  0  0  0  0  0  0  0  0  0  0  0
    9.5032   11.1357  150.9591 N   0  0  0  0  0  0  0  0  0  0  0  0
   11.6263    9.4414  147.2098 N   0  0  0  0  0  0  0  0  0  0  0  0
   12.3476    9.8246  146.1454 C   0  0  0  0  0  0  0  0  0  0  0  0
   12.4431   11.1199  145.8130 N   0  0  0  0  0  0  0  0  0  0  0  0
   11.8191   12.0647  146.5294 C   0  0  0  0  0  0  0  0  0  0  0  0
   11.0600   11.7298  147.6462 C   0  0  0  0  0  0  0  0  0  0  0  0
   10.9677   10.3906  147.9986 C   0  0  0  0  0  0  0  0  0  0  0  0
  1 11  1  0  0  0  0
  1  4  1  0  0  0  0
  2  8  1  0  0  0  0
  3 10  1  0  0  0  0
  4  5  1  0  0  0  0
  5  6  1  0  0  0  0
  7  8  2  0  0  0  0
  7 12  1  0  0  0  0
  8  9  1  0  0  0  0
  9 10  2  0  0  0  0
 10 11  1  0  0  0  0
 11 12  2  0  0  0  0
M  END
>  <CHROM.1>
-128.89044987,-82.68722440,-177.35794182,11.27131419,11.26276324,147.69151797
-3.03578629,-1.06479643,2.83844015

>  <Name>
ligand

>  <RI>
0

>  <Rbt.Current_Directory>
/home/itssahil/PROJECTS/Mol_Feturizer/New_Systems/rnas/4NYA

>  <Rbt.Executable>
rbdock ($Id: //depot/dev/client3/rdock/2013.1/src/exe/rbdock.cxx#4 $)

>  <Rbt.Library>
libRbt.so (2013.1, Build901 2013/11/27)

>  <Rbt.Parameter_File>
/export/apps/rDock/src/rDock_2013.1_src/data/scripts/dock_solv.prm

>  <Rbt.Receptor>
prm/pocket_docking_2.prm

>  <SCORE>
-10.8188

>  <SCORE.INTER>
-10.7762

>  <SCORE.INTER.CONST>
1

>  <SCORE.INTER.POLAR>
0

>  <SCORE.INTER.ROT>
3

>  <SCORE.INTER.SOLV>
16.7203

>  <SCORE.INTER.VDW>
-18.3575

>  <SCORE.INTER.norm>
-0.898015

>  <SCORE.INTRA>
-0.0426416

>  <SCORE.INTRA.DIHEDRAL>
-0.159796

>  <SCORE.INTRA.DIHEDRAL.0>
2.1382

>  <SCORE.INTRA.POLAR>
0

>  <SCORE.INTRA.POLAR.0>
0

>  <SCORE.INTRA.REPUL>
0

>  <SCORE.INTRA.REPUL.0>
0

>  <SCORE.INTRA.SOLV>
-0.012304

>  <SCORE.INTRA.SOLV.lig_0>
-59.6513

>  <SCORE.INTRA.VDW>
0.0434085

>  <SCORE.INTRA.VDW.0>
-0.569808

>  <SCORE.INTRA.norm>
-0.00355346

>  <SCORE.RESTR>
0

>  <SCORE.RESTR.CAVITY>
0

>  <SCORE.RESTR.norm>
0

>  <SCORE.SYSTEM>
0

>  <SCORE.SYSTEM.CONST>
0

>  <SCORE.SYSTEM.DIHEDRAL>
0

>  <SCORE.SYSTEM.SOLV>
0

>  <SCORE.SYSTEM.norm>
0

>  <SCORE.heavy>
12

>  <SCORE.norm>
-0.901569

>  <RMSD>
0.962

$$$$
ligand
 OpenBabel11021811503D
libRbt.so/2013.1/901 2013/11/27
 12 12  0  0  0  0  0  0  0  0999 V2000
   10.2816   12.6572  148.2484 C   0  0  0  0  0  0  0  0  0  0  0  0
   13.0456    8.8153  145.4258 C   0  0  0  0  0  0  0  0  0  0  0  0
   11.8467   13.3004  146.1295 N   0  0  0  0  0  0  0  0  0  0  0  0
   10.4819   12.6248  149.7048 N   0  0  0  0  0  0  0  0  0  0  0  0
    9.8357   11.9118  150.2850 N   0  0  0  0  0  0  0  0  0  0  0  0
    9.1932   11.1947  150.8608 N   0  0  0  0  0  0  0  0  0  0  0  0
   11.6050    9.4121  147.1879 N   0  0  0  0  0  0  0  0  0  0  0  0
   12.3489    9.7856  146.1356 C   0  0  0  0  0  0  0  0  0  0  0  0
   12.4855   11.0811  145.8188 N   0  0  0  0  0  0  0  0  0  0  0  0
   11.8815   12.0358  146.5390 C   0  0  0  0  0  0  0  0  0  0  0  0
   11.1007   11.7111  147.6438 C   0  0  0  0  0  0  0  0  0  0  0  0
   10.9656   10.3714  147.9802 C   0  0  0  0  0  0  0  0  0  0  0  0
  1 11  1  0  0  0  0
  1  4  1  0  0  0  0
  2  8  1  0  0  0  0
  3 10  1  0  0  0  0
  4  5  1  0  0  0  0
  5  6  1  0  0  0  0
  7  8  2  0  0  0  0
  7 12  1  0  0  0  0
  8  9  1  0  0  0  0
  9 10  2  0  0  0  0
 10 11  1  0  0  0  0
 11 12  2  0  0  0  0
M  END
>  <CHROM.1>
-132.20822106,-88.75243995,62.02290500,11.25153934,11.23963623,147.67826079
-2.94009862,-1.02799073,2.94562655

>  <Name>
ligand

>  <RI>
0

>  <Rbt.Current_Directory>
/home/itssahil/PROJECTS/Mol_Feturizer/New_Systems/rnas/4NYA

>  <Rbt.Executable>
rbdock ($Id: //depot/dev/client3/rdock/2013.1/src/exe/rbdock.cxx#4 $)

>  <Rbt.Library>
libRbt.so (2013.1, Build901 2013/11/27)

>  <Rbt.Parameter_File>
/export/apps/rDock/src/rDock_2013.1_src/data/scripts/dock_solv.prm

>  <Rbt.Receptor>
prm/pocket_docking_2.prm

>  <SCORE>
-10.7968

>  <SCORE.INTER>
-10.7077

>  <SCORE.INTER.CONST>
1

>  <SCORE.INTER.POLAR>
0

>  <SCORE.INTER.ROT>
3

>  <SCORE.INTER.SOLV>
16.6213

>  <SCORE.INTER.VDW>
-18.2789

>  <SCORE.INTER.norm>
-0.89231

>  <SCORE.INTRA>
-0.0890523

>  <SCORE.INTRA.DIHEDRAL>
-0.0619372

>  <SCORE.INTRA.DIHEDRAL.0>
2.1382

>  <SCORE.INTRA.POLAR>
0

>  <SCORE.INTRA.POLAR.0>
0

>  <SCORE.INTRA.REPUL>
0

>  <SCORE.INTRA.REPUL.0>
0

>  <SCORE.INTRA.SOLV>
-0.209442

>  <SCORE.INTRA.SOLV.lig_0>
-59.6513

>  <SCORE.INTRA.VDW>
0.0466375

>  <SCORE.INTRA.VDW.0>
-0.569808

>  <SCORE.INTRA.norm>
-0.00742102

>  <SCORE.RESTR>
0

>  <SCORE.RESTR.CAVITY>
0

>  <SCORE.RESTR.norm>
0

>  <SCORE.SYSTEM>
0

>  <SCORE.SYSTEM.CONST>
0

>  <SCORE.SYSTEM.DIHEDRAL>
0

>  <SCORE.SYSTEM.SOLV>
0

>  <SCORE.SYSTEM.norm>
0

>  <SCORE.heavy>
12

>  <SCORE.norm>
-0.899731

>  <RMSD>
0.981

$$$$
ligand
 OpenBabel11021811503D
libRbt.so/2013.1/901 2013/11/27
 12 12  0  0  0  0  0  0  0  0999 V2000
   10.1619   12.7788  148.2096 C   0  0  0  0  0  0  0  0  0  0  0  0
   12.9653    8.8885  145.4943 C   0  0  0  0  0  0  0  0  0  0  0  0
   11.7808   13.3887  146.1215 N   0  0  0  0  0  0  0  0  0  0  0  0
   10.1053   12.5727  149.6644 N   0  0  0  0  0  0  0  0  0  0  0  0
    9.5503   13.3471  150.2602 N   0  0  0  0  0  0  0  0  0  0  0  0
    8.9906   14.1189  150.8514 N   0  0  0  0  0  0  0  0  0  0  0  0
   11.4878    9.5138  147.2154 N   0  0  0  0  0  0  0  0  0  0  0  0
   12.2586    9.8710  146.1770 C   0  0  0  0  0  0  0  0  0  0  0  0
   12.4116   11.1620  145.8496 N   0  0  0  0  0  0  0  0  0  0  0  0
   11.7973   12.1284  146.5451 C   0  0  0  0  0  0  0  0  0  0  0  0
   10.9886   11.8209  147.6346 C   0  0  0  0  0  0  0  0  0  0  0  0
   10.8365   10.4859  147.9821 C   0  0  0  0  0  0  0  0  0  0  0  0
  1 11  1  0  0  0  0
  1  4  1  0  0  0  0
  2  8  1  0  0  0  0
  3 10  1  0  0  0  0
  4  5  1  0  0  0  0
  5  6  1  0  0  0  0
  7  8  2  0  0  0  0
  7 12  1  0  0  0  0
  8  9  1  0  0  0  0
  9 10  2  0  0  0  0
 10 11  1  0  0  0  0
 11 12  2  0  0  0  0
M  END
>  <CHROM.1>
-144.28586240,174.04576447,59.37564796,11.10512685,11.68499175,147.68216154
-2.70658926,-1.02554314,2.92957759

>  <Name>
ligand

>  <RI>
0

>  <Rbt.Current_Directory>
/home/itssahil/PROJECTS/Mol_Feturizer/New_Systems/rnas/4NYA

>  <Rbt.Executable>
rbdock ($Id: //depot/dev/client3/rdock/2013.1/src/exe/rbdock.cxx#4 $)

>  <Rbt.Library>
libRbt.so (2013.1, Build901 2013/11/27)

>  <Rbt.Parameter_File>
/export/apps/rDock/src/rDock_2013.1_src/data/scripts/dock_solv.prm

>  <Rbt.Receptor>
prm/pocket_docking_7.prm

>  <SCORE>
-11.573

>  <SCORE.INTER>
-10.7137

>  <SCORE.INTER.CONST>
1

>  <SCORE.INTER.POLAR>
0

>  <SCORE.INTER.ROT>
3

>  <SCORE.INTER.SOLV>
15.6739

>  <SCORE.INTER.VDW>
-17.9671

>  <SCORE.INTER.norm>
-0.892812

>  <SCORE.INTRA>
-0.859228

>  <SCORE.INTRA.DIHEDRAL>
-0.84958

>  <SCORE.INTRA.DIHEDRAL.0>
2.1382

>  <SCORE.INTRA.POLAR>
0

>  <SCORE.INTRA.POLAR.0>
0

>  <SCORE.INTRA.REPUL>
0

>  <SCORE.INTRA.REPUL.0>
0

>  <SCORE.INTRA.SOLV>
-1.4554

>  <SCORE.INTRA.SOLV.lig_0>
-59.6513

>  <SCORE.INTRA.VDW>
0.293264

>  <SCORE.INTRA.VDW.0>
-0.569808

>  <SCORE.INTRA.norm>
-0.0716023

>  <SCORE.RESTR>
0

>  <SCORE.RESTR.CAVITY>
0

>  <SCORE.RESTR.norm>
0

>  <SCORE.SYSTEM>
0

>  <SCORE.SYSTEM.CONST>
0

>  <SCORE.SYSTEM.DIHEDRAL>
0

>  <SCORE.SYSTEM.SOLV>
0

>  <SCORE.SYSTEM.norm>
0

>  <SCORE.heavy>
12

>  <SCORE.norm>
-0.964415

>  <RMSD>
1.007

$$$$
ligand
 OpenBabel11021811503D
libRbt.so/2013.1/901 2013/11/27
 12 12  0  0  0  0  0  0  0  0999 V2000
   10.2629   12.6313  148.0987 C   0  0  0  0  0  0  0  0  0  0  0  0
   13.0087    8.7106  145.3682 C   0  0  0  0  0  0  0  0  0  0  0  0
   11.9258   13.2297  146.0421 N   0  0  0  0  0  0  0  0  0  0  0  0
   10.3737   12.5601  149.5632 N   0  0  0  0  0  0  0  0  0  0  0  0
    9.4795   12.1630  150.1159 N   0  0  0  0  0  0  0  0  0  0  0  0
    8.5829   11.7712  150.6644 N   0  0  0  0  0  0  0  0  0  0  0  0
   11.5225    9.3485  147.0772 N   0  0  0  0  0  0  0  0  0  0  0  0
   12.3167    9.7007  146.0547 C   0  0  0  0  0  0  0  0  0  0  0  0
   12.5058   10.9920  145.7477 N   0  0  0  0  0  0  0  0  0  0  0  0
   11.9054   11.9636  146.4481 C   0  0  0  0  0  0  0  0  0  0  0  0
   11.0740   11.6612  147.5218 C   0  0  0  0  0  0  0  0  0  0  0  0
   10.8843   10.3257  147.8483 C   0  0  0  0  0  0  0  0  0  0  0  0
  1 11  1  0  0  0  0
  1  4  1  0  0  0  0
  2  8  1  0  0  0  0
  3 10  1  0  0  0  0
  4  5  1  0  0  0  0
  5  6  1  0  0  0  0
  7  8  2  0  0  0  0
  7 12  1  0  0  0  0
  8  9  1  0  0  0  0
  9 10  2  0  0  0  0
 10 11  1  0  0  0  0
 11 12  2  0  0  0  0
M  END
>  <CHROM.1>
-134.05299082,-108.82523915,-52.47820507,11.14584331,11.25568451,147.56065298
-2.81045382,-0.95626260,3.03511304

>  <Name>
ligand

>  <RI>
0

>  <Rbt.Current_Directory>
/home/itssahil/PROJECTS/Mol_Feturizer/New_Systems/rnas/4NYA

>  <Rbt.Executable>
rbdock ($Id: //depot/dev/client3/rdock/2013.1/src/exe/rbdock.cxx#4 $)

>  <Rbt.Library>
libRbt.so (2013.1, Build901 2013/11/27)

>  <Rbt.Parameter_File>
/export/apps/rDock/src/rDock_2013.1_src/data/scripts/dock_solv.prm

>  <Rbt.Receptor>
prm/pocket_docking_2.prm

>  <SCORE>
-10.7161

>  <SCORE.INTER>
-10.5298

>  <SCORE.INTER.CONST>
1

>  <SCORE.INTER.POLAR>
0

>  <SCORE.INTER.ROT>
3

>  <SCORE.INTER.SOLV>
16.608

>  <SCORE.INTER.VDW>
-18.1559

>  <SCORE.INTER.norm>
-0.877484

>  <SCORE.INTRA>
-0.186288

>  <SCORE.INTRA.DIHEDRAL>
0.445593

>  <SCORE.INTRA.DIHEDRAL.0>
2.1382

>  <SCORE.INTRA.POLAR>
0

>  <SCORE.INTRA.POLAR.0>
0

>  <SCORE.INTRA.REPUL>
0

>  <SCORE.INTRA.REPUL.0>
0

>  <SCORE.INTRA.SOLV>
-0.873256

>  <SCORE.INTRA.SOLV.lig_0>
-59.6513

>  <SCORE.INTRA.VDW>
0.0275432

>  <SCORE.INTRA.VDW.0>
-0.569808

>  <SCORE.INTRA.norm>
-0.015524

>  <SCORE.RESTR>
0

>  <SCORE.RESTR.CAVITY>
0

>  <SCORE.RESTR.norm>
0

>  <SCORE.SYSTEM>
0

>  <SCORE.SYSTEM.CONST>
0

>  <SCORE.SYSTEM.DIHEDRAL>
0

>  <SCORE.SYSTEM.SOLV>
0

>  <SCORE.SYSTEM.norm>
0

>  <SCORE.heavy>
12

>  <SCORE.norm>
-0.893008

>  <RMSD>
1.009

$$$$
ligand
 OpenBabel11021811503D
libRbt.so/2013.1/901 2013/11/27
 12 12  0  0  0  0  0  0  0  0999 V2000
    9.6724   13.5641  148.3765 C   0  0  0  0  0  0  0  0  0  0  0  0
   12.6701    9.8524  145.6190 C   0  0  0  0  0  0  0  0  0  0  0  0
   11.4069   14.3021  146.4272 N   0  0  0  0  0  0  0  0  0  0  0  0
   10.4171   14.4369  149.2962 N   0  0  0  0  0  0  0  0  0  0  0  0
   10.1308   14.3838  150.3815 N   0  0  0  0  0  0  0  0  0  0  0  0
    9.8496   14.3355  151.4664 N   0  0  0  0  0  0  0  0  0  0  0  0
   11.0866   10.3694  147.2809 N   0  0  0  0  0  0  0  0  0  0  0  0
   11.9145   10.7899  146.3124 C   0  0  0  0  0  0  0  0  0  0  0  0
   12.0742   12.0984  146.0683 N   0  0  0  0  0  0  0  0  0  0  0  0
   11.4102   13.0198  146.7792 C   0  0  0  0  0  0  0  0  0  0  0  0
   10.5410   12.6457  147.7990 C   0  0  0  0  0  0  0  0  0  0  0  0
   10.3814   11.2921  148.0607 C   0  0  0  0  0  0  0  0  0  0  0  0
  1 11  1  0  0  0  0
  1  4  1  0  0  0  0
  2  8  1  0  0  0  0
  3 10  1  0  0  0  0
  4  5  1  0  0  0  0
  5  6  1  0  0  0  0
  7  8  2  0  0  0  0
  7 12  1  0  0  0  0
  8  9  1  0  0  0  0
  9 10  2  0  0  0  0
 10 11  1  0  0  0  0
 11 12  2  0  0  0  0
M  END
>  <CHROM.1>
-76.28156194,-116.75305813,-179.83882206,10.96872718,12.60589971,147.83723116
-2.60517893,-1.15415368,3.00123112

>  <Name>
ligand

>  <RI>
0

>  <Rbt.Current_Directory>
/home/itssahil/PROJECTS/Mol_Feturizer/New_Systems/rnas/4NYA

>  <Rbt.Executable>
rbdock ($Id: //depot/dev/client3/rdock/2013.1/src/exe/rbdock.cxx#4 $)

>  <Rbt.Library>
libRbt.so (2013.1, Build901 2013/11/27)

>  <Rbt.Parameter_File>
/export/apps/rDock/src/rDock_2013.1_src/data/scripts/dock_solv.prm

>  <Rbt.Receptor>
prm/pocket_docking_3.prm

>  <SCORE>
-10.1096

>  <SCORE.INTER>
-10.6457

>  <SCORE.INTER.CONST>
1

>  <SCORE.INTER.POLAR>
0

>  <SCORE.INTER.ROT>
3

>  <SCORE.INTER.SOLV>
12.832

>  <SCORE.INTER.VDW>
-16.9745

>  <SCORE.INTER.norm>
-0.887146

>  <SCORE.INTRA>
0.536123

>  <SCORE.INTRA.DIHEDRAL>
0.997795

>  <SCORE.INTRA.DIHEDRAL.0>
2.1382

>  <SCORE.INTRA.POLAR>
0

>  <SCORE.INTRA.POLAR.0>
0

>  <SCORE.INTRA.REPUL>
0

>  <SCORE.INTRA.REPUL.0>
0

>  <SCORE.INTRA.SOLV>
0.281267

>  <SCORE.INTRA.SOLV.lig_0>
-59.6513

>  <SCORE.INTRA.VDW>
-0.103409

>  <SCORE.INTRA.VDW.0>
-0.569808

>  <SCORE.INTRA.norm>
0.0446769

>  <SCORE.RESTR>
0

>  <SCORE.RESTR.CAVITY>
0

>  <SCORE.RESTR.norm>
0

>  <SCORE.SYSTEM>
0

>  <SCORE.SYSTEM.CONST>
0

>  <SCORE.SYSTEM.DIHEDRAL>
0

>  <SCORE.SYSTEM.SOLV>
0

>  <SCORE.SYSTEM.norm>
0

>  <SCORE.heavy>
12

>  <SCORE.norm>
-0.842469

>  <RMSD>
1.010

$$$$
ligand
 OpenBabel11021811503D
libRbt.so/2013.1/901 2013/11/27
 12 12  0  0  0  0  0  0  0  0999 V2000
   10.1739   12.7480  148.2264 C   0  0  0  0  0  0  0  0  0  0  0  0
   12.9955    8.8825  145.4945 C   0  0  0  0  0  0  0  0  0  0  0  0
   11.7612   13.3699  146.1176 N   0  0  0  0  0  0  0  0  0  0  0  0
   10.1549   12.5618  149.6849 N   0  0  0  0  0  0  0  0  0  0  0  0
    9.5803   13.3217  150.2808 N   0  0  0  0  0  0  0  0  0  0  0  0
    9.0010   14.0786  150.8724 N   0  0  0  0  0  0  0  0  0  0  0  0
   11.5298    9.4960  147.2300 N   0  0  0  0  0  0  0  0  0  0  0  0
   12.2843    9.8587  146.1814 C   0  0  0  0  0  0  0  0  0  0  0  0
   12.4171   11.1502  145.8473 N   0  0  0  0  0  0  0  0  0  0  0  0
   11.7984   12.1116  146.5460 C   0  0  0  0  0  0  0  0  0  0  0  0
   11.0061   11.7983  147.6458 C   0  0  0  0  0  0  0  0  0  0  0  0
   10.8749   10.4628  148.0002 C   0  0  0  0  0  0  0  0  0  0  0  0
  1 11  1  0  0  0  0
  1  4  1  0  0  0  0
  2  8  1  0  0  0  0
  3 10  1  0  0  0  0
  4  5  1  0  0  0  0
  5  6  1  0  0  0  0
  7  8  2  0  0  0  0
  7 12  1  0  0  0  0
  8  9  1  0  0  0  0
  9 10  2  0  0  0  0
 10 11  1  0  0  0  0
 11 12  2  0  0  0  0
M  END
>  <CHROM.1>
-143.30167348,175.28825142,60.79876327,11.12542566,11.66529047,147.69234432
-2.73581578,-1.03367014,2.89995901

>  <Name>
ligand

>  <RI>
0

>  <Rbt.Current_Directory>
/home/itssahil/PROJECTS/Mol_Feturizer/New_Systems/rnas/4NYA

>  <Rbt.Executable>
rbdock ($Id: //depot/dev/client3/rdock/2013.1/src/exe/rbdock.cxx#4 $)

>  <Rbt.Library>
libRbt.so (2013.1, Build901 2013/11/27)

>  <Rbt.Parameter_File>
/export/apps/rDock/src/rDock_2013.1_src/data/scripts/dock_solv.prm

>  <Rbt.Receptor>
prm/pocket_docking_3.prm

>  <SCORE>
-11.5782

>  <SCORE.INTER>
-10.7126

>  <SCORE.INTER.CONST>
1

>  <SCORE.INTER.POLAR>
0

>  <SCORE.INTER.ROT>
3

>  <SCORE.INTER.SOLV>
15.7613

>  <SCORE.INTER.VDW>
-17.9955

>  <SCORE.INTER.norm>
-0.892717

>  <SCORE.INTRA>
-0.865555

>  <SCORE.INTRA.DIHEDRAL>
-0.844598

>  <SCORE.INTRA.DIHEDRAL.0>
2.1382

>  <SCORE.INTRA.POLAR>
0

>  <SCORE.INTRA.POLAR.0>
0

>  <SCORE.INTRA.REPUL>
0

>  <SCORE.INTRA.REPUL.0>
0

>  <SCORE.INTRA.SOLV>
-1.44627

>  <SCORE.INTRA.SOLV.lig_0>
-59.6513

>  <SCORE.INTRA.VDW>
0.279879

>  <SCORE.INTRA.VDW.0>
-0.569808

>  <SCORE.INTRA.norm>
-0.0721296

>  <SCORE.RESTR>
0

>  <SCORE.RESTR.CAVITY>
0

>  <SCORE.RESTR.norm>
0

>  <SCORE.SYSTEM>
0

>  <SCORE.SYSTEM.CONST>
0

>  <SCORE.SYSTEM.DIHEDRAL>
0

>  <SCORE.SYSTEM.SOLV>
0

>  <SCORE.SYSTEM.norm>
0

>  <SCORE.heavy>
12

>  <SCORE.norm>
-0.964846

>  <RMSD>
1.011

$$$$
ligand
 OpenBabel11021811503D
libRbt.so/2013.1/901 2013/11/27
 12 12  0  0  0  0  0  0  0  0999 V2000
   10.2008   12.7879  148.3291 C   0  0  0  0  0  0  0  0  0  0  0  0
   12.9539    8.9426  145.5005 C   0  0  0  0  0  0  0  0  0  0  0  0
   11.4346   13.3593  145.9830 N   0  0  0  0  0  0  0  0  0  0  0  0
   10.3759   12.7014  149.7865 N   0  0  0  0  0  0  0  0  0  0  0  0
    9.8456   13.4769  150.4030 N   0  0  0  0  0  0  0  0  0  0  0  0
    9.3103   14.2482  151.0170 N   0  0  0  0  0  0  0  0  0  0  0  0
   11.6850    9.5789  147.3770 N   0  0  0  0  0  0  0  0  0  0  0  0
   12.2595    9.9135  146.2117 C   0  0  0  0  0  0  0  0  0  0  0  0
   12.2359   11.1810  145.7754 N   0  0  0  0  0  0  0  0  0  0  0  0
   11.6358   12.1451  146.4864 C   0  0  0  0  0  0  0  0  0  0  0  0
   11.0265   11.8607  147.7043 C   0  0  0  0  0  0  0  0  0  0  0  0
   11.0581   10.5513  148.1633 C   0  0  0  0  0  0  0  0  0  0  0  0
  1 11  1  0  0  0  0
  1  4  1  0  0  0  0
  2  8  1  0  0  0  0
  3 10  1  0  0  0  0
  4  5  1  0  0  0  0
  5  6  1  0  0  0  0
  7  8  2  0  0  0  0
  7 12  1  0  0  0  0
  8  9  1  0  0  0  0
  9 10  2  0  0  0  0
 10 11  1  0  0  0  0
 11 12  2  0  0  0  0
M  END
>  <CHROM.1>
-144.21314443,173.56425856,71.49616631,11.16360609,11.74154780,147.74302506
-3.00664395,-1.13074630,2.58588135

>  <Name>
ligand

>  <RI>
0

>  <Rbt.Current_Directory>
/home/itssahil/PROJECTS/Mol_Feturizer/New_Systems/rnas/4NYA

>  <Rbt.Executable>
rbdock ($Id: //depot/dev/client3/rdock/2013.1/src/exe/rbdock.cxx#4 $)

>  <Rbt.Library>
libRbt.so (2013.1, Build901 2013/11/27)

>  <Rbt.Parameter_File>
/export/apps/rDock/src/rDock_2013.1_src/data/scripts/dock_solv.prm

>  <Rbt.Receptor>
prm/pocket_docking_2.prm

>  <SCORE>
-11.4177

>  <SCORE.INTER>
-10.5776

>  <SCORE.INTER.CONST>
1

>  <SCORE.INTER.POLAR>
0

>  <SCORE.INTER.ROT>
3

>  <SCORE.INTER.SOLV>
16.1114

>  <SCORE.INTER.VDW>
-18.0222

>  <SCORE.INTER.norm>
-0.881467

>  <SCORE.INTRA>
-0.84014

>  <SCORE.INTRA.DIHEDRAL>
-0.808594

>  <SCORE.INTRA.DIHEDRAL.0>
2.1382

>  <SCORE.INTRA.POLAR>
0

>  <SCORE.INTRA.POLAR.0>
0

>  <SCORE.INTRA.REPUL>
0

>  <SCORE.INTRA.REPUL.0>
0

>  <SCORE.INTRA.SOLV>
-1.45586

>  <SCORE.INTRA.SOLV.lig_0>
-59.6513

>  <SCORE.INTRA.VDW>
0.292085

>  <SCORE.INTRA.VDW.0>
-0.569808

>  <SCORE.INTRA.norm>
-0.0700117

>  <SCORE.RESTR>
0

>  <SCORE.RESTR.CAVITY>
0

>  <SCORE.RESTR.norm>
0

>  <SCORE.SYSTEM>
0

>  <SCORE.SYSTEM.CONST>
0

>  <SCORE.SYSTEM.DIHEDRAL>
0

>  <SCORE.SYSTEM.SOLV>
0

>  <SCORE.SYSTEM.norm>
0

>  <SCORE.heavy>
12

>  <SCORE.norm>
-0.951479

>  <RMSD>
1.016

$$$$
ligand
 OpenBabel11021811503D
libRbt.so/2013.1/901 2013/11/27
 12 12  0  0  0  0  0  0  0  0999 V2000
   10.1756   12.7605  148.2427 C   0  0  0  0  0  0  0  0  0  0  0  0
   12.9716    8.8946  145.4853 C   0  0  0  0  0  0  0  0  0  0  0  0
   11.7804   13.3878  146.1489 N   0  0  0  0  0  0  0  0  0  0  0  0
   10.2084   12.6091  149.7049 N   0  0  0  0  0  0  0  0  0  0  0  0
    9.6563   13.3841  150.3027 N   0  0  0  0  0  0  0  0  0  0  0  0
    9.0994   14.1560  150.8963 N   0  0  0  0  0  0  0  0  0  0  0  0
   11.5030    9.5052  147.2193 N   0  0  0  0  0  0  0  0  0  0  0  0
   12.2668    9.8709  146.1786 C   0  0  0  0  0  0  0  0  0  0  0  0
   12.4148   11.1644  145.8587 N   0  0  0  0  0  0  0  0  0  0  0  0
   11.8024   12.1248  146.5642 C   0  0  0  0  0  0  0  0  0  0  0  0
   11.0010   11.8083  147.6565 C   0  0  0  0  0  0  0  0  0  0  0  0
   10.8541   10.4707  147.9962 C   0  0  0  0  0  0  0  0  0  0  0  0
  1 11  1  0  0  0  0
  1  4  1  0  0  0  0
  2  8  1  0  0  0  0
  3 10  1  0  0  0  0
  4  5  1  0  0  0  0
  5  6  1  0  0  0  0
  7  8  2  0  0  0  0
  7 12  1  0  0  0  0
  8  9  1  0  0  0  0
  9 10  2  0  0  0  0
 10 11  1  0  0  0  0
 11 12  2  0  0  0  0
M  END
>  <CHROM.1>
-140.02029955,174.40434244,60.30111951,11.13933883,11.69058887,147.70305743
-2.69998702,-1.04343994,2.93079109

>  <Name>
ligand

>  <RI>
0

>  <Rbt.Current_Directory>
/home/itssahil/PROJECTS/Mol_Feturizer/New_Systems/rnas/4NYA

>  <Rbt.Executable>
rbdock ($Id: //depot/dev/client3/rdock/2013.1/src/exe/rbdock.cxx#4 $)

>  <Rbt.Library>
libRbt.so (2013.1, Build901 2013/11/27)

>  <Rbt.Parameter_File>
/export/apps/rDock/src/rDock_2013.1_src/data/scripts/dock_solv.prm

>  <Rbt.Receptor>
prm/pocket_docking_6.prm

>  <SCORE>
-11.5203

>  <SCORE.INTER>
-10.6604

>  <SCORE.INTER.CONST>
1

>  <SCORE.INTER.POLAR>
0

>  <SCORE.INTER.ROT>
3

>  <SCORE.INTER.SOLV>
15.6284

>  <SCORE.INTER.VDW>
-17.9164

>  <SCORE.INTER.norm>
-0.888368

>  <SCORE.INTRA>
-0.85991

>  <SCORE.INTRA.DIHEDRAL>
-0.777589

>  <SCORE.INTRA.DIHEDRAL.0>
2.1382

>  <SCORE.INTRA.POLAR>
0

>  <SCORE.INTRA.POLAR.0>
0

>  <SCORE.INTRA.REPUL>
0

>  <SCORE.INTRA.REPUL.0>
0

>  <SCORE.INTRA.SOLV>
-1.41939

>  <SCORE.INTRA.SOLV.lig_0>
-59.6513

>  <SCORE.INTRA.VDW>
0.238578

>  <SCORE.INTRA.VDW.0>
-0.569808

>  <SCORE.INTRA.norm>
-0.0716591

>  <SCORE.RESTR>
0

>  <SCORE.RESTR.CAVITY>
0

>  <SCORE.RESTR.norm>
0

>  <SCORE.SYSTEM>
0

>  <SCORE.SYSTEM.CONST>
0

>  <SCORE.SYSTEM.DIHEDRAL>
0

>  <SCORE.SYSTEM.SOLV>
0

>  <SCORE.SYSTEM.norm>
0

>  <SCORE.heavy>
12

>  <SCORE.norm>
-0.960028

>  <RMSD>
1.017

$$$$
ligand
 OpenBabel11021811503D
libRbt.so/2013.1/901 2013/11/27
 12 12  0  0  0  0  0  0  0  0999 V2000
   10.1742   12.7747  148.1978 C   0  0  0  0  0  0  0  0  0  0  0  0
   12.9182    8.8440  145.4800 C   0  0  0  0  0  0  0  0  0  0  0  0
   11.7583   13.3550  146.0748 N   0  0  0  0  0  0  0  0  0  0  0  0
   10.1157   12.5656  149.6521 N   0  0  0  0  0  0  0  0  0  0  0  0
    9.5749   13.3478  150.2507 N   0  0  0  0  0  0  0  0  0  0  0  0
    9.0293   14.1274  150.8449 N   0  0  0  0  0  0  0  0  0  0  0  0
   11.4727    9.4941  147.2191 N   0  0  0  0  0  0  0  0  0  0  0  0
   12.2265    9.8366  146.1633 C   0  0  0  0  0  0  0  0  0  0  0  0
   12.3775   11.1232  145.8182 N   0  0  0  0  0  0  0  0  0  0  0  0
   11.7783   12.0997  146.5129 C   0  0  0  0  0  0  0  0  0  0  0  0
   10.9878   11.8075  147.6198 C   0  0  0  0  0  0  0  0  0  0  0  0
   10.8378   10.4771  147.9855 C   0  0  0  0  0  0  0  0  0  0  0  0
  1 11  1  0  0  0  0
  1  4  1  0  0  0  0
  2  8  1  0  0  0  0
  3 10  1  0  0  0  0
  4  5  1  0  0  0  0
  5  6  1  0  0  0  0
  7  8  2  0  0  0  0
  7 12  1  0  0  0  0
  8  9  1  0  0  0  0
  9 10  2  0  0  0  0
 10 11  1  0  0  0  0
 11 12  2  0  0  0  0
M  END
>  <CHROM.1>
-145.67450073,173.80367264,60.87086579,11.09820724,11.66627739,147.66661492
-2.71172432,-1.03925031,2.91679470

>  <Name>
ligand

>  <RI>
0

>  <Rbt.Current_Directory>
/home/itssahil/PROJECTS/Mol_Feturizer/New_Systems/rnas/4NYA

>  <Rbt.Executable>
rbdock ($Id: //depot/dev/client3/rdock/2013.1/src/exe/rbdock.cxx#4 $)

>  <Rbt.Library>
libRbt.so (2013.1, Build901 2013/11/27)

>  <Rbt.Parameter_File>
/export/apps/rDock/src/rDock_2013.1_src/data/scripts/dock_solv.prm

>  <Rbt.Receptor>
prm/pocket_docking_2.prm

>  <SCORE>
-11.5295

>  <SCORE.INTER>
-10.6755

>  <SCORE.INTER.CONST>
1

>  <SCORE.INTER.POLAR>
0

>  <SCORE.INTER.ROT>
3

>  <SCORE.INTER.SOLV>
15.7545

>  <SCORE.INTER.VDW>
-17.9685

>  <SCORE.INTER.norm>
-0.889623

>  <SCORE.INTRA>
-0.854058

>  <SCORE.INTRA.DIHEDRAL>
-0.867303

>  <SCORE.INTRA.DIHEDRAL.0>
2.1382

>  <SCORE.INTRA.POLAR>
0

>  <SCORE.INTRA.POLAR.0>
0

>  <SCORE.INTRA.REPUL>
0

>  <SCORE.INTRA.REPUL.0>
0

>  <SCORE.INTRA.SOLV>
-1.46628

>  <SCORE.INTRA.SOLV.lig_0>
-59.6513

>  <SCORE.INTRA.VDW>
0.312732

>  <SCORE.INTRA.VDW.0>
-0.569808

>  <SCORE.INTRA.norm>
-0.0711715

>  <SCORE.RESTR>
0

>  <SCORE.RESTR.CAVITY>
0

>  <SCORE.RESTR.norm>
0

>  <SCORE.SYSTEM>
0

>  <SCORE.SYSTEM.CONST>
0

>  <SCORE.SYSTEM.DIHEDRAL>
0

>  <SCORE.SYSTEM.SOLV>
0

>  <SCORE.SYSTEM.norm>
0

>  <SCORE.heavy>
12

>  <SCORE.norm>
-0.960795

>  <RMSD>
1.018

$$$$
ligand
 OpenBabel11021811503D
libRbt.so/2013.1/901 2013/11/27
 12 12  0  0  0  0  0  0  0  0999 V2000
   10.1730   12.7179  148.2529 C   0  0  0  0  0  0  0  0  0  0  0  0
   13.0213    8.9184  145.4569 C   0  0  0  0  0  0  0  0  0  0  0  0
   11.7081   13.3780  146.1173 N   0  0  0  0  0  0  0  0  0  0  0  0
   10.1680   12.5133  149.7090 N   0  0  0  0  0  0  0  0  0  0  0  0
    9.6625   13.3050  150.3258 N   0  0  0  0  0  0  0  0  0  0  0  0
    9.1598   14.0921  150.9471 N   0  0  0  0  0  0  0  0  0  0  0  0
   11.5758    9.4970  147.2211 N   0  0  0  0  0  0  0  0  0  0  0  0
   12.3032    9.8780  146.1600 C   0  0  0  0  0  0  0  0  0  0  0  0
   12.4037   11.1729  145.8277 N   0  0  0  0  0  0  0  0  0  0  0  0
   11.7787   12.1195  146.5408 C   0  0  0  0  0  0  0  0  0  0  0  0
   11.0134   11.7870  147.6540 C   0  0  0  0  0  0  0  0  0  0  0  0
   10.9158   10.4481  148.0063 C   0  0  0  0  0  0  0  0  0  0  0  0
  1 11  1  0  0  0  0
  1  4  1  0  0  0  0
  2  8  1  0  0  0  0
  3 10  1  0  0  0  0
  4  5  1  0  0  0  0
  5  6  1  0  0  0  0
  7  8  2  0  0  0  0
  7 12  1  0  0  0  0
  8  9  1  0  0  0  0
  9 10  2  0  0  0  0
 10 11  1  0  0  0  0
 11 12  2  0  0  0  0
M  END
>  <CHROM.1>
-144.20632357,170.23655932,-175.74903356,11.15157131,11.66437077,147.70022608
-2.77439514,-1.05772216,2.86439522

>  <Name>
ligand

>  <RI>
0

>  <Rbt.Current_Directory>
/home/itssahil/PROJECTS/Mol_Feturizer/New_Systems/rnas/4NYA

>  <Rbt.Executable>
rbdock ($Id: //depot/dev/client3/rdock/2013.1/src/exe/rbdock.cxx#4 $)

>  <Rbt.Library>
libRbt.so (2013.1, Build901 2013/11/27)

>  <Rbt.Parameter_File>
/export/apps/rDock/src/rDock_2013.1_src/data/scripts/dock_solv.prm

>  <Rbt.Receptor>
prm/pocket_docking_8.prm

>  <SCORE>
-11.5042

>  <SCORE.INTER>
-10.6659

>  <SCORE.INTER.CONST>
1

>  <SCORE.INTER.POLAR>
0

>  <SCORE.INTER.ROT>
3

>  <SCORE.INTER.SOLV>
15.602

>  <SCORE.INTER.VDW>
-17.9113

>  <SCORE.INTER.norm>
-0.888823

>  <SCORE.INTRA>
-0.838292

>  <SCORE.INTRA.DIHEDRAL>
-0.795742

>  <SCORE.INTRA.DIHEDRAL.0>
2.1382

>  <SCORE.INTRA.POLAR>
0

>  <SCORE.INTRA.POLAR.0>
0

>  <SCORE.INTRA.REPUL>
0

>  <SCORE.INTRA.REPUL.0>
0

>  <SCORE.INTRA.SOLV>
-1.46198

>  <SCORE.INTRA.SOLV.lig_0>
-59.6513

>  <SCORE.INTRA.VDW>
0.290567

>  <SCORE.INTRA.VDW.0>
-0.569808

>  <SCORE.INTRA.norm>
-0.0698576

>  <SCORE.RESTR>
0

>  <SCORE.RESTR.CAVITY>
0

>  <SCORE.RESTR.norm>
0

>  <SCORE.SYSTEM>
0

>  <SCORE.SYSTEM.CONST>
0

>  <SCORE.SYSTEM.DIHEDRAL>
0

>  <SCORE.SYSTEM.SOLV>
0

>  <SCORE.SYSTEM.norm>
0

>  <SCORE.heavy>
12

>  <SCORE.norm>
-0.95868

>  <RMSD>
1.018

$$$$
ligand
 OpenBabel11021811503D
libRbt.so/2013.1/901 2013/11/27
 12 12  0  0  0  0  0  0  0  0999 V2000
   10.1951   12.7328  148.2258 C   0  0  0  0  0  0  0  0  0  0  0  0
   13.0022    8.8621  145.4864 C   0  0  0  0  0  0  0  0  0  0  0  0
   11.7525   13.3475  146.0928 N   0  0  0  0  0  0  0  0  0  0  0  0
   10.1878   12.5509  149.6850 N   0  0  0  0  0  0  0  0  0  0  0  0
    9.5994   13.2997  150.2815 N   0  0  0  0  0  0  0  0  0  0  0  0
    9.0142   14.0442  150.8828 N   0  0  0  0  0  0  0  0  0  0  0  0
   11.5552    9.4807  147.2357 N   0  0  0  0  0  0  0  0  0  0  0  0
   12.2946    9.8396  146.1752 C   0  0  0  0  0  0  0  0  0  0  0  0
   12.4165   11.1293  145.8302 N   0  0  0  0  0  0  0  0  0  0  0  0
   11.8017   12.0926  146.5297 C   0  0  0  0  0  0  0  0  0  0  0  0
   11.0249   11.7832  147.6416 C   0  0  0  0  0  0  0  0  0  0  0  0
   10.9051   10.4497  148.0072 C   0  0  0  0  0  0  0  0  0  0  0  0
  1 11  1  0  0  0  0
  1  4  1  0  0  0  0
  2  8  1  0  0  0  0
  3 10  1  0  0  0  0
  4  5  1  0  0  0  0
  5  6  1  0  0  0  0
  7  8  2  0  0  0  0
  7 12  1  0  0  0  0
  8  9  1  0  0  0  0
  9 10  2  0  0  0  0
 10 11  1  0  0  0  0
 11 12  2  0  0  0  0
M  END
>  <CHROM.1>
-143.71046757,176.44921392,-177.09711602,11.13959764,11.64619731,147.68789036
-2.75618449,-1.04086922,2.87870103

>  <Name>
ligand

>  <RI>
0

>  <Rbt.Current_Directory>
/home/itssahil/PROJECTS/Mol_Feturizer/New_Systems/rnas/4NYA

>  <Rbt.Executable>
rbdock ($Id: //depot/dev/client3/rdock/2013.1/src/exe/rbdock.cxx#4 $)

>  <Rbt.Library>
libRbt.so (2013.1, Build901 2013/11/27)

>  <Rbt.Parameter_File>
/export/apps/rDock/src/rDock_2013.1_src/data/scripts/dock_solv.prm

>  <Rbt.Receptor>
prm/pocket_docking_2.prm

>  <SCORE>
-11.5661

>  <SCORE.INTER>
-10.6952

>  <SCORE.INTER.CONST>
1

>  <SCORE.INTER.POLAR>
0

>  <SCORE.INTER.ROT>
3

>  <SCORE.INTER.SOLV>
15.8918

>  <SCORE.INTER.VDW>
-18.0274

>  <SCORE.INTER.norm>
-0.891269

>  <SCORE.INTRA>
-0.870827

>  <SCORE.INTRA.DIHEDRAL>
-0.856936

>  <SCORE.INTRA.DIHEDRAL.0>
2.1382

>  <SCORE.INTRA.POLAR>
0

>  <SCORE.INTRA.POLAR.0>
0

>  <SCORE.INTRA.REPUL>
0

>  <SCORE.INTRA.REPUL.0>
0

>  <SCORE.INTRA.SOLV>
-1.45233

>  <SCORE.INTRA.SOLV.lig_0>
-59.6513

>  <SCORE.INTRA.VDW>
0.283806

>  <SCORE.INTRA.VDW.0>
-0.569808

>  <SCORE.INTRA.norm>
-0.072569

>  <SCORE.RESTR>
0

>  <SCORE.RESTR.CAVITY>
0

>  <SCORE.RESTR.norm>
0

>  <SCORE.SYSTEM>
0

>  <SCORE.SYSTEM.CONST>
0

>  <SCORE.SYSTEM.DIHEDRAL>
0

>  <SCORE.SYSTEM.SOLV>
0

>  <SCORE.SYSTEM.norm>
0

>  <SCORE.heavy>
12

>  <SCORE.norm>
-0.963838

>  <RMSD>
1.020

$$$$
ligand
 OpenBabel11021811503D
libRbt.so/2013.1/901 2013/11/27
 12 12  0  0  0  0  0  0  0  0999 V2000
   10.1712   12.7517  148.2441 C   0  0  0  0  0  0  0  0  0  0  0  0
   12.9790    8.8921  145.4898 C   0  0  0  0  0  0  0  0  0  0  0  0
   11.7668   13.3811  146.1438 N   0  0  0  0  0  0  0  0  0  0  0  0
   10.1598   12.5643  149.7025 N   0  0  0  0  0  0  0  0  0  0  0  0
    9.6678   13.3723  150.3089 N   0  0  0  0  0  0  0  0  0  0  0  0
    9.1777   14.1754  150.9200 N   0  0  0  0  0  0  0  0  0  0  0  0
   11.5124    9.5002  147.2264 N   0  0  0  0  0  0  0  0  0  0  0  0
   12.2713    9.8668  146.1824 C   0  0  0  0  0  0  0  0  0  0  0  0
   12.4116   11.1600  145.8583 N   0  0  0  0  0  0  0  0  0  0  0  0
   11.7964   12.1194  146.5628 C   0  0  0  0  0  0  0  0  0  0  0  0
   10.9998   11.8020  147.6583 C   0  0  0  0  0  0  0  0  0  0  0  0
   10.8608   10.4646  148.0023 C   0  0  0  0  0  0  0  0  0  0  0  0
  1 11  1  0  0  0  0
  1  4  1  0  0  0  0
  2  8  1  0  0  0  0
  3 10  1  0  0  0  0
  4  5  1  0  0  0  0
  5  6  1  0  0  0  0
  7  8  2  0  0  0  0
  7 12  1  0  0  0  0
  8  9  1  0  0  0  0
  9 10  2  0  0  0  0
 10 11  1  0  0  0  0
 11 12  2  0  0  0  0
M  END
>  <CHROM.1>
-142.65959764,169.99480593,177.41884675,11.14288257,11.68333357,147.70691705
-2.70797908,-1.04928997,2.92171718

>  <Name>
ligand

>  <RI>
0

>  <Rbt.Current_Directory>
/home/itssahil/PROJECTS/Mol_Feturizer/New_Systems/rnas/4NYA

>  <Rbt.Executable>
rbdock ($Id: //depot/dev/client3/rdock/2013.1/src/exe/rbdock.cxx#4 $)

>  <Rbt.Library>
libRbt.so (2013.1, Build901 2013/11/27)

>  <Rbt.Parameter_File>
/export/apps/rDock/src/rDock_2013.1_src/data/scripts/dock_solv.prm

>  <Rbt.Receptor>
prm/pocket_docking_8.prm

>  <SCORE>
-11.562

>  <SCORE.INTER>
-10.722

>  <SCORE.INTER.CONST>
1

>  <SCORE.INTER.POLAR>
0

>  <SCORE.INTER.ROT>
3

>  <SCORE.INTER.SOLV>
15.503

>  <SCORE.INTER.VDW>
-17.9156

>  <SCORE.INTER.norm>
-0.893497

>  <SCORE.INTRA>
-0.839984

>  <SCORE.INTRA.DIHEDRAL>
-0.769844

>  <SCORE.INTRA.DIHEDRAL.0>
2.1382

>  <SCORE.INTRA.POLAR>
0

>  <SCORE.INTRA.POLAR.0>
0

>  <SCORE.INTRA.REPUL>
0

>  <SCORE.INTRA.REPUL.0>
0

>  <SCORE.INTRA.SOLV>
-1.44986

>  <SCORE.INTRA.SOLV.lig_0>
-59.6513

>  <SCORE.INTRA.VDW>
0.26987

>  <SCORE.INTRA.VDW.0>
-0.569808

>  <SCORE.INTRA.norm>
-0.0699987

>  <SCORE.RESTR>
0

>  <SCORE.RESTR.CAVITY>
0

>  <SCORE.RESTR.norm>
0

>  <SCORE.SYSTEM>
0

>  <SCORE.SYSTEM.CONST>
0

>  <SCORE.SYSTEM.DIHEDRAL>
0

>  <SCORE.SYSTEM.SOLV>
0

>  <SCORE.SYSTEM.norm>
0

>  <SCORE.heavy>
12

>  <SCORE.norm>
-0.963496

>  <RMSD>
1.024

$$$$
ligand
 OpenBabel11021811503D
libRbt.so/2013.1/901 2013/11/27
 12 12  0  0  0  0  0  0  0  0999 V2000
   10.1331   12.9328  148.2738 C   0  0  0  0  0  0  0  0  0  0  0  0
   12.9400    9.0176  145.5982 C   0  0  0  0  0  0  0  0  0  0  0  0
   11.6016   13.4942  146.0644 N   0  0  0  0  0  0  0  0  0  0  0  0
   10.2623   12.8842  149.7377 N   0  0  0  0  0  0  0  0  0  0  0  0
    9.7944   13.7295  150.3116 N   0  0  0  0  0  0  0  0  0  0  0  0
    9.3298   14.5707  150.8903 N   0  0  0  0  0  0  0  0  0  0  0  0
   11.5385    9.6747  147.3703 N   0  0  0  0  0  0  0  0  0  0  0  0
   12.2323   10.0062  146.2708 C   0  0  0  0  0  0  0  0  0  0  0  0
   12.3107   11.2830  145.8694 N   0  0  0  0  0  0  0  0  0  0  0  0
   11.6964   12.2600  146.5501 C   0  0  0  0  0  0  0  0  0  0  0  0
   10.9657   11.9792  147.7002 C   0  0  0  0  0  0  0  0  0  0  0  0
   10.8912   10.6596  148.1238 C   0  0  0  0  0  0  0  0  0  0  0  0
  1 11  1  0  0  0  0
  1  4  1  0  0  0  0
  2  8  1  0  0  0  0
  3 10  1  0  0  0  0
  4  5  1  0  0  0  0
  5  6  1  0  0  0  0
  7  8  2  0  0  0  0
  7 12  1  0  0  0  0
  8  9  1  0  0  0  0
  9 10  2  0  0  0  0
 10 11  1  0  0  0  0
 11 12  2  0  0  0  0
M  END
>  <CHROM.1>
-139.16138419,168.70309591,-175.53215311,11.13756213,11.88832815,147.74469351
-2.78981220,-1.10041095,2.78104438

>  <Name>
ligand

>  <RI>
0

>  <Rbt.Current_Directory>
/home/itssahil/PROJECTS/Mol_Feturizer/New_Systems/rnas/4NYA

>  <Rbt.Executable>
rbdock ($Id: //depot/dev/client3/rdock/2013.1/src/exe/rbdock.cxx#4 $)

>  <Rbt.Library>
libRbt.so (2013.1, Build901 2013/11/27)

>  <Rbt.Parameter_File>
/export/apps/rDock/src/rDock_2013.1_src/data/scripts/dock_solv.prm

>  <Rbt.Receptor>
prm/pocket_docking_2.prm

>  <SCORE>
-11.5286

>  <SCORE.INTER>
-10.6894

>  <SCORE.INTER.CONST>
1

>  <SCORE.INTER.POLAR>
0

>  <SCORE.INTER.ROT>
3

>  <SCORE.INTER.SOLV>
15.6499

>  <SCORE.INTER.VDW>
-17.9429

>  <SCORE.INTER.norm>
-0.890784

>  <SCORE.INTRA>
-0.839226

>  <SCORE.INTRA.DIHEDRAL>
-0.678399

>  <SCORE.INTRA.DIHEDRAL.0>
2.1382

>  <SCORE.INTRA.POLAR>
0

>  <SCORE.INTRA.POLAR.0>
0

>  <SCORE.INTRA.REPUL>
0

>  <SCORE.INTRA.REPUL.0>
0

>  <SCORE.INTRA.SOLV>
-1.42053

>  <SCORE.INTRA.SOLV.lig_0>
-59.6513

>  <SCORE.INTRA.VDW>
0.210238

>  <SCORE.INTRA.VDW.0>
-0.569808

>  <SCORE.INTRA.norm>
-0.0699355

>  <SCORE.RESTR>
0

>  <SCORE.RESTR.CAVITY>
0

>  <SCORE.RESTR.norm>
0

>  <SCORE.SYSTEM>
0

>  <SCORE.SYSTEM.CONST>
0

>  <SCORE.SYSTEM.DIHEDRAL>
0

>  <SCORE.SYSTEM.SOLV>
0

>  <SCORE.SYSTEM.norm>
0

>  <SCORE.heavy>
12

>  <SCORE.norm>
-0.96072

>  <RMSD>
1.026

$$$$
ligand
 OpenBabel11021811503D
libRbt.so/2013.1/901 2013/11/27
 12 12  0  0  0  0  0  0  0  0999 V2000
   10.2080   12.8097  148.3331 C   0  0  0  0  0  0  0  0  0  0  0  0
   12.9084    8.9123  145.5252 C   0  0  0  0  0  0  0  0  0  0  0  0
   11.6368   13.3952  146.1040 N   0  0  0  0  0  0  0  0  0  0  0  0
   10.3501   12.7164  149.7937 N   0  0  0  0  0  0  0  0  0  0  0  0
    9.8632   13.5286  150.3987 N   0  0  0  0  0  0  0  0  0  0  0  0
    9.3808   14.3441  150.9993 N   0  0  0  0  0  0  0  0  0  0  0  0
   11.5528    9.5525  147.3387 N   0  0  0  0  0  0  0  0  0  0  0  0
   12.2275    9.8965  146.2312 C   0  0  0  0  0  0  0  0  0  0  0  0
   12.3136   11.1796  145.8524 N   0  0  0  0  0  0  0  0  0  0  0  0
   11.7262   12.1509  146.5642 C   0  0  0  0  0  0  0  0  0  0  0  0
   11.0162   11.8571  147.7241 C   0  0  0  0  0  0  0  0  0  0  0  0
   10.9340   10.5307  148.1242 C   0  0  0  0  0  0  0  0  0  0  0  0
  1 11  1  0  0  0  0
  1  4  1  0  0  0  0
  2  8  1  0  0  0  0
  3 10  1  0  0  0  0
  4  5  1  0  0  0  0
  5  6  1  0  0  0  0
  7  8  2  0  0  0  0
  7 12  1  0  0  0  0
  8  9  1  0  0  0  0
  9 10  2  0  0  0  0
 10 11  1  0  0  0  0
 11 12  2  0  0  0  0
M  END
>  <CHROM.1>
-140.11080776,171.45216489,-58.14344594,11.17255735,11.75281475,147.76409261
-2.79006287,-1.11462072,2.80686760

>  <Name>
ligand

>  <RI>
0

>  <Rbt.Current_Directory>
/home/itssahil/PROJECTS/Mol_Feturizer/New_Systems/rnas/4NYA

>  <Rbt.Executable>
rbdock ($Id: //depot/dev/client3/rdock/2013.1/src/exe/rbdock.cxx#4 $)

>  <Rbt.Library>
libRbt.so (2013.1, Build901 2013/11/27)

>  <Rbt.Parameter_File>
/export/apps/rDock/src/rDock_2013.1_src/data/scripts/dock_solv.prm

>  <Rbt.Receptor>
prm/pocket_docking_4.prm

>  <SCORE>
-11.592

>  <SCORE.INTER>
-10.7317

>  <SCORE.INTER.CONST>
1

>  <SCORE.INTER.POLAR>
0

>  <SCORE.INTER.ROT>
3

>  <SCORE.INTER.SOLV>
15.6029

>  <SCORE.INTER.VDW>
-17.9555

>  <SCORE.INTER.norm>
-0.89431

>  <SCORE.INTRA>
-0.860293

>  <SCORE.INTRA.DIHEDRAL>
-0.744934

>  <SCORE.INTRA.DIHEDRAL.0>
2.1382

>  <SCORE.INTRA.POLAR>
0

>  <SCORE.INTRA.POLAR.0>
0

>  <SCORE.INTRA.REPUL>
0

>  <SCORE.INTRA.REPUL.0>
0

>  <SCORE.INTRA.SOLV>
-1.42297

>  <SCORE.INTRA.SOLV.lig_0>
-59.6513

>  <SCORE.INTRA.VDW>
0.22366

>  <SCORE.INTRA.VDW.0>
-0.569808

>  <SCORE.INTRA.norm>
-0.0716911

>  <SCORE.RESTR>
0

>  <SCORE.RESTR.CAVITY>
0

>  <SCORE.RESTR.norm>
0

>  <SCORE.SYSTEM>
0

>  <SCORE.SYSTEM.CONST>
0

>  <SCORE.SYSTEM.DIHEDRAL>
0

>  <SCORE.SYSTEM.SOLV>
0

>  <SCORE.SYSTEM.norm>
0

>  <SCORE.heavy>
12

>  <SCORE.norm>
-0.966001

>  <RMSD>
1.029

$$$$
ligand
 OpenBabel11021811503D
libRbt.so/2013.1/901 2013/11/27
 12 12  0  0  0  0  0  0  0  0999 V2000
   10.1904   12.8138  148.3000 C   0  0  0  0  0  0  0  0  0  0  0  0
   12.9501    8.9090  145.5608 C   0  0  0  0  0  0  0  0  0  0  0  0
   11.6711   13.3943  146.1037 N   0  0  0  0  0  0  0  0  0  0  0  0
   10.3042   12.7273  149.7635 N   0  0  0  0  0  0  0  0  0  0  0  0
    9.8022   13.5401  150.3552 N   0  0  0  0  0  0  0  0  0  0  0  0
    9.2950   14.3494  150.9436 N   0  0  0  0  0  0  0  0  0  0  0  0
   11.5537    9.5535  147.3416 N   0  0  0  0  0  0  0  0  0  0  0  0
   12.2543    9.8950  146.2495 C   0  0  0  0  0  0  0  0  0  0  0  0
   12.3507   11.1775  145.8710 N   0  0  0  0  0  0  0  0  0  0  0  0
   11.7483   12.1505  146.5677 C   0  0  0  0  0  0  0  0  0  0  0  0
   11.0113   11.8593  147.7112 C   0  0  0  0  0  0  0  0  0  0  0  0
   10.9181   10.5336  148.1112 C   0  0  0  0  0  0  0  0  0  0  0  0
  1 11  1  0  0  0  0
  1  4  1  0  0  0  0
  2  8  1  0  0  0  0
  3 10  1  0  0  0  0
  4  5  1  0  0  0  0
  5  6  1  0  0  0  0
  7  8  2  0  0  0  0
  7 12  1  0  0  0  0
  8  9  1  0  0  0  0
  9 10  2  0  0  0  0
 10 11  1  0  0  0  0
 11 12  2  0  0  0  0
M  END
>  <CHROM.1>
-139.80296520,171.62767943,63.69352642,11.16654268,11.75530509,147.75480313
-2.77118568,-1.09296206,2.82210977

>  <Name>
ligand

>  <RI>
0

>  <Rbt.Current_Directory>
/home/itssahil/PROJECTS/Mol_Feturizer/New_Systems/rnas/4NYA

>  <Rbt.Executable>
rbdock ($Id: //depot/dev/client3/rdock/2013.1/src/exe/rbdock.cxx#4 $)

>  <Rbt.Library>
libRbt.so (2013.1, Build901 2013/11/27)

>  <Rbt.Parameter_File>
/export/apps/rDock/src/rDock_2013.1_src/data/scripts/dock_solv.prm

>  <Rbt.Receptor>
prm/pocket_docking_4.prm

>  <SCORE>
-11.5496

>  <SCORE.INTER>
-10.6902

>  <SCORE.INTER.CONST>
1

>  <SCORE.INTER.POLAR>
0

>  <SCORE.INTER.ROT>
3

>  <SCORE.INTER.SOLV>
15.6746

>  <SCORE.INTER.VDW>
-17.9517

>  <SCORE.INTER.norm>
-0.890849

>  <SCORE.INTRA>
-0.859452

>  <SCORE.INTRA.DIHEDRAL>
-0.738383

>  <SCORE.INTRA.DIHEDRAL.0>
2.1382

>  <SCORE.INTRA.POLAR>
0

>  <SCORE.INTRA.POLAR.0>
0

>  <SCORE.INTRA.REPUL>
0

>  <SCORE.INTRA.REPUL.0>
0

>  <SCORE.INTRA.SOLV>
-1.42035

>  <SCORE.INTRA.SOLV.lig_0>
-59.6513

>  <SCORE.INTRA.VDW>
0.219912

>  <SCORE.INTRA.VDW.0>
-0.569808

>  <SCORE.INTRA.norm>
-0.071621

>  <SCORE.RESTR>
0

>  <SCORE.RESTR.CAVITY>
0

>  <SCORE.RESTR.norm>
0

>  <SCORE.SYSTEM>
0

>  <SCORE.SYSTEM.CONST>
0

>  <SCORE.SYSTEM.DIHEDRAL>
0

>  <SCORE.SYSTEM.SOLV>
0

>  <SCORE.SYSTEM.norm>
0

>  <SCORE.heavy>
12

>  <SCORE.norm>
-0.96247

>  <RMSD>
1.029

$$$$
ligand
 OpenBabel11021811503D
libRbt.so/2013.1/901 2013/11/27
 12 12  0  0  0  0  0  0  0  0999 V2000
   10.2112   12.8749  148.3209 C   0  0  0  0  0  0  0  0  0  0  0  0
   12.9570    8.9949  145.5330 C   0  0  0  0  0  0  0  0  0  0  0  0
   11.6049   13.4595  146.0695 N   0  0  0  0  0  0  0  0  0  0  0  0
   10.3716   12.8040  149.7809 N   0  0  0  0  0  0  0  0  0  0  0  0
    9.8797   13.6172  150.3803 N   0  0  0  0  0  0  0  0  0  0  0  0
    9.3825   14.4273  150.9762 N   0  0  0  0  0  0  0  0  0  0  0  0
   11.6083    9.6318  147.3528 N   0  0  0  0  0  0  0  0  0  0  0  0
   12.2646    9.9747  146.2339 C   0  0  0  0  0  0  0  0  0  0  0  0
   12.3218   11.2543  145.8383 N   0  0  0  0  0  0  0  0  0  0  0  0
   11.7232   12.2230  146.5442 C   0  0  0  0  0  0  0  0  0  0  0  0
   11.0313   11.9304  147.7152 C   0  0  0  0  0  0  0  0  0  0  0  0
   10.9789   10.6078  148.1326 C   0  0  0  0  0  0  0  0  0  0  0  0
  1 11  1  0  0  0  0
  1  4  1  0  0  0  0
  2  8  1  0  0  0  0
  3 10  1  0  0  0  0
  4  5  1  0  0  0  0
  5  6  1  0  0  0  0
  7  8  2  0  0  0  0
  7 12  1  0  0  0  0
  8  9  1  0  0  0  0
  9 10  2  0  0  0  0
 10 11  1  0  0  0  0
 11 12  2  0  0  0  0
M  END
>  <CHROM.1>
-140.04103421,171.16192216,60.01360453,11.19059544,11.83012917,147.75471330
-2.83948886,-1.11799890,2.74958156

>  <Name>
ligand

>  <RI>
0

>  <Rbt.Current_Directory>
/home/itssahil/PROJECTS/Mol_Feturizer/New_Systems/rnas/4NYA

>  <Rbt.Executable>
rbdock ($Id: //depot/dev/client3/rdock/2013.1/src/exe/rbdock.cxx#4 $)

>  <Rbt.Library>
libRbt.so (2013.1, Build901 2013/11/27)

>  <Rbt.Parameter_File>
/export/apps/rDock/src/rDock_2013.1_src/data/scripts/dock_solv.prm

>  <Rbt.Receptor>
prm/pocket_docking_2.prm

>  <SCORE>
-11.5671

>  <SCORE.INTER>
-10.7082

>  <SCORE.INTER.CONST>
1

>  <SCORE.INTER.POLAR>
0

>  <SCORE.INTER.ROT>
3

>  <SCORE.INTER.SOLV>
15.7504

>  <SCORE.INTER.VDW>
-17.989

>  <SCORE.INTER.norm>
-0.892354

>  <SCORE.INTRA>
-0.858818

>  <SCORE.INTRA.DIHEDRAL>
-0.740488

>  <SCORE.INTRA.DIHEDRAL.0>
2.1382

>  <SCORE.INTRA.POLAR>
0

>  <SCORE.INTRA.POLAR.0>
0

>  <SCORE.INTRA.REPUL>
0

>  <SCORE.INTRA.REPUL.0>
0

>  <SCORE.INTRA.SOLV>
-1.42266

>  <SCORE.INTRA.SOLV.lig_0>
-59.6513

>  <SCORE.INTRA.VDW>
0.222754

>  <SCORE.INTRA.VDW.0>
-0.569808

>  <SCORE.INTRA.norm>
-0.0715682

>  <SCORE.RESTR>
0

>  <SCORE.RESTR.CAVITY>
0

>  <SCORE.RESTR.norm>
0

>  <SCORE.SYSTEM>
0

>  <SCORE.SYSTEM.CONST>
0

>  <SCORE.SYSTEM.DIHEDRAL>
0

>  <SCORE.SYSTEM.SOLV>
0

>  <SCORE.SYSTEM.norm>
0

>  <SCORE.heavy>
12

>  <SCORE.norm>
-0.963922

>  <RMSD>
1.030

$$$$
ligand
 OpenBabel11021811503D
libRbt.so/2013.1/901 2013/11/27
 12 12  0  0  0  0  0  0  0  0999 V2000
   10.1986   12.8053  148.2926 C   0  0  0  0  0  0  0  0  0  0  0  0
   12.8797    8.8588  145.5353 C   0  0  0  0  0  0  0  0  0  0  0  0
   11.5909   13.3469  146.0297 N   0  0  0  0  0  0  0  0  0  0  0  0
   10.3175   12.7073  149.7550 N   0  0  0  0  0  0  0  0  0  0  0  0
    9.8114   13.5113  150.3551 N   0  0  0  0  0  0  0  0  0  0  0  0
    9.3098   14.3186  150.9510 N   0  0  0  0  0  0  0  0  0  0  0  0
   11.5473    9.5333  147.3535 N   0  0  0  0  0  0  0  0  0  0  0  0
   12.2037    9.8553  146.2285 C   0  0  0  0  0  0  0  0  0  0  0  0
   12.2767   11.1298  145.8190 N   0  0  0  0  0  0  0  0  0  0  0  0
   11.6943   12.1140  146.5170 C   0  0  0  0  0  0  0  0  0  0  0  0
   11.0032   11.8433  147.6937 C   0  0  0  0  0  0  0  0  0  0  0  0
   10.9345   10.5261  148.1254 C   0  0  0  0  0  0  0  0  0  0  0  0
  1 11  1  0  0  0  0
  1  4  1  0  0  0  0
  2  8  1  0  0  0  0
  3 10  1  0  0  0  0
  4  5  1  0  0  0  0
  5  6  1  0  0  0  0
  7  8  2  0  0  0  0
  7 12  1  0  0  0  0
  8  9  1  0  0  0  0
  9 10  2  0  0  0  0
 10 11  1  0  0  0  0
 11 12  2  0  0  0  0
M  END
>  <CHROM.1>
-142.58853628,172.86812137,-58.26973052,11.14279142,11.72553978,147.73619608
-2.82513475,-1.11534533,2.76254385

>  <Name>
ligand

>  <RI>
0

>  <Rbt.Current_Directory>
/home/itssahil/PROJECTS/Mol_Feturizer/New_Systems/rnas/4NYA

>  <Rbt.Executable>
rbdock ($Id: //depot/dev/client3/rdock/2013.1/src/exe/rbdock.cxx#4 $)

>  <Rbt.Library>
libRbt.so (2013.1, Build901 2013/11/27)

>  <Rbt.Parameter_File>
/export/apps/rDock/src/rDock_2013.1_src/data/scripts/dock_solv.prm

>  <Rbt.Receptor>
prm/pocket_docking_7.prm

>  <SCORE>
-11.5273

>  <SCORE.INTER>
-10.672

>  <SCORE.INTER.CONST>
1

>  <SCORE.INTER.POLAR>
0

>  <SCORE.INTER.ROT>
3

>  <SCORE.INTER.SOLV>
15.8404

>  <SCORE.INTER.VDW>
-17.9948

>  <SCORE.INTER.norm>
-0.889335

>  <SCORE.INTRA>
-0.855235

>  <SCORE.INTRA.DIHEDRAL>
-0.80874

>  <SCORE.INTRA.DIHEDRAL.0>
2.1382

>  <SCORE.INTRA.POLAR>
0

>  <SCORE.INTRA.POLAR.0>
0

>  <SCORE.INTRA.REPUL>
0

>  <SCORE.INTRA.REPUL.0>
0

>  <SCORE.INTRA.SOLV>
-1.44289

>  <SCORE.INTRA.SOLV.lig_0>
-59.6513

>  <SCORE.INTRA.VDW>
0.270582

>  <SCORE.INTRA.VDW.0>
-0.569808

>  <SCORE.INTRA.norm>
-0.0712696

>  <SCORE.RESTR>
0

>  <SCORE.RESTR.CAVITY>
0

>  <SCORE.RESTR.norm>
0

>  <SCORE.SYSTEM>
0

>  <SCORE.SYSTEM.CONST>
0

>  <SCORE.SYSTEM.DIHEDRAL>
0

>  <SCORE.SYSTEM.SOLV>
0

>  <SCORE.SYSTEM.norm>
0

>  <SCORE.heavy>
12

>  <SCORE.norm>
-0.960604

>  <RMSD>
1.030

$$$$
ligand
 OpenBabel11021811503D
libRbt.so/2013.1/901 2013/11/27
 12 12  0  0  0  0  0  0  0  0999 V2000
   10.1951   12.8064  148.3248 C   0  0  0  0  0  0  0  0  0  0  0  0
   12.9205    8.9108  145.5386 C   0  0  0  0  0  0  0  0  0  0  0  0
   11.6151   13.3876  146.0890 N   0  0  0  0  0  0  0  0  0  0  0  0
   10.3700   12.7507  149.7837 N   0  0  0  0  0  0  0  0  0  0  0  0
    9.8677   13.5592  150.3810 N   0  0  0  0  0  0  0  0  0  0  0  0
    9.3602   14.3641  150.9751 N   0  0  0  0  0  0  0  0  0  0  0  0
   11.5633    9.5529  147.3502 N   0  0  0  0  0  0  0  0  0  0  0  0
   12.2333    9.8945  146.2391 C   0  0  0  0  0  0  0  0  0  0  0  0
   12.3087   11.1756  145.8513 N   0  0  0  0  0  0  0  0  0  0  0  0
   11.7151   12.1472  146.5576 C   0  0  0  0  0  0  0  0  0  0  0  0
   11.0096   11.8559  147.7208 C   0  0  0  0  0  0  0  0  0  0  0  0
   10.9384   10.5317  148.1302 C   0  0  0  0  0  0  0  0  0  0  0  0
  1 11  1  0  0  0  0
  1  4  1  0  0  0  0
  2  8  1  0  0  0  0
  3 10  1  0  0  0  0
  4  5  1  0  0  0  0
  5  6  1  0  0  0  0
  7  8  2  0  0  0  0
  7 12  1  0  0  0  0
  8  9  1  0  0  0  0
  9 10  2  0  0  0  0
 10 11  1  0  0  0  0
 11 12  2  0  0  0  0
M  END
>  <CHROM.1>
-138.47166974,172.26488754,62.45112413,11.17093639,11.75836525,147.76000834
-2.80556072,-1.11578363,2.78290905

>  <Name>
ligand

>  <RI>
0

>  <Rbt.Current_Directory>
/home/itssahil/PROJECTS/Mol_Feturizer/New_Systems/rnas/4NYA

>  <Rbt.Executable>
rbdock ($Id: //depot/dev/client3/rdock/2013.1/src/exe/rbdock.cxx#4 $)

>  <Rbt.Library>
libRbt.so (2013.1, Build901 2013/11/27)

>  <Rbt.Parameter_File>
/export/apps/rDock/src/rDock_2013.1_src/data/scripts/dock_solv.prm

>  <Rbt.Receptor>
prm/pocket_docking_2.prm

>  <SCORE>
-11.5705

>  <SCORE.INTER>
-10.7106

>  <SCORE.INTER.CONST>
1

>  <SCORE.INTER.POLAR>
0

>  <SCORE.INTER.ROT>
3

>  <SCORE.INTER.SOLV>
15.7012

>  <SCORE.INTER.VDW>
-17.9741

>  <SCORE.INTER.norm>
-0.892547

>  <SCORE.INTRA>
-0.859957

>  <SCORE.INTRA.DIHEDRAL>
-0.721147

>  <SCORE.INTRA.DIHEDRAL.0>
2.1382

>  <SCORE.INTRA.POLAR>
0

>  <SCORE.INTRA.POLAR.0>
0

>  <SCORE.INTRA.REPUL>
0

>  <SCORE.INTRA.REPUL.0>
0

>  <SCORE.INTRA.SOLV>
-1.40763

>  <SCORE.INTRA.SOLV.lig_0>
-59.6513

>  <SCORE.INTRA.VDW>
0.204434

>  <SCORE.INTRA.VDW.0>
-0.569808

>  <SCORE.INTRA.norm>
-0.0716631

>  <SCORE.RESTR>
0

>  <SCORE.RESTR.CAVITY>
0

>  <SCORE.RESTR.norm>
0

>  <SCORE.SYSTEM>
0

>  <SCORE.SYSTEM.CONST>
0

>  <SCORE.SYSTEM.DIHEDRAL>
0

>  <SCORE.SYSTEM.SOLV>
0

>  <SCORE.SYSTEM.norm>
0

>  <SCORE.heavy>
12

>  <SCORE.norm>
-0.96421

>  <RMSD>
1.033

$$$$
ligand
 OpenBabel11021811503D
libRbt.so/2013.1/901 2013/11/27
 12 12  0  0  0  0  0  0  0  0999 V2000
   10.1913   12.7356  148.2629 C   0  0  0  0  0  0  0  0  0  0  0  0
   12.9916    8.8946  145.4753 C   0  0  0  0  0  0  0  0  0  0  0  0
   11.7977   13.3815  146.1761 N   0  0  0  0  0  0  0  0  0  0  0  0
   10.2057   12.5577  149.7225 N   0  0  0  0  0  0  0  0  0  0  0  0
    9.7120   13.3627  150.3316 N   0  0  0  0  0  0  0  0  0  0  0  0
    9.2209   14.1631  150.9453 N   0  0  0  0  0  0  0  0  0  0  0  0
   11.5211    9.4897  147.2131 N   0  0  0  0  0  0  0  0  0  0  0  0
   12.2857    9.8647  146.1763 C   0  0  0  0  0  0  0  0  0  0  0  0
   12.4334   11.1609  145.8676 N   0  0  0  0  0  0  0  0  0  0  0  0
   11.8199   12.1150  146.5806 C   0  0  0  0  0  0  0  0  0  0  0  0
   11.0176   11.7888  147.6695 C   0  0  0  0  0  0  0  0  0  0  0  0
   10.8710   10.4483  147.9976 C   0  0  0  0  0  0  0  0  0  0  0  0
  1 11  1  0  0  0  0
  1  4  1  0  0  0  0
  2  8  1  0  0  0  0
  3 10  1  0  0  0  0
  4  5  1  0  0  0  0
  5  6  1  0  0  0  0
  7  8  2  0  0  0  0
  7 12  1  0  0  0  0
  8  9  1  0  0  0  0
  9 10  2  0  0  0  0
 10 11  1  0  0  0  0
 11 12  2  0  0  0  0
M  END
>  <CHROM.1>
-140.93613855,170.34251180,-178.21649361,11.16763846,11.67621060,147.71690078
-2.69162168,-1.05079283,2.94288447

>  <Name>
ligand

>  <RI>
0

>  <Rbt.Current_Directory>
/home/itssahil/PROJECTS/Mol_Feturizer/New_Systems/rnas/4NYA

>  <Rbt.Executable>
rbdock ($Id: //depot/dev/client3/rdock/2013.1/src/exe/rbdock.cxx#4 $)

>  <Rbt.Library>
libRbt.so (2013.1, Build901 2013/11/27)

>  <Rbt.Parameter_File>
/export/apps/rDock/src/rDock_2013.1_src/data/scripts/dock_solv.prm

>  <Rbt.Receptor>
prm/pocket_docking_3.prm

>  <SCORE>
-11.5434

>  <SCORE.INTER>
-10.6854

>  <SCORE.INTER.CONST>
1

>  <SCORE.INTER.POLAR>
0

>  <SCORE.INTER.ROT>
3

>  <SCORE.INTER.SOLV>
15.4836

>  <SCORE.INTER.VDW>
-17.8848

>  <SCORE.INTER.norm>
-0.890446

>  <SCORE.INTRA>
-0.858024

>  <SCORE.INTRA.DIHEDRAL>
-0.745005

>  <SCORE.INTRA.DIHEDRAL.0>
2.1382

>  <SCORE.INTRA.POLAR>
0

>  <SCORE.INTRA.POLAR.0>
0

>  <SCORE.INTRA.REPUL>
0

>  <SCORE.INTRA.REPUL.0>
0

>  <SCORE.INTRA.SOLV>
-1.43529

>  <SCORE.INTRA.SOLV.lig_0>
-59.6513

>  <SCORE.INTRA.VDW>
0.232122

>  <SCORE.INTRA.VDW.0>
-0.569808

>  <SCORE.INTRA.norm>
-0.071502

>  <SCORE.RESTR>
0

>  <SCORE.RESTR.CAVITY>
0

>  <SCORE.RESTR.norm>
0

>  <SCORE.SYSTEM>
0

>  <SCORE.SYSTEM.CONST>
0

>  <SCORE.SYSTEM.DIHEDRAL>
0

>  <SCORE.SYSTEM.SOLV>
0

>  <SCORE.SYSTEM.norm>
0

>  <SCORE.heavy>
12

>  <SCORE.norm>
-0.961948

>  <RMSD>
1.033

$$$$
ligand
 OpenBabel11021811503D
libRbt.so/2013.1/901 2013/11/27
 12 12  0  0  0  0  0  0  0  0999 V2000
   10.1784   12.7544  148.2539 C   0  0  0  0  0  0  0  0  0  0  0  0
   12.9623    8.8977  145.4714 C   0  0  0  0  0  0  0  0  0  0  0  0
   11.7664   13.3876  146.1490 N   0  0  0  0  0  0  0  0  0  0  0  0
   10.1825   12.5689  149.7126 N   0  0  0  0  0  0  0  0  0  0  0  0
    9.7392   13.3996  150.3258 N   0  0  0  0  0  0  0  0  0  0  0  0
    9.2979   14.2254  150.9437 N   0  0  0  0  0  0  0  0  0  0  0  0
   11.5053    9.5032  147.2170 N   0  0  0  0  0  0  0  0  0  0  0  0
   12.2605    9.8717  146.1711 C   0  0  0  0  0  0  0  0  0  0  0  0
   12.4033   11.1659  145.8516 N   0  0  0  0  0  0  0  0  0  0  0  0
   11.7941   12.1242  146.5627 C   0  0  0  0  0  0  0  0  0  0  0  0
   11.0015   11.8047  147.6605 C   0  0  0  0  0  0  0  0  0  0  0  0
   10.8600   10.4664  147.9997 C   0  0  0  0  0  0  0  0  0  0  0  0
  1 11  1  0  0  0  0
  1  4  1  0  0  0  0
  2  8  1  0  0  0  0
  3 10  1  0  0  0  0
  4  5  1  0  0  0  0
  5  6  1  0  0  0  0
  7  8  2  0  0  0  0
  7 12  1  0  0  0  0
  8  9  1  0  0  0  0
  9 10  2  0  0  0  0
 10 11  1  0  0  0  0
 11 12  2  0  0  0  0
M  END
>  <CHROM.1>
-142.14678232,167.23337992,179.55008541,11.15829443,11.69361231,147.70861905
-2.69363061,-1.06307945,2.93285308

>  <Name>
ligand

>  <RI>
0

>  <Rbt.Current_Directory>
/home/itssahil/PROJECTS/Mol_Feturizer/New_Systems/rnas/4NYA

>  <Rbt.Executable>
rbdock ($Id: //depot/dev/client3/rdock/2013.1/src/exe/rbdock.cxx#4 $)

>  <Rbt.Library>
libRbt.so (2013.1, Build901 2013/11/27)

>  <Rbt.Parameter_File>
/export/apps/rDock/src/rDock_2013.1_src/data/scripts/dock_solv.prm

>  <Rbt.Receptor>
prm/pocket_docking_7.prm

>  <SCORE>
-11.6018

>  <SCORE.INTER>
-10.7683

>  <SCORE.INTER.CONST>
1

>  <SCORE.INTER.POLAR>
0

>  <SCORE.INTER.ROT>
3

>  <SCORE.INTER.SOLV>
15.3916

>  <SCORE.INTER.VDW>
-17.9094

>  <SCORE.INTER.norm>
-0.897356

>  <SCORE.INTRA>
-0.833536

>  <SCORE.INTRA.DIHEDRAL>
-0.713995

>  <SCORE.INTRA.DIHEDRAL.0>
2.1382

>  <SCORE.INTRA.POLAR>
0

>  <SCORE.INTRA.POLAR.0>
0

>  <SCORE.INTRA.REPUL>
0

>  <SCORE.INTRA.REPUL.0>
0

>  <SCORE.INTRA.SOLV>
-1.44661

>  <SCORE.INTRA.SOLV.lig_0>
-59.6513

>  <SCORE.INTRA.VDW>
0.246768

>  <SCORE.INTRA.VDW.0>
-0.569808

>  <SCORE.INTRA.norm>
-0.0694613

>  <SCORE.RESTR>
0

>  <SCORE.RESTR.CAVITY>
0

>  <SCORE.RESTR.norm>
0

>  <SCORE.SYSTEM>
0

>  <SCORE.SYSTEM.CONST>
0

>  <SCORE.SYSTEM.DIHEDRAL>
0

>  <SCORE.SYSTEM.SOLV>
0

>  <SCORE.SYSTEM.norm>
0

>  <SCORE.heavy>
12

>  <SCORE.norm>
-0.966817

>  <RMSD>
1.035

$$$$
ligand
 OpenBabel11021811503D
libRbt.so/2013.1/901 2013/11/27
 12 12  0  0  0  0  0  0  0  0999 V2000
   10.2017   12.7915  148.3178 C   0  0  0  0  0  0  0  0  0  0  0  0
   12.9768    8.9363  145.5245 C   0  0  0  0  0  0  0  0  0  0  0  0
   11.6634   13.4052  146.1178 N   0  0  0  0  0  0  0  0  0  0  0  0
   10.3974   12.7583  149.7748 N   0  0  0  0  0  0  0  0  0  0  0  0
    9.8627   13.5462  150.3715 N   0  0  0  0  0  0  0  0  0  0  0  0
    9.3230   14.3302  150.9652 N   0  0  0  0  0  0  0  0  0  0  0  0
   11.5864    9.5521  147.3201 N   0  0  0  0  0  0  0  0  0  0  0  0
   12.2771    9.9098  146.2269 C   0  0  0  0  0  0  0  0  0  0  0  0
   12.3602   11.1966  145.8599 N   0  0  0  0  0  0  0  0  0  0  0  0
   11.7540   12.1578  146.5695 C   0  0  0  0  0  0  0  0  0  0  0  0
   11.0269   11.8497  147.7149 C   0  0  0  0  0  0  0  0  0  0  0  0
   10.9475   10.5195  148.1029 C   0  0  0  0  0  0  0  0  0  0  0  0
  1 11  1  0  0  0  0
  1  4  1  0  0  0  0
  2  8  1  0  0  0  0
  3 10  1  0  0  0  0
  4  5  1  0  0  0  0
  5  6  1  0  0  0  0
  7  8  2  0  0  0  0
  7 12  1  0  0  0  0
  8  9  1  0  0  0  0
  9 10  2  0  0  0  0
 10 11  1  0  0  0  0
 11 12  2  0  0  0  0
M  END
>  <CHROM.1>
-135.76323464,174.00407564,63.16244720,11.19428479,11.75986823,147.75375872
-2.78536829,-1.10176279,2.81103481

>  <Name>
ligand

>  <RI>
0

>  <Rbt.Current_Directory>
/home/itssahil/PROJECTS/Mol_Feturizer/New_Systems/rnas/4NYA

>  <Rbt.Executable>
rbdock ($Id: //depot/dev/client3/rdock/2013.1/src/exe/rbdock.cxx#4 $)

>  <Rbt.Library>
libRbt.so (2013.1, Build901 2013/11/27)

>  <Rbt.Parameter_File>
/export/apps/rDock/src/rDock_2013.1_src/data/scripts/dock_solv.prm

>  <Rbt.Receptor>
prm/pocket_docking_2.prm

>  <SCORE>
-11.5592

>  <SCORE.INTER>
-10.6892

>  <SCORE.INTER.CONST>
1

>  <SCORE.INTER.POLAR>
0

>  <SCORE.INTER.ROT>
3

>  <SCORE.INTER.SOLV>
15.7342

>  <SCORE.INTER.VDW>
-17.9709

>  <SCORE.INTER.norm>
-0.890767

>  <SCORE.INTRA>
-0.869981

>  <SCORE.INTRA.DIHEDRAL>
-0.678754

>  <SCORE.INTRA.DIHEDRAL.0>
2.1382

>  <SCORE.INTRA.POLAR>
0

>  <SCORE.INTRA.POLAR.0>
0

>  <SCORE.INTRA.REPUL>
0

>  <SCORE.INTRA.REPUL.0>
0

>  <SCORE.INTRA.SOLV>
-1.37967

>  <SCORE.INTRA.SOLV.lig_0>
-59.6513

>  <SCORE.INTRA.VDW>
0.159229

>  <SCORE.INTRA.VDW.0>
-0.569808

>  <SCORE.INTRA.norm>
-0.0724984

>  <SCORE.RESTR>
0

>  <SCORE.RESTR.CAVITY>
0

>  <SCORE.RESTR.norm>
0

>  <SCORE.SYSTEM>
0

>  <SCORE.SYSTEM.CONST>
0

>  <SCORE.SYSTEM.DIHEDRAL>
0

>  <SCORE.SYSTEM.SOLV>
0

>  <SCORE.SYSTEM.norm>
0

>  <SCORE.heavy>
12

>  <SCORE.norm>
-0.963265

>  <RMSD>
1.036

$$$$
ligand
 OpenBabel11021811503D
libRbt.so/2013.1/901 2013/11/27
 12 12  0  0  0  0  0  0  0  0999 V2000
   10.1818   12.7488  148.2598 C   0  0  0  0  0  0  0  0  0  0  0  0
   12.9624    8.8901  145.4767 C   0  0  0  0  0  0  0  0  0  0  0  0
   11.7665   13.3804  146.1520 N   0  0  0  0  0  0  0  0  0  0  0  0
   10.1854   12.5623  149.7184 N   0  0  0  0  0  0  0  0  0  0  0  0
    9.7375   13.3905  150.3317 N   0  0  0  0  0  0  0  0  0  0  0  0
    9.2949   14.2216  150.9415 N   0  0  0  0  0  0  0  0  0  0  0  0
   11.5079    9.4968  147.2239 N   0  0  0  0  0  0  0  0  0  0  0  0
   12.2615    9.8646  146.1766 C   0  0  0  0  0  0  0  0  0  0  0  0
   12.4035   11.1585  145.8557 N   0  0  0  0  0  0  0  0  0  0  0  0
   11.7952   12.1173  146.5668 C   0  0  0  0  0  0  0  0  0  0  0  0
   11.0043   11.7987  147.6661 C   0  0  0  0  0  0  0  0  0  0  0  0
   10.8636   10.4606  148.0067 C   0  0  0  0  0  0  0  0  0  0  0  0
  1 11  1  0  0  0  0
  1  4  1  0  0  0  0
  2  8  1  0  0  0  0
  3 10  1  0  0  0  0
  4  5  1  0  0  0  0
  5  6  1  0  0  0  0
  7  8  2  0  0  0  0
  7 12  1  0  0  0  0
  8  9  1  0  0  0  0
  9 10  2  0  0  0  0
 10 11  1  0  0  0  0
 11 12  2  0  0  0  0
M  END
>  <CHROM.1>
-142.30109202,167.55912631,-60.35462934,11.15932574,11.68696935,147.71332093
-2.69518292,-1.06312078,2.93076342

>  <Name>
ligand

>  <RI>
0

>  <Rbt.Current_Directory>
/home/itssahil/PROJECTS/Mol_Feturizer/New_Systems/rnas/4NYA

>  <Rbt.Executable>
rbdock ($Id: //depot/dev/client3/rdock/2013.1/src/exe/rbdock.cxx#4 $)

>  <Rbt.Library>
libRbt.so (2013.1, Build901 2013/11/27)

>  <Rbt.Parameter_File>
/export/apps/rDock/src/rDock_2013.1_src/data/scripts/dock_solv.prm

>  <Rbt.Receptor>
prm/pocket_docking_2.prm

>  <SCORE>
-11.6008

>  <SCORE.INTER>
-10.7678

>  <SCORE.INTER.CONST>
1

>  <SCORE.INTER.POLAR>
0

>  <SCORE.INTER.ROT>
3

>  <SCORE.INTER.SOLV>
15.391

>  <SCORE.INTER.VDW>
-17.9089

>  <SCORE.INTER.norm>
-0.897317

>  <SCORE.INTRA>
-0.832957

>  <SCORE.INTRA.DIHEDRAL>
-0.723012

>  <SCORE.INTRA.DIHEDRAL.0>
2.1382

>  <SCORE.INTRA.POLAR>
0

>  <SCORE.INTRA.POLAR.0>
0

>  <SCORE.INTRA.REPUL>
0

>  <SCORE.INTRA.REPUL.0>
0

>  <SCORE.INTRA.SOLV>
-1.44354

>  <SCORE.INTRA.SOLV.lig_0>
-59.6513

>  <SCORE.INTRA.VDW>
0.250319

>  <SCORE.INTRA.VDW.0>
-0.569808

>  <SCORE.INTRA.norm>
-0.0694131

>  <SCORE.RESTR>
0

>  <SCORE.RESTR.CAVITY>
0

>  <SCORE.RESTR.norm>
0

>  <SCORE.SYSTEM>
0

>  <SCORE.SYSTEM.CONST>
0

>  <SCORE.SYSTEM.DIHEDRAL>
0

>  <SCORE.SYSTEM.SOLV>
0

>  <SCORE.SYSTEM.norm>
0

>  <SCORE.heavy>
12

>  <SCORE.norm>
-0.96673

>  <RMSD>
1.036

$$$$
ligand
 OpenBabel11021811503D
libRbt.so/2013.1/901 2013/11/27
 12 12  0  0  0  0  0  0  0  0999 V2000
   10.1707   12.7640  148.2388 C   0  0  0  0  0  0  0  0  0  0  0  0
   12.9804    8.8966  145.4974 C   0  0  0  0  0  0  0  0  0  0  0  0
   11.7909   13.3909  146.1568 N   0  0  0  0  0  0  0  0  0  0  0  0
   10.1254   12.5568  149.6939 N   0  0  0  0  0  0  0  0  0  0  0  0
    9.7051   13.3986  150.3083 N   0  0  0  0  0  0  0  0  0  0  0  0
    9.2795   14.2382  150.9184 N   0  0  0  0  0  0  0  0  0  0  0  0
   11.5006    9.5077  147.2218 N   0  0  0  0  0  0  0  0  0  0  0  0
   12.2721    9.8733  146.1867 C   0  0  0  0  0  0  0  0  0  0  0  0
   12.4241   11.1668  145.8691 N   0  0  0  0  0  0  0  0  0  0  0  0
   11.8082   12.1275  146.5711 C   0  0  0  0  0  0  0  0  0  0  0  0
   10.9988   11.8112  147.6575 C   0  0  0  0  0  0  0  0  0  0  0  0
   10.8477   10.4734  147.9950 C   0  0  0  0  0  0  0  0  0  0  0  0
  1 11  1  0  0  0  0
  1  4  1  0  0  0  0
  2  8  1  0  0  0  0
  3 10  1  0  0  0  0
  4  5  1  0  0  0  0
  5  6  1  0  0  0  0
  7  8  2  0  0  0  0
  7 12  1  0  0  0  0
  8  9  1  0  0  0  0
  9 10  2  0  0  0  0
 10 11  1  0  0  0  0
 11 12  2  0  0  0  0
M  END
>  <CHROM.1>
-143.62511952,165.31249828,61.85800974,11.15411334,11.69645092,147.70820142
-2.68042423,-1.04985688,2.94563655

>  <Name>
ligand

>  <RI>
0

>  <Rbt.Current_Directory>
/home/itssahil/PROJECTS/Mol_Feturizer/New_Systems/rnas/4NYA

>  <Rbt.Executable>
rbdock ($Id: //depot/dev/client3/rdock/2013.1/src/exe/rbdock.cxx#4 $)

>  <Rbt.Library>
libRbt.so (2013.1, Build901 2013/11/27)

>  <Rbt.Parameter_File>
/export/apps/rDock/src/rDock_2013.1_src/data/scripts/dock_solv.prm

>  <Rbt.Receptor>
prm/pocket_docking_3.prm

>  <SCORE>
-11.581

>  <SCORE.INTER>
-10.772

>  <SCORE.INTER.CONST>
1

>  <SCORE.INTER.POLAR>
0

>  <SCORE.INTER.ROT>
3

>  <SCORE.INTER.SOLV>
15.3543

>  <SCORE.INTER.VDW>
-17.8995

>  <SCORE.INTER.norm>
-0.897669

>  <SCORE.INTRA>
-0.808994

>  <SCORE.INTRA.DIHEDRAL>
-0.698413

>  <SCORE.INTRA.DIHEDRAL.0>
2.1382

>  <SCORE.INTRA.POLAR>
0

>  <SCORE.INTRA.POLAR.0>
0

>  <SCORE.INTRA.REPUL>
0

>  <SCORE.INTRA.REPUL.0>
0

>  <SCORE.INTRA.SOLV>
-1.45417

>  <SCORE.INTRA.SOLV.lig_0>
-59.6513

>  <SCORE.INTRA.VDW>
0.267296

>  <SCORE.INTRA.VDW.0>
-0.569808

>  <SCORE.INTRA.norm>
-0.0674161

>  <SCORE.RESTR>
0

>  <SCORE.RESTR.CAVITY>
0

>  <SCORE.RESTR.norm>
0

>  <SCORE.SYSTEM>
0

>  <SCORE.SYSTEM.CONST>
0

>  <SCORE.SYSTEM.DIHEDRAL>
0

>  <SCORE.SYSTEM.SOLV>
0

>  <SCORE.SYSTEM.norm>
0

>  <SCORE.heavy>
12

>  <SCORE.norm>
-0.965085

>  <RMSD>
1.036

$$$$
ligand
 OpenBabel11021811503D
libRbt.so/2013.1/901 2013/11/27
 12 12  0  0  0  0  0  0  0  0999 V2000
   10.1922   12.8229  148.2640 C   0  0  0  0  0  0  0  0  0  0  0  0
   12.8757    8.8665  145.5232 C   0  0  0  0  0  0  0  0  0  0  0  0
   11.7812   13.3907  146.1414 N   0  0  0  0  0  0  0  0  0  0  0  0
   10.2164   12.6707  149.7263 N   0  0  0  0  0  0  0  0  0  0  0  0
    9.7726   13.5108  150.3262 N   0  0  0  0  0  0  0  0  0  0  0  0
    9.3320   14.3468  150.9308 N   0  0  0  0  0  0  0  0  0  0  0  0
   11.4423    9.5288  147.2676 N   0  0  0  0  0  0  0  0  0  0  0  0
   12.1993    9.8656  146.2123 C   0  0  0  0  0  0  0  0  0  0  0  0
   12.3682   11.1516  145.8731 N   0  0  0  0  0  0  0  0  0  0  0  0
   11.7840   12.1332  146.5734 C   0  0  0  0  0  0  0  0  0  0  0  0
   10.9911   11.8470  147.6801 C   0  0  0  0  0  0  0  0  0  0  0  0
   10.8226   10.5171  148.0397 C   0  0  0  0  0  0  0  0  0  0  0  0
  1 11  1  0  0  0  0
  1  4  1  0  0  0  0
  2  8  1  0  0  0  0
  3 10  1  0  0  0  0
  4  5  1  0  0  0  0
  5  6  1  0  0  0  0
  7  8  2  0  0  0  0
  7 12  1  0  0  0  0
  8  9  1  0  0  0  0
  9 10  2  0  0  0  0
 10 11  1  0  0  0  0
 11 12  2  0  0  0  0
M  END
>  <CHROM.1>
-141.32924437,168.69306031,-170.98751842,11.14411819,11.73412586,147.72835577
-2.65312275,-1.07154795,2.95329507

>  <Name>
ligand

>  <RI>
0

>  <Rbt.Current_Directory>
/home/itssahil/PROJECTS/Mol_Feturizer/New_Systems/rnas/4NYA

>  <Rbt.Executable>
rbdock ($Id: //depot/dev/client3/rdock/2013.1/src/exe/rbdock.cxx#4 $)

>  <Rbt.Library>
libRbt.so (2013.1, Build901 2013/11/27)

>  <Rbt.Parameter_File>
/export/apps/rDock/src/rDock_2013.1_src/data/scripts/dock_solv.prm

>  <Rbt.Receptor>
prm/pocket_docking_3.prm

>  <SCORE>
-11.5675

>  <SCORE.INTER>
-10.7323

>  <SCORE.INTER.CONST>
1

>  <SCORE.INTER.POLAR>
0

>  <SCORE.INTER.ROT>
3

>  <SCORE.INTER.SOLV>
15.4015

>  <SCORE.INTER.VDW>
-17.8887

>  <SCORE.INTER.norm>
-0.894362

>  <SCORE.INTRA>
-0.835197

>  <SCORE.INTRA.DIHEDRAL>
-0.704371

>  <SCORE.INTRA.DIHEDRAL.0>
2.1382

>  <SCORE.INTRA.POLAR>
0

>  <SCORE.INTRA.POLAR.0>
0

>  <SCORE.INTRA.REPUL>
0

>  <SCORE.INTRA.REPUL.0>
0

>  <SCORE.INTRA.SOLV>
-1.4394

>  <SCORE.INTRA.SOLV.lig_0>
-59.6513

>  <SCORE.INTRA.VDW>
0.236691

>  <SCORE.INTRA.VDW.0>
-0.569808

>  <SCORE.INTRA.norm>
-0.0695997

>  <SCORE.RESTR>
0

>  <SCORE.RESTR.CAVITY>
0

>  <SCORE.RESTR.norm>
0

>  <SCORE.SYSTEM>
0

>  <SCORE.SYSTEM.CONST>
0

>  <SCORE.SYSTEM.DIHEDRAL>
0

>  <SCORE.SYSTEM.SOLV>
0

>  <SCORE.SYSTEM.norm>
0

>  <SCORE.heavy>
12

>  <SCORE.norm>
-0.963962

>  <RMSD>
1.036

$$$$
ligand
 OpenBabel11021811503D
libRbt.so/2013.1/901 2013/11/27
 12 12  0  0  0  0  0  0  0  0999 V2000
   10.1889   12.8442  148.2565 C   0  0  0  0  0  0  0  0  0  0  0  0
   12.9943    8.9774  145.5099 C   0  0  0  0  0  0  0  0  0  0  0  0
   11.6916   13.4521  146.0828 N   0  0  0  0  0  0  0  0  0  0  0  0
   10.3181   12.7717  149.7195 N   0  0  0  0  0  0  0  0  0  0  0  0
    9.8002   13.5755  150.3099 N   0  0  0  0  0  0  0  0  0  0  0  0
    9.2869   14.3825  150.8961 N   0  0  0  0  0  0  0  0  0  0  0  0
   11.5756    9.5988  147.2813 N   0  0  0  0  0  0  0  0  0  0  0  0
   12.2870    9.9539  146.2005 C   0  0  0  0  0  0  0  0  0  0  0  0
   12.3826   11.2404  145.8358 N   0  0  0  0  0  0  0  0  0  0  0  0
   11.7685   12.2041  146.5353 C   0  0  0  0  0  0  0  0  0  0  0  0
   11.0200   11.8988  147.6675 C   0  0  0  0  0  0  0  0  0  0  0  0
   10.9277   10.5688  148.0533 C   0  0  0  0  0  0  0  0  0  0  0  0
  1 11  1  0  0  0  0
  1  4  1  0  0  0  0
  2  8  1  0  0  0  0
  3 10  1  0  0  0  0
  4  5  1  0  0  0  0
  5  6  1  0  0  0  0
  7  8  2  0  0  0  0
  7 12  1  0  0  0  0
  8  9  1  0  0  0  0
  9 10  2  0  0  0  0
 10 11  1  0  0  0  0
 11 12  2  0  0  0  0
M  END
>  <CHROM.1>
-138.06130095,172.17342988,-59.05894735,11.18262743,11.80256372,147.71063456
-2.76608228,-1.08531875,2.83174605

>  <Name>
ligand

>  <RI>
0

>  <Rbt.Current_Directory>
/home/itssahil/PROJECTS/Mol_Feturizer/New_Systems/rnas/4NYA

>  <Rbt.Executable>
rbdock ($Id: //depot/dev/client3/rdock/2013.1/src/exe/rbdock.cxx#4 $)

>  <Rbt.Library>
libRbt.so (2013.1, Build901 2013/11/27)

>  <Rbt.Parameter_File>
/export/apps/rDock/src/rDock_2013.1_src/data/scripts/dock_solv.prm

>  <Rbt.Receptor>
prm/pocket_docking_6.prm

>  <SCORE>
-11.544

>  <SCORE.INTER>
-10.6856

>  <SCORE.INTER.CONST>
1

>  <SCORE.INTER.POLAR>
0

>  <SCORE.INTER.ROT>
3

>  <SCORE.INTER.SOLV>
15.7498

>  <SCORE.INTER.VDW>
-17.9736

>  <SCORE.INTER.norm>
-0.890465

>  <SCORE.INTRA>
-0.858387

>  <SCORE.INTRA.DIHEDRAL>
-0.712617

>  <SCORE.INTRA.DIHEDRAL.0>
2.1382

>  <SCORE.INTRA.POLAR>
0

>  <SCORE.INTRA.POLAR.0>
0

>  <SCORE.INTRA.REPUL>
0

>  <SCORE.INTRA.REPUL.0>
0

>  <SCORE.INTRA.SOLV>
-1.40374

>  <SCORE.INTRA.SOLV.lig_0>
-59.6513

>  <SCORE.INTRA.VDW>
0.199793

>  <SCORE.INTRA.VDW.0>
-0.569808

>  <SCORE.INTRA.norm>
-0.0715323

>  <SCORE.RESTR>
0

>  <SCORE.RESTR.CAVITY>
0

>  <SCORE.RESTR.norm>
0

>  <SCORE.SYSTEM>
0

>  <SCORE.SYSTEM.CONST>
0

>  <SCORE.SYSTEM.DIHEDRAL>
0

>  <SCORE.SYSTEM.SOLV>
0

>  <SCORE.SYSTEM.norm>
0

>  <SCORE.heavy>
12

>  <SCORE.norm>
-0.961997

>  <RMSD>
1.036

$$$$
ligand
 OpenBabel11021811503D
libRbt.so/2013.1/901 2013/11/27
 12 12  0  0  0  0  0  0  0  0999 V2000
   10.1953   12.8066  148.2953 C   0  0  0  0  0  0  0  0  0  0  0  0
   12.9162    8.9092  145.5073 C   0  0  0  0  0  0  0  0  0  0  0  0
   11.6913   13.4015  146.1133 N   0  0  0  0  0  0  0  0  0  0  0  0
   10.3300   12.7205  149.7570 N   0  0  0  0  0  0  0  0  0  0  0  0
    9.8445   13.5385  150.3552 N   0  0  0  0  0  0  0  0  0  0  0  0
    9.3625   14.3525  150.9581 N   0  0  0  0  0  0  0  0  0  0  0  0
   11.5213    9.5443  147.2926 N   0  0  0  0  0  0  0  0  0  0  0  0
   12.2303    9.8934  146.2083 C   0  0  0  0  0  0  0  0  0  0  0  0
   12.3441   11.1801  145.8495 N   0  0  0  0  0  0  0  0  0  0  0  0
   11.7512   12.1500  146.5587 C   0  0  0  0  0  0  0  0  0  0  0  0
   11.0064   11.8509  147.6950 C   0  0  0  0  0  0  0  0  0  0  0  0
   10.8952   10.5206  148.0747 C   0  0  0  0  0  0  0  0  0  0  0  0
  1 11  1  0  0  0  0
  1  4  1  0  0  0  0
  2  8  1  0  0  0  0
  3 10  1  0  0  0  0
  4  5  1  0  0  0  0
  5  6  1  0  0  0  0
  7  8  2  0  0  0  0
  7 12  1  0  0  0  0
  8  9  1  0  0  0  0
  9 10  2  0  0  0  0
 10 11  1  0  0  0  0
 11 12  2  0  0  0  0
M  END
>  <CHROM.1>
-138.30043790,171.15601837,-176.11838883,11.17032281,11.75254631,147.73716427
-2.73569312,-1.09936805,2.86360771

>  <Name>
ligand

>  <RI>
0

>  <Rbt.Current_Directory>
/home/itssahil/PROJECTS/Mol_Feturizer/New_Systems/rnas/4NYA

>  <Rbt.Executable>
rbdock ($Id: //depot/dev/client3/rdock/2013.1/src/exe/rbdock.cxx#4 $)

>  <Rbt.Library>
libRbt.so (2013.1, Build901 2013/11/27)

>  <Rbt.Parameter_File>
/export/apps/rDock/src/rDock_2013.1_src/data/scripts/dock_solv.prm

>  <Rbt.Receptor>
prm/pocket_docking_2.prm

>  <SCORE>
-11.5658

>  <SCORE.INTER>
-10.7109

>  <SCORE.INTER.CONST>
1

>  <SCORE.INTER.POLAR>
0

>  <SCORE.INTER.ROT>
3

>  <SCORE.INTER.SOLV>
15.5756

>  <SCORE.INTER.VDW>
-17.9325

>  <SCORE.INTER.norm>
-0.892575

>  <SCORE.INTRA>
-0.854921

>  <SCORE.INTRA.DIHEDRAL>
-0.700376

>  <SCORE.INTRA.DIHEDRAL.0>
2.1382

>  <SCORE.INTRA.POLAR>
0

>  <SCORE.INTRA.POLAR.0>
0

>  <SCORE.INTRA.REPUL>
0

>  <SCORE.INTRA.REPUL.0>
0

>  <SCORE.INTRA.SOLV>
-1.41117

>  <SCORE.INTRA.SOLV.lig_0>
-59.6513

>  <SCORE.INTRA.VDW>
0.20085

>  <SCORE.INTRA.VDW.0>
-0.569808

>  <SCORE.INTRA.norm>
-0.0712434

>  <SCORE.RESTR>
0

>  <SCORE.RESTR.CAVITY>
0

>  <SCORE.RESTR.norm>
0

>  <SCORE.SYSTEM>
0

>  <SCORE.SYSTEM.CONST>
0

>  <SCORE.SYSTEM.DIHEDRAL>
0

>  <SCORE.SYSTEM.SOLV>
0

>  <SCORE.SYSTEM.norm>
0

>  <SCORE.heavy>
12

>  <SCORE.norm>
-0.963818

>  <RMSD>
1.037

$$$$
ligand
 OpenBabel11021811503D
libRbt.so/2013.1/901 2013/11/27
 12 12  0  0  0  0  0  0  0  0999 V2000
   10.1686   12.7606  148.1423 C   0  0  0  0  0  0  0  0  0  0  0  0
   12.9936    8.8414  145.4918 C   0  0  0  0  0  0  0  0  0  0  0  0
   11.7738   13.3430  146.0359 N   0  0  0  0  0  0  0  0  0  0  0  0
   10.1212   12.5839  149.6013 N   0  0  0  0  0  0  0  0  0  0  0  0
    9.5178   13.3355  150.1790 N   0  0  0  0  0  0  0  0  0  0  0  0
    8.9190   14.0908  150.7529 N   0  0  0  0  0  0  0  0  0  0  0  0
   11.5179    9.4880  147.2066 N   0  0  0  0  0  0  0  0  0  0  0  0
   12.2815    9.8311  146.1581 C   0  0  0  0  0  0  0  0  0  0  0  0
   12.4222   11.1167  145.8049 N   0  0  0  0  0  0  0  0  0  0  0  0
   11.8026   12.0914  146.4840 C   0  0  0  0  0  0  0  0  0  0  0  0
   11.0009   11.7986  147.5827 C   0  0  0  0  0  0  0  0  0  0  0  0
   10.8615   10.4694  147.9568 C   0  0  0  0  0  0  0  0  0  0  0  0
  1 11  1  0  0  0  0
  1  4  1  0  0  0  0
  2  8  1  0  0  0  0
  3 10  1  0  0  0  0
  4  5  1  0  0  0  0
  5  6  1  0  0  0  0
  7  8  2  0  0  0  0
  7 12  1  0  0  0  0
  8  9  1  0  0  0  0
  9 10  2  0  0  0  0
 10 11  1  0  0  0  0
 11 12  2  0  0  0  0
M  END
>  <CHROM.1>
-144.19799101,177.11348701,-54.77470386,11.10851608,11.65775784,147.63117505
-2.73117915,-1.02032405,2.89346320

>  <Name>
ligand

>  <RI>
0

>  <Rbt.Current_Directory>
/home/itssahil/PROJECTS/Mol_Feturizer/New_Systems/rnas/4NYA

>  <Rbt.Executable>
rbdock ($Id: //depot/dev/client3/rdock/2013.1/src/exe/rbdock.cxx#4 $)

>  <Rbt.Library>
libRbt.so (2013.1, Build901 2013/11/27)

>  <Rbt.Parameter_File>
/export/apps/rDock/src/rDock_2013.1_src/data/scripts/dock_solv.prm

>  <Rbt.Receptor>
prm/pocket_docking_3.prm

>  <SCORE>
-11.5545

>  <SCORE.INTER>
-10.6895

>  <SCORE.INTER.CONST>
1

>  <SCORE.INTER.POLAR>
0

>  <SCORE.INTER.ROT>
3

>  <SCORE.INTER.SOLV>
16.0381

>  <SCORE.INTER.VDW>
-18.0724

>  <SCORE.INTER.norm>
-0.890792

>  <SCORE.INTRA>
-0.864983

>  <SCORE.INTRA.DIHEDRAL>
-0.862977

>  <SCORE.INTRA.DIHEDRAL.0>
2.1382

>  <SCORE.INTRA.POLAR>
0

>  <SCORE.INTRA.POLAR.0>
0

>  <SCORE.INTRA.REPUL>
0

>  <SCORE.INTRA.REPUL.0>
0

>  <SCORE.INTRA.SOLV>
-1.45079

>  <SCORE.INTRA.SOLV.lig_0>
-59.6513

>  <SCORE.INTRA.VDW>
0.291898

>  <SCORE.INTRA.VDW.0>
-0.569808

>  <SCORE.INTRA.norm>
-0.0720819

>  <SCORE.RESTR>
0

>  <SCORE.RESTR.CAVITY>
0

>  <SCORE.RESTR.norm>
0

>  <SCORE.SYSTEM>
0

>  <SCORE.SYSTEM.CONST>
0

>  <SCORE.SYSTEM.DIHEDRAL>
0

>  <SCORE.SYSTEM.SOLV>
0

>  <SCORE.SYSTEM.norm>
0

>  <SCORE.heavy>
12

>  <SCORE.norm>
-0.962874

>  <RMSD>
1.037

$$$$
ligand
 OpenBabel11021811503D
libRbt.so/2013.1/901 2013/11/27
 12 12  0  0  0  0  0  0  0  0999 V2000
   10.1879   12.7908  148.3053 C   0  0  0  0  0  0  0  0  0  0  0  0
   12.9545    8.9479  145.4867 C   0  0  0  0  0  0  0  0  0  0  0  0
   11.6599   13.4174  146.1159 N   0  0  0  0  0  0  0  0  0  0  0  0
   10.3775   12.7426  149.7627 N   0  0  0  0  0  0  0  0  0  0  0  0
    9.8700   13.5464  150.3620 N   0  0  0  0  0  0  0  0  0  0  0  0
    9.3573   14.3464  150.9583 N   0  0  0  0  0  0  0  0  0  0  0  0
   11.5608    9.5540  147.2830 N   0  0  0  0  0  0  0  0  0  0  0  0
   12.2570    9.9184  146.1954 C   0  0  0  0  0  0  0  0  0  0  0  0
   12.3474   11.2079  145.8404 N   0  0  0  0  0  0  0  0  0  0  0  0
   11.7432   12.1656  146.5566 C   0  0  0  0  0  0  0  0  0  0  0  0
   11.0107   11.8505  147.6966 C   0  0  0  0  0  0  0  0  0  0  0  0
   10.9238   10.5173  148.0724 C   0  0  0  0  0  0  0  0  0  0  0  0
  1 11  1  0  0  0  0
  1  4  1  0  0  0  0
  2  8  1  0  0  0  0
  3 10  1  0  0  0  0
  4  5  1  0  0  0  0
  5  6  1  0  0  0  0
  7  8  2  0  0  0  0
  7 12  1  0  0  0  0
  8  9  1  0  0  0  0
  9 10  2  0  0  0  0
 10 11  1  0  0  0  0
 11 12  2  0  0  0  0
M  END
>  <CHROM.1>
-135.81338264,172.18528817,63.13205395,11.18396375,11.76426429,147.73463651
-2.76762449,-1.10420282,2.83244402

>  <Name>
ligand

>  <RI>
0

>  <Rbt.Current_Directory>
/home/itssahil/PROJECTS/Mol_Feturizer/New_Systems/rnas/4NYA

>  <Rbt.Executable>
rbdock ($Id: //depot/dev/client3/rdock/2013.1/src/exe/rbdock.cxx#4 $)

>  <Rbt.Library>
libRbt.so (2013.1, Build901 2013/11/27)

>  <Rbt.Parameter_File>
/export/apps/rDock/src/rDock_2013.1_src/data/scripts/dock_solv.prm

>  <Rbt.Receptor>
prm/pocket_docking_3.prm

>  <SCORE>
-11.578

>  <SCORE.INTER>
-10.7166

>  <SCORE.INTER.CONST>
1

>  <SCORE.INTER.POLAR>
0

>  <SCORE.INTER.ROT>
3

>  <SCORE.INTER.SOLV>
15.637

>  <SCORE.INTER.VDW>
-17.9567

>  <SCORE.INTER.norm>
-0.893047

>  <SCORE.INTRA>
-0.861482

>  <SCORE.INTRA.DIHEDRAL>
-0.659773

>  <SCORE.INTRA.DIHEDRAL.0>
2.1382

>  <SCORE.INTRA.POLAR>
0

>  <SCORE.INTRA.POLAR.0>
0

>  <SCORE.INTRA.REPUL>
0

>  <SCORE.INTRA.REPUL.0>
0

>  <SCORE.INTRA.SOLV>
-1.38216

>  <SCORE.INTRA.SOLV.lig_0>
-59.6513

>  <SCORE.INTRA.VDW>
0.159486

>  <SCORE.INTRA.VDW.0>
-0.569808

>  <SCORE.INTRA.norm>
-0.0717902

>  <SCORE.RESTR>
0

>  <SCORE.RESTR.CAVITY>
0

>  <SCORE.RESTR.norm>
0

>  <SCORE.SYSTEM>
0

>  <SCORE.SYSTEM.CONST>
0

>  <SCORE.SYSTEM.DIHEDRAL>
0

>  <SCORE.SYSTEM.SOLV>
0

>  <SCORE.SYSTEM.norm>
0

>  <SCORE.heavy>
12

>  <SCORE.norm>
-0.964837

>  <RMSD>
1.037

$$$$
ligand
 OpenBabel11021811503D
libRbt.so/2013.1/901 2013/11/27
 12 12  0  0  0  0  0  0  0  0999 V2000
   10.1478   12.7840  148.1240 C   0  0  0  0  0  0  0  0  0  0  0  0
   13.0316    8.9233  145.4509 C   0  0  0  0  0  0  0  0  0  0  0  0
   11.9049   13.4260  146.1610 N   0  0  0  0  0  0  0  0  0  0  0  0
   10.1700   12.6679  149.5897 N   0  0  0  0  0  0  0  0  0  0  0  0
    9.5380   13.4004  150.1612 N   0  0  0  0  0  0  0  0  0  0  0  0
    8.9015   14.1286  150.7295 N   0  0  0  0  0  0  0  0  0  0  0  0
   11.4640    9.5244  147.0995 N   0  0  0  0  0  0  0  0  0  0  0  0
   12.3048    9.8983  146.1230 C   0  0  0  0  0  0  0  0  0  0  0  0
   12.5046   11.1957  145.8508 N   0  0  0  0  0  0  0  0  0  0  0  0
   11.8689   12.1522  146.5407 C   0  0  0  0  0  0  0  0  0  0  0  0
   10.9882   11.8271  147.5675 C   0  0  0  0  0  0  0  0  0  0  0  0
   10.7871   10.4850  147.8583 C   0  0  0  0  0  0  0  0  0  0  0  0
  1 11  1  0  0  0  0
  1  4  1  0  0  0  0
  2  8  1  0  0  0  0
  3 10  1  0  0  0  0
  4  5  1  0  0  0  0
  5  6  1  0  0  0  0
  7  8  2  0  0  0  0
  7 12  1  0  0  0  0
  8  9  1  0  0  0  0
  9 10  2  0  0  0  0
 10 11  1  0  0  0  0
 11 12  2  0  0  0  0
M  END
>  <CHROM.1>
-135.08665539,179.17823603,69.92396590,11.12879028,11.71372723,147.61983513
-2.62849348,-0.98423006,3.01502810

>  <Name>
ligand

>  <RI>
0

>  <Rbt.Current_Directory>
/home/itssahil/PROJECTS/Mol_Feturizer/New_Systems/rnas/4NYA

>  <Rbt.Executable>
rbdock ($Id: //depot/dev/client3/rdock/2013.1/src/exe/rbdock.cxx#4 $)

>  <Rbt.Library>
libRbt.so (2013.1, Build901 2013/11/27)

>  <Rbt.Parameter_File>
/export/apps/rDock/src/rDock_2013.1_src/data/scripts/dock_solv.prm

>  <Rbt.Receptor>
prm/pocket_docking_5.prm

>  <SCORE>
-11.4438

>  <SCORE.INTER>
-10.5798

>  <SCORE.INTER.CONST>
1

>  <SCORE.INTER.POLAR>
0

>  <SCORE.INTER.ROT>
3

>  <SCORE.INTER.SOLV>
15.9054

>  <SCORE.INTER.VDW>
-17.955

>  <SCORE.INTER.norm>
-0.881646

>  <SCORE.INTRA>
-0.86408

>  <SCORE.INTRA.DIHEDRAL>
-0.667904

>  <SCORE.INTRA.DIHEDRAL.0>
2.1382

>  <SCORE.INTRA.POLAR>
0

>  <SCORE.INTRA.POLAR.0>
0

>  <SCORE.INTRA.REPUL>
0

>  <SCORE.INTRA.REPUL.0>
0

>  <SCORE.INTRA.SOLV>
-1.36499

>  <SCORE.INTRA.SOLV.lig_0>
-59.6513

>  <SCORE.INTRA.VDW>
0.152364

>  <SCORE.INTRA.VDW.0>
-0.569808

>  <SCORE.INTRA.norm>
-0.0720067

>  <SCORE.RESTR>
0

>  <SCORE.RESTR.CAVITY>
0

>  <SCORE.RESTR.norm>
0

>  <SCORE.SYSTEM>
0

>  <SCORE.SYSTEM.CONST>
0

>  <SCORE.SYSTEM.DIHEDRAL>
0

>  <SCORE.SYSTEM.SOLV>
0

>  <SCORE.SYSTEM.norm>
0

>  <SCORE.heavy>
12

>  <SCORE.norm>
-0.953653

>  <RMSD>
1.038

$$$$
ligand
 OpenBabel11021811503D
libRbt.so/2013.1/901 2013/11/27
 12 12  0  0  0  0  0  0  0  0999 V2000
   10.1956   12.8072  148.3201 C   0  0  0  0  0  0  0  0  0  0  0  0
   12.9348    8.9099  145.5499 C   0  0  0  0  0  0  0  0  0  0  0  0
   11.6305   13.3878  146.0937 N   0  0  0  0  0  0  0  0  0  0  0  0
   10.3840   12.7718  149.7780 N   0  0  0  0  0  0  0  0  0  0  0  0
    9.8743   13.5795  150.3701 N   0  0  0  0  0  0  0  0  0  0  0  0
    9.3682   14.3833  150.9670 N   0  0  0  0  0  0  0  0  0  0  0  0
   11.5666    9.5528  147.3531 N   0  0  0  0  0  0  0  0  0  0  0  0
   12.2441    9.8940  146.2464 C   0  0  0  0  0  0  0  0  0  0  0  0
   12.3233   11.1752  145.8596 N   0  0  0  0  0  0  0  0  0  0  0  0
   11.7261   12.1471  146.5624 C   0  0  0  0  0  0  0  0  0  0  0  0
   11.0129   11.8562  147.7210 C   0  0  0  0  0  0  0  0  0  0  0  0
   10.9378   10.5319  148.1294 C   0  0  0  0  0  0  0  0  0  0  0  0
  1 11  1  0  0  0  0
  1  4  1  0  0  0  0
  2  8  1  0  0  0  0
  3 10  1  0  0  0  0
  4  5  1  0  0  0  0
  5  6  1  0  0  0  0
  7  8  2  0  0  0  0
  7 12  1  0  0  0  0
  8  9  1  0  0  0  0
  9 10  2  0  0  0  0
 10 11  1  0  0  0  0
 11 12  2  0  0  0  0
M  END
>  <CHROM.1>
-137.18839783,172.66097333,-179.08335547,11.17950934,11.76356419,147.76074584
-2.79505977,-1.11351984,2.78973199

>  <Name>
ligand

>  <RI>
0

>  <Rbt.Current_Directory>
/home/itssahil/PROJECTS/Mol_Feturizer/New_Systems/rnas/4NYA

>  <Rbt.Executable>
rbdock ($Id: //depot/dev/client3/rdock/2013.1/src/exe/rbdock.cxx#4 $)

>  <Rbt.Library>
libRbt.so (2013.1, Build901 2013/11/27)

>  <Rbt.Parameter_File>
/export/apps/rDock/src/rDock_2013.1_src/data/scripts/dock_solv.prm

>  <Rbt.Receptor>
prm/pocket_docking_2.prm

>  <SCORE>
-11.5696

>  <SCORE.INTER>
-10.7089

>  <SCORE.INTER.CONST>
1

>  <SCORE.INTER.POLAR>
0

>  <SCORE.INTER.ROT>
3

>  <SCORE.INTER.SOLV>
15.7206

>  <SCORE.INTER.VDW>
-17.9795

>  <SCORE.INTER.norm>
-0.892411

>  <SCORE.INTRA>
-0.86063

>  <SCORE.INTRA.DIHEDRAL>
-0.699385

>  <SCORE.INTRA.DIHEDRAL.0>
2.1382

>  <SCORE.INTRA.POLAR>
0

>  <SCORE.INTRA.POLAR.0>
0

>  <SCORE.INTRA.REPUL>
0

>  <SCORE.INTRA.REPUL.0>
0

>  <SCORE.INTRA.SOLV>
-1.39931

>  <SCORE.INTRA.SOLV.lig_0>
-59.6513

>  <SCORE.INTRA.VDW>
0.188718

>  <SCORE.INTRA.VDW.0>
-0.569808

>  <SCORE.INTRA.norm>
-0.0717191

>  <SCORE.RESTR>
0

>  <SCORE.RESTR.CAVITY>
0

>  <SCORE.RESTR.norm>
0

>  <SCORE.SYSTEM>
0

>  <SCORE.SYSTEM.CONST>
0

>  <SCORE.SYSTEM.DIHEDRAL>
0

>  <SCORE.SYSTEM.SOLV>
0

>  <SCORE.SYSTEM.norm>
0

>  <SCORE.heavy>
12

>  <SCORE.norm>
-0.96413

>  <RMSD>
1.040

$$$$
ligand
 OpenBabel11021811503D
libRbt.so/2013.1/901 2013/11/27
 12 12  0  0  0  0  0  0  0  0999 V2000
   10.1763   12.7581  148.2421 C   0  0  0  0  0  0  0  0  0  0  0  0
   12.9726    8.8933  145.4834 C   0  0  0  0  0  0  0  0  0  0  0  0
   11.7766   13.3856  146.1450 N   0  0  0  0  0  0  0  0  0  0  0  0
   10.1655   12.5703  149.7005 N   0  0  0  0  0  0  0  0  0  0  0  0
    9.7350   13.4092  150.3118 N   0  0  0  0  0  0  0  0  0  0  0  0
    9.2993   14.2458  150.9189 N   0  0  0  0  0  0  0  0  0  0  0  0
   11.5062    9.5036  147.2194 N   0  0  0  0  0  0  0  0  0  0  0  0
   12.2677    9.8694  146.1771 C   0  0  0  0  0  0  0  0  0  0  0  0
   12.4134   11.1627  145.8558 N   0  0  0  0  0  0  0  0  0  0  0  0
   11.8010   12.1230  146.5614 C   0  0  0  0  0  0  0  0  0  0  0  0
   11.0019   11.8064  147.6554 C   0  0  0  0  0  0  0  0  0  0  0  0
   10.8574   10.4689  147.9965 C   0  0  0  0  0  0  0  0  0  0  0  0
  1 11  1  0  0  0  0
  1  4  1  0  0  0  0
  2  8  1  0  0  0  0
  3 10  1  0  0  0  0
  4  5  1  0  0  0  0
  5  6  1  0  0  0  0
  7  8  2  0  0  0  0
  7 12  1  0  0  0  0
  8  9  1  0  0  0  0
  9 10  2  0  0  0  0
 10 11  1  0  0  0  0
 11 12  2  0  0  0  0
M  END
>  <CHROM.1>
-142.49634248,166.22066932,60.56119301,11.16007951,11.69590156,147.70424677
-2.68751626,-1.05869296,2.93542198

>  <Name>
ligand

>  <RI>
0

>  <Rbt.Current_Directory>
/home/itssahil/PROJECTS/Mol_Feturizer/New_Systems/rnas/4NYA

>  <Rbt.Executable>
rbdock ($Id: //depot/dev/client3/rdock/2013.1/src/exe/rbdock.cxx#4 $)

>  <Rbt.Library>
libRbt.so (2013.1, Build901 2013/11/27)

>  <Rbt.Parameter_File>
/export/apps/rDock/src/rDock_2013.1_src/data/scripts/dock_solv.prm

>  <Rbt.Receptor>
prm/pocket_docking_8.prm

>  <SCORE>
-11.5963

>  <SCORE.INTER>
-10.7763

>  <SCORE.INTER.CONST>
1

>  <SCORE.INTER.POLAR>
0

>  <SCORE.INTER.ROT>
3

>  <SCORE.INTER.SOLV>
15.3983

>  <SCORE.INTER.VDW>
-17.917

>  <SCORE.INTER.norm>
-0.898023

>  <SCORE.INTRA>
-0.820002

>  <SCORE.INTRA.DIHEDRAL>
-0.699725

>  <SCORE.INTRA.DIHEDRAL.0>
2.1382

>  <SCORE.INTRA.POLAR>
0

>  <SCORE.INTRA.POLAR.0>
0

>  <SCORE.INTRA.REPUL>
0

>  <SCORE.INTRA.REPUL.0>
0

>  <SCORE.INTRA.SOLV>
-1.44527

>  <SCORE.INTRA.SOLV.lig_0>
-59.6513

>  <SCORE.INTRA.VDW>
0.252493

>  <SCORE.INTRA.VDW.0>
-0.569808

>  <SCORE.INTRA.norm>
-0.0683335

>  <SCORE.RESTR>
0

>  <SCORE.RESTR.CAVITY>
0

>  <SCORE.RESTR.norm>
0

>  <SCORE.SYSTEM>
0

>  <SCORE.SYSTEM.CONST>
0

>  <SCORE.SYSTEM.DIHEDRAL>
0

>  <SCORE.SYSTEM.SOLV>
0

>  <SCORE.SYSTEM.norm>
0

>  <SCORE.heavy>
12

>  <SCORE.norm>
-0.966357

>  <RMSD>
1.041

$$$$
ligand
 OpenBabel11021811503D
libRbt.so/2013.1/901 2013/11/27
 12 12  0  0  0  0  0  0  0  0999 V2000
   10.1869   12.8014  148.3011 C   0  0  0  0  0  0  0  0  0  0  0  0
   12.9251    8.8973  145.5394 C   0  0  0  0  0  0  0  0  0  0  0  0
   11.5984   13.3717  146.0571 N   0  0  0  0  0  0  0  0  0  0  0  0
   10.4152   12.8049  149.7537 N   0  0  0  0  0  0  0  0  0  0  0  0
    9.8694   13.5884  150.3461 N   0  0  0  0  0  0  0  0  0  0  0  0
    9.3275   14.3754  150.9337 N   0  0  0  0  0  0  0  0  0  0  0  0
   11.5691    9.5471  147.3493 N   0  0  0  0  0  0  0  0  0  0  0  0
   12.2347    9.8831  146.2338 C   0  0  0  0  0  0  0  0  0  0  0  0
   12.3025   11.1614  145.8355 N   0  0  0  0  0  0  0  0  0  0  0  0
   11.7058   12.1356  146.5354 C   0  0  0  0  0  0  0  0  0  0  0  0
   11.0046   11.8502  147.7027 C   0  0  0  0  0  0  0  0  0  0  0  0
   10.9412   10.5290  148.1229 C   0  0  0  0  0  0  0  0  0  0  0  0
  1 11  1  0  0  0  0
  1  4  1  0  0  0  0
  2  8  1  0  0  0  0
  3 10  1  0  0  0  0
  4  5  1  0  0  0  0
  5  6  1  0  0  0  0
  7  8  2  0  0  0  0
  7 12  1  0  0  0  0
  8  9  1  0  0  0  0
  9 10  2  0  0  0  0
 10 11  1  0  0  0  0
 11 12  2  0  0  0  0
M  END
>  <CHROM.1>
-135.64779331,175.42456150,-58.63831183,11.16964070,11.75941986,147.74061257
-2.81656723,-1.11705139,2.76206350

>  <Name>
ligand

>  <RI>
0

>  <Rbt.Current_Directory>
/home/itssahil/PROJECTS/Mol_Feturizer/New_Systems/rnas/4NYA

>  <Rbt.Executable>
rbdock ($Id: //depot/dev/client3/rdock/2013.1/src/exe/rbdock.cxx#4 $)

>  <Rbt.Library>
libRbt.so (2013.1, Build901 2013/11/27)

>  <Rbt.Parameter_File>
/export/apps/rDock/src/rDock_2013.1_src/data/scripts/dock_solv.prm

>  <Rbt.Receptor>
prm/pocket_docking_3.prm

>  <SCORE>
-11.5676

>  <SCORE.INTER>
-10.6924

>  <SCORE.INTER.CONST>
1

>  <SCORE.INTER.POLAR>
0

>  <SCORE.INTER.ROT>
3

>  <SCORE.INTER.SOLV>
15.8917

>  <SCORE.INTER.VDW>
-18.0255

>  <SCORE.INTER.norm>
-0.891034

>  <SCORE.INTRA>
-0.875232

>  <SCORE.INTRA.DIHEDRAL>
-0.690471

>  <SCORE.INTRA.DIHEDRAL.0>
2.1382

>  <SCORE.INTRA.POLAR>
0

>  <SCORE.INTRA.POLAR.0>
0

>  <SCORE.INTRA.REPUL>
0

>  <SCORE.INTRA.REPUL.0>
0

>  <SCORE.INTRA.SOLV>
-1.37644

>  <SCORE.INTRA.SOLV.lig_0>
-59.6513

>  <SCORE.INTRA.VDW>
0.158224

>  <SCORE.INTRA.VDW.0>
-0.569808

>  <SCORE.INTRA.norm>
-0.072936

>  <SCORE.RESTR>
0

>  <SCORE.RESTR.CAVITY>
0

>  <SCORE.RESTR.norm>
0

>  <SCORE.SYSTEM>
0

>  <SCORE.SYSTEM.CONST>
0

>  <SCORE.SYSTEM.DIHEDRAL>
0

>  <SCORE.SYSTEM.SOLV>
0

>  <SCORE.SYSTEM.norm>
0

>  <SCORE.heavy>
12

>  <SCORE.norm>
-0.96397

>  <RMSD>
1.042

$$$$
ligand
 OpenBabel11021811503D
libRbt.so/2013.1/901 2013/11/27
 12 12  0  0  0  0  0  0  0  0999 V2000
   10.1713   12.7543  148.2413 C   0  0  0  0  0  0  0  0  0  0  0  0
   12.9737    8.8910  145.4866 C   0  0  0  0  0  0  0  0  0  0  0  0
   11.7649   13.3812  146.1388 N   0  0  0  0  0  0  0  0  0  0  0  0
   10.1660   12.5717  149.7003 N   0  0  0  0  0  0  0  0  0  0  0  0
    9.7414   13.4144  150.3105 N   0  0  0  0  0  0  0  0  0  0  0  0
    9.3192   14.2524  150.9253 N   0  0  0  0  0  0  0  0  0  0  0  0
   11.5093    9.5013  147.2243 N   0  0  0  0  0  0  0  0  0  0  0  0
   12.2672    9.8666  146.1793 C   0  0  0  0  0  0  0  0  0  0  0  0
   12.4081   11.1596  145.8542 N   0  0  0  0  0  0  0  0  0  0  0  0
   11.7942   12.1198  146.5586 C   0  0  0  0  0  0  0  0  0  0  0  0
   10.9986   11.8037  147.6552 C   0  0  0  0  0  0  0  0  0  0  0  0
   10.8591   10.4667  148.0003 C   0  0  0  0  0  0  0  0  0  0  0  0
  1 11  1  0  0  0  0
  1  4  1  0  0  0  0
  2  8  1  0  0  0  0
  3 10  1  0  0  0  0
  4  5  1  0  0  0  0
  5  6  1  0  0  0  0
  7  8  2  0  0  0  0
  7 12  1  0  0  0  0
  8  9  1  0  0  0  0
  9 10  2  0  0  0  0
 10 11  1  0  0  0  0
 11 12  2  0  0  0  0
M  END
>  <CHROM.1>
-142.41294120,165.77204898,-176.80865104,11.16021035,11.69482358,147.70486429
-2.69334421,-1.06236336,2.92721357

>  <Name>
ligand

>  <RI>
0

>  <Rbt.Current_Directory>
/home/itssahil/PROJECTS/Mol_Feturizer/New_Systems/rnas/4NYA

>  <Rbt.Executable>
rbdock ($Id: //depot/dev/client3/rdock/2013.1/src/exe/rbdock.cxx#4 $)

>  <Rbt.Library>
libRbt.so (2013.1, Build901 2013/11/27)

>  <Rbt.Parameter_File>
/export/apps/rDock/src/rDock_2013.1_src/data/scripts/dock_solv.prm

>  <Rbt.Receptor>
prm/pocket_docking_2.prm

>  <SCORE>
-11.6047

>  <SCORE.INTER>
-10.787

>  <SCORE.INTER.CONST>
1

>  <SCORE.INTER.POLAR>
0

>  <SCORE.INTER.ROT>
3

>  <SCORE.INTER.SOLV>
15.3886

>  <SCORE.INTER.VDW>
-17.9209

>  <SCORE.INTER.norm>
-0.898916

>  <SCORE.INTRA>
-0.817715

>  <SCORE.INTRA.DIHEDRAL>
-0.686142

>  <SCORE.INTRA.DIHEDRAL.0>
2.1382

>  <SCORE.INTRA.POLAR>
0

>  <SCORE.INTRA.POLAR.0>
0

>  <SCORE.INTRA.REPUL>
0

>  <SCORE.INTRA.REPUL.0>
0

>  <SCORE.INTRA.SOLV>
-1.44885

>  <SCORE.INTRA.SOLV.lig_0>
-59.6513

>  <SCORE.INTRA.VDW>
0.249779

>  <SCORE.INTRA.VDW.0>
-0.569808

>  <SCORE.INTRA.norm>
-0.0681429

>  <SCORE.RESTR>
0

>  <SCORE.RESTR.CAVITY>
0

>  <SCORE.RESTR.norm>
0

>  <SCORE.SYSTEM>
0

>  <SCORE.SYSTEM.CONST>
0

>  <SCORE.SYSTEM.DIHEDRAL>
0

>  <SCORE.SYSTEM.SOLV>
0

>  <SCORE.SYSTEM.norm>
0

>  <SCORE.heavy>
12

>  <SCORE.norm>
-0.967059

>  <RMSD>
1.043

$$$$
ligand
 OpenBabel11021811503D
libRbt.so/2013.1/901 2013/11/27
 12 12  0  0  0  0  0  0  0  0999 V2000
   10.2153   12.8635  148.2697 C   0  0  0  0  0  0  0  0  0  0  0  0
   12.9856    8.9689  145.5267 C   0  0  0  0  0  0  0  0  0  0  0  0
   11.5730   13.4229  145.9900 N   0  0  0  0  0  0  0  0  0  0  0  0
   10.4711   12.8992  149.7172 N   0  0  0  0  0  0  0  0  0  0  0  0
    9.8776   13.6437  150.3140 N   0  0  0  0  0  0  0  0  0  0  0  0
    9.2874   14.3919  150.9058 N   0  0  0  0  0  0  0  0  0  0  0  0
   11.6493    9.6225  147.3498 N   0  0  0  0  0  0  0  0  0  0  0  0
   12.2870    9.9523  146.2163 C   0  0  0  0  0  0  0  0  0  0  0  0
   12.3202   11.2244  145.7943 N   0  0  0  0  0  0  0  0  0  0  0  0
   11.7156   12.1982  146.4880 C   0  0  0  0  0  0  0  0  0  0  0  0
   11.0422   11.9192  147.6730 C   0  0  0  0  0  0  0  0  0  0  0  0
   11.0147   10.6047  148.1176 C   0  0  0  0  0  0  0  0  0  0  0  0
  1 11  1  0  0  0  0
  1  4  1  0  0  0  0
  2  8  1  0  0  0  0
  3 10  1  0  0  0  0
  4  5  1  0  0  0  0
  5  6  1  0  0  0  0
  7  8  2  0  0  0  0
  7 12  1  0  0  0  0
  8  9  1  0  0  0  0
  9 10  2  0  0  0  0
 10 11  1  0  0  0  0
 11 12  2  0  0  0  0
M  END
>  <CHROM.1>
-135.58493171,178.68796319,-56.13540152,11.19906513,11.82303761,147.71149805
-2.88638980,-1.11779529,2.68859768

>  <Name>
ligand

>  <RI>
0

>  <Rbt.Current_Directory>
/home/itssahil/PROJECTS/Mol_Feturizer/New_Systems/rnas/4NYA

>  <Rbt.Executable>
rbdock ($Id: //depot/dev/client3/rdock/2013.1/src/exe/rbdock.cxx#4 $)

>  <Rbt.Library>
libRbt.so (2013.1, Build901 2013/11/27)

>  <Rbt.Parameter_File>
/export/apps/rDock/src/rDock_2013.1_src/data/scripts/dock_solv.prm

>  <Rbt.Receptor>
prm/pocket_docking_6.prm

>  <SCORE>
-11.583

>  <SCORE.INTER>
-10.7049

>  <SCORE.INTER.CONST>
1

>  <SCORE.INTER.POLAR>
0

>  <SCORE.INTER.ROT>
3

>  <SCORE.INTER.SOLV>
16.2559

>  <SCORE.INTER.VDW>
-18.1552

>  <SCORE.INTER.norm>
-0.892074

>  <SCORE.INTRA>
-0.878091

>  <SCORE.INTRA.DIHEDRAL>
-0.701145

>  <SCORE.INTRA.DIHEDRAL.0>
2.1382

>  <SCORE.INTRA.POLAR>
0

>  <SCORE.INTRA.POLAR.0>
0

>  <SCORE.INTRA.REPUL>
0

>  <SCORE.INTRA.REPUL.0>
0

>  <SCORE.INTRA.SOLV>
-1.37039

>  <SCORE.INTRA.SOLV.lig_0>
-59.6513

>  <SCORE.INTRA.VDW>
0.157678

>  <SCORE.INTRA.VDW.0>
-0.569808

>  <SCORE.INTRA.norm>
-0.0731743

>  <SCORE.RESTR>
0

>  <SCORE.RESTR.CAVITY>
0

>  <SCORE.RESTR.norm>
0

>  <SCORE.SYSTEM>
0

>  <SCORE.SYSTEM.CONST>
0

>  <SCORE.SYSTEM.DIHEDRAL>
0

>  <SCORE.SYSTEM.SOLV>
0

>  <SCORE.SYSTEM.norm>
0

>  <SCORE.heavy>
12

>  <SCORE.norm>
-0.965248

>  <RMSD>
1.044

$$$$
ligand
 OpenBabel11021811503D
libRbt.so/2013.1/901 2013/11/27
 12 12  0  0  0  0  0  0  0  0999 V2000
   10.1991   12.8543  148.2911 C   0  0  0  0  0  0  0  0  0  0  0  0
   12.8919    8.9015  145.5541 C   0  0  0  0  0  0  0  0  0  0  0  0
   11.6440   13.3997  146.0622 N   0  0  0  0  0  0  0  0  0  0  0  0
   10.3178   12.7683  149.7542 N   0  0  0  0  0  0  0  0  0  0  0  0
    9.8594   13.6068  150.3455 N   0  0  0  0  0  0  0  0  0  0  0  0
    9.4057   14.4484  150.9323 N   0  0  0  0  0  0  0  0  0  0  0  0
   11.5299    9.5754  147.3505 N   0  0  0  0  0  0  0  0  0  0  0  0
   12.2130    9.8996  146.2422 C   0  0  0  0  0  0  0  0  0  0  0  0
   12.3089   11.1767  145.8458 N   0  0  0  0  0  0  0  0  0  0  0  0
   11.7233   12.1615  146.5405 C   0  0  0  0  0  0  0  0  0  0  0  0
   11.0050   11.8884  147.7002 C   0  0  0  0  0  0  0  0  0  0  0  0
   10.9126   10.5683  148.1186 C   0  0  0  0  0  0  0  0  0  0  0  0
  1 11  1  0  0  0  0
  1  4  1  0  0  0  0
  2  8  1  0  0  0  0
  3 10  1  0  0  0  0
  4  5  1  0  0  0  0
  5  6  1  0  0  0  0
  7  8  2  0  0  0  0
  7 12  1  0  0  0  0
  8  9  1  0  0  0  0
  9 10  2  0  0  0  0
 10 11  1  0  0  0  0
 11 12  2  0  0  0  0
M  END
>  <CHROM.1>
-140.90746208,169.58879679,-56.30961436,11.16375900,11.78434357,147.74291188
-2.77047895,-1.11367907,2.80955098

>  <Name>
ligand

>  <RI>
0

>  <Rbt.Current_Directory>
/home/itssahil/PROJECTS/Mol_Feturizer/New_Systems/rnas/4NYA

>  <Rbt.Executable>
rbdock ($Id: //depot/dev/client3/rdock/2013.1/src/exe/rbdock.cxx#4 $)

>  <Rbt.Library>
libRbt.so (2013.1, Build901 2013/11/27)

>  <Rbt.Parameter_File>
/export/apps/rDock/src/rDock_2013.1_src/data/scripts/dock_solv.prm

>  <Rbt.Receptor>
prm/pocket_docking_8.prm

>  <SCORE>
-11.5512

>  <SCORE.INTER>
-10.7039

>  <SCORE.INTER.CONST>
1

>  <SCORE.INTER.POLAR>
0

>  <SCORE.INTER.ROT>
3

>  <SCORE.INTER.SOLV>
15.65

>  <SCORE.INTER.VDW>
-17.9526

>  <SCORE.INTER.norm>
-0.891991

>  <SCORE.INTRA>
-0.847269

>  <SCORE.INTRA.DIHEDRAL>
-0.729734

>  <SCORE.INTRA.DIHEDRAL.0>
2.1382

>  <SCORE.INTRA.POLAR>
0

>  <SCORE.INTRA.POLAR.0>
0

>  <SCORE.INTRA.REPUL>
0

>  <SCORE.INTRA.REPUL.0>
0

>  <SCORE.INTRA.SOLV>
-1.43102

>  <SCORE.INTRA.SOLV.lig_0>
-59.6513

>  <SCORE.INTRA.VDW>
0.233106

>  <SCORE.INTRA.VDW.0>
-0.569808

>  <SCORE.INTRA.norm>
-0.0706057

>  <SCORE.RESTR>
0

>  <SCORE.RESTR.CAVITY>
0

>  <SCORE.RESTR.norm>
0

>  <SCORE.SYSTEM>
0

>  <SCORE.SYSTEM.CONST>
0

>  <SCORE.SYSTEM.DIHEDRAL>
0

>  <SCORE.SYSTEM.SOLV>
0

>  <SCORE.SYSTEM.norm>
0

>  <SCORE.heavy>
12

>  <SCORE.norm>
-0.962597

>  <RMSD>
1.045

$$$$
ligand
 OpenBabel11021811503D
libRbt.so/2013.1/901 2013/11/27
 12 12  0  0  0  0  0  0  0  0999 V2000
   10.2118   12.8498  148.2934 C   0  0  0  0  0  0  0  0  0  0  0  0
   12.9816    8.9753  145.5216 C   0  0  0  0  0  0  0  0  0  0  0  0
   11.6442   13.4430  146.0687 N   0  0  0  0  0  0  0  0  0  0  0  0
   10.4254   12.8392  149.7483 N   0  0  0  0  0  0  0  0  0  0  0  0
    9.8899   13.6299  150.3404 N   0  0  0  0  0  0  0  0  0  0  0  0
    9.3583   14.4172  150.9371 N   0  0  0  0  0  0  0  0  0  0  0  0
   11.6074    9.6064  147.3244 N   0  0  0  0  0  0  0  0  0  0  0  0
   12.2832    9.9537  146.2186 C   0  0  0  0  0  0  0  0  0  0  0  0
   12.3533   11.2358  145.8330 N   0  0  0  0  0  0  0  0  0  0  0  0
   11.7486   12.2026  146.5363 C   0  0  0  0  0  0  0  0  0  0  0  0
   11.0366   11.9053  147.6940 C   0  0  0  0  0  0  0  0  0  0  0  0
   10.9708   10.5801  148.1011 C   0  0  0  0  0  0  0  0  0  0  0  0
  1 11  1  0  0  0  0
  1  4  1  0  0  0  0
  2  8  1  0  0  0  0
  3 10  1  0  0  0  0
  4  5  1  0  0  0  0
  5  6  1  0  0  0  0
  7  8  2  0  0  0  0
  7 12  1  0  0  0  0
  8  9  1  0  0  0  0
  9 10  2  0  0  0  0
 10 11  1  0  0  0  0
 11 12  2  0  0  0  0
M  END
>  <CHROM.1>
-135.69165294,174.17200334,-176.39168639,11.20555681,11.81711383,147.73290620
-2.80872483,-1.11068950,2.77677690

>  <Name>
ligand

>  <RI>
0

>  <Rbt.Current_Directory>
/home/itssahil/PROJECTS/Mol_Feturizer/New_Systems/rnas/4NYA

>  <Rbt.Executable>
rbdock ($Id: //depot/dev/client3/rdock/2013.1/src/exe/rbdock.cxx#4 $)

>  <Rbt.Library>
libRbt.so (2013.1, Build901 2013/11/27)

>  <Rbt.Parameter_File>
/export/apps/rDock/src/rDock_2013.1_src/data/scripts/dock_solv.prm

>  <Rbt.Receptor>
prm/pocket_docking_3.prm

>  <SCORE>
-11.5826

>  <SCORE.INTER>
-10.7093

>  <SCORE.INTER.CONST>
1

>  <SCORE.INTER.POLAR>
0

>  <SCORE.INTER.ROT>
3

>  <SCORE.INTER.SOLV>
15.8799

>  <SCORE.INTER.VDW>
-18.0328

>  <SCORE.INTER.norm>
-0.892444

>  <SCORE.INTRA>
-0.873292

>  <SCORE.INTRA.DIHEDRAL>
-0.677864

>  <SCORE.INTRA.DIHEDRAL.0>
2.1382

>  <SCORE.INTRA.POLAR>
0

>  <SCORE.INTRA.POLAR.0>
0

>  <SCORE.INTRA.REPUL>
0

>  <SCORE.INTRA.REPUL.0>
0

>  <SCORE.INTRA.SOLV>
-1.38289

>  <SCORE.INTRA.SOLV.lig_0>
-59.6513

>  <SCORE.INTRA.VDW>
0.157083

>  <SCORE.INTRA.VDW.0>
-0.569808

>  <SCORE.INTRA.norm>
-0.0727744

>  <SCORE.RESTR>
0

>  <SCORE.RESTR.CAVITY>
0

>  <SCORE.RESTR.norm>
0

>  <SCORE.SYSTEM>
0

>  <SCORE.SYSTEM.CONST>
0

>  <SCORE.SYSTEM.DIHEDRAL>
0

>  <SCORE.SYSTEM.SOLV>
0

>  <SCORE.SYSTEM.norm>
0

>  <SCORE.heavy>
12

>  <SCORE.norm>
-0.965218

>  <RMSD>
1.046

$$$$
ligand
 OpenBabel11021811503D
libRbt.so/2013.1/901 2013/11/27
 12 12  0  0  0  0  0  0  0  0999 V2000
   10.2157   12.8583  148.3038 C   0  0  0  0  0  0  0  0  0  0  0  0
   12.9902    8.9797  145.5424 C   0  0  0  0  0  0  0  0  0  0  0  0
   11.6417   13.4460  146.0734 N   0  0  0  0  0  0  0  0  0  0  0  0
   10.4086   12.8316  149.7613 N   0  0  0  0  0  0  0  0  0  0  0  0
    9.8843   13.6308  150.3521 N   0  0  0  0  0  0  0  0  0  0  0  0
    9.3639   14.4334  150.9380 N   0  0  0  0  0  0  0  0  0  0  0  0
   11.6181    9.6147  147.3454 N   0  0  0  0  0  0  0  0  0  0  0  0
   12.2906    9.9591  146.2367 C   0  0  0  0  0  0  0  0  0  0  0  0
   12.3563   11.2398  145.8456 N   0  0  0  0  0  0  0  0  0  0  0  0
   11.7505   12.2079  146.5461 C   0  0  0  0  0  0  0  0  0  0  0  0
   11.0418   11.9136  147.7066 C   0  0  0  0  0  0  0  0  0  0  0  0
   10.9805   10.5899  148.1194 C   0  0  0  0  0  0  0  0  0  0  0  0
  1 11  1  0  0  0  0
  1  4  1  0  0  0  0
  2  8  1  0  0  0  0
  3 10  1  0  0  0  0
  4  5  1  0  0  0  0
  5  6  1  0  0  0  0
  7  8  2  0  0  0  0
  7 12  1  0  0  0  0
  8  9  1  0  0  0  0
  9 10  2  0  0  0  0
 10 11  1  0  0  0  0
 11 12  2  0  0  0  0
M  END
>  <CHROM.1>
-137.06500677,173.19431717,-55.10184593,11.20801277,11.82258777,147.74567109
-2.81742615,-1.11006741,2.76632624

>  <Name>
ligand

>  <RI>
0

>  <Rbt.Current_Directory>
/home/itssahil/PROJECTS/Mol_Feturizer/New_Systems/rnas/4NYA

>  <Rbt.Executable>
rbdock ($Id: //depot/dev/client3/rdock/2013.1/src/exe/rbdock.cxx#4 $)

>  <Rbt.Library>
libRbt.so (2013.1, Build901 2013/11/27)

>  <Rbt.Parameter_File>
/export/apps/rDock/src/rDock_2013.1_src/data/scripts/dock_solv.prm

>  <Rbt.Receptor>
prm/pocket_docking_3.prm

>  <SCORE>
-11.5763

>  <SCORE.INTER>
-10.7206

>  <SCORE.INTER.CONST>
1

>  <SCORE.INTER.POLAR>
0

>  <SCORE.INTER.ROT>
3

>  <SCORE.INTER.SOLV>
15.8475

>  <SCORE.INTER.VDW>
-18.0296

>  <SCORE.INTER.norm>
-0.893384

>  <SCORE.INTRA>
-0.855742

>  <SCORE.INTRA.DIHEDRAL>
-0.696379

>  <SCORE.INTRA.DIHEDRAL.0>
2.1382

>  <SCORE.INTRA.POLAR>
0

>  <SCORE.INTRA.POLAR.0>
0

>  <SCORE.INTRA.REPUL>
0

>  <SCORE.INTRA.REPUL.0>
0

>  <SCORE.INTRA.SOLV>
-1.39307

>  <SCORE.INTRA.SOLV.lig_0>
-59.6513

>  <SCORE.INTRA.VDW>
0.188981

>  <SCORE.INTRA.VDW.0>
-0.569808

>  <SCORE.INTRA.norm>
-0.0713118

>  <SCORE.RESTR>
0

>  <SCORE.RESTR.CAVITY>
0

>  <SCORE.RESTR.norm>
0

>  <SCORE.SYSTEM>
0

>  <SCORE.SYSTEM.CONST>
0

>  <SCORE.SYSTEM.DIHEDRAL>
0

>  <SCORE.SYSTEM.SOLV>
0

>  <SCORE.SYSTEM.norm>
0

>  <SCORE.heavy>
12

>  <SCORE.norm>
-0.964696

>  <RMSD>
1.046

$$$$
ligand
 OpenBabel11021811503D
libRbt.so/2013.1/901 2013/11/27
 12 12  0  0  0  0  0  0  0  0999 V2000
   10.2509   12.8512  148.2614 C   0  0  0  0  0  0  0  0  0  0  0  0
   12.9514    8.9221  145.4980 C   0  0  0  0  0  0  0  0  0  0  0  0
   11.7426   13.4232  146.0703 N   0  0  0  0  0  0  0  0  0  0  0  0
   10.4696   12.8487  149.7155 N   0  0  0  0  0  0  0  0  0  0  0  0
    9.8737   13.5896  150.3144 N   0  0  0  0  0  0  0  0  0  0  0  0
    9.2731   14.3258  150.9108 N   0  0  0  0  0  0  0  0  0  0  0  0
   11.5637    9.5765  147.2820 N   0  0  0  0  0  0  0  0  0  0  0  0
   12.2706    9.9143  146.1928 C   0  0  0  0  0  0  0  0  0  0  0  0
   12.3875   11.1976  145.8231 N   0  0  0  0  0  0  0  0  0  0  0  0
   11.7998   12.1753  146.5259 C   0  0  0  0  0  0  0  0  0  0  0  0
   11.0573   11.8880  147.6668 C   0  0  0  0  0  0  0  0  0  0  0  0
   10.9429   10.5612  148.0577 C   0  0  0  0  0  0  0  0  0  0  0  0
  1 11  1  0  0  0  0
  1  4  1  0  0  0  0
  2  8  1  0  0  0  0
  3 10  1  0  0  0  0
  4  5  1  0  0  0  0
  5  6  1  0  0  0  0
  7  8  2  0  0  0  0
  7 12  1  0  0  0  0
  8  9  1  0  0  0  0
  9 10  2  0  0  0  0
 10 11  1  0  0  0  0
 11 12  2  0  0  0  0
M  END
>  <CHROM.1>
-133.83660640,179.86577949,68.12770345,11.21123189,11.78635310,147.70814444
-2.74047130,-1.09412742,2.85529540

>  <Name>
ligand

>  <RI>
0

>  <Rbt.Current_Directory>
/home/itssahil/PROJECTS/Mol_Feturizer/New_Systems/rnas/4NYA

>  <Rbt.Executable>
rbdock ($Id: //depot/dev/client3/rdock/2013.1/src/exe/rbdock.cxx#4 $)

>  <Rbt.Library>
libRbt.so (2013.1, Build901 2013/11/27)

>  <Rbt.Parameter_File>
/export/apps/rDock/src/rDock_2013.1_src/data/scripts/dock_solv.prm

>  <Rbt.Receptor>
prm/pocket_docking_7.prm

>  <SCORE>
-11.5292

>  <SCORE.INTER>
-10.6706

>  <SCORE.INTER.CONST>
1

>  <SCORE.INTER.POLAR>
0

>  <SCORE.INTER.ROT>
3

>  <SCORE.INTER.SOLV>
16.0419

>  <SCORE.INTER.VDW>
-18.061

>  <SCORE.INTER.norm>
-0.889216

>  <SCORE.INTRA>
-0.858575

>  <SCORE.INTRA.DIHEDRAL>
-0.646752

>  <SCORE.INTRA.DIHEDRAL.0>
2.1382

>  <SCORE.INTRA.POLAR>
0

>  <SCORE.INTRA.POLAR.0>
0

>  <SCORE.INTRA.REPUL>
0

>  <SCORE.INTRA.REPUL.0>
0

>  <SCORE.INTRA.SOLV>
-1.35045

>  <SCORE.INTRA.SOLV.lig_0>
-59.6513

>  <SCORE.INTRA.VDW>
0.140027

>  <SCORE.INTRA.VDW.0>
-0.569808

>  <SCORE.INTRA.norm>
-0.0715479

>  <SCORE.RESTR>
0

>  <SCORE.RESTR.CAVITY>
0

>  <SCORE.RESTR.norm>
0

>  <SCORE.SYSTEM>
0

>  <SCORE.SYSTEM.CONST>
0

>  <SCORE.SYSTEM.DIHEDRAL>
0

>  <SCORE.SYSTEM.SOLV>
0

>  <SCORE.SYSTEM.norm>
0

>  <SCORE.heavy>
12

>  <SCORE.norm>
-0.960764

>  <RMSD>
1.047

$$$$
ligand
 OpenBabel11021811503D
libRbt.so/2013.1/901 2013/11/27
 12 12  0  0  0  0  0  0  0  0999 V2000
   10.1789   12.7476  148.2442 C   0  0  0  0  0  0  0  0  0  0  0  0
   12.9812    8.8869  145.4858 C   0  0  0  0  0  0  0  0  0  0  0  0
   11.7650   13.3754  146.1363 N   0  0  0  0  0  0  0  0  0  0  0  0
   10.2385   12.6166  149.7076 N   0  0  0  0  0  0  0  0  0  0  0  0
    9.7581   13.4380  150.3054 N   0  0  0  0  0  0  0  0  0  0  0  0
    9.2805   14.2548  150.9079 N   0  0  0  0  0  0  0  0  0  0  0  0
   11.5207    9.4962  147.2271 N   0  0  0  0  0  0  0  0  0  0  0  0
   12.2748    9.8619  146.1794 C   0  0  0  0  0  0  0  0  0  0  0  0
   12.4120   11.1548  145.8523 N   0  0  0  0  0  0  0  0  0  0  0  0
   11.7982   12.1146  146.5575 C   0  0  0  0  0  0  0  0  0  0  0  0
   11.0065   11.7980  147.6568 C   0  0  0  0  0  0  0  0  0  0  0  0
   10.8708   10.4611  148.0039 C   0  0  0  0  0  0  0  0  0  0  0  0
  1 11  1  0  0  0  0
  1  4  1  0  0  0  0
  2  8  1  0  0  0  0
  3 10  1  0  0  0  0
  4  5  1  0  0  0  0
  5  6  1  0  0  0  0
  7  8  2  0  0  0  0
  7 12  1  0  0  0  0
  8  9  1  0  0  0  0
  9 10  2  0  0  0  0
 10 11  1  0  0  0  0
 11 12  2  0  0  0  0
M  END
>  <CHROM.1>
-139.17236783,169.58078908,-178.69693093,11.16962973,11.69708576,147.70387659
-2.69765737,-1.06413229,2.91795646

>  <Name>
ligand

>  <RI>
0

>  <Rbt.Current_Directory>
/home/itssahil/PROJECTS/Mol_Feturizer/New_Systems/rnas/4NYA

>  <Rbt.Executable>
rbdock ($Id: //depot/dev/client3/rdock/2013.1/src/exe/rbdock.cxx#4 $)

>  <Rbt.Library>
libRbt.so (2013.1, Build901 2013/11/27)

>  <Rbt.Parameter_File>
/export/apps/rDock/src/rDock_2013.1_src/data/scripts/dock_solv.prm

>  <Rbt.Receptor>
prm/pocket_docking_2.prm

>  <SCORE>
-11.586

>  <SCORE.INTER>
-10.7373

>  <SCORE.INTER.CONST>
1

>  <SCORE.INTER.POLAR>
0

>  <SCORE.INTER.ROT>
3

>  <SCORE.INTER.SOLV>
15.5374

>  <SCORE.INTER.VDW>
-17.9373

>  <SCORE.INTER.norm>
-0.894774

>  <SCORE.INTRA>
-0.848741

>  <SCORE.INTRA.DIHEDRAL>
-0.698452

>  <SCORE.INTRA.DIHEDRAL.0>
2.1382

>  <SCORE.INTRA.POLAR>
0

>  <SCORE.INTRA.POLAR.0>
0

>  <SCORE.INTRA.REPUL>
0

>  <SCORE.INTRA.REPUL.0>
0

>  <SCORE.INTRA.SOLV>
-1.42021

>  <SCORE.INTRA.SOLV.lig_0>
-59.6513

>  <SCORE.INTRA.VDW>
0.210587

>  <SCORE.INTRA.VDW.0>
-0.569808

>  <SCORE.INTRA.norm>
-0.0707285

>  <SCORE.RESTR>
0

>  <SCORE.RESTR.CAVITY>
0

>  <SCORE.RESTR.norm>
0

>  <SCORE.SYSTEM>
0

>  <SCORE.SYSTEM.CONST>
0

>  <SCORE.SYSTEM.DIHEDRAL>
0

>  <SCORE.SYSTEM.SOLV>
0

>  <SCORE.SYSTEM.norm>
0

>  <SCORE.heavy>
12

>  <SCORE.norm>
-0.965503

>  <RMSD>
1.048

$$$$
ligand
 OpenBabel11021811503D
libRbt.so/2013.1/901 2013/11/27
 12 12  0  0  0  0  0  0  0  0999 V2000
   10.1826   12.8156  148.2667 C   0  0  0  0  0  0  0  0  0  0  0  0
   12.9174    8.9008  145.5167 C   0  0  0  0  0  0  0  0  0  0  0  0
   11.6829   13.3956  146.0837 N   0  0  0  0  0  0  0  0  0  0  0  0
   10.3039   12.7327  149.7298 N   0  0  0  0  0  0  0  0  0  0  0  0
    9.8337   13.5648  150.3208 N   0  0  0  0  0  0  0  0  0  0  0  0
    9.3682   14.4001  150.9074 N   0  0  0  0  0  0  0  0  0  0  0  0
   11.5169    9.5477  147.2935 N   0  0  0  0  0  0  0  0  0  0  0  0
   12.2279    9.8894  146.2082 C   0  0  0  0  0  0  0  0  0  0  0  0
   12.3403   11.1734  145.8394 N   0  0  0  0  0  0  0  0  0  0  0  0
   11.7440   12.1479  146.5393 C   0  0  0  0  0  0  0  0  0  0  0  0
   10.9969   11.8565  147.6762 C   0  0  0  0  0  0  0  0  0  0  0  0
   10.8871   10.5291  148.0662 C   0  0  0  0  0  0  0  0  0  0  0  0
  1 11  1  0  0  0  0
  1  4  1  0  0  0  0
  2  8  1  0  0  0  0
  3 10  1  0  0  0  0
  4  5  1  0  0  0  0
  5  6  1  0  0  0  0
  7  8  2  0  0  0  0
  7 12  1  0  0  0  0
  8  9  1  0  0  0  0
  9 10  2  0  0  0  0
 10 11  1  0  0  0  0
 11 12  2  0  0  0  0
M  END
>  <CHROM.1>
-138.84451508,169.90177888,-58.25046016,11.16314255,11.75984560,147.71891575
-2.73506525,-1.09795921,2.85493886

>  <Name>
ligand

>  <RI>
0

>  <Rbt.Current_Directory>
/home/itssahil/PROJECTS/Mol_Feturizer/New_Systems/rnas/4NYA

>  <Rbt.Executable>
rbdock ($Id: //depot/dev/client3/rdock/2013.1/src/exe/rbdock.cxx#4 $)

>  <Rbt.Library>
libRbt.so (2013.1, Build901 2013/11/27)

>  <Rbt.Parameter_File>
/export/apps/rDock/src/rDock_2013.1_src/data/scripts/dock_solv.prm

>  <Rbt.Receptor>
prm/pocket_docking_2.prm

>  <SCORE>
-11.5733

>  <SCORE.INTER>
-10.7271

>  <SCORE.INTER.CONST>
1

>  <SCORE.INTER.POLAR>
0

>  <SCORE.INTER.ROT>
3

>  <SCORE.INTER.SOLV>
15.6159

>  <SCORE.INTER.VDW>
-17.9567

>  <SCORE.INTER.norm>
-0.893924

>  <SCORE.INTRA>
-0.846241

>  <SCORE.INTRA.DIHEDRAL>
-0.696424

>  <SCORE.INTRA.DIHEDRAL.0>
2.1382

>  <SCORE.INTRA.POLAR>
0

>  <SCORE.INTRA.POLAR.0>
0

>  <SCORE.INTRA.REPUL>
0

>  <SCORE.INTRA.REPUL.0>
0

>  <SCORE.INTRA.SOLV>
-1.41268

>  <SCORE.INTRA.SOLV.lig_0>
-59.6513

>  <SCORE.INTRA.VDW>
0.208313

>  <SCORE.INTRA.VDW.0>
-0.569808

>  <SCORE.INTRA.norm>
-0.0705201

>  <SCORE.RESTR>
0

>  <SCORE.RESTR.CAVITY>
0

>  <SCORE.RESTR.norm>
0

>  <SCORE.SYSTEM>
0

>  <SCORE.SYSTEM.CONST>
0

>  <SCORE.SYSTEM.DIHEDRAL>
0

>  <SCORE.SYSTEM.SOLV>
0

>  <SCORE.SYSTEM.norm>
0

>  <SCORE.heavy>
12

>  <SCORE.norm>
-0.964444

>  <RMSD>
1.048

$$$$
ligand
 OpenBabel11021811503D
libRbt.so/2013.1/901 2013/11/27
 12 12  0  0  0  0  0  0  0  0999 V2000
   10.1752   12.7539  148.2375 C   0  0  0  0  0  0  0  0  0  0  0  0
   12.9766    8.8882  145.4852 C   0  0  0  0  0  0  0  0  0  0  0  0
   11.7660   13.3787  146.1323 N   0  0  0  0  0  0  0  0  0  0  0  0
   10.1709   12.5728  149.6968 N   0  0  0  0  0  0  0  0  0  0  0  0
    9.7497   13.4175  150.3065 N   0  0  0  0  0  0  0  0  0  0  0  0
    9.3232   14.2600  150.9121 N   0  0  0  0  0  0  0  0  0  0  0  0
   11.5139    9.5002  147.2238 N   0  0  0  0  0  0  0  0  0  0  0  0
   12.2704    9.8645  146.1773 C   0  0  0  0  0  0  0  0  0  0  0  0
   12.4101   11.1570  145.8501 N   0  0  0  0  0  0  0  0  0  0  0  0
   11.7965   12.1179  146.5539 C   0  0  0  0  0  0  0  0  0  0  0  0
   11.0024   11.8029  147.6519 C   0  0  0  0  0  0  0  0  0  0  0  0
   10.8641   10.4663  147.9991 C   0  0  0  0  0  0  0  0  0  0  0  0
  1 11  1  0  0  0  0
  1  4  1  0  0  0  0
  2  8  1  0  0  0  0
  3 10  1  0  0  0  0
  4  5  1  0  0  0  0
  5  6  1  0  0  0  0
  7  8  2  0  0  0  0
  7 12  1  0  0  0  0
  8  9  1  0  0  0  0
  9 10  2  0  0  0  0
 10 11  1  0  0  0  0
 11 12  2  0  0  0  0
M  END
>  <CHROM.1>
-142.45547396,165.57290473,60.44842161,11.16404309,11.69462863,147.70080576
-2.69432425,-1.06306794,2.92435554

>  <Name>
ligand

>  <RI>
0

>  <Rbt.Current_Directory>
/home/itssahil/PROJECTS/Mol_Feturizer/New_Systems/rnas/4NYA

>  <Rbt.Executable>
rbdock ($Id: //depot/dev/client3/rdock/2013.1/src/exe/rbdock.cxx#4 $)

>  <Rbt.Library>
libRbt.so (2013.1, Build901 2013/11/27)

>  <Rbt.Parameter_File>
/export/apps/rDock/src/rDock_2013.1_src/data/scripts/dock_solv.prm

>  <Rbt.Receptor>
prm/pocket_docking_2.prm

>  <SCORE>
-11.603

>  <SCORE.INTER>
-10.7896

>  <SCORE.INTER.CONST>
1

>  <SCORE.INTER.POLAR>
0

>  <SCORE.INTER.ROT>
3

>  <SCORE.INTER.SOLV>
15.4141

>  <SCORE.INTER.VDW>
-17.9311

>  <SCORE.INTER.norm>
-0.899135

>  <SCORE.INTRA>
-0.81339

>  <SCORE.INTRA.DIHEDRAL>
-0.685348

>  <SCORE.INTRA.DIHEDRAL.0>
2.1382

>  <SCORE.INTRA.POLAR>
0

>  <SCORE.INTRA.POLAR.0>
0

>  <SCORE.INTRA.REPUL>
0

>  <SCORE.INTRA.REPUL.0>
0

>  <SCORE.INTRA.SOLV>
-1.44491

>  <SCORE.INTRA.SOLV.lig_0>
-59.6513

>  <SCORE.INTRA.VDW>
0.251739

>  <SCORE.INTRA.VDW.0>
-0.569808

>  <SCORE.INTRA.norm>
-0.0677825

>  <SCORE.RESTR>
0

>  <SCORE.RESTR.CAVITY>
0

>  <SCORE.RESTR.norm>
0

>  <SCORE.SYSTEM>
0

>  <SCORE.SYSTEM.CONST>
0

>  <SCORE.SYSTEM.DIHEDRAL>
0

>  <SCORE.SYSTEM.SOLV>
0

>  <SCORE.SYSTEM.norm>
0

>  <SCORE.heavy>
12

>  <SCORE.norm>
-0.966918

>  <RMSD>
1.048

$$$$
ligand
 OpenBabel11021811503D
libRbt.so/2013.1/901 2013/11/27
 12 12  0  0  0  0  0  0  0  0999 V2000
   10.1834   12.7456  148.2334 C   0  0  0  0  0  0  0  0  0  0  0  0
   12.9843    8.8798  145.4808 C   0  0  0  0  0  0  0  0  0  0  0  0
   11.7616   13.3684  146.1182 N   0  0  0  0  0  0  0  0  0  0  0  0
   10.1882   12.5706  149.6934 N   0  0  0  0  0  0  0  0  0  0  0  0
    9.7309   13.3986  150.3001 N   0  0  0  0  0  0  0  0  0  0  0  0
    9.2788   14.2296  150.9030 N   0  0  0  0  0  0  0  0  0  0  0  0
   11.5281    9.4929  147.2244 N   0  0  0  0  0  0  0  0  0  0  0  0
   12.2783    9.8561  146.1730 C   0  0  0  0  0  0  0  0  0  0  0  0
   12.4119   11.1480  145.8406 N   0  0  0  0  0  0  0  0  0  0  0  0
   11.7985   12.1092  146.5440 C   0  0  0  0  0  0  0  0  0  0  0  0
   11.0109   11.7954  147.6471 C   0  0  0  0  0  0  0  0  0  0  0  0
   10.8789   10.4595  147.9996 C   0  0  0  0  0  0  0  0  0  0  0  0
  1 11  1  0  0  0  0
  1  4  1  0  0  0  0
  2  8  1  0  0  0  0
  3 10  1  0  0  0  0
  4  5  1  0  0  0  0
  5  6  1  0  0  0  0
  7  8  2  0  0  0  0
  7 12  1  0  0  0  0
  8  9  1  0  0  0  0
  9 10  2  0  0  0  0
 10 11  1  0  0  0  0
 11 12  2  0  0  0  0
M  END
>  <CHROM.1>
-142.38475692,167.87677325,-59.34410669,11.16498899,11.68399869,147.69501350
-2.70936725,-1.06187513,2.91029085

>  <Name>
ligand

>  <RI>
0

>  <Rbt.Current_Directory>
/home/itssahil/PROJECTS/Mol_Feturizer/New_Systems/rnas/4NYA

>  <Rbt.Executable>
rbdock ($Id: //depot/dev/client3/rdock/2013.1/src/exe/rbdock.cxx#4 $)

>  <Rbt.Library>
libRbt.so (2013.1, Build901 2013/11/27)

>  <Rbt.Parameter_File>
/export/apps/rDock/src/rDock_2013.1_src/data/scripts/dock_solv.prm

>  <Rbt.Receptor>
prm/pocket_docking_6.prm

>  <SCORE>
-11.6062

>  <SCORE.INTER>
-10.7704

>  <SCORE.INTER.CONST>
1

>  <SCORE.INTER.POLAR>
0

>  <SCORE.INTER.ROT>
3

>  <SCORE.INTER.SOLV>
15.5282

>  <SCORE.INTER.VDW>
-17.9563

>  <SCORE.INTER.norm>
-0.897537

>  <SCORE.INTRA>
-0.835724

>  <SCORE.INTRA.DIHEDRAL>
-0.730379

>  <SCORE.INTRA.DIHEDRAL.0>
2.1382

>  <SCORE.INTRA.POLAR>
0

>  <SCORE.INTRA.POLAR.0>
0

>  <SCORE.INTRA.REPUL>
0

>  <SCORE.INTRA.REPUL.0>
0

>  <SCORE.INTRA.SOLV>
-1.44411

>  <SCORE.INTRA.SOLV.lig_0>
-59.6513

>  <SCORE.INTRA.VDW>
0.25152

>  <SCORE.INTRA.VDW.0>
-0.569808

>  <SCORE.INTRA.norm>
-0.0696437

>  <SCORE.RESTR>
0

>  <SCORE.RESTR.CAVITY>
0

>  <SCORE.RESTR.norm>
0

>  <SCORE.SYSTEM>
0

>  <SCORE.SYSTEM.CONST>
0

>  <SCORE.SYSTEM.DIHEDRAL>
0

>  <SCORE.SYSTEM.SOLV>
0

>  <SCORE.SYSTEM.norm>
0

>  <SCORE.heavy>
12

>  <SCORE.norm>
-0.96718

>  <RMSD>
1.048

$$$$
ligand
 OpenBabel11021811503D
libRbt.so/2013.1/901 2013/11/27
 12 12  0  0  0  0  0  0  0  0999 V2000
   10.1761   12.7476  148.2460 C   0  0  0  0  0  0  0  0  0  0  0  0
   12.9842    8.8921  145.4862 C   0  0  0  0  0  0  0  0  0  0  0  0
   11.7655   13.3791  146.1417 N   0  0  0  0  0  0  0  0  0  0  0  0
   10.1789   12.5691  149.7056 N   0  0  0  0  0  0  0  0  0  0  0  0
    9.7696   13.4189  150.3164 N   0  0  0  0  0  0  0  0  0  0  0  0
    9.3624   14.2638  150.9318 N   0  0  0  0  0  0  0  0  0  0  0  0
   11.5206    9.4982  147.2261 N   0  0  0  0  0  0  0  0  0  0  0  0
   12.2763    9.8658  146.1802 C   0  0  0  0  0  0  0  0  0  0  0  0
   12.4136   11.1592  145.8554 N   0  0  0  0  0  0  0  0  0  0  0  0
   11.7983   12.1177  146.5610 C   0  0  0  0  0  0  0  0  0  0  0  0
   11.0050   11.7992  147.6586 C   0  0  0  0  0  0  0  0  0  0  0  0
   10.8691   10.4617  148.0033 C   0  0  0  0  0  0  0  0  0  0  0  0
  1 11  1  0  0  0  0
  1  4  1  0  0  0  0
  2  8  1  0  0  0  0
  3 10  1  0  0  0  0
  4  5  1  0  0  0  0
  5  6  1  0  0  0  0
  7  8  2  0  0  0  0
  7 12  1  0  0  0  0
  8  9  1  0  0  0  0
  9 10  2  0  0  0  0
 10 11  1  0  0  0  0
 11 12  2  0  0  0  0
M  END
>  <CHROM.1>
-142.10633100,164.75707085,-179.37127455,11.17265187,11.69406643,147.70800814
-2.69431059,-1.06664630,2.92453442

>  <Name>
ligand

>  <RI>
0

>  <Rbt.Current_Directory>
/home/itssahil/PROJECTS/Mol_Feturizer/New_Systems/rnas/4NYA

>  <Rbt.Executable>
rbdock ($Id: //depot/dev/client3/rdock/2013.1/src/exe/rbdock.cxx#4 $)

>  <Rbt.Library>
libRbt.so (2013.1, Build901 2013/11/27)

>  <Rbt.Parameter_File>
/export/apps/rDock/src/rDock_2013.1_src/data/scripts/dock_solv.prm

>  <Rbt.Receptor>
prm/pocket_docking_2.prm

>  <SCORE>
-11.6091

>  <SCORE.INTER>
-10.8008

>  <SCORE.INTER.CONST>
1

>  <SCORE.INTER.POLAR>
0

>  <SCORE.INTER.ROT>
3

>  <SCORE.INTER.SOLV>
15.3665

>  <SCORE.INTER.VDW>
-17.9227

>  <SCORE.INTER.norm>
-0.900065

>  <SCORE.INTRA>
-0.808315

>  <SCORE.INTRA.DIHEDRAL>
-0.661191

>  <SCORE.INTRA.DIHEDRAL.0>
2.1382

>  <SCORE.INTRA.POLAR>
0

>  <SCORE.INTRA.POLAR.0>
0

>  <SCORE.INTRA.REPUL>
0

>  <SCORE.INTRA.REPUL.0>
0

>  <SCORE.INTRA.SOLV>
-1.44626

>  <SCORE.INTRA.SOLV.lig_0>
-59.6513

>  <SCORE.INTRA.VDW>
0.245408

>  <SCORE.INTRA.VDW.0>
-0.569808

>  <SCORE.INTRA.norm>
-0.0673596

>  <SCORE.RESTR>
0

>  <SCORE.RESTR.CAVITY>
0

>  <SCORE.RESTR.norm>
0

>  <SCORE.SYSTEM>
0

>  <SCORE.SYSTEM.CONST>
0

>  <SCORE.SYSTEM.DIHEDRAL>
0

>  <SCORE.SYSTEM.SOLV>
0

>  <SCORE.SYSTEM.norm>
0

>  <SCORE.heavy>
12

>  <SCORE.norm>
-0.967424

>  <RMSD>
1.050

$$$$
ligand
 OpenBabel11021811503D
libRbt.so/2013.1/901 2013/11/27
 12 12  0  0  0  0  0  0  0  0999 V2000
   10.1811   12.7630  148.1496 C   0  0  0  0  0  0  0  0  0  0  0  0
   13.0311    8.8986  145.4457 C   0  0  0  0  0  0  0  0  0  0  0  0
   11.7853   13.3849  146.0537 N   0  0  0  0  0  0  0  0  0  0  0  0
   10.1633   12.5891  149.6096 N   0  0  0  0  0  0  0  0  0  0  0  0
    9.6191   13.3736  150.2023 N   0  0  0  0  0  0  0  0  0  0  0  0
    9.0701   14.1549  150.7910 N   0  0  0  0  0  0  0  0  0  0  0  0
   11.5498    9.5119  147.1681 N   0  0  0  0  0  0  0  0  0  0  0  0
   12.3127    9.8745  146.1256 C   0  0  0  0  0  0  0  0  0  0  0  0
   12.4465   11.1659  145.7913 N   0  0  0  0  0  0  0  0  0  0  0  0
   11.8207   12.1271  146.4837 C   0  0  0  0  0  0  0  0  0  0  0  0
   11.0195   11.8139  147.5771 C   0  0  0  0  0  0  0  0  0  0  0  0
   10.8871   10.4786  147.9317 C   0  0  0  0  0  0  0  0  0  0  0  0
  1 11  1  0  0  0  0
  1  4  1  0  0  0  0
  2  8  1  0  0  0  0
  3 10  1  0  0  0  0
  4  5  1  0  0  0  0
  5  6  1  0  0  0  0
  7  8  2  0  0  0  0
  7 12  1  0  0  0  0
  8  9  1  0  0  0  0
  9 10  2  0  0  0  0
 10 11  1  0  0  0  0
 11 12  2  0  0  0  0
M  END
>  <CHROM.1>
-142.59260331,172.86350603,64.11196121,11.15154053,11.69035148,147.62583268
-2.72570011,-1.03380674,2.90168084

>  <Name>
ligand

>  <RI>
0

>  <Rbt.Current_Directory>
/home/itssahil/PROJECTS/Mol_Feturizer/New_Systems/rnas/4NYA

>  <Rbt.Executable>
rbdock ($Id: //depot/dev/client3/rdock/2013.1/src/exe/rbdock.cxx#4 $)

>  <Rbt.Library>
libRbt.so (2013.1, Build901 2013/11/27)

>  <Rbt.Parameter_File>
/export/apps/rDock/src/rDock_2013.1_src/data/scripts/dock_solv.prm

>  <Rbt.Receptor>
prm/pocket_docking_3.prm

>  <SCORE>
-11.5406

>  <SCORE.INTER>
-10.6871

>  <SCORE.INTER.CONST>
1

>  <SCORE.INTER.POLAR>
0

>  <SCORE.INTER.ROT>
3

>  <SCORE.INTER.SOLV>
15.9021

>  <SCORE.INTER.VDW>
-18.0254

>  <SCORE.INTER.norm>
-0.890592

>  <SCORE.INTRA>
-0.853512

>  <SCORE.INTRA.DIHEDRAL>
-0.80496

>  <SCORE.INTRA.DIHEDRAL.0>
2.1382

>  <SCORE.INTRA.POLAR>
0

>  <SCORE.INTRA.POLAR.0>
0

>  <SCORE.INTRA.REPUL>
0

>  <SCORE.INTRA.REPUL.0>
0

>  <SCORE.INTRA.SOLV>
-1.44319

>  <SCORE.INTRA.SOLV.lig_0>
-59.6513

>  <SCORE.INTRA.VDW>
0.270562

>  <SCORE.INTRA.VDW.0>
-0.569808

>  <SCORE.INTRA.norm>
-0.071126

>  <SCORE.RESTR>
0

>  <SCORE.RESTR.CAVITY>
0

>  <SCORE.RESTR.norm>
0

>  <SCORE.SYSTEM>
0

>  <SCORE.SYSTEM.CONST>
0

>  <SCORE.SYSTEM.DIHEDRAL>
0

>  <SCORE.SYSTEM.SOLV>
0

>  <SCORE.SYSTEM.norm>
0

>  <SCORE.heavy>
12

>  <SCORE.norm>
-0.961718

>  <RMSD>
1.050

$$$$
ligand
 OpenBabel11021811503D
libRbt.so/2013.1/901 2013/11/27
 12 12  0  0  0  0  0  0  0  0999 V2000
   10.2042   12.7790  148.3161 C   0  0  0  0  0  0  0  0  0  0  0  0
   12.9311    8.8867  145.5268 C   0  0  0  0  0  0  0  0  0  0  0  0
   11.5750   13.3519  146.0478 N   0  0  0  0  0  0  0  0  0  0  0  0
   10.3857   12.7242  149.7743 N   0  0  0  0  0  0  0  0  0  0  0  0
    9.8937   13.5382  150.3727 N   0  0  0  0  0  0  0  0  0  0  0  0
    9.4061   14.3555  150.9666 N   0  0  0  0  0  0  0  0  0  0  0  0
   11.5986    9.5326  147.3554 N   0  0  0  0  0  0  0  0  0  0  0  0
   12.2435    9.8696  146.2281 C   0  0  0  0  0  0  0  0  0  0  0  0
   12.2942   11.1467  145.8238 N   0  0  0  0  0  0  0  0  0  0  0  0
   11.7004   12.1188  146.5292 C   0  0  0  0  0  0  0  0  0  0  0  0
   11.0203   11.8323  147.7086 C   0  0  0  0  0  0  0  0  0  0  0  0
   10.9747   10.5123  148.1350 C   0  0  0  0  0  0  0  0  0  0  0  0
  1 11  1  0  0  0  0
  1  4  1  0  0  0  0
  2  8  1  0  0  0  0
  3 10  1  0  0  0  0
  4  5  1  0  0  0  0
  5  6  1  0  0  0  0
  7  8  2  0  0  0  0
  7 12  1  0  0  0  0
  8  9  1  0  0  0  0
  9 10  2  0  0  0  0
 10 11  1  0  0  0  0
 11 12  2  0  0  0  0
M  END
>  <CHROM.1>
-139.64659544,171.47741387,-59.15528590,11.18182950,11.73428887,147.74686324
-2.85128542,-1.12697802,2.73142931

>  <Name>
ligand

>  <RI>
0

>  <Rbt.Current_Directory>
/home/itssahil/PROJECTS/Mol_Feturizer/New_Systems/rnas/4NYA

>  <Rbt.Executable>
rbdock ($Id: //depot/dev/client3/rdock/2013.1/src/exe/rbdock.cxx#4 $)

>  <Rbt.Library>
libRbt.so (2013.1, Build901 2013/11/27)

>  <Rbt.Parameter_File>
/export/apps/rDock/src/rDock_2013.1_src/data/scripts/dock_solv.prm

>  <Rbt.Receptor>
prm/pocket_docking_3.prm

>  <SCORE>
-11.5642

>  <SCORE.INTER>
-10.7045

>  <SCORE.INTER.CONST>
1

>  <SCORE.INTER.POLAR>
0

>  <SCORE.INTER.ROT>
3

>  <SCORE.INTER.SOLV>
15.8282

>  <SCORE.INTER.VDW>
-18.0124

>  <SCORE.INTER.norm>
-0.892039

>  <SCORE.INTRA>
-0.859744

>  <SCORE.INTRA.DIHEDRAL>
-0.736747

>  <SCORE.INTRA.DIHEDRAL.0>
2.1382

>  <SCORE.INTRA.POLAR>
0

>  <SCORE.INTRA.POLAR.0>
0

>  <SCORE.INTRA.REPUL>
0

>  <SCORE.INTRA.REPUL.0>
0

>  <SCORE.INTRA.SOLV>
-1.41887

>  <SCORE.INTRA.SOLV.lig_0>
-59.6513

>  <SCORE.INTRA.VDW>
0.218065

>  <SCORE.INTRA.VDW.0>
-0.569808

>  <SCORE.INTRA.norm>
-0.0716453

>  <SCORE.RESTR>
0

>  <SCORE.RESTR.CAVITY>
0

>  <SCORE.RESTR.norm>
0

>  <SCORE.SYSTEM>
0

>  <SCORE.SYSTEM.CONST>
0

>  <SCORE.SYSTEM.DIHEDRAL>
0

>  <SCORE.SYSTEM.SOLV>
0

>  <SCORE.SYSTEM.norm>
0

>  <SCORE.heavy>
12

>  <SCORE.norm>
-0.963685

>  <RMSD>
1.051

$$$$
ligand
 OpenBabel11021811503D
libRbt.so/2013.1/901 2013/11/27
 12 12  0  0  0  0  0  0  0  0999 V2000
   10.2170   12.8386  148.2859 C   0  0  0  0  0  0  0  0  0  0  0  0
   12.9521    8.9197  145.5423 C   0  0  0  0  0  0  0  0  0  0  0  0
   11.6273   13.3971  146.0383 N   0  0  0  0  0  0  0  0  0  0  0  0
   10.4434   12.8467  149.7388 N   0  0  0  0  0  0  0  0  0  0  0  0
    9.8863   13.6234  150.3297 N   0  0  0  0  0  0  0  0  0  0  0  0
    9.3332   14.4037  150.9159 N   0  0  0  0  0  0  0  0  0  0  0  0
   11.5974    9.5791  147.3497 N   0  0  0  0  0  0  0  0  0  0  0  0
   12.2624    9.9093  146.2321 C   0  0  0  0  0  0  0  0  0  0  0  0
   12.3305   11.1855  145.8273 N   0  0  0  0  0  0  0  0  0  0  0  0
   11.7345   12.1635  146.5227 C   0  0  0  0  0  0  0  0  0  0  0  0
   11.0340   11.8842  147.6918 C   0  0  0  0  0  0  0  0  0  0  0  0
   10.9703   10.5651  148.1187 C   0  0  0  0  0  0  0  0  0  0  0  0
  1 11  1  0  0  0  0
  1  4  1  0  0  0  0
  2  8  1  0  0  0  0
  3 10  1  0  0  0  0
  4  5  1  0  0  0  0
  5  6  1  0  0  0  0
  7  8  2  0  0  0  0
  7 12  1  0  0  0  0
  8  9  1  0  0  0  0
  9 10  2  0  0  0  0
 10 11  1  0  0  0  0
 11 12  2  0  0  0  0
M  END
>  <CHROM.1>
-135.80938961,176.29557982,-58.90275724,11.19518174,11.79022961,147.73077785
-2.81936020,-1.11522957,2.75690027

>  <Name>
ligand

>  <RI>
0

>  <Rbt.Current_Directory>
/home/itssahil/PROJECTS/Mol_Feturizer/New_Systems/rnas/4NYA

>  <Rbt.Executable>
rbdock ($Id: //depot/dev/client3/rdock/2013.1/src/exe/rbdock.cxx#4 $)

>  <Rbt.Library>
libRbt.so (2013.1, Build901 2013/11/27)

>  <Rbt.Parameter_File>
/export/apps/rDock/src/rDock_2013.1_src/data/scripts/dock_solv.prm

>  <Rbt.Receptor>
prm/pocket_docking_8.prm

>  <SCORE>
-11.5473

>  <SCORE.INTER>
-10.6687

>  <SCORE.INTER.CONST>
1

>  <SCORE.INTER.POLAR>
0

>  <SCORE.INTER.ROT>
3

>  <SCORE.INTER.SOLV>
16.0227

>  <SCORE.INTER.VDW>
-18.0534

>  <SCORE.INTER.norm>
-0.889058

>  <SCORE.INTRA>
-0.87861

>  <SCORE.INTRA.DIHEDRAL>
-0.700313

>  <SCORE.INTRA.DIHEDRAL.0>
2.1382

>  <SCORE.INTRA.POLAR>
0

>  <SCORE.INTRA.POLAR.0>
0

>  <SCORE.INTRA.REPUL>
0

>  <SCORE.INTRA.REPUL.0>
0

>  <SCORE.INTRA.SOLV>
-1.3768

>  <SCORE.INTRA.SOLV.lig_0>
-59.6513

>  <SCORE.INTRA.VDW>
0.159948

>  <SCORE.INTRA.VDW.0>
-0.569808

>  <SCORE.INTRA.norm>
-0.0732175

>  <SCORE.RESTR>
0

>  <SCORE.RESTR.CAVITY>
0

>  <SCORE.RESTR.norm>
0

>  <SCORE.SYSTEM>
0

>  <SCORE.SYSTEM.CONST>
0

>  <SCORE.SYSTEM.DIHEDRAL>
0

>  <SCORE.SYSTEM.SOLV>
0

>  <SCORE.SYSTEM.norm>
0

>  <SCORE.heavy>
12

>  <SCORE.norm>
-0.962275

>  <RMSD>
1.051

$$$$
ligand
 OpenBabel11021811503D
libRbt.so/2013.1/901 2013/11/27
 12 12  0  0  0  0  0  0  0  0999 V2000
   10.4240   12.9847  148.4506 C   0  0  0  0  0  0  0  0  0  0  0  0
   12.7777    8.9408  145.5398 C   0  0  0  0  0  0  0  0  0  0  0  0
   11.5702   13.4510  146.0378 N   0  0  0  0  0  0  0  0  0  0  0  0
    9.0085   12.5906  148.5092 N   0  0  0  0  0  0  0  0  0  0  0  0
    8.4819   12.7532  149.4885 N   0  0  0  0  0  0  0  0  0  0  0  0
    7.9568   12.9222  150.4652 N   0  0  0  0  0  0  0  0  0  0  0  0
   11.6495    9.6770  147.4690 N   0  0  0  0  0  0  0  0  0  0  0  0
   12.1840    9.9618  146.2717 C   0  0  0  0  0  0  0  0  0  0  0  0
   12.2191   11.2235  145.8200 N   0  0  0  0  0  0  0  0  0  0  0  0
   11.7190   12.2317  146.5470 C   0  0  0  0  0  0  0  0  0  0  0  0
   11.1557   11.9998  147.7978 C   0  0  0  0  0  0  0  0  0  0  0  0
   11.1271   10.6960  148.2725 C   0  0  0  0  0  0  0  0  0  0  0  0
  1 11  1  0  0  0  0
  1  4  1  0  0  0  0
  2  8  1  0  0  0  0
  3 10  1  0  0  0  0
  4  5  1  0  0  0  0
  5  6  1  0  0  0  0
  7  8  2  0  0  0  0
  7 12  1  0  0  0  0
  8  9  1  0  0  0  0
  9 10  2  0  0  0  0
 10 11  1  0  0  0  0
 11 12  2  0  0  0  0
M  END
>  <CHROM.1>
111.58573588,136.23977968,67.58105601,10.83414031,11.62210859,147.55954011
-2.84075029,-0.83813933,2.86708394

>  <Name>
ligand

>  <RI>
0

>  <Rbt.Current_Directory>
/home/itssahil/PROJECTS/Mol_Feturizer/New_Systems/rnas/4NYA

>  <Rbt.Executable>
rbdock ($Id: //depot/dev/client3/rdock/2013.1/src/exe/rbdock.cxx#4 $)

>  <Rbt.Library>
libRbt.so (2013.1, Build901 2013/11/27)

>  <Rbt.Parameter_File>
/export/apps/rDock/src/rDock_2013.1_src/data/scripts/dock_solv.prm

>  <Rbt.Receptor>
prm/pocket_docking_2.prm

>  <SCORE>
-10.1159

>  <SCORE.INTER>
-10.0233

>  <SCORE.INTER.CONST>
1

>  <SCORE.INTER.POLAR>
0

>  <SCORE.INTER.ROT>
3

>  <SCORE.INTER.SOLV>
18.6948

>  <SCORE.INTER.VDW>
-18.5138

>  <SCORE.INTER.norm>
-0.835274

>  <SCORE.INTRA>
-0.092581

>  <SCORE.INTRA.DIHEDRAL>
0.486509

>  <SCORE.INTRA.DIHEDRAL.0>
2.1382

>  <SCORE.INTRA.POLAR>
0

>  <SCORE.INTRA.POLAR.0>
0

>  <SCORE.INTRA.REPUL>
0

>  <SCORE.INTRA.REPUL.0>
0

>  <SCORE.INTRA.SOLV>
-0.753801

>  <SCORE.INTRA.SOLV.lig_0>
-59.6513

>  <SCORE.INTRA.VDW>
0.0410649

>  <SCORE.INTRA.VDW.0>
-0.569808

>  <SCORE.INTRA.norm>
-0.00771508

>  <SCORE.RESTR>
0

>  <SCORE.RESTR.CAVITY>
0

>  <SCORE.RESTR.norm>
0

>  <SCORE.SYSTEM>
0

>  <SCORE.SYSTEM.CONST>
0

>  <SCORE.SYSTEM.DIHEDRAL>
0

>  <SCORE.SYSTEM.SOLV>
0

>  <SCORE.SYSTEM.norm>
0

>  <SCORE.heavy>
12

>  <SCORE.norm>
-0.842989

>  <RMSD>
1.052

$$$$
ligand
 OpenBabel11021811503D
libRbt.so/2013.1/901 2013/11/27
 12 12  0  0  0  0  0  0  0  0999 V2000
   10.2039   12.8969  148.2710 C   0  0  0  0  0  0  0  0  0  0  0  0
   12.9613    8.9860  145.5383 C   0  0  0  0  0  0  0  0  0  0  0  0
   11.6117   13.4574  146.0222 N   0  0  0  0  0  0  0  0  0  0  0  0
   10.4718   12.9513  149.7158 N   0  0  0  0  0  0  0  0  0  0  0  0
    9.9022   13.7212  150.3037 N   0  0  0  0  0  0  0  0  0  0  0  0
    9.3278   14.4868  150.8887 N   0  0  0  0  0  0  0  0  0  0  0  0
   11.6026    9.6427  147.3436 N   0  0  0  0  0  0  0  0  0  0  0  0
   12.2660    9.9736  146.2253 C   0  0  0  0  0  0  0  0  0  0  0  0
   12.3272   11.2491  145.8172 N   0  0  0  0  0  0  0  0  0  0  0  0
   11.7256   12.2256  146.5099 C   0  0  0  0  0  0  0  0  0  0  0  0
   11.0264   11.9454  147.6796 C   0  0  0  0  0  0  0  0  0  0  0  0
   10.9699   10.6272  148.1099 C   0  0  0  0  0  0  0  0  0  0  0  0
  1 11  1  0  0  0  0
  1  4  1  0  0  0  0
  2  8  1  0  0  0  0
  3 10  1  0  0  0  0
  4  5  1  0  0  0  0
  5  6  1  0  0  0  0
  7  8  2  0  0  0  0
  7 12  1  0  0  0  0
  8  9  1  0  0  0  0
  9 10  2  0  0  0  0
 10 11  1  0  0  0  0
 11 12  2  0  0  0  0
M  END
>  <CHROM.1>
-133.35605461,177.15663967,60.45306956,11.19609209,11.86120449,147.71665999
-2.82507289,-1.11712367,2.74400947

>  <Name>
ligand

>  <RI>
0

>  <Rbt.Current_Directory>
/home/itssahil/PROJECTS/Mol_Feturizer/New_Systems/rnas/4NYA

>  <Rbt.Executable>
rbdock ($Id: //depot/dev/client3/rdock/2013.1/src/exe/rbdock.cxx#4 $)

>  <Rbt.Library>
libRbt.so (2013.1, Build901 2013/11/27)

>  <Rbt.Parameter_File>
/export/apps/rDock/src/rDock_2013.1_src/data/scripts/dock_solv.prm

>  <Rbt.Receptor>
prm/pocket_docking_3.prm

>  <SCORE>
-11.5315

>  <SCORE.INTER>
-10.6691

>  <SCORE.INTER.CONST>
1

>  <SCORE.INTER.POLAR>
0

>  <SCORE.INTER.ROT>
3

>  <SCORE.INTER.SOLV>
16.1038

>  <SCORE.INTER.VDW>
-18.0806

>  <SCORE.INTER.norm>
-0.889088

>  <SCORE.INTRA>
-0.862416

>  <SCORE.INTRA.DIHEDRAL>
-0.64604

>  <SCORE.INTRA.DIHEDRAL.0>
2.1382

>  <SCORE.INTRA.POLAR>
0

>  <SCORE.INTRA.POLAR.0>
0

>  <SCORE.INTRA.REPUL>
0

>  <SCORE.INTRA.REPUL.0>
0

>  <SCORE.INTRA.SOLV>
-1.35001

>  <SCORE.INTRA.SOLV.lig_0>
-59.6513

>  <SCORE.INTRA.VDW>
0.135609

>  <SCORE.INTRA.VDW.0>
-0.569808

>  <SCORE.INTRA.norm>
-0.071868

>  <SCORE.RESTR>
0

>  <SCORE.RESTR.CAVITY>
0

>  <SCORE.RESTR.norm>
0

>  <SCORE.SYSTEM>
0

>  <SCORE.SYSTEM.CONST>
0

>  <SCORE.SYSTEM.DIHEDRAL>
0

>  <SCORE.SYSTEM.SOLV>
0

>  <SCORE.SYSTEM.norm>
0

>  <SCORE.heavy>
12

>  <SCORE.norm>
-0.960956

>  <RMSD>
1.052

$$$$
ligand
 OpenBabel11021811503D
libRbt.so/2013.1/901 2013/11/27
 12 12  0  0  0  0  0  0  0  0999 V2000
   10.2051   12.7286  148.2483 C   0  0  0  0  0  0  0  0  0  0  0  0
   13.0490    8.9246  145.4540 C   0  0  0  0  0  0  0  0  0  0  0  0
   11.7691   13.3909  146.1345 N   0  0  0  0  0  0  0  0  0  0  0  0
   10.2282   12.5508  149.7078 N   0  0  0  0  0  0  0  0  0  0  0  0
    9.7579   13.3667  150.3207 N   0  0  0  0  0  0  0  0  0  0  0  0
    9.2928   14.1858  150.9301 N   0  0  0  0  0  0  0  0  0  0  0  0
   11.5897    9.5030  147.2068 N   0  0  0  0  0  0  0  0  0  0  0  0
   12.3321    9.8853  146.1566 C   0  0  0  0  0  0  0  0  0  0  0  0
   12.4478   11.1817  145.8354 N   0  0  0  0  0  0  0  0  0  0  0  0
   11.8238   12.1286  146.5490 C   0  0  0  0  0  0  0  0  0  0  0  0
   11.0434   11.7946  147.6513 C   0  0  0  0  0  0  0  0  0  0  0  0
   10.9299   10.4541  147.9923 C   0  0  0  0  0  0  0  0  0  0  0  0
  1 11  1  0  0  0  0
  1  4  1  0  0  0  0
  2  8  1  0  0  0  0
  3 10  1  0  0  0  0
  4  5  1  0  0  0  0
  5  6  1  0  0  0  0
  7  8  2  0  0  0  0
  7 12  1  0  0  0  0
  8  9  1  0  0  0  0
  9 10  2  0  0  0  0
 10 11  1  0  0  0  0
 11 12  2  0  0  0  0
M  END
>  <CHROM.1>
-141.74012721,168.16960124,-60.75809050,11.20118794,11.68731231,147.69756173
-2.73539442,-1.06251849,2.89492016

>  <Name>
ligand

>  <RI>
0

>  <Rbt.Current_Directory>
/home/itssahil/PROJECTS/Mol_Feturizer/New_Systems/rnas/4NYA

>  <Rbt.Executable>
rbdock ($Id: //depot/dev/client3/rdock/2013.1/src/exe/rbdock.cxx#4 $)

>  <Rbt.Library>
libRbt.so (2013.1, Build901 2013/11/27)

>  <Rbt.Parameter_File>
/export/apps/rDock/src/rDock_2013.1_src/data/scripts/dock_solv.prm

>  <Rbt.Receptor>
prm/pocket_docking_7.prm

>  <SCORE>
-11.5992

>  <SCORE.INTER>
-10.7609

>  <SCORE.INTER.CONST>
1

>  <SCORE.INTER.POLAR>
0

>  <SCORE.INTER.ROT>
3

>  <SCORE.INTER.SOLV>
15.5718

>  <SCORE.INTER.VDW>
-17.9646

>  <SCORE.INTER.norm>
-0.896742

>  <SCORE.INTRA>
-0.838307

>  <SCORE.INTRA.DIHEDRAL>
-0.724254

>  <SCORE.INTRA.DIHEDRAL.0>
2.1382

>  <SCORE.INTRA.POLAR>
0

>  <SCORE.INTRA.POLAR.0>
0

>  <SCORE.INTRA.REPUL>
0

>  <SCORE.INTRA.REPUL.0>
0

>  <SCORE.INTRA.SOLV>
-1.4388

>  <SCORE.INTRA.SOLV.lig_0>
-59.6513

>  <SCORE.INTRA.VDW>
0.243218

>  <SCORE.INTRA.VDW.0>
-0.569808

>  <SCORE.INTRA.norm>
-0.0698589

>  <SCORE.RESTR>
0

>  <SCORE.RESTR.CAVITY>
0

>  <SCORE.RESTR.norm>
0

>  <SCORE.SYSTEM>
0

>  <SCORE.SYSTEM.CONST>
0

>  <SCORE.SYSTEM.DIHEDRAL>
0

>  <SCORE.SYSTEM.SOLV>
0

>  <SCORE.SYSTEM.norm>
0

>  <SCORE.heavy>
12

>  <SCORE.norm>
-0.966601

>  <RMSD>
1.052

$$$$
ligand
 OpenBabel11021811503D
libRbt.so/2013.1/901 2013/11/27
 12 12  0  0  0  0  0  0  0  0999 V2000
   10.2051   12.7338  148.2436 C   0  0  0  0  0  0  0  0  0  0  0  0
   13.0054    8.8884  145.4620 C   0  0  0  0  0  0  0  0  0  0  0  0
   11.7594   13.3684  146.1142 N   0  0  0  0  0  0  0  0  0  0  0  0
   10.2277   12.5604  149.7036 N   0  0  0  0  0  0  0  0  0  0  0  0
    9.7661   13.3829  150.3144 N   0  0  0  0  0  0  0  0  0  0  0  0
    9.3069   14.2007  150.9298 N   0  0  0  0  0  0  0  0  0  0  0  0
   11.5616    9.4907  147.2196 N   0  0  0  0  0  0  0  0  0  0  0  0
   12.2995    9.8595  146.1615 C   0  0  0  0  0  0  0  0  0  0  0  0
   12.4216   11.1525  145.8288 N   0  0  0  0  0  0  0  0  0  0  0  0
   11.8085   12.1092  146.5387 C   0  0  0  0  0  0  0  0  0  0  0  0
   11.0333   11.7895  147.6488 C   0  0  0  0  0  0  0  0  0  0  0  0
   10.9133   10.4525  148.0015 C   0  0  0  0  0  0  0  0  0  0  0  0
  1 11  1  0  0  0  0
  1  4  1  0  0  0  0
  2  8  1  0  0  0  0
  3 10  1  0  0  0  0
  4  5  1  0  0  0  0
  5  6  1  0  0  0  0
  7  8  2  0  0  0  0
  7 12  1  0  0  0  0
  8  9  1  0  0  0  0
  9 10  2  0  0  0  0
 10 11  1  0  0  0  0
 11 12  2  0  0  0  0
M  END
>  <CHROM.1>
-142.22373490,168.18604491,-178.10394899,11.18789487,11.67850460,147.69584834
-2.72850325,-1.06917525,2.89494844

>  <Name>
ligand

>  <RI>
0

>  <Rbt.Current_Directory>
/home/itssahil/PROJECTS/Mol_Feturizer/New_Systems/rnas/4NYA

>  <Rbt.Executable>
rbdock ($Id: //depot/dev/client3/rdock/2013.1/src/exe/rbdock.cxx#4 $)

>  <Rbt.Library>
libRbt.so (2013.1, Build901 2013/11/27)

>  <Rbt.Parameter_File>
/export/apps/rDock/src/rDock_2013.1_src/data/scripts/dock_solv.prm

>  <Rbt.Receptor>
prm/pocket_docking_3.prm

>  <SCORE>
-11.5794

>  <SCORE.INTER>
-10.7378

>  <SCORE.INTER.CONST>
1

>  <SCORE.INTER.POLAR>
0

>  <SCORE.INTER.ROT>
3

>  <SCORE.INTER.SOLV>
15.5894

>  <SCORE.INTER.VDW>
-17.955

>  <SCORE.INTER.norm>
-0.894815

>  <SCORE.INTRA>
-0.841667

>  <SCORE.INTRA.DIHEDRAL>
-0.732382

>  <SCORE.INTRA.DIHEDRAL.0>
2.1382

>  <SCORE.INTRA.POLAR>
0

>  <SCORE.INTRA.POLAR.0>
0

>  <SCORE.INTRA.REPUL>
0

>  <SCORE.INTRA.REPUL.0>
0

>  <SCORE.INTRA.SOLV>
-1.44703

>  <SCORE.INTRA.SOLV.lig_0>
-59.6513

>  <SCORE.INTRA.VDW>
0.24804

>  <SCORE.INTRA.VDW.0>
-0.569808

>  <SCORE.INTRA.norm>
-0.0701389

>  <SCORE.RESTR>
0

>  <SCORE.RESTR.CAVITY>
0

>  <SCORE.RESTR.norm>
0

>  <SCORE.SYSTEM>
0

>  <SCORE.SYSTEM.CONST>
0

>  <SCORE.SYSTEM.DIHEDRAL>
0

>  <SCORE.SYSTEM.SOLV>
0

>  <SCORE.SYSTEM.norm>
0

>  <SCORE.heavy>
12

>  <SCORE.norm>
-0.964954

>  <RMSD>
1.053

$$$$
ligand
 OpenBabel11021811503D
libRbt.so/2013.1/901 2013/11/27
 12 12  0  0  0  0  0  0  0  0999 V2000
   10.1553   12.7025  148.2117 C   0  0  0  0  0  0  0  0  0  0  0  0
   13.0654    8.9193  145.4576 C   0  0  0  0  0  0  0  0  0  0  0  0
   11.6640   13.3607  146.0567 N   0  0  0  0  0  0  0  0  0  0  0  0
   10.1812   12.5366  149.6725 N   0  0  0  0  0  0  0  0  0  0  0  0
    9.7267   13.3652  150.2803 N   0  0  0  0  0  0  0  0  0  0  0  0
    9.2670   14.1913  150.8841 N   0  0  0  0  0  0  0  0  0  0  0  0
   11.6184    9.4955  147.2213 N   0  0  0  0  0  0  0  0  0  0  0  0
   12.3317    9.8747  146.1501 C   0  0  0  0  0  0  0  0  0  0  0  0
   12.4034   11.1661  145.7971 N   0  0  0  0  0  0  0  0  0  0  0  0
   11.7631   12.1106  146.4993 C   0  0  0  0  0  0  0  0  0  0  0  0
   11.0112   11.7799  147.6221 C   0  0  0  0  0  0  0  0  0  0  0  0
   10.9435   10.4450  147.9958 C   0  0  0  0  0  0  0  0  0  0  0  0
  1 11  1  0  0  0  0
  1  4  1  0  0  0  0
  2  8  1  0  0  0  0
  3 10  1  0  0  0  0
  4  5  1  0  0  0  0
  5  6  1  0  0  0  0
  7  8  2  0  0  0  0
  7 12  1  0  0  0  0
  8  9  1  0  0  0  0
  9 10  2  0  0  0  0
 10 11  1  0  0  0  0
 11 12  2  0  0  0  0
M  END
>  <CHROM.1>
-143.19961780,166.14088236,60.93939159,11.17288941,11.67511968,147.66920866
-2.80461456,-1.07069532,2.81289514

>  <Name>
ligand

>  <RI>
0

>  <Rbt.Current_Directory>
/home/itssahil/PROJECTS/Mol_Feturizer/New_Systems/rnas/4NYA

>  <Rbt.Executable>
rbdock ($Id: //depot/dev/client3/rdock/2013.1/src/exe/rbdock.cxx#4 $)

>  <Rbt.Library>
libRbt.so (2013.1, Build901 2013/11/27)

>  <Rbt.Parameter_File>
/export/apps/rDock/src/rDock_2013.1_src/data/scripts/dock_solv.prm

>  <Rbt.Receptor>
prm/pocket_docking_2.prm

>  <SCORE>
-11.51

>  <SCORE.INTER>
-10.6914

>  <SCORE.INTER.CONST>
1

>  <SCORE.INTER.POLAR>
0

>  <SCORE.INTER.ROT>
3

>  <SCORE.INTER.SOLV>
15.7215

>  <SCORE.INTER.VDW>
-17.9681

>  <SCORE.INTER.norm>
-0.890951

>  <SCORE.INTRA>
-0.818539

>  <SCORE.INTRA.DIHEDRAL>
-0.709847

>  <SCORE.INTRA.DIHEDRAL.0>
2.1382

>  <SCORE.INTRA.POLAR>
0

>  <SCORE.INTRA.POLAR.0>
0

>  <SCORE.INTRA.REPUL>
0

>  <SCORE.INTRA.REPUL.0>
0

>  <SCORE.INTRA.SOLV>
-1.45088

>  <SCORE.INTRA.SOLV.lig_0>
-59.6513

>  <SCORE.INTRA.VDW>
0.261823

>  <SCORE.INTRA.VDW.0>
-0.569808

>  <SCORE.INTRA.norm>
-0.0682116

>  <SCORE.RESTR>
0

>  <SCORE.RESTR.CAVITY>
0

>  <SCORE.RESTR.norm>
0

>  <SCORE.SYSTEM>
0

>  <SCORE.SYSTEM.CONST>
0

>  <SCORE.SYSTEM.DIHEDRAL>
0

>  <SCORE.SYSTEM.SOLV>
0

>  <SCORE.SYSTEM.norm>
0

>  <SCORE.heavy>
12

>  <SCORE.norm>
-0.959163

>  <RMSD>
1.054

$$$$
ligand
 OpenBabel11021811503D
libRbt.so/2013.1/901 2013/11/27
 12 12  0  0  0  0  0  0  0  0999 V2000
   10.1867   12.6564  148.2632 C   0  0  0  0  0  0  0  0  0  0  0  0
   13.0564    8.8986  145.4329 C   0  0  0  0  0  0  0  0  0  0  0  0
   11.6674   13.3349  146.0952 N   0  0  0  0  0  0  0  0  0  0  0  0
   10.2813   12.5198  149.7242 N   0  0  0  0  0  0  0  0  0  0  0  0
    9.7690   13.3104  150.3368 N   0  0  0  0  0  0  0  0  0  0  0  0
    9.2613   14.1043  150.9453 N   0  0  0  0  0  0  0  0  0  0  0  0
   11.6335    9.4583  147.2214 N   0  0  0  0  0  0  0  0  0  0  0  0
   12.3329    9.8476  146.1446 C   0  0  0  0  0  0  0  0  0  0  0  0
   12.4012   11.1424  145.8038 N   0  0  0  0  0  0  0  0  0  0  0  0
   11.7712   12.0804  146.5238 C   0  0  0  0  0  0  0  0  0  0  0  0
   11.0339   11.7390  147.6531 C   0  0  0  0  0  0  0  0  0  0  0  0
   10.9698   10.4005  148.0142 C   0  0  0  0  0  0  0  0  0  0  0  0
  1 11  1  0  0  0  0
  1  4  1  0  0  0  0
  2  8  1  0  0  0  0
  3 10  1  0  0  0  0
  4  5  1  0  0  0  0
  5  6  1  0  0  0  0
  7  8  2  0  0  0  0
  7 12  1  0  0  0  0
  8  9  1  0  0  0  0
  9 10  2  0  0  0  0
 10 11  1  0  0  0  0
 11 12  2  0  0  0  0
M  END
>  <CHROM.1>
-140.45392827,170.70774736,-57.18067249,11.19243594,11.63721764,147.69513496
-2.81369052,-1.07997111,2.81322912

>  <Name>
ligand

>  <RI>
0

>  <Rbt.Current_Directory>
/home/itssahil/PROJECTS/Mol_Feturizer/New_Systems/rnas/4NYA

>  <Rbt.Executable>
rbdock ($Id: //depot/dev/client3/rdock/2013.1/src/exe/rbdock.cxx#4 $)

>  <Rbt.Library>
libRbt.so (2013.1, Build901 2013/11/27)

>  <Rbt.Parameter_File>
/export/apps/rDock/src/rDock_2013.1_src/data/scripts/dock_solv.prm

>  <Rbt.Receptor>
prm/pocket_docking_3.prm

>  <SCORE>
-11.5675

>  <SCORE.INTER>
-10.712

>  <SCORE.INTER.CONST>
1

>  <SCORE.INTER.POLAR>
0

>  <SCORE.INTER.ROT>
3

>  <SCORE.INTER.SOLV>
15.7599

>  <SCORE.INTER.VDW>
-17.9947

>  <SCORE.INTER.norm>
-0.892669

>  <SCORE.INTRA>
-0.855468

>  <SCORE.INTRA.DIHEDRAL>
-0.739901

>  <SCORE.INTRA.DIHEDRAL.0>
2.1382

>  <SCORE.INTRA.POLAR>
0

>  <SCORE.INTRA.POLAR.0>
0

>  <SCORE.INTRA.REPUL>
0

>  <SCORE.INTRA.REPUL.0>
0

>  <SCORE.INTRA.SOLV>
-1.42648

>  <SCORE.INTRA.SOLV.lig_0>
-59.6513

>  <SCORE.INTRA.VDW>
0.227722

>  <SCORE.INTRA.VDW.0>
-0.569808

>  <SCORE.INTRA.norm>
-0.071289

>  <SCORE.RESTR>
0

>  <SCORE.RESTR.CAVITY>
0

>  <SCORE.RESTR.norm>
0

>  <SCORE.SYSTEM>
0

>  <SCORE.SYSTEM.CONST>
0

>  <SCORE.SYSTEM.DIHEDRAL>
0

>  <SCORE.SYSTEM.SOLV>
0

>  <SCORE.SYSTEM.norm>
0

>  <SCORE.heavy>
12

>  <SCORE.norm>
-0.963958

>  <RMSD>
1.054

$$$$
ligand
 OpenBabel11021811503D
libRbt.so/2013.1/901 2013/11/27
 12 12  0  0  0  0  0  0  0  0999 V2000
   10.1831   12.7467  148.2449 C   0  0  0  0  0  0  0  0  0  0  0  0
   12.9828    8.8877  145.4815 C   0  0  0  0  0  0  0  0  0  0  0  0
   11.7677   13.3759  146.1362 N   0  0  0  0  0  0  0  0  0  0  0  0
   10.2396   12.6111  149.7080 N   0  0  0  0  0  0  0  0  0  0  0  0
    9.7781   13.4418  150.3077 N   0  0  0  0  0  0  0  0  0  0  0  0
    9.3193   14.2680  150.9121 N   0  0  0  0  0  0  0  0  0  0  0  0
   11.5238    9.4959  147.2245 N   0  0  0  0  0  0  0  0  0  0  0  0
   12.2771    9.8623  146.1764 C   0  0  0  0  0  0  0  0  0  0  0  0
   12.4142   11.1554  145.8502 N   0  0  0  0  0  0  0  0  0  0  0  0
   11.8010   12.1147  146.5565 C   0  0  0  0  0  0  0  0  0  0  0  0
   11.0102   11.7975  147.6562 C   0  0  0  0  0  0  0  0  0  0  0  0
   10.8746   10.4603  148.0024 C   0  0  0  0  0  0  0  0  0  0  0  0
  1 11  1  0  0  0  0
  1  4  1  0  0  0  0
  2  8  1  0  0  0  0
  3 10  1  0  0  0  0
  4  5  1  0  0  0  0
  5  6  1  0  0  0  0
  7  8  2  0  0  0  0
  7 12  1  0  0  0  0
  8  9  1  0  0  0  0
  9 10  2  0  0  0  0
 10 11  1  0  0  0  0
 11 12  2  0  0  0  0
M  END
>  <CHROM.1>
-139.40539283,168.36812837,-178.08259615,11.17696702,11.69808448,147.70329227
-2.69472893,-1.06731476,2.92007795

>  <Name>
ligand

>  <RI>
0

>  <Rbt.Current_Directory>
/home/itssahil/PROJECTS/Mol_Feturizer/New_Systems/rnas/4NYA

>  <Rbt.Executable>
rbdock ($Id: //depot/dev/client3/rdock/2013.1/src/exe/rbdock.cxx#4 $)

>  <Rbt.Library>
libRbt.so (2013.1, Build901 2013/11/27)

>  <Rbt.Parameter_File>
/export/apps/rDock/src/rDock_2013.1_src/data/scripts/dock_solv.prm

>  <Rbt.Receptor>
prm/pocket_docking_3.prm

>  <SCORE>
-11.5884

>  <SCORE.INTER>
-10.749

>  <SCORE.INTER.CONST>
1

>  <SCORE.INTER.POLAR>
0

>  <SCORE.INTER.ROT>
3

>  <SCORE.INTER.SOLV>
15.5056

>  <SCORE.INTER.VDW>
-17.9345

>  <SCORE.INTER.norm>
-0.89575

>  <SCORE.INTRA>
-0.83936

>  <SCORE.INTRA.DIHEDRAL>
-0.681907

>  <SCORE.INTRA.DIHEDRAL.0>
2.1382

>  <SCORE.INTRA.POLAR>
0

>  <SCORE.INTRA.POLAR.0>
0

>  <SCORE.INTRA.REPUL>
0

>  <SCORE.INTRA.REPUL.0>
0

>  <SCORE.INTRA.SOLV>
-1.42286

>  <SCORE.INTRA.SOLV.lig_0>
-59.6513

>  <SCORE.INTRA.VDW>
0.213024

>  <SCORE.INTRA.VDW.0>
-0.569808

>  <SCORE.INTRA.norm>
-0.0699467

>  <SCORE.RESTR>
0

>  <SCORE.RESTR.CAVITY>
0

>  <SCORE.RESTR.norm>
0

>  <SCORE.SYSTEM>
0

>  <SCORE.SYSTEM.CONST>
0

>  <SCORE.SYSTEM.DIHEDRAL>
0

>  <SCORE.SYSTEM.SOLV>
0

>  <SCORE.SYSTEM.norm>
0

>  <SCORE.heavy>
12

>  <SCORE.norm>
-0.965697

>  <RMSD>
1.054

$$$$
ligand
 OpenBabel11021811503D
libRbt.so/2013.1/901 2013/11/27
 12 12  0  0  0  0  0  0  0  0999 V2000
   10.1846   12.6599  148.2762 C   0  0  0  0  0  0  0  0  0  0  0  0
   13.0169    8.8720  145.4484 C   0  0  0  0  0  0  0  0  0  0  0  0
   11.6499   13.3179  146.0915 N   0  0  0  0  0  0  0  0  0  0  0  0
   10.3733   12.6103  149.7336 N   0  0  0  0  0  0  0  0  0  0  0  0
    9.8152   13.3752  150.3387 N   0  0  0  0  0  0  0  0  0  0  0  0
    9.2613   14.1367  150.9484 N   0  0  0  0  0  0  0  0  0  0  0  0
   11.6108    9.4492  147.2445 N   0  0  0  0  0  0  0  0  0  0  0  0
   12.3027    9.8286  146.1595 C   0  0  0  0  0  0  0  0  0  0  0  0
   12.3731   11.1207  145.8092 N   0  0  0  0  0  0  0  0  0  0  0  0
   11.7525   12.0660  146.5278 C   0  0  0  0  0  0  0  0  0  0  0  0
   11.0233   11.7351  147.6655 C   0  0  0  0  0  0  0  0  0  0  0  0
   10.9571   10.3993  148.0363 C   0  0  0  0  0  0  0  0  0  0  0  0
  1 11  1  0  0  0  0
  1  4  1  0  0  0  0
  2  8  1  0  0  0  0
  3 10  1  0  0  0  0
  4  5  1  0  0  0  0
  5  6  1  0  0  0  0
  7  8  2  0  0  0  0
  7 12  1  0  0  0  0
  8  9  1  0  0  0  0
  9 10  2  0  0  0  0
 10 11  1  0  0  0  0
 11 12  2  0  0  0  0
M  END
>  <CHROM.1>
-135.76765226,174.85326408,-173.27407587,11.18925689,11.64433334,147.70509742
-2.80791487,-1.09208935,2.80561840

>  <Name>
ligand

>  <RI>
0

>  <Rbt.Current_Directory>
/home/itssahil/PROJECTS/Mol_Feturizer/New_Systems/rnas/4NYA

>  <Rbt.Executable>
rbdock ($Id: //depot/dev/client3/rdock/2013.1/src/exe/rbdock.cxx#4 $)

>  <Rbt.Library>
libRbt.so (2013.1, Build901 2013/11/27)

>  <Rbt.Parameter_File>
/export/apps/rDock/src/rDock_2013.1_src/data/scripts/dock_solv.prm

>  <Rbt.Receptor>
prm/pocket_docking_2.prm

>  <SCORE>
-11.5417

>  <SCORE.INTER>
-10.6698

>  <SCORE.INTER.CONST>
1

>  <SCORE.INTER.POLAR>
0

>  <SCORE.INTER.ROT>
3

>  <SCORE.INTER.SOLV>
15.878

>  <SCORE.INTER.VDW>
-18.0059

>  <SCORE.INTER.norm>
-0.889151

>  <SCORE.INTRA>
-0.871928

>  <SCORE.INTRA.DIHEDRAL>
-0.67699

>  <SCORE.INTRA.DIHEDRAL.0>
2.1382

>  <SCORE.INTRA.POLAR>
0

>  <SCORE.INTRA.POLAR.0>
0

>  <SCORE.INTRA.REPUL>
0

>  <SCORE.INTRA.REPUL.0>
0

>  <SCORE.INTRA.SOLV>
-1.38276

>  <SCORE.INTRA.SOLV.lig_0>
-59.6513

>  <SCORE.INTRA.VDW>
0.157946

>  <SCORE.INTRA.VDW.0>
-0.569808

>  <SCORE.INTRA.norm>
-0.0726607

>  <SCORE.RESTR>
0

>  <SCORE.RESTR.CAVITY>
0

>  <SCORE.RESTR.norm>
0

>  <SCORE.SYSTEM>
0

>  <SCORE.SYSTEM.CONST>
0

>  <SCORE.SYSTEM.DIHEDRAL>
0

>  <SCORE.SYSTEM.SOLV>
0

>  <SCORE.SYSTEM.norm>
0

>  <SCORE.heavy>
12

>  <SCORE.norm>
-0.961812

>  <RMSD>
1.055

$$$$
ligand
 OpenBabel11021811503D
libRbt.so/2013.1/901 2013/11/27
 12 12  0  0  0  0  0  0  0  0999 V2000
   10.1910   12.7836  148.2789 C   0  0  0  0  0  0  0  0  0  0  0  0
   12.9644    8.9250  145.4885 C   0  0  0  0  0  0  0  0  0  0  0  0
   11.6635   13.3971  146.0860 N   0  0  0  0  0  0  0  0  0  0  0  0
   10.4733   12.8375  149.7210 N   0  0  0  0  0  0  0  0  0  0  0  0
    9.8991   13.5975  150.3171 N   0  0  0  0  0  0  0  0  0  0  0  0
    9.3284   14.3612  150.9084 N   0  0  0  0  0  0  0  0  0  0  0  0
   11.5689    9.5417  147.2798 N   0  0  0  0  0  0  0  0  0  0  0  0
   12.2651    9.8995  146.1901 C   0  0  0  0  0  0  0  0  0  0  0  0
   12.3540   11.1867  145.8261 N   0  0  0  0  0  0  0  0  0  0  0  0
   11.7482   12.1485  146.5354 C   0  0  0  0  0  0  0  0  0  0  0  0
   11.0154   11.8403  147.6772 C   0  0  0  0  0  0  0  0  0  0  0  0
   10.9301   10.5096  148.0621 C   0  0  0  0  0  0  0  0  0  0  0  0
  1 11  1  0  0  0  0
  1  4  1  0  0  0  0
  2  8  1  0  0  0  0
  3 10  1  0  0  0  0
  4  5  1  0  0  0  0
  5  6  1  0  0  0  0
  7  8  2  0  0  0  0
  7 12  1  0  0  0  0
  8  9  1  0  0  0  0
  9 10  2  0  0  0  0
 10 11  1  0  0  0  0
 11 12  2  0  0  0  0
M  END
>  <CHROM.1>
-130.35948932,177.48807594,-59.18718453,11.19689286,11.76679200,147.71233164
-2.76326409,-1.10578049,2.82326190

>  <Name>
ligand

>  <RI>
0

>  <Rbt.Current_Directory>
/home/itssahil/PROJECTS/Mol_Feturizer/New_Systems/rnas/4NYA

>  <Rbt.Executable>
rbdock ($Id: //depot/dev/client3/rdock/2013.1/src/exe/rbdock.cxx#4 $)

>  <Rbt.Library>
libRbt.so (2013.1, Build901 2013/11/27)

>  <Rbt.Parameter_File>
/export/apps/rDock/src/rDock_2013.1_src/data/scripts/dock_solv.prm

>  <Rbt.Receptor>
prm/pocket_docking_3.prm

>  <SCORE>
-11.5565

>  <SCORE.INTER>
-10.722

>  <SCORE.INTER.CONST>
1

>  <SCORE.INTER.POLAR>
0

>  <SCORE.INTER.ROT>
3

>  <SCORE.INTER.SOLV>
15.9166

>  <SCORE.INTER.VDW>
-18.0535

>  <SCORE.INTER.norm>
-0.893497

>  <SCORE.INTRA>
-0.834566

>  <SCORE.INTRA.DIHEDRAL>
-0.570864

>  <SCORE.INTRA.DIHEDRAL.0>
2.1382

>  <SCORE.INTRA.POLAR>
0

>  <SCORE.INTRA.POLAR.0>
0

>  <SCORE.INTRA.REPUL>
0

>  <SCORE.INTRA.REPUL.0>
0

>  <SCORE.INTRA.SOLV>
-1.31613

>  <SCORE.INTRA.SOLV.lig_0>
-59.6513

>  <SCORE.INTRA.VDW>
0.108932

>  <SCORE.INTRA.VDW.0>
-0.569808

>  <SCORE.INTRA.norm>
-0.0695472

>  <SCORE.RESTR>
0

>  <SCORE.RESTR.CAVITY>
0

>  <SCORE.RESTR.norm>
0

>  <SCORE.SYSTEM>
0

>  <SCORE.SYSTEM.CONST>
0

>  <SCORE.SYSTEM.DIHEDRAL>
0

>  <SCORE.SYSTEM.SOLV>
0

>  <SCORE.SYSTEM.norm>
0

>  <SCORE.heavy>
12

>  <SCORE.norm>
-0.963044

>  <RMSD>
1.056

$$$$
ligand
 OpenBabel11021811503D
libRbt.so/2013.1/901 2013/11/27
 12 12  0  0  0  0  0  0  0  0999 V2000
   10.2375   12.8390  148.2673 C   0  0  0  0  0  0  0  0  0  0  0  0
   12.9327    8.8964  145.5181 C   0  0  0  0  0  0  0  0  0  0  0  0
   11.6667   13.3891  146.0295 N   0  0  0  0  0  0  0  0  0  0  0  0
   10.4718   12.8511  149.7189 N   0  0  0  0  0  0  0  0  0  0  0  0
    9.8934   13.6082  150.3148 N   0  0  0  0  0  0  0  0  0  0  0  0
    9.3182   14.3689  150.9054 N   0  0  0  0  0  0  0  0  0  0  0  0
   11.5780    9.5655  147.3219 N   0  0  0  0  0  0  0  0  0  0  0  0
   12.2531    9.8919  146.2093 C   0  0  0  0  0  0  0  0  0  0  0  0
   12.3407   11.1691  145.8112 N   0  0  0  0  0  0  0  0  0  0  0  0
   11.7546   12.1517  146.5084 C   0  0  0  0  0  0  0  0  0  0  0  0
   11.0444   11.8763  147.6726 C   0  0  0  0  0  0  0  0  0  0  0  0
   10.9606   10.5562  148.0926 C   0  0  0  0  0  0  0  0  0  0  0  0
  1 11  1  0  0  0  0
  1  4  1  0  0  0  0
  2  8  1  0  0  0  0
  3 10  1  0  0  0  0
  4  5  1  0  0  0  0
  5  6  1  0  0  0  0
  7  8  2  0  0  0  0
  7 12  1  0  0  0  0
  8  9  1  0  0  0  0
  9 10  2  0  0  0  0
 10 11  1  0  0  0  0
 11 12  2  0  0  0  0
M  END
>  <CHROM.1>
-134.94599616,178.57430586,-51.94167514,11.20042628,11.77739743,147.71223507
-2.78973576,-1.11247761,2.79082586

>  <Name>
ligand

>  <RI>
0

>  <Rbt.Current_Directory>
/home/itssahil/PROJECTS/Mol_Feturizer/New_Systems/rnas/4NYA

>  <Rbt.Executable>
rbdock ($Id: //depot/dev/client3/rdock/2013.1/src/exe/rbdock.cxx#4 $)

>  <Rbt.Library>
libRbt.so (2013.1, Build901 2013/11/27)

>  <Rbt.Parameter_File>
/export/apps/rDock/src/rDock_2013.1_src/data/scripts/dock_solv.prm

>  <Rbt.Receptor>
prm/pocket_docking_3.prm

>  <SCORE>
-11.5227

>  <SCORE.INTER>
-10.6558

>  <SCORE.INTER.CONST>
1

>  <SCORE.INTER.POLAR>
0

>  <SCORE.INTER.ROT>
3

>  <SCORE.INTER.SOLV>
16.1098

>  <SCORE.INTER.VDW>
-18.0738

>  <SCORE.INTER.norm>
-0.887986

>  <SCORE.INTRA>
-0.86685

>  <SCORE.INTRA.DIHEDRAL>
-0.672291

>  <SCORE.INTRA.DIHEDRAL.0>
2.1382

>  <SCORE.INTRA.POLAR>
0

>  <SCORE.INTRA.POLAR.0>
0

>  <SCORE.INTRA.REPUL>
0

>  <SCORE.INTRA.REPUL.0>
0

>  <SCORE.INTRA.SOLV>
-1.36389

>  <SCORE.INTRA.SOLV.lig_0>
-59.6513

>  <SCORE.INTRA.VDW>
0.151238

>  <SCORE.INTRA.VDW.0>
-0.569808

>  <SCORE.INTRA.norm>
-0.0722375

>  <SCORE.RESTR>
0

>  <SCORE.RESTR.CAVITY>
0

>  <SCORE.RESTR.norm>
0

>  <SCORE.SYSTEM>
0

>  <SCORE.SYSTEM.CONST>
0

>  <SCORE.SYSTEM.DIHEDRAL>
0

>  <SCORE.SYSTEM.SOLV>
0

>  <SCORE.SYSTEM.norm>
0

>  <SCORE.heavy>
12

>  <SCORE.norm>
-0.960223

>  <RMSD>
1.056

$$$$
ligand
 OpenBabel11021811503D
libRbt.so/2013.1/901 2013/11/27
 12 12  0  0  0  0  0  0  0  0999 V2000
   10.2073   12.7337  148.2522 C   0  0  0  0  0  0  0  0  0  0  0  0
   12.9967    8.8872  145.4611 C   0  0  0  0  0  0  0  0  0  0  0  0
   11.7624   13.3690  146.1235 N   0  0  0  0  0  0  0  0  0  0  0  0
   10.2285   12.5557  149.7117 N   0  0  0  0  0  0  0  0  0  0  0  0
    9.7848   13.3858  150.3255 N   0  0  0  0  0  0  0  0  0  0  0  0
    9.3358   14.2135  150.9352 N   0  0  0  0  0  0  0  0  0  0  0  0
   11.5552    9.4894  147.2206 N   0  0  0  0  0  0  0  0  0  0  0  0
   12.2935    9.8586  146.1629 C   0  0  0  0  0  0  0  0  0  0  0  0
   12.4188   11.1520  145.8331 N   0  0  0  0  0  0  0  0  0  0  0  0
   11.8085   12.1088  146.5453 C   0  0  0  0  0  0  0  0  0  0  0  0
   11.0329   11.7885  147.6550 C   0  0  0  0  0  0  0  0  0  0  0  0
   10.9096   10.4512  148.0049 C   0  0  0  0  0  0  0  0  0  0  0  0
  1 11  1  0  0  0  0
  1  4  1  0  0  0  0
  2  8  1  0  0  0  0
  3 10  1  0  0  0  0
  4  5  1  0  0  0  0
  5  6  1  0  0  0  0
  7  8  2  0  0  0  0
  7 12  1  0  0  0  0
  8  9  1  0  0  0  0
  9 10  2  0  0  0  0
 10 11  1  0  0  0  0
 11 12  2  0  0  0  0
M  END
>  <CHROM.1>
-142.30935726,167.17933273,61.45579423,11.19019797,11.67896423,147.70121535
-2.72060346,-1.07187279,2.90248983

>  <Name>
ligand

>  <RI>
0

>  <Rbt.Current_Directory>
/home/itssahil/PROJECTS/Mol_Feturizer/New_Systems/rnas/4NYA

>  <Rbt.Executable>
rbdock ($Id: //depot/dev/client3/rdock/2013.1/src/exe/rbdock.cxx#4 $)

>  <Rbt.Library>
libRbt.so (2013.1, Build901 2013/11/27)

>  <Rbt.Parameter_File>
/export/apps/rDock/src/rDock_2013.1_src/data/scripts/dock_solv.prm

>  <Rbt.Receptor>
prm/pocket_docking_6.prm

>  <SCORE>
-11.5767

>  <SCORE.INTER>
-10.7476

>  <SCORE.INTER.CONST>
1

>  <SCORE.INTER.POLAR>
0

>  <SCORE.INTER.ROT>
3

>  <SCORE.INTER.SOLV>
15.5286

>  <SCORE.INTER.VDW>
-17.9413

>  <SCORE.INTER.norm>
-0.895631

>  <SCORE.INTRA>
-0.829174

>  <SCORE.INTRA.DIHEDRAL>
-0.715283

>  <SCORE.INTRA.DIHEDRAL.0>
2.1382

>  <SCORE.INTRA.POLAR>
0

>  <SCORE.INTRA.POLAR.0>
0

>  <SCORE.INTRA.REPUL>
0

>  <SCORE.INTRA.REPUL.0>
0

>  <SCORE.INTRA.SOLV>
-1.44372

>  <SCORE.INTRA.SOLV.lig_0>
-59.6513

>  <SCORE.INTRA.VDW>
0.250327

>  <SCORE.INTRA.VDW.0>
-0.569808

>  <SCORE.INTRA.norm>
-0.0690979

>  <SCORE.RESTR>
0

>  <SCORE.RESTR.CAVITY>
0

>  <SCORE.RESTR.norm>
0

>  <SCORE.SYSTEM>
0

>  <SCORE.SYSTEM.CONST>
0

>  <SCORE.SYSTEM.DIHEDRAL>
0

>  <SCORE.SYSTEM.SOLV>
0

>  <SCORE.SYSTEM.norm>
0

>  <SCORE.heavy>
12

>  <SCORE.norm>
-0.964729

>  <RMSD>
1.056

$$$$
ligand
 OpenBabel11021811503D
libRbt.so/2013.1/901 2013/11/27
 12 12  0  0  0  0  0  0  0  0999 V2000
   10.2316   12.8216  148.2649 C   0  0  0  0  0  0  0  0  0  0  0  0
   12.9281    8.8733  145.5253 C   0  0  0  0  0  0  0  0  0  0  0  0
   11.7662   13.3862  146.1017 N   0  0  0  0  0  0  0  0  0  0  0  0
   10.3016   12.7017  149.7288 N   0  0  0  0  0  0  0  0  0  0  0  0
    9.8342   13.5325  150.3238 N   0  0  0  0  0  0  0  0  0  0  0  0
    9.3616   14.3606  150.9148 N   0  0  0  0  0  0  0  0  0  0  0  0
   11.5194    9.5357  147.2897 N   0  0  0  0  0  0  0  0  0  0  0  0
   12.2484    9.8703  146.2141 C   0  0  0  0  0  0  0  0  0  0  0  0
   12.3873   11.1540  145.8532 N   0  0  0  0  0  0  0  0  0  0  0  0
   11.8003   12.1353  146.5515 C   0  0  0  0  0  0  0  0  0  0  0  0
   11.0355   11.8514  147.6785 C   0  0  0  0  0  0  0  0  0  0  0  0
   10.8982   10.5242  148.0604 C   0  0  0  0  0  0  0  0  0  0  0  0
  1 11  1  0  0  0  0
  1  4  1  0  0  0  0
  2  8  1  0  0  0  0
  3 10  1  0  0  0  0
  4  5  1  0  0  0  0
  5  6  1  0  0  0  0
  7  8  2  0  0  0  0
  7 12  1  0  0  0  0
  8  9  1  0  0  0  0
  9 10  2  0  0  0  0
 10 11  1  0  0  0  0
 11 12  2  0  0  0  0
M  END
>  <CHROM.1>
-140.63984777,170.11664137,60.05475520,11.18863241,11.74221041,147.72390691
-2.70083966,-1.08558501,2.89655974

>  <Name>
ligand

>  <RI>
0

>  <Rbt.Current_Directory>
/home/itssahil/PROJECTS/Mol_Feturizer/New_Systems/rnas/4NYA

>  <Rbt.Executable>
rbdock ($Id: //depot/dev/client3/rdock/2013.1/src/exe/rbdock.cxx#4 $)

>  <Rbt.Library>
libRbt.so (2013.1, Build901 2013/11/27)

>  <Rbt.Parameter_File>
/export/apps/rDock/src/rDock_2013.1_src/data/scripts/dock_solv.prm

>  <Rbt.Receptor>
prm/pocket_docking_2.prm

>  <SCORE>
-11.572

>  <SCORE.INTER>
-10.7192

>  <SCORE.INTER.CONST>
1

>  <SCORE.INTER.POLAR>
0

>  <SCORE.INTER.ROT>
3

>  <SCORE.INTER.SOLV>
15.6429

>  <SCORE.INTER.VDW>
-17.9604

>  <SCORE.INTER.norm>
-0.893268

>  <SCORE.INTRA>
-0.852793

>  <SCORE.INTRA.DIHEDRAL>
-0.736738

>  <SCORE.INTRA.DIHEDRAL.0>
2.1382

>  <SCORE.INTRA.POLAR>
0

>  <SCORE.INTRA.POLAR.0>
0

>  <SCORE.INTRA.REPUL>
0

>  <SCORE.INTRA.REPUL.0>
0

>  <SCORE.INTRA.SOLV>
-1.42858

>  <SCORE.INTRA.SOLV.lig_0>
-59.6513

>  <SCORE.INTRA.VDW>
0.229868

>  <SCORE.INTRA.VDW.0>
-0.569808

>  <SCORE.INTRA.norm>
-0.0710661

>  <SCORE.RESTR>
0

>  <SCORE.RESTR.CAVITY>
0

>  <SCORE.RESTR.norm>
0

>  <SCORE.SYSTEM>
0

>  <SCORE.SYSTEM.CONST>
0

>  <SCORE.SYSTEM.DIHEDRAL>
0

>  <SCORE.SYSTEM.SOLV>
0

>  <SCORE.SYSTEM.norm>
0

>  <SCORE.heavy>
12

>  <SCORE.norm>
-0.964334

>  <RMSD>
1.057

$$$$
ligand
 OpenBabel11021811503D
libRbt.so/2013.1/901 2013/11/27
 12 12  0  0  0  0  0  0  0  0999 V2000
   10.1875   12.7741  148.2292 C   0  0  0  0  0  0  0  0  0  0  0  0
   12.9102    8.8431  145.4905 C   0  0  0  0  0  0  0  0  0  0  0  0
   11.7884   13.3591  146.1202 N   0  0  0  0  0  0  0  0  0  0  0  0
   10.3067   12.7015  149.6930 N   0  0  0  0  0  0  0  0  0  0  0  0
    9.7852   13.5055  150.2799 N   0  0  0  0  0  0  0  0  0  0  0  0
    9.2587   14.3058  150.8635 N   0  0  0  0  0  0  0  0  0  0  0  0
   11.4613    9.4907  147.2276 N   0  0  0  0  0  0  0  0  0  0  0  0
   12.2239    9.8358  146.1791 C   0  0  0  0  0  0  0  0  0  0  0  0
   12.3886   11.1241  145.8466 N   0  0  0  0  0  0  0  0  0  0  0  0
   11.7946   12.0997  146.5469 C   0  0  0  0  0  0  0  0  0  0  0  0
   10.9954   11.8047  147.6468 C   0  0  0  0  0  0  0  0  0  0  0  0
   10.8312   10.4725  147.9995 C   0  0  0  0  0  0  0  0  0  0  0  0
  1 11  1  0  0  0  0
  1  4  1  0  0  0  0
  2  8  1  0  0  0  0
  3 10  1  0  0  0  0
  4  5  1  0  0  0  0
  5  6  1  0  0  0  0
  7  8  2  0  0  0  0
  7 12  1  0  0  0  0
  8  9  1  0  0  0  0
  9 10  2  0  0  0  0
 10 11  1  0  0  0  0
 11 12  2  0  0  0  0
M  END
>  <CHROM.1>
-135.73823763,173.73210891,64.50289403,11.15714004,11.70670429,147.69195241
-2.65391511,-1.06612572,2.94856779

>  <Name>
ligand

>  <RI>
0

>  <Rbt.Current_Directory>
/home/itssahil/PROJECTS/Mol_Feturizer/New_Systems/rnas/4NYA

>  <Rbt.Executable>
rbdock ($Id: //depot/dev/client3/rdock/2013.1/src/exe/rbdock.cxx#4 $)

>  <Rbt.Library>
libRbt.so (2013.1, Build901 2013/11/27)

>  <Rbt.Parameter_File>
/export/apps/rDock/src/rDock_2013.1_src/data/scripts/dock_solv.prm

>  <Rbt.Receptor>
prm/pocket_docking_7.prm

>  <SCORE>
-11.5679

>  <SCORE.INTER>
-10.7006

>  <SCORE.INTER.CONST>
1

>  <SCORE.INTER.POLAR>
0

>  <SCORE.INTER.ROT>
3

>  <SCORE.INTER.SOLV>
15.673

>  <SCORE.INTER.VDW>
-17.9581

>  <SCORE.INTER.norm>
-0.891718

>  <SCORE.INTRA>
-0.867324

>  <SCORE.INTRA.DIHEDRAL>
-0.672676

>  <SCORE.INTRA.DIHEDRAL.0>
2.1382

>  <SCORE.INTRA.POLAR>
0

>  <SCORE.INTRA.POLAR.0>
0

>  <SCORE.INTRA.REPUL>
0

>  <SCORE.INTRA.REPUL.0>
0

>  <SCORE.INTRA.SOLV>
-1.3798

>  <SCORE.INTRA.SOLV.lig_0>
-59.6513

>  <SCORE.INTRA.VDW>
0.158916

>  <SCORE.INTRA.VDW.0>
-0.569808

>  <SCORE.INTRA.norm>
-0.072277

>  <SCORE.RESTR>
0

>  <SCORE.RESTR.CAVITY>
0

>  <SCORE.RESTR.norm>
0

>  <SCORE.SYSTEM>
0

>  <SCORE.SYSTEM.CONST>
0

>  <SCORE.SYSTEM.DIHEDRAL>
0

>  <SCORE.SYSTEM.SOLV>
0

>  <SCORE.SYSTEM.norm>
0

>  <SCORE.heavy>
12

>  <SCORE.norm>
-0.963995

>  <RMSD>
1.057

$$$$
ligand
 OpenBabel11021811503D
libRbt.so/2013.1/901 2013/11/27
 12 12  0  0  0  0  0  0  0  0999 V2000
   10.1938   12.7356  148.2555 C   0  0  0  0  0  0  0  0  0  0  0  0
   12.9867    8.8837  145.4753 C   0  0  0  0  0  0  0  0  0  0  0  0
   11.7613   13.3683  146.1351 N   0  0  0  0  0  0  0  0  0  0  0  0
   10.2567   12.5976  149.7181 N   0  0  0  0  0  0  0  0  0  0  0  0
    9.7998   13.4284  150.3211 N   0  0  0  0  0  0  0  0  0  0  0  0
    9.3479   14.2623  150.9202 N   0  0  0  0  0  0  0  0  0  0  0  0
   11.5380    9.4884  147.2281 N   0  0  0  0  0  0  0  0  0  0  0  0
   12.2827    9.8565  146.1744 C   0  0  0  0  0  0  0  0  0  0  0  0
   12.4131   11.1498  145.8462 N   0  0  0  0  0  0  0  0  0  0  0  0
   11.8018   12.1076  146.5561 C   0  0  0  0  0  0  0  0  0  0  0  0
   11.0198   11.7887  147.6617 C   0  0  0  0  0  0  0  0  0  0  0  0
   10.8911   10.4514  148.0098 C   0  0  0  0  0  0  0  0  0  0  0  0
  1 11  1  0  0  0  0
  1  4  1  0  0  0  0
  2  8  1  0  0  0  0
  3 10  1  0  0  0  0
  4  5  1  0  0  0  0
  5  6  1  0  0  0  0
  7  8  2  0  0  0  0
  7 12  1  0  0  0  0
  8  9  1  0  0  0  0
  9 10  2  0  0  0  0
 10 11  1  0  0  0  0
 11 12  2  0  0  0  0
M  END
>  <CHROM.1>
-139.64605431,168.15097672,-58.44901187,11.18713839,11.68982975,147.70702163
-2.70397296,-1.07321315,2.91086130

>  <Name>
ligand

>  <RI>
0

>  <Rbt.Current_Directory>
/home/itssahil/PROJECTS/Mol_Feturizer/New_Systems/rnas/4NYA

>  <Rbt.Executable>
rbdock ($Id: //depot/dev/client3/rdock/2013.1/src/exe/rbdock.cxx#4 $)

>  <Rbt.Library>
libRbt.so (2013.1, Build901 2013/11/27)

>  <Rbt.Parameter_File>
/export/apps/rDock/src/rDock_2013.1_src/data/scripts/dock_solv.prm

>  <Rbt.Receptor>
prm/pocket_docking_4.prm

>  <SCORE>
-11.5924

>  <SCORE.INTER>
-10.7577

>  <SCORE.INTER.CONST>
1

>  <SCORE.INTER.POLAR>
0

>  <SCORE.INTER.ROT>
3

>  <SCORE.INTER.SOLV>
15.5069

>  <SCORE.INTER.VDW>
-17.9408

>  <SCORE.INTER.norm>
-0.896479

>  <SCORE.INTRA>
-0.834668

>  <SCORE.INTRA.DIHEDRAL>
-0.68321

>  <SCORE.INTRA.DIHEDRAL.0>
2.1382

>  <SCORE.INTRA.POLAR>
0

>  <SCORE.INTRA.POLAR.0>
0

>  <SCORE.INTRA.REPUL>
0

>  <SCORE.INTRA.REPUL.0>
0

>  <SCORE.INTRA.SOLV>
-1.42073

>  <SCORE.INTRA.SOLV.lig_0>
-59.6513

>  <SCORE.INTRA.VDW>
0.2173

>  <SCORE.INTRA.VDW.0>
-0.569808

>  <SCORE.INTRA.norm>
-0.0695557

>  <SCORE.RESTR>
0

>  <SCORE.RESTR.CAVITY>
0

>  <SCORE.RESTR.norm>
0

>  <SCORE.SYSTEM>
0

>  <SCORE.SYSTEM.CONST>
0

>  <SCORE.SYSTEM.DIHEDRAL>
0

>  <SCORE.SYSTEM.SOLV>
0

>  <SCORE.SYSTEM.norm>
0

>  <SCORE.heavy>
12

>  <SCORE.norm>
-0.966034

>  <RMSD>
1.059

$$$$
ligand
 OpenBabel11021811503D
libRbt.so/2013.1/901 2013/11/27
 12 12  0  0  0  0  0  0  0  0999 V2000
   10.1826   12.7541  148.2206 C   0  0  0  0  0  0  0  0  0  0  0  0
   12.9757    8.8721  145.4829 C   0  0  0  0  0  0  0  0  0  0  0  0
   11.7598   13.3652  146.1012 N   0  0  0  0  0  0  0  0  0  0  0  0
   10.2161   12.6084  149.6834 N   0  0  0  0  0  0  0  0  0  0  0  0
    9.7609   13.4434  150.2820 N   0  0  0  0  0  0  0  0  0  0  0  0
    9.3004   14.2757  150.8766 N   0  0  0  0  0  0  0  0  0  0  0  0
   11.5219    9.4950  147.2251 N   0  0  0  0  0  0  0  0  0  0  0  0
   12.2716    9.8524  146.1713 C   0  0  0  0  0  0  0  0  0  0  0  0
   12.4068   11.1426  145.8330 N   0  0  0  0  0  0  0  0  0  0  0  0
   11.7953   12.1079  146.5326 C   0  0  0  0  0  0  0  0  0  0  0  0
   11.0083   11.8001  147.6378 C   0  0  0  0  0  0  0  0  0  0  0  0
   10.8747   10.4660  147.9964 C   0  0  0  0  0  0  0  0  0  0  0  0
  1 11  1  0  0  0  0
  1  4  1  0  0  0  0
  2  8  1  0  0  0  0
  3 10  1  0  0  0  0
  4  5  1  0  0  0  0
  5  6  1  0  0  0  0
  7  8  2  0  0  0  0
  7 12  1  0  0  0  0
  8  9  1  0  0  0  0
  9 10  2  0  0  0  0
 10 11  1  0  0  0  0
 11 12  2  0  0  0  0
M  END
>  <CHROM.1>
-140.90424952,167.95617983,61.41600736,11.16862186,11.69509160,147.68537332
-2.70226376,-1.06651586,2.90800065

>  <Name>
ligand

>  <RI>
0

>  <Rbt.Current_Directory>
/home/itssahil/PROJECTS/Mol_Feturizer/New_Systems/rnas/4NYA

>  <Rbt.Executable>
rbdock ($Id: //depot/dev/client3/rdock/2013.1/src/exe/rbdock.cxx#4 $)

>  <Rbt.Library>
libRbt.so (2013.1, Build901 2013/11/27)

>  <Rbt.Parameter_File>
/export/apps/rDock/src/rDock_2013.1_src/data/scripts/dock_solv.prm

>  <Rbt.Receptor>
prm/pocket_docking_6.prm

>  <SCORE>
-11.5785

>  <SCORE.INTER>
-10.7429

>  <SCORE.INTER.CONST>
1

>  <SCORE.INTER.POLAR>
0

>  <SCORE.INTER.ROT>
3

>  <SCORE.INTER.SOLV>
15.5933

>  <SCORE.INTER.VDW>
-17.9597

>  <SCORE.INTER.norm>
-0.895244

>  <SCORE.INTRA>
-0.835535

>  <SCORE.INTRA.DIHEDRAL>
-0.704409

>  <SCORE.INTRA.DIHEDRAL.0>
2.1382

>  <SCORE.INTRA.POLAR>
0

>  <SCORE.INTRA.POLAR.0>
0

>  <SCORE.INTRA.REPUL>
0

>  <SCORE.INTRA.REPUL.0>
0

>  <SCORE.INTRA.SOLV>
-1.43185

>  <SCORE.INTRA.SOLV.lig_0>
-59.6513

>  <SCORE.INTRA.VDW>
0.232596

>  <SCORE.INTRA.VDW.0>
-0.569808

>  <SCORE.INTRA.norm>
-0.0696279

>  <SCORE.RESTR>
0

>  <SCORE.RESTR.CAVITY>
0

>  <SCORE.RESTR.norm>
0

>  <SCORE.SYSTEM>
0

>  <SCORE.SYSTEM.CONST>
0

>  <SCORE.SYSTEM.DIHEDRAL>
0

>  <SCORE.SYSTEM.SOLV>
0

>  <SCORE.SYSTEM.norm>
0

>  <SCORE.heavy>
12

>  <SCORE.norm>
-0.964872

>  <RMSD>
1.059

$$$$
ligand
 OpenBabel11021811503D
libRbt.so/2013.1/901 2013/11/27
 12 12  0  0  0  0  0  0  0  0999 V2000
   10.1836   12.7922  148.2494 C   0  0  0  0  0  0  0  0  0  0  0  0
   12.9581    8.8961  145.5128 C   0  0  0  0  0  0  0  0  0  0  0  0
   11.7722   13.3964  146.1365 N   0  0  0  0  0  0  0  0  0  0  0  0
   10.3067   12.7242  149.7131 N   0  0  0  0  0  0  0  0  0  0  0  0
    9.8244   13.5544  150.2969 N   0  0  0  0  0  0  0  0  0  0  0  0
    9.3368   14.3816  150.8769 N   0  0  0  0  0  0  0  0  0  0  0  0
   11.5031    9.5257  147.2514 N   0  0  0  0  0  0  0  0  0  0  0  0
   12.2587    9.8800  146.2009 C   0  0  0  0  0  0  0  0  0  0  0  0
   12.4042   11.1699  145.8658 N   0  0  0  0  0  0  0  0  0  0  0  0
   11.7973   12.1380  146.5654 C   0  0  0  0  0  0  0  0  0  0  0  0
   11.0045   11.8335  147.6673 C   0  0  0  0  0  0  0  0  0  0  0  0
   10.8602   10.4997  148.0227 C   0  0  0  0  0  0  0  0  0  0  0  0
  1 11  1  0  0  0  0
  1  4  1  0  0  0  0
  2  8  1  0  0  0  0
  3 10  1  0  0  0  0
  4  5  1  0  0  0  0
  5  6  1  0  0  0  0
  7  8  2  0  0  0  0
  7 12  1  0  0  0  0
  8  9  1  0  0  0  0
  9 10  2  0  0  0  0
 10 11  1  0  0  0  0
 11 12  2  0  0  0  0
M  END
>  <CHROM.1>
-135.72331922,170.33975000,59.39330577,11.18067655,11.74661836,147.71158833
-2.67173920,-1.07288837,2.92507100

>  <Name>
ligand

>  <RI>
0

>  <Rbt.Current_Directory>
/home/itssahil/PROJECTS/Mol_Feturizer/New_Systems/rnas/4NYA

>  <Rbt.Executable>
rbdock ($Id: //depot/dev/client3/rdock/2013.1/src/exe/rbdock.cxx#4 $)

>  <Rbt.Library>
libRbt.so (2013.1, Build901 2013/11/27)

>  <Rbt.Parameter_File>
/export/apps/rDock/src/rDock_2013.1_src/data/scripts/dock_solv.prm

>  <Rbt.Receptor>
prm/pocket_docking_2.prm

>  <SCORE>
-11.587

>  <SCORE.INTER>
-10.7365

>  <SCORE.INTER.CONST>
1

>  <SCORE.INTER.POLAR>
0

>  <SCORE.INTER.ROT>
3

>  <SCORE.INTER.SOLV>
15.5644

>  <SCORE.INTER.VDW>
-17.9458

>  <SCORE.INTER.norm>
-0.894709

>  <SCORE.INTRA>
-0.850442

>  <SCORE.INTRA.DIHEDRAL>
-0.634652

>  <SCORE.INTRA.DIHEDRAL.0>
2.1382

>  <SCORE.INTRA.POLAR>
0

>  <SCORE.INTRA.POLAR.0>
0

>  <SCORE.INTRA.REPUL>
0

>  <SCORE.INTRA.REPUL.0>
0

>  <SCORE.INTRA.SOLV>
-1.38268

>  <SCORE.INTRA.SOLV.lig_0>
-59.6513

>  <SCORE.INTRA.VDW>
0.158226

>  <SCORE.INTRA.VDW.0>
-0.569808

>  <SCORE.INTRA.norm>
-0.0708701

>  <SCORE.RESTR>
0

>  <SCORE.RESTR.CAVITY>
0

>  <SCORE.RESTR.norm>
0

>  <SCORE.SYSTEM>
0

>  <SCORE.SYSTEM.CONST>
0

>  <SCORE.SYSTEM.DIHEDRAL>
0

>  <SCORE.SYSTEM.SOLV>
0

>  <SCORE.SYSTEM.norm>
0

>  <SCORE.heavy>
12

>  <SCORE.norm>
-0.965579

>  <RMSD>
1.061

$$$$
ligand
 OpenBabel11021811503D
libRbt.so/2013.1/901 2013/11/27
 12 12  0  0  0  0  0  0  0  0999 V2000
   10.2111   12.8279  148.2959 C   0  0  0  0  0  0  0  0  0  0  0  0
   12.9511    8.9255  145.5336 C   0  0  0  0  0  0  0  0  0  0  0  0
   11.6710   13.4093  146.0860 N   0  0  0  0  0  0  0  0  0  0  0  0
   10.4118   12.8090  149.7524 N   0  0  0  0  0  0  0  0  0  0  0  0
    9.9073   13.6235  150.3396 N   0  0  0  0  0  0  0  0  0  0  0  0
    9.4070   14.4413  150.9222 N   0  0  0  0  0  0  0  0  0  0  0  0
   11.5700    9.5690  147.3267 N   0  0  0  0  0  0  0  0  0  0  0  0
   12.2603    9.9109  146.2281 C   0  0  0  0  0  0  0  0  0  0  0  0
   12.3515   11.1933  145.8481 N   0  0  0  0  0  0  0  0  0  0  0  0
   11.7540   12.1659  146.5498 C   0  0  0  0  0  0  0  0  0  0  0  0
   11.0279   11.8742  147.7001 C   0  0  0  0  0  0  0  0  0  0  0  0
   10.9402   10.5486  148.1016 C   0  0  0  0  0  0  0  0  0  0  0  0
  1 11  1  0  0  0  0
  1  4  1  0  0  0  0
  2  8  1  0  0  0  0
  3 10  1  0  0  0  0
  4  5  1  0  0  0  0
  5  6  1  0  0  0  0
  7  8  2  0  0  0  0
  7 12  1  0  0  0  0
  8  9  1  0  0  0  0
  9 10  2  0  0  0  0
 10 11  1  0  0  0  0
 11 12  2  0  0  0  0
M  END
>  <CHROM.1>
-135.69111333,172.37761738,-58.27203770,11.20187744,11.78901385,147.73844035
-2.76605837,-1.11125237,2.81438895

>  <Name>
ligand

>  <RI>
0

>  <Rbt.Current_Directory>
/home/itssahil/PROJECTS/Mol_Feturizer/New_Systems/rnas/4NYA

>  <Rbt.Executable>
rbdock ($Id: //depot/dev/client3/rdock/2013.1/src/exe/rbdock.cxx#4 $)

>  <Rbt.Library>
libRbt.so (2013.1, Build901 2013/11/27)

>  <Rbt.Parameter_File>
/export/apps/rDock/src/rDock_2013.1_src/data/scripts/dock_solv.prm

>  <Rbt.Receptor>
prm/pocket_docking_2.prm

>  <SCORE>
-11.5455

>  <SCORE.INTER>
-10.683

>  <SCORE.INTER.CONST>
1

>  <SCORE.INTER.POLAR>
0

>  <SCORE.INTER.ROT>
3

>  <SCORE.INTER.SOLV>
15.7661

>  <SCORE.INTER.VDW>
-17.9774

>  <SCORE.INTER.norm>
-0.890248

>  <SCORE.INTRA>
-0.862545

>  <SCORE.INTRA.DIHEDRAL>
-0.661157

>  <SCORE.INTRA.DIHEDRAL.0>
2.1382

>  <SCORE.INTRA.POLAR>
0

>  <SCORE.INTRA.POLAR.0>
0

>  <SCORE.INTRA.REPUL>
0

>  <SCORE.INTRA.REPUL.0>
0

>  <SCORE.INTRA.SOLV>
-1.38054

>  <SCORE.INTRA.SOLV.lig_0>
-59.6513

>  <SCORE.INTRA.VDW>
0.158304

>  <SCORE.INTRA.VDW.0>
-0.569808

>  <SCORE.INTRA.norm>
-0.0718788

>  <SCORE.RESTR>
0

>  <SCORE.RESTR.CAVITY>
0

>  <SCORE.RESTR.norm>
0

>  <SCORE.SYSTEM>
0

>  <SCORE.SYSTEM.CONST>
0

>  <SCORE.SYSTEM.DIHEDRAL>
0

>  <SCORE.SYSTEM.SOLV>
0

>  <SCORE.SYSTEM.norm>
0

>  <SCORE.heavy>
12

>  <SCORE.norm>
-0.962127

>  <RMSD>
1.061

$$$$
ligand
 OpenBabel11021811503D
libRbt.so/2013.1/901 2013/11/27
 12 12  0  0  0  0  0  0  0  0999 V2000
   10.1865   12.8302  148.2554 C   0  0  0  0  0  0  0  0  0  0  0  0
   12.8734    8.8755  145.5156 C   0  0  0  0  0  0  0  0  0  0  0  0
   11.7741   13.3988  146.1320 N   0  0  0  0  0  0  0  0  0  0  0  0
   10.3207   12.7680  149.7184 N   0  0  0  0  0  0  0  0  0  0  0  0
    9.8535   13.6071  150.3018 N   0  0  0  0  0  0  0  0  0  0  0  0
    9.3909   14.4492  150.8808 N   0  0  0  0  0  0  0  0  0  0  0  0
   11.4399    9.5370  147.2602 N   0  0  0  0  0  0  0  0  0  0  0  0
   12.1961    9.8741  146.2045 C   0  0  0  0  0  0  0  0  0  0  0  0
   12.3635   11.1601  145.8646 N   0  0  0  0  0  0  0  0  0  0  0  0
   11.7785   12.1414  146.5646 C   0  0  0  0  0  0  0  0  0  0  0  0
   10.9862   11.8549  147.6718 C   0  0  0  0  0  0  0  0  0  0  0  0
   10.8194   10.5250  148.0320 C   0  0  0  0  0  0  0  0  0  0  0  0
  1 11  1  0  0  0  0
  1  4  1  0  0  0  0
  2  8  1  0  0  0  0
  3 10  1  0  0  0  0
  4  5  1  0  0  0  0
  5  6  1  0  0  0  0
  7  8  2  0  0  0  0
  7 12  1  0  0  0  0
  8  9  1  0  0  0  0
  9 10  2  0  0  0  0
 10 11  1  0  0  0  0
 11 12  2  0  0  0  0
M  END
>  <CHROM.1>
-135.48838610,170.58504859,-57.72978610,11.16215200,11.76590673,147.71510136
-2.63473224,-1.08254922,2.95396562

>  <Name>
ligand

>  <RI>
0

>  <Rbt.Current_Directory>
/home/itssahil/PROJECTS/Mol_Feturizer/New_Systems/rnas/4NYA

>  <Rbt.Executable>
rbdock ($Id: //depot/dev/client3/rdock/2013.1/src/exe/rbdock.cxx#4 $)

>  <Rbt.Library>
libRbt.so (2013.1, Build901 2013/11/27)

>  <Rbt.Parameter_File>
/export/apps/rDock/src/rDock_2013.1_src/data/scripts/dock_solv.prm

>  <Rbt.Receptor>
prm/pocket_docking_2.prm

>  <SCORE>
-11.5954

>  <SCORE.INTER>
-10.7455

>  <SCORE.INTER.CONST>
1

>  <SCORE.INTER.POLAR>
0

>  <SCORE.INTER.ROT>
3

>  <SCORE.INTER.SOLV>
15.498

>  <SCORE.INTER.VDW>
-17.9296

>  <SCORE.INTER.norm>
-0.895456

>  <SCORE.INTRA>
-0.849948

>  <SCORE.INTRA.DIHEDRAL>
-0.631519

>  <SCORE.INTRA.DIHEDRAL.0>
2.1382

>  <SCORE.INTRA.POLAR>
0

>  <SCORE.INTRA.POLAR.0>
0

>  <SCORE.INTRA.REPUL>
0

>  <SCORE.INTRA.REPUL.0>
0

>  <SCORE.INTRA.SOLV>
-1.38008

>  <SCORE.INTRA.SOLV.lig_0>
-59.6513

>  <SCORE.INTRA.VDW>
0.155853

>  <SCORE.INTRA.VDW.0>
-0.569808

>  <SCORE.INTRA.norm>
-0.070829

>  <SCORE.RESTR>
0

>  <SCORE.RESTR.CAVITY>
0

>  <SCORE.RESTR.norm>
0

>  <SCORE.SYSTEM>
0

>  <SCORE.SYSTEM.CONST>
0

>  <SCORE.SYSTEM.DIHEDRAL>
0

>  <SCORE.SYSTEM.SOLV>
0

>  <SCORE.SYSTEM.norm>
0

>  <SCORE.heavy>
12

>  <SCORE.norm>
-0.966285

>  <RMSD>
1.062

$$$$
ligand
 OpenBabel11021811503D
libRbt.so/2013.1/901 2013/11/27
 12 12  0  0  0  0  0  0  0  0999 V2000
   10.1679   12.7714  148.2194 C   0  0  0  0  0  0  0  0  0  0  0  0
   12.9580    8.8830  145.4877 C   0  0  0  0  0  0  0  0  0  0  0  0
   11.7717   13.3820  146.1199 N   0  0  0  0  0  0  0  0  0  0  0  0
   10.2386   12.6615  149.6840 N   0  0  0  0  0  0  0  0  0  0  0  0
    9.7850   13.5037  150.2734 N   0  0  0  0  0  0  0  0  0  0  0  0
    9.3339   14.3415  150.8676 N   0  0  0  0  0  0  0  0  0  0  0  0
   11.4914    9.5075  147.2184 N   0  0  0  0  0  0  0  0  0  0  0  0
   12.2547    9.8649  146.1746 C   0  0  0  0  0  0  0  0  0  0  0  0
   12.4036   11.1559  145.8453 N   0  0  0  0  0  0  0  0  0  0  0  0
   11.7927   12.1220  146.5443 C   0  0  0  0  0  0  0  0  0  0  0  0
   10.9919   11.8142  147.6395 C   0  0  0  0  0  0  0  0  0  0  0  0
   10.8440   10.4792  147.9888 C   0  0  0  0  0  0  0  0  0  0  0  0
  1 11  1  0  0  0  0
  1  4  1  0  0  0  0
  2  8  1  0  0  0  0
  3 10  1  0  0  0  0
  4  5  1  0  0  0  0
  5  6  1  0  0  0  0
  7  8  2  0  0  0  0
  7 12  1  0  0  0  0
  8  9  1  0  0  0  0
  9 10  2  0  0  0  0
 10 11  1  0  0  0  0
 11 12  2  0  0  0  0
M  END
>  <CHROM.1>
-138.02166611,168.08249917,-178.85406229,11.16579171,11.72091505,147.68703598
-2.66949797,-1.06647040,2.93442715

>  <Name>
ligand

>  <RI>
0

>  <Rbt.Current_Directory>
/home/itssahil/PROJECTS/Mol_Feturizer/New_Systems/rnas/4NYA

>  <Rbt.Executable>
rbdock ($Id: //depot/dev/client3/rdock/2013.1/src/exe/rbdock.cxx#4 $)

>  <Rbt.Library>
libRbt.so (2013.1, Build901 2013/11/27)

>  <Rbt.Parameter_File>
/export/apps/rDock/src/rDock_2013.1_src/data/scripts/dock_solv.prm

>  <Rbt.Receptor>
prm/pocket_docking_3.prm

>  <SCORE>
-11.5803

>  <SCORE.INTER>
-10.7479

>  <SCORE.INTER.CONST>
1

>  <SCORE.INTER.POLAR>
0

>  <SCORE.INTER.ROT>
3

>  <SCORE.INTER.SOLV>
15.514

>  <SCORE.INTER.VDW>
-17.9366

>  <SCORE.INTER.norm>
-0.89566

>  <SCORE.INTRA>
-0.832366

>  <SCORE.INTRA.DIHEDRAL>
-0.648251

>  <SCORE.INTRA.DIHEDRAL.0>
2.1382

>  <SCORE.INTRA.POLAR>
0

>  <SCORE.INTRA.POLAR.0>
0

>  <SCORE.INTRA.REPUL>
0

>  <SCORE.INTRA.REPUL.0>
0

>  <SCORE.INTRA.SOLV>
-1.41036

>  <SCORE.INTRA.SOLV.lig_0>
-59.6513

>  <SCORE.INTRA.VDW>
0.196942

>  <SCORE.INTRA.VDW.0>
-0.569808

>  <SCORE.INTRA.norm>
-0.0693638

>  <SCORE.RESTR>
0

>  <SCORE.RESTR.CAVITY>
0

>  <SCORE.RESTR.norm>
0

>  <SCORE.SYSTEM>
0

>  <SCORE.SYSTEM.CONST>
0

>  <SCORE.SYSTEM.DIHEDRAL>
0

>  <SCORE.SYSTEM.SOLV>
0

>  <SCORE.SYSTEM.norm>
0

>  <SCORE.heavy>
12

>  <SCORE.norm>
-0.965023

>  <RMSD>
1.062

$$$$
ligand
 OpenBabel11021811503D
libRbt.so/2013.1/901 2013/11/27
 12 12  0  0  0  0  0  0  0  0999 V2000
   10.1882   12.7405  148.2226 C   0  0  0  0  0  0  0  0  0  0  0  0
   12.9968    8.8684  145.4868 C   0  0  0  0  0  0  0  0  0  0  0  0
   11.7548   13.3555  146.0964 N   0  0  0  0  0  0  0  0  0  0  0  0
   10.2551   12.6227  149.6868 N   0  0  0  0  0  0  0  0  0  0  0  0
    9.7660   13.4426  150.2795 N   0  0  0  0  0  0  0  0  0  0  0  0
    9.2718   14.2595  150.8685 N   0  0  0  0  0  0  0  0  0  0  0  0
   11.5447    9.4871  147.2318 N   0  0  0  0  0  0  0  0  0  0  0  0
   12.2888    9.8462  146.1747 C   0  0  0  0  0  0  0  0  0  0  0  0
   12.4148   11.1363  145.8324 N   0  0  0  0  0  0  0  0  0  0  0  0
   11.7996   12.0997  146.5313 C   0  0  0  0  0  0  0  0  0  0  0  0
   11.0180   11.7901  147.6398 C   0  0  0  0  0  0  0  0  0  0  0  0
   10.8938   10.4562  148.0026 C   0  0  0  0  0  0  0  0  0  0  0  0
  1 11  1  0  0  0  0
  1  4  1  0  0  0  0
  2  8  1  0  0  0  0
  3 10  1  0  0  0  0
  4  5  1  0  0  0  0
  5  6  1  0  0  0  0
  7  8  2  0  0  0  0
  7 12  1  0  0  0  0
  8  9  1  0  0  0  0
  9 10  2  0  0  0  0
 10 11  1  0  0  0  0
 11 12  2  0  0  0  0
M  END
>  <CHROM.1>
-139.39339236,170.05406082,61.68975881,11.17842542,11.68870468,147.68616235
-2.71698220,-1.06700874,2.89102579

>  <Name>
ligand

>  <RI>
0

>  <Rbt.Current_Directory>
/home/itssahil/PROJECTS/Mol_Feturizer/New_Systems/rnas/4NYA

>  <Rbt.Executable>
rbdock ($Id: //depot/dev/client3/rdock/2013.1/src/exe/rbdock.cxx#4 $)

>  <Rbt.Library>
libRbt.so (2013.1, Build901 2013/11/27)

>  <Rbt.Parameter_File>
/export/apps/rDock/src/rDock_2013.1_src/data/scripts/dock_solv.prm

>  <Rbt.Receptor>
prm/pocket_docking_2.prm

>  <SCORE>
-11.5751

>  <SCORE.INTER>
-10.7259

>  <SCORE.INTER.CONST>
1

>  <SCORE.INTER.POLAR>
0

>  <SCORE.INTER.ROT>
3

>  <SCORE.INTER.SOLV>
15.7127

>  <SCORE.INTER.VDW>
-17.9881

>  <SCORE.INTER.norm>
-0.893822

>  <SCORE.INTRA>
-0.849217

>  <SCORE.INTRA.DIHEDRAL>
-0.710231

>  <SCORE.INTRA.DIHEDRAL.0>
2.1382

>  <SCORE.INTRA.POLAR>
0

>  <SCORE.INTRA.POLAR.0>
0

>  <SCORE.INTRA.REPUL>
0

>  <SCORE.INTRA.REPUL.0>
0

>  <SCORE.INTRA.SOLV>
-1.41771

>  <SCORE.INTRA.SOLV.lig_0>
-59.6513

>  <SCORE.INTRA.VDW>
0.214752

>  <SCORE.INTRA.VDW.0>
-0.569808

>  <SCORE.INTRA.norm>
-0.0707681

>  <SCORE.RESTR>
0

>  <SCORE.RESTR.CAVITY>
0

>  <SCORE.RESTR.norm>
0

>  <SCORE.SYSTEM>
0

>  <SCORE.SYSTEM.CONST>
0

>  <SCORE.SYSTEM.DIHEDRAL>
0

>  <SCORE.SYSTEM.SOLV>
0

>  <SCORE.SYSTEM.norm>
0

>  <SCORE.heavy>
12

>  <SCORE.norm>
-0.96459

>  <RMSD>
1.063

$$$$
ligand
 OpenBabel11021811503D
libRbt.so/2013.1/901 2013/11/27
 12 12  0  0  0  0  0  0  0  0999 V2000
   10.1985   12.8202  148.2199 C   0  0  0  0  0  0  0  0  0  0  0  0
   12.8937    8.8405  145.5246 C   0  0  0  0  0  0  0  0  0  0  0  0
   11.7749   13.3667  146.0824 N   0  0  0  0  0  0  0  0  0  0  0  0
   10.2365   12.6944  149.6845 N   0  0  0  0  0  0  0  0  0  0  0  0
    9.7912   13.5417  150.2732 N   0  0  0  0  0  0  0  0  0  0  0  0
    9.3407   14.3866  150.8577 N   0  0  0  0  0  0  0  0  0  0  0  0
   11.4639    9.5195  147.2657 N   0  0  0  0  0  0  0  0  0  0  0  0
   12.2143    9.8455  146.2023 C   0  0  0  0  0  0  0  0  0  0  0  0
   12.3741   11.1274  145.8438 N   0  0  0  0  0  0  0  0  0  0  0  0
   11.7871   12.1155  146.5325 C   0  0  0  0  0  0  0  0  0  0  0  0
   11.0006   11.8407  147.6467 C   0  0  0  0  0  0  0  0  0  0  0  0
   10.8417   10.5152  148.0261 C   0  0  0  0  0  0  0  0  0  0  0  0
  1 11  1  0  0  0  0
  1  4  1  0  0  0  0
  2  8  1  0  0  0  0
  3 10  1  0  0  0  0
  4  5  1  0  0  0  0
  5  6  1  0  0  0  0
  7  8  2  0  0  0  0
  7 12  1  0  0  0  0
  8  9  1  0  0  0  0
  9 10  2  0  0  0  0
 10 11  1  0  0  0  0
 11 12  2  0  0  0  0
M  END
>  <CHROM.1>
-140.98376633,168.66253124,58.96597692,11.15578776,11.73123764,147.69491020
-2.66547181,-1.07496317,2.92656195

>  <Name>
ligand

>  <RI>
0

>  <Rbt.Current_Directory>
/home/itssahil/PROJECTS/Mol_Feturizer/New_Systems/rnas/4NYA

>  <Rbt.Executable>
rbdock ($Id: //depot/dev/client3/rdock/2013.1/src/exe/rbdock.cxx#4 $)

>  <Rbt.Library>
libRbt.so (2013.1, Build901 2013/11/27)

>  <Rbt.Parameter_File>
/export/apps/rDock/src/rDock_2013.1_src/data/scripts/dock_solv.prm

>  <Rbt.Receptor>
prm/pocket_docking_4.prm

>  <SCORE>
-11.581

>  <SCORE.INTER>
-10.7393

>  <SCORE.INTER.CONST>
1

>  <SCORE.INTER.POLAR>
0

>  <SCORE.INTER.ROT>
3

>  <SCORE.INTER.SOLV>
15.6118

>  <SCORE.INTER.VDW>
-17.9635

>  <SCORE.INTER.norm>
-0.894942

>  <SCORE.INTRA>
-0.841739

>  <SCORE.INTRA.DIHEDRAL>
-0.718924

>  <SCORE.INTRA.DIHEDRAL.0>
2.1382

>  <SCORE.INTRA.POLAR>
0

>  <SCORE.INTRA.POLAR.0>
0

>  <SCORE.INTRA.REPUL>
0

>  <SCORE.INTRA.REPUL.0>
0

>  <SCORE.INTRA.SOLV>
-1.43219

>  <SCORE.INTRA.SOLV.lig_0>
-59.6513

>  <SCORE.INTRA.VDW>
0.233817

>  <SCORE.INTRA.VDW.0>
-0.569808

>  <SCORE.INTRA.norm>
-0.070145

>  <SCORE.RESTR>
0

>  <SCORE.RESTR.CAVITY>
0

>  <SCORE.RESTR.norm>
0

>  <SCORE.SYSTEM>
0

>  <SCORE.SYSTEM.CONST>
0

>  <SCORE.SYSTEM.DIHEDRAL>
0

>  <SCORE.SYSTEM.SOLV>
0

>  <SCORE.SYSTEM.norm>
0

>  <SCORE.heavy>
12

>  <SCORE.norm>
-0.965087

>  <RMSD>
1.063

$$$$
ligand
 OpenBabel11021811503D
libRbt.so/2013.1/901 2013/11/27
 12 12  0  0  0  0  0  0  0  0999 V2000
   10.1781   12.7509  148.1491 C   0  0  0  0  0  0  0  0  0  0  0  0
   13.0557    8.9045  145.4489 C   0  0  0  0  0  0  0  0  0  0  0  0
   11.7690   13.3808  146.0454 N   0  0  0  0  0  0  0  0  0  0  0  0
   10.2344   12.6398  149.6142 N   0  0  0  0  0  0  0  0  0  0  0  0
    9.6815   13.4240  150.1991 N   0  0  0  0  0  0  0  0  0  0  0  0
    9.1238   14.2049  150.7800 N   0  0  0  0  0  0  0  0  0  0  0  0
   11.5746    9.5096  147.1742 N   0  0  0  0  0  0  0  0  0  0  0  0
   12.3303    9.8759  146.1278 C   0  0  0  0  0  0  0  0  0  0  0  0
   12.4506   11.1672  145.7885 N   0  0  0  0  0  0  0  0  0  0  0  0
   11.8180   12.1249  146.4797 C   0  0  0  0  0  0  0  0  0  0  0  0
   11.0236   11.8078  147.5769 C   0  0  0  0  0  0  0  0  0  0  0  0
   10.9053   10.4726  147.9367 C   0  0  0  0  0  0  0  0  0  0  0  0
  1 11  1  0  0  0  0
  1  4  1  0  0  0  0
  2  8  1  0  0  0  0
  3 10  1  0  0  0  0
  4  5  1  0  0  0  0
  5  6  1  0  0  0  0
  7  8  2  0  0  0  0
  7 12  1  0  0  0  0
  8  9  1  0  0  0  0
  9 10  2  0  0  0  0
 10 11  1  0  0  0  0
 11 12  2  0  0  0  0
M  END
>  <CHROM.1>
-138.91527850,173.42686248,61.32426178,11.17372321,11.70158638,147.62504833
-2.73433673,-1.04444189,2.88122884

>  <Name>
ligand

>  <RI>
0

>  <Rbt.Current_Directory>
/home/itssahil/PROJECTS/Mol_Feturizer/New_Systems/rnas/4NYA

>  <Rbt.Executable>
rbdock ($Id: //depot/dev/client3/rdock/2013.1/src/exe/rbdock.cxx#4 $)

>  <Rbt.Library>
libRbt.so (2013.1, Build901 2013/11/27)

>  <Rbt.Parameter_File>
/export/apps/rDock/src/rDock_2013.1_src/data/scripts/dock_solv.prm

>  <Rbt.Receptor>
prm/pocket_docking_3.prm

>  <SCORE>
-11.5237

>  <SCORE.INTER>
-10.6557

>  <SCORE.INTER.CONST>
1

>  <SCORE.INTER.POLAR>
0

>  <SCORE.INTER.ROT>
3

>  <SCORE.INTER.SOLV>
15.9884

>  <SCORE.INTER.VDW>
-18.0333

>  <SCORE.INTER.norm>
-0.887975

>  <SCORE.INTRA>
-0.86804

>  <SCORE.INTRA.DIHEDRAL>
-0.745009

>  <SCORE.INTRA.DIHEDRAL.0>
2.1382

>  <SCORE.INTRA.POLAR>
0

>  <SCORE.INTRA.POLAR.0>
0

>  <SCORE.INTRA.REPUL>
0

>  <SCORE.INTRA.REPUL.0>
0

>  <SCORE.INTRA.SOLV>
-1.41052

>  <SCORE.INTRA.SOLV.lig_0>
-59.6513

>  <SCORE.INTRA.VDW>
0.209725

>  <SCORE.INTRA.VDW.0>
-0.569808

>  <SCORE.INTRA.norm>
-0.0723366

>  <SCORE.RESTR>
0

>  <SCORE.RESTR.CAVITY>
0

>  <SCORE.RESTR.norm>
0

>  <SCORE.SYSTEM>
0

>  <SCORE.SYSTEM.CONST>
0

>  <SCORE.SYSTEM.DIHEDRAL>
0

>  <SCORE.SYSTEM.SOLV>
0

>  <SCORE.SYSTEM.norm>
0

>  <SCORE.heavy>
12

>  <SCORE.norm>
-0.960311

>  <RMSD>
1.065

$$$$
ligand
 OpenBabel11021811503D
libRbt.so/2013.1/901 2013/11/27
 12 12  0  0  0  0  0  0  0  0999 V2000
   10.2016   12.7622  148.2314 C   0  0  0  0  0  0  0  0  0  0  0  0
   12.9137    8.8399  145.4697 C   0  0  0  0  0  0  0  0  0  0  0  0
   11.7663   13.3499  146.0961 N   0  0  0  0  0  0  0  0  0  0  0  0
   10.2378   12.6092  149.6934 N   0  0  0  0  0  0  0  0  0  0  0  0
    9.8038   13.4516  150.2974 N   0  0  0  0  0  0  0  0  0  0  0  0
    9.3750   14.2967  150.8977 N   0  0  0  0  0  0  0  0  0  0  0  0
   11.4859    9.4842  147.2254 N   0  0  0  0  0  0  0  0  0  0  0  0
   12.2300    9.8304  146.1641 C   0  0  0  0  0  0  0  0  0  0  0  0
   12.3798   11.1184  145.8234 N   0  0  0  0  0  0  0  0  0  0  0  0
   11.7887   12.0925  146.5282 C   0  0  0  0  0  0  0  0  0  0  0  0
   11.0083   11.7965  147.6413 C   0  0  0  0  0  0  0  0  0  0  0  0
   10.8597   10.4646  148.0023 C   0  0  0  0  0  0  0  0  0  0  0  0
  1 11  1  0  0  0  0
  1  4  1  0  0  0  0
  2  8  1  0  0  0  0
  3 10  1  0  0  0  0
  4  5  1  0  0  0  0
  5  6  1  0  0  0  0
  7  8  2  0  0  0  0
  7 12  1  0  0  0  0
  8  9  1  0  0  0  0
  9 10  2  0  0  0  0
 10 11  1  0  0  0  0
 11 12  2  0  0  0  0
M  END
>  <CHROM.1>
-141.41990710,167.68261509,-59.90894346,11.16697647,11.68787777,147.68771887
-2.67880568,-1.07897926,2.92869122

>  <Name>
ligand

>  <RI>
0

>  <Rbt.Current_Directory>
/home/itssahil/PROJECTS/Mol_Feturizer/New_Systems/rnas/4NYA

>  <Rbt.Executable>
rbdock ($Id: //depot/dev/client3/rdock/2013.1/src/exe/rbdock.cxx#4 $)

>  <Rbt.Library>
libRbt.so (2013.1, Build901 2013/11/27)

>  <Rbt.Parameter_File>
/export/apps/rDock/src/rDock_2013.1_src/data/scripts/dock_solv.prm

>  <Rbt.Receptor>
prm/pocket_docking_2.prm

>  <SCORE>
-11.5837

>  <SCORE.INTER>
-10.7499

>  <SCORE.INTER.CONST>
1

>  <SCORE.INTER.POLAR>
0

>  <SCORE.INTER.ROT>
3

>  <SCORE.INTER.SOLV>
15.5391

>  <SCORE.INTER.VDW>
-17.9463

>  <SCORE.INTER.norm>
-0.895823

>  <SCORE.INTRA>
-0.833854

>  <SCORE.INTRA.DIHEDRAL>
-0.709503

>  <SCORE.INTRA.DIHEDRAL.0>
2.1382

>  <SCORE.INTRA.POLAR>
0

>  <SCORE.INTRA.POLAR.0>
0

>  <SCORE.INTRA.REPUL>
0

>  <SCORE.INTRA.REPUL.0>
0

>  <SCORE.INTRA.SOLV>
-1.43622

>  <SCORE.INTRA.SOLV.lig_0>
-59.6513

>  <SCORE.INTRA.VDW>
0.239006

>  <SCORE.INTRA.VDW.0>
-0.569808

>  <SCORE.INTRA.norm>
-0.0694878

>  <SCORE.RESTR>
0

>  <SCORE.RESTR.CAVITY>
0

>  <SCORE.RESTR.norm>
0

>  <SCORE.SYSTEM>
0

>  <SCORE.SYSTEM.CONST>
0

>  <SCORE.SYSTEM.DIHEDRAL>
0

>  <SCORE.SYSTEM.SOLV>
0

>  <SCORE.SYSTEM.norm>
0

>  <SCORE.heavy>
12

>  <SCORE.norm>
-0.965311

>  <RMSD>
1.066

$$$$
ligand
 OpenBabel11021811503D
libRbt.so/2013.1/901 2013/11/27
 12 12  0  0  0  0  0  0  0  0999 V2000
   10.1667   12.7736  148.2261 C   0  0  0  0  0  0  0  0  0  0  0  0
   12.9609    8.8922  145.4886 C   0  0  0  0  0  0  0  0  0  0  0  0
   11.7811   13.3907  146.1367 N   0  0  0  0  0  0  0  0  0  0  0  0
   10.2713   12.6915  149.6906 N   0  0  0  0  0  0  0  0  0  0  0  0
    9.8091   13.5326  150.2750 N   0  0  0  0  0  0  0  0  0  0  0  0
    9.3415   14.3707  150.8560 N   0  0  0  0  0  0  0  0  0  0  0  0
   11.4879    9.5116  147.2157 N   0  0  0  0  0  0  0  0  0  0  0  0
   12.2566    9.8724  146.1769 C   0  0  0  0  0  0  0  0  0  0  0  0
   12.4097   11.1646  145.8544 N   0  0  0  0  0  0  0  0  0  0  0  0
   11.7977   12.1287  146.5552 C   0  0  0  0  0  0  0  0  0  0  0  0
   10.9913   11.8174  147.6454 C   0  0  0  0  0  0  0  0  0  0  0  0
   10.8391   10.4811  147.9878 C   0  0  0  0  0  0  0  0  0  0  0  0
  1 11  1  0  0  0  0
  1  4  1  0  0  0  0
  2  8  1  0  0  0  0
  3 10  1  0  0  0  0
  4  5  1  0  0  0  0
  5  6  1  0  0  0  0
  7  8  2  0  0  0  0
  7 12  1  0  0  0  0
  8  9  1  0  0  0  0
  9 10  2  0  0  0  0
 10 11  1  0  0  0  0
 11 12  2  0  0  0  0
M  END
>  <CHROM.1>
-135.81052867,168.71612899,61.95535152,11.17270990,11.73293501,147.69077406
-2.65522914,-1.06590329,2.94556782

>  <Name>
ligand

>  <RI>
0

>  <Rbt.Current_Directory>
/home/itssahil/PROJECTS/Mol_Feturizer/New_Systems/rnas/4NYA

>  <Rbt.Executable>
rbdock ($Id: //depot/dev/client3/rdock/2013.1/src/exe/rbdock.cxx#4 $)

>  <Rbt.Library>
libRbt.so (2013.1, Build901 2013/11/27)

>  <Rbt.Parameter_File>
/export/apps/rDock/src/rDock_2013.1_src/data/scripts/dock_solv.prm

>  <Rbt.Receptor>
prm/pocket_docking_2.prm

>  <SCORE>
-11.5858

>  <SCORE.INTER>
-10.7476

>  <SCORE.INTER.CONST>
1

>  <SCORE.INTER.POLAR>
0

>  <SCORE.INTER.ROT>
3

>  <SCORE.INTER.SOLV>
15.5075

>  <SCORE.INTER.VDW>
-17.9342

>  <SCORE.INTER.norm>
-0.895631

>  <SCORE.INTRA>
-0.838244

>  <SCORE.INTRA.DIHEDRAL>
-0.609163

>  <SCORE.INTRA.DIHEDRAL.0>
2.1382

>  <SCORE.INTRA.POLAR>
0

>  <SCORE.INTRA.POLAR.0>
0

>  <SCORE.INTRA.REPUL>
0

>  <SCORE.INTRA.REPUL.0>
0

>  <SCORE.INTRA.SOLV>
-1.38467

>  <SCORE.INTRA.SOLV.lig_0>
-59.6513

>  <SCORE.INTRA.VDW>
0.158675

>  <SCORE.INTRA.VDW.0>
-0.569808

>  <SCORE.INTRA.norm>
-0.0698537

>  <SCORE.RESTR>
0

>  <SCORE.RESTR.CAVITY>
0

>  <SCORE.RESTR.norm>
0

>  <SCORE.SYSTEM>
0

>  <SCORE.SYSTEM.CONST>
0

>  <SCORE.SYSTEM.DIHEDRAL>
0

>  <SCORE.SYSTEM.SOLV>
0

>  <SCORE.SYSTEM.norm>
0

>  <SCORE.heavy>
12

>  <SCORE.norm>
-0.965485

>  <RMSD>
1.066

$$$$
ligand
 OpenBabel11021811503D
libRbt.so/2013.1/901 2013/11/27
 12 12  0  0  0  0  0  0  0  0999 V2000
   10.2596   12.7310  148.2896 C   0  0  0  0  0  0  0  0  0  0  0  0
   13.0448    8.9131  145.4554 C   0  0  0  0  0  0  0  0  0  0  0  0
   11.7639   13.3801  146.1289 N   0  0  0  0  0  0  0  0  0  0  0  0
   10.3885   12.6244  149.7506 N   0  0  0  0  0  0  0  0  0  0  0  0
    9.8614   13.4079  150.3597 N   0  0  0  0  0  0  0  0  0  0  0  0
    9.3389   14.1948  150.9648 N   0  0  0  0  0  0  0  0  0  0  0  0
   11.6302    9.5016  147.2412 N   0  0  0  0  0  0  0  0  0  0  0  0
   12.3426    9.8773  146.1681 C   0  0  0  0  0  0  0  0  0  0  0  0
   12.4441   11.1711  145.8320 N   0  0  0  0  0  0  0  0  0  0  0  0
   11.8351   12.1219  146.5533 C   0  0  0  0  0  0  0  0  0  0  0  0
   11.0859   11.7950  147.6791 C   0  0  0  0  0  0  0  0  0  0  0  0
   10.9874   10.4572  148.0352 C   0  0  0  0  0  0  0  0  0  0  0  0
  1 11  1  0  0  0  0
  1  4  1  0  0  0  0
  2  8  1  0  0  0  0
  3 10  1  0  0  0  0
  4  5  1  0  0  0  0
  5  6  1  0  0  0  0
  7  8  2  0  0  0  0
  7 12  1  0  0  0  0
  8  9  1  0  0  0  0
  9 10  2  0  0  0  0
 10 11  1  0  0  0  0
 11 12  2  0  0  0  0
M  END
>  <CHROM.1>
-138.11188640,173.10083458,-60.09890418,11.24429947,11.69439225,147.72007360
-2.75976188,-1.08492316,2.86151882

>  <Name>
ligand

>  <RI>
0

>  <Rbt.Current_Directory>
/home/itssahil/PROJECTS/Mol_Feturizer/New_Systems/rnas/4NYA

>  <Rbt.Executable>
rbdock ($Id: //depot/dev/client3/rdock/2013.1/src/exe/rbdock.cxx#4 $)

>  <Rbt.Library>
libRbt.so (2013.1, Build901 2013/11/27)

>  <Rbt.Parameter_File>
/export/apps/rDock/src/rDock_2013.1_src/data/scripts/dock_solv.prm

>  <Rbt.Receptor>
prm/pocket_docking_3.prm

>  <SCORE>
-11.5737

>  <SCORE.INTER>
-10.7101

>  <SCORE.INTER.CONST>
1

>  <SCORE.INTER.POLAR>
0

>  <SCORE.INTER.ROT>
3

>  <SCORE.INTER.SOLV>
15.8002

>  <SCORE.INTER.VDW>
-18.0068

>  <SCORE.INTER.norm>
-0.892505

>  <SCORE.INTRA>
-0.86364

>  <SCORE.INTRA.DIHEDRAL>
-0.724904

>  <SCORE.INTRA.DIHEDRAL.0>
2.1382

>  <SCORE.INTRA.POLAR>
0

>  <SCORE.INTRA.POLAR.0>
0

>  <SCORE.INTRA.REPUL>
0

>  <SCORE.INTRA.REPUL.0>
0

>  <SCORE.INTRA.SOLV>
-1.40335

>  <SCORE.INTRA.SOLV.lig_0>
-59.6513

>  <SCORE.INTRA.VDW>
0.200487

>  <SCORE.INTRA.VDW.0>
-0.569808

>  <SCORE.INTRA.norm>
-0.07197

>  <SCORE.RESTR>
0

>  <SCORE.RESTR.CAVITY>
0

>  <SCORE.RESTR.norm>
0

>  <SCORE.SYSTEM>
0

>  <SCORE.SYSTEM.CONST>
0

>  <SCORE.SYSTEM.DIHEDRAL>
0

>  <SCORE.SYSTEM.SOLV>
0

>  <SCORE.SYSTEM.norm>
0

>  <SCORE.heavy>
12

>  <SCORE.norm>
-0.964475

>  <RMSD>
1.066

$$$$
ligand
 OpenBabel11021811503D
libRbt.so/2013.1/901 2013/11/27
 12 12  0  0  0  0  0  0  0  0999 V2000
   10.2417   12.7866  148.2634 C   0  0  0  0  0  0  0  0  0  0  0  0
   13.0421    8.9493  145.4707 C   0  0  0  0  0  0  0  0  0  0  0  0
   11.7151   13.4128  146.0748 N   0  0  0  0  0  0  0  0  0  0  0  0
   10.4723   12.7901  149.7157 N   0  0  0  0  0  0  0  0  0  0  0  0
    9.8946   13.5455  150.3142 N   0  0  0  0  0  0  0  0  0  0  0  0
    9.3210   14.2976  150.9173 N   0  0  0  0  0  0  0  0  0  0  0  0
   11.6396    9.5545  147.2605 N   0  0  0  0  0  0  0  0  0  0  0  0
   12.3361    9.9183  146.1730 C   0  0  0  0  0  0  0  0  0  0  0  0
   12.4185   11.2068  145.8118 N   0  0  0  0  0  0  0  0  0  0  0  0
   11.8059   12.1637  146.5218 C   0  0  0  0  0  0  0  0  0  0  0  0
   11.0726   11.8491  147.6615 C   0  0  0  0  0  0  0  0  0  0  0  0
   10.9939   10.5172  148.0435 C   0  0  0  0  0  0  0  0  0  0  0  0
  1 11  1  0  0  0  0
  1  4  1  0  0  0  0
  2  8  1  0  0  0  0
  3 10  1  0  0  0  0
  4  5  1  0  0  0  0
  5  6  1  0  0  0  0
  7  8  2  0  0  0  0
  7 12  1  0  0  0  0
  8  9  1  0  0  0  0
  9 10  2  0  0  0  0
 10 11  1  0  0  0  0
 11 12  2  0  0  0  0
M  END
>  <CHROM.1>
-133.23454856,177.04281038,-176.97793602,11.24229077,11.76313556,147.70064748
-2.78527865,-1.09591217,2.81422297

>  <Name>
ligand

>  <RI>
0

>  <Rbt.Current_Directory>
/home/itssahil/PROJECTS/Mol_Feturizer/New_Systems/rnas/4NYA

>  <Rbt.Executable>
rbdock ($Id: //depot/dev/client3/rdock/2013.1/src/exe/rbdock.cxx#4 $)

>  <Rbt.Library>
libRbt.so (2013.1, Build901 2013/11/27)

>  <Rbt.Parameter_File>
/export/apps/rDock/src/rDock_2013.1_src/data/scripts/dock_solv.prm

>  <Rbt.Receptor>
prm/pocket_docking_3.prm

>  <SCORE>
-11.6008

>  <SCORE.INTER>
-10.7372

>  <SCORE.INTER.CONST>
1

>  <SCORE.INTER.POLAR>
0

>  <SCORE.INTER.ROT>
3

>  <SCORE.INTER.SOLV>
16.0537

>  <SCORE.INTER.VDW>
-18.1094

>  <SCORE.INTER.norm>
-0.894766

>  <SCORE.INTRA>
-0.863602

>  <SCORE.INTRA.DIHEDRAL>
-0.640036

>  <SCORE.INTRA.DIHEDRAL.0>
2.1382

>  <SCORE.INTRA.POLAR>
0

>  <SCORE.INTRA.POLAR.0>
0

>  <SCORE.INTRA.REPUL>
0

>  <SCORE.INTRA.REPUL.0>
0

>  <SCORE.INTRA.SOLV>
-1.35316

>  <SCORE.INTRA.SOLV.lig_0>
-59.6513

>  <SCORE.INTRA.VDW>
0.132998

>  <SCORE.INTRA.VDW.0>
-0.569808

>  <SCORE.INTRA.norm>
-0.0719668

>  <SCORE.RESTR>
0

>  <SCORE.RESTR.CAVITY>
0

>  <SCORE.RESTR.norm>
0

>  <SCORE.SYSTEM>
0

>  <SCORE.SYSTEM.CONST>
0

>  <SCORE.SYSTEM.DIHEDRAL>
0

>  <SCORE.SYSTEM.SOLV>
0

>  <SCORE.SYSTEM.norm>
0

>  <SCORE.heavy>
12

>  <SCORE.norm>
-0.966733

>  <RMSD>
1.066

$$$$
ligand
 OpenBabel11021811503D
libRbt.so/2013.1/901 2013/11/27
 12 12  0  0  0  0  0  0  0  0999 V2000
   10.1881   12.7520  148.2474 C   0  0  0  0  0  0  0  0  0  0  0  0
   12.9707    8.8772  145.4889 C   0  0  0  0  0  0  0  0  0  0  0  0
   11.7833   13.3726  146.1442 N   0  0  0  0  0  0  0  0  0  0  0  0
   10.2320   12.6086  149.7102 N   0  0  0  0  0  0  0  0  0  0  0  0
    9.8153   13.4617  150.3112 N   0  0  0  0  0  0  0  0  0  0  0  0
    9.4035   14.3176  150.9081 N   0  0  0  0  0  0  0  0  0  0  0  0
   11.5103    9.4933  147.2279 N   0  0  0  0  0  0  0  0  0  0  0  0
   12.2693    9.8557  146.1825 C   0  0  0  0  0  0  0  0  0  0  0  0
   12.4160   11.1482  145.8580 N   0  0  0  0  0  0  0  0  0  0  0  0
   11.8070   12.1109  146.5633 C   0  0  0  0  0  0  0  0  0  0  0  0
   11.0107   11.7979  147.6603 C   0  0  0  0  0  0  0  0  0  0  0  0
   10.8652   10.4613  148.0048 C   0  0  0  0  0  0  0  0  0  0  0  0
  1 11  1  0  0  0  0
  1  4  1  0  0  0  0
  2  8  1  0  0  0  0
  3 10  1  0  0  0  0
  4  5  1  0  0  0  0
  5  6  1  0  0  0  0
  7  8  2  0  0  0  0
  7 12  1  0  0  0  0
  8  9  1  0  0  0  0
  9 10  2  0  0  0  0
 10 11  1  0  0  0  0
 11 12  2  0  0  0  0
M  END
>  <CHROM.1>
-139.79079146,165.71721966,-55.99038352,11.18572377,11.70157777,147.70744158
-2.67140026,-1.07114211,2.93818335

>  <Name>
ligand

>  <RI>
0

>  <Rbt.Current_Directory>
/home/itssahil/PROJECTS/Mol_Feturizer/New_Systems/rnas/4NYA

>  <Rbt.Executable>
rbdock ($Id: //depot/dev/client3/rdock/2013.1/src/exe/rbdock.cxx#4 $)

>  <Rbt.Library>
libRbt.so (2013.1, Build901 2013/11/27)

>  <Rbt.Parameter_File>
/export/apps/rDock/src/rDock_2013.1_src/data/scripts/dock_solv.prm

>  <Rbt.Receptor>
prm/pocket_docking_2.prm

>  <SCORE>
-11.5781

>  <SCORE.INTER>
-10.7682

>  <SCORE.INTER.CONST>
1

>  <SCORE.INTER.POLAR>
0

>  <SCORE.INTER.ROT>
3

>  <SCORE.INTER.SOLV>
15.3985

>  <SCORE.INTER.VDW>
-17.9116

>  <SCORE.INTER.norm>
-0.897351

>  <SCORE.INTRA>
-0.80993

>  <SCORE.INTRA.DIHEDRAL>
-0.634103

>  <SCORE.INTRA.DIHEDRAL.0>
2.1382

>  <SCORE.INTRA.POLAR>
0

>  <SCORE.INTRA.POLAR.0>
0

>  <SCORE.INTRA.REPUL>
0

>  <SCORE.INTRA.REPUL.0>
0

>  <SCORE.INTRA.SOLV>
-1.42234

>  <SCORE.INTRA.SOLV.lig_0>
-59.6513

>  <SCORE.INTRA.VDW>
0.21829

>  <SCORE.INTRA.VDW.0>
-0.569808

>  <SCORE.INTRA.norm>
-0.0674942

>  <SCORE.RESTR>
0

>  <SCORE.RESTR.CAVITY>
0

>  <SCORE.RESTR.norm>
0

>  <SCORE.SYSTEM>
0

>  <SCORE.SYSTEM.CONST>
0

>  <SCORE.SYSTEM.DIHEDRAL>
0

>  <SCORE.SYSTEM.SOLV>
0

>  <SCORE.SYSTEM.norm>
0

>  <SCORE.heavy>
12

>  <SCORE.norm>
-0.964845

>  <RMSD>
1.067

$$$$
ligand
 OpenBabel11021811503D
libRbt.so/2013.1/901 2013/11/27
 12 12  0  0  0  0  0  0  0  0999 V2000
   10.1821   12.8103  148.2186 C   0  0  0  0  0  0  0  0  0  0  0  0
   12.8961    8.8496  145.5143 C   0  0  0  0  0  0  0  0  0  0  0  0
   11.8549   13.3822  146.1624 N   0  0  0  0  0  0  0  0  0  0  0  0
   10.2036   12.6763  149.6827 N   0  0  0  0  0  0  0  0  0  0  0  0
    9.7853   13.5367  150.2721 N   0  0  0  0  0  0  0  0  0  0  0  0
    9.3691   14.3923  150.8663 N   0  0  0  0  0  0  0  0  0  0  0  0
   11.4125    9.5104  147.2169 N   0  0  0  0  0  0  0  0  0  0  0  0
   12.2121    9.8498  146.1943 C   0  0  0  0  0  0  0  0  0  0  0  0
   12.4141   11.1375  145.8810 N   0  0  0  0  0  0  0  0  0  0  0  0
   11.8216   12.1185  146.5750 C   0  0  0  0  0  0  0  0  0  0  0  0
   10.9851   11.8296  147.6485 C   0  0  0  0  0  0  0  0  0  0  0  0
   10.7820   10.4977  147.9815 C   0  0  0  0  0  0  0  0  0  0  0  0
  1 11  1  0  0  0  0
  1  4  1  0  0  0  0
  2  8  1  0  0  0  0
  3 10  1  0  0  0  0
  4  5  1  0  0  0  0
  5  6  1  0  0  0  0
  7  8  2  0  0  0  0
  7 12  1  0  0  0  0
  8  9  1  0  0  0  0
  9 10  2  0  0  0  0
 10 11  1  0  0  0  0
 11 12  2  0  0  0  0
M  END
>  <CHROM.1>
-138.61088044,166.84203514,-179.55007410,11.15644023,11.72957073,147.69966740
-2.58861914,-1.05101447,3.01417324

>  <Name>
ligand

>  <RI>
0

>  <Rbt.Current_Directory>
/home/itssahil/PROJECTS/Mol_Feturizer/New_Systems/rnas/4NYA

>  <Rbt.Executable>
rbdock ($Id: //depot/dev/client3/rdock/2013.1/src/exe/rbdock.cxx#4 $)

>  <Rbt.Library>
libRbt.so (2013.1, Build901 2013/11/27)

>  <Rbt.Parameter_File>
/export/apps/rDock/src/rDock_2013.1_src/data/scripts/dock_solv.prm

>  <Rbt.Receptor>
prm/pocket_docking_3.prm

>  <SCORE>
-11.5305

>  <SCORE.INTER>
-10.707

>  <SCORE.INTER.CONST>
1

>  <SCORE.INTER.POLAR>
0

>  <SCORE.INTER.ROT>
3

>  <SCORE.INTER.SOLV>
15.3796

>  <SCORE.INTER.VDW>
-17.8645

>  <SCORE.INTER.norm>
-0.892249

>  <SCORE.INTRA>
-0.823482

>  <SCORE.INTRA.DIHEDRAL>
-0.637376

>  <SCORE.INTRA.DIHEDRAL.0>
2.1382

>  <SCORE.INTRA.POLAR>
0

>  <SCORE.INTRA.POLAR.0>
0

>  <SCORE.INTRA.REPUL>
0

>  <SCORE.INTRA.REPUL.0>
0

>  <SCORE.INTRA.SOLV>
-1.41614

>  <SCORE.INTRA.SOLV.lig_0>
-59.6513

>  <SCORE.INTRA.VDW>
0.203276

>  <SCORE.INTRA.VDW.0>
-0.569808

>  <SCORE.INTRA.norm>
-0.0686235

>  <SCORE.RESTR>
0

>  <SCORE.RESTR.CAVITY>
0

>  <SCORE.RESTR.norm>
0

>  <SCORE.SYSTEM>
0

>  <SCORE.SYSTEM.CONST>
0

>  <SCORE.SYSTEM.DIHEDRAL>
0

>  <SCORE.SYSTEM.SOLV>
0

>  <SCORE.SYSTEM.norm>
0

>  <SCORE.heavy>
12

>  <SCORE.norm>
-0.960872

>  <RMSD>
1.067

$$$$
ligand
 OpenBabel11021811503D
libRbt.so/2013.1/901 2013/11/27
 12 12  0  0  0  0  0  0  0  0999 V2000
   10.1757   12.7520  148.2393 C   0  0  0  0  0  0  0  0  0  0  0  0
   12.9735    8.8868  145.4827 C   0  0  0  0  0  0  0  0  0  0  0  0
   11.7623   13.3769  146.1310 N   0  0  0  0  0  0  0  0  0  0  0  0
   10.2966   12.6751  149.7028 N   0  0  0  0  0  0  0  0  0  0  0  0
    9.8248   13.5087  150.2903 N   0  0  0  0  0  0  0  0  0  0  0  0
    9.3476   14.3392  150.8742 N   0  0  0  0  0  0  0  0  0  0  0  0
   11.5138    9.4986  147.2239 N   0  0  0  0  0  0  0  0  0  0  0  0
   12.2682    9.8629  146.1759 C   0  0  0  0  0  0  0  0  0  0  0  0
   12.4068   11.1555  145.8481 N   0  0  0  0  0  0  0  0  0  0  0  0
   11.7941   12.1163  146.5528 C   0  0  0  0  0  0  0  0  0  0  0  0
   11.0022   11.8012  147.6524 C   0  0  0  0  0  0  0  0  0  0  0  0
   10.8651   10.4646  148.0002 C   0  0  0  0  0  0  0  0  0  0  0  0
  1 11  1  0  0  0  0
  1  4  1  0  0  0  0
  2  8  1  0  0  0  0
  3 10  1  0  0  0  0
  4  5  1  0  0  0  0
  5  6  1  0  0  0  0
  7  8  2  0  0  0  0
  7 12  1  0  0  0  0
  8  9  1  0  0  0  0
  9 10  2  0  0  0  0
 10 11  1  0  0  0  0
 11 12  2  0  0  0  0
M  END
>  <CHROM.1>
-135.80925831,169.29945156,60.38888068,11.18248333,11.71711631,147.69620738
-2.67934881,-1.07325897,2.92253176

>  <Name>
ligand

>  <RI>
0

>  <Rbt.Current_Directory>
/home/itssahil/PROJECTS/Mol_Feturizer/New_Systems/rnas/4NYA

>  <Rbt.Executable>
rbdock ($Id: //depot/dev/client3/rdock/2013.1/src/exe/rbdock.cxx#4 $)

>  <Rbt.Library>
libRbt.so (2013.1, Build901 2013/11/27)

>  <Rbt.Parameter_File>
/export/apps/rDock/src/rDock_2013.1_src/data/scripts/dock_solv.prm

>  <Rbt.Receptor>
prm/pocket_docking_2.prm

>  <SCORE>
-11.5955

>  <SCORE.INTER>
-10.7521

>  <SCORE.INTER.CONST>
1

>  <SCORE.INTER.POLAR>
0

>  <SCORE.INTER.ROT>
3

>  <SCORE.INTER.SOLV>
15.5559

>  <SCORE.INTER.VDW>
-17.9534

>  <SCORE.INTER.norm>
-0.896011

>  <SCORE.INTRA>
-0.843345

>  <SCORE.INTRA.DIHEDRAL>
-0.620113

>  <SCORE.INTRA.DIHEDRAL.0>
2.1382

>  <SCORE.INTRA.POLAR>
0

>  <SCORE.INTRA.POLAR.0>
0

>  <SCORE.INTRA.REPUL>
0

>  <SCORE.INTRA.REPUL.0>
0

>  <SCORE.INTRA.SOLV>
-1.38427

>  <SCORE.INTRA.SOLV.lig_0>
-59.6513

>  <SCORE.INTRA.VDW>
0.158846

>  <SCORE.INTRA.VDW.0>
-0.569808

>  <SCORE.INTRA.norm>
-0.0702788

>  <SCORE.RESTR>
0

>  <SCORE.RESTR.CAVITY>
0

>  <SCORE.RESTR.norm>
0

>  <SCORE.SYSTEM>
0

>  <SCORE.SYSTEM.CONST>
0

>  <SCORE.SYSTEM.DIHEDRAL>
0

>  <SCORE.SYSTEM.SOLV>
0

>  <SCORE.SYSTEM.norm>
0

>  <SCORE.heavy>
12

>  <SCORE.norm>
-0.966289

>  <RMSD>
1.068

$$$$
ligand
 OpenBabel11021811503D
libRbt.so/2013.1/901 2013/11/27
 12 12  0  0  0  0  0  0  0  0999 V2000
   10.1778   12.8010  148.2517 C   0  0  0  0  0  0  0  0  0  0  0  0
   12.9388    8.8855  145.5290 C   0  0  0  0  0  0  0  0  0  0  0  0
   11.7685   13.3922  146.1367 N   0  0  0  0  0  0  0  0  0  0  0  0
   10.3006   12.7378  149.7157 N   0  0  0  0  0  0  0  0  0  0  0  0
    9.8404   13.5833  150.2953 N   0  0  0  0  0  0  0  0  0  0  0  0
    9.3850   14.4317  150.8708 N   0  0  0  0  0  0  0  0  0  0  0  0
   11.4859    9.5264  147.2654 N   0  0  0  0  0  0  0  0  0  0  0  0
   12.2428    9.8743  146.2136 C   0  0  0  0  0  0  0  0  0  0  0  0
   12.3928   11.1625  145.8739 N   0  0  0  0  0  0  0  0  0  0  0  0
   11.7893   12.1352  146.5701 C   0  0  0  0  0  0  0  0  0  0  0  0
   10.9953   11.8374  147.6730 C   0  0  0  0  0  0  0  0  0  0  0  0
   10.8464   10.5054  148.0331 C   0  0  0  0  0  0  0  0  0  0  0  0
  1 11  1  0  0  0  0
  1  4  1  0  0  0  0
  2  8  1  0  0  0  0
  3 10  1  0  0  0  0
  4  5  1  0  0  0  0
  5  6  1  0  0  0  0
  7  8  2  0  0  0  0
  7 12  1  0  0  0  0
  8  9  1  0  0  0  0
  9 10  2  0  0  0  0
 10 11  1  0  0  0  0
 11 12  2  0  0  0  0
M  END
>  <CHROM.1>
-135.72456289,169.06035544,-60.65667539,11.17713945,11.75358359,147.71730195
-2.65882797,-1.07714015,2.93037604

>  <Name>
ligand

>  <RI>
0

>  <Rbt.Current_Directory>
/home/itssahil/PROJECTS/Mol_Feturizer/New_Systems/rnas/4NYA

>  <Rbt.Executable>
rbdock ($Id: //depot/dev/client3/rdock/2013.1/src/exe/rbdock.cxx#4 $)

>  <Rbt.Library>
libRbt.so (2013.1, Build901 2013/11/27)

>  <Rbt.Parameter_File>
/export/apps/rDock/src/rDock_2013.1_src/data/scripts/dock_solv.prm

>  <Rbt.Receptor>
prm/pocket_docking_4.prm

>  <SCORE>
-11.5893

>  <SCORE.INTER>
-10.7484

>  <SCORE.INTER.CONST>
1

>  <SCORE.INTER.POLAR>
0

>  <SCORE.INTER.ROT>
3

>  <SCORE.INTER.SOLV>
15.498

>  <SCORE.INTER.VDW>
-17.9316

>  <SCORE.INTER.norm>
-0.895698

>  <SCORE.INTRA>
-0.840934

>  <SCORE.INTRA.DIHEDRAL>
-0.614027

>  <SCORE.INTRA.DIHEDRAL.0>
2.1382

>  <SCORE.INTRA.POLAR>
0

>  <SCORE.INTRA.POLAR.0>
0

>  <SCORE.INTRA.REPUL>
0

>  <SCORE.INTRA.REPUL.0>
0

>  <SCORE.INTRA.SOLV>
-1.38358

>  <SCORE.INTRA.SOLV.lig_0>
-59.6513

>  <SCORE.INTRA.VDW>
0.157869

>  <SCORE.INTRA.VDW.0>
-0.569808

>  <SCORE.INTRA.norm>
-0.0700779

>  <SCORE.RESTR>
0

>  <SCORE.RESTR.CAVITY>
0

>  <SCORE.RESTR.norm>
0

>  <SCORE.SYSTEM>
0

>  <SCORE.SYSTEM.CONST>
0

>  <SCORE.SYSTEM.DIHEDRAL>
0

>  <SCORE.SYSTEM.SOLV>
0

>  <SCORE.SYSTEM.norm>
0

>  <SCORE.heavy>
12

>  <SCORE.norm>
-0.965776

>  <RMSD>
1.068

$$$$
ligand
 OpenBabel11021811503D
libRbt.so/2013.1/901 2013/11/27
 12 12  0  0  0  0  0  0  0  0999 V2000
   10.2045   12.7346  148.2298 C   0  0  0  0  0  0  0  0  0  0  0  0
   12.9888    8.8592  145.4737 C   0  0  0  0  0  0  0  0  0  0  0  0
   11.7518   13.3470  146.0888 N   0  0  0  0  0  0  0  0  0  0  0  0
   10.3032   12.6347  149.6936 N   0  0  0  0  0  0  0  0  0  0  0  0
    9.7976   13.4436  150.2875 N   0  0  0  0  0  0  0  0  0  0  0  0
    9.2952   14.2484  150.8861 N   0  0  0  0  0  0  0  0  0  0  0  0
   11.5525    9.4800  147.2310 N   0  0  0  0  0  0  0  0  0  0  0  0
   12.2869    9.8379  146.1668 C   0  0  0  0  0  0  0  0  0  0  0  0
   12.4096   11.1275  145.8217 N   0  0  0  0  0  0  0  0  0  0  0  0
   11.8006   12.0917  146.5249 C   0  0  0  0  0  0  0  0  0  0  0  0
   11.0291   11.7835  147.6408 C   0  0  0  0  0  0  0  0  0  0  0  0
   10.9085   10.4501  148.0064 C   0  0  0  0  0  0  0  0  0  0  0  0
  1 11  1  0  0  0  0
  1  4  1  0  0  0  0
  2  8  1  0  0  0  0
  3 10  1  0  0  0  0
  4  5  1  0  0  0  0
  5  6  1  0  0  0  0
  7  8  2  0  0  0  0
  7 12  1  0  0  0  0
  8  9  1  0  0  0  0
  9 10  2  0  0  0  0
 10 11  1  0  0  0  0
 11 12  2  0  0  0  0
M  END
>  <CHROM.1>
-138.38062071,171.59187636,-177.43835518,11.18988485,11.68320869,147.68602087
-2.72297916,-1.07547142,2.88435750

>  <Name>
ligand

>  <RI>
0

>  <Rbt.Current_Directory>
/home/itssahil/PROJECTS/Mol_Feturizer/New_Systems/rnas/4NYA

>  <Rbt.Executable>
rbdock ($Id: //depot/dev/client3/rdock/2013.1/src/exe/rbdock.cxx#4 $)

>  <Rbt.Library>
libRbt.so (2013.1, Build901 2013/11/27)

>  <Rbt.Parameter_File>
/export/apps/rDock/src/rDock_2013.1_src/data/scripts/dock_solv.prm

>  <Rbt.Receptor>
prm/pocket_docking_7.prm

>  <SCORE>
-11.5789

>  <SCORE.INTER>
-10.7198

>  <SCORE.INTER.CONST>
1

>  <SCORE.INTER.POLAR>
0

>  <SCORE.INTER.ROT>
3

>  <SCORE.INTER.SOLV>
15.7782

>  <SCORE.INTER.VDW>
-18.006

>  <SCORE.INTER.norm>
-0.893318

>  <SCORE.INTRA>
-0.859129

>  <SCORE.INTRA.DIHEDRAL>
-0.710385

>  <SCORE.INTRA.DIHEDRAL.0>
2.1382

>  <SCORE.INTRA.POLAR>
0

>  <SCORE.INTRA.POLAR.0>
0

>  <SCORE.INTRA.REPUL>
0

>  <SCORE.INTRA.REPUL.0>
0

>  <SCORE.INTRA.SOLV>
-1.41156

>  <SCORE.INTRA.SOLV.lig_0>
-59.6513

>  <SCORE.INTRA.VDW>
0.201844

>  <SCORE.INTRA.VDW.0>
-0.569808

>  <SCORE.INTRA.norm>
-0.0715941

>  <SCORE.RESTR>
0

>  <SCORE.RESTR.CAVITY>
0

>  <SCORE.RESTR.norm>
0

>  <SCORE.SYSTEM>
0

>  <SCORE.SYSTEM.CONST>
0

>  <SCORE.SYSTEM.DIHEDRAL>
0

>  <SCORE.SYSTEM.SOLV>
0

>  <SCORE.SYSTEM.norm>
0

>  <SCORE.heavy>
12

>  <SCORE.norm>
-0.964912

>  <RMSD>
1.068

$$$$
ligand
 OpenBabel11021811503D
libRbt.so/2013.1/901 2013/11/27
 12 12  0  0  0  0  0  0  0  0999 V2000
   10.1679   12.8068  148.1987 C   0  0  0  0  0  0  0  0  0  0  0  0
   12.9006    8.8575  145.4966 C   0  0  0  0  0  0  0  0  0  0  0  0
   11.8071   13.3817  146.1166 N   0  0  0  0  0  0  0  0  0  0  0  0
   10.2032   12.6815  149.6634 N   0  0  0  0  0  0  0  0  0  0  0  0
    9.7833   13.5420  150.2515 N   0  0  0  0  0  0  0  0  0  0  0  0
    9.3580   14.4002  150.8355 N   0  0  0  0  0  0  0  0  0  0  0  0
   11.4297    9.5144  147.2116 N   0  0  0  0  0  0  0  0  0  0  0  0
   12.2118    9.8548  146.1760 C   0  0  0  0  0  0  0  0  0  0  0  0
   12.3927   11.1422  145.8485 N   0  0  0  0  0  0  0  0  0  0  0  0
   11.7958   12.1216  146.5410 C   0  0  0  0  0  0  0  0  0  0  0  0
   10.9767   11.8316  147.6275 C   0  0  0  0  0  0  0  0  0  0  0  0
   10.7957   10.5002  147.9752 C   0  0  0  0  0  0  0  0  0  0  0  0
  1 11  1  0  0  0  0
  1  4  1  0  0  0  0
  2  8  1  0  0  0  0
  3 10  1  0  0  0  0
  4  5  1  0  0  0  0
  5  6  1  0  0  0  0
  7  8  2  0  0  0  0
  7 12  1  0  0  0  0
  8  9  1  0  0  0  0
  9 10  2  0  0  0  0
 10 11  1  0  0  0  0
 11 12  2  0  0  0  0
M  END
>  <CHROM.1>
-138.94739192,166.66277597,60.12752569,11.14837838,11.73324587,147.67692367
-2.61990412,-1.06036994,2.97811675

>  <Name>
ligand

>  <RI>
0

>  <Rbt.Current_Directory>
/home/itssahil/PROJECTS/Mol_Feturizer/New_Systems/rnas/4NYA

>  <Rbt.Executable>
rbdock ($Id: //depot/dev/client3/rdock/2013.1/src/exe/rbdock.cxx#4 $)

>  <Rbt.Library>
libRbt.so (2013.1, Build901 2013/11/27)

>  <Rbt.Parameter_File>
/export/apps/rDock/src/rDock_2013.1_src/data/scripts/dock_solv.prm

>  <Rbt.Receptor>
prm/pocket_docking_2.prm

>  <SCORE>
-11.5614

>  <SCORE.INTER>
-10.7421

>  <SCORE.INTER.CONST>
1

>  <SCORE.INTER.POLAR>
0

>  <SCORE.INTER.ROT>
3

>  <SCORE.INTER.SOLV>
15.4592

>  <SCORE.INTER.VDW>
-17.9144

>  <SCORE.INTER.norm>
-0.895174

>  <SCORE.INTRA>
-0.819318

>  <SCORE.INTRA.DIHEDRAL>
-0.640889

>  <SCORE.INTRA.DIHEDRAL.0>
2.1382

>  <SCORE.INTRA.POLAR>
0

>  <SCORE.INTRA.POLAR.0>
0

>  <SCORE.INTRA.REPUL>
0

>  <SCORE.INTRA.REPUL.0>
0

>  <SCORE.INTRA.SOLV>
-1.41493

>  <SCORE.INTRA.SOLV.lig_0>
-59.6513

>  <SCORE.INTRA.VDW>
0.208594

>  <SCORE.INTRA.VDW.0>
-0.569808

>  <SCORE.INTRA.norm>
-0.0682765

>  <SCORE.RESTR>
0

>  <SCORE.RESTR.CAVITY>
0

>  <SCORE.RESTR.norm>
0

>  <SCORE.SYSTEM>
0

>  <SCORE.SYSTEM.CONST>
0

>  <SCORE.SYSTEM.DIHEDRAL>
0

>  <SCORE.SYSTEM.SOLV>
0

>  <SCORE.SYSTEM.norm>
0

>  <SCORE.heavy>
12

>  <SCORE.norm>
-0.96345

>  <RMSD>
1.069

$$$$
ligand
 OpenBabel11021811503D
libRbt.so/2013.1/901 2013/11/27
 12 12  0  0  0  0  0  0  0  0999 V2000
   10.1848   12.8077  148.1952 C   0  0  0  0  0  0  0  0  0  0  0  0
   12.8976    8.8504  145.4845 C   0  0  0  0  0  0  0  0  0  0  0  0
   11.8129   13.3770  146.1028 N   0  0  0  0  0  0  0  0  0  0  0  0
   10.2038   12.6654  149.6586 N   0  0  0  0  0  0  0  0  0  0  0  0
    9.7830   13.5219  150.2520 N   0  0  0  0  0  0  0  0  0  0  0  0
    9.3569   14.3758  150.8416 N   0  0  0  0  0  0  0  0  0  0  0  0
   11.4371    9.5120  147.2067 N   0  0  0  0  0  0  0  0  0  0  0  0
   12.2138    9.8497  146.1661 C   0  0  0  0  0  0  0  0  0  0  0  0
   12.3944   11.1363  145.8353 N   0  0  0  0  0  0  0  0  0  0  0  0
   11.8026   12.1176  146.5295 C   0  0  0  0  0  0  0  0  0  0  0  0
   10.9893   11.8305  147.6211 C   0  0  0  0  0  0  0  0  0  0  0  0
   10.8086   10.4999  147.9721 C   0  0  0  0  0  0  0  0  0  0  0  0
  1 11  1  0  0  0  0
  1  4  1  0  0  0  0
  2  8  1  0  0  0  0
  3 10  1  0  0  0  0
  4  5  1  0  0  0  0
  5  6  1  0  0  0  0
  7  8  2  0  0  0  0
  7 12  1  0  0  0  0
  8  9  1  0  0  0  0
  9 10  2  0  0  0  0
 10 11  1  0  0  0  0
 11 12  2  0  0  0  0
M  END
>  <CHROM.1>
-140.23822173,166.90283786,63.33217850,11.15335051,11.72550130,147.67058744
-2.62640241,-1.06212048,2.97486455

>  <Name>
ligand

>  <RI>
0

>  <Rbt.Current_Directory>
/home/itssahil/PROJECTS/Mol_Feturizer/New_Systems/rnas/4NYA

>  <Rbt.Executable>
rbdock ($Id: //depot/dev/client3/rdock/2013.1/src/exe/rbdock.cxx#4 $)

>  <Rbt.Library>
libRbt.so (2013.1, Build901 2013/11/27)

>  <Rbt.Parameter_File>
/export/apps/rDock/src/rDock_2013.1_src/data/scripts/dock_solv.prm

>  <Rbt.Receptor>
prm/pocket_docking_8.prm

>  <SCORE>
-11.5557

>  <SCORE.INTER>
-10.7321

>  <SCORE.INTER.CONST>
1

>  <SCORE.INTER.POLAR>
0

>  <SCORE.INTER.ROT>
3

>  <SCORE.INTER.SOLV>
15.5032

>  <SCORE.INTER.VDW>
-17.9225

>  <SCORE.INTER.norm>
-0.89434

>  <SCORE.INTRA>
-0.823598

>  <SCORE.INTRA.DIHEDRAL>
-0.668812

>  <SCORE.INTRA.DIHEDRAL.0>
2.1382

>  <SCORE.INTRA.POLAR>
0

>  <SCORE.INTRA.POLAR.0>
0

>  <SCORE.INTRA.REPUL>
0

>  <SCORE.INTRA.REPUL.0>
0

>  <SCORE.INTRA.SOLV>
-1.42645

>  <SCORE.INTRA.SOLV.lig_0>
-59.6513

>  <SCORE.INTRA.VDW>
0.224031

>  <SCORE.INTRA.VDW.0>
-0.569808

>  <SCORE.INTRA.norm>
-0.0686332

>  <SCORE.RESTR>
0

>  <SCORE.RESTR.CAVITY>
0

>  <SCORE.RESTR.norm>
0

>  <SCORE.SYSTEM>
0

>  <SCORE.SYSTEM.CONST>
0

>  <SCORE.SYSTEM.DIHEDRAL>
0

>  <SCORE.SYSTEM.SOLV>
0

>  <SCORE.SYSTEM.norm>
0

>  <SCORE.heavy>
12

>  <SCORE.norm>
-0.962974

>  <RMSD>
1.070

$$$$
ligand
 OpenBabel11021811503D
libRbt.so/2013.1/901 2013/11/27
 12 12  0  0  0  0  0  0  0  0999 V2000
   10.1735   12.8164  148.1937 C   0  0  0  0  0  0  0  0  0  0  0  0
   12.9007    8.8493  145.5121 C   0  0  0  0  0  0  0  0  0  0  0  0
   11.8399   13.3815  146.1305 N   0  0  0  0  0  0  0  0  0  0  0  0
   10.2170   12.7075  149.6595 N   0  0  0  0  0  0  0  0  0  0  0  0
    9.7705   13.5598  150.2400 N   0  0  0  0  0  0  0  0  0  0  0  0
    9.3186   14.4092  150.8167 N   0  0  0  0  0  0  0  0  0  0  0  0
   11.4173    9.5152  147.2128 N   0  0  0  0  0  0  0  0  0  0  0  0
   12.2133    9.8511  146.1864 C   0  0  0  0  0  0  0  0  0  0  0  0
   12.4089   11.1375  145.8637 N   0  0  0  0  0  0  0  0  0  0  0  0
   11.8131   12.1206  146.5520 C   0  0  0  0  0  0  0  0  0  0  0  0
   10.9800   11.8354  147.6290 C   0  0  0  0  0  0  0  0  0  0  0  0
   10.7837   10.5049  147.9717 C   0  0  0  0  0  0  0  0  0  0  0  0
  1 11  1  0  0  0  0
  1  4  1  0  0  0  0
  2  8  1  0  0  0  0
  3 10  1  0  0  0  0
  4  5  1  0  0  0  0
  5  6  1  0  0  0  0
  7  8  2  0  0  0  0
  7 12  1  0  0  0  0
  8  9  1  0  0  0  0
  9 10  2  0  0  0  0
 10 11  1  0  0  0  0
 11 12  2  0  0  0  0
M  END
>  <CHROM.1>
-137.62855773,168.52053435,62.82103102,11.14947844,11.73783666,147.67905096
-2.59983124,-1.05007251,2.99652884

>  <Name>
ligand

>  <RI>
0

>  <Rbt.Current_Directory>
/home/itssahil/PROJECTS/Mol_Feturizer/New_Systems/rnas/4NYA

>  <Rbt.Executable>
rbdock ($Id: //depot/dev/client3/rdock/2013.1/src/exe/rbdock.cxx#4 $)

>  <Rbt.Library>
libRbt.so (2013.1, Build901 2013/11/27)

>  <Rbt.Parameter_File>
/export/apps/rDock/src/rDock_2013.1_src/data/scripts/dock_solv.prm

>  <Rbt.Receptor>
prm/pocket_docking_2.prm

>  <SCORE>
-11.5384

>  <SCORE.INTER>
-10.7085

>  <SCORE.INTER.CONST>
1

>  <SCORE.INTER.POLAR>
0

>  <SCORE.INTER.ROT>
3

>  <SCORE.INTER.SOLV>
15.516

>  <SCORE.INTER.VDW>
-17.911

>  <SCORE.INTER.norm>
-0.892373

>  <SCORE.INTRA>
-0.829961

>  <SCORE.INTRA.DIHEDRAL>
-0.645777

>  <SCORE.INTRA.DIHEDRAL.0>
2.1382

>  <SCORE.INTRA.POLAR>
0

>  <SCORE.INTRA.POLAR.0>
0

>  <SCORE.INTRA.REPUL>
0

>  <SCORE.INTRA.REPUL.0>
0

>  <SCORE.INTRA.SOLV>
-1.40234

>  <SCORE.INTRA.SOLV.lig_0>
-59.6513

>  <SCORE.INTRA.VDW>
0.194099

>  <SCORE.INTRA.VDW.0>
-0.569808

>  <SCORE.INTRA.norm>
-0.0691634

>  <SCORE.RESTR>
0

>  <SCORE.RESTR.CAVITY>
0

>  <SCORE.RESTR.norm>
0

>  <SCORE.SYSTEM>
0

>  <SCORE.SYSTEM.CONST>
0

>  <SCORE.SYSTEM.DIHEDRAL>
0

>  <SCORE.SYSTEM.SOLV>
0

>  <SCORE.SYSTEM.norm>
0

>  <SCORE.heavy>
12

>  <SCORE.norm>
-0.961536

>  <RMSD>
1.071

$$$$
ligand
 OpenBabel11021811503D
libRbt.so/2013.1/901 2013/11/27
 12 12  0  0  0  0  0  0  0  0999 V2000
   10.1761   12.7633  148.2055 C   0  0  0  0  0  0  0  0  0  0  0  0
   12.9712    8.8706  145.4850 C   0  0  0  0  0  0  0  0  0  0  0  0
   11.7595   13.3669  146.0885 N   0  0  0  0  0  0  0  0  0  0  0  0
   10.2820   12.6863  149.6701 N   0  0  0  0  0  0  0  0  0  0  0  0
    9.7922   13.5126  150.2533 N   0  0  0  0  0  0  0  0  0  0  0  0
    9.2971   14.3356  150.8329 N   0  0  0  0  0  0  0  0  0  0  0  0
   11.5138    9.4999  147.2218 N   0  0  0  0  0  0  0  0  0  0  0  0
   12.2666    9.8537  146.1690 C   0  0  0  0  0  0  0  0  0  0  0  0
   12.4043   11.1428  145.8277 N   0  0  0  0  0  0  0  0  0  0  0  0
   11.7923   12.1107  146.5233 C   0  0  0  0  0  0  0  0  0  0  0  0
   11.0021   11.8067  147.6273 C   0  0  0  0  0  0  0  0  0  0  0  0
   10.8658   10.4738  147.9890 C   0  0  0  0  0  0  0  0  0  0  0  0
  1 11  1  0  0  0  0
  1  4  1  0  0  0  0
  2  8  1  0  0  0  0
  3 10  1  0  0  0  0
  4  5  1  0  0  0  0
  5  6  1  0  0  0  0
  7  8  2  0  0  0  0
  7 12  1  0  0  0  0
  8  9  1  0  0  0  0
  9 10  2  0  0  0  0
 10 11  1  0  0  0  0
 11 12  2  0  0  0  0
M  END
>  <CHROM.1>
-136.75580300,170.48142964,61.90220050,11.17313953,11.71571439,147.67275626
-2.68921580,-1.06935426,2.90840598

>  <Name>
ligand

>  <RI>
0

>  <Rbt.Current_Directory>
/home/itssahil/PROJECTS/Mol_Feturizer/New_Systems/rnas/4NYA

>  <Rbt.Executable>
rbdock ($Id: //depot/dev/client3/rdock/2013.1/src/exe/rbdock.cxx#4 $)

>  <Rbt.Library>
libRbt.so (2013.1, Build901 2013/11/27)

>  <Rbt.Parameter_File>
/export/apps/rDock/src/rDock_2013.1_src/data/scripts/dock_solv.prm

>  <Rbt.Receptor>
prm/pocket_docking_4.prm

>  <SCORE>
-11.5693

>  <SCORE.INTER>
-10.7281

>  <SCORE.INTER.CONST>
1

>  <SCORE.INTER.POLAR>
0

>  <SCORE.INTER.ROT>
3

>  <SCORE.INTER.SOLV>
15.7124

>  <SCORE.INTER.VDW>
-17.9895

>  <SCORE.INTER.norm>
-0.894007

>  <SCORE.INTRA>
-0.84118

>  <SCORE.INTRA.DIHEDRAL>
-0.65967

>  <SCORE.INTRA.DIHEDRAL.0>
2.1382

>  <SCORE.INTRA.POLAR>
0

>  <SCORE.INTRA.POLAR.0>
0

>  <SCORE.INTRA.REPUL>
0

>  <SCORE.INTRA.REPUL.0>
0

>  <SCORE.INTRA.SOLV>
-1.39282

>  <SCORE.INTRA.SOLV.lig_0>
-59.6513

>  <SCORE.INTRA.VDW>
0.185067

>  <SCORE.INTRA.VDW.0>
-0.569808

>  <SCORE.INTRA.norm>
-0.0700983

>  <SCORE.RESTR>
0

>  <SCORE.RESTR.CAVITY>
0

>  <SCORE.RESTR.norm>
0

>  <SCORE.SYSTEM>
0

>  <SCORE.SYSTEM.CONST>
0

>  <SCORE.SYSTEM.DIHEDRAL>
0

>  <SCORE.SYSTEM.SOLV>
0

>  <SCORE.SYSTEM.norm>
0

>  <SCORE.heavy>
12

>  <SCORE.norm>
-0.964106

>  <RMSD>
1.071

$$$$
ligand
 OpenBabel11021811503D
libRbt.so/2013.1/901 2013/11/27
 12 12  0  0  0  0  0  0  0  0999 V2000
   10.1679   12.7606  148.1509 C   0  0  0  0  0  0  0  0  0  0  0  0
   13.0345    8.9112  145.4432 C   0  0  0  0  0  0  0  0  0  0  0  0
   11.8044   13.3972  146.0846 N   0  0  0  0  0  0  0  0  0  0  0  0
   10.1940   12.6245  149.6148 N   0  0  0  0  0  0  0  0  0  0  0  0
    9.7075   13.4480  150.2046 N   0  0  0  0  0  0  0  0  0  0  0  0
    9.2235   14.2669  150.7992 N   0  0  0  0  0  0  0  0  0  0  0  0
   11.5327    9.5133  147.1517 N   0  0  0  0  0  0  0  0  0  0  0  0
   12.3119    9.8834  146.1241 C   0  0  0  0  0  0  0  0  0  0  0  0
   12.4573   11.1777  145.8062 N   0  0  0  0  0  0  0  0  0  0  0  0
   11.8270   12.1345  146.5008 C   0  0  0  0  0  0  0  0  0  0  0  0
   11.0091   11.8134  147.5793 C   0  0  0  0  0  0  0  0  0  0  0  0
   10.8647   10.4750  147.9170 C   0  0  0  0  0  0  0  0  0  0  0  0
  1 11  1  0  0  0  0
  1  4  1  0  0  0  0
  2  8  1  0  0  0  0
  3 10  1  0  0  0  0
  4  5  1  0  0  0  0
  5  6  1  0  0  0  0
  7  8  2  0  0  0  0
  7 12  1  0  0  0  0
  8  9  1  0  0  0  0
  9 10  2  0  0  0  0
 10 11  1  0  0  0  0
 11 12  2  0  0  0  0
M  END
>  <CHROM.1>
-139.08270856,169.07024374,-179.72019402,11.17346582,11.71371113,147.62988494
-2.68444808,-1.04225807,2.93290130

>  <Name>
ligand

>  <RI>
0

>  <Rbt.Current_Directory>
/home/itssahil/PROJECTS/Mol_Feturizer/New_Systems/rnas/4NYA

>  <Rbt.Executable>
rbdock ($Id: //depot/dev/client3/rdock/2013.1/src/exe/rbdock.cxx#4 $)

>  <Rbt.Library>
libRbt.so (2013.1, Build901 2013/11/27)

>  <Rbt.Parameter_File>
/export/apps/rDock/src/rDock_2013.1_src/data/scripts/dock_solv.prm

>  <Rbt.Receptor>
prm/pocket_docking_4.prm

>  <SCORE>
-11.5529

>  <SCORE.INTER>
-10.7082

>  <SCORE.INTER.CONST>
1

>  <SCORE.INTER.POLAR>
0

>  <SCORE.INTER.ROT>
3

>  <SCORE.INTER.SOLV>
15.7319

>  <SCORE.INTER.VDW>
-17.9828

>  <SCORE.INTER.norm>
-0.892351

>  <SCORE.INTRA>
-0.844689

>  <SCORE.INTRA.DIHEDRAL>
-0.688537

>  <SCORE.INTRA.DIHEDRAL.0>
2.1382

>  <SCORE.INTRA.POLAR>
0

>  <SCORE.INTRA.POLAR.0>
0

>  <SCORE.INTRA.REPUL>
0

>  <SCORE.INTRA.REPUL.0>
0

>  <SCORE.INTRA.SOLV>
-1.41966

>  <SCORE.INTRA.SOLV.lig_0>
-59.6513

>  <SCORE.INTRA.VDW>
0.209409

>  <SCORE.INTRA.VDW.0>
-0.569808

>  <SCORE.INTRA.norm>
-0.0703908

>  <SCORE.RESTR>
0

>  <SCORE.RESTR.CAVITY>
0

>  <SCORE.RESTR.norm>
0

>  <SCORE.SYSTEM>
0

>  <SCORE.SYSTEM.CONST>
0

>  <SCORE.SYSTEM.DIHEDRAL>
0

>  <SCORE.SYSTEM.SOLV>
0

>  <SCORE.SYSTEM.norm>
0

>  <SCORE.heavy>
12

>  <SCORE.norm>
-0.962741

>  <RMSD>
1.071

$$$$
ligand
 OpenBabel11021811503D
libRbt.so/2013.1/901 2013/11/27
 12 12  0  0  0  0  0  0  0  0999 V2000
   10.2000   12.7414  148.2114 C   0  0  0  0  0  0  0  0  0  0  0  0
   13.0403    8.9114  145.4493 C   0  0  0  0  0  0  0  0  0  0  0  0
   11.7662   13.3846  146.0933 N   0  0  0  0  0  0  0  0  0  0  0  0
   10.3329   12.6729  149.6743 N   0  0  0  0  0  0  0  0  0  0  0  0
    9.8028   13.4686  150.2647 N   0  0  0  0  0  0  0  0  0  0  0  0
    9.2764   14.2605  150.8598 N   0  0  0  0  0  0  0  0  0  0  0  0
   11.5808    9.5057  147.1966 N   0  0  0  0  0  0  0  0  0  0  0  0
   12.3243    9.8786  146.1438 C   0  0  0  0  0  0  0  0  0  0  0  0
   12.4420   11.1723  145.8123 N   0  0  0  0  0  0  0  0  0  0  0  0
   11.8188   12.1256  146.5179 C   0  0  0  0  0  0  0  0  0  0  0  0
   11.0374   11.8016  147.6224 C   0  0  0  0  0  0  0  0  0  0  0  0
   10.9219   10.4639  147.9740 C   0  0  0  0  0  0  0  0  0  0  0  0
  1 11  1  0  0  0  0
  1  4  1  0  0  0  0
  2  8  1  0  0  0  0
  3 10  1  0  0  0  0
  4  5  1  0  0  0  0
  5  6  1  0  0  0  0
  7  8  2  0  0  0  0
  7 12  1  0  0  0  0
  8  9  1  0  0  0  0
  9 10  2  0  0  0  0
 10 11  1  0  0  0  0
 11 12  2  0  0  0  0
M  END
>  <CHROM.1>
-135.62416122,172.67075822,-174.76453453,11.20797563,11.71256014,147.66675381
-2.72291634,-1.06814279,2.88759222

>  <Name>
ligand

>  <RI>
0

>  <Rbt.Current_Directory>
/home/itssahil/PROJECTS/Mol_Feturizer/New_Systems/rnas/4NYA

>  <Rbt.Executable>
rbdock ($Id: //depot/dev/client3/rdock/2013.1/src/exe/rbdock.cxx#4 $)

>  <Rbt.Library>
libRbt.so (2013.1, Build901 2013/11/27)

>  <Rbt.Parameter_File>
/export/apps/rDock/src/rDock_2013.1_src/data/scripts/dock_solv.prm

>  <Rbt.Receptor>
prm/pocket_docking_4.prm

>  <SCORE>
-11.5678

>  <SCORE.INTER>
-10.7038

>  <SCORE.INTER.CONST>
1

>  <SCORE.INTER.POLAR>
0

>  <SCORE.INTER.ROT>
3

>  <SCORE.INTER.SOLV>
15.8315

>  <SCORE.INTER.VDW>
-18.013

>  <SCORE.INTER.norm>
-0.891987

>  <SCORE.INTRA>
-0.864007

>  <SCORE.INTRA.DIHEDRAL>
-0.656452

>  <SCORE.INTRA.DIHEDRAL.0>
2.1382

>  <SCORE.INTRA.POLAR>
0

>  <SCORE.INTRA.POLAR.0>
0

>  <SCORE.INTRA.REPUL>
0

>  <SCORE.INTRA.REPUL.0>
0

>  <SCORE.INTRA.SOLV>
-1.38392

>  <SCORE.INTRA.SOLV.lig_0>
-59.6513

>  <SCORE.INTRA.VDW>
0.156179

>  <SCORE.INTRA.VDW.0>
-0.569808

>  <SCORE.INTRA.norm>
-0.0720006

>  <SCORE.RESTR>
0

>  <SCORE.RESTR.CAVITY>
0

>  <SCORE.RESTR.norm>
0

>  <SCORE.SYSTEM>
0

>  <SCORE.SYSTEM.CONST>
0

>  <SCORE.SYSTEM.DIHEDRAL>
0

>  <SCORE.SYSTEM.SOLV>
0

>  <SCORE.SYSTEM.norm>
0

>  <SCORE.heavy>
12

>  <SCORE.norm>
-0.963987

>  <RMSD>
1.072

$$$$
ligand
 OpenBabel11021811503D
libRbt.so/2013.1/901 2013/11/27
 12 12  0  0  0  0  0  0  0  0999 V2000
   10.1504   12.7425  148.1590 C   0  0  0  0  0  0  0  0  0  0  0  0
   12.9436    8.8336  145.4600 C   0  0  0  0  0  0  0  0  0  0  0  0
   11.8497   13.3498  146.1350 N   0  0  0  0  0  0  0  0  0  0  0  0
   10.1237   12.5733  149.6194 N   0  0  0  0  0  0  0  0  0  0  0  0
    9.6915   13.4221  150.2156 N   0  0  0  0  0  0  0  0  0  0  0  0
    9.2614   14.2661  150.8165 N   0  0  0  0  0  0  0  0  0  0  0  0
   11.4274    9.4640  147.1452 N   0  0  0  0  0  0  0  0  0  0  0  0
   12.2397    9.8207  146.1386 C   0  0  0  0  0  0  0  0  0  0  0  0
   12.4344   11.1133  145.8409 N   0  0  0  0  0  0  0  0  0  0  0  0
   11.8219   12.0819  146.5349 C   0  0  0  0  0  0  0  0  0  0  0  0
   10.9714   11.7749  147.5923 C   0  0  0  0  0  0  0  0  0  0  0  0
   10.7758   10.4379  147.9093 C   0  0  0  0  0  0  0  0  0  0  0  0
  1 11  1  0  0  0  0
  1  4  1  0  0  0  0
  2  8  1  0  0  0  0
  3 10  1  0  0  0  0
  4  5  1  0  0  0  0
  5  6  1  0  0  0  0
  7  8  2  0  0  0  0
  7 12  1  0  0  0  0
  8  9  1  0  0  0  0
  9 10  2  0  0  0  0
 10 11  1  0  0  0  0
 11 12  2  0  0  0  0
M  END
>  <CHROM.1>
-140.01791517,166.52747728,-177.75651109,11.13687191,11.66990202,147.64585238
-2.60858828,-1.03135032,3.01025430

>  <Name>
ligand

>  <RI>
0

>  <Rbt.Current_Directory>
/home/itssahil/PROJECTS/Mol_Feturizer/New_Systems/rnas/4NYA

>  <Rbt.Executable>
rbdock ($Id: //depot/dev/client3/rdock/2013.1/src/exe/rbdock.cxx#4 $)

>  <Rbt.Library>
libRbt.so (2013.1, Build901 2013/11/27)

>  <Rbt.Parameter_File>
/export/apps/rDock/src/rDock_2013.1_src/data/scripts/dock_solv.prm

>  <Rbt.Receptor>
prm/pocket_docking_2.prm

>  <SCORE>
-11.5483

>  <SCORE.INTER>
-10.7245

>  <SCORE.INTER.CONST>
1

>  <SCORE.INTER.POLAR>
0

>  <SCORE.INTER.ROT>
3

>  <SCORE.INTER.SOLV>
15.4388

>  <SCORE.INTER.VDW>
-17.8959

>  <SCORE.INTER.norm>
-0.893706

>  <SCORE.INTRA>
-0.823838

>  <SCORE.INTRA.DIHEDRAL>
-0.658561

>  <SCORE.INTRA.DIHEDRAL.0>
2.1382

>  <SCORE.INTRA.POLAR>
0

>  <SCORE.INTRA.POLAR.0>
0

>  <SCORE.INTRA.REPUL>
0

>  <SCORE.INTRA.REPUL.0>
0

>  <SCORE.INTRA.SOLV>
-1.42872

>  <SCORE.INTRA.SOLV.lig_0>
-59.6513

>  <SCORE.INTRA.VDW>
0.219804

>  <SCORE.INTRA.VDW.0>
-0.569808

>  <SCORE.INTRA.norm>
-0.0686532

>  <SCORE.RESTR>
0

>  <SCORE.RESTR.CAVITY>
0

>  <SCORE.RESTR.norm>
0

>  <SCORE.SYSTEM>
0

>  <SCORE.SYSTEM.CONST>
0

>  <SCORE.SYSTEM.DIHEDRAL>
0

>  <SCORE.SYSTEM.SOLV>
0

>  <SCORE.SYSTEM.norm>
0

>  <SCORE.heavy>
12

>  <SCORE.norm>
-0.962359

>  <RMSD>
1.073

$$$$
ligand
 OpenBabel11021811503D
libRbt.so/2013.1/901 2013/11/27
 12 12  0  0  0  0  0  0  0  0999 V2000
   10.1739   12.7555  148.2279 C   0  0  0  0  0  0  0  0  0  0  0  0
   12.9824    8.8840  145.4910 C   0  0  0  0  0  0  0  0  0  0  0  0
   11.7672   13.3754  146.1232 N   0  0  0  0  0  0  0  0  0  0  0  0
   10.3053   12.6963  149.6913 N   0  0  0  0  0  0  0  0  0  0  0  0
    9.8173   13.5244  150.2733 N   0  0  0  0  0  0  0  0  0  0  0  0
    9.3339   14.3557  150.8511 N   0  0  0  0  0  0  0  0  0  0  0  0
   11.5167    9.4999  147.2257 N   0  0  0  0  0  0  0  0  0  0  0  0
   12.2744    9.8617  146.1792 C   0  0  0  0  0  0  0  0  0  0  0  0
   12.4136   11.1534  145.8484 N   0  0  0  0  0  0  0  0  0  0  0  0
   11.7982   12.1159  146.5485 C   0  0  0  0  0  0  0  0  0  0  0  0
   11.0027   11.8035  147.6463 C   0  0  0  0  0  0  0  0  0  0  0  0
   10.8650   10.4678  147.9972 C   0  0  0  0  0  0  0  0  0  0  0  0
  1 11  1  0  0  0  0
  1  4  1  0  0  0  0
  2  8  1  0  0  0  0
  3 10  1  0  0  0  0
  4  5  1  0  0  0  0
  5  6  1  0  0  0  0
  7  8  2  0  0  0  0
  7 12  1  0  0  0  0
  8  9  1  0  0  0  0
  9 10  2  0  0  0  0
 10 11  1  0  0  0  0
 11 12  2  0  0  0  0
M  END
>  <CHROM.1>
-134.95760831,170.28028833,-58.83572461,11.18413487,11.72187848,147.69025329
-2.67724429,-1.07028358,2.92036543

>  <Name>
ligand

>  <RI>
0

>  <Rbt.Current_Directory>
/home/itssahil/PROJECTS/Mol_Feturizer/New_Systems/rnas/4NYA

>  <Rbt.Executable>
rbdock ($Id: //depot/dev/client3/rdock/2013.1/src/exe/rbdock.cxx#4 $)

>  <Rbt.Library>
libRbt.so (2013.1, Build901 2013/11/27)

>  <Rbt.Parameter_File>
/export/apps/rDock/src/rDock_2013.1_src/data/scripts/dock_solv.prm

>  <Rbt.Receptor>
prm/pocket_docking_2.prm

>  <SCORE>
-11.5945

>  <SCORE.INTER>
-10.7496

>  <SCORE.INTER.CONST>
1

>  <SCORE.INTER.POLAR>
0

>  <SCORE.INTER.ROT>
3

>  <SCORE.INTER.SOLV>
15.6105

>  <SCORE.INTER.VDW>
-17.9699

>  <SCORE.INTER.norm>
-0.895802

>  <SCORE.INTRA>
-0.844846

>  <SCORE.INTRA.DIHEDRAL>
-0.61537

>  <SCORE.INTRA.DIHEDRAL.0>
2.1382

>  <SCORE.INTRA.POLAR>
0

>  <SCORE.INTRA.POLAR.0>
0

>  <SCORE.INTRA.REPUL>
0

>  <SCORE.INTRA.REPUL.0>
0

>  <SCORE.INTRA.SOLV>
-1.37501

>  <SCORE.INTRA.SOLV.lig_0>
-59.6513

>  <SCORE.INTRA.VDW>
0.150343

>  <SCORE.INTRA.VDW.0>
-0.569808

>  <SCORE.INTRA.norm>
-0.0704038

>  <SCORE.RESTR>
0

>  <SCORE.RESTR.CAVITY>
0

>  <SCORE.RESTR.norm>
0

>  <SCORE.SYSTEM>
0

>  <SCORE.SYSTEM.CONST>
0

>  <SCORE.SYSTEM.DIHEDRAL>
0

>  <SCORE.SYSTEM.SOLV>
0

>  <SCORE.SYSTEM.norm>
0

>  <SCORE.heavy>
12

>  <SCORE.norm>
-0.966206

>  <RMSD>
1.073

$$$$
ligand
 OpenBabel11021811503D
libRbt.so/2013.1/901 2013/11/27
 12 12  0  0  0  0  0  0  0  0999 V2000
   10.1855   12.7453  148.2323 C   0  0  0  0  0  0  0  0  0  0  0  0
   12.9859    8.8776  145.4816 C   0  0  0  0  0  0  0  0  0  0  0  0
   11.7593   13.3660  146.1131 N   0  0  0  0  0  0  0  0  0  0  0  0
   10.3258   12.6870  149.6949 N   0  0  0  0  0  0  0  0  0  0  0  0
    9.8272   13.5064  150.2803 N   0  0  0  0  0  0  0  0  0  0  0  0
    9.3334   14.3290  150.8616 N   0  0  0  0  0  0  0  0  0  0  0  0
   11.5321    9.4922  147.2268 N   0  0  0  0  0  0  0  0  0  0  0  0
   12.2799    9.8543  146.1733 C   0  0  0  0  0  0  0  0  0  0  0  0
   12.4116   11.1458  145.8384 N   0  0  0  0  0  0  0  0  0  0  0  0
   11.7984   12.1076  146.5412 C   0  0  0  0  0  0  0  0  0  0  0  0
   11.0131   11.7949  147.6462 C   0  0  0  0  0  0  0  0  0  0  0  0
   10.8831   10.4595  148.0013 C   0  0  0  0  0  0  0  0  0  0  0  0
  1 11  1  0  0  0  0
  1  4  1  0  0  0  0
  2  8  1  0  0  0  0
  3 10  1  0  0  0  0
  4  5  1  0  0  0  0
  5  6  1  0  0  0  0
  7  8  2  0  0  0  0
  7 12  1  0  0  0  0
  8  9  1  0  0  0  0
  9 10  2  0  0  0  0
 10 11  1  0  0  0  0
 11 12  2  0  0  0  0
M  END
>  <CHROM.1>
-135.14651499,171.10087678,-60.70309851,11.19110062,11.71113148,147.68925489
-2.69251688,-1.07505285,2.90659175

>  <Name>
ligand

>  <RI>
0

>  <Rbt.Current_Directory>
/home/itssahil/PROJECTS/Mol_Feturizer/New_Systems/rnas/4NYA

>  <Rbt.Executable>
rbdock ($Id: //depot/dev/client3/rdock/2013.1/src/exe/rbdock.cxx#4 $)

>  <Rbt.Library>
libRbt.so (2013.1, Build901 2013/11/27)

>  <Rbt.Parameter_File>
/export/apps/rDock/src/rDock_2013.1_src/data/scripts/dock_solv.prm

>  <Rbt.Receptor>
prm/pocket_docking_3.prm

>  <SCORE>
-11.5933

>  <SCORE.INTER>
-10.7415

>  <SCORE.INTER.CONST>
1

>  <SCORE.INTER.POLAR>
0

>  <SCORE.INTER.ROT>
3

>  <SCORE.INTER.SOLV>
15.6813

>  <SCORE.INTER.VDW>
-17.9881

>  <SCORE.INTER.norm>
-0.895121

>  <SCORE.INTRA>
-0.851846

>  <SCORE.INTRA.DIHEDRAL>
-0.632181

>  <SCORE.INTRA.DIHEDRAL.0>
2.1382

>  <SCORE.INTRA.POLAR>
0

>  <SCORE.INTRA.POLAR.0>
0

>  <SCORE.INTRA.REPUL>
0

>  <SCORE.INTRA.REPUL.0>
0

>  <SCORE.INTRA.SOLV>
-1.37635

>  <SCORE.INTRA.SOLV.lig_0>
-59.6513

>  <SCORE.INTRA.VDW>
0.15242

>  <SCORE.INTRA.VDW.0>
-0.569808

>  <SCORE.INTRA.norm>
-0.0709871

>  <SCORE.RESTR>
0

>  <SCORE.RESTR.CAVITY>
0

>  <SCORE.RESTR.norm>
0

>  <SCORE.SYSTEM>
0

>  <SCORE.SYSTEM.CONST>
0

>  <SCORE.SYSTEM.DIHEDRAL>
0

>  <SCORE.SYSTEM.SOLV>
0

>  <SCORE.SYSTEM.norm>
0

>  <SCORE.heavy>
12

>  <SCORE.norm>
-0.966108

>  <RMSD>
1.074

$$$$
ligand
 OpenBabel11021811503D
libRbt.so/2013.1/901 2013/11/27
 12 12  0  0  0  0  0  0  0  0999 V2000
   10.2713   12.7881  148.2771 C   0  0  0  0  0  0  0  0  0  0  0  0
   13.0257    8.9396  145.4541 C   0  0  0  0  0  0  0  0  0  0  0  0
   11.7234   13.4083  146.0726 N   0  0  0  0  0  0  0  0  0  0  0  0
   10.4263   12.7042  149.7369 N   0  0  0  0  0  0  0  0  0  0  0  0
    9.9169   13.5018  150.3428 N   0  0  0  0  0  0  0  0  0  0  0  0
    9.4022   14.2955  150.9457 N   0  0  0  0  0  0  0  0  0  0  0  0
   11.6452    9.5504  147.2590 N   0  0  0  0  0  0  0  0  0  0  0  0
   12.3312    9.9114  146.1640 C   0  0  0  0  0  0  0  0  0  0  0  0
   12.4149   11.1995  145.8019 N   0  0  0  0  0  0  0  0  0  0  0  0
   11.8139   12.1589  146.5186 C   0  0  0  0  0  0  0  0  0  0  0  0
   11.0918   11.8472  147.6661 C   0  0  0  0  0  0  0  0  0  0  0  0
   11.0119   10.5156  148.0490 C   0  0  0  0  0  0  0  0  0  0  0  0
  1 11  1  0  0  0  0
  1  4  1  0  0  0  0
  2  8  1  0  0  0  0
  3 10  1  0  0  0  0
  4  5  1  0  0  0  0
  5  6  1  0  0  0  0
  7  8  2  0  0  0  0
  7 12  1  0  0  0  0
  8  9  1  0  0  0  0
  9 10  2  0  0  0  0
 10 11  1  0  0  0  0
 11 12  2  0  0  0  0
M  END
>  <CHROM.1>
-138.45888246,172.32718552,67.10850126,11.25223043,11.74840099,147.70573902
-2.79011514,-1.10357115,2.81606836

>  <Name>
ligand

>  <RI>
0

>  <Rbt.Current_Directory>
/home/itssahil/PROJECTS/Mol_Feturizer/New_Systems/rnas/4NYA

>  <Rbt.Executable>
rbdock ($Id: //depot/dev/client3/rdock/2013.1/src/exe/rbdock.cxx#4 $)

>  <Rbt.Library>
libRbt.so (2013.1, Build901 2013/11/27)

>  <Rbt.Parameter_File>
/export/apps/rDock/src/rDock_2013.1_src/data/scripts/dock_solv.prm

>  <Rbt.Receptor>
prm/pocket_docking_3.prm

>  <SCORE>
-11.5546

>  <SCORE.INTER>
-10.7002

>  <SCORE.INTER.CONST>
1

>  <SCORE.INTER.POLAR>
0

>  <SCORE.INTER.ROT>
3

>  <SCORE.INTER.SOLV>
15.9337

>  <SCORE.INTER.VDW>
-18.0447

>  <SCORE.INTER.norm>
-0.891687

>  <SCORE.INTRA>
-0.854407

>  <SCORE.INTRA.DIHEDRAL>
-0.709594

>  <SCORE.INTRA.DIHEDRAL.0>
2.1382

>  <SCORE.INTRA.POLAR>
0

>  <SCORE.INTRA.POLAR.0>
0

>  <SCORE.INTRA.REPUL>
0

>  <SCORE.INTRA.REPUL.0>
0

>  <SCORE.INTRA.SOLV>
-1.40767

>  <SCORE.INTRA.SOLV.lig_0>
-59.6513

>  <SCORE.INTRA.VDW>
0.204225

>  <SCORE.INTRA.VDW.0>
-0.569808

>  <SCORE.INTRA.norm>
-0.0712005

>  <SCORE.RESTR>
0

>  <SCORE.RESTR.CAVITY>
0

>  <SCORE.RESTR.norm>
0

>  <SCORE.SYSTEM>
0

>  <SCORE.SYSTEM.CONST>
0

>  <SCORE.SYSTEM.DIHEDRAL>
0

>  <SCORE.SYSTEM.SOLV>
0

>  <SCORE.SYSTEM.norm>
0

>  <SCORE.heavy>
12

>  <SCORE.norm>
-0.962887

>  <RMSD>
1.074

$$$$
ligand
 OpenBabel11021811503D
libRbt.so/2013.1/901 2013/11/27
 12 12  0  0  0  0  0  0  0  0999 V2000
   10.1840   12.7510  148.2519 C   0  0  0  0  0  0  0  0  0  0  0  0
   12.9601    8.8732  145.4910 C   0  0  0  0  0  0  0  0  0  0  0  0
   11.7768   13.3698  146.1463 N   0  0  0  0  0  0  0  0  0  0  0  0
   10.3140   12.6804  149.7149 N   0  0  0  0  0  0  0  0  0  0  0  0
    9.8542   13.5216  150.3012 N   0  0  0  0  0  0  0  0  0  0  0  0
    9.3975   14.3585  150.8922 N   0  0  0  0  0  0  0  0  0  0  0  0
   11.5025    9.4910  147.2317 N   0  0  0  0  0  0  0  0  0  0  0  0
   12.2603    9.8525  146.1852 C   0  0  0  0  0  0  0  0  0  0  0  0
   12.4075   11.1448  145.8600 N   0  0  0  0  0  0  0  0  0  0  0  0
   11.8002   12.1082  146.5658 C   0  0  0  0  0  0  0  0  0  0  0  0
   11.0051   11.7961  147.6640 C   0  0  0  0  0  0  0  0  0  0  0  0
   10.8591   10.4598  148.0091 C   0  0  0  0  0  0  0  0  0  0  0  0
  1 11  1  0  0  0  0
  1  4  1  0  0  0  0
  2  8  1  0  0  0  0
  3 10  1  0  0  0  0
  4  5  1  0  0  0  0
  5  6  1  0  0  0  0
  7  8  2  0  0  0  0
  7 12  1  0  0  0  0
  8  9  1  0  0  0  0
  9 10  2  0  0  0  0
 10 11  1  0  0  0  0
 11 12  2  0  0  0  0
M  END
>  <CHROM.1>
-135.19743299,168.84275680,-177.99589822,11.19033511,11.71470145,147.70787536
-2.66118562,-1.07687414,2.93808810

>  <Name>
ligand

>  <RI>
0

>  <Rbt.Current_Directory>
/home/itssahil/PROJECTS/Mol_Feturizer/New_Systems/rnas/4NYA

>  <Rbt.Executable>
rbdock ($Id: //depot/dev/client3/rdock/2013.1/src/exe/rbdock.cxx#4 $)

>  <Rbt.Library>
libRbt.so (2013.1, Build901 2013/11/27)

>  <Rbt.Parameter_File>
/export/apps/rDock/src/rDock_2013.1_src/data/scripts/dock_solv.prm

>  <Rbt.Receptor>
prm/pocket_docking_2.prm

>  <SCORE>
-11.5825

>  <SCORE.INTER>
-10.7436

>  <SCORE.INTER.CONST>
1

>  <SCORE.INTER.POLAR>
0

>  <SCORE.INTER.ROT>
3

>  <SCORE.INTER.SOLV>
15.5069

>  <SCORE.INTER.VDW>
-17.9314

>  <SCORE.INTER.norm>
-0.895301

>  <SCORE.INTRA>
-0.838862

>  <SCORE.INTRA.DIHEDRAL>
-0.596886

>  <SCORE.INTRA.DIHEDRAL.0>
2.1382

>  <SCORE.INTRA.POLAR>
0

>  <SCORE.INTRA.POLAR.0>
0

>  <SCORE.INTRA.REPUL>
0

>  <SCORE.INTRA.REPUL.0>
0

>  <SCORE.INTRA.SOLV>
-1.3827

>  <SCORE.INTRA.SOLV.lig_0>
-59.6513

>  <SCORE.INTRA.VDW>
0.15093

>  <SCORE.INTRA.VDW.0>
-0.569808

>  <SCORE.INTRA.norm>
-0.0699051

>  <SCORE.RESTR>
0

>  <SCORE.RESTR.CAVITY>
0

>  <SCORE.RESTR.norm>
0

>  <SCORE.SYSTEM>
0

>  <SCORE.SYSTEM.CONST>
0

>  <SCORE.SYSTEM.DIHEDRAL>
0

>  <SCORE.SYSTEM.SOLV>
0

>  <SCORE.SYSTEM.norm>
0

>  <SCORE.heavy>
12

>  <SCORE.norm>
-0.965206

>  <RMSD>
1.075

$$$$
ligand
 OpenBabel11021811503D
libRbt.so/2013.1/901 2013/11/27
 12 12  0  0  0  0  0  0  0  0999 V2000
   10.1666   12.7754  148.2258 C   0  0  0  0  0  0  0  0  0  0  0  0
   12.9682    8.8954  145.4940 C   0  0  0  0  0  0  0  0  0  0  0  0
   11.7911   13.3942  146.1447 N   0  0  0  0  0  0  0  0  0  0  0  0
   10.2699   12.6953  149.6905 N   0  0  0  0  0  0  0  0  0  0  0  0
    9.8317   13.5509  150.2724 N   0  0  0  0  0  0  0  0  0  0  0  0
    9.3881   14.4037  150.8507 N   0  0  0  0  0  0  0  0  0  0  0  0
   11.4883    9.5136  147.2156 N   0  0  0  0  0  0  0  0  0  0  0  0
   12.2621    9.8753  146.1809 C   0  0  0  0  0  0  0  0  0  0  0  0
   12.4182   11.1679  145.8613 N   0  0  0  0  0  0  0  0  0  0  0  0
   11.8042   12.1315  146.5611 C   0  0  0  0  0  0  0  0  0  0  0  0
   10.9926   11.8192  147.6471 C   0  0  0  0  0  0  0  0  0  0  0  0
   10.8372   10.4825  147.9865 C   0  0  0  0  0  0  0  0  0  0  0  0
  1 11  1  0  0  0  0
  1  4  1  0  0  0  0
  2  8  1  0  0  0  0
  3 10  1  0  0  0  0
  4  5  1  0  0  0  0
  5  6  1  0  0  0  0
  7  8  2  0  0  0  0
  7 12  1  0  0  0  0
  8  9  1  0  0  0  0
  9 10  2  0  0  0  0
 10 11  1  0  0  0  0
 11 12  2  0  0  0  0
M  END
>  <CHROM.1>
-135.51661992,167.06295845,60.24402982,11.18177383,11.73960478,147.69260114
-2.64317549,-1.06629726,2.95440150

>  <Name>
ligand

>  <RI>
0

>  <Rbt.Current_Directory>
/home/itssahil/PROJECTS/Mol_Feturizer/New_Systems/rnas/4NYA

>  <Rbt.Executable>
rbdock ($Id: //depot/dev/client3/rdock/2013.1/src/exe/rbdock.cxx#4 $)

>  <Rbt.Library>
libRbt.so (2013.1, Build901 2013/11/27)

>  <Rbt.Parameter_File>
/export/apps/rDock/src/rDock_2013.1_src/data/scripts/dock_solv.prm

>  <Rbt.Receptor>
prm/pocket_docking_2.prm

>  <SCORE>
-11.5821

>  <SCORE.INTER>
-10.7598

>  <SCORE.INTER.CONST>
1

>  <SCORE.INTER.POLAR>
0

>  <SCORE.INTER.ROT>
3

>  <SCORE.INTER.SOLV>
15.4597

>  <SCORE.INTER.VDW>
-17.9264

>  <SCORE.INTER.norm>
-0.896649

>  <SCORE.INTRA>
-0.82233

>  <SCORE.INTRA.DIHEDRAL>
-0.572549

>  <SCORE.INTRA.DIHEDRAL.0>
2.1382

>  <SCORE.INTRA.POLAR>
0

>  <SCORE.INTRA.POLAR.0>
0

>  <SCORE.INTRA.REPUL>
0

>  <SCORE.INTRA.REPUL.0>
0

>  <SCORE.INTRA.SOLV>
-1.38236

>  <SCORE.INTRA.SOLV.lig_0>
-59.6513

>  <SCORE.INTRA.VDW>
0.155126

>  <SCORE.INTRA.VDW.0>
-0.569808

>  <SCORE.INTRA.norm>
-0.0685275

>  <SCORE.RESTR>
0

>  <SCORE.RESTR.CAVITY>
0

>  <SCORE.RESTR.norm>
0

>  <SCORE.SYSTEM>
0

>  <SCORE.SYSTEM.CONST>
0

>  <SCORE.SYSTEM.DIHEDRAL>
0

>  <SCORE.SYSTEM.SOLV>
0

>  <SCORE.SYSTEM.norm>
0

>  <SCORE.heavy>
12

>  <SCORE.norm>
-0.965176

>  <RMSD>
1.076

$$$$
ligand
 OpenBabel11021811503D
libRbt.so/2013.1/901 2013/11/27
 12 12  0  0  0  0  0  0  0  0999 V2000
   10.2305   12.6637  148.2549 C   0  0  0  0  0  0  0  0  0  0  0  0
   13.0539    8.8697  145.4264 C   0  0  0  0  0  0  0  0  0  0  0  0
   11.7933   13.3357  146.1432 N   0  0  0  0  0  0  0  0  0  0  0  0
   10.3167   12.5270  149.7164 N   0  0  0  0  0  0  0  0  0  0  0  0
    9.7987   13.3161  150.3261 N   0  0  0  0  0  0  0  0  0  0  0  0
    9.2851   14.1086  150.9316 N   0  0  0  0  0  0  0  0  0  0  0  0
   11.6003    9.4405  147.1864 N   0  0  0  0  0  0  0  0  0  0  0  0
   12.3422    9.8279  146.1377 C   0  0  0  0  0  0  0  0  0  0  0  0
   12.4625   11.1262  145.8261 N   0  0  0  0  0  0  0  0  0  0  0  0
   11.8436   12.0701  146.5480 C   0  0  0  0  0  0  0  0  0  0  0  0
   11.0640   11.7309  147.6492 C   0  0  0  0  0  0  0  0  0  0  0  0
   10.9458   10.3883  147.9802 C   0  0  0  0  0  0  0  0  0  0  0  0
  1 11  1  0  0  0  0
  1  4  1  0  0  0  0
  2  8  1  0  0  0  0
  3 10  1  0  0  0  0
  4  5  1  0  0  0  0
  5  6  1  0  0  0  0
  7  8  2  0  0  0  0
  7 12  1  0  0  0  0
  8  9  1  0  0  0  0
  9 10  2  0  0  0  0
 10 11  1  0  0  0  0
 11 12  2  0  0  0  0
M  END
>  <CHROM.1>
-138.41012402,171.86957028,-56.30892644,11.22368241,11.63001066,147.69256653
-2.72672577,-1.06528006,2.90599206

>  <Name>
ligand

>  <RI>
0

>  <Rbt.Current_Directory>
/home/itssahil/PROJECTS/Mol_Feturizer/New_Systems/rnas/4NYA

>  <Rbt.Executable>
rbdock ($Id: //depot/dev/client3/rdock/2013.1/src/exe/rbdock.cxx#4 $)

>  <Rbt.Library>
libRbt.so (2013.1, Build901 2013/11/27)

>  <Rbt.Parameter_File>
/export/apps/rDock/src/rDock_2013.1_src/data/scripts/dock_solv.prm

>  <Rbt.Receptor>
prm/pocket_docking_4.prm

>  <SCORE>
-11.5793

>  <SCORE.INTER>
-10.7231

>  <SCORE.INTER.CONST>
1

>  <SCORE.INTER.POLAR>
0

>  <SCORE.INTER.ROT>
3

>  <SCORE.INTER.SOLV>
15.7071

>  <SCORE.INTER.VDW>
-17.9844

>  <SCORE.INTER.norm>
-0.893589

>  <SCORE.INTRA>
-0.856212

>  <SCORE.INTRA.DIHEDRAL>
-0.712747

>  <SCORE.INTRA.DIHEDRAL.0>
2.1382

>  <SCORE.INTRA.POLAR>
0

>  <SCORE.INTRA.POLAR.0>
0

>  <SCORE.INTRA.REPUL>
0

>  <SCORE.INTRA.REPUL.0>
0

>  <SCORE.INTRA.SOLV>
-1.40715

>  <SCORE.INTRA.SOLV.lig_0>
-59.6513

>  <SCORE.INTRA.VDW>
0.203739

>  <SCORE.INTRA.VDW.0>
-0.569808

>  <SCORE.INTRA.norm>
-0.071351

>  <SCORE.RESTR>
0

>  <SCORE.RESTR.CAVITY>
0

>  <SCORE.RESTR.norm>
0

>  <SCORE.SYSTEM>
0

>  <SCORE.SYSTEM.CONST>
0

>  <SCORE.SYSTEM.DIHEDRAL>
0

>  <SCORE.SYSTEM.SOLV>
0

>  <SCORE.SYSTEM.norm>
0

>  <SCORE.heavy>
12

>  <SCORE.norm>
-0.96494

>  <RMSD>
1.076

$$$$
ligand
 OpenBabel11021811503D
libRbt.so/2013.1/901 2013/11/27
 12 12  0  0  0  0  0  0  0  0999 V2000
   10.1871   12.7429  148.2973 C   0  0  0  0  0  0  0  0  0  0  0  0
   12.9596    8.9080  145.4736 C   0  0  0  0  0  0  0  0  0  0  0  0
   11.7855   13.3950  146.2061 N   0  0  0  0  0  0  0  0  0  0  0  0
   10.3934   12.7187  149.7530 N   0  0  0  0  0  0  0  0  0  0  0  0
    9.9251   13.5542  150.3406 N   0  0  0  0  0  0  0  0  0  0  0  0
    9.4515   14.3863  150.9252 N   0  0  0  0  0  0  0  0  0  0  0  0
   11.5000    9.4983  147.2221 N   0  0  0  0  0  0  0  0  0  0  0  0
   12.2607    9.8765  146.1837 C   0  0  0  0  0  0  0  0  0  0  0  0
   12.4115   11.1739  145.8817 N   0  0  0  0  0  0  0  0  0  0  0  0
   11.8050   12.1261  146.6033 C   0  0  0  0  0  0  0  0  0  0  0  0
   11.0071   11.7965  147.6942 C   0  0  0  0  0  0  0  0  0  0  0  0
   10.8573   10.4547  148.0154 C   0  0  0  0  0  0  0  0  0  0  0  0
  1 11  1  0  0  0  0
  1  4  1  0  0  0  0
  2  8  1  0  0  0  0
  3 10  1  0  0  0  0
  4  5  1  0  0  0  0
  5  6  1  0  0  0  0
  7  8  2  0  0  0  0
  7 12  1  0  0  0  0
  8  9  1  0  0  0  0
  9 10  2  0  0  0  0
 10 11  1  0  0  0  0
 11 12  2  0  0  0  0
M  END
>  <CHROM.1>
-130.73815032,169.69145020,61.72810203,11.20958643,11.73395247,147.73146020
-2.63565025,-1.08278181,2.96575331

>  <Name>
ligand

>  <RI>
0

>  <Rbt.Current_Directory>
/home/itssahil/PROJECTS/Mol_Feturizer/New_Systems/rnas/4NYA

>  <Rbt.Executable>
rbdock ($Id: //depot/dev/client3/rdock/2013.1/src/exe/rbdock.cxx#4 $)

>  <Rbt.Library>
libRbt.so (2013.1, Build901 2013/11/27)

>  <Rbt.Parameter_File>
/export/apps/rDock/src/rDock_2013.1_src/data/scripts/dock_solv.prm

>  <Rbt.Receptor>
prm/pocket_docking_3.prm

>  <SCORE>
-11.5344

>  <SCORE.INTER>
-10.73

>  <SCORE.INTER.CONST>
1

>  <SCORE.INTER.POLAR>
0

>  <SCORE.INTER.ROT>
3

>  <SCORE.INTER.SOLV>
15.422

>  <SCORE.INTER.VDW>
-17.894

>  <SCORE.INTER.norm>
-0.894164

>  <SCORE.INTRA>
-0.804406

>  <SCORE.INTRA.DIHEDRAL>
-0.499978

>  <SCORE.INTRA.DIHEDRAL.0>
2.1382

>  <SCORE.INTRA.POLAR>
0

>  <SCORE.INTRA.POLAR.0>
0

>  <SCORE.INTRA.REPUL>
0

>  <SCORE.INTRA.REPUL.0>
0

>  <SCORE.INTRA.SOLV>
-1.33046

>  <SCORE.INTRA.SOLV.lig_0>
-59.6513

>  <SCORE.INTRA.VDW>
0.110813

>  <SCORE.INTRA.VDW.0>
-0.569808

>  <SCORE.INTRA.norm>
-0.0670338

>  <SCORE.RESTR>
0

>  <SCORE.RESTR.CAVITY>
0

>  <SCORE.RESTR.norm>
0

>  <SCORE.SYSTEM>
0

>  <SCORE.SYSTEM.CONST>
0

>  <SCORE.SYSTEM.DIHEDRAL>
0

>  <SCORE.SYSTEM.SOLV>
0

>  <SCORE.SYSTEM.norm>
0

>  <SCORE.heavy>
12

>  <SCORE.norm>
-0.961198

>  <RMSD>
1.078

$$$$
ligand
 OpenBabel11021811503D
libRbt.so/2013.1/901 2013/11/27
 12 12  0  0  0  0  0  0  0  0999 V2000
   10.2012   12.7438  148.2177 C   0  0  0  0  0  0  0  0  0  0  0  0
   13.0456    8.9175  145.4546 C   0  0  0  0  0  0  0  0  0  0  0  0
   11.7682   13.3895  146.1010 N   0  0  0  0  0  0  0  0  0  0  0  0
   10.3085   12.6516  149.6814 N   0  0  0  0  0  0  0  0  0  0  0  0
    9.8355   13.4817  150.2730 N   0  0  0  0  0  0  0  0  0  0  0  0
    9.3572   14.3083  150.8616 N   0  0  0  0  0  0  0  0  0  0  0  0
   11.5847    9.5097  147.2015 N   0  0  0  0  0  0  0  0  0  0  0  0
   12.3285    9.8838  146.1494 C   0  0  0  0  0  0  0  0  0  0  0  0
   12.4456   11.1778  145.8189 N   0  0  0  0  0  0  0  0  0  0  0  0
   11.8214   12.1302  146.5248 C   0  0  0  0  0  0  0  0  0  0  0  0
   11.0396   11.8049  147.6286 C   0  0  0  0  0  0  0  0  0  0  0  0
   10.9247   10.4670  147.9792 C   0  0  0  0  0  0  0  0  0  0  0  0
  1 11  1  0  0  0  0
  1  4  1  0  0  0  0
  2  8  1  0  0  0  0
  3 10  1  0  0  0  0
  4  5  1  0  0  0  0
  5  6  1  0  0  0  0
  7  8  2  0  0  0  0
  7 12  1  0  0  0  0
  8  9  1  0  0  0  0
  9 10  2  0  0  0  0
 10 11  1  0  0  0  0
 11 12  2  0  0  0  0
M  END
>  <CHROM.1>
-137.01750147,168.63099302,67.87832298,11.21804125,11.71923863,147.67273384
-2.71629850,-1.07272956,2.89102661

>  <Name>
ligand

>  <RI>
0

>  <Rbt.Current_Directory>
/home/itssahil/PROJECTS/Mol_Feturizer/New_Systems/rnas/4NYA

>  <Rbt.Executable>
rbdock ($Id: //depot/dev/client3/rdock/2013.1/src/exe/rbdock.cxx#4 $)

>  <Rbt.Library>
libRbt.so (2013.1, Build901 2013/11/27)

>  <Rbt.Parameter_File>
/export/apps/rDock/src/rDock_2013.1_src/data/scripts/dock_solv.prm

>  <Rbt.Receptor>
prm/pocket_docking_4.prm

>  <SCORE>
-11.5572

>  <SCORE.INTER>
-10.7364

>  <SCORE.INTER.CONST>
1

>  <SCORE.INTER.POLAR>
0

>  <SCORE.INTER.ROT>
3

>  <SCORE.INTER.SOLV>
15.7199

>  <SCORE.INTER.VDW>
-17.9976

>  <SCORE.INTER.norm>
-0.894698

>  <SCORE.INTRA>
-0.820811

>  <SCORE.INTRA.DIHEDRAL>
-0.619567

>  <SCORE.INTRA.DIHEDRAL.0>
2.1382

>  <SCORE.INTRA.POLAR>
0

>  <SCORE.INTRA.POLAR.0>
0

>  <SCORE.INTRA.REPUL>
0

>  <SCORE.INTRA.REPUL.0>
0

>  <SCORE.INTRA.SOLV>
-1.39673

>  <SCORE.INTRA.SOLV.lig_0>
-59.6513

>  <SCORE.INTRA.VDW>
0.187335

>  <SCORE.INTRA.VDW.0>
-0.569808

>  <SCORE.INTRA.norm>
-0.0684009

>  <SCORE.RESTR>
0

>  <SCORE.RESTR.CAVITY>
0

>  <SCORE.RESTR.norm>
0

>  <SCORE.SYSTEM>
0

>  <SCORE.SYSTEM.CONST>
0

>  <SCORE.SYSTEM.DIHEDRAL>
0

>  <SCORE.SYSTEM.SOLV>
0

>  <SCORE.SYSTEM.norm>
0

>  <SCORE.heavy>
12

>  <SCORE.norm>
-0.963099

>  <RMSD>
1.082

$$$$
ligand
 OpenBabel11021811503D
libRbt.so/2013.1/901 2013/11/27
 12 12  0  0  0  0  0  0  0  0999 V2000
   10.2325   12.7202  148.2867 C   0  0  0  0  0  0  0  0  0  0  0  0
   12.9737    8.8619  145.4644 C   0  0  0  0  0  0  0  0  0  0  0  0
   11.7813   13.3512  146.1522 N   0  0  0  0  0  0  0  0  0  0  0  0
   10.4153   12.6692  149.7449 N   0  0  0  0  0  0  0  0  0  0  0  0
    9.9085   13.4742  150.3431 N   0  0  0  0  0  0  0  0  0  0  0  0
    9.4058   14.2825  150.9366 N   0  0  0  0  0  0  0  0  0  0  0  0
   11.5469    9.4689  147.2342 N   0  0  0  0  0  0  0  0  0  0  0  0
   12.2826    9.8363  146.1741 C   0  0  0  0  0  0  0  0  0  0  0  0
   12.4172   11.1299  145.8489 N   0  0  0  0  0  0  0  0  0  0  0  0
   11.8189   12.0888  146.5684 C   0  0  0  0  0  0  0  0  0  0  0  0
   11.0467   11.7706  147.6811 C   0  0  0  0  0  0  0  0  0  0  0  0
   10.9139   10.4328  148.0260 C   0  0  0  0  0  0  0  0  0  0  0  0
  1 11  1  0  0  0  0
  1  4  1  0  0  0  0
  2  8  1  0  0  0  0
  3 10  1  0  0  0  0
  4  5  1  0  0  0  0
  5  6  1  0  0  0  0
  7  8  2  0  0  0  0
  7 12  1  0  0  0  0
  8  9  1  0  0  0  0
  9 10  2  0  0  0  0
 10 11  1  0  0  0  0
 11 12  2  0  0  0  0
M  END
>  <CHROM.1>
-133.83900515,172.62751612,-56.48113837,11.22539648,11.68786382,147.72019869
-2.68673243,-1.08910602,2.91946952

>  <Name>
ligand

>  <RI>
0

>  <Rbt.Current_Directory>
/home/itssahil/PROJECTS/Mol_Feturizer/New_Systems/rnas/4NYA

>  <Rbt.Executable>
rbdock ($Id: //depot/dev/client3/rdock/2013.1/src/exe/rbdock.cxx#4 $)

>  <Rbt.Library>
libRbt.so (2013.1, Build901 2013/11/27)

>  <Rbt.Parameter_File>
/export/apps/rDock/src/rDock_2013.1_src/data/scripts/dock_solv.prm

>  <Rbt.Receptor>
prm/pocket_docking_4.prm

>  <SCORE>
-11.6182

>  <SCORE.INTER>
-10.7689

>  <SCORE.INTER.CONST>
1

>  <SCORE.INTER.POLAR>
0

>  <SCORE.INTER.ROT>
3

>  <SCORE.INTER.SOLV>
15.667

>  <SCORE.INTER.VDW>
-18.0016

>  <SCORE.INTER.norm>
-0.897405

>  <SCORE.INTRA>
-0.849368

>  <SCORE.INTRA.DIHEDRAL>
-0.617128

>  <SCORE.INTRA.DIHEDRAL.0>
2.1382

>  <SCORE.INTRA.POLAR>
0

>  <SCORE.INTRA.POLAR.0>
0

>  <SCORE.INTRA.REPUL>
0

>  <SCORE.INTRA.REPUL.0>
0

>  <SCORE.INTRA.SOLV>
-1.36123

>  <SCORE.INTRA.SOLV.lig_0>
-59.6513

>  <SCORE.INTRA.VDW>
0.139809

>  <SCORE.INTRA.VDW.0>
-0.569808

>  <SCORE.INTRA.norm>
-0.0707806

>  <SCORE.RESTR>
0

>  <SCORE.RESTR.CAVITY>
0

>  <SCORE.RESTR.norm>
0

>  <SCORE.SYSTEM>
0

>  <SCORE.SYSTEM.CONST>
0

>  <SCORE.SYSTEM.DIHEDRAL>
0

>  <SCORE.SYSTEM.SOLV>
0

>  <SCORE.SYSTEM.norm>
0

>  <SCORE.heavy>
12

>  <SCORE.norm>
-0.968186

>  <RMSD>
1.082

$$$$
ligand
 OpenBabel11021811503D
libRbt.so/2013.1/901 2013/11/27
 12 12  0  0  0  0  0  0  0  0999 V2000
   10.2452   12.7216  148.2574 C   0  0  0  0  0  0  0  0  0  0  0  0
   12.9839    8.8430  145.4604 C   0  0  0  0  0  0  0  0  0  0  0  0
   11.7766   13.3347  146.1052 N   0  0  0  0  0  0  0  0  0  0  0  0
   10.4691   12.7170  149.7107 N   0  0  0  0  0  0  0  0  0  0  0  0
    9.8978   13.4772  150.3094 N   0  0  0  0  0  0  0  0  0  0  0  0
    9.3305   14.2339  150.9127 N   0  0  0  0  0  0  0  0  0  0  0  0
   11.5667    9.4641  147.2331 N   0  0  0  0  0  0  0  0  0  0  0  0
   12.2935    9.8225  146.1638 C   0  0  0  0  0  0  0  0  0  0  0  0
   12.4201   11.1129  145.8230 N   0  0  0  0  0  0  0  0  0  0  0  0
   11.8226   12.0774  146.5356 C   0  0  0  0  0  0  0  0  0  0  0  0
   11.0594   11.7686  147.6571 C   0  0  0  0  0  0  0  0  0  0  0  0
   10.9349   10.4343  148.0182 C   0  0  0  0  0  0  0  0  0  0  0  0
  1 11  1  0  0  0  0
  1  4  1  0  0  0  0
  2  8  1  0  0  0  0
  3 10  1  0  0  0  0
  4  5  1  0  0  0  0
  5  6  1  0  0  0  0
  7  8  2  0  0  0  0
  7 12  1  0  0  0  0
  8  9  1  0  0  0  0
  9 10  2  0  0  0  0
 10 11  1  0  0  0  0
 11 12  2  0  0  0  0
M  END
>  <CHROM.1>
-132.07919267,177.53320071,-178.10333742,11.22980939,11.68115349,147.69727720
-2.70966260,-1.08860085,2.89325763

>  <Name>
ligand

>  <RI>
0

>  <Rbt.Current_Directory>
/home/itssahil/PROJECTS/Mol_Feturizer/New_Systems/rnas/4NYA

>  <Rbt.Executable>
rbdock ($Id: //depot/dev/client3/rdock/2013.1/src/exe/rbdock.cxx#4 $)

>  <Rbt.Library>
libRbt.so (2013.1, Build901 2013/11/27)

>  <Rbt.Parameter_File>
/export/apps/rDock/src/rDock_2013.1_src/data/scripts/dock_solv.prm

>  <Rbt.Receptor>
prm/pocket_docking_2.prm

>  <SCORE>
-11.5955

>  <SCORE.INTER>
-10.7407

>  <SCORE.INTER.CONST>
1

>  <SCORE.INTER.POLAR>
0

>  <SCORE.INTER.ROT>
3

>  <SCORE.INTER.SOLV>
15.9829

>  <SCORE.INTER.VDW>
-18.0881

>  <SCORE.INTER.norm>
-0.895059

>  <SCORE.INTRA>
-0.854799

>  <SCORE.INTRA.DIHEDRAL>
-0.614628

>  <SCORE.INTRA.DIHEDRAL.0>
2.1382

>  <SCORE.INTRA.POLAR>
0

>  <SCORE.INTRA.POLAR.0>
0

>  <SCORE.INTRA.REPUL>
0

>  <SCORE.INTRA.REPUL.0>
0

>  <SCORE.INTRA.SOLV>
-1.33974

>  <SCORE.INTRA.SOLV.lig_0>
-59.6513

>  <SCORE.INTRA.VDW>
0.122386

>  <SCORE.INTRA.VDW.0>
-0.569808

>  <SCORE.INTRA.norm>
-0.0712333

>  <SCORE.RESTR>
0

>  <SCORE.RESTR.CAVITY>
0

>  <SCORE.RESTR.norm>
0

>  <SCORE.SYSTEM>
0

>  <SCORE.SYSTEM.CONST>
0

>  <SCORE.SYSTEM.DIHEDRAL>
0

>  <SCORE.SYSTEM.SOLV>
0

>  <SCORE.SYSTEM.norm>
0

>  <SCORE.heavy>
12

>  <SCORE.norm>
-0.966293

>  <RMSD>
1.084

$$$$
ligand
 OpenBabel11021811503D
libRbt.so/2013.1/901 2013/11/27
 12 12  0  0  0  0  0  0  0  0999 V2000
   10.1755   12.7278  148.1527 C   0  0  0  0  0  0  0  0  0  0  0  0
   13.0526    8.8821  145.4509 C   0  0  0  0  0  0  0  0  0  0  0  0
   11.7745   13.3597  146.0559 N   0  0  0  0  0  0  0  0  0  0  0  0
   10.1690   12.5630  149.6139 N   0  0  0  0  0  0  0  0  0  0  0  0
    9.7319   13.4074  150.2126 N   0  0  0  0  0  0  0  0  0  0  0  0
    9.2968   14.2470  150.8161 N   0  0  0  0  0  0  0  0  0  0  0  0
   11.5674    9.4859  147.1732 N   0  0  0  0  0  0  0  0  0  0  0  0
   12.3273    9.8533  146.1303 C   0  0  0  0  0  0  0  0  0  0  0  0
   12.4517   11.1453  145.7949 N   0  0  0  0  0  0  0  0  0  0  0  0
   11.8191   12.1025  146.4868 C   0  0  0  0  0  0  0  0  0  0  0  0
   11.0205   11.7843  147.5806 C   0  0  0  0  0  0  0  0  0  0  0  0
   10.8979   10.4484  147.9363 C   0  0  0  0  0  0  0  0  0  0  0  0
  1 11  1  0  0  0  0
  1  4  1  0  0  0  0
  2  8  1  0  0  0  0
  3 10  1  0  0  0  0
  4  5  1  0  0  0  0
  5  6  1  0  0  0  0
  7  8  2  0  0  0  0
  7 12  1  0  0  0  0
  8  9  1  0  0  0  0
  9 10  2  0  0  0  0
 10 11  1  0  0  0  0
 11 12  2  0  0  0  0
M  END
>  <CHROM.1>
-142.06336671,165.55356706,-179.98358969,11.18597956,11.68031754,147.63217497
-2.71680072,-1.05385853,2.89682087

>  <Name>
ligand

>  <RI>
0

>  <Rbt.Current_Directory>
/home/itssahil/PROJECTS/Mol_Feturizer/New_Systems/rnas/4NYA

>  <Rbt.Executable>
rbdock ($Id: //depot/dev/client3/rdock/2013.1/src/exe/rbdock.cxx#4 $)

>  <Rbt.Library>
libRbt.so (2013.1, Build901 2013/11/27)

>  <Rbt.Parameter_File>
/export/apps/rDock/src/rDock_2013.1_src/data/scripts/dock_solv.prm

>  <Rbt.Receptor>
prm/pocket_docking_3.prm

>  <SCORE>
-11.5463

>  <SCORE.INTER>
-10.7293

>  <SCORE.INTER.CONST>
1

>  <SCORE.INTER.POLAR>
0

>  <SCORE.INTER.ROT>
3

>  <SCORE.INTER.SOLV>
15.717

>  <SCORE.INTER.VDW>
-17.9919

>  <SCORE.INTER.norm>
-0.894112

>  <SCORE.INTRA>
-0.816905

>  <SCORE.INTRA.DIHEDRAL>
-0.678082

>  <SCORE.INTRA.DIHEDRAL.0>
2.1382

>  <SCORE.INTRA.POLAR>
0

>  <SCORE.INTRA.POLAR.0>
0

>  <SCORE.INTRA.REPUL>
0

>  <SCORE.INTRA.REPUL.0>
0

>  <SCORE.INTRA.SOLV>
-1.446

>  <SCORE.INTRA.SOLV.lig_0>
-59.6513

>  <SCORE.INTRA.VDW>
0.245139

>  <SCORE.INTRA.VDW.0>
-0.569808

>  <SCORE.INTRA.norm>
-0.0680754

>  <SCORE.RESTR>
0

>  <SCORE.RESTR.CAVITY>
0

>  <SCORE.RESTR.norm>
0

>  <SCORE.SYSTEM>
0

>  <SCORE.SYSTEM.CONST>
0

>  <SCORE.SYSTEM.DIHEDRAL>
0

>  <SCORE.SYSTEM.SOLV>
0

>  <SCORE.SYSTEM.norm>
0

>  <SCORE.heavy>
12

>  <SCORE.norm>
-0.962188

>  <RMSD>
1.085

$$$$
ligand
 OpenBabel11021811503D
libRbt.so/2013.1/901 2013/11/27
 12 12  0  0  0  0  0  0  0  0999 V2000
   10.2355   12.7096  148.2678 C   0  0  0  0  0  0  0  0  0  0  0  0
   13.0282    8.9049  145.4231 C   0  0  0  0  0  0  0  0  0  0  0  0
   11.7664   13.3722  146.1300 N   0  0  0  0  0  0  0  0  0  0  0  0
   10.4725   12.7035  149.7190 N   0  0  0  0  0  0  0  0  0  0  0  0
    9.9257   13.4793  150.3205 N   0  0  0  0  0  0  0  0  0  0  0  0
    9.3827   14.2514  150.9267 N   0  0  0  0  0  0  0  0  0  0  0  0
   11.5982    9.4832  147.2000 N   0  0  0  0  0  0  0  0  0  0  0  0
   12.3241    9.8658  146.1385 C   0  0  0  0  0  0  0  0  0  0  0  0
   12.4367   11.1625  145.8171 N   0  0  0  0  0  0  0  0  0  0  0  0
   11.8257   12.1093  146.5419 C   0  0  0  0  0  0  0  0  0  0  0  0
   11.0627   11.7751  147.6562 C   0  0  0  0  0  0  0  0  0  0  0  0
   10.9526   10.4343  147.9972 C   0  0  0  0  0  0  0  0  0  0  0  0
  1 11  1  0  0  0  0
  1  4  1  0  0  0  0
  2  8  1  0  0  0  0
  3 10  1  0  0  0  0
  4  5  1  0  0  0  0
  5  6  1  0  0  0  0
  7  8  2  0  0  0  0
  7 12  1  0  0  0  0
  8  9  1  0  0  0  0
  9 10  2  0  0  0  0
 10 11  1  0  0  0  0
 11 12  2  0  0  0  0
M  END
>  <CHROM.1>
-131.05322793,174.96010067,179.77877477,11.24775340,11.70173367,147.69332193
-2.71849906,-1.09069043,2.89154790

>  <Name>
ligand

>  <RI>
0

>  <Rbt.Current_Directory>
/home/itssahil/PROJECTS/Mol_Feturizer/New_Systems/rnas/4NYA

>  <Rbt.Executable>
rbdock ($Id: //depot/dev/client3/rdock/2013.1/src/exe/rbdock.cxx#4 $)

>  <Rbt.Library>
libRbt.so (2013.1, Build901 2013/11/27)

>  <Rbt.Parameter_File>
/export/apps/rDock/src/rDock_2013.1_src/data/scripts/dock_solv.prm

>  <Rbt.Receptor>
prm/pocket_docking_6.prm

>  <SCORE>
-11.6281

>  <SCORE.INTER>
-10.7884

>  <SCORE.INTER.CONST>
1

>  <SCORE.INTER.POLAR>
0

>  <SCORE.INTER.ROT>
3

>  <SCORE.INTER.SOLV>
15.8601

>  <SCORE.INTER.VDW>
-18.0789

>  <SCORE.INTER.norm>
-0.899029

>  <SCORE.INTRA>
-0.839795

>  <SCORE.INTRA.DIHEDRAL>
-0.573484

>  <SCORE.INTRA.DIHEDRAL.0>
2.1382

>  <SCORE.INTRA.POLAR>
0

>  <SCORE.INTRA.POLAR.0>
0

>  <SCORE.INTRA.REPUL>
0

>  <SCORE.INTRA.REPUL.0>
0

>  <SCORE.INTRA.SOLV>
-1.33242

>  <SCORE.INTRA.SOLV.lig_0>
-59.6513

>  <SCORE.INTRA.VDW>
0.113159

>  <SCORE.INTRA.VDW.0>
-0.569808

>  <SCORE.INTRA.norm>
-0.0699829

>  <SCORE.RESTR>
0

>  <SCORE.RESTR.CAVITY>
0

>  <SCORE.RESTR.norm>
0

>  <SCORE.SYSTEM>
0

>  <SCORE.SYSTEM.CONST>
0

>  <SCORE.SYSTEM.DIHEDRAL>
0

>  <SCORE.SYSTEM.SOLV>
0

>  <SCORE.SYSTEM.norm>
0

>  <SCORE.heavy>
12

>  <SCORE.norm>
-0.969012

>  <RMSD>
1.087

$$$$
ligand
 OpenBabel11021811503D
libRbt.so/2013.1/901 2013/11/27
 12 12  0  0  0  0  0  0  0  0999 V2000
   10.2713   12.6421  148.2359 C   0  0  0  0  0  0  0  0  0  0  0  0
   13.0511    8.7999  145.4294 C   0  0  0  0  0  0  0  0  0  0  0  0
   11.8096   13.2791  146.0956 N   0  0  0  0  0  0  0  0  0  0  0  0
   10.2609   12.4315  149.6911 N   0  0  0  0  0  0  0  0  0  0  0  0
    9.7522   13.2201  150.3092 N   0  0  0  0  0  0  0  0  0  0  0  0
    9.2463   14.0042  150.9318 N   0  0  0  0  0  0  0  0  0  0  0  0
   11.6204    9.4002  147.1983 N   0  0  0  0  0  0  0  0  0  0  0  0
   12.3503    9.7702  146.1351 C   0  0  0  0  0  0  0  0  0  0  0  0
   12.4698   11.0635  145.8030 N   0  0  0  0  0  0  0  0  0  0  0  0
   11.8620   12.0195  146.5184 C   0  0  0  0  0  0  0  0  0  0  0  0
   11.0951   11.6984  147.6339 C   0  0  0  0  0  0  0  0  0  0  0  0
   10.9779   10.3611  147.9861 C   0  0  0  0  0  0  0  0  0  0  0  0
  1 11  1  0  0  0  0
  1  4  1  0  0  0  0
  2  8  1  0  0  0  0
  3 10  1  0  0  0  0
  4  5  1  0  0  0  0
  5  6  1  0  0  0  0
  7  8  2  0  0  0  0
  7 12  1  0  0  0  0
  8  9  1  0  0  0  0
  9 10  2  0  0  0  0
 10 11  1  0  0  0  0
 11 12  2  0  0  0  0
M  END
>  <CHROM.1>
-144.56837627,171.35806996,-175.67766141,11.22518652,11.56951311,147.67931004
-2.74939046,-1.06069050,2.88937429

>  <Name>
ligand

>  <RI>
0

>  <Rbt.Current_Directory>
/home/itssahil/PROJECTS/Mol_Feturizer/New_Systems/rnas/4NYA

>  <Rbt.Executable>
rbdock ($Id: //depot/dev/client3/rdock/2013.1/src/exe/rbdock.cxx#4 $)

>  <Rbt.Library>
libRbt.so (2013.1, Build901 2013/11/27)

>  <Rbt.Parameter_File>
/export/apps/rDock/src/rDock_2013.1_src/data/scripts/dock_solv.prm

>  <Rbt.Receptor>
prm/pocket_docking_2.prm

>  <SCORE>
-11.5537

>  <SCORE.INTER>
-10.7086

>  <SCORE.INTER.CONST>
1

>  <SCORE.INTER.POLAR>
0

>  <SCORE.INTER.ROT>
3

>  <SCORE.INTER.SOLV>
15.8584

>  <SCORE.INTER.VDW>
-18.0252

>  <SCORE.INTER.norm>
-0.892383

>  <SCORE.INTRA>
-0.84513

>  <SCORE.INTRA.DIHEDRAL>
-0.817421

>  <SCORE.INTRA.DIHEDRAL.0>
2.1382

>  <SCORE.INTRA.POLAR>
0

>  <SCORE.INTRA.POLAR.0>
0

>  <SCORE.INTRA.REPUL>
0

>  <SCORE.INTRA.REPUL.0>
0

>  <SCORE.INTRA.SOLV>
-1.46412

>  <SCORE.INTRA.SOLV.lig_0>
-59.6513

>  <SCORE.INTRA.VDW>
0.295638

>  <SCORE.INTRA.VDW.0>
-0.569808

>  <SCORE.INTRA.norm>
-0.0704275

>  <SCORE.RESTR>
0

>  <SCORE.RESTR.CAVITY>
0

>  <SCORE.RESTR.norm>
0

>  <SCORE.SYSTEM>
0

>  <SCORE.SYSTEM.CONST>
0

>  <SCORE.SYSTEM.DIHEDRAL>
0

>  <SCORE.SYSTEM.SOLV>
0

>  <SCORE.SYSTEM.norm>
0

>  <SCORE.heavy>
12

>  <SCORE.norm>
-0.962811

>  <RMSD>
1.092

$$$$
ligand
 OpenBabel11021811503D
libRbt.so/2013.1/901 2013/11/27
 12 12  0  0  0  0  0  0  0  0999 V2000
   10.1506   12.7343  148.1633 C   0  0  0  0  0  0  0  0  0  0  0  0
   12.9442    8.8349  145.4509 C   0  0  0  0  0  0  0  0  0  0  0  0
   11.8400   13.3476  146.1328 N   0  0  0  0  0  0  0  0  0  0  0  0
   10.2711   12.6817  149.6279 N   0  0  0  0  0  0  0  0  0  0  0  0
    9.7765   13.5110  150.2027 N   0  0  0  0  0  0  0  0  0  0  0  0
    9.2850   14.3361  150.7823 N   0  0  0  0  0  0  0  0  0  0  0  0
   11.4330    9.4601  147.1426 N   0  0  0  0  0  0  0  0  0  0  0  0
   12.2401    9.8197  146.1330 C   0  0  0  0  0  0  0  0  0  0  0  0
   12.4300   11.1129  145.8351 N   0  0  0  0  0  0  0  0  0  0  0  0
   11.8174   12.0794  146.5321 C   0  0  0  0  0  0  0  0  0  0  0  0
   10.9722   11.7694  147.5928 C   0  0  0  0  0  0  0  0  0  0  0  0
   10.7817   10.4317  147.9098 C   0  0  0  0  0  0  0  0  0  0  0  0
  1 11  1  0  0  0  0
  1  4  1  0  0  0  0
  2  8  1  0  0  0  0
  3 10  1  0  0  0  0
  4  5  1  0  0  0  0
  5  6  1  0  0  0  0
  7  8  2  0  0  0  0
  7 12  1  0  0  0  0
  8  9  1  0  0  0  0
  9 10  2  0  0  0  0
 10 11  1  0  0  0  0
 11 12  2  0  0  0  0
M  END
>  <CHROM.1>
-132.43065217,171.10849451,-179.41444606,11.15865499,11.69083662,147.64054663
-2.59503509,-1.04304924,3.00732993

>  <Name>
ligand

>  <RI>
0

>  <Rbt.Current_Directory>
/home/itssahil/PROJECTS/Mol_Feturizer/New_Systems/rnas/4NYA

>  <Rbt.Executable>
rbdock ($Id: //depot/dev/client3/rdock/2013.1/src/exe/rbdock.cxx#4 $)

>  <Rbt.Library>
libRbt.so (2013.1, Build901 2013/11/27)

>  <Rbt.Parameter_File>
/export/apps/rDock/src/rDock_2013.1_src/data/scripts/dock_solv.prm

>  <Rbt.Receptor>
prm/pocket_docking_3.prm

>  <SCORE>
-11.5119

>  <SCORE.INTER>
-10.6778

>  <SCORE.INTER.CONST>
1

>  <SCORE.INTER.POLAR>
0

>  <SCORE.INTER.ROT>
3

>  <SCORE.INTER.SOLV>
15.6057

>  <SCORE.INTER.VDW>
-17.9204

>  <SCORE.INTER.norm>
-0.889814

>  <SCORE.INTRA>
-0.834136

>  <SCORE.INTRA.DIHEDRAL>
-0.56558

>  <SCORE.INTRA.DIHEDRAL.0>
2.1382

>  <SCORE.INTRA.POLAR>
0

>  <SCORE.INTRA.POLAR.0>
0

>  <SCORE.INTRA.REPUL>
0

>  <SCORE.INTRA.REPUL.0>
0

>  <SCORE.INTRA.SOLV>
-1.35216

>  <SCORE.INTRA.SOLV.lig_0>
-59.6513

>  <SCORE.INTRA.VDW>
0.124735

>  <SCORE.INTRA.VDW.0>
-0.569808

>  <SCORE.INTRA.norm>
-0.0695114

>  <SCORE.RESTR>
0

>  <SCORE.RESTR.CAVITY>
0

>  <SCORE.RESTR.norm>
0

>  <SCORE.SYSTEM>
0

>  <SCORE.SYSTEM.CONST>
0

>  <SCORE.SYSTEM.DIHEDRAL>
0

>  <SCORE.SYSTEM.SOLV>
0

>  <SCORE.SYSTEM.norm>
0

>  <SCORE.heavy>
12

>  <SCORE.norm>
-0.959326

>  <RMSD>
1.092

$$$$
ligand
 OpenBabel11021811503D
libRbt.so/2013.1/901 2013/11/27
 12 12  0  0  0  0  0  0  0  0999 V2000
   10.2508   12.6021  148.1103 C   0  0  0  0  0  0  0  0  0  0  0  0
   13.0955    8.7514  145.3814 C   0  0  0  0  0  0  0  0  0  0  0  0
   11.9433   13.2475  146.0924 N   0  0  0  0  0  0  0  0  0  0  0  0
   10.0506   12.2894  149.5331 N   0  0  0  0  0  0  0  0  0  0  0  0
    9.1353   12.7241  150.0189 N   0  0  0  0  0  0  0  0  0  0  0  0
    8.2235   13.1553  150.5099 N   0  0  0  0  0  0  0  0  0  0  0  0
   11.5703    9.3486  147.0707 N   0  0  0  0  0  0  0  0  0  0  0  0
   12.3785    9.7239  146.0676 C   0  0  0  0  0  0  0  0  0  0  0  0
   12.5568   11.0212  145.7805 N   0  0  0  0  0  0  0  0  0  0  0  0
   11.9315   11.9762  146.4820 C   0  0  0  0  0  0  0  0  0  0  0  0
   11.0845   11.6497  147.5363 C   0  0  0  0  0  0  0  0  0  0  0  0
   10.9058   10.3078  147.8423 C   0  0  0  0  0  0  0  0  0  0  0  0
  1 11  1  0  0  0  0
  1  4  1  0  0  0  0
  2  8  1  0  0  0  0
  3 10  1  0  0  0  0
  4  5  1  0  0  0  0
  5  6  1  0  0  0  0
  7  8  2  0  0  0  0
  7 12  1  0  0  0  0
  8  9  1  0  0  0  0
  9 10  2  0  0  0  0
 10 11  1  0  0  0  0
 11 12  2  0  0  0  0
M  END
>  <CHROM.1>
-149.19629907,-158.17461622,-178.76682902,11.08269762,11.40707034,147.54920315
-2.74537970,-0.90479287,2.99289043

>  <Name>
ligand

>  <RI>
0

>  <Rbt.Current_Directory>
/home/itssahil/PROJECTS/Mol_Feturizer/New_Systems/rnas/4NYA

>  <Rbt.Executable>
rbdock ($Id: //depot/dev/client3/rdock/2013.1/src/exe/rbdock.cxx#4 $)

>  <Rbt.Library>
libRbt.so (2013.1, Build901 2013/11/27)

>  <Rbt.Parameter_File>
/export/apps/rDock/src/rDock_2013.1_src/data/scripts/dock_solv.prm

>  <Rbt.Receptor>
prm/pocket_docking_2.prm

>  <SCORE>
-11.1483

>  <SCORE.INTER>
-10.476

>  <SCORE.INTER.CONST>
1

>  <SCORE.INTER.POLAR>
0

>  <SCORE.INTER.ROT>
3

>  <SCORE.INTER.SOLV>
16.8874

>  <SCORE.INTER.VDW>
-18.2131

>  <SCORE.INTER.norm>
-0.872999

>  <SCORE.INTRA>
-0.672284

>  <SCORE.INTRA.DIHEDRAL>
-0.588024

>  <SCORE.INTRA.DIHEDRAL.0>
2.1382

>  <SCORE.INTRA.POLAR>
0

>  <SCORE.INTRA.POLAR.0>
0

>  <SCORE.INTRA.REPUL>
0

>  <SCORE.INTRA.REPUL.0>
0

>  <SCORE.INTRA.SOLV>
-1.42006

>  <SCORE.INTRA.SOLV.lig_0>
-59.6513

>  <SCORE.INTRA.VDW>
0.33176

>  <SCORE.INTRA.VDW.0>
-0.569808

>  <SCORE.INTRA.norm>
-0.0560237

>  <SCORE.RESTR>
0

>  <SCORE.RESTR.CAVITY>
0

>  <SCORE.RESTR.norm>
0

>  <SCORE.SYSTEM>
0

>  <SCORE.SYSTEM.CONST>
0

>  <SCORE.SYSTEM.DIHEDRAL>
0

>  <SCORE.SYSTEM.SOLV>
0

>  <SCORE.SYSTEM.norm>
0

>  <SCORE.heavy>
12

>  <SCORE.norm>
-0.929023

>  <RMSD>
1.094

$$$$
ligand
 OpenBabel11021811503D
libRbt.so/2013.1/901 2013/11/27
 12 12  0  0  0  0  0  0  0  0999 V2000
   10.2024   12.6090  148.1261 C   0  0  0  0  0  0  0  0  0  0  0  0
   13.0711    8.7901  145.3777 C   0  0  0  0  0  0  0  0  0  0  0  0
   11.9365   13.2803  146.1524 N   0  0  0  0  0  0  0  0  0  0  0  0
   10.2262   12.4637  149.5892 N   0  0  0  0  0  0  0  0  0  0  0  0
    9.5745   13.1675  150.1745 N   0  0  0  0  0  0  0  0  0  0  0  0
    8.9265   13.8754  150.7554 N   0  0  0  0  0  0  0  0  0  0  0  0
   11.5189    9.3664  147.0496 N   0  0  0  0  0  0  0  0  0  0  0  0
   12.3481    9.7547  146.0689 C   0  0  0  0  0  0  0  0  0  0  0  0
   12.5406   11.0558  145.8098 N   0  0  0  0  0  0  0  0  0  0  0  0
   11.9088   12.0019  146.5176 C   0  0  0  0  0  0  0  0  0  0  0  0
   11.0402   11.6617  147.5496 C   0  0  0  0  0  0  0  0  0  0  0  0
   10.8467   10.3156  147.8268 C   0  0  0  0  0  0  0  0  0  0  0  0
  1 11  1  0  0  0  0
  1  4  1  0  0  0  0
  2  8  1  0  0  0  0
  3 10  1  0  0  0  0
  4  5  1  0  0  0  0
  5  6  1  0  0  0  0
  7  8  2  0  0  0  0
  7 12  1  0  0  0  0
  8  9  1  0  0  0  0
  9 10  2  0  0  0  0
 10 11  1  0  0  0  0
 11 12  2  0  0  0  0
M  END
>  <CHROM.1>
-135.86384061,-179.18493432,-50.43822781,11.17261547,11.54065254,147.59847483
-2.64479510,-0.98868631,3.01772155

>  <Name>
ligand

>  <RI>
0

>  <Rbt.Current_Directory>
/home/itssahil/PROJECTS/Mol_Feturizer/New_Systems/rnas/4NYA

>  <Rbt.Executable>
rbdock ($Id: //depot/dev/client3/rdock/2013.1/src/exe/rbdock.cxx#4 $)

>  <Rbt.Library>
libRbt.so (2013.1, Build901 2013/11/27)

>  <Rbt.Parameter_File>
/export/apps/rDock/src/rDock_2013.1_src/data/scripts/dock_solv.prm

>  <Rbt.Receptor>
prm/pocket_docking_3.prm

>  <SCORE>
-11.4944

>  <SCORE.INTER>
-10.6421

>  <SCORE.INTER.CONST>
1

>  <SCORE.INTER.POLAR>
0

>  <SCORE.INTER.ROT>
3

>  <SCORE.INTER.SOLV>
15.9689

>  <SCORE.INTER.VDW>
-18.0177

>  <SCORE.INTER.norm>
-0.886845

>  <SCORE.INTRA>
-0.852291

>  <SCORE.INTRA.DIHEDRAL>
-0.68807

>  <SCORE.INTRA.DIHEDRAL.0>
2.1382

>  <SCORE.INTRA.POLAR>
0

>  <SCORE.INTRA.POLAR.0>
0

>  <SCORE.INTRA.REPUL>
0

>  <SCORE.INTRA.REPUL.0>
0

>  <SCORE.INTRA.SOLV>
-1.3688

>  <SCORE.INTRA.SOLV.lig_0>
-59.6513

>  <SCORE.INTRA.VDW>
0.176142

>  <SCORE.INTRA.VDW.0>
-0.569808

>  <SCORE.INTRA.norm>
-0.0710243

>  <SCORE.RESTR>
0

>  <SCORE.RESTR.CAVITY>
0

>  <SCORE.RESTR.norm>
0

>  <SCORE.SYSTEM>
0

>  <SCORE.SYSTEM.CONST>
0

>  <SCORE.SYSTEM.DIHEDRAL>
0

>  <SCORE.SYSTEM.SOLV>
0

>  <SCORE.SYSTEM.norm>
0

>  <SCORE.heavy>
12

>  <SCORE.norm>
-0.95787

>  <RMSD>
1.100

$$$$
ligand
 OpenBabel11021811503D
libRbt.so/2013.1/901 2013/11/27
 12 12  0  0  0  0  0  0  0  0999 V2000
   10.2344   12.7149  148.2691 C   0  0  0  0  0  0  0  0  0  0  0  0
   12.9909    8.8666  145.4478 C   0  0  0  0  0  0  0  0  0  0  0  0
   11.8115   13.3558  146.1584 N   0  0  0  0  0  0  0  0  0  0  0  0
   10.4806   12.7272  149.7188 N   0  0  0  0  0  0  0  0  0  0  0  0
    9.9561   13.5256  150.3105 N   0  0  0  0  0  0  0  0  0  0  0  0
    9.4354   14.3274  150.8974 N   0  0  0  0  0  0  0  0  0  0  0  0
   11.5461    9.4660  147.2056 N   0  0  0  0  0  0  0  0  0  0  0  0
   12.2961    9.8385  146.1573 C   0  0  0  0  0  0  0  0  0  0  0  0
   12.4405   11.1341  145.8444 N   0  0  0  0  0  0  0  0  0  0  0  0
   11.8382   12.0899  146.5646 C   0  0  0  0  0  0  0  0  0  0  0  0
   11.0513   11.7663  147.6654 C   0  0  0  0  0  0  0  0  0  0  0  0
   10.9082   10.4264  147.9977 C   0  0  0  0  0  0  0  0  0  0  0  0
  1 11  1  0  0  0  0
  1  4  1  0  0  0  0
  2  8  1  0  0  0  0
  3 10  1  0  0  0  0
  4  5  1  0  0  0  0
  5  6  1  0  0  0  0
  7  8  2  0  0  0  0
  7 12  1  0  0  0  0
  8  9  1  0  0  0  0
  9 10  2  0  0  0  0
 10 11  1  0  0  0  0
 11 12  2  0  0  0  0
M  END
>  <CHROM.1>
-129.22177449,173.98753882,-57.48118784,11.24649157,11.70122203,147.70145325
-2.65343029,-1.08624552,2.94587011

>  <Name>
ligand

>  <RI>
0

>  <Rbt.Current_Directory>
/home/itssahil/PROJECTS/Mol_Feturizer/New_Systems/rnas/4NYA

>  <Rbt.Executable>
rbdock ($Id: //depot/dev/client3/rdock/2013.1/src/exe/rbdock.cxx#4 $)

>  <Rbt.Library>
libRbt.so (2013.1, Build901 2013/11/27)

>  <Rbt.Parameter_File>
/export/apps/rDock/src/rDock_2013.1_src/data/scripts/dock_solv.prm

>  <Rbt.Receptor>
prm/pocket_docking_3.prm

>  <SCORE>
-11.5528

>  <SCORE.INTER>
-10.7403

>  <SCORE.INTER.CONST>
1

>  <SCORE.INTER.POLAR>
0

>  <SCORE.INTER.ROT>
3

>  <SCORE.INTER.SOLV>
15.7625

>  <SCORE.INTER.VDW>
-18.0144

>  <SCORE.INTER.norm>
-0.895025

>  <SCORE.INTRA>
-0.81246

>  <SCORE.INTRA.DIHEDRAL>
-0.515092

>  <SCORE.INTRA.DIHEDRAL.0>
2.1382

>  <SCORE.INTRA.POLAR>
0

>  <SCORE.INTRA.POLAR.0>
0

>  <SCORE.INTRA.REPUL>
0

>  <SCORE.INTRA.REPUL.0>
0

>  <SCORE.INTRA.SOLV>
-1.30835

>  <SCORE.INTRA.SOLV.lig_0>
-59.6513

>  <SCORE.INTRA.VDW>
0.0992633

>  <SCORE.INTRA.VDW.0>
-0.569808

>  <SCORE.INTRA.norm>
-0.067705

>  <SCORE.RESTR>
0

>  <SCORE.RESTR.CAVITY>
0

>  <SCORE.RESTR.norm>
0

>  <SCORE.SYSTEM>
0

>  <SCORE.SYSTEM.CONST>
0

>  <SCORE.SYSTEM.DIHEDRAL>
0

>  <SCORE.SYSTEM.SOLV>
0

>  <SCORE.SYSTEM.norm>
0

>  <SCORE.heavy>
12

>  <SCORE.norm>
-0.96273

>  <RMSD>
1.105

$$$$
ligand
 OpenBabel11021811503D
libRbt.so/2013.1/901 2013/11/27
 12 12  0  0  0  0  0  0  0  0999 V2000
   10.1850   12.6919  148.1394 C   0  0  0  0  0  0  0  0  0  0  0  0
   13.0000    8.7954  145.4451 C   0  0  0  0  0  0  0  0  0  0  0  0
   11.9283   13.3113  146.1570 N   0  0  0  0  0  0  0  0  0  0  0  0
   10.1617   12.5303  149.6008 N   0  0  0  0  0  0  0  0  0  0  0  0
    9.6929   13.3638  150.1909 N   0  0  0  0  0  0  0  0  0  0  0  0
    9.2295   14.2003  150.7773 N   0  0  0  0  0  0  0  0  0  0  0  0
   11.4560    9.4165  147.1084 N   0  0  0  0  0  0  0  0  0  0  0  0
   12.2906    9.7795  146.1226 C   0  0  0  0  0  0  0  0  0  0  0  0
   12.5012   11.0741  145.8454 N   0  0  0  0  0  0  0  0  0  0  0  0
   11.8828   12.0387  146.5398 C   0  0  0  0  0  0  0  0  0  0  0  0
   11.0094   11.7250  147.5764 C   0  0  0  0  0  0  0  0  0  0  0  0
   10.7972   10.3857  147.8722 C   0  0  0  0  0  0  0  0  0  0  0  0
  1 11  1  0  0  0  0
  1  4  1  0  0  0  0
  2  8  1  0  0  0  0
  3 10  1  0  0  0  0
  4  5  1  0  0  0  0
  5  6  1  0  0  0  0
  7  8  2  0  0  0  0
  7 12  1  0  0  0  0
  8  9  1  0  0  0  0
  9 10  2  0  0  0  0
 10 11  1  0  0  0  0
 11 12  2  0  0  0  0
M  END
>  <CHROM.1>
-138.26154257,168.66758269,-58.30811522,11.17367974,11.62262626,147.62990539
-2.58751968,-1.01211919,3.03818115

>  <Name>
ligand

>  <RI>
0

>  <Rbt.Current_Directory>
/home/itssahil/PROJECTS/Mol_Feturizer/New_Systems/rnas/4NYA

>  <Rbt.Executable>
rbdock ($Id: //depot/dev/client3/rdock/2013.1/src/exe/rbdock.cxx#4 $)

>  <Rbt.Library>
libRbt.so (2013.1, Build901 2013/11/27)

>  <Rbt.Parameter_File>
/export/apps/rDock/src/rDock_2013.1_src/data/scripts/dock_solv.prm

>  <Rbt.Receptor>
prm/pocket_docking_2.prm

>  <SCORE>
-11.4912

>  <SCORE.INTER>
-10.6567

>  <SCORE.INTER.CONST>
1

>  <SCORE.INTER.POLAR>
0

>  <SCORE.INTER.ROT>
3

>  <SCORE.INTER.SOLV>
15.5751

>  <SCORE.INTER.VDW>
-17.8962

>  <SCORE.INTER.norm>
-0.88806

>  <SCORE.INTRA>
-0.834442

>  <SCORE.INTRA.DIHEDRAL>
-0.663502

>  <SCORE.INTRA.DIHEDRAL.0>
2.1382

>  <SCORE.INTRA.POLAR>
0

>  <SCORE.INTRA.POLAR.0>
0

>  <SCORE.INTRA.REPUL>
0

>  <SCORE.INTRA.REPUL.0>
0

>  <SCORE.INTRA.SOLV>
-1.40798

>  <SCORE.INTRA.SOLV.lig_0>
-59.6513

>  <SCORE.INTRA.VDW>
0.2013

>  <SCORE.INTRA.VDW.0>
-0.569808

>  <SCORE.INTRA.norm>
-0.0695368

>  <SCORE.RESTR>
0

>  <SCORE.RESTR.CAVITY>
0

>  <SCORE.RESTR.norm>
0

>  <SCORE.SYSTEM>
0

>  <SCORE.SYSTEM.CONST>
0

>  <SCORE.SYSTEM.DIHEDRAL>
0

>  <SCORE.SYSTEM.SOLV>
0

>  <SCORE.SYSTEM.norm>
0

>  <SCORE.heavy>
12

>  <SCORE.norm>
-0.957597

>  <RMSD>
1.107

$$$$
ligand
 OpenBabel11021811503D
libRbt.so/2013.1/901 2013/11/27
 12 12  0  0  0  0  0  0  0  0999 V2000
   10.2303   12.6205  148.1213 C   0  0  0  0  0  0  0  0  0  0  0  0
   13.0693    8.7733  145.3817 C   0  0  0  0  0  0  0  0  0  0  0  0
   11.9612   13.2730  146.1386 N   0  0  0  0  0  0  0  0  0  0  0  0
   10.1371   12.3856  149.5699 N   0  0  0  0  0  0  0  0  0  0  0  0
    9.5271   13.1222  150.1600 N   0  0  0  0  0  0  0  0  0  0  0  0
    8.9200   13.8543  150.7548 N   0  0  0  0  0  0  0  0  0  0  0  0
   11.5259    9.3658  147.0560 N   0  0  0  0  0  0  0  0  0  0  0  0
   12.3538    9.7449  146.0706 C   0  0  0  0  0  0  0  0  0  0  0  0
   12.5523   11.0438  145.8046 N   0  0  0  0  0  0  0  0  0  0  0  0
   11.9280   11.9966  146.5100 C   0  0  0  0  0  0  0  0  0  0  0  0
   11.0611   11.6660  147.5466 C   0  0  0  0  0  0  0  0  0  0  0  0
   10.8614   10.3223  147.8309 C   0  0  0  0  0  0  0  0  0  0  0  0
  1 11  1  0  0  0  0
  1  4  1  0  0  0  0
  2  8  1  0  0  0  0
  3 10  1  0  0  0  0
  4  5  1  0  0  0  0
  5  6  1  0  0  0  0
  7  8  2  0  0  0  0
  7 12  1  0  0  0  0
  8  9  1  0  0  0  0
  9 10  2  0  0  0  0
 10 11  1  0  0  0  0
 11 12  2  0  0  0  0
M  END
>  <CHROM.1>
-142.30780899,177.36799898,-175.80535374,11.17072667,11.52548261,147.59400133
-2.65029305,-0.98124932,3.01864760

>  <Name>
ligand

>  <RI>
0

>  <Rbt.Current_Directory>
/home/itssahil/PROJECTS/Mol_Feturizer/New_Systems/rnas/4NYA

>  <Rbt.Executable>
rbdock ($Id: //depot/dev/client3/rdock/2013.1/src/exe/rbdock.cxx#4 $)

>  <Rbt.Library>
libRbt.so (2013.1, Build901 2013/11/27)

>  <Rbt.Parameter_File>
/export/apps/rDock/src/rDock_2013.1_src/data/scripts/dock_solv.prm

>  <Rbt.Receptor>
prm/pocket_docking_3.prm

>  <SCORE>
-11.5975

>  <SCORE.INTER>
-10.7252

>  <SCORE.INTER.CONST>
1

>  <SCORE.INTER.POLAR>
0

>  <SCORE.INTER.ROT>
3

>  <SCORE.INTER.SOLV>
15.9483

>  <SCORE.INTER.VDW>
-18.0662

>  <SCORE.INTER.norm>
-0.893764

>  <SCORE.INTRA>
-0.872302

>  <SCORE.INTRA.DIHEDRAL>
-0.835531

>  <SCORE.INTRA.DIHEDRAL.0>
2.1382

>  <SCORE.INTRA.POLAR>
0

>  <SCORE.INTRA.POLAR.0>
0

>  <SCORE.INTRA.REPUL>
0

>  <SCORE.INTRA.REPUL.0>
0

>  <SCORE.INTRA.SOLV>
-1.4395

>  <SCORE.INTRA.SOLV.lig_0>
-59.6513

>  <SCORE.INTRA.VDW>
0.265213

>  <SCORE.INTRA.VDW.0>
-0.569808

>  <SCORE.INTRA.norm>
-0.0726919

>  <SCORE.RESTR>
0

>  <SCORE.RESTR.CAVITY>
0

>  <SCORE.RESTR.norm>
0

>  <SCORE.SYSTEM>
0

>  <SCORE.SYSTEM.CONST>
0

>  <SCORE.SYSTEM.DIHEDRAL>
0

>  <SCORE.SYSTEM.SOLV>
0

>  <SCORE.SYSTEM.norm>
0

>  <SCORE.heavy>
12

>  <SCORE.norm>
-0.966456

>  <RMSD>
1.108

$$$$
ligand
 OpenBabel11021811503D
libRbt.so/2013.1/901 2013/11/27
 12 12  0  0  0  0  0  0  0  0999 V2000
   10.2343   12.6372  148.1069 C   0  0  0  0  0  0  0  0  0  0  0  0
   13.0057    8.7419  145.3660 C   0  0  0  0  0  0  0  0  0  0  0  0
   11.9741   13.2599  146.1224 N   0  0  0  0  0  0  0  0  0  0  0  0
   10.1321   12.3998  149.5544 N   0  0  0  0  0  0  0  0  0  0  0  0
    9.5165   13.1339  150.1416 N   0  0  0  0  0  0  0  0  0  0  0  0
    8.9057   13.8719  150.7254 N   0  0  0  0  0  0  0  0  0  0  0  0
   11.4740    9.3608  147.0415 N   0  0  0  0  0  0  0  0  0  0  0  0
   12.3073    9.7257  146.0552 C   0  0  0  0  0  0  0  0  0  0  0  0
   12.5273   11.0210  145.7886 N   0  0  0  0  0  0  0  0  0  0  0  0
   11.9198   11.9844  146.4942 C   0  0  0  0  0  0  0  0  0  0  0  0
   11.0484   11.6687  147.5317 C   0  0  0  0  0  0  0  0  0  0  0  0
   10.8264   10.3286  147.8166 C   0  0  0  0  0  0  0  0  0  0  0  0
  1 11  1  0  0  0  0
  1  4  1  0  0  0  0
  2  8  1  0  0  0  0
  3 10  1  0  0  0  0
  4  5  1  0  0  0  0
  5  6  1  0  0  0  0
  7  8  2  0  0  0  0
  7 12  1  0  0  0  0
  8  9  1  0  0  0  0
  9 10  2  0  0  0  0
 10 11  1  0  0  0  0
 11 12  2  0  0  0  0
M  END
>  <CHROM.1>
-142.63509476,178.62923777,-55.95709126,11.14934049,11.52256798,147.57722438
-2.62443105,-0.97953073,3.04189854

>  <Name>
ligand

>  <RI>
0

>  <Rbt.Current_Directory>
/home/itssahil/PROJECTS/Mol_Feturizer/New_Systems/rnas/4NYA

>  <Rbt.Executable>
rbdock ($Id: //depot/dev/client3/rdock/2013.1/src/exe/rbdock.cxx#4 $)

>  <Rbt.Library>
libRbt.so (2013.1, Build901 2013/11/27)

>  <Rbt.Parameter_File>
/export/apps/rDock/src/rDock_2013.1_src/data/scripts/dock_solv.prm

>  <Rbt.Receptor>
prm/pocket_docking_2.prm

>  <SCORE>
-11.6124

>  <SCORE.INTER>
-10.7424

>  <SCORE.INTER.CONST>
1

>  <SCORE.INTER.POLAR>
0

>  <SCORE.INTER.ROT>
3

>  <SCORE.INTER.SOLV>
15.949

>  <SCORE.INTER.VDW>
-18.0779

>  <SCORE.INTER.norm>
-0.8952

>  <SCORE.INTRA>
-0.869955

>  <SCORE.INTRA.DIHEDRAL>
-0.845704

>  <SCORE.INTRA.DIHEDRAL.0>
2.1382

>  <SCORE.INTRA.POLAR>
0

>  <SCORE.INTRA.POLAR.0>
0

>  <SCORE.INTRA.REPUL>
0

>  <SCORE.INTRA.REPUL.0>
0

>  <SCORE.INTRA.SOLV>
-1.43579

>  <SCORE.INTRA.SOLV.lig_0>
-59.6513

>  <SCORE.INTRA.VDW>
0.27079

>  <SCORE.INTRA.VDW.0>
-0.569808

>  <SCORE.INTRA.norm>
-0.0724963

>  <SCORE.RESTR>
0

>  <SCORE.RESTR.CAVITY>
0

>  <SCORE.RESTR.norm>
0

>  <SCORE.SYSTEM>
0

>  <SCORE.SYSTEM.CONST>
0

>  <SCORE.SYSTEM.DIHEDRAL>
0

>  <SCORE.SYSTEM.SOLV>
0

>  <SCORE.SYSTEM.norm>
0

>  <SCORE.heavy>
12

>  <SCORE.norm>
-0.967696

>  <RMSD>
1.111

$$$$
ligand
 OpenBabel11021811503D
libRbt.so/2013.1/901 2013/11/27
 12 12  0  0  0  0  0  0  0  0999 V2000
   10.2440   12.6007  148.1292 C   0  0  0  0  0  0  0  0  0  0  0  0
   13.0793    8.7516  145.3884 C   0  0  0  0  0  0  0  0  0  0  0  0
   11.9300   13.2474  146.1063 N   0  0  0  0  0  0  0  0  0  0  0  0
   10.1903   12.3920  149.5838 N   0  0  0  0  0  0  0  0  0  0  0  0
    9.5412   13.0984  150.1689 N   0  0  0  0  0  0  0  0  0  0  0  0
    8.8877   13.8012  150.7498 N   0  0  0  0  0  0  0  0  0  0  0  0
   11.5597    9.3479  147.0831 N   0  0  0  0  0  0  0  0  0  0  0  0
   12.3647    9.7237  146.0776 C   0  0  0  0  0  0  0  0  0  0  0  0
   12.5422   11.0212  145.7908 N   0  0  0  0  0  0  0  0  0  0  0  0
   11.9193   11.9758  146.4950 C   0  0  0  0  0  0  0  0  0  0  0  0
   11.0757   11.6486  147.5518 C   0  0  0  0  0  0  0  0  0  0  0  0
   10.8979   10.3066  147.8574 C   0  0  0  0  0  0  0  0  0  0  0  0
  1 11  1  0  0  0  0
  1  4  1  0  0  0  0
  2  8  1  0  0  0  0
  3 10  1  0  0  0  0
  4  5  1  0  0  0  0
  5  6  1  0  0  0  0
  7  8  2  0  0  0  0
  7 12  1  0  0  0  0
  8  9  1  0  0  0  0
  9 10  2  0  0  0  0
 10 11  1  0  0  0  0
 11 12  2  0  0  0  0
M  END
>  <CHROM.1>
-141.77806842,-179.61555717,63.24069845,11.17920189,11.50427832,147.59698099
-2.68355071,-0.99106854,2.98130642

>  <Name>
ligand

>  <RI>
0

>  <Rbt.Current_Directory>
/home/itssahil/PROJECTS/Mol_Feturizer/New_Systems/rnas/4NYA

>  <Rbt.Executable>
rbdock ($Id: //depot/dev/client3/rdock/2013.1/src/exe/rbdock.cxx#4 $)

>  <Rbt.Library>
libRbt.so (2013.1, Build901 2013/11/27)

>  <Rbt.Parameter_File>
/export/apps/rDock/src/rDock_2013.1_src/data/scripts/dock_solv.prm

>  <Rbt.Receptor>
prm/pocket_docking_7.prm

>  <SCORE>
-11.6218

>  <SCORE.INTER>
-10.7515

>  <SCORE.INTER.CONST>
1

>  <SCORE.INTER.POLAR>
0

>  <SCORE.INTER.ROT>
3

>  <SCORE.INTER.SOLV>
16.1112

>  <SCORE.INTER.VDW>
-18.1381

>  <SCORE.INTER.norm>
-0.895962

>  <SCORE.INTRA>
-0.870285

>  <SCORE.INTRA.DIHEDRAL>
-0.833582

>  <SCORE.INTRA.DIHEDRAL.0>
2.1382

>  <SCORE.INTRA.POLAR>
0

>  <SCORE.INTRA.POLAR.0>
0

>  <SCORE.INTRA.REPUL>
0

>  <SCORE.INTRA.REPUL.0>
0

>  <SCORE.INTRA.SOLV>
-1.42568

>  <SCORE.INTRA.SOLV.lig_0>
-59.6513

>  <SCORE.INTRA.VDW>
0.259347

>  <SCORE.INTRA.VDW.0>
-0.569808

>  <SCORE.INTRA.norm>
-0.0725238

>  <SCORE.RESTR>
0

>  <SCORE.RESTR.CAVITY>
0

>  <SCORE.RESTR.norm>
0

>  <SCORE.SYSTEM>
0

>  <SCORE.SYSTEM.CONST>
0

>  <SCORE.SYSTEM.DIHEDRAL>
0

>  <SCORE.SYSTEM.SOLV>
0

>  <SCORE.SYSTEM.norm>
0

>  <SCORE.heavy>
12

>  <SCORE.norm>
-0.968486

>  <RMSD>
1.111

$$$$
ligand
 OpenBabel11021811503D
libRbt.so/2013.1/901 2013/11/27
 12 12  0  0  0  0  0  0  0  0999 V2000
   10.2087   12.6006  148.1559 C   0  0  0  0  0  0  0  0  0  0  0  0
   13.0529    8.7974  145.3607 C   0  0  0  0  0  0  0  0  0  0  0  0
   11.9133   13.2819  146.1601 N   0  0  0  0  0  0  0  0  0  0  0  0
   10.2115   12.4178  149.6150 N   0  0  0  0  0  0  0  0  0  0  0  0
    9.6764   13.1990  150.2201 N   0  0  0  0  0  0  0  0  0  0  0  0
    9.1443   13.9758  150.8299 N   0  0  0  0  0  0  0  0  0  0  0  0
   11.5217    9.3648  147.0548 N   0  0  0  0  0  0  0  0  0  0  0  0
   12.3361    9.7580  146.0637 C   0  0  0  0  0  0  0  0  0  0  0  0
   12.5204   11.0604  145.8047 N   0  0  0  0  0  0  0  0  0  0  0  0
   11.8951   12.0028  146.5230 C   0  0  0  0  0  0  0  0  0  0  0  0
   11.0418   11.6574  147.5661 C   0  0  0  0  0  0  0  0  0  0  0  0
   10.8569   10.3100  147.8431 C   0  0  0  0  0  0  0  0  0  0  0  0
  1 11  1  0  0  0  0
  1  4  1  0  0  0  0
  2  8  1  0  0  0  0
  3 10  1  0  0  0  0
  4  5  1  0  0  0  0
  5  6  1  0  0  0  0
  7  8  2  0  0  0  0
  7 12  1  0  0  0  0
  8  9  1  0  0  0  0
  9 10  2  0  0  0  0
 10 11  1  0  0  0  0
 11 12  2  0  0  0  0
M  END
>  <CHROM.1>
-138.10233785,172.65445462,-176.10437780,11.19340419,11.54804706,147.61529399
-2.63758778,-1.01489558,3.01780119

>  <Name>
ligand

>  <RI>
0

>  <Rbt.Current_Directory>
/home/itssahil/PROJECTS/Mol_Feturizer/New_Systems/rnas/4NYA

>  <Rbt.Executable>
rbdock ($Id: //depot/dev/client3/rdock/2013.1/src/exe/rbdock.cxx#4 $)

>  <Rbt.Library>
libRbt.so (2013.1, Build901 2013/11/27)

>  <Rbt.Parameter_File>
/export/apps/rDock/src/rDock_2013.1_src/data/scripts/dock_solv.prm

>  <Rbt.Receptor>
prm/pocket_docking_8.prm

>  <SCORE>
-11.5474

>  <SCORE.INTER>
-10.6846

>  <SCORE.INTER.CONST>
1

>  <SCORE.INTER.POLAR>
0

>  <SCORE.INTER.ROT>
3

>  <SCORE.INTER.SOLV>
15.6986

>  <SCORE.INTER.VDW>
-17.9559

>  <SCORE.INTER.norm>
-0.890379

>  <SCORE.INTRA>
-0.862857

>  <SCORE.INTRA.DIHEDRAL>
-0.715445

>  <SCORE.INTRA.DIHEDRAL.0>
2.1382

>  <SCORE.INTRA.POLAR>
0

>  <SCORE.INTRA.POLAR.0>
0

>  <SCORE.INTRA.REPUL>
0

>  <SCORE.INTRA.REPUL.0>
0

>  <SCORE.INTRA.SOLV>
-1.40799

>  <SCORE.INTRA.SOLV.lig_0>
-59.6513

>  <SCORE.INTRA.VDW>
0.198862

>  <SCORE.INTRA.VDW.0>
-0.569808

>  <SCORE.INTRA.norm>
-0.0719047

>  <SCORE.RESTR>
0

>  <SCORE.RESTR.CAVITY>
0

>  <SCORE.RESTR.norm>
0

>  <SCORE.SYSTEM>
0

>  <SCORE.SYSTEM.CONST>
0

>  <SCORE.SYSTEM.DIHEDRAL>
0

>  <SCORE.SYSTEM.SOLV>
0

>  <SCORE.SYSTEM.norm>
0

>  <SCORE.heavy>
12

>  <SCORE.norm>
-0.962284

>  <RMSD>
1.112

$$$$
ligand
 OpenBabel11021811503D
libRbt.so/2013.1/901 2013/11/27
 12 12  0  0  0  0  0  0  0  0999 V2000
   10.2129   12.5944  148.0993 C   0  0  0  0  0  0  0  0  0  0  0  0
   13.1088    8.7667  145.3922 C   0  0  0  0  0  0  0  0  0  0  0  0
   11.9322   13.2555  146.1094 N   0  0  0  0  0  0  0  0  0  0  0  0
   10.2452   12.4707  149.5642 N   0  0  0  0  0  0  0  0  0  0  0  0
    9.5594   13.1489  150.1408 N   0  0  0  0  0  0  0  0  0  0  0  0
    8.8772   13.8234  150.7223 N   0  0  0  0  0  0  0  0  0  0  0  0
   11.5576    9.3505  147.0624 N   0  0  0  0  0  0  0  0  0  0  0  0
   12.3789    9.7334  146.0730 C   0  0  0  0  0  0  0  0  0  0  0  0
   12.5573   11.0328  145.7950 N   0  0  0  0  0  0  0  0  0  0  0  0
   11.9189   11.9822  146.4923 C   0  0  0  0  0  0  0  0  0  0  0  0
   11.0578   11.6476  147.5326 C   0  0  0  0  0  0  0  0  0  0  0  0
   10.8790   10.3037  147.8291 C   0  0  0  0  0  0  0  0  0  0  0  0
  1 11  1  0  0  0  0
  1  4  1  0  0  0  0
  2  8  1  0  0  0  0
  3 10  1  0  0  0  0
  4  5  1  0  0  0  0
  5  6  1  0  0  0  0
  7  8  2  0  0  0  0
  7 12  1  0  0  0  0
  8  9  1  0  0  0  0
  9 10  2  0  0  0  0
 10 11  1  0  0  0  0
 11 12  2  0  0  0  0
M  END
>  <CHROM.1>
-135.80213014,-176.89878995,-179.00452202,11.18430601,11.52114765,147.58293635
-2.67158625,-0.98658983,2.98679275

>  <Name>
ligand

>  <RI>
0

>  <Rbt.Current_Directory>
/home/itssahil/PROJECTS/Mol_Feturizer/New_Systems/rnas/4NYA

>  <Rbt.Executable>
rbdock ($Id: //depot/dev/client3/rdock/2013.1/src/exe/rbdock.cxx#4 $)

>  <Rbt.Library>
libRbt.so (2013.1, Build901 2013/11/27)

>  <Rbt.Parameter_File>
/export/apps/rDock/src/rDock_2013.1_src/data/scripts/dock_solv.prm

>  <Rbt.Receptor>
prm/pocket_docking_6.prm

>  <SCORE>
-11.5602

>  <SCORE.INTER>
-10.6979

>  <SCORE.INTER.CONST>
1

>  <SCORE.INTER.POLAR>
0

>  <SCORE.INTER.ROT>
3

>  <SCORE.INTER.SOLV>
16.1811

>  <SCORE.INTER.VDW>
-18.1256

>  <SCORE.INTER.norm>
-0.891492

>  <SCORE.INTRA>
-0.862304

>  <SCORE.INTRA.DIHEDRAL>
-0.70356

>  <SCORE.INTRA.DIHEDRAL.0>
2.1382

>  <SCORE.INTRA.POLAR>
0

>  <SCORE.INTRA.POLAR.0>
0

>  <SCORE.INTRA.REPUL>
0

>  <SCORE.INTRA.REPUL.0>
0

>  <SCORE.INTRA.SOLV>
-1.36768

>  <SCORE.INTRA.SOLV.lig_0>
-59.6513

>  <SCORE.INTRA.VDW>
0.173317

>  <SCORE.INTRA.VDW.0>
-0.569808

>  <SCORE.INTRA.norm>
-0.0718587

>  <SCORE.RESTR>
0

>  <SCORE.RESTR.CAVITY>
0

>  <SCORE.RESTR.norm>
0

>  <SCORE.SYSTEM>
0

>  <SCORE.SYSTEM.CONST>
0

>  <SCORE.SYSTEM.DIHEDRAL>
0

>  <SCORE.SYSTEM.SOLV>
0

>  <SCORE.SYSTEM.norm>
0

>  <SCORE.heavy>
12

>  <SCORE.norm>
-0.963351

>  <RMSD>
1.113

$$$$
ligand
 OpenBabel11021811503D
libRbt.so/2013.1/901 2013/11/27
 12 12  0  0  0  0  0  0  0  0999 V2000
   10.2117   12.7531  148.1382 C   0  0  0  0  0  0  0  0  0  0  0  0
   12.9458    8.7951  145.4502 C   0  0  0  0  0  0  0  0  0  0  0  0
   11.9579   13.3325  146.1462 N   0  0  0  0  0  0  0  0  0  0  0  0
   10.2741   12.6636  149.6046 N   0  0  0  0  0  0  0  0  0  0  0  0
    9.7718   13.4879  150.1799 N   0  0  0  0  0  0  0  0  0  0  0  0
    9.2643   14.3086  150.7520 N   0  0  0  0  0  0  0  0  0  0  0  0
   11.4199    9.4510  147.1169 N   0  0  0  0  0  0  0  0  0  0  0  0
   12.2568    9.7946  146.1261 C   0  0  0  0  0  0  0  0  0  0  0  0
   12.4895   11.0841  145.8424 N   0  0  0  0  0  0  0  0  0  0  0  0
   11.8911   12.0626  146.5349 C   0  0  0  0  0  0  0  0  0  0  0  0
   11.0164   11.7691  147.5762 C   0  0  0  0  0  0  0  0  0  0  0  0
   10.7815   10.4352  147.8788 C   0  0  0  0  0  0  0  0  0  0  0  0
  1 11  1  0  0  0  0
  1  4  1  0  0  0  0
  2  8  1  0  0  0  0
  3 10  1  0  0  0  0
  4  5  1  0  0  0  0
  5  6  1  0  0  0  0
  7  8  2  0  0  0  0
  7 12  1  0  0  0  0
  8  9  1  0  0  0  0
  9 10  2  0  0  0  0
 10 11  1  0  0  0  0
 11 12  2  0  0  0  0
M  END
>  <CHROM.1>
-133.89887776,172.34546484,67.09751456,11.18646139,11.67530350,147.62736231
-2.54810890,-1.01971642,3.06113130

>  <Name>
ligand

>  <RI>
0

>  <Rbt.Current_Directory>
/home/itssahil/PROJECTS/Mol_Feturizer/New_Systems/rnas/4NYA

>  <Rbt.Executable>
rbdock ($Id: //depot/dev/client3/rdock/2013.1/src/exe/rbdock.cxx#4 $)

>  <Rbt.Library>
libRbt.so (2013.1, Build901 2013/11/27)

>  <Rbt.Parameter_File>
/export/apps/rDock/src/rDock_2013.1_src/data/scripts/dock_solv.prm

>  <Rbt.Receptor>
prm/pocket_docking_4.prm

>  <SCORE>
-11.5036

>  <SCORE.INTER>
-10.66

>  <SCORE.INTER.CONST>
1

>  <SCORE.INTER.POLAR>
0

>  <SCORE.INTER.ROT>
3

>  <SCORE.INTER.SOLV>
15.7286

>  <SCORE.INTER.VDW>
-17.9495

>  <SCORE.INTER.norm>
-0.888335

>  <SCORE.INTRA>
-0.843583

>  <SCORE.INTRA.DIHEDRAL>
-0.604934

>  <SCORE.INTRA.DIHEDRAL.0>
2.1382

>  <SCORE.INTRA.POLAR>
0

>  <SCORE.INTRA.POLAR.0>
0

>  <SCORE.INTRA.REPUL>
0

>  <SCORE.INTRA.REPUL.0>
0

>  <SCORE.INTRA.SOLV>
-1.36262

>  <SCORE.INTRA.SOLV.lig_0>
-59.6513

>  <SCORE.INTRA.VDW>
0.140193

>  <SCORE.INTRA.VDW.0>
-0.569808

>  <SCORE.INTRA.norm>
-0.0702986

>  <SCORE.RESTR>
0

>  <SCORE.RESTR.CAVITY>
0

>  <SCORE.RESTR.norm>
0

>  <SCORE.SYSTEM>
0

>  <SCORE.SYSTEM.CONST>
0

>  <SCORE.SYSTEM.DIHEDRAL>
0

>  <SCORE.SYSTEM.SOLV>
0

>  <SCORE.SYSTEM.norm>
0

>  <SCORE.heavy>
12

>  <SCORE.norm>
-0.958634

>  <RMSD>
1.115

$$$$
ligand
 OpenBabel11021811503D
libRbt.so/2013.1/901 2013/11/27
 12 12  0  0  0  0  0  0  0  0999 V2000
   10.2522   12.5994  148.1351 C   0  0  0  0  0  0  0  0  0  0  0  0
   13.0919    8.7575  145.3887 C   0  0  0  0  0  0  0  0  0  0  0  0
   11.9492   13.2523  146.1234 N   0  0  0  0  0  0  0  0  0  0  0  0
   10.1588   12.3587  149.5827 N   0  0  0  0  0  0  0  0  0  0  0  0
    9.5428   13.0888  150.1745 N   0  0  0  0  0  0  0  0  0  0  0  0
    8.9296   13.8144  150.7711 N   0  0  0  0  0  0  0  0  0  0  0  0
   11.5657    9.3488  147.0791 N   0  0  0  0  0  0  0  0  0  0  0  0
   12.3762    9.7278  146.0793 C   0  0  0  0  0  0  0  0  0  0  0  0
   12.5580   11.0263  145.7998 N   0  0  0  0  0  0  0  0  0  0  0  0
   11.9339   11.9788  146.5057 C   0  0  0  0  0  0  0  0  0  0  0  0
   11.0845   11.6483  147.5569 C   0  0  0  0  0  0  0  0  0  0  0  0
   10.9023   10.3052  147.8550 C   0  0  0  0  0  0  0  0  0  0  0  0
  1 11  1  0  0  0  0
  1  4  1  0  0  0  0
  2  8  1  0  0  0  0
  3 10  1  0  0  0  0
  4  5  1  0  0  0  0
  5  6  1  0  0  0  0
  7  8  2  0  0  0  0
  7 12  1  0  0  0  0
  8  9  1  0  0  0  0
  9 10  2  0  0  0  0
 10 11  1  0  0  0  0
 11 12  2  0  0  0  0
M  END
>  <CHROM.1>
-143.48337686,177.69679976,-177.60525972,11.18864900,11.50349530,147.60278788
-2.67642547,-0.98870459,2.99191755

>  <Name>
ligand

>  <RI>
0

>  <Rbt.Current_Directory>
/home/itssahil/PROJECTS/Mol_Feturizer/New_Systems/rnas/4NYA

>  <Rbt.Executable>
rbdock ($Id: //depot/dev/client3/rdock/2013.1/src/exe/rbdock.cxx#4 $)

>  <Rbt.Library>
libRbt.so (2013.1, Build901 2013/11/27)

>  <Rbt.Parameter_File>
/export/apps/rDock/src/rDock_2013.1_src/data/scripts/dock_solv.prm

>  <Rbt.Receptor>
prm/pocket_docking_2.prm

>  <SCORE>
-11.6381

>  <SCORE.INTER>
-10.7643

>  <SCORE.INTER.CONST>
1

>  <SCORE.INTER.POLAR>
0

>  <SCORE.INTER.ROT>
3

>  <SCORE.INTER.SOLV>
16.0144

>  <SCORE.INTER.VDW>
-18.1144

>  <SCORE.INTER.norm>
-0.897028

>  <SCORE.INTRA>
-0.873741

>  <SCORE.INTRA.DIHEDRAL>
-0.859987

>  <SCORE.INTRA.DIHEDRAL.0>
2.1382

>  <SCORE.INTRA.POLAR>
0

>  <SCORE.INTRA.POLAR.0>
0

>  <SCORE.INTRA.REPUL>
0

>  <SCORE.INTRA.REPUL.0>
0

>  <SCORE.INTRA.SOLV>
-1.44871

>  <SCORE.INTRA.SOLV.lig_0>
-59.6513

>  <SCORE.INTRA.VDW>
0.280608

>  <SCORE.INTRA.VDW.0>
-0.569808

>  <SCORE.INTRA.norm>
-0.0728118

>  <SCORE.RESTR>
0

>  <SCORE.RESTR.CAVITY>
0

>  <SCORE.RESTR.norm>
0

>  <SCORE.SYSTEM>
0

>  <SCORE.SYSTEM.CONST>
0

>  <SCORE.SYSTEM.DIHEDRAL>
0

>  <SCORE.SYSTEM.SOLV>
0

>  <SCORE.SYSTEM.norm>
0

>  <SCORE.heavy>
12

>  <SCORE.norm>
-0.96984

>  <RMSD>
1.116

$$$$
ligand
 OpenBabel11021811503D
libRbt.so/2013.1/901 2013/11/27
 12 12  0  0  0  0  0  0  0  0999 V2000
   10.0819   12.7147  148.3874 C   0  0  0  0  0  0  0  0  0  0  0  0
   13.0879    9.1379  145.4655 C   0  0  0  0  0  0  0  0  0  0  0  0
   11.5587   13.5067  146.2555 N   0  0  0  0  0  0  0  0  0  0  0  0
   10.6313   13.1113  149.6924 N   0  0  0  0  0  0  0  0  0  0  0  0
   10.0568   13.8899  150.2637 N   0  0  0  0  0  0  0  0  0  0  0  0
    9.4839   14.6715  150.8288 N   0  0  0  0  0  0  0  0  0  0  0  0
   11.6340    9.5968  147.2578 N   0  0  0  0  0  0  0  0  0  0  0  0
   12.3299   10.0414  146.2004 C   0  0  0  0  0  0  0  0  0  0  0  0
   12.3614   11.3479  145.9014 N   0  0  0  0  0  0  0  0  0  0  0  0
   11.6972   12.2429  146.6450 C   0  0  0  0  0  0  0  0  0  0  0  0
   10.9616   11.8433  147.7562 C   0  0  0  0  0  0  0  0  0  0  0  0
   10.9355   10.4926  148.0741 C   0  0  0  0  0  0  0  0  0  0  0  0
  1 11  1  0  0  0  0
  1  4  1  0  0  0  0
  2  8  1  0  0  0  0
  3 10  1  0  0  0  0
  4  5  1  0  0  0  0
  5  6  1  0  0  0  0
  7  8  2  0  0  0  0
  7 12  1  0  0  0  0
  8  9  1  0  0  0  0
  9 10  2  0  0  0  0
 10 11  1  0  0  0  0
 11 12  2  0  0  0  0
M  END
>  <CHROM.1>
-108.83313359,174.61820787,-58.90920158,11.23449685,11.90171867,147.74066413
2.70717439,1.10978783,-0.29441204

>  <Name>
ligand

>  <RI>
0

>  <Rbt.Current_Directory>
/home/itssahil/PROJECTS/Mol_Feturizer/New_Systems/rnas/4NYA

>  <Rbt.Executable>
rbdock ($Id: //depot/dev/client3/rdock/2013.1/src/exe/rbdock.cxx#4 $)

>  <Rbt.Library>
libRbt.so (2013.1, Build901 2013/11/27)

>  <Rbt.Parameter_File>
/export/apps/rDock/src/rDock_2013.1_src/data/scripts/dock_solv.prm

>  <Rbt.Receptor>
prm/pocket_docking_3.prm

>  <SCORE>
-10.8926

>  <SCORE.INTER>
-10.4597

>  <SCORE.INTER.CONST>
1

>  <SCORE.INTER.POLAR>
0

>  <SCORE.INTER.ROT>
3

>  <SCORE.INTER.SOLV>
15.4777

>  <SCORE.INTER.VDW>
-17.7323

>  <SCORE.INTER.norm>
-0.871639

>  <SCORE.INTRA>
-0.43297

>  <SCORE.INTRA.DIHEDRAL>
-0.0342783

>  <SCORE.INTRA.DIHEDRAL.0>
2.1382

>  <SCORE.INTRA.POLAR>
0

>  <SCORE.INTRA.POLAR.0>
0

>  <SCORE.INTRA.REPUL>
0

>  <SCORE.INTRA.REPUL.0>
0

>  <SCORE.INTRA.SOLV>
-0.809169

>  <SCORE.INTRA.SOLV.lig_0>
-59.6513

>  <SCORE.INTRA.VDW>
-0.0112468

>  <SCORE.INTRA.VDW.0>
-0.569808

>  <SCORE.INTRA.norm>
-0.0360809

>  <SCORE.RESTR>
0

>  <SCORE.RESTR.CAVITY>
0

>  <SCORE.RESTR.norm>
0

>  <SCORE.SYSTEM>
0

>  <SCORE.SYSTEM.CONST>
0

>  <SCORE.SYSTEM.DIHEDRAL>
0

>  <SCORE.SYSTEM.SOLV>
0

>  <SCORE.SYSTEM.norm>
0

>  <SCORE.heavy>
12

>  <SCORE.norm>
-0.90772

>  <RMSD>
1.117

$$$$
ligand
 OpenBabel11021811503D
libRbt.so/2013.1/901 2013/11/27
 12 12  0  0  0  0  0  0  0  0999 V2000
   10.2347   12.6385  148.1192 C   0  0  0  0  0  0  0  0  0  0  0  0
   13.0392    8.7751  145.3669 C   0  0  0  0  0  0  0  0  0  0  0  0
   12.0017   13.2843  146.1663 N   0  0  0  0  0  0  0  0  0  0  0  0
   10.1931   12.4432  149.5761 N   0  0  0  0  0  0  0  0  0  0  0  0
    9.6007   13.1934  150.1668 N   0  0  0  0  0  0  0  0  0  0  0  0
    9.0131   13.9474  150.7538 N   0  0  0  0  0  0  0  0  0  0  0  0
   11.4857    9.3745  147.0294 N   0  0  0  0  0  0  0  0  0  0  0  0
   12.3325    9.7508  146.0591 C   0  0  0  0  0  0  0  0  0  0  0  0
   12.5573   11.0491  145.8118 N   0  0  0  0  0  0  0  0  0  0  0  0
   11.9412   12.0042  146.5213 C   0  0  0  0  0  0  0  0  0  0  0  0
   11.0555   11.6764  147.5429 C   0  0  0  0  0  0  0  0  0  0  0  0
   10.8286   10.3331  147.8079 C   0  0  0  0  0  0  0  0  0  0  0  0
  1 11  1  0  0  0  0
  1  4  1  0  0  0  0
  2  8  1  0  0  0  0
  3 10  1  0  0  0  0
  4  5  1  0  0  0  0
  5  6  1  0  0  0  0
  7  8  2  0  0  0  0
  7 12  1  0  0  0  0
  8  9  1  0  0  0  0
  9 10  2  0  0  0  0
 10 11  1  0  0  0  0
 11 12  2  0  0  0  0
M  END
>  <CHROM.1>
-138.44465561,177.02149261,-56.00986127,11.18463715,11.55130561,147.59218979
-2.59949008,-0.98341684,3.06256706

>  <Name>
ligand

>  <RI>
0

>  <Rbt.Current_Directory>
/home/itssahil/PROJECTS/Mol_Feturizer/New_Systems/rnas/4NYA

>  <Rbt.Executable>
rbdock ($Id: //depot/dev/client3/rdock/2013.1/src/exe/rbdock.cxx#4 $)

>  <Rbt.Library>
libRbt.so (2013.1, Build901 2013/11/27)

>  <Rbt.Parameter_File>
/export/apps/rDock/src/rDock_2013.1_src/data/scripts/dock_solv.prm

>  <Rbt.Receptor>
prm/pocket_docking_4.prm

>  <SCORE>
-11.5053

>  <SCORE.INTER>
-10.6454

>  <SCORE.INTER.CONST>
1

>  <SCORE.INTER.POLAR>
0

>  <SCORE.INTER.ROT>
3

>  <SCORE.INTER.SOLV>
15.8584

>  <SCORE.INTER.VDW>
-17.9831

>  <SCORE.INTER.norm>
-0.887113

>  <SCORE.INTRA>
-0.859937

>  <SCORE.INTRA.DIHEDRAL>
-0.759128

>  <SCORE.INTRA.DIHEDRAL.0>
2.1382

>  <SCORE.INTRA.POLAR>
0

>  <SCORE.INTRA.POLAR.0>
0

>  <SCORE.INTRA.REPUL>
0

>  <SCORE.INTRA.REPUL.0>
0

>  <SCORE.INTRA.SOLV>
-1.4012

>  <SCORE.INTRA.SOLV.lig_0>
-59.6513

>  <SCORE.INTRA.VDW>
0.220227

>  <SCORE.INTRA.VDW.0>
-0.569808

>  <SCORE.INTRA.norm>
-0.0716614

>  <SCORE.RESTR>
0

>  <SCORE.RESTR.CAVITY>
0

>  <SCORE.RESTR.norm>
0

>  <SCORE.SYSTEM>
0

>  <SCORE.SYSTEM.CONST>
0

>  <SCORE.SYSTEM.DIHEDRAL>
0

>  <SCORE.SYSTEM.SOLV>
0

>  <SCORE.SYSTEM.norm>
0

>  <SCORE.heavy>
12

>  <SCORE.norm>
-0.958775

>  <RMSD>
1.117

$$$$
ligand
 OpenBabel11021811503D
libRbt.so/2013.1/901 2013/11/27
 12 12  0  0  0  0  0  0  0  0999 V2000
   10.2275   12.6500  148.1636 C   0  0  0  0  0  0  0  0  0  0  0  0
   13.0285    8.7888  145.4046 C   0  0  0  0  0  0  0  0  0  0  0  0
   11.9180   13.2911  146.1426 N   0  0  0  0  0  0  0  0  0  0  0  0
   10.2484   12.4954  149.6258 N   0  0  0  0  0  0  0  0  0  0  0  0
    9.7580   13.3104  150.2241 N   0  0  0  0  0  0  0  0  0  0  0  0
    9.2705   14.1210  150.8272 N   0  0  0  0  0  0  0  0  0  0  0  0
   11.5150    9.3906  147.1027 N   0  0  0  0  0  0  0  0  0  0  0  0
   12.3226    9.7639  146.0984 C   0  0  0  0  0  0  0  0  0  0  0  0
   12.5110   11.0611  145.8172 N   0  0  0  0  0  0  0  0  0  0  0  0
   11.8966   12.0179  146.5258 C   0  0  0  0  0  0  0  0  0  0  0  0
   11.0508   11.6934  147.5817 C   0  0  0  0  0  0  0  0  0  0  0  0
   10.8617   10.3516  147.8816 C   0  0  0  0  0  0  0  0  0  0  0  0
  1 11  1  0  0  0  0
  1  4  1  0  0  0  0
  2  8  1  0  0  0  0
  3 10  1  0  0  0  0
  4  5  1  0  0  0  0
  5  6  1  0  0  0  0
  7  8  2  0  0  0  0
  7 12  1  0  0  0  0
  8  9  1  0  0  0  0
  9 10  2  0  0  0  0
 10 11  1  0  0  0  0
 11 12  2  0  0  0  0
M  END
>  <CHROM.1>
-137.77038476,170.32626663,-175.75905781,11.21318997,11.59104705,147.63168697
-2.62059232,-1.03066413,3.01194540

>  <Name>
ligand

>  <RI>
0

>  <Rbt.Current_Directory>
/home/itssahil/PROJECTS/Mol_Feturizer/New_Systems/rnas/4NYA

>  <Rbt.Executable>
rbdock ($Id: //depot/dev/client3/rdock/2013.1/src/exe/rbdock.cxx#4 $)

>  <Rbt.Library>
libRbt.so (2013.1, Build901 2013/11/27)

>  <Rbt.Parameter_File>
/export/apps/rDock/src/rDock_2013.1_src/data/scripts/dock_solv.prm

>  <Rbt.Receptor>
prm/pocket_docking_3.prm

>  <SCORE>
-11.5652

>  <SCORE.INTER>
-10.7185

>  <SCORE.INTER.CONST>
1

>  <SCORE.INTER.POLAR>
0

>  <SCORE.INTER.ROT>
3

>  <SCORE.INTER.SOLV>
15.6994

>  <SCORE.INTER.VDW>
-17.9788

>  <SCORE.INTER.norm>
-0.893205

>  <SCORE.INTRA>
-0.846691

>  <SCORE.INTRA.DIHEDRAL>
-0.675973

>  <SCORE.INTRA.DIHEDRAL.0>
2.1382

>  <SCORE.INTRA.POLAR>
0

>  <SCORE.INTRA.POLAR.0>
0

>  <SCORE.INTRA.REPUL>
0

>  <SCORE.INTRA.REPUL.0>
0

>  <SCORE.INTRA.SOLV>
-1.40682

>  <SCORE.INTRA.SOLV.lig_0>
-59.6513

>  <SCORE.INTRA.VDW>
0.194704

>  <SCORE.INTRA.VDW.0>
-0.569808

>  <SCORE.INTRA.norm>
-0.0705576

>  <SCORE.RESTR>
0

>  <SCORE.RESTR.CAVITY>
0

>  <SCORE.RESTR.norm>
0

>  <SCORE.SYSTEM>
0

>  <SCORE.SYSTEM.CONST>
0

>  <SCORE.SYSTEM.DIHEDRAL>
0

>  <SCORE.SYSTEM.SOLV>
0

>  <SCORE.SYSTEM.norm>
0

>  <SCORE.heavy>
12

>  <SCORE.norm>
-0.963763

>  <RMSD>
1.120

$$$$
ligand
 OpenBabel11021811503D
libRbt.so/2013.1/901 2013/11/27
 12 12  0  0  0  0  0  0  0  0999 V2000
   10.2468   12.6255  148.1235 C   0  0  0  0  0  0  0  0  0  0  0  0
   13.0287    8.7461  145.3708 C   0  0  0  0  0  0  0  0  0  0  0  0
   11.9558   13.2565  146.1151 N   0  0  0  0  0  0  0  0  0  0  0  0
   10.1546   12.3877  149.5717 N   0  0  0  0  0  0  0  0  0  0  0  0
    9.5949   13.1551  150.1721 N   0  0  0  0  0  0  0  0  0  0  0  0
    9.0402   13.9261  150.7690 N   0  0  0  0  0  0  0  0  0  0  0  0
   11.5102    9.3572  147.0611 N   0  0  0  0  0  0  0  0  0  0  0  0
   12.3276    9.7259  146.0630 C   0  0  0  0  0  0  0  0  0  0  0  0
   12.5300   11.0220  145.7868 N   0  0  0  0  0  0  0  0  0  0  0  0
   11.9201   11.9825  146.4944 C   0  0  0  0  0  0  0  0  0  0  0  0
   11.0647   11.6629  147.5439 C   0  0  0  0  0  0  0  0  0  0  0  0
   10.8611   10.3220  147.8387 C   0  0  0  0  0  0  0  0  0  0  0  0
  1 11  1  0  0  0  0
  1  4  1  0  0  0  0
  2  8  1  0  0  0  0
  3 10  1  0  0  0  0
  4  5  1  0  0  0  0
  5  6  1  0  0  0  0
  7  8  2  0  0  0  0
  7 12  1  0  0  0  0
  8  9  1  0  0  0  0
  9 10  2  0  0  0  0
 10 11  1  0  0  0  0
 11 12  2  0  0  0  0
M  END
>  <CHROM.1>
-143.14287515,174.64393267,-55.13324303,11.18017781,11.52590098,147.59111339
-2.63678527,-0.99880031,3.02111973

>  <Name>
ligand

>  <RI>
0

>  <Rbt.Current_Directory>
/home/itssahil/PROJECTS/Mol_Feturizer/New_Systems/rnas/4NYA

>  <Rbt.Executable>
rbdock ($Id: //depot/dev/client3/rdock/2013.1/src/exe/rbdock.cxx#4 $)

>  <Rbt.Library>
libRbt.so (2013.1, Build901 2013/11/27)

>  <Rbt.Parameter_File>
/export/apps/rDock/src/rDock_2013.1_src/data/scripts/dock_solv.prm

>  <Rbt.Receptor>
prm/pocket_docking_2.prm

>  <SCORE>
-11.5666

>  <SCORE.INTER>
-10.7065

>  <SCORE.INTER.CONST>
1

>  <SCORE.INTER.POLAR>
0

>  <SCORE.INTER.ROT>
3

>  <SCORE.INTER.SOLV>
15.8644

>  <SCORE.INTER.VDW>
-18.0258

>  <SCORE.INTER.norm>
-0.892209

>  <SCORE.INTRA>
-0.860075

>  <SCORE.INTRA.DIHEDRAL>
-0.83041

>  <SCORE.INTRA.DIHEDRAL.0>
2.1382

>  <SCORE.INTRA.POLAR>
0

>  <SCORE.INTRA.POLAR.0>
0

>  <SCORE.INTRA.REPUL>
0

>  <SCORE.INTRA.REPUL.0>
0

>  <SCORE.INTRA.SOLV>
-1.44549

>  <SCORE.INTRA.SOLV.lig_0>
-59.6513

>  <SCORE.INTRA.VDW>
0.277877

>  <SCORE.INTRA.VDW.0>
-0.569808

>  <SCORE.INTRA.norm>
-0.0716729

>  <SCORE.RESTR>
0

>  <SCORE.RESTR.CAVITY>
0

>  <SCORE.RESTR.norm>
0

>  <SCORE.SYSTEM>
0

>  <SCORE.SYSTEM.CONST>
0

>  <SCORE.SYSTEM.DIHEDRAL>
0

>  <SCORE.SYSTEM.SOLV>
0

>  <SCORE.SYSTEM.norm>
0

>  <SCORE.heavy>
12

>  <SCORE.norm>
-0.963882

>  <RMSD>
1.122

$$$$
ligand
 OpenBabel11021811503D
libRbt.so/2013.1/901 2013/11/27
 12 12  0  0  0  0  0  0  0  0999 V2000
   10.2453   12.6002  148.1733 C   0  0  0  0  0  0  0  0  0  0  0  0
   13.0443    8.7780  145.3585 C   0  0  0  0  0  0  0  0  0  0  0  0
   11.9193   13.2681  146.1473 N   0  0  0  0  0  0  0  0  0  0  0  0
   10.3010   12.4519  149.6352 N   0  0  0  0  0  0  0  0  0  0  0  0
    9.7471   13.2205  150.2395 N   0  0  0  0  0  0  0  0  0  0  0  0
    9.1883   13.9852  150.8407 N   0  0  0  0  0  0  0  0  0  0  0  0
   11.5396    9.3569  147.0724 N   0  0  0  0  0  0  0  0  0  0  0  0
   12.3388    9.7434  146.0664 C   0  0  0  0  0  0  0  0  0  0  0  0
   12.5198   11.0440  145.7964 N   0  0  0  0  0  0  0  0  0  0  0  0
   11.9060   11.9913  146.5183 C   0  0  0  0  0  0  0  0  0  0  0  0
   11.0688   11.6529  147.5766 C   0  0  0  0  0  0  0  0  0  0  0  0
   10.8875   10.3074  147.8649 C   0  0  0  0  0  0  0  0  0  0  0  0
  1 11  1  0  0  0  0
  1  4  1  0  0  0  0
  2  8  1  0  0  0  0
  3 10  1  0  0  0  0
  4  5  1  0  0  0  0
  5  6  1  0  0  0  0
  7  8  2  0  0  0  0
  7 12  1  0  0  0  0
  8  9  1  0  0  0  0
  9 10  2  0  0  0  0
 10 11  1  0  0  0  0
 11 12  2  0  0  0  0
M  END
>  <CHROM.1>
-136.46239701,174.76228153,69.83311686,11.22087435,11.54607445,147.62296561
-2.64056918,-1.02905771,3.00781788

>  <Name>
ligand

>  <RI>
0

>  <Rbt.Current_Directory>
/home/itssahil/PROJECTS/Mol_Feturizer/New_Systems/rnas/4NYA

>  <Rbt.Executable>
rbdock ($Id: //depot/dev/client3/rdock/2013.1/src/exe/rbdock.cxx#4 $)

>  <Rbt.Library>
libRbt.so (2013.1, Build901 2013/11/27)

>  <Rbt.Parameter_File>
/export/apps/rDock/src/rDock_2013.1_src/data/scripts/dock_solv.prm

>  <Rbt.Receptor>
prm/pocket_docking_7.prm

>  <SCORE>
-11.537

>  <SCORE.INTER>
-10.6871

>  <SCORE.INTER.CONST>
1

>  <SCORE.INTER.POLAR>
0

>  <SCORE.INTER.ROT>
3

>  <SCORE.INTER.SOLV>
15.8219

>  <SCORE.INTER.VDW>
-17.9987

>  <SCORE.INTER.norm>
-0.890595

>  <SCORE.INTRA>
-0.849817

>  <SCORE.INTRA.DIHEDRAL>
-0.678625

>  <SCORE.INTRA.DIHEDRAL.0>
2.1382

>  <SCORE.INTRA.POLAR>
0

>  <SCORE.INTRA.POLAR.0>
0

>  <SCORE.INTRA.REPUL>
0

>  <SCORE.INTRA.REPUL.0>
0

>  <SCORE.INTRA.SOLV>
-1.38596

>  <SCORE.INTRA.SOLV.lig_0>
-59.6513

>  <SCORE.INTRA.VDW>
0.182477

>  <SCORE.INTRA.VDW.0>
-0.569808

>  <SCORE.INTRA.norm>
-0.0708181

>  <SCORE.RESTR>
0

>  <SCORE.RESTR.CAVITY>
0

>  <SCORE.RESTR.norm>
0

>  <SCORE.SYSTEM>
0

>  <SCORE.SYSTEM.CONST>
0

>  <SCORE.SYSTEM.DIHEDRAL>
0

>  <SCORE.SYSTEM.SOLV>
0

>  <SCORE.SYSTEM.norm>
0

>  <SCORE.heavy>
12

>  <SCORE.norm>
-0.961413

>  <RMSD>
1.123

$$$$
ligand
 OpenBabel11021811503D
libRbt.so/2013.1/901 2013/11/27
 12 12  0  0  0  0  0  0  0  0999 V2000
   10.2803   12.6716  148.2200 C   0  0  0  0  0  0  0  0  0  0  0  0
   13.0525    8.7990  145.4480 C   0  0  0  0  0  0  0  0  0  0  0  0
   11.8663   13.2937  146.1103 N   0  0  0  0  0  0  0  0  0  0  0  0
   10.3390   12.5347  149.6829 N   0  0  0  0  0  0  0  0  0  0  0  0
    9.8549   13.3517  150.2836 N   0  0  0  0  0  0  0  0  0  0  0  0
    9.3747   14.1719  150.8796 N   0  0  0  0  0  0  0  0  0  0  0  0
   11.5993    9.4139  147.1934 N   0  0  0  0  0  0  0  0  0  0  0  0
   12.3537    9.7770  146.1450 C   0  0  0  0  0  0  0  0  0  0  0  0
   12.4985   11.0696  145.8204 N   0  0  0  0  0  0  0  0  0  0  0  0
   11.8922   12.0318  146.5288 C   0  0  0  0  0  0  0  0  0  0  0  0
   11.1007   11.7180  147.6290 C   0  0  0  0  0  0  0  0  0  0  0  0
   10.9571   10.3813  147.9735 C   0  0  0  0  0  0  0  0  0  0  0  0
  1 11  1  0  0  0  0
  1  4  1  0  0  0  0
  2  8  1  0  0  0  0
  3 10  1  0  0  0  0
  4  5  1  0  0  0  0
  5  6  1  0  0  0  0
  7  8  2  0  0  0  0
  7 12  1  0  0  0  0
  8  9  1  0  0  0  0
  9 10  2  0  0  0  0
 10 11  1  0  0  0  0
 11 12  2  0  0  0  0
M  END
>  <CHROM.1>
-139.33092520,170.23848884,-47.68495267,11.25995006,11.61436862,147.67475996
-2.68739209,-1.06508323,2.92979596

>  <Name>
ligand

>  <RI>
0

>  <Rbt.Current_Directory>
/home/itssahil/PROJECTS/Mol_Feturizer/New_Systems/rnas/4NYA

>  <Rbt.Executable>
rbdock ($Id: //depot/dev/client3/rdock/2013.1/src/exe/rbdock.cxx#4 $)

>  <Rbt.Library>
libRbt.so (2013.1, Build901 2013/11/27)

>  <Rbt.Parameter_File>
/export/apps/rDock/src/rDock_2013.1_src/data/scripts/dock_solv.prm

>  <Rbt.Receptor>
prm/pocket_docking_2.prm

>  <SCORE>
-11.5582

>  <SCORE.INTER>
-10.728

>  <SCORE.INTER.CONST>
1

>  <SCORE.INTER.POLAR>
0

>  <SCORE.INTER.ROT>
3

>  <SCORE.INTER.SOLV>
15.8673

>  <SCORE.INTER.VDW>
-18.0411

>  <SCORE.INTER.norm>
-0.894001

>  <SCORE.INTRA>
-0.830217

>  <SCORE.INTRA.DIHEDRAL>
-0.672436

>  <SCORE.INTRA.DIHEDRAL.0>
2.1382

>  <SCORE.INTRA.POLAR>
0

>  <SCORE.INTRA.POLAR.0>
0

>  <SCORE.INTRA.REPUL>
0

>  <SCORE.INTRA.REPUL.0>
0

>  <SCORE.INTRA.SOLV>
-1.41646

>  <SCORE.INTRA.SOLV.lig_0>
-59.6513

>  <SCORE.INTRA.VDW>
0.214232

>  <SCORE.INTRA.VDW.0>
-0.569808

>  <SCORE.INTRA.norm>
-0.0691847

>  <SCORE.RESTR>
0

>  <SCORE.RESTR.CAVITY>
0

>  <SCORE.RESTR.norm>
0

>  <SCORE.SYSTEM>
0

>  <SCORE.SYSTEM.CONST>
0

>  <SCORE.SYSTEM.DIHEDRAL>
0

>  <SCORE.SYSTEM.SOLV>
0

>  <SCORE.SYSTEM.norm>
0

>  <SCORE.heavy>
12

>  <SCORE.norm>
-0.963186

>  <RMSD>
1.124

$$$$
ligand
 OpenBabel11021811503D
libRbt.so/2013.1/901 2013/11/27
 12 12  0  0  0  0  0  0  0  0999 V2000
   10.2640   12.6893  148.1470 C   0  0  0  0  0  0  0  0  0  0  0  0
   12.9970    8.7543  145.4242 C   0  0  0  0  0  0  0  0  0  0  0  0
   11.9916   13.2843  146.1434 N   0  0  0  0  0  0  0  0  0  0  0  0
   10.2380   12.5158  149.6070 N   0  0  0  0  0  0  0  0  0  0  0  0
    9.7526   13.3364  150.2017 N   0  0  0  0  0  0  0  0  0  0  0  0
    9.2620   14.1541  150.7925 N   0  0  0  0  0  0  0  0  0  0  0  0
   11.4808    9.3968  147.1050 N   0  0  0  0  0  0  0  0  0  0  0  0
   12.3083    9.7480  146.1089 C   0  0  0  0  0  0  0  0  0  0  0  0
   12.5321   11.0396  145.8277 N   0  0  0  0  0  0  0  0  0  0  0  0
   11.9343   12.0127  146.5283 C   0  0  0  0  0  0  0  0  0  0  0  0
   11.0693   11.7113  147.5754 C   0  0  0  0  0  0  0  0  0  0  0  0
   10.8435   10.3752  147.8753 C   0  0  0  0  0  0  0  0  0  0  0  0
  1 11  1  0  0  0  0
  1  4  1  0  0  0  0
  2  8  1  0  0  0  0
  3 10  1  0  0  0  0
  4  5  1  0  0  0  0
  5  6  1  0  0  0  0
  7  8  2  0  0  0  0
  7 12  1  0  0  0  0
  8  9  1  0  0  0  0
  9 10  2  0  0  0  0
 10 11  1  0  0  0  0
 11 12  2  0  0  0  0
M  END
>  <CHROM.1>
-139.19592329,170.79719754,64.39571995,11.21833812,11.59776564,147.62667384
-2.57874237,-1.01698054,3.05029738

>  <Name>
ligand

>  <RI>
0

>  <Rbt.Current_Directory>
/home/itssahil/PROJECTS/Mol_Feturizer/New_Systems/rnas/4NYA

>  <Rbt.Executable>
rbdock ($Id: //depot/dev/client3/rdock/2013.1/src/exe/rbdock.cxx#4 $)

>  <Rbt.Library>
libRbt.so (2013.1, Build901 2013/11/27)

>  <Rbt.Parameter_File>
/export/apps/rDock/src/rDock_2013.1_src/data/scripts/dock_solv.prm

>  <Rbt.Receptor>
prm/pocket_docking_2.prm

>  <SCORE>
-11.5061

>  <SCORE.INTER>
-10.6544

>  <SCORE.INTER.CONST>
1

>  <SCORE.INTER.POLAR>
0

>  <SCORE.INTER.ROT>
3

>  <SCORE.INTER.SOLV>
15.7561

>  <SCORE.INTER.VDW>
-17.955

>  <SCORE.INTER.norm>
-0.887868

>  <SCORE.INTRA>
-0.851692

>  <SCORE.INTRA.DIHEDRAL>
-0.712905

>  <SCORE.INTRA.DIHEDRAL.0>
2.1382

>  <SCORE.INTRA.POLAR>
0

>  <SCORE.INTRA.POLAR.0>
0

>  <SCORE.INTRA.REPUL>
0

>  <SCORE.INTRA.REPUL.0>
0

>  <SCORE.INTRA.SOLV>
-1.41556

>  <SCORE.INTRA.SOLV.lig_0>
-59.6513

>  <SCORE.INTRA.VDW>
0.212539

>  <SCORE.INTRA.VDW.0>
-0.569808

>  <SCORE.INTRA.norm>
-0.0709743

>  <SCORE.RESTR>
0

>  <SCORE.RESTR.CAVITY>
0

>  <SCORE.RESTR.norm>
0

>  <SCORE.SYSTEM>
0

>  <SCORE.SYSTEM.CONST>
0

>  <SCORE.SYSTEM.DIHEDRAL>
0

>  <SCORE.SYSTEM.SOLV>
0

>  <SCORE.SYSTEM.norm>
0

>  <SCORE.heavy>
12

>  <SCORE.norm>
-0.958842

>  <RMSD>
1.132

$$$$
ligand
 OpenBabel11021811503D
libRbt.so/2013.1/901 2013/11/27
 12 12  0  0  0  0  0  0  0  0999 V2000
   10.4019   12.3894  148.3113 C   0  0  0  0  0  0  0  0  0  0  0  0
   13.1373    8.6645  145.3097 C   0  0  0  0  0  0  0  0  0  0  0  0
   11.6316   13.0599  145.9894 N   0  0  0  0  0  0  0  0  0  0  0  0
   10.7782   12.4423  149.7318 N   0  0  0  0  0  0  0  0  0  0  0  0
   10.0161   12.0676  150.4676 N   0  0  0  0  0  0  0  0  0  0  0  0
    9.2508   11.6981  151.1998 N   0  0  0  0  0  0  0  0  0  0  0  0
   11.8747    9.2213  147.2156 N   0  0  0  0  0  0  0  0  0  0  0  0
   12.4474    9.6052  146.0646 C   0  0  0  0  0  0  0  0  0  0  0  0
   12.4263   10.8906  145.6845 N   0  0  0  0  0  0  0  0  0  0  0  0
   11.8306   11.8243  146.4385 C   0  0  0  0  0  0  0  0  0  0  0  0
   11.2234   11.4884  147.6444 C   0  0  0  0  0  0  0  0  0  0  0  0
   11.2525   10.1600  148.0454 C   0  0  0  0  0  0  0  0  0  0  0  0
  1 11  1  0  0  0  0
  1  4  1  0  0  0  0
  2  8  1  0  0  0  0
  3 10  1  0  0  0  0
  4  5  1  0  0  0  0
  5  6  1  0  0  0  0
  7  8  2  0  0  0  0
  7 12  1  0  0  0  0
  8  9  1  0  0  0  0
  9 10  2  0  0  0  0
 10 11  1  0  0  0  0
 11 12  2  0  0  0  0
M  END
>  <CHROM.1>
-132.36988180,-114.46067018,-57.79350384,11.35067367,11.12810066,147.69125308
-3.10044180,-1.09005889,2.72189788

>  <Name>
ligand

>  <RI>
0

>  <Rbt.Current_Directory>
/home/itssahil/PROJECTS/Mol_Feturizer/New_Systems/rnas/4NYA

>  <Rbt.Executable>
rbdock ($Id: //depot/dev/client3/rdock/2013.1/src/exe/rbdock.cxx#4 $)

>  <Rbt.Library>
libRbt.so (2013.1, Build901 2013/11/27)

>  <Rbt.Parameter_File>
/export/apps/rDock/src/rDock_2013.1_src/data/scripts/dock_solv.prm

>  <Rbt.Receptor>
prm/pocket_docking_3.prm

>  <SCORE>
-10.8081

>  <SCORE.INTER>
-10.6356

>  <SCORE.INTER.CONST>
1

>  <SCORE.INTER.POLAR>
0

>  <SCORE.INTER.ROT>
3

>  <SCORE.INTER.SOLV>
17.3894

>  <SCORE.INTER.VDW>
-18.4869

>  <SCORE.INTER.norm>
-0.886303

>  <SCORE.INTRA>
-0.172512

>  <SCORE.INTRA.DIHEDRAL>
0.54828

>  <SCORE.INTRA.DIHEDRAL.0>
2.1382

>  <SCORE.INTRA.POLAR>
0

>  <SCORE.INTRA.POLAR.0>
0

>  <SCORE.INTRA.REPUL>
0

>  <SCORE.INTRA.REPUL.0>
0

>  <SCORE.INTRA.SOLV>
-0.964835

>  <SCORE.INTRA.SOLV.lig_0>
-59.6513

>  <SCORE.INTRA.VDW>
0.0357656

>  <SCORE.INTRA.VDW.0>
-0.569808

>  <SCORE.INTRA.norm>
-0.014376

>  <SCORE.RESTR>
0

>  <SCORE.RESTR.CAVITY>
0

>  <SCORE.RESTR.norm>
0

>  <SCORE.SYSTEM>
0

>  <SCORE.SYSTEM.CONST>
0

>  <SCORE.SYSTEM.DIHEDRAL>
0

>  <SCORE.SYSTEM.SOLV>
0

>  <SCORE.SYSTEM.norm>
0

>  <SCORE.heavy>
12

>  <SCORE.norm>
-0.900679

>  <RMSD>
1.141

$$$$
ligand
 OpenBabel11021811503D
libRbt.so/2013.1/901 2013/11/27
 12 12  0  0  0  0  0  0  0  0999 V2000
   10.0475   12.6899  148.1722 C   0  0  0  0  0  0  0  0  0  0  0  0
   13.0033    8.9109  145.4613 C   0  0  0  0  0  0  0  0  0  0  0  0
   11.8272   13.3880  146.2492 N   0  0  0  0  0  0  0  0  0  0  0  0
   10.5144   13.0352  149.5231 N   0  0  0  0  0  0  0  0  0  0  0  0
    9.9174   13.8084  150.0785 N   0  0  0  0  0  0  0  0  0  0  0  0
    9.3225   14.5848  150.6279 N   0  0  0  0  0  0  0  0  0  0  0  0
   11.4067    9.4639  147.0989 N   0  0  0  0  0  0  0  0  0  0  0  0
   12.2583    9.8653  146.1430 C   0  0  0  0  0  0  0  0  0  0  0  0
   12.4508   11.1698  145.9010 N   0  0  0  0  0  0  0  0  0  0  0  0
   11.7968   12.1062  146.6015 C   0  0  0  0  0  0  0  0  0  0  0  0
   10.9041   11.7520  147.6082 C   0  0  0  0  0  0  0  0  0  0  0  0
   10.7105   10.4025  147.8677 C   0  0  0  0  0  0  0  0  0  0  0  0
  1 11  1  0  0  0  0
  1  4  1  0  0  0  0
  2  8  1  0  0  0  0
  3 10  1  0  0  0  0
  4  5  1  0  0  0  0
  5  6  1  0  0  0  0
  7  8  2  0  0  0  0
  7 12  1  0  0  0  0
  8  9  1  0  0  0  0
  9 10  2  0  0  0  0
 10 11  1  0  0  0  0
 11 12  2  0  0  0  0
M  END
>  <CHROM.1>
-106.40159079,178.48903302,-57.05268959,11.17968245,11.78296975,147.62494614
2.46678748,1.01279967,-0.04754572

>  <Name>
ligand

>  <RI>
0

>  <Rbt.Current_Directory>
/home/itssahil/PROJECTS/Mol_Feturizer/New_Systems/rnas/4NYA

>  <Rbt.Executable>
rbdock ($Id: //depot/dev/client3/rdock/2013.1/src/exe/rbdock.cxx#4 $)

>  <Rbt.Library>
libRbt.so (2013.1, Build901 2013/11/27)

>  <Rbt.Parameter_File>
/export/apps/rDock/src/rDock_2013.1_src/data/scripts/dock_solv.prm

>  <Rbt.Receptor>
prm/pocket_docking_2.prm

>  <SCORE>
-10.8493

>  <SCORE.INTER>
-10.4411

>  <SCORE.INTER.CONST>
1

>  <SCORE.INTER.POLAR>
0

>  <SCORE.INTER.ROT>
3

>  <SCORE.INTER.SOLV>
15.6912

>  <SCORE.INTER.VDW>
-17.7911

>  <SCORE.INTER.norm>
-0.87009

>  <SCORE.INTRA>
-0.408194

>  <SCORE.INTRA.DIHEDRAL>
-0.0165243

>  <SCORE.INTRA.DIHEDRAL.0>
2.1382

>  <SCORE.INTRA.POLAR>
0

>  <SCORE.INTRA.POLAR.0>
0

>  <SCORE.INTRA.REPUL>
0

>  <SCORE.INTRA.REPUL.0>
0

>  <SCORE.INTRA.SOLV>
-0.763604

>  <SCORE.INTRA.SOLV.lig_0>
-59.6513

>  <SCORE.INTRA.VDW>
-0.0181295

>  <SCORE.INTRA.VDW.0>
-0.569808

>  <SCORE.INTRA.norm>
-0.0340161

>  <SCORE.RESTR>
0

>  <SCORE.RESTR.CAVITY>
0

>  <SCORE.RESTR.norm>
0

>  <SCORE.SYSTEM>
0

>  <SCORE.SYSTEM.CONST>
0

>  <SCORE.SYSTEM.DIHEDRAL>
0

>  <SCORE.SYSTEM.SOLV>
0

>  <SCORE.SYSTEM.norm>
0

>  <SCORE.heavy>
12

>  <SCORE.norm>
-0.904106

>  <RMSD>
1.151

$$$$
ligand
 OpenBabel11021811503D
libRbt.so/2013.1/901 2013/11/27
 12 12  0  0  0  0  0  0  0  0999 V2000
   10.0893   12.6458  148.3465 C   0  0  0  0  0  0  0  0  0  0  0  0
   13.0321    8.9668  145.4880 C   0  0  0  0  0  0  0  0  0  0  0  0
   11.5893   13.3767  146.2091 N   0  0  0  0  0  0  0  0  0  0  0  0
   10.6493   13.0616  149.6410 N   0  0  0  0  0  0  0  0  0  0  0  0
   10.0877   13.8596  150.1982 N   0  0  0  0  0  0  0  0  0  0  0  0
    9.5277   14.6604  150.7492 N   0  0  0  0  0  0  0  0  0  0  0  0
   11.5817    9.4810  147.2680 N   0  0  0  0  0  0  0  0  0  0  0  0
   12.2901    9.8960  146.2069 C   0  0  0  0  0  0  0  0  0  0  0  0
   12.3492   11.1971  145.8892 N   0  0  0  0  0  0  0  0  0  0  0  0
   11.7008   12.1161  146.6173 C   0  0  0  0  0  0  0  0  0  0  0  0
   10.9533   11.7477  147.7314 C   0  0  0  0  0  0  0  0  0  0  0  0
   10.8986   10.4026  148.0686 C   0  0  0  0  0  0  0  0  0  0  0  0
  1 11  1  0  0  0  0
  1  4  1  0  0  0  0
  2  8  1  0  0  0  0
  3 10  1  0  0  0  0
  4  5  1  0  0  0  0
  5  6  1  0  0  0  0
  7  8  2  0  0  0  0
  7 12  1  0  0  0  0
  8  9  1  0  0  0  0
  9 10  2  0  0  0  0
 10 11  1  0  0  0  0
 11 12  2  0  0  0  0
M  END
>  <CHROM.1>
-108.20454068,174.73108705,-58.57111508,11.22896689,11.80325786,147.71408845
2.65647579,1.11194752,-0.26516069

>  <Name>
ligand

>  <RI>
0

>  <Rbt.Current_Directory>
/home/itssahil/PROJECTS/Mol_Feturizer/New_Systems/rnas/4NYA

>  <Rbt.Executable>
rbdock ($Id: //depot/dev/client3/rdock/2013.1/src/exe/rbdock.cxx#4 $)

>  <Rbt.Library>
libRbt.so (2013.1, Build901 2013/11/27)

>  <Rbt.Parameter_File>
/export/apps/rDock/src/rDock_2013.1_src/data/scripts/dock_solv.prm

>  <Rbt.Receptor>
prm/pocket_docking_5.prm

>  <SCORE>
-10.9266

>  <SCORE.INTER>
-10.5081

>  <SCORE.INTER.CONST>
1

>  <SCORE.INTER.POLAR>
0

>  <SCORE.INTER.ROT>
3

>  <SCORE.INTER.SOLV>
15.7298

>  <SCORE.INTER.VDW>
-17.8487

>  <SCORE.INTER.norm>
-0.875678

>  <SCORE.INTRA>
-0.418473

>  <SCORE.INTRA.DIHEDRAL>
-0.0246821

>  <SCORE.INTRA.DIHEDRAL.0>
2.1382

>  <SCORE.INTRA.POLAR>
0

>  <SCORE.INTRA.POLAR.0>
0

>  <SCORE.INTRA.REPUL>
0

>  <SCORE.INTRA.REPUL.0>
0

>  <SCORE.INTRA.SOLV>
-0.785479

>  <SCORE.INTRA.SOLV.lig_0>
-59.6513

>  <SCORE.INTRA.VDW>
-0.0133927

>  <SCORE.INTRA.VDW.0>
-0.569808

>  <SCORE.INTRA.norm>
-0.0348728

>  <SCORE.RESTR>
0

>  <SCORE.RESTR.CAVITY>
0

>  <SCORE.RESTR.norm>
0

>  <SCORE.SYSTEM>
0

>  <SCORE.SYSTEM.CONST>
0

>  <SCORE.SYSTEM.DIHEDRAL>
0

>  <SCORE.SYSTEM.SOLV>
0

>  <SCORE.SYSTEM.norm>
0

>  <SCORE.heavy>
12

>  <SCORE.norm>
-0.910551

>  <RMSD>
1.157

$$$$
ligand
 OpenBabel11021811503D
libRbt.so/2013.1/901 2013/11/27
 12 12  0  0  0  0  0  0  0  0999 V2000
   10.0999   12.7395  148.2637 C   0  0  0  0  0  0  0  0  0  0  0  0
   13.0473    9.0404  145.4359 C   0  0  0  0  0  0  0  0  0  0  0  0
   11.6823   13.4701  146.1864 N   0  0  0  0  0  0  0  0  0  0  0  0
   10.6151   13.1016  149.5924 N   0  0  0  0  0  0  0  0  0  0  0  0
   10.0622   13.9108  150.1421 N   0  0  0  0  0  0  0  0  0  0  0  0
    9.5046   14.7148  150.6909 N   0  0  0  0  0  0  0  0  0  0  0  0
   11.5537    9.5590  147.1785 N   0  0  0  0  0  0  0  0  0  0  0  0
   12.3042    9.9747  146.1470 C   0  0  0  0  0  0  0  0  0  0  0  0
   12.4025   11.2790  145.8534 N   0  0  0  0  0  0  0  0  0  0  0  0
   11.7524   12.2008  146.5765 C   0  0  0  0  0  0  0  0  0  0  0  0
   10.9623   11.8318  147.6605 C   0  0  0  0  0  0  0  0  0  0  0  0
   10.8668   10.4829  147.9731 C   0  0  0  0  0  0  0  0  0  0  0  0
  1 11  1  0  0  0  0
  1  4  1  0  0  0  0
  2  8  1  0  0  0  0
  3 10  1  0  0  0  0
  4  5  1  0  0  0  0
  5  6  1  0  0  0  0
  7  8  2  0  0  0  0
  7 12  1  0  0  0  0
  8  9  1  0  0  0  0
  9 10  2  0  0  0  0
 10 11  1  0  0  0  0
 11 12  2  0  0  0  0
M  END
>  <CHROM.1>
-109.27494326,173.95106392,61.01482552,11.23760114,11.87739546,147.65506380
2.59759655,1.08703548,-0.19411489

>  <Name>
ligand

>  <RI>
0

>  <Rbt.Current_Directory>
/home/itssahil/PROJECTS/Mol_Feturizer/New_Systems/rnas/4NYA

>  <Rbt.Executable>
rbdock ($Id: //depot/dev/client3/rdock/2013.1/src/exe/rbdock.cxx#4 $)

>  <Rbt.Library>
libRbt.so (2013.1, Build901 2013/11/27)

>  <Rbt.Parameter_File>
/export/apps/rDock/src/rDock_2013.1_src/data/scripts/dock_solv.prm

>  <Rbt.Receptor>
prm/pocket_docking_4.prm

>  <SCORE>
-10.925

>  <SCORE.INTER>
-10.4883

>  <SCORE.INTER.CONST>
1

>  <SCORE.INTER.POLAR>
0

>  <SCORE.INTER.ROT>
3

>  <SCORE.INTER.SOLV>
15.8443

>  <SCORE.INTER.VDW>
-17.8737

>  <SCORE.INTER.norm>
-0.874028

>  <SCORE.INTRA>
-0.436652

>  <SCORE.INTRA.DIHEDRAL>
-0.0356701

>  <SCORE.INTRA.DIHEDRAL.0>
2.1382

>  <SCORE.INTRA.POLAR>
0

>  <SCORE.INTRA.POLAR.0>
0

>  <SCORE.INTRA.REPUL>
0

>  <SCORE.INTRA.REPUL.0>
0

>  <SCORE.INTRA.SOLV>
-0.817743

>  <SCORE.INTRA.SOLV.lig_0>
-59.6513

>  <SCORE.INTRA.VDW>
-0.0099459

>  <SCORE.INTRA.VDW.0>
-0.569808

>  <SCORE.INTRA.norm>
-0.0363877

>  <SCORE.RESTR>
0

>  <SCORE.RESTR.CAVITY>
0

>  <SCORE.RESTR.norm>
0

>  <SCORE.SYSTEM>
0

>  <SCORE.SYSTEM.CONST>
0

>  <SCORE.SYSTEM.DIHEDRAL>
0

>  <SCORE.SYSTEM.SOLV>
0

>  <SCORE.SYSTEM.norm>
0

>  <SCORE.heavy>
12

>  <SCORE.norm>
-0.910415

>  <RMSD>
1.161

$$$$
ligand
 OpenBabel11021811503D
libRbt.so/2013.1/901 2013/11/27
 12 12  0  0  0  0  0  0  0  0999 V2000
   10.2503   12.6124  148.1264 C   0  0  0  0  0  0  0  0  0  0  0  0
   13.0580    8.7424  145.3865 C   0  0  0  0  0  0  0  0  0  0  0  0
   11.9379   13.2462  146.1007 N   0  0  0  0  0  0  0  0  0  0  0  0
   10.2803   12.4722  149.5898 N   0  0  0  0  0  0  0  0  0  0  0  0
    9.7944   13.2936  150.1832 N   0  0  0  0  0  0  0  0  0  0  0  0
    9.3034   14.1118  150.7729 N   0  0  0  0  0  0  0  0  0  0  0  0
   11.5443    9.3501  147.0824 N   0  0  0  0  0  0  0  0  0  0  0  0
   12.3503    9.7198  146.0755 C   0  0  0  0  0  0  0  0  0  0  0  0
   12.5357   11.0158  145.7871 N   0  0  0  0  0  0  0  0  0  0  0  0
   11.9197   11.9751  146.4909 C   0  0  0  0  0  0  0  0  0  0  0  0
   11.0753   11.6545  147.5491 C   0  0  0  0  0  0  0  0  0  0  0  0
   10.8894   10.3139  147.8564 C   0  0  0  0  0  0  0  0  0  0  0  0
  1 11  1  0  0  0  0
  1  4  1  0  0  0  0
  2  8  1  0  0  0  0
  3 10  1  0  0  0  0
  4  5  1  0  0  0  0
  5  6  1  0  0  0  0
  7  8  2  0  0  0  0
  7 12  1  0  0  0  0
  8  9  1  0  0  0  0
  9 10  2  0  0  0  0
 10 11  1  0  0  0  0
 11 12  2  0  0  0  0
M  END
>  <CHROM.1>
-137.35347320,169.96864694,65.53607571,11.24082149,11.55563057,147.59870471
-2.62186177,-1.03226183,3.00337406

>  <Name>
ligand

>  <RI>
0

>  <Rbt.Current_Directory>
/home/itssahil/PROJECTS/Mol_Feturizer/New_Systems/rnas/4NYA

>  <Rbt.Executable>
rbdock ($Id: //depot/dev/client3/rdock/2013.1/src/exe/rbdock.cxx#4 $)

>  <Rbt.Library>
libRbt.so (2013.1, Build901 2013/11/27)

>  <Rbt.Parameter_File>
/export/apps/rDock/src/rDock_2013.1_src/data/scripts/dock_solv.prm

>  <Rbt.Receptor>
prm/pocket_docking_8.prm

>  <SCORE>
-11.5946

>  <SCORE.INTER>
-10.7575

>  <SCORE.INTER.CONST>
1

>  <SCORE.INTER.POLAR>
0

>  <SCORE.INTER.ROT>
3

>  <SCORE.INTER.SOLV>
15.8679

>  <SCORE.INTER.VDW>
-18.061

>  <SCORE.INTER.norm>
-0.896458

>  <SCORE.INTRA>
-0.837057

>  <SCORE.INTRA.DIHEDRAL>
-0.657822

>  <SCORE.INTRA.DIHEDRAL.0>
2.1382

>  <SCORE.INTRA.POLAR>
0

>  <SCORE.INTRA.POLAR.0>
0

>  <SCORE.INTRA.REPUL>
0

>  <SCORE.INTRA.REPUL.0>
0

>  <SCORE.INTRA.SOLV>
-1.39907

>  <SCORE.INTRA.SOLV.lig_0>
-59.6513

>  <SCORE.INTRA.VDW>
0.191391

>  <SCORE.INTRA.VDW.0>
-0.569808

>  <SCORE.INTRA.norm>
-0.0697547

>  <SCORE.RESTR>
0

>  <SCORE.RESTR.CAVITY>
0

>  <SCORE.RESTR.norm>
0

>  <SCORE.SYSTEM>
0

>  <SCORE.SYSTEM.CONST>
0

>  <SCORE.SYSTEM.DIHEDRAL>
0

>  <SCORE.SYSTEM.SOLV>
0

>  <SCORE.SYSTEM.norm>
0

>  <SCORE.heavy>
12

>  <SCORE.norm>
-0.966213

>  <RMSD>
1.162

$$$$
ligand
 OpenBabel11021811503D
libRbt.so/2013.1/901 2013/11/27
 12 12  0  0  0  0  0  0  0  0999 V2000
   10.0969   12.7763  148.1921 C   0  0  0  0  0  0  0  0  0  0  0  0
   12.9834    8.9206  145.5149 C   0  0  0  0  0  0  0  0  0  0  0  0
   11.7791   13.4126  146.1627 N   0  0  0  0  0  0  0  0  0  0  0  0
   10.5895   13.1468  149.5272 N   0  0  0  0  0  0  0  0  0  0  0  0
   10.0410   13.9745  150.0532 N   0  0  0  0  0  0  0  0  0  0  0  0
    9.4977   14.8004  150.5835 N   0  0  0  0  0  0  0  0  0  0  0  0
   11.4535    9.5241  147.1976 N   0  0  0  0  0  0  0  0  0  0  0  0
   12.2558    9.8943  146.1881 C   0  0  0  0  0  0  0  0  0  0  0  0
   12.4185   11.1894  145.8820 N   0  0  0  0  0  0  0  0  0  0  0  0
   11.7828   12.1470  146.5706 C   0  0  0  0  0  0  0  0  0  0  0  0
   10.9411   11.8257  147.6307 C   0  0  0  0  0  0  0  0  0  0  0  0
   10.7787   10.4864  147.9562 C   0  0  0  0  0  0  0  0  0  0  0  0
  1 11  1  0  0  0  0
  1  4  1  0  0  0  0
  2  8  1  0  0  0  0
  3 10  1  0  0  0  0
  4  5  1  0  0  0  0
  5  6  1  0  0  0  0
  7  8  2  0  0  0  0
  7 12  1  0  0  0  0
  8  9  1  0  0  0  0
  9 10  2  0  0  0  0
 10 11  1  0  0  0  0
 11 12  2  0  0  0  0
M  END
>  <CHROM.1>
-108.61524854,174.99318969,-177.87860787,11.21830276,11.86030472,147.63472235
2.50003180,1.05911980,-0.12078499

>  <Name>
ligand

>  <RI>
0

>  <Rbt.Current_Directory>
/home/itssahil/PROJECTS/Mol_Feturizer/New_Systems/rnas/4NYA

>  <Rbt.Executable>
rbdock ($Id: //depot/dev/client3/rdock/2013.1/src/exe/rbdock.cxx#4 $)

>  <Rbt.Library>
libRbt.so (2013.1, Build901 2013/11/27)

>  <Rbt.Parameter_File>
/export/apps/rDock/src/rDock_2013.1_src/data/scripts/dock_solv.prm

>  <Rbt.Receptor>
prm/pocket_docking_3.prm

>  <SCORE>
-10.9662

>  <SCORE.INTER>
-10.5314

>  <SCORE.INTER.CONST>
1

>  <SCORE.INTER.POLAR>
0

>  <SCORE.INTER.ROT>
3

>  <SCORE.INTER.SOLV>
16.0652

>  <SCORE.INTER.VDW>
-17.976

>  <SCORE.INTER.norm>
-0.877617

>  <SCORE.INTRA>
-0.434762

>  <SCORE.INTRA.DIHEDRAL>
-0.0329031

>  <SCORE.INTRA.DIHEDRAL.0>
2.1382

>  <SCORE.INTRA.POLAR>
0

>  <SCORE.INTRA.POLAR.0>
0

>  <SCORE.INTRA.REPUL>
0

>  <SCORE.INTRA.REPUL.0>
0

>  <SCORE.INTRA.SOLV>
-0.809921

>  <SCORE.INTRA.SOLV.lig_0>
-59.6513

>  <SCORE.INTRA.VDW>
-0.0133498

>  <SCORE.INTRA.VDW.0>
-0.569808

>  <SCORE.INTRA.norm>
-0.0362302

>  <SCORE.RESTR>
0

>  <SCORE.RESTR.CAVITY>
0

>  <SCORE.RESTR.norm>
0

>  <SCORE.SYSTEM>
0

>  <SCORE.SYSTEM.CONST>
0

>  <SCORE.SYSTEM.DIHEDRAL>
0

>  <SCORE.SYSTEM.SOLV>
0

>  <SCORE.SYSTEM.norm>
0

>  <SCORE.heavy>
12

>  <SCORE.norm>
-0.913847

>  <RMSD>
1.195

$$$$
ligand
 OpenBabel11021811503D
libRbt.so/2013.1/901 2013/11/27
 12 12  0  0  0  0  0  0  0  0999 V2000
   10.0657   12.7938  148.1446 C   0  0  0  0  0  0  0  0  0  0  0  0
   12.9644    8.9086  145.5236 C   0  0  0  0  0  0  0  0  0  0  0  0
   11.7139   13.4005  146.0786 N   0  0  0  0  0  0  0  0  0  0  0  0
   10.5890   13.2271  149.4487 N   0  0  0  0  0  0  0  0  0  0  0  0
   10.0163   14.0378  149.9754 N   0  0  0  0  0  0  0  0  0  0  0  0
    9.4492   14.8472  150.5062 N   0  0  0  0  0  0  0  0  0  0  0  0
   11.4489    9.5346  147.2111 N   0  0  0  0  0  0  0  0  0  0  0  0
   12.2337    9.8897  146.1825 C   0  0  0  0  0  0  0  0  0  0  0  0
   12.3767   11.1788  145.8433 N   0  0  0  0  0  0  0  0  0  0  0  0
   11.7383   12.1452  146.5168 C   0  0  0  0  0  0  0  0  0  0  0  0
   10.9141   11.8398  147.5952 C   0  0  0  0  0  0  0  0  0  0  0  0
   10.7722   10.5070  147.9551 C   0  0  0  0  0  0  0  0  0  0  0  0
  1 11  1  0  0  0  0
  1  4  1  0  0  0  0
  2  8  1  0  0  0  0
  3 10  1  0  0  0  0
  4  5  1  0  0  0  0
  5  6  1  0  0  0  0
  7  8  2  0  0  0  0
  7 12  1  0  0  0  0
  8  9  1  0  0  0  0
  9 10  2  0  0  0  0
 10 11  1  0  0  0  0
 11 12  2  0  0  0  0
M  END
>  <CHROM.1>
-107.19755039,177.11759994,-176.48480485,11.19025360,11.87831747,147.59442841
2.52827763,1.06878697,-0.16865703

>  <Name>
ligand

>  <RI>
0

>  <Rbt.Current_Directory>
/home/itssahil/PROJECTS/Mol_Feturizer/New_Systems/rnas/4NYA

>  <Rbt.Executable>
rbdock ($Id: //depot/dev/client3/rdock/2013.1/src/exe/rbdock.cxx#4 $)

>  <Rbt.Library>
libRbt.so (2013.1, Build901 2013/11/27)

>  <Rbt.Parameter_File>
/export/apps/rDock/src/rDock_2013.1_src/data/scripts/dock_solv.prm

>  <Rbt.Receptor>
prm/pocket_docking_7.prm

>  <SCORE>
-10.9044

>  <SCORE.INTER>
-10.485

>  <SCORE.INTER.CONST>
1

>  <SCORE.INTER.POLAR>
0

>  <SCORE.INTER.ROT>
3

>  <SCORE.INTER.SOLV>
16.305

>  <SCORE.INTER.VDW>
-18.025

>  <SCORE.INTER.norm>
-0.873747

>  <SCORE.INTRA>
-0.419403

>  <SCORE.INTRA.DIHEDRAL>
-0.0220998

>  <SCORE.INTRA.DIHEDRAL.0>
2.1382

>  <SCORE.INTRA.POLAR>
0

>  <SCORE.INTRA.POLAR.0>
0

>  <SCORE.INTRA.REPUL>
0

>  <SCORE.INTRA.REPUL.0>
0

>  <SCORE.INTRA.SOLV>
-0.781802

>  <SCORE.INTRA.SOLV.lig_0>
-59.6513

>  <SCORE.INTRA.VDW>
-0.0174517

>  <SCORE.INTRA.VDW.0>
-0.569808

>  <SCORE.INTRA.norm>
-0.0349502

>  <SCORE.RESTR>
0

>  <SCORE.RESTR.CAVITY>
0

>  <SCORE.RESTR.norm>
0

>  <SCORE.SYSTEM>
0

>  <SCORE.SYSTEM.CONST>
0

>  <SCORE.SYSTEM.DIHEDRAL>
0

>  <SCORE.SYSTEM.SOLV>
0

>  <SCORE.SYSTEM.norm>
0

>  <SCORE.heavy>
12

>  <SCORE.norm>
-0.908697

>  <RMSD>
1.208

$$$$
ligand
 OpenBabel11021811503D
libRbt.so/2013.1/901 2013/11/27
 12 12  0  0  0  0  0  0  0  0999 V2000
   10.1642   12.7254  148.2174 C   0  0  0  0  0  0  0  0  0  0  0  0
   13.0556    8.9325  145.4568 C   0  0  0  0  0  0  0  0  0  0  0  0
   11.7714   13.3972  146.1393 N   0  0  0  0  0  0  0  0  0  0  0  0
   10.7046   13.1322  149.5230 N   0  0  0  0  0  0  0  0  0  0  0  0
   10.1352   13.9272  150.0767 N   0  0  0  0  0  0  0  0  0  0  0  0
    9.5615   14.7165  150.6300 N   0  0  0  0  0  0  0  0  0  0  0  0
   11.5628    9.5032  147.1838 N   0  0  0  0  0  0  0  0  0  0  0  0
   12.3267    9.8904  146.1510 C   0  0  0  0  0  0  0  0  0  0  0  0
   12.4515   11.1886  145.8402 N   0  0  0  0  0  0  0  0  0  0  0  0
   11.8153   12.1323  146.5470 C   0  0  0  0  0  0  0  0  0  0  0  0
   11.0124   11.7933  147.6314 C   0  0  0  0  0  0  0  0  0  0  0  0
   10.8894   10.4509  147.9618 C   0  0  0  0  0  0  0  0  0  0  0  0
  1 11  1  0  0  0  0
  1  4  1  0  0  0  0
  2  8  1  0  0  0  0
  3 10  1  0  0  0  0
  4  5  1  0  0  0  0
  5  6  1  0  0  0  0
  7  8  2  0  0  0  0
  7 12  1  0  0  0  0
  8  9  1  0  0  0  0
  9 10  2  0  0  0  0
 10 11  1  0  0  0  0
 11 12  2  0  0  0  0
M  END
>  <CHROM.1>
-107.24276590,176.89292494,65.58143744,11.28763404,11.83465709,147.62629115
2.55452203,1.08307664,-0.16839887

>  <Name>
ligand

>  <RI>
0

>  <Rbt.Current_Directory>
/home/itssahil/PROJECTS/Mol_Feturizer/New_Systems/rnas/4NYA

>  <Rbt.Executable>
rbdock ($Id: //depot/dev/client3/rdock/2013.1/src/exe/rbdock.cxx#4 $)

>  <Rbt.Library>
libRbt.so (2013.1, Build901 2013/11/27)

>  <Rbt.Parameter_File>
/export/apps/rDock/src/rDock_2013.1_src/data/scripts/dock_solv.prm

>  <Rbt.Receptor>
prm/pocket_docking_8.prm

>  <SCORE>
-10.9703

>  <SCORE.INTER>
-10.5577

>  <SCORE.INTER.CONST>
1

>  <SCORE.INTER.POLAR>
0

>  <SCORE.INTER.ROT>
3

>  <SCORE.INTER.SOLV>
16.3103

>  <SCORE.INTER.VDW>
-18.0752

>  <SCORE.INTER.norm>
-0.87981

>  <SCORE.INTRA>
-0.412556

>  <SCORE.INTRA.DIHEDRAL>
-0.0165725

>  <SCORE.INTRA.DIHEDRAL.0>
2.1382

>  <SCORE.INTRA.POLAR>
0

>  <SCORE.INTRA.POLAR.0>
0

>  <SCORE.INTRA.REPUL>
0

>  <SCORE.INTRA.REPUL.0>
0

>  <SCORE.INTRA.SOLV>
-0.776558

>  <SCORE.INTRA.SOLV.lig_0>
-59.6513

>  <SCORE.INTRA.VDW>
-0.0159905

>  <SCORE.INTRA.VDW.0>
-0.569808

>  <SCORE.INTRA.norm>
-0.0343796

>  <SCORE.RESTR>
0

>  <SCORE.RESTR.CAVITY>
0

>  <SCORE.RESTR.norm>
0

>  <SCORE.SYSTEM>
0

>  <SCORE.SYSTEM.CONST>
0

>  <SCORE.SYSTEM.DIHEDRAL>
0

>  <SCORE.SYSTEM.SOLV>
0

>  <SCORE.SYSTEM.norm>
0

>  <SCORE.heavy>
12

>  <SCORE.norm>
-0.914189

>  <RMSD>
1.216

$$$$
ligand
 OpenBabel11021811503D
libRbt.so/2013.1/901 2013/11/27
 12 12  0  0  0  0  0  0  0  0999 V2000
   10.3850   12.3833  148.3172 C   0  0  0  0  0  0  0  0  0  0  0  0
   13.1419    8.6748  145.3151 C   0  0  0  0  0  0  0  0  0  0  0  0
   11.7745   13.0976  146.1008 N   0  0  0  0  0  0  0  0  0  0  0  0
   10.7518   12.4399  149.7400 N   0  0  0  0  0  0  0  0  0  0  0  0
   10.2883   11.6655  150.4094 N   0  0  0  0  0  0  0  0  0  0  0  0
    9.8283   10.8955  151.0831 N   0  0  0  0  0  0  0  0  0  0  0  0
   11.7927    9.2043  147.1686 N   0  0  0  0  0  0  0  0  0  0  0  0
   12.4467    9.6114  146.0701 C   0  0  0  0  0  0  0  0  0  0  0  0
   12.4990   10.9113  145.7464 N   0  0  0  0  0  0  0  0  0  0  0  0
   11.8976   11.8370  146.5057 C   0  0  0  0  0  0  0  0  0  0  0  0
   11.2079   11.4770  147.6591 C   0  0  0  0  0  0  0  0  0  0  0  0
   11.1606   10.1331  148.0022 C   0  0  0  0  0  0  0  0  0  0  0  0
  1 11  1  0  0  0  0
  1  4  1  0  0  0  0
  2  8  1  0  0  0  0
  3 10  1  0  0  0  0
  4  5  1  0  0  0  0
  5  6  1  0  0  0  0
  7  8  2  0  0  0  0
  7 12  1  0  0  0  0
  8  9  1  0  0  0  0
  9 10  2  0  0  0  0
 10 11  1  0  0  0  0
 11 12  2  0  0  0  0
M  END
>  <CHROM.1>
-127.87116502,-85.02074935,-173.33809202,11.42974282,11.02573895,147.69205887
-3.10750496,-1.11261790,2.77934963

>  <Name>
ligand

>  <RI>
0

>  <Rbt.Current_Directory>
/home/itssahil/PROJECTS/Mol_Feturizer/New_Systems/rnas/4NYA

>  <Rbt.Executable>
rbdock ($Id: //depot/dev/client3/rdock/2013.1/src/exe/rbdock.cxx#4 $)

>  <Rbt.Library>
libRbt.so (2013.1, Build901 2013/11/27)

>  <Rbt.Parameter_File>
/export/apps/rDock/src/rDock_2013.1_src/data/scripts/dock_solv.prm

>  <Rbt.Receptor>
prm/pocket_docking_6.prm

>  <SCORE>
-10.7954

>  <SCORE.INTER>
-10.755

>  <SCORE.INTER.CONST>
1

>  <SCORE.INTER.POLAR>
0

>  <SCORE.INTER.ROT>
3

>  <SCORE.INTER.SOLV>
17.8507

>  <SCORE.INTER.VDW>
-18.7202

>  <SCORE.INTER.norm>
-0.896246

>  <SCORE.INTRA>
-0.0404153

>  <SCORE.INTRA.DIHEDRAL>
-0.0530276

>  <SCORE.INTRA.DIHEDRAL.0>
2.1382

>  <SCORE.INTRA.POLAR>
0

>  <SCORE.INTRA.POLAR.0>
0

>  <SCORE.INTRA.REPUL>
0

>  <SCORE.INTRA.REPUL.0>
0

>  <SCORE.INTRA.SOLV>
-0.0787749

>  <SCORE.INTRA.SOLV.lig_0>
-59.6513

>  <SCORE.INTRA.VDW>
0.025486

>  <SCORE.INTRA.VDW.0>
-0.569808

>  <SCORE.INTRA.norm>
-0.00336794

>  <SCORE.RESTR>
0

>  <SCORE.RESTR.CAVITY>
0

>  <SCORE.RESTR.norm>
0

>  <SCORE.SYSTEM>
0

>  <SCORE.SYSTEM.CONST>
0

>  <SCORE.SYSTEM.DIHEDRAL>
0

>  <SCORE.SYSTEM.SOLV>
0

>  <SCORE.SYSTEM.norm>
0

>  <SCORE.heavy>
12

>  <SCORE.norm>
-0.899614

>  <RMSD>
1.240

$$$$
ligand
 OpenBabel11021811503D
libRbt.so/2013.1/901 2013/11/27
 12 12  0  0  0  0  0  0  0  0999 V2000
   10.4400   12.3982  148.3281 C   0  0  0  0  0  0  0  0  0  0  0  0
   13.1367    8.6982  145.2615 C   0  0  0  0  0  0  0  0  0  0  0  0
   11.7184   13.1056  146.0437 N   0  0  0  0  0  0  0  0  0  0  0  0
    9.3818   11.6675  149.0412 N   0  0  0  0  0  0  0  0  0  0  0  0
    8.6992   12.2794  149.6911 N   0  0  0  0  0  0  0  0  0  0  0  0
    8.0232   12.8925  150.3434 N   0  0  0  0  0  0  0  0  0  0  0  0
   11.8586    9.2297  147.1642 N   0  0  0  0  0  0  0  0  0  0  0  0
   12.4566    9.6326  146.0328 C   0  0  0  0  0  0  0  0  0  0  0  0
   12.4695   10.9283  145.6889 N   0  0  0  0  0  0  0  0  0  0  0  0
   11.8835   11.8537  146.4606 C   0  0  0  0  0  0  0  0  0  0  0  0
   11.2512   11.4979  147.6477 C   0  0  0  0  0  0  0  0  0  0  0  0
   11.2451   10.1585  148.0113 C   0  0  0  0  0  0  0  0  0  0  0  0
  1 11  1  0  0  0  0
  1  4  1  0  0  0  0
  2  8  1  0  0  0  0
  3 10  1  0  0  0  0
  4  5  1  0  0  0  0
  5  6  1  0  0  0  0
  7  8  2  0  0  0  0
  7 12  1  0  0  0  0
  8  9  1  0  0  0  0
  9 10  2  0  0  0  0
 10 11  1  0  0  0  0
 11 12  2  0  0  0  0
M  END
>  <CHROM.1>
149.45398584,175.84534570,-57.50101288,11.02742637,11.19968060,147.48388890
-2.85899571,-0.85024820,2.89743177

>  <Name>
ligand

>  <RI>
0

>  <Rbt.Current_Directory>
/home/itssahil/PROJECTS/Mol_Feturizer/New_Systems/rnas/4NYA

>  <Rbt.Executable>
rbdock ($Id: //depot/dev/client3/rdock/2013.1/src/exe/rbdock.cxx#4 $)

>  <Rbt.Library>
libRbt.so (2013.1, Build901 2013/11/27)

>  <Rbt.Parameter_File>
/export/apps/rDock/src/rDock_2013.1_src/data/scripts/dock_solv.prm

>  <Rbt.Receptor>
prm/pocket_docking_8.prm

>  <SCORE>
-10.3068

>  <SCORE.INTER>
-10.362

>  <SCORE.INTER.CONST>
1

>  <SCORE.INTER.POLAR>
0

>  <SCORE.INTER.ROT>
3

>  <SCORE.INTER.SOLV>
17.8381

>  <SCORE.INTER.VDW>
-18.454

>  <SCORE.INTER.norm>
-0.863499

>  <SCORE.INTRA>
0.0551955

>  <SCORE.INTRA.DIHEDRAL>
0.0501437

>  <SCORE.INTRA.DIHEDRAL.0>
2.1382

>  <SCORE.INTRA.POLAR>
0

>  <SCORE.INTRA.POLAR.0>
0

>  <SCORE.INTRA.REPUL>
0

>  <SCORE.INTRA.REPUL.0>
0

>  <SCORE.INTRA.SOLV>
-1.4014

>  <SCORE.INTRA.SOLV.lig_0>
-59.6513

>  <SCORE.INTRA.VDW>
0.730825

>  <SCORE.INTRA.VDW.0>
-0.569808

>  <SCORE.INTRA.norm>
0.00459962

>  <SCORE.RESTR>
0

>  <SCORE.RESTR.CAVITY>
0

>  <SCORE.RESTR.norm>
0

>  <SCORE.SYSTEM>
0

>  <SCORE.SYSTEM.CONST>
0

>  <SCORE.SYSTEM.DIHEDRAL>
0

>  <SCORE.SYSTEM.SOLV>
0

>  <SCORE.SYSTEM.norm>
0

>  <SCORE.heavy>
12

>  <SCORE.norm>
-0.8589

>  <RMSD>
1.326

$$$$
ligand
 OpenBabel11021811503D
libRbt.so/2013.1/901 2013/11/27
 12 12  0  0  0  0  0  0  0  0999 V2000
   10.4583   12.4255  148.4704 C   0  0  0  0  0  0  0  0  0  0  0  0
   13.0762    8.7581  145.2981 C   0  0  0  0  0  0  0  0  0  0  0  0
   11.6032   13.1406  146.1186 N   0  0  0  0  0  0  0  0  0  0  0  0
    9.1021   11.8738  148.6071 N   0  0  0  0  0  0  0  0  0  0  0  0
    8.4706   12.2931  149.4366 N   0  0  0  0  0  0  0  0  0  0  0  0
    7.8405   12.7178  150.2619 N   0  0  0  0  0  0  0  0  0  0  0  0
   11.8850    9.2784  147.2595 N   0  0  0  0  0  0  0  0  0  0  0  0
   12.4158    9.6844  146.0961 C   0  0  0  0  0  0  0  0  0  0  0  0
   12.3828   10.9770  145.7423 N   0  0  0  0  0  0  0  0  0  0  0  0
   11.8166   11.8962  146.5359 C   0  0  0  0  0  0  0  0  0  0  0  0
   11.2534   11.5371  147.7563 C   0  0  0  0  0  0  0  0  0  0  0  0
   11.2951   10.2011  148.1298 C   0  0  0  0  0  0  0  0  0  0  0  0
  1 11  1  0  0  0  0
  1  4  1  0  0  0  0
  2  8  1  0  0  0  0
  3 10  1  0  0  0  0
  4  5  1  0  0  0  0
  5  6  1  0  0  0  0
  7  8  2  0  0  0  0
  7 12  1  0  0  0  0
  8  9  1  0  0  0  0
  9 10  2  0  0  0  0
 10 11  1  0  0  0  0
 11 12  2  0  0  0  0
M  END
>  <CHROM.1>
117.97337205,159.51216852,61.29052866,10.94392113,11.23622475,147.47944240
-2.86007605,-0.80566544,2.88478604

>  <Name>
ligand

>  <RI>
0

>  <Rbt.Current_Directory>
/home/itssahil/PROJECTS/Mol_Feturizer/New_Systems/rnas/4NYA

>  <Rbt.Executable>
rbdock ($Id: //depot/dev/client3/rdock/2013.1/src/exe/rbdock.cxx#4 $)

>  <Rbt.Library>
libRbt.so (2013.1, Build901 2013/11/27)

>  <Rbt.Parameter_File>
/export/apps/rDock/src/rDock_2013.1_src/data/scripts/dock_solv.prm

>  <Rbt.Receptor>
prm/pocket_docking_5.prm

>  <SCORE>
-10.5106

>  <SCORE.INTER>
-10.132

>  <SCORE.INTER.CONST>
1

>  <SCORE.INTER.POLAR>
0

>  <SCORE.INTER.ROT>
3

>  <SCORE.INTER.SOLV>
18.4712

>  <SCORE.INTER.VDW>
-18.5118

>  <SCORE.INTER.norm>
-0.844335

>  <SCORE.INTRA>
-0.378563

>  <SCORE.INTRA.DIHEDRAL>
-0.0405128

>  <SCORE.INTRA.DIHEDRAL.0>
2.1382

>  <SCORE.INTRA.POLAR>
0

>  <SCORE.INTRA.POLAR.0>
0

>  <SCORE.INTRA.REPUL>
0

>  <SCORE.INTRA.REPUL.0>
0

>  <SCORE.INTRA.SOLV>
-0.990039

>  <SCORE.INTRA.SOLV.lig_0>
-59.6513

>  <SCORE.INTRA.VDW>
0.136713

>  <SCORE.INTRA.VDW.0>
-0.569808

>  <SCORE.INTRA.norm>
-0.0315469

>  <SCORE.RESTR>
0

>  <SCORE.RESTR.CAVITY>
0

>  <SCORE.RESTR.norm>
0

>  <SCORE.SYSTEM>
0

>  <SCORE.SYSTEM.CONST>
0

>  <SCORE.SYSTEM.DIHEDRAL>
0

>  <SCORE.SYSTEM.SOLV>
0

>  <SCORE.SYSTEM.norm>
0

>  <SCORE.heavy>
12

>  <SCORE.norm>
-0.875882

>  <RMSD>
1.338

$$$$
ligand
 OpenBabel11021811503D
libRbt.so/2013.1/901 2013/11/27
 12 12  0  0  0  0  0  0  0  0999 V2000
   10.4722   12.4416  148.4570 C   0  0  0  0  0  0  0  0  0  0  0  0
   13.0152    8.6846  145.3290 C   0  0  0  0  0  0  0  0  0  0  0  0
   11.6142   13.1016  146.0878 N   0  0  0  0  0  0  0  0  0  0  0  0
    9.1157   11.9018  148.6325 N   0  0  0  0  0  0  0  0  0  0  0  0
    8.4903   12.3681  149.4413 N   0  0  0  0  0  0  0  0  0  0  0  0
    7.8609   12.8293  150.2473 N   0  0  0  0  0  0  0  0  0  0  0  0
   11.8435    9.2541  147.2885 N   0  0  0  0  0  0  0  0  0  0  0  0
   12.3737    9.6334  146.1158 C   0  0  0  0  0  0  0  0  0  0  0  0
   12.3584   10.9206  145.7416 N   0  0  0  0  0  0  0  0  0  0  0  0
   11.8110   11.8608  146.5236 C   0  0  0  0  0  0  0  0  0  0  0  0
   11.2495   11.5299  147.7527 C   0  0  0  0  0  0  0  0  0  0  0  0
   11.2729   10.1994  148.1472 C   0  0  0  0  0  0  0  0  0  0  0  0
  1 11  1  0  0  0  0
  1  4  1  0  0  0  0
  2  8  1  0  0  0  0
  3 10  1  0  0  0  0
  4  5  1  0  0  0  0
  5  6  1  0  0  0  0
  7  8  2  0  0  0  0
  7 12  1  0  0  0  0
  8  9  1  0  0  0  0
  9 10  2  0  0  0  0
 10 11  1  0  0  0  0
 11 12  2  0  0  0  0
M  END
>  <CHROM.1>
119.05307274,161.31059953,-179.86961870,10.93384978,11.23190764,147.48387133
-2.83887453,-0.81539362,2.88293388

>  <Name>
ligand

>  <RI>
0

>  <Rbt.Current_Directory>
/home/itssahil/PROJECTS/Mol_Feturizer/New_Systems/rnas/4NYA

>  <Rbt.Executable>
rbdock ($Id: //depot/dev/client3/rdock/2013.1/src/exe/rbdock.cxx#4 $)

>  <Rbt.Library>
libRbt.so (2013.1, Build901 2013/11/27)

>  <Rbt.Parameter_File>
/export/apps/rDock/src/rDock_2013.1_src/data/scripts/dock_solv.prm

>  <Rbt.Receptor>
prm/pocket_docking_8.prm

>  <SCORE>
-10.5376

>  <SCORE.INTER>
-10.1495

>  <SCORE.INTER.CONST>
1

>  <SCORE.INTER.POLAR>
0

>  <SCORE.INTER.ROT>
3

>  <SCORE.INTER.SOLV>
18.6491

>  <SCORE.INTER.VDW>
-18.5827

>  <SCORE.INTER.norm>
-0.845795

>  <SCORE.INTRA>
-0.388066

>  <SCORE.INTRA.DIHEDRAL>
-0.061056

>  <SCORE.INTRA.DIHEDRAL.0>
2.1382

>  <SCORE.INTRA.POLAR>
0

>  <SCORE.INTRA.POLAR.0>
0

>  <SCORE.INTRA.REPUL>
0

>  <SCORE.INTRA.REPUL.0>
0

>  <SCORE.INTRA.SOLV>
-1.0186

>  <SCORE.INTRA.SOLV.lig_0>
-59.6513

>  <SCORE.INTRA.VDW>
0.151762

>  <SCORE.INTRA.VDW.0>
-0.569808

>  <SCORE.INTRA.norm>
-0.0323388

>  <SCORE.RESTR>
0

>  <SCORE.RESTR.CAVITY>
0

>  <SCORE.RESTR.norm>
0

>  <SCORE.SYSTEM>
0

>  <SCORE.SYSTEM.CONST>
0

>  <SCORE.SYSTEM.DIHEDRAL>
0

>  <SCORE.SYSTEM.SOLV>
0

>  <SCORE.SYSTEM.norm>
0

>  <SCORE.heavy>
12

>  <SCORE.norm>
-0.878134

>  <RMSD>
1.338

$$$$
ligand
 OpenBabel11021811503D
libRbt.so/2013.1/901 2013/11/27
 12 12  0  0  0  0  0  0  0  0999 V2000
   10.4591   12.4302  148.4369 C   0  0  0  0  0  0  0  0  0  0  0  0
   13.0375    8.6832  145.3258 C   0  0  0  0  0  0  0  0  0  0  0  0
   11.5522   13.0798  146.0418 N   0  0  0  0  0  0  0  0  0  0  0  0
    9.1124   11.8708  148.6260 N   0  0  0  0  0  0  0  0  0  0  0  0
    8.4965   12.3134  149.4551 N   0  0  0  0  0  0  0  0  0  0  0  0
    7.8818   12.7614  150.2796 N   0  0  0  0  0  0  0  0  0  0  0  0
   11.8822    9.2561  147.2940 N   0  0  0  0  0  0  0  0  0  0  0  0
   12.3870    9.6295  146.1083 C   0  0  0  0  0  0  0  0  0  0  0  0
   12.3385   10.9105  145.7160 N   0  0  0  0  0  0  0  0  0  0  0  0
   11.7821   11.8501  146.4924 C   0  0  0  0  0  0  0  0  0  0  0  0
   11.2457   11.5251  147.7343 C   0  0  0  0  0  0  0  0  0  0  0  0
   11.3036   10.2015  148.1474 C   0  0  0  0  0  0  0  0  0  0  0  0
  1 11  1  0  0  0  0
  1  4  1  0  0  0  0
  2  8  1  0  0  0  0
  3 10  1  0  0  0  0
  4  5  1  0  0  0  0
  5  6  1  0  0  0  0
  7  8  2  0  0  0  0
  7 12  1  0  0  0  0
  8  9  1  0  0  0  0
  9 10  2  0  0  0  0
 10 11  1  0  0  0  0
 11 12  2  0  0  0  0
M  END
>  <CHROM.1>
118.37837942,159.58917151,61.49516238,10.93394431,11.21354280,147.47529095
-2.87792582,-0.82459493,2.84179361

>  <Name>
ligand

>  <RI>
0

>  <Rbt.Current_Directory>
/home/itssahil/PROJECTS/Mol_Feturizer/New_Systems/rnas/4NYA

>  <Rbt.Executable>
rbdock ($Id: //depot/dev/client3/rdock/2013.1/src/exe/rbdock.cxx#4 $)

>  <Rbt.Library>
libRbt.so (2013.1, Build901 2013/11/27)

>  <Rbt.Parameter_File>
/export/apps/rDock/src/rDock_2013.1_src/data/scripts/dock_solv.prm

>  <Rbt.Receptor>
prm/pocket_docking_3.prm

>  <SCORE>
-10.6034

>  <SCORE.INTER>
-10.2315

>  <SCORE.INTER.CONST>
1

>  <SCORE.INTER.POLAR>
0

>  <SCORE.INTER.ROT>
3

>  <SCORE.INTER.SOLV>
18.629

>  <SCORE.INTER.VDW>
-18.6307

>  <SCORE.INTER.norm>
-0.852624

>  <SCORE.INTRA>
-0.371939

>  <SCORE.INTRA.DIHEDRAL>
-0.0318573

>  <SCORE.INTRA.DIHEDRAL.0>
2.1382

>  <SCORE.INTRA.POLAR>
0

>  <SCORE.INTRA.POLAR.0>
0

>  <SCORE.INTRA.REPUL>
0

>  <SCORE.INTRA.REPUL.0>
0

>  <SCORE.INTRA.SOLV>
-0.996628

>  <SCORE.INTRA.SOLV.lig_0>
-59.6513

>  <SCORE.INTRA.VDW>
0.142303

>  <SCORE.INTRA.VDW.0>
-0.569808

>  <SCORE.INTRA.norm>
-0.0309949

>  <SCORE.RESTR>
0

>  <SCORE.RESTR.CAVITY>
0

>  <SCORE.RESTR.norm>
0

>  <SCORE.SYSTEM>
0

>  <SCORE.SYSTEM.CONST>
0

>  <SCORE.SYSTEM.DIHEDRAL>
0

>  <SCORE.SYSTEM.SOLV>
0

>  <SCORE.SYSTEM.norm>
0

>  <SCORE.heavy>
12

>  <SCORE.norm>
-0.883619

>  <RMSD>
1.341

$$$$
ligand
 OpenBabel11021811503D
libRbt.so/2013.1/901 2013/11/27
 12 12  0  0  0  0  0  0  0  0999 V2000
   10.2757   13.5234  147.9174 C   0  0  0  0  0  0  0  0  0  0  0  0
   12.6705    9.0259  145.8188 C   0  0  0  0  0  0  0  0  0  0  0  0
    9.5497   11.0302  148.6983 N   0  0  0  0  0  0  0  0  0  0  0  0
   10.7220   13.5221  149.3185 N   0  0  0  0  0  0  0  0  0  0  0  0
   10.2266   14.2618  150.0041 N   0  0  0  0  0  0  0  0  0  0  0  0
    9.7360   14.9982  150.6937 N   0  0  0  0  0  0  0  0  0  0  0  0
   12.4514   11.3668  145.9119 N   0  0  0  0  0  0  0  0  0  0  0  0
   12.0659   10.1586  146.3499 C   0  0  0  0  0  0  0  0  0  0  0  0
   11.0587   10.0372  147.2262 N   0  0  0  0  0  0  0  0  0  0  0  0
   10.4138   11.1156  147.6912 C   0  0  0  0  0  0  0  0  0  0  0  0
   10.7649   12.3945  147.2710 C   0  0  0  0  0  0  0  0  0  0  0  0
   11.8007   12.5227  146.3561 C   0  0  0  0  0  0  0  0  0  0  0  0
  1 11  1  0  0  0  0
  1  4  1  0  0  0  0
  2  8  1  0  0  0  0
  3 10  1  0  0  0  0
  4  5  1  0  0  0  0
  5  6  1  0  0  0  0
  7  8  2  0  0  0  0
  7 12  1  0  0  0  0
  8  9  1  0  0  0  0
  9 10  2  0  0  0  0
 10 11  1  0  0  0  0
 11 12  2  0  0  0  0
M  END
>  <CHROM.1>
61.41639345,-167.80883098,-177.15457337,10.97467363,11.99987312,147.80131000
-2.14738083,-0.88042982,-2.88616483

>  <Name>
ligand

>  <RI>
0

>  <Rbt.Current_Directory>
/home/itssahil/PROJECTS/Mol_Feturizer/New_Systems/rnas/4NYA

>  <Rbt.Executable>
rbdock ($Id: //depot/dev/client3/rdock/2013.1/src/exe/rbdock.cxx#4 $)

>  <Rbt.Library>
libRbt.so (2013.1, Build901 2013/11/27)

>  <Rbt.Parameter_File>
/export/apps/rDock/src/rDock_2013.1_src/data/scripts/dock_solv.prm

>  <Rbt.Receptor>
prm/pocket_docking_3.prm

>  <SCORE>
-12.0958

>  <SCORE.INTER>
-12.4877

>  <SCORE.INTER.CONST>
1

>  <SCORE.INTER.POLAR>
0

>  <SCORE.INTER.ROT>
3

>  <SCORE.INTER.SOLV>
9.14051

>  <SCORE.INTER.VDW>
-16.972

>  <SCORE.INTER.norm>
-1.04064

>  <SCORE.INTRA>
0.391888

>  <SCORE.INTRA.DIHEDRAL>
-0.530026

>  <SCORE.INTRA.DIHEDRAL.0>
2.1382

>  <SCORE.INTRA.POLAR>
0

>  <SCORE.INTRA.POLAR.0>
0

>  <SCORE.INTRA.REPUL>
0

>  <SCORE.INTRA.REPUL.0>
0

>  <SCORE.INTRA.SOLV>
1.38016

>  <SCORE.INTRA.SOLV.lig_0>
-59.6513

>  <SCORE.INTRA.VDW>
-0.0331804

>  <SCORE.INTRA.VDW.0>
-0.569808

>  <SCORE.INTRA.norm>
0.0326573

>  <SCORE.RESTR>
0

>  <SCORE.RESTR.CAVITY>
0

>  <SCORE.RESTR.norm>
0

>  <SCORE.SYSTEM>
0

>  <SCORE.SYSTEM.CONST>
0

>  <SCORE.SYSTEM.DIHEDRAL>
0

>  <SCORE.SYSTEM.SOLV>
0

>  <SCORE.SYSTEM.norm>
0

>  <SCORE.heavy>
12

>  <SCORE.norm>
-1.00798

>  <RMSD>
2.146

$$$$
ligand
 OpenBabel11021811503D
libRbt.so/2013.1/901 2013/11/27
 12 12  0  0  0  0  0  0  0  0999 V2000
   10.5961   13.4202  148.1129 C   0  0  0  0  0  0  0  0  0  0  0  0
   12.4735    8.8382  145.6948 C   0  0  0  0  0  0  0  0  0  0  0  0
   10.1499   10.9661  149.1764 N   0  0  0  0  0  0  0  0  0  0  0  0
    9.1883   13.3567  148.5329 N   0  0  0  0  0  0  0  0  0  0  0  0
    8.9188   13.9120  149.4719 N   0  0  0  0  0  0  0  0  0  0  0  0
    8.6509   14.4722  150.4061 N   0  0  0  0  0  0  0  0  0  0  0  0
   12.2334   11.1787  145.7251 N   0  0  0  0  0  0  0  0  0  0  0  0
   11.9999    9.9923  146.3066 C   0  0  0  0  0  0  0  0  0  0  0  0
   11.2535    9.9090  147.4171 N   0  0  0  0  0  0  0  0  0  0  0  0
   10.7253   11.0050  147.9782 C   0  0  0  0  0  0  0  0  0  0  0  0
   10.9286   12.2627  147.4192 C   0  0  0  0  0  0  0  0  0  0  0  0
   11.6925   12.3509  146.2638 C   0  0  0  0  0  0  0  0  0  0  0  0
  1 11  1  0  0  0  0
  1  4  1  0  0  0  0
  2  8  1  0  0  0  0
  3 10  1  0  0  0  0
  4  5  1  0  0  0  0
  5  6  1  0  0  0  0
  7  8  2  0  0  0  0
  7 12  1  0  0  0  0
  8  9  1  0  0  0  0
  9 10  2  0  0  0  0
 10 11  1  0  0  0  0
 11 12  2  0  0  0  0
M  END
>  <CHROM.1>
-54.56810152,150.86158966,67.02331499,10.71545836,11.80654618,147.73146606
-2.62826298,-0.95671643,2.88459436

>  <Name>
ligand

>  <RI>
0

>  <Rbt.Current_Directory>
/home/itssahil/PROJECTS/Mol_Feturizer/New_Systems/rnas/4NYA

>  <Rbt.Executable>
rbdock ($Id: //depot/dev/client3/rdock/2013.1/src/exe/rbdock.cxx#4 $)

>  <Rbt.Library>
libRbt.so (2013.1, Build901 2013/11/27)

>  <Rbt.Parameter_File>
/export/apps/rDock/src/rDock_2013.1_src/data/scripts/dock_solv.prm

>  <Rbt.Receptor>
prm/pocket_docking_2.prm

>  <SCORE>
-11.3058

>  <SCORE.INTER>
-12.7892

>  <SCORE.INTER.CONST>
1

>  <SCORE.INTER.POLAR>
0

>  <SCORE.INTER.ROT>
3

>  <SCORE.INTER.SOLV>
10.2311

>  <SCORE.INTER.VDW>
-17.5365

>  <SCORE.INTER.norm>
-1.06577

>  <SCORE.INTRA>
1.4834

>  <SCORE.INTRA.DIHEDRAL>
-0.159035

>  <SCORE.INTRA.DIHEDRAL.0>
2.1382

>  <SCORE.INTRA.POLAR>
0

>  <SCORE.INTRA.POLAR.0>
0

>  <SCORE.INTRA.REPUL>
0

>  <SCORE.INTRA.REPUL.0>
0

>  <SCORE.INTRA.SOLV>
2.77831

>  <SCORE.INTRA.SOLV.lig_0>
-59.6513

>  <SCORE.INTRA.VDW>
0.173759

>  <SCORE.INTRA.VDW.0>
-0.569808

>  <SCORE.INTRA.norm>
0.123616

>  <SCORE.RESTR>
0

>  <SCORE.RESTR.CAVITY>
0

>  <SCORE.RESTR.norm>
0

>  <SCORE.SYSTEM>
0

>  <SCORE.SYSTEM.CONST>
0

>  <SCORE.SYSTEM.DIHEDRAL>
0

>  <SCORE.SYSTEM.SOLV>
0

>  <SCORE.SYSTEM.norm>
0

>  <SCORE.heavy>
12

>  <SCORE.norm>
-0.942151

>  <RMSD>
2.152

$$$$
ligand
 OpenBabel11021811503D
libRbt.so/2013.1/901 2013/11/27
 12 12  0  0  0  0  0  0  0  0999 V2000
   10.2696   13.5332  147.8945 C   0  0  0  0  0  0  0  0  0  0  0  0
   12.6700    9.0187  145.8394 C   0  0  0  0  0  0  0  0  0  0  0  0
    9.5333   11.0462  148.6854 N   0  0  0  0  0  0  0  0  0  0  0  0
   10.7359   13.5578  149.2889 N   0  0  0  0  0  0  0  0  0  0  0  0
   10.2447   14.3048  149.9697 N   0  0  0  0  0  0  0  0  0  0  0  0
    9.7564   15.0555  150.6452 N   0  0  0  0  0  0  0  0  0  0  0  0
   12.4548   11.3605  145.9170 N   0  0  0  0  0  0  0  0  0  0  0  0
   12.0639   10.1557  146.3596 C   0  0  0  0  0  0  0  0  0  0  0  0
   11.0504   10.0414  147.2296 N   0  0  0  0  0  0  0  0  0  0  0  0
   10.4045   11.1238  147.6837 C   0  0  0  0  0  0  0  0  0  0  0  0
   10.7610   12.3995  147.2583 C   0  0  0  0  0  0  0  0  0  0  0  0
   11.8033   12.5202  146.3498 C   0  0  0  0  0  0  0  0  0  0  0  0
  1 11  1  0  0  0  0
  1  4  1  0  0  0  0
  2  8  1  0  0  0  0
  3 10  1  0  0  0  0
  4  5  1  0  0  0  0
  5  6  1  0  0  0  0
  7  8  2  0  0  0  0
  7 12  1  0  0  0  0
  8  9  1  0  0  0  0
  9 10  2  0  0  0  0
 10 11  1  0  0  0  0
 11 12  2  0  0  0  0
M  END
>  <CHROM.1>
62.91744408,-167.97016636,-57.89551009,10.97584843,12.01368634,147.78983478
-2.13241113,-0.86850091,-2.88208425

>  <Name>
ligand

>  <RI>
0

>  <Rbt.Current_Directory>
/home/itssahil/PROJECTS/Mol_Feturizer/New_Systems/rnas/4NYA

>  <Rbt.Executable>
rbdock ($Id: //depot/dev/client3/rdock/2013.1/src/exe/rbdock.cxx#4 $)

>  <Rbt.Library>
libRbt.so (2013.1, Build901 2013/11/27)

>  <Rbt.Parameter_File>
/export/apps/rDock/src/rDock_2013.1_src/data/scripts/dock_solv.prm

>  <Rbt.Receptor>
prm/pocket_docking_3.prm

>  <SCORE>
-12.0978

>  <SCORE.INTER>
-12.4171

>  <SCORE.INTER.CONST>
1

>  <SCORE.INTER.POLAR>
0

>  <SCORE.INTER.ROT>
3

>  <SCORE.INTER.SOLV>
9.24597

>  <SCORE.INTER.VDW>
-16.9601

>  <SCORE.INTER.norm>
-1.03476

>  <SCORE.INTRA>
0.319363

>  <SCORE.INTRA.DIHEDRAL>
-0.570755

>  <SCORE.INTRA.DIHEDRAL.0>
2.1382

>  <SCORE.INTRA.POLAR>
0

>  <SCORE.INTRA.POLAR.0>
0

>  <SCORE.INTRA.REPUL>
0

>  <SCORE.INTRA.REPUL.0>
0

>  <SCORE.INTRA.SOLV>
1.31124

>  <SCORE.INTRA.SOLV.lig_0>
-59.6513

>  <SCORE.INTRA.VDW>
-0.0508816

>  <SCORE.INTRA.VDW.0>
-0.569808

>  <SCORE.INTRA.norm>
0.0266136

>  <SCORE.RESTR>
0

>  <SCORE.RESTR.CAVITY>
0

>  <SCORE.RESTR.norm>
0

>  <SCORE.SYSTEM>
0

>  <SCORE.SYSTEM.CONST>
0

>  <SCORE.SYSTEM.DIHEDRAL>
0

>  <SCORE.SYSTEM.SOLV>
0

>  <SCORE.SYSTEM.norm>
0

>  <SCORE.heavy>
12

>  <SCORE.norm>
-1.00815

>  <RMSD>
2.158

$$$$
ligand
 OpenBabel11021811503D
libRbt.so/2013.1/901 2013/11/27
 12 12  0  0  0  0  0  0  0  0999 V2000
   10.2765   13.5294  147.9012 C   0  0  0  0  0  0  0  0  0  0  0  0
   12.6810    9.0279  145.8225 C   0  0  0  0  0  0  0  0  0  0  0  0
    9.5222   11.0369  148.6571 N   0  0  0  0  0  0  0  0  0  0  0  0
   10.7354   13.5416  149.2982 N   0  0  0  0  0  0  0  0  0  0  0  0
   10.2693   14.3094  149.9734 N   0  0  0  0  0  0  0  0  0  0  0  0
    9.7986   15.0720  150.6482 N   0  0  0  0  0  0  0  0  0  0  0  0
   12.4742   11.3696  145.9233 N   0  0  0  0  0  0  0  0  0  0  0  0
   12.0739   10.1616  146.3486 C   0  0  0  0  0  0  0  0  0  0  0  0
   11.0508   10.0419  147.2066 N   0  0  0  0  0  0  0  0  0  0  0  0
   10.4043   11.1220  147.6656 C   0  0  0  0  0  0  0  0  0  0  0  0
   10.7703   12.4008  147.2579 C   0  0  0  0  0  0  0  0  0  0  0  0
   11.8226   12.5272  146.3619 C   0  0  0  0  0  0  0  0  0  0  0  0
  1 11  1  0  0  0  0
  1  4  1  0  0  0  0
  2  8  1  0  0  0  0
  3 10  1  0  0  0  0
  4  5  1  0  0  0  0
  5  6  1  0  0  0  0
  7  8  2  0  0  0  0
  7 12  1  0  0  0  0
  8  9  1  0  0  0  0
  9 10  2  0  0  0  0
 10 11  1  0  0  0  0
 11 12  2  0  0  0  0
M  END
>  <CHROM.1>
63.28992557,-170.22140940,81.27223447,10.98685431,12.01556910,147.78502388
-2.11534718,-0.85252356,-2.86073881

>  <Name>
ligand

>  <RI>
0

>  <Rbt.Current_Directory>
/home/itssahil/PROJECTS/Mol_Feturizer/New_Systems/rnas/4NYA

>  <Rbt.Executable>
rbdock ($Id: //depot/dev/client3/rdock/2013.1/src/exe/rbdock.cxx#4 $)

>  <Rbt.Library>
libRbt.so (2013.1, Build901 2013/11/27)

>  <Rbt.Parameter_File>
/export/apps/rDock/src/rDock_2013.1_src/data/scripts/dock_solv.prm

>  <Rbt.Receptor>
prm/pocket_docking_3.prm

>  <SCORE>
-12.0323

>  <SCORE.INTER>
-12.3512

>  <SCORE.INTER.CONST>
1

>  <SCORE.INTER.POLAR>
0

>  <SCORE.INTER.ROT>
3

>  <SCORE.INTER.SOLV>
9.37502

>  <SCORE.INTER.VDW>
-16.9591

>  <SCORE.INTER.norm>
-1.02926

>  <SCORE.INTRA>
0.318894

>  <SCORE.INTRA.DIHEDRAL>
-0.507318

>  <SCORE.INTRA.DIHEDRAL.0>
2.1382

>  <SCORE.INTRA.POLAR>
0

>  <SCORE.INTRA.POLAR.0>
0

>  <SCORE.INTRA.REPUL>
0

>  <SCORE.INTRA.REPUL.0>
0

>  <SCORE.INTRA.SOLV>
1.24867

>  <SCORE.INTRA.SOLV.lig_0>
-59.6513

>  <SCORE.INTRA.VDW>
-0.0517834

>  <SCORE.INTRA.VDW.0>
-0.569808

>  <SCORE.INTRA.norm>
0.0265745

>  <SCORE.RESTR>
0

>  <SCORE.RESTR.CAVITY>
0

>  <SCORE.RESTR.norm>
0

>  <SCORE.SYSTEM>
0

>  <SCORE.SYSTEM.CONST>
0

>  <SCORE.SYSTEM.DIHEDRAL>
0

>  <SCORE.SYSTEM.SOLV>
0

>  <SCORE.SYSTEM.norm>
0

>  <SCORE.heavy>
12

>  <SCORE.norm>
-1.00269

>  <RMSD>
2.162

$$$$
ligand
 OpenBabel11021811503D
libRbt.so/2013.1/901 2013/11/27
 12 12  0  0  0  0  0  0  0  0999 V2000
   10.5781   13.1419  148.1928 C   0  0  0  0  0  0  0  0  0  0  0  0
   12.7613    8.8177  145.5656 C   0  0  0  0  0  0  0  0  0  0  0  0
   10.7403   10.7009  149.3627 N   0  0  0  0  0  0  0  0  0  0  0  0
    9.2575   12.8977  148.7916 N   0  0  0  0  0  0  0  0  0  0  0  0
    8.9294   13.6134  149.5934 N   0  0  0  0  0  0  0  0  0  0  0  0
    8.6023   14.3329  150.3894 N   0  0  0  0  0  0  0  0  0  0  0  0
   12.1386   11.0866  145.5952 N   0  0  0  0  0  0  0  0  0  0  0  0
   12.2112    9.9069  146.2302 C   0  0  0  0  0  0  0  0  0  0  0  0
   11.6900    9.7557  147.4561 N   0  0  0  0  0  0  0  0  0  0  0  0
   11.0880   10.7764  148.0814 C   0  0  0  0  0  0  0  0  0  0  0  0
   10.9778   12.0225  147.4726 C   0  0  0  0  0  0  0  0  0  0  0  0
   11.5076   12.1792  146.1994 C   0  0  0  0  0  0  0  0  0  0  0  0
  1 11  1  0  0  0  0
  1  4  1  0  0  0  0
  2  8  1  0  0  0  0
  3 10  1  0  0  0  0
  4  5  1  0  0  0  0
  5  6  1  0  0  0  0
  7  8  2  0  0  0  0
  7 12  1  0  0  0  0
  8  9  1  0  0  0  0
  9 10  2  0  0  0  0
 10 11  1  0  0  0  0
 11 12  2  0  0  0  0
M  END
>  <CHROM.1>
-57.80868482,165.74427600,60.91724653,10.85713098,11.60397023,147.76745333
-3.00008118,-1.01363993,2.48930605

>  <Name>
ligand

>  <RI>
0

>  <Rbt.Current_Directory>
/home/itssahil/PROJECTS/Mol_Feturizer/New_Systems/rnas/4NYA

>  <Rbt.Executable>
rbdock ($Id: //depot/dev/client3/rdock/2013.1/src/exe/rbdock.cxx#4 $)

>  <Rbt.Library>
libRbt.so (2013.1, Build901 2013/11/27)

>  <Rbt.Parameter_File>
/export/apps/rDock/src/rDock_2013.1_src/data/scripts/dock_solv.prm

>  <Rbt.Receptor>
prm/pocket_docking_6.prm

>  <SCORE>
-11.6632

>  <SCORE.INTER>
-12.4208

>  <SCORE.INTER.CONST>
1

>  <SCORE.INTER.POLAR>
0

>  <SCORE.INTER.ROT>
3

>  <SCORE.INTER.SOLV>
11.537

>  <SCORE.INTER.VDW>
-17.7262

>  <SCORE.INTER.norm>
-1.03507

>  <SCORE.INTRA>
0.75756

>  <SCORE.INTRA.DIHEDRAL>
-0.509748

>  <SCORE.INTRA.DIHEDRAL.0>
2.1382

>  <SCORE.INTRA.POLAR>
0

>  <SCORE.INTRA.POLAR.0>
0

>  <SCORE.INTRA.REPUL>
0

>  <SCORE.INTRA.REPUL.0>
0

>  <SCORE.INTRA.SOLV>
1.75612

>  <SCORE.INTRA.SOLV.lig_0>
-59.6513

>  <SCORE.INTRA.VDW>
0.134373

>  <SCORE.INTRA.VDW.0>
-0.569808

>  <SCORE.INTRA.norm>
0.06313

>  <SCORE.RESTR>
0

>  <SCORE.RESTR.CAVITY>
0

>  <SCORE.RESTR.norm>
0

>  <SCORE.SYSTEM>
0

>  <SCORE.SYSTEM.CONST>
0

>  <SCORE.SYSTEM.DIHEDRAL>
0

>  <SCORE.SYSTEM.SOLV>
0

>  <SCORE.SYSTEM.norm>
0

>  <SCORE.heavy>
12

>  <SCORE.norm>
-0.971937

>  <RMSD>
2.175

$$$$
ligand
 OpenBabel11021811503D
libRbt.so/2013.1/901 2013/11/27
 12 12  0  0  0  0  0  0  0  0999 V2000
   10.5848   13.1414  148.1765 C   0  0  0  0  0  0  0  0  0  0  0  0
   12.7728    8.8085  145.5678 C   0  0  0  0  0  0  0  0  0  0  0  0
   10.8321   10.7283  149.3884 N   0  0  0  0  0  0  0  0  0  0  0  0
    9.2669   12.9001  148.7825 N   0  0  0  0  0  0  0  0  0  0  0  0
    8.9397   13.6236  149.5777 N   0  0  0  0  0  0  0  0  0  0  0  0
    8.6073   14.3422  150.3723 N   0  0  0  0  0  0  0  0  0  0  0  0
   12.1057   11.0649  145.5723 N   0  0  0  0  0  0  0  0  0  0  0  0
   12.2216    9.8999  146.2278 C   0  0  0  0  0  0  0  0  0  0  0  0
   11.7415    9.7634  147.4721 N   0  0  0  0  0  0  0  0  0  0  0  0
   11.1386   10.7846  148.0957 C   0  0  0  0  0  0  0  0  0  0  0  0
   10.9847   12.0157  147.4662 C   0  0  0  0  0  0  0  0  0  0  0  0
   11.4716   12.1569  146.1743 C   0  0  0  0  0  0  0  0  0  0  0  0
  1 11  1  0  0  0  0
  1  4  1  0  0  0  0
  2  8  1  0  0  0  0
  3 10  1  0  0  0  0
  4  5  1  0  0  0  0
  5  6  1  0  0  0  0
  7  8  2  0  0  0  0
  7 12  1  0  0  0  0
  8  9  1  0  0  0  0
  9 10  2  0  0  0  0
 10 11  1  0  0  0  0
 11 12  2  0  0  0  0
M  END
>  <CHROM.1>
-59.75194422,165.78511307,-178.34880823,10.87292676,11.60404858,147.76275235
-3.06750587,-1.01911730,2.40528003

>  <Name>
ligand

>  <RI>
0

>  <Rbt.Current_Directory>
/home/itssahil/PROJECTS/Mol_Feturizer/New_Systems/rnas/4NYA

>  <Rbt.Executable>
rbdock ($Id: //depot/dev/client3/rdock/2013.1/src/exe/rbdock.cxx#4 $)

>  <Rbt.Library>
libRbt.so (2013.1, Build901 2013/11/27)

>  <Rbt.Parameter_File>
/export/apps/rDock/src/rDock_2013.1_src/data/scripts/dock_solv.prm

>  <Rbt.Receptor>
prm/pocket_docking_3.prm

>  <SCORE>
-11.6869

>  <SCORE.INTER>
-12.3593

>  <SCORE.INTER.CONST>
1

>  <SCORE.INTER.POLAR>
0

>  <SCORE.INTER.ROT>
3

>  <SCORE.INTER.SOLV>
11.8499

>  <SCORE.INTER.VDW>
-17.7895

>  <SCORE.INTER.norm>
-1.02994

>  <SCORE.INTRA>
0.672473

>  <SCORE.INTRA.DIHEDRAL>
-0.461564

>  <SCORE.INTRA.DIHEDRAL.0>
2.1382

>  <SCORE.INTRA.POLAR>
0

>  <SCORE.INTRA.POLAR.0>
0

>  <SCORE.INTRA.REPUL>
0

>  <SCORE.INTRA.REPUL.0>
0

>  <SCORE.INTRA.SOLV>
1.6318

>  <SCORE.INTRA.SOLV.lig_0>
-59.6513

>  <SCORE.INTRA.VDW>
0.0873542

>  <SCORE.INTRA.VDW.0>
-0.569808

>  <SCORE.INTRA.norm>
0.0560394

>  <SCORE.RESTR>
0

>  <SCORE.RESTR.CAVITY>
0

>  <SCORE.RESTR.norm>
0

>  <SCORE.SYSTEM>
0

>  <SCORE.SYSTEM.CONST>
0

>  <SCORE.SYSTEM.DIHEDRAL>
0

>  <SCORE.SYSTEM.SOLV>
0

>  <SCORE.SYSTEM.norm>
0

>  <SCORE.heavy>
12

>  <SCORE.norm>
-0.973904

>  <RMSD>
2.176

$$$$
ligand
 OpenBabel11021811503D
libRbt.so/2013.1/901 2013/11/27
 12 12  0  0  0  0  0  0  0  0999 V2000
   10.5699   13.1272  148.1790 C   0  0  0  0  0  0  0  0  0  0  0  0
   12.7788    8.8060  145.5684 C   0  0  0  0  0  0  0  0  0  0  0  0
   10.7834   10.7018  149.3727 N   0  0  0  0  0  0  0  0  0  0  0  0
    9.2584   12.8730  148.7935 N   0  0  0  0  0  0  0  0  0  0  0  0
    8.9217   13.6030  149.5787 N   0  0  0  0  0  0  0  0  0  0  0  0
    8.5912   14.3304  150.3661 N   0  0  0  0  0  0  0  0  0  0  0  0
   12.1239   11.0660  145.5822 N   0  0  0  0  0  0  0  0  0  0  0  0
   12.2222    9.8945  146.2288 C   0  0  0  0  0  0  0  0  0  0  0  0
   11.7202    9.7494  147.4634 N   0  0  0  0  0  0  0  0  0  0  0  0
   11.1122   10.7681  148.0860 C   0  0  0  0  0  0  0  0  0  0  0  0
   10.9758   12.0058  147.4654 C   0  0  0  0  0  0  0  0  0  0  0  0
   11.4856   12.1560  146.1833 C   0  0  0  0  0  0  0  0  0  0  0  0
  1 11  1  0  0  0  0
  1  4  1  0  0  0  0
  2  8  1  0  0  0  0
  3 10  1  0  0  0  0
  4  5  1  0  0  0  0
  5  6  1  0  0  0  0
  7  8  2  0  0  0  0
  7 12  1  0  0  0  0
  8  9  1  0  0  0  0
  9 10  2  0  0  0  0
 10 11  1  0  0  0  0
 11 12  2  0  0  0  0
M  END
>  <CHROM.1>
-58.07139352,166.81131619,-57.60744696,10.86243326,11.59155856,147.76223752
-3.03572470,-1.01366595,2.44484940

>  <Name>
ligand

>  <RI>
0

>  <Rbt.Current_Directory>
/home/itssahil/PROJECTS/Mol_Feturizer/New_Systems/rnas/4NYA

>  <Rbt.Executable>
rbdock ($Id: //depot/dev/client3/rdock/2013.1/src/exe/rbdock.cxx#4 $)

>  <Rbt.Library>
libRbt.so (2013.1, Build901 2013/11/27)

>  <Rbt.Parameter_File>
/export/apps/rDock/src/rDock_2013.1_src/data/scripts/dock_solv.prm

>  <Rbt.Receptor>
prm/pocket_docking_3.prm

>  <SCORE>
-11.6549

>  <SCORE.INTER>
-12.3705

>  <SCORE.INTER.CONST>
1

>  <SCORE.INTER.POLAR>
0

>  <SCORE.INTER.ROT>
3

>  <SCORE.INTER.SOLV>
11.7609

>  <SCORE.INTER.VDW>
-17.7673

>  <SCORE.INTER.norm>
-1.03088

>  <SCORE.INTRA>
0.715664

>  <SCORE.INTRA.DIHEDRAL>
-0.524029

>  <SCORE.INTRA.DIHEDRAL.0>
2.1382

>  <SCORE.INTRA.POLAR>
0

>  <SCORE.INTRA.POLAR.0>
0

>  <SCORE.INTRA.REPUL>
0

>  <SCORE.INTRA.REPUL.0>
0

>  <SCORE.INTRA.SOLV>
1.6958

>  <SCORE.INTRA.SOLV.lig_0>
-59.6513

>  <SCORE.INTRA.VDW>
0.12978

>  <SCORE.INTRA.VDW.0>
-0.569808

>  <SCORE.INTRA.norm>
0.0596387

>  <SCORE.RESTR>
0

>  <SCORE.RESTR.CAVITY>
0

>  <SCORE.RESTR.norm>
0

>  <SCORE.SYSTEM>
0

>  <SCORE.SYSTEM.CONST>
0

>  <SCORE.SYSTEM.DIHEDRAL>
0

>  <SCORE.SYSTEM.SOLV>
0

>  <SCORE.SYSTEM.norm>
0

>  <SCORE.heavy>
12

>  <SCORE.norm>
-0.971238

>  <RMSD>
2.178

$$$$
ligand
 OpenBabel11021811503D
libRbt.so/2013.1/901 2013/11/27
 12 12  0  0  0  0  0  0  0  0999 V2000
   10.5890   13.1709  148.1040 C   0  0  0  0  0  0  0  0  0  0  0  0
   12.8030    8.8168  145.5532 C   0  0  0  0  0  0  0  0  0  0  0  0
   10.7884   10.7576  149.3246 N   0  0  0  0  0  0  0  0  0  0  0  0
    9.2338   12.9609  148.6346 N   0  0  0  0  0  0  0  0  0  0  0  0
    8.9173   13.6274  149.4821 N   0  0  0  0  0  0  0  0  0  0  0  0
    8.6006   14.2980  150.3238 N   0  0  0  0  0  0  0  0  0  0  0  0
   12.1540   11.0784  145.5391 N   0  0  0  0  0  0  0  0  0  0  0  0
   12.2451    9.9136  146.1986 C   0  0  0  0  0  0  0  0  0  0  0  0
   11.7349    9.7828  147.4314 N   0  0  0  0  0  0  0  0  0  0  0  0
   11.1257   10.8096  148.0394 C   0  0  0  0  0  0  0  0  0  0  0  0
   10.9964   12.0409  147.4049 C   0  0  0  0  0  0  0  0  0  0  0  0
   11.5148   12.1763  146.1246 C   0  0  0  0  0  0  0  0  0  0  0  0
  1 11  1  0  0  0  0
  1  4  1  0  0  0  0
  2  8  1  0  0  0  0
  3 10  1  0  0  0  0
  4  5  1  0  0  0  0
  5  6  1  0  0  0  0
  7  8  2  0  0  0  0
  7 12  1  0  0  0  0
  8  9  1  0  0  0  0
  9 10  2  0  0  0  0
 10 11  1  0  0  0  0
 11 12  2  0  0  0  0
M  END
>  <CHROM.1>
-61.95916257,160.48275067,74.68702339,10.87540530,11.62079160,147.70305979
-3.04068674,-1.00730967,2.43251341

>  <Name>
ligand

>  <RI>
0

>  <Rbt.Current_Directory>
/home/itssahil/PROJECTS/Mol_Feturizer/New_Systems/rnas/4NYA

>  <Rbt.Executable>
rbdock ($Id: //depot/dev/client3/rdock/2013.1/src/exe/rbdock.cxx#4 $)

>  <Rbt.Library>
libRbt.so (2013.1, Build901 2013/11/27)

>  <Rbt.Parameter_File>
/export/apps/rDock/src/rDock_2013.1_src/data/scripts/dock_solv.prm

>  <Rbt.Receptor>
prm/pocket_docking_3.prm

>  <SCORE>
-11.5376

>  <SCORE.INTER>
-12.3322

>  <SCORE.INTER.CONST>
1

>  <SCORE.INTER.POLAR>
0

>  <SCORE.INTER.ROT>
3

>  <SCORE.INTER.SOLV>
12.1709

>  <SCORE.INTER.VDW>
-17.8784

>  <SCORE.INTER.norm>
-1.02768

>  <SCORE.INTRA>
0.794562

>  <SCORE.INTRA.DIHEDRAL>
-0.220582

>  <SCORE.INTRA.DIHEDRAL.0>
2.1382

>  <SCORE.INTRA.POLAR>
0

>  <SCORE.INTRA.POLAR.0>
0

>  <SCORE.INTRA.REPUL>
0

>  <SCORE.INTRA.REPUL.0>
0

>  <SCORE.INTRA.SOLV>
1.77428

>  <SCORE.INTRA.SOLV.lig_0>
-59.6513

>  <SCORE.INTRA.VDW>
0.0177131

>  <SCORE.INTRA.VDW.0>
-0.569808

>  <SCORE.INTRA.norm>
0.0662135

>  <SCORE.RESTR>
0

>  <SCORE.RESTR.CAVITY>
0

>  <SCORE.RESTR.norm>
0

>  <SCORE.SYSTEM>
0

>  <SCORE.SYSTEM.CONST>
0

>  <SCORE.SYSTEM.DIHEDRAL>
0

>  <SCORE.SYSTEM.SOLV>
0

>  <SCORE.SYSTEM.norm>
0

>  <SCORE.heavy>
12

>  <SCORE.norm>
-0.961468

>  <RMSD>
2.181

$$$$
ligand
 OpenBabel11021811503D
libRbt.so/2013.1/901 2013/11/27
 12 12  0  0  0  0  0  0  0  0999 V2000
   10.6250   13.2663  148.0373 C   0  0  0  0  0  0  0  0  0  0  0  0
   12.6897    8.7428  145.6621 C   0  0  0  0  0  0  0  0  0  0  0  0
   10.7530   10.9003  149.3558 N   0  0  0  0  0  0  0  0  0  0  0  0
    9.3124   13.0833  148.6745 N   0  0  0  0  0  0  0  0  0  0  0  0
    9.0446   13.8083  149.4902 N   0  0  0  0  0  0  0  0  0  0  0  0
    8.7772   14.5371  150.2999 N   0  0  0  0  0  0  0  0  0  0  0  0
   12.1125   11.0215  145.5565 N   0  0  0  0  0  0  0  0  0  0  0  0
   12.1694    9.8824  146.2632 C   0  0  0  0  0  0  0  0  0  0  0  0
   11.6604    9.8187  147.5018 N   0  0  0  0  0  0  0  0  0  0  0  0
   11.0864   10.8885  148.0686 C   0  0  0  0  0  0  0  0  0  0  0  0
   10.9936   12.0962  147.3842 C   0  0  0  0  0  0  0  0  0  0  0  0
   11.5107   12.1623  146.0980 C   0  0  0  0  0  0  0  0  0  0  0  0
  1 11  1  0  0  0  0
  1  4  1  0  0  0  0
  2  8  1  0  0  0  0
  3 10  1  0  0  0  0
  4  5  1  0  0  0  0
  5  6  1  0  0  0  0
  7  8  2  0  0  0  0
  7 12  1  0  0  0  0
  8  9  1  0  0  0  0
  9 10  2  0  0  0  0
 10 11  1  0  0  0  0
 11 12  2  0  0  0  0
M  END
>  <CHROM.1>
-57.32258659,161.16053644,64.76354304,10.87896473,11.68654717,147.72334746
-2.99622539,-1.04286230,2.44423714

>  <Name>
ligand

>  <RI>
0

>  <Rbt.Current_Directory>
/home/itssahil/PROJECTS/Mol_Feturizer/New_Systems/rnas/4NYA

>  <Rbt.Executable>
rbdock ($Id: //depot/dev/client3/rdock/2013.1/src/exe/rbdock.cxx#4 $)

>  <Rbt.Library>
libRbt.so (2013.1, Build901 2013/11/27)

>  <Rbt.Parameter_File>
/export/apps/rDock/src/rDock_2013.1_src/data/scripts/dock_solv.prm

>  <Rbt.Receptor>
prm/pocket_docking_3.prm

>  <SCORE>
-11.6821

>  <SCORE.INTER>
-12.6123

>  <SCORE.INTER.CONST>
1

>  <SCORE.INTER.POLAR>
0

>  <SCORE.INTER.ROT>
3

>  <SCORE.INTER.SOLV>
11.364

>  <SCORE.INTER.VDW>
-17.7962

>  <SCORE.INTER.norm>
-1.05103

>  <SCORE.INTRA>
0.930211

>  <SCORE.INTRA.DIHEDRAL>
-0.406139

>  <SCORE.INTRA.DIHEDRAL.0>
2.1382

>  <SCORE.INTRA.POLAR>
0

>  <SCORE.INTRA.POLAR.0>
0

>  <SCORE.INTRA.REPUL>
0

>  <SCORE.INTRA.REPUL.0>
0

>  <SCORE.INTRA.SOLV>
2.02774

>  <SCORE.INTRA.SOLV.lig_0>
-59.6513

>  <SCORE.INTRA.VDW>
0.11941

>  <SCORE.INTRA.VDW.0>
-0.569808

>  <SCORE.INTRA.norm>
0.0775176

>  <SCORE.RESTR>
0

>  <SCORE.RESTR.CAVITY>
0

>  <SCORE.RESTR.norm>
0

>  <SCORE.SYSTEM>
0

>  <SCORE.SYSTEM.CONST>
0

>  <SCORE.SYSTEM.DIHEDRAL>
0

>  <SCORE.SYSTEM.SOLV>
0

>  <SCORE.SYSTEM.norm>
0

>  <SCORE.heavy>
12

>  <SCORE.norm>
-0.973509

>  <RMSD>
2.181

$$$$
ligand
 OpenBabel11021811503D
libRbt.so/2013.1/901 2013/11/27
 12 12  0  0  0  0  0  0  0  0999 V2000
   10.5930   13.1465  148.1866 C   0  0  0  0  0  0  0  0  0  0  0  0
   12.7457    8.8103  145.5542 C   0  0  0  0  0  0  0  0  0  0  0  0
   10.7967   10.7183  149.3764 N   0  0  0  0  0  0  0  0  0  0  0  0
    9.2650   12.9186  148.7755 N   0  0  0  0  0  0  0  0  0  0  0  0
    8.9331   13.6478  149.5634 N   0  0  0  0  0  0  0  0  0  0  0  0
    8.6020   14.3808  150.3454 N   0  0  0  0  0  0  0  0  0  0  0  0
   12.1091   11.0754  145.5753 N   0  0  0  0  0  0  0  0  0  0  0  0
   12.2033    9.9026  146.2201 C   0  0  0  0  0  0  0  0  0  0  0  0
   11.7103    9.7603  147.4586 N   0  0  0  0  0  0  0  0  0  0  0  0
   11.1156   10.7833  148.0871 C   0  0  0  0  0  0  0  0  0  0  0  0
   10.9840   12.0225  147.4687 C   0  0  0  0  0  0  0  0  0  0  0  0
   11.4845   12.1699  146.1826 C   0  0  0  0  0  0  0  0  0  0  0  0
  1 11  1  0  0  0  0
  1  4  1  0  0  0  0
  2  8  1  0  0  0  0
  3 10  1  0  0  0  0
  4  5  1  0  0  0  0
  5  6  1  0  0  0  0
  7  8  2  0  0  0  0
  7 12  1  0  0  0  0
  8  9  1  0  0  0  0
  9 10  2  0  0  0  0
 10 11  1  0  0  0  0
 11 12  2  0  0  0  0
M  END
>  <CHROM.1>
-59.89830466,166.70894632,61.48810244,10.86224263,11.61307990,147.75580141
-3.03352408,-1.02006222,2.44045691

>  <Name>
ligand

>  <RI>
0

>  <Rbt.Current_Directory>
/home/itssahil/PROJECTS/Mol_Feturizer/New_Systems/rnas/4NYA

>  <Rbt.Executable>
rbdock ($Id: //depot/dev/client3/rdock/2013.1/src/exe/rbdock.cxx#4 $)

>  <Rbt.Library>
libRbt.so (2013.1, Build901 2013/11/27)

>  <Rbt.Parameter_File>
/export/apps/rDock/src/rDock_2013.1_src/data/scripts/dock_solv.prm

>  <Rbt.Receptor>
prm/pocket_docking_3.prm

>  <SCORE>
-11.6471

>  <SCORE.INTER>
-12.2834

>  <SCORE.INTER.CONST>
1

>  <SCORE.INTER.POLAR>
0

>  <SCORE.INTER.ROT>
3

>  <SCORE.INTER.SOLV>
11.8609

>  <SCORE.INTER.VDW>
-17.7425

>  <SCORE.INTER.norm>
-1.02361

>  <SCORE.INTRA>
0.6363

>  <SCORE.INTRA.DIHEDRAL>
-0.477112

>  <SCORE.INTRA.DIHEDRAL.0>
2.1382

>  <SCORE.INTRA.POLAR>
0

>  <SCORE.INTRA.POLAR.0>
0

>  <SCORE.INTRA.REPUL>
0

>  <SCORE.INTRA.REPUL.0>
0

>  <SCORE.INTRA.SOLV>
1.57421

>  <SCORE.INTRA.SOLV.lig_0>
-59.6513

>  <SCORE.INTRA.VDW>
0.087749

>  <SCORE.INTRA.VDW.0>
-0.569808

>  <SCORE.INTRA.norm>
0.053025

>  <SCORE.RESTR>
0

>  <SCORE.RESTR.CAVITY>
0

>  <SCORE.RESTR.norm>
0

>  <SCORE.SYSTEM>
0

>  <SCORE.SYSTEM.CONST>
0

>  <SCORE.SYSTEM.DIHEDRAL>
0

>  <SCORE.SYSTEM.SOLV>
0

>  <SCORE.SYSTEM.norm>
0

>  <SCORE.heavy>
12

>  <SCORE.norm>
-0.970589

>  <RMSD>
2.182

$$$$
ligand
 OpenBabel11021811503D
libRbt.so/2013.1/901 2013/11/27
 12 12  0  0  0  0  0  0  0  0999 V2000
   10.2676   13.5332  147.8887 C   0  0  0  0  0  0  0  0  0  0  0  0
   12.6795    9.0306  145.8207 C   0  0  0  0  0  0  0  0  0  0  0  0
    9.5595   11.0431  148.6955 N   0  0  0  0  0  0  0  0  0  0  0  0
   10.7205   13.5476  149.2876 N   0  0  0  0  0  0  0  0  0  0  0  0
   10.2998   14.3573  149.9434 N   0  0  0  0  0  0  0  0  0  0  0  0
    9.8820   15.1703  150.5938 N   0  0  0  0  0  0  0  0  0  0  0  0
   12.4472   11.3710  145.8934 N   0  0  0  0  0  0  0  0  0  0  0  0
   12.0706   10.1647  146.3441 C   0  0  0  0  0  0  0  0  0  0  0  0
   11.0678   10.0454  147.2259 N   0  0  0  0  0  0  0  0  0  0  0  0
   10.4187   11.1243  147.6839 C   0  0  0  0  0  0  0  0  0  0  0  0
   10.7606   12.4013  147.2505 C   0  0  0  0  0  0  0  0  0  0  0  0
   11.7916   12.5271  146.3300 C   0  0  0  0  0  0  0  0  0  0  0  0
  1 11  1  0  0  0  0
  1  4  1  0  0  0  0
  2  8  1  0  0  0  0
  3 10  1  0  0  0  0
  4  5  1  0  0  0  0
  5  6  1  0  0  0  0
  7  8  2  0  0  0  0
  7 12  1  0  0  0  0
  8  9  1  0  0  0  0
  9 10  2  0  0  0  0
 10 11  1  0  0  0  0
 11 12  2  0  0  0  0
M  END
>  <CHROM.1>
61.44816447,-173.74662928,-55.35756494,10.99471644,12.03078062,147.77601418
-2.11654428,-0.87497635,-2.87933658

>  <Name>
ligand

>  <RI>
0

>  <Rbt.Current_Directory>
/home/itssahil/PROJECTS/Mol_Feturizer/New_Systems/rnas/4NYA

>  <Rbt.Executable>
rbdock ($Id: //depot/dev/client3/rdock/2013.1/src/exe/rbdock.cxx#4 $)

>  <Rbt.Library>
libRbt.so (2013.1, Build901 2013/11/27)

>  <Rbt.Parameter_File>
/export/apps/rDock/src/rDock_2013.1_src/data/scripts/dock_solv.prm

>  <Rbt.Receptor>
prm/pocket_docking_7.prm

>  <SCORE>
-12.1067

>  <SCORE.INTER>
-12.4136

>  <SCORE.INTER.CONST>
1

>  <SCORE.INTER.POLAR>
0

>  <SCORE.INTER.ROT>
3

>  <SCORE.INTER.SOLV>
9.30438

>  <SCORE.INTER.VDW>
-16.9772

>  <SCORE.INTER.norm>
-1.03447

>  <SCORE.INTRA>
0.306851

>  <SCORE.INTRA.DIHEDRAL>
-0.613421

>  <SCORE.INTRA.DIHEDRAL.0>
2.1382

>  <SCORE.INTRA.POLAR>
0

>  <SCORE.INTRA.POLAR.0>
0

>  <SCORE.INTRA.REPUL>
0

>  <SCORE.INTRA.REPUL.0>
0

>  <SCORE.INTRA.SOLV>
1.27106

>  <SCORE.INTRA.SOLV.lig_0>
-59.6513

>  <SCORE.INTRA.VDW>
-0.021968

>  <SCORE.INTRA.VDW.0>
-0.569808

>  <SCORE.INTRA.norm>
0.0255709

>  <SCORE.RESTR>
0

>  <SCORE.RESTR.CAVITY>
0

>  <SCORE.RESTR.norm>
0

>  <SCORE.SYSTEM>
0

>  <SCORE.SYSTEM.CONST>
0

>  <SCORE.SYSTEM.DIHEDRAL>
0

>  <SCORE.SYSTEM.SOLV>
0

>  <SCORE.SYSTEM.norm>
0

>  <SCORE.heavy>
12

>  <SCORE.norm>
-1.0089

>  <RMSD>
2.184

$$$$
ligand
 OpenBabel11021811503D
libRbt.so/2013.1/901 2013/11/27
 12 12  0  0  0  0  0  0  0  0999 V2000
   10.6166   13.2210  148.0362 C   0  0  0  0  0  0  0  0  0  0  0  0
   12.6966    8.7212  145.6295 C   0  0  0  0  0  0  0  0  0  0  0  0
   10.7757   10.8523  149.3466 N   0  0  0  0  0  0  0  0  0  0  0  0
    9.3088   13.0273  148.6799 N   0  0  0  0  0  0  0  0  0  0  0  0
    9.0326   13.7593  149.4864 N   0  0  0  0  0  0  0  0  0  0  0  0
    8.7511   14.4866  150.2928 N   0  0  0  0  0  0  0  0  0  0  0  0
   12.1000   10.9954  145.5356 N   0  0  0  0  0  0  0  0  0  0  0  0
   12.1725    9.8549  146.2385 C   0  0  0  0  0  0  0  0  0  0  0  0
   11.6751    9.7835  147.4814 N   0  0  0  0  0  0  0  0  0  0  0  0
   11.0976   10.8470  148.0564 C   0  0  0  0  0  0  0  0  0  0  0  0
   10.9888   12.0558  147.3764 C   0  0  0  0  0  0  0  0  0  0  0  0
   11.4938   12.1297  146.0858 C   0  0  0  0  0  0  0  0  0  0  0  0
  1 11  1  0  0  0  0
  1  4  1  0  0  0  0
  2  8  1  0  0  0  0
  3 10  1  0  0  0  0
  4  5  1  0  0  0  0
  5  6  1  0  0  0  0
  7  8  2  0  0  0  0
  7 12  1  0  0  0  0
  8  9  1  0  0  0  0
  9 10  2  0  0  0  0
 10 11  1  0  0  0  0
 11 12  2  0  0  0  0
M  END
>  <CHROM.1>
-57.55182610,162.29594675,-175.88874401,10.87687002,11.64698532,147.71110002
-3.01764685,-1.04188158,2.42536844

>  <Name>
ligand

>  <RI>
0

>  <Rbt.Current_Directory>
/home/itssahil/PROJECTS/Mol_Feturizer/New_Systems/rnas/4NYA

>  <Rbt.Executable>
rbdock ($Id: //depot/dev/client3/rdock/2013.1/src/exe/rbdock.cxx#4 $)

>  <Rbt.Library>
libRbt.so (2013.1, Build901 2013/11/27)

>  <Rbt.Parameter_File>
/export/apps/rDock/src/rDock_2013.1_src/data/scripts/dock_solv.prm

>  <Rbt.Receptor>
prm/pocket_docking_3.prm

>  <SCORE>
-11.6858

>  <SCORE.INTER>
-12.5619

>  <SCORE.INTER.CONST>
1

>  <SCORE.INTER.POLAR>
0

>  <SCORE.INTER.ROT>
3

>  <SCORE.INTER.SOLV>
11.5143

>  <SCORE.INTER.VDW>
-17.8127

>  <SCORE.INTER.norm>
-1.04683

>  <SCORE.INTRA>
0.876106

>  <SCORE.INTRA.DIHEDRAL>
-0.431304

>  <SCORE.INTRA.DIHEDRAL.0>
2.1382

>  <SCORE.INTRA.POLAR>
0

>  <SCORE.INTRA.POLAR.0>
0

>  <SCORE.INTRA.REPUL>
0

>  <SCORE.INTRA.REPUL.0>
0

>  <SCORE.INTRA.SOLV>
1.95398

>  <SCORE.INTRA.SOLV.lig_0>
-59.6513

>  <SCORE.INTRA.VDW>
0.114769

>  <SCORE.INTRA.VDW.0>
-0.569808

>  <SCORE.INTRA.norm>
0.0730088

>  <SCORE.RESTR>
0

>  <SCORE.RESTR.CAVITY>
0

>  <SCORE.RESTR.norm>
0

>  <SCORE.SYSTEM>
0

>  <SCORE.SYSTEM.CONST>
0

>  <SCORE.SYSTEM.DIHEDRAL>
0

>  <SCORE.SYSTEM.SOLV>
0

>  <SCORE.SYSTEM.norm>
0

>  <SCORE.heavy>
12

>  <SCORE.norm>
-0.973818

>  <RMSD>
2.185

$$$$
ligand
 OpenBabel11021811503D
libRbt.so/2013.1/901 2013/11/27
 12 12  0  0  0  0  0  0  0  0999 V2000
   10.6166   13.2076  148.1428 C   0  0  0  0  0  0  0  0  0  0  0  0
   12.6742    8.7642  145.6152 C   0  0  0  0  0  0  0  0  0  0  0  0
   10.6344   10.7732  149.3370 N   0  0  0  0  0  0  0  0  0  0  0  0
    9.2789   13.0207  148.7241 N   0  0  0  0  0  0  0  0  0  0  0  0
    8.9739   13.7463  149.5261 N   0  0  0  0  0  0  0  0  0  0  0  0
    8.6750   14.4691  150.3302 N   0  0  0  0  0  0  0  0  0  0  0  0
   12.1547   11.0591  145.6081 N   0  0  0  0  0  0  0  0  0  0  0  0
   12.1556    9.8835  146.2547 C   0  0  0  0  0  0  0  0  0  0  0  0
   11.5936    9.7678  147.4663 N   0  0  0  0  0  0  0  0  0  0  0  0
   11.0212   10.8206  148.0657 C   0  0  0  0  0  0  0  0  0  0  0  0
   10.9852   12.0645  147.4436 C   0  0  0  0  0  0  0  0  0  0  0  0
   11.5573   12.1848  146.1848 C   0  0  0  0  0  0  0  0  0  0  0  0
  1 11  1  0  0  0  0
  1  4  1  0  0  0  0
  2  8  1  0  0  0  0
  3 10  1  0  0  0  0
  4  5  1  0  0  0  0
  5  6  1  0  0  0  0
  7  8  2  0  0  0  0
  7 12  1  0  0  0  0
  8  9  1  0  0  0  0
  9 10  2  0  0  0  0
 10 11  1  0  0  0  0
 11 12  2  0  0  0  0
M  END
>  <CHROM.1>
-56.88301573,164.53555450,-54.36995890,10.84337251,11.64882477,147.74801340
-2.90183191,-1.02087972,2.57125977

>  <Name>
ligand

>  <RI>
0

>  <Rbt.Current_Directory>
/home/itssahil/PROJECTS/Mol_Feturizer/New_Systems/rnas/4NYA

>  <Rbt.Executable>
rbdock ($Id: //depot/dev/client3/rdock/2013.1/src/exe/rbdock.cxx#4 $)

>  <Rbt.Library>
libRbt.so (2013.1, Build901 2013/11/27)

>  <Rbt.Parameter_File>
/export/apps/rDock/src/rDock_2013.1_src/data/scripts/dock_solv.prm

>  <Rbt.Receptor>
prm/pocket_docking_4.prm

>  <SCORE>
-11.5452

>  <SCORE.INTER>
-12.3964

>  <SCORE.INTER.CONST>
1

>  <SCORE.INTER.POLAR>
0

>  <SCORE.INTER.ROT>
3

>  <SCORE.INTER.SOLV>
11.2758

>  <SCORE.INTER.VDW>
-17.6228

>  <SCORE.INTER.norm>
-1.03303

>  <SCORE.INTRA>
0.851209

>  <SCORE.INTRA.DIHEDRAL>
-0.497084

>  <SCORE.INTRA.DIHEDRAL.0>
2.1382

>  <SCORE.INTRA.POLAR>
0

>  <SCORE.INTRA.POLAR.0>
0

>  <SCORE.INTRA.REPUL>
0

>  <SCORE.INTRA.REPUL.0>
0

>  <SCORE.INTRA.SOLV>
1.88641

>  <SCORE.INTRA.SOLV.lig_0>
-59.6513

>  <SCORE.INTRA.VDW>
0.156545

>  <SCORE.INTRA.VDW.0>
-0.569808

>  <SCORE.INTRA.norm>
0.0709341

>  <SCORE.RESTR>
0

>  <SCORE.RESTR.CAVITY>
0

>  <SCORE.RESTR.norm>
0

>  <SCORE.SYSTEM>
0

>  <SCORE.SYSTEM.CONST>
0

>  <SCORE.SYSTEM.DIHEDRAL>
0

>  <SCORE.SYSTEM.SOLV>
0

>  <SCORE.SYSTEM.norm>
0

>  <SCORE.heavy>
12

>  <SCORE.norm>
-0.962096

>  <RMSD>
2.186

$$$$
ligand
 OpenBabel11021811503D
libRbt.so/2013.1/901 2013/11/27
 12 12  0  0  0  0  0  0  0  0999 V2000
   10.6325   13.3552  148.0260 C   0  0  0  0  0  0  0  0  0  0  0  0
   12.5414    8.7259  145.7257 C   0  0  0  0  0  0  0  0  0  0  0  0
   10.5073   10.9716  149.3128 N   0  0  0  0  0  0  0  0  0  0  0  0
    9.2632   13.2632  148.5543 N   0  0  0  0  0  0  0  0  0  0  0  0
    9.0128   13.9342  149.4201 N   0  0  0  0  0  0  0  0  0  0  0  0
    8.7640   14.6095  150.2807 N   0  0  0  0  0  0  0  0  0  0  0  0
   12.1301   11.0401  145.6169 N   0  0  0  0  0  0  0  0  0  0  0  0
   12.0602    9.8921  146.3079 C   0  0  0  0  0  0  0  0  0  0  0  0
   11.4640    9.8502  147.5079 N   0  0  0  0  0  0  0  0  0  0  0  0
   10.9269   10.9510  148.0512 C   0  0  0  0  0  0  0  0  0  0  0  0
   10.9642   12.1696  147.3812 C   0  0  0  0  0  0  0  0  0  0  0  0
   11.5719   12.2138  146.1342 C   0  0  0  0  0  0  0  0  0  0  0  0
  1 11  1  0  0  0  0
  1  4  1  0  0  0  0
  2  8  1  0  0  0  0
  3 10  1  0  0  0  0
  4  5  1  0  0  0  0
  5  6  1  0  0  0  0
  7  8  2  0  0  0  0
  7 12  1  0  0  0  0
  8  9  1  0  0  0  0
  9 10  2  0  0  0  0
 10 11  1  0  0  0  0
 11 12  2  0  0  0  0
M  END
>  <CHROM.1>
-58.06658618,156.05305069,61.49307626,10.80303820,11.75083293,147.71663656
-2.82378852,-1.03043257,2.61727830

>  <Name>
ligand

>  <RI>
0

>  <Rbt.Current_Directory>
/home/itssahil/PROJECTS/Mol_Feturizer/New_Systems/rnas/4NYA

>  <Rbt.Executable>
rbdock ($Id: //depot/dev/client3/rdock/2013.1/src/exe/rbdock.cxx#4 $)

>  <Rbt.Library>
libRbt.so (2013.1, Build901 2013/11/27)

>  <Rbt.Parameter_File>
/export/apps/rDock/src/rDock_2013.1_src/data/scripts/dock_solv.prm

>  <Rbt.Receptor>
prm/pocket_docking_5.prm

>  <SCORE>
-11.5247

>  <SCORE.INTER>
-12.6205

>  <SCORE.INTER.CONST>
1

>  <SCORE.INTER.POLAR>
0

>  <SCORE.INTER.ROT>
3

>  <SCORE.INTER.SOLV>
11.0067

>  <SCORE.INTER.VDW>
-17.6826

>  <SCORE.INTER.norm>
-1.05171

>  <SCORE.INTRA>
1.09578

>  <SCORE.INTRA.DIHEDRAL>
-0.249564

>  <SCORE.INTRA.DIHEDRAL.0>
2.1382

>  <SCORE.INTRA.POLAR>
0

>  <SCORE.INTRA.POLAR.0>
0

>  <SCORE.INTRA.REPUL>
0

>  <SCORE.INTRA.REPUL.0>
0

>  <SCORE.INTRA.SOLV>
2.27003

>  <SCORE.INTRA.SOLV.lig_0>
-59.6513

>  <SCORE.INTRA.VDW>
0.0855476

>  <SCORE.INTRA.VDW.0>
-0.569808

>  <SCORE.INTRA.norm>
0.0913149

>  <SCORE.RESTR>
0

>  <SCORE.RESTR.CAVITY>
0

>  <SCORE.RESTR.norm>
0

>  <SCORE.SYSTEM>
0

>  <SCORE.SYSTEM.CONST>
0

>  <SCORE.SYSTEM.DIHEDRAL>
0

>  <SCORE.SYSTEM.SOLV>
0

>  <SCORE.SYSTEM.norm>
0

>  <SCORE.heavy>
12

>  <SCORE.norm>
-0.960396

>  <RMSD>
2.186

$$$$
ligand
 OpenBabel11021811503D
libRbt.so/2013.1/901 2013/11/27
 12 12  0  0  0  0  0  0  0  0999 V2000
   10.6494   13.3304  148.0371 C   0  0  0  0  0  0  0  0  0  0  0  0
   12.5703    8.7457  145.6587 C   0  0  0  0  0  0  0  0  0  0  0  0
   10.2642   10.8854  149.1447 N   0  0  0  0  0  0  0  0  0  0  0  0
    9.2590   13.2360  148.5064 N   0  0  0  0  0  0  0  0  0  0  0  0
    8.9826   13.8733  149.3897 N   0  0  0  0  0  0  0  0  0  0  0  0
    8.7072   14.5151  150.2676 N   0  0  0  0  0  0  0  0  0  0  0  0
   12.2888   11.0818  145.6575 N   0  0  0  0  0  0  0  0  0  0  0  0
   12.0858    9.9006  146.2606 C   0  0  0  0  0  0  0  0  0  0  0  0
   11.3587    9.8211  147.3841 N   0  0  0  0  0  0  0  0  0  0  0  0
   10.8198   10.9161  147.9370 C   0  0  0  0  0  0  0  0  0  0  0  0
   10.9916   12.1684  147.3558 C   0  0  0  0  0  0  0  0  0  0  0  0
   11.7354   12.2523  146.1871 C   0  0  0  0  0  0  0  0  0  0  0  0
  1 11  1  0  0  0  0
  1  4  1  0  0  0  0
  2  8  1  0  0  0  0
  3 10  1  0  0  0  0
  4  5  1  0  0  0  0
  5  6  1  0  0  0  0
  7  8  2  0  0  0  0
  7 12  1  0  0  0  0
  8  9  1  0  0  0  0
  9 10  2  0  0  0  0
 10 11  1  0  0  0  0
 11 12  2  0  0  0  0
M  END
>  <CHROM.1>
-53.32321719,156.04649013,70.57432711,10.79093810,11.72907113,147.67157415
-2.64897347,-0.96364396,2.84377724

>  <Name>
ligand

>  <RI>
0

>  <Rbt.Current_Directory>
/home/itssahil/PROJECTS/Mol_Feturizer/New_Systems/rnas/4NYA

>  <Rbt.Executable>
rbdock ($Id: //depot/dev/client3/rdock/2013.1/src/exe/rbdock.cxx#4 $)

>  <Rbt.Library>
libRbt.so (2013.1, Build901 2013/11/27)

>  <Rbt.Parameter_File>
/export/apps/rDock/src/rDock_2013.1_src/data/scripts/dock_solv.prm

>  <Rbt.Receptor>
prm/pocket_docking_2.prm

>  <SCORE>
-11.4157

>  <SCORE.INTER>
-12.7588

>  <SCORE.INTER.CONST>
1

>  <SCORE.INTER.POLAR>
0

>  <SCORE.INTER.ROT>
3

>  <SCORE.INTER.SOLV>
10.7144

>  <SCORE.INTER.VDW>
-17.6773

>  <SCORE.INTER.norm>
-1.06323

>  <SCORE.INTRA>
1.3431

>  <SCORE.INTRA.DIHEDRAL>
-0.32932

>  <SCORE.INTRA.DIHEDRAL.0>
2.1382

>  <SCORE.INTRA.POLAR>
0

>  <SCORE.INTRA.POLAR.0>
0

>  <SCORE.INTRA.REPUL>
0

>  <SCORE.INTRA.REPUL.0>
0

>  <SCORE.INTRA.SOLV>
2.54378

>  <SCORE.INTRA.SOLV.lig_0>
-59.6513

>  <SCORE.INTRA.VDW>
0.235875

>  <SCORE.INTRA.VDW.0>
-0.569808

>  <SCORE.INTRA.norm>
0.111925

>  <SCORE.RESTR>
0

>  <SCORE.RESTR.CAVITY>
0

>  <SCORE.RESTR.norm>
0

>  <SCORE.SYSTEM>
0

>  <SCORE.SYSTEM.CONST>
0

>  <SCORE.SYSTEM.DIHEDRAL>
0

>  <SCORE.SYSTEM.SOLV>
0

>  <SCORE.SYSTEM.norm>
0

>  <SCORE.heavy>
12

>  <SCORE.norm>
-0.951306

>  <RMSD>
2.188

$$$$
ligand
 OpenBabel11021811503D
libRbt.so/2013.1/901 2013/11/27
 12 12  0  0  0  0  0  0  0  0999 V2000
   10.6503   13.3312  148.0406 C   0  0  0  0  0  0  0  0  0  0  0  0
   12.5047    8.6989  145.7018 C   0  0  0  0  0  0  0  0  0  0  0  0
   10.2018   10.8989  149.1522 N   0  0  0  0  0  0  0  0  0  0  0  0
    9.2524   13.2677  148.4924 N   0  0  0  0  0  0  0  0  0  0  0  0
    8.9848   13.8929  149.3869 N   0  0  0  0  0  0  0  0  0  0  0  0
    8.7194   14.5226  150.2766 N   0  0  0  0  0  0  0  0  0  0  0  0
   12.2713   11.0402  145.6889 N   0  0  0  0  0  0  0  0  0  0  0  0
   12.0369    9.8658  146.2937 C   0  0  0  0  0  0  0  0  0  0  0  0
   11.2950    9.8056  147.4087 N   0  0  0  0  0  0  0  0  0  0  0  0
   10.7722   10.9135  147.9511 C   0  0  0  0  0  0  0  0  0  0  0  0
   10.9766   12.1598  147.3676 C   0  0  0  0  0  0  0  0  0  0  0  0
   11.7359   12.2239  146.2076 C   0  0  0  0  0  0  0  0  0  0  0  0
  1 11  1  0  0  0  0
  1  4  1  0  0  0  0
  2  8  1  0  0  0  0
  3 10  1  0  0  0  0
  4  5  1  0  0  0  0
  5  6  1  0  0  0  0
  7  8  2  0  0  0  0
  7 12  1  0  0  0  0
  8  9  1  0  0  0  0
  9 10  2  0  0  0  0
 10 11  1  0  0  0  0
 11 12  2  0  0  0  0
M  END
>  <CHROM.1>
-53.37839464,154.46230024,60.65000963,10.76484000,11.72053561,147.68665602
-2.61317751,-0.96004964,2.87324391

>  <Name>
ligand

>  <RI>
0

>  <Rbt.Current_Directory>
/home/itssahil/PROJECTS/Mol_Feturizer/New_Systems/rnas/4NYA

>  <Rbt.Executable>
rbdock ($Id: //depot/dev/client3/rdock/2013.1/src/exe/rbdock.cxx#4 $)

>  <Rbt.Library>
libRbt.so (2013.1, Build901 2013/11/27)

>  <Rbt.Parameter_File>
/export/apps/rDock/src/rDock_2013.1_src/data/scripts/dock_solv.prm

>  <Rbt.Receptor>
prm/pocket_docking_2.prm

>  <SCORE>
-11.3905

>  <SCORE.INTER>
-12.7808

>  <SCORE.INTER.CONST>
1

>  <SCORE.INTER.POLAR>
0

>  <SCORE.INTER.ROT>
3

>  <SCORE.INTER.SOLV>
10.4838

>  <SCORE.INTER.VDW>
-17.6151

>  <SCORE.INTER.norm>
-1.06506

>  <SCORE.INTRA>
1.39023

>  <SCORE.INTRA.DIHEDRAL>
-0.310029

>  <SCORE.INTRA.DIHEDRAL.0>
2.1382

>  <SCORE.INTRA.POLAR>
0

>  <SCORE.INTRA.POLAR.0>
0

>  <SCORE.INTRA.REPUL>
0

>  <SCORE.INTRA.REPUL.0>
0

>  <SCORE.INTRA.SOLV>
2.63222

>  <SCORE.INTRA.SOLV.lig_0>
-59.6513

>  <SCORE.INTRA.VDW>
0.229136

>  <SCORE.INTRA.VDW.0>
-0.569808

>  <SCORE.INTRA.norm>
0.115853

>  <SCORE.RESTR>
0

>  <SCORE.RESTR.CAVITY>
0

>  <SCORE.RESTR.norm>
0

>  <SCORE.SYSTEM>
0

>  <SCORE.SYSTEM.CONST>
0

>  <SCORE.SYSTEM.DIHEDRAL>
0

>  <SCORE.SYSTEM.SOLV>
0

>  <SCORE.SYSTEM.norm>
0

>  <SCORE.heavy>
12

>  <SCORE.norm>
-0.949212

>  <RMSD>
2.189

$$$$
ligand
 OpenBabel11021811503D
libRbt.so/2013.1/901 2013/11/27
 12 12  0  0  0  0  0  0  0  0999 V2000
   10.6420   13.2576  148.0485 C   0  0  0  0  0  0  0  0  0  0  0  0
   12.6334    8.6886  145.6980 C   0  0  0  0  0  0  0  0  0  0  0  0
   10.6837   10.8854  149.3615 N   0  0  0  0  0  0  0  0  0  0  0  0
    9.2892   13.1275  148.6100 N   0  0  0  0  0  0  0  0  0  0  0  0
    9.0247   13.8258  149.4498 N   0  0  0  0  0  0  0  0  0  0  0  0
    8.7613   14.5281  150.2839 N   0  0  0  0  0  0  0  0  0  0  0  0
   12.1175   10.9817  145.5888 N   0  0  0  0  0  0  0  0  0  0  0  0
   12.1315    9.8396  146.2929 C   0  0  0  0  0  0  0  0  0  0  0  0
   11.5977    9.7858  147.5214 N   0  0  0  0  0  0  0  0  0  0  0  0
   11.0410   10.8686  148.0807 C   0  0  0  0  0  0  0  0  0  0  0  0
   10.9925   12.0801  147.3986 C   0  0  0  0  0  0  0  0  0  0  0  0
   11.5354   12.1363  146.1226 C   0  0  0  0  0  0  0  0  0  0  0  0
  1 11  1  0  0  0  0
  1  4  1  0  0  0  0
  2  8  1  0  0  0  0
  3 10  1  0  0  0  0
  4  5  1  0  0  0  0
  5  6  1  0  0  0  0
  7  8  2  0  0  0  0
  7 12  1  0  0  0  0
  8  9  1  0  0  0  0
  9 10  2  0  0  0  0
 10 11  1  0  0  0  0
 11 12  2  0  0  0  0
M  END
>  <CHROM.1>
-59.77478375,158.72423835,63.03999776,10.85457165,11.66988378,147.72817261
-2.94080386,-1.04025148,2.49295971

>  <Name>
ligand

>  <RI>
0

>  <Rbt.Current_Directory>
/home/itssahil/PROJECTS/Mol_Feturizer/New_Systems/rnas/4NYA

>  <Rbt.Executable>
rbdock ($Id: //depot/dev/client3/rdock/2013.1/src/exe/rbdock.cxx#4 $)

>  <Rbt.Library>
libRbt.so (2013.1, Build901 2013/11/27)

>  <Rbt.Parameter_File>
/export/apps/rDock/src/rDock_2013.1_src/data/scripts/dock_solv.prm

>  <Rbt.Receptor>
prm/pocket_docking_3.prm

>  <SCORE>
-11.6513

>  <SCORE.INTER>
-12.5704

>  <SCORE.INTER.CONST>
1

>  <SCORE.INTER.POLAR>
0

>  <SCORE.INTER.ROT>
3

>  <SCORE.INTER.SOLV>
11.4038

>  <SCORE.INTER.VDW>
-17.7815

>  <SCORE.INTER.norm>
-1.04753

>  <SCORE.INTRA>
0.919084

>  <SCORE.INTRA.DIHEDRAL>
-0.282507

>  <SCORE.INTRA.DIHEDRAL.0>
2.1382

>  <SCORE.INTRA.POLAR>
0

>  <SCORE.INTRA.POLAR.0>
0

>  <SCORE.INTRA.REPUL>
0

>  <SCORE.INTRA.REPUL.0>
0

>  <SCORE.INTRA.SOLV>
2.01248

>  <SCORE.INTRA.SOLV.lig_0>
-59.6513

>  <SCORE.INTRA.VDW>
0.0540988

>  <SCORE.INTRA.VDW.0>
-0.569808

>  <SCORE.INTRA.norm>
0.0765903

>  <SCORE.RESTR>
0

>  <SCORE.RESTR.CAVITY>
0

>  <SCORE.RESTR.norm>
0

>  <SCORE.SYSTEM>
0

>  <SCORE.SYSTEM.CONST>
0

>  <SCORE.SYSTEM.DIHEDRAL>
0

>  <SCORE.SYSTEM.SOLV>
0

>  <SCORE.SYSTEM.norm>
0

>  <SCORE.heavy>
12

>  <SCORE.norm>
-0.970944

>  <RMSD>
2.192

$$$$
ligand
 OpenBabel11021811503D
libRbt.so/2013.1/901 2013/11/27
 12 12  0  0  0  0  0  0  0  0999 V2000
   10.6469   13.2624  148.0501 C   0  0  0  0  0  0  0  0  0  0  0  0
   12.6638    8.7328  145.6457 C   0  0  0  0  0  0  0  0  0  0  0  0
   10.6661   10.8668  149.3204 N   0  0  0  0  0  0  0  0  0  0  0  0
    9.3143   13.0993  148.6498 N   0  0  0  0  0  0  0  0  0  0  0  0
    9.0355   13.8266  149.4597 N   0  0  0  0  0  0  0  0  0  0  0  0
    8.7512   14.5495  150.2690 N   0  0  0  0  0  0  0  0  0  0  0  0
   12.1534   11.0285  145.5708 N   0  0  0  0  0  0  0  0  0  0  0  0
   12.1556    9.8739  146.2541 C   0  0  0  0  0  0  0  0  0  0  0  0
   11.6042    9.7989  147.4739 N   0  0  0  0  0  0  0  0  0  0  0  0
   11.0415   10.8724  148.0448 C   0  0  0  0  0  0  0  0  0  0  0  0
   11.0046   12.0962  147.3841 C   0  0  0  0  0  0  0  0  0  0  0  0
   11.5656   12.1744  146.1170 C   0  0  0  0  0  0  0  0  0  0  0  0
  1 11  1  0  0  0  0
  1  4  1  0  0  0  0
  2  8  1  0  0  0  0
  3 10  1  0  0  0  0
  4  5  1  0  0  0  0
  5  6  1  0  0  0  0
  7  8  2  0  0  0  0
  7 12  1  0  0  0  0
  8  9  1  0  0  0  0
  9 10  2  0  0  0  0
 10 11  1  0  0  0  0
 11 12  2  0  0  0  0
M  END
>  <CHROM.1>
-56.84617256,162.21174561,-177.48261415,10.86723577,11.68438998,147.71012335
-2.91121299,-1.03324028,2.53814542

>  <Name>
ligand

>  <RI>
0

>  <Rbt.Current_Directory>
/home/itssahil/PROJECTS/Mol_Feturizer/New_Systems/rnas/4NYA

>  <Rbt.Executable>
rbdock ($Id: //depot/dev/client3/rdock/2013.1/src/exe/rbdock.cxx#4 $)

>  <Rbt.Library>
libRbt.so (2013.1, Build901 2013/11/27)

>  <Rbt.Parameter_File>
/export/apps/rDock/src/rDock_2013.1_src/data/scripts/dock_solv.prm

>  <Rbt.Receptor>
prm/pocket_docking_7.prm

>  <SCORE>
-11.607

>  <SCORE.INTER>
-12.517

>  <SCORE.INTER.CONST>
1

>  <SCORE.INTER.POLAR>
0

>  <SCORE.INTER.ROT>
3

>  <SCORE.INTER.SOLV>
11.3288

>  <SCORE.INTER.VDW>
-17.7209

>  <SCORE.INTER.norm>
-1.04308

>  <SCORE.INTRA>
0.909942

>  <SCORE.INTRA.DIHEDRAL>
-0.449065

>  <SCORE.INTRA.DIHEDRAL.0>
2.1382

>  <SCORE.INTRA.POLAR>
0

>  <SCORE.INTRA.POLAR.0>
0

>  <SCORE.INTRA.REPUL>
0

>  <SCORE.INTRA.REPUL.0>
0

>  <SCORE.INTRA.SOLV>
2.0014

>  <SCORE.INTRA.SOLV.lig_0>
-59.6513

>  <SCORE.INTRA.VDW>
0.133773

>  <SCORE.INTRA.VDW.0>
-0.569808

>  <SCORE.INTRA.norm>
0.0758285

>  <SCORE.RESTR>
0

>  <SCORE.RESTR.CAVITY>
0

>  <SCORE.RESTR.norm>
0

>  <SCORE.SYSTEM>
0

>  <SCORE.SYSTEM.CONST>
0

>  <SCORE.SYSTEM.DIHEDRAL>
0

>  <SCORE.SYSTEM.SOLV>
0

>  <SCORE.SYSTEM.norm>
0

>  <SCORE.heavy>
12

>  <SCORE.norm>
-0.967252

>  <RMSD>
2.192

$$$$
ligand
 OpenBabel11021811503D
libRbt.so/2013.1/901 2013/11/27
 12 12  0  0  0  0  0  0  0  0999 V2000
   10.6149   13.1903  148.0282 C   0  0  0  0  0  0  0  0  0  0  0  0
   12.7100    8.6929  145.6302 C   0  0  0  0  0  0  0  0  0  0  0  0
   10.7956   10.8285  149.3481 N   0  0  0  0  0  0  0  0  0  0  0  0
    9.2928   13.0050  148.6447 N   0  0  0  0  0  0  0  0  0  0  0  0
    9.0116   13.7286  149.4571 N   0  0  0  0  0  0  0  0  0  0  0  0
    8.7309   14.4560  150.2636 N   0  0  0  0  0  0  0  0  0  0  0  0
   12.0988   10.9629  145.5296 N   0  0  0  0  0  0  0  0  0  0  0  0
   12.1821    9.8259  146.2371 C   0  0  0  0  0  0  0  0  0  0  0  0
   11.6918    9.7570  147.4829 N   0  0  0  0  0  0  0  0  0  0  0  0
   11.1107   10.8194  148.0563 C   0  0  0  0  0  0  0  0  0  0  0  0
   10.9908   12.0245  147.3716 C   0  0  0  0  0  0  0  0  0  0  0  0
   11.4886   12.0958  146.0780 C   0  0  0  0  0  0  0  0  0  0  0  0
  1 11  1  0  0  0  0
  1  4  1  0  0  0  0
  2  8  1  0  0  0  0
  3 10  1  0  0  0  0
  4  5  1  0  0  0  0
  5  6  1  0  0  0  0
  7  8  2  0  0  0  0
  7 12  1  0  0  0  0
  8  9  1  0  0  0  0
  9 10  2  0  0  0  0
 10 11  1  0  0  0  0
 11 12  2  0  0  0  0
M  END
>  <CHROM.1>
-59.29099427,161.56774473,64.60060318,10.87751927,11.61812286,147.70102909
-3.03509581,-1.03801472,2.40112162

>  <Name>
ligand

>  <RI>
0

>  <Rbt.Current_Directory>
/home/itssahil/PROJECTS/Mol_Feturizer/New_Systems/rnas/4NYA

>  <Rbt.Executable>
rbdock ($Id: //depot/dev/client3/rdock/2013.1/src/exe/rbdock.cxx#4 $)

>  <Rbt.Library>
libRbt.so (2013.1, Build901 2013/11/27)

>  <Rbt.Parameter_File>
/export/apps/rDock/src/rDock_2013.1_src/data/scripts/dock_solv.prm

>  <Rbt.Receptor>
prm/pocket_docking_4.prm

>  <SCORE>
-11.654

>  <SCORE.INTER>
-12.4842

>  <SCORE.INTER.CONST>
1

>  <SCORE.INTER.POLAR>
0

>  <SCORE.INTER.ROT>
3

>  <SCORE.INTER.SOLV>
11.7932

>  <SCORE.INTER.VDW>
-17.8539

>  <SCORE.INTER.norm>
-1.04035

>  <SCORE.INTRA>
0.830258

>  <SCORE.INTRA.DIHEDRAL>
-0.368475

>  <SCORE.INTRA.DIHEDRAL.0>
2.1382

>  <SCORE.INTRA.POLAR>
0

>  <SCORE.INTRA.POLAR.0>
0

>  <SCORE.INTRA.REPUL>
0

>  <SCORE.INTRA.REPUL.0>
0

>  <SCORE.INTRA.SOLV>
1.8843

>  <SCORE.INTRA.SOLV.lig_0>
-59.6513

>  <SCORE.INTRA.VDW>
0.0723473

>  <SCORE.INTRA.VDW.0>
-0.569808

>  <SCORE.INTRA.norm>
0.0691882

>  <SCORE.RESTR>
0

>  <SCORE.RESTR.CAVITY>
0

>  <SCORE.RESTR.norm>
0

>  <SCORE.SYSTEM>
0

>  <SCORE.SYSTEM.CONST>
0

>  <SCORE.SYSTEM.DIHEDRAL>
0

>  <SCORE.SYSTEM.SOLV>
0

>  <SCORE.SYSTEM.norm>
0

>  <SCORE.heavy>
12

>  <SCORE.norm>
-0.971164

>  <RMSD>
2.194

$$$$
ligand
 OpenBabel11021811503D
libRbt.so/2013.1/901 2013/11/27
 12 12  0  0  0  0  0  0  0  0999 V2000
   10.6359   13.2381  148.0395 C   0  0  0  0  0  0  0  0  0  0  0  0
   12.6855    8.7282  145.6255 C   0  0  0  0  0  0  0  0  0  0  0  0
   10.6689   10.8391  149.3033 N   0  0  0  0  0  0  0  0  0  0  0  0
    9.3030   13.0651  148.6358 N   0  0  0  0  0  0  0  0  0  0  0  0
    9.0190   13.7867  149.4490 N   0  0  0  0  0  0  0  0  0  0  0  0
    8.7356   14.5122  150.2564 N   0  0  0  0  0  0  0  0  0  0  0  0
   12.1602   11.0208  145.5562 N   0  0  0  0  0  0  0  0  0  0  0  0
   12.1690    9.8643  146.2364 C   0  0  0  0  0  0  0  0  0  0  0  0
   11.6165    9.7824  147.4551 N   0  0  0  0  0  0  0  0  0  0  0  0
   11.0460   10.8507  148.0282 C   0  0  0  0  0  0  0  0  0  0  0  0
   11.0021   12.0760  147.3708 C   0  0  0  0  0  0  0  0  0  0  0  0
   11.5643   12.1613  146.1048 C   0  0  0  0  0  0  0  0  0  0  0  0
  1 11  1  0  0  0  0
  1  4  1  0  0  0  0
  2  8  1  0  0  0  0
  3 10  1  0  0  0  0
  4  5  1  0  0  0  0
  5  6  1  0  0  0  0
  7  8  2  0  0  0  0
  7 12  1  0  0  0  0
  8  9  1  0  0  0  0
  9 10  2  0  0  0  0
 10 11  1  0  0  0  0
 11 12  2  0  0  0  0
M  END
>  <CHROM.1>
-56.90002349,162.06538336,66.39218753,10.86747165,11.66283286,147.69524135
-2.91950067,-1.02877041,2.53341799

>  <Name>
ligand

>  <RI>
0

>  <Rbt.Current_Directory>
/home/itssahil/PROJECTS/Mol_Feturizer/New_Systems/rnas/4NYA

>  <Rbt.Executable>
rbdock ($Id: //depot/dev/client3/rdock/2013.1/src/exe/rbdock.cxx#4 $)

>  <Rbt.Library>
libRbt.so (2013.1, Build901 2013/11/27)

>  <Rbt.Parameter_File>
/export/apps/rDock/src/rDock_2013.1_src/data/scripts/dock_solv.prm

>  <Rbt.Receptor>
prm/pocket_docking_3.prm

>  <SCORE>
-11.5886

>  <SCORE.INTER>
-12.5069

>  <SCORE.INTER.CONST>
1

>  <SCORE.INTER.POLAR>
0

>  <SCORE.INTER.ROT>
3

>  <SCORE.INTER.SOLV>
11.452

>  <SCORE.INTER.VDW>
-17.7552

>  <SCORE.INTER.norm>
-1.04224

>  <SCORE.INTRA>
0.918235

>  <SCORE.INTRA.DIHEDRAL>
-0.434716

>  <SCORE.INTRA.DIHEDRAL.0>
2.1382

>  <SCORE.INTRA.POLAR>
0

>  <SCORE.INTRA.POLAR.0>
0

>  <SCORE.INTRA.REPUL>
0

>  <SCORE.INTRA.REPUL.0>
0

>  <SCORE.INTRA.SOLV>
2.0044

>  <SCORE.INTRA.SOLV.lig_0>
-59.6513

>  <SCORE.INTRA.VDW>
0.133392

>  <SCORE.INTRA.VDW.0>
-0.569808

>  <SCORE.INTRA.norm>
0.0765196

>  <SCORE.RESTR>
0

>  <SCORE.RESTR.CAVITY>
0

>  <SCORE.RESTR.norm>
0

>  <SCORE.SYSTEM>
0

>  <SCORE.SYSTEM.CONST>
0

>  <SCORE.SYSTEM.DIHEDRAL>
0

>  <SCORE.SYSTEM.SOLV>
0

>  <SCORE.SYSTEM.norm>
0

>  <SCORE.heavy>
12

>  <SCORE.norm>
-0.965718

>  <RMSD>
2.195

$$$$
ligand
 OpenBabel11021811503D
libRbt.so/2013.1/901 2013/11/27
 12 12  0  0  0  0  0  0  0  0999 V2000
   10.6131   13.2136  148.0299 C   0  0  0  0  0  0  0  0  0  0  0  0
   12.6612    8.6818  145.6562 C   0  0  0  0  0  0  0  0  0  0  0  0
   10.6481   10.8267  149.3161 N   0  0  0  0  0  0  0  0  0  0  0  0
    9.2517   13.0718  148.5672 N   0  0  0  0  0  0  0  0  0  0  0  0
    8.9740   13.7518  149.4175 N   0  0  0  0  0  0  0  0  0  0  0  0
    8.6977   14.4361  150.2624 N   0  0  0  0  0  0  0  0  0  0  0  0
   12.1353   10.9734  145.5659 N   0  0  0  0  0  0  0  0  0  0  0  0
   12.1451    9.8234  146.2570 C   0  0  0  0  0  0  0  0  0  0  0  0
   11.5939    9.7528  147.4770 N   0  0  0  0  0  0  0  0  0  0  0  0
   11.0238   10.8263  148.0406 C   0  0  0  0  0  0  0  0  0  0  0  0
   10.9789   12.0454  147.3717 C   0  0  0  0  0  0  0  0  0  0  0  0
   11.5397   12.1189  146.1044 C   0  0  0  0  0  0  0  0  0  0  0  0
  1 11  1  0  0  0  0
  1  4  1  0  0  0  0
  2  8  1  0  0  0  0
  3 10  1  0  0  0  0
  4  5  1  0  0  0  0
  5  6  1  0  0  0  0
  7  8  2  0  0  0  0
  7 12  1  0  0  0  0
  8  9  1  0  0  0  0
  9 10  2  0  0  0  0
 10 11  1  0  0  0  0
 11 12  2  0  0  0  0
M  END
>  <CHROM.1>
-59.92965917,158.13809415,61.43684998,10.83861837,11.62922900,147.69544316
-2.93374328,-1.02595106,2.51152749

>  <Name>
ligand

>  <RI>
0

>  <Rbt.Current_Directory>
/home/itssahil/PROJECTS/Mol_Feturizer/New_Systems/rnas/4NYA

>  <Rbt.Executable>
rbdock ($Id: //depot/dev/client3/rdock/2013.1/src/exe/rbdock.cxx#4 $)

>  <Rbt.Library>
libRbt.so (2013.1, Build901 2013/11/27)

>  <Rbt.Parameter_File>
/export/apps/rDock/src/rDock_2013.1_src/data/scripts/dock_solv.prm

>  <Rbt.Receptor>
prm/pocket_docking_4.prm

>  <SCORE>
-11.5799

>  <SCORE.INTER>
-12.5154

>  <SCORE.INTER.CONST>
1

>  <SCORE.INTER.POLAR>
0

>  <SCORE.INTER.ROT>
3

>  <SCORE.INTER.SOLV>
11.707

>  <SCORE.INTER.VDW>
-17.8459

>  <SCORE.INTER.norm>
-1.04295

>  <SCORE.INTRA>
0.935434

>  <SCORE.INTRA.DIHEDRAL>
-0.263872

>  <SCORE.INTRA.DIHEDRAL.0>
2.1382

>  <SCORE.INTRA.POLAR>
0

>  <SCORE.INTRA.POLAR.0>
0

>  <SCORE.INTRA.REPUL>
0

>  <SCORE.INTRA.REPUL.0>
0

>  <SCORE.INTRA.SOLV>
2.03634

>  <SCORE.INTRA.SOLV.lig_0>
-59.6513

>  <SCORE.INTRA.VDW>
0.0491995

>  <SCORE.INTRA.VDW.0>
-0.569808

>  <SCORE.INTRA.norm>
0.0779528

>  <SCORE.RESTR>
0

>  <SCORE.RESTR.CAVITY>
0

>  <SCORE.RESTR.norm>
0

>  <SCORE.SYSTEM>
0

>  <SCORE.SYSTEM.CONST>
0

>  <SCORE.SYSTEM.DIHEDRAL>
0

>  <SCORE.SYSTEM.SOLV>
0

>  <SCORE.SYSTEM.norm>
0

>  <SCORE.heavy>
12

>  <SCORE.norm>
-0.964995

>  <RMSD>
2.196

$$$$
ligand
 OpenBabel11021811503D
libRbt.so/2013.1/901 2013/11/27
 12 12  0  0  0  0  0  0  0  0999 V2000
   10.6306   13.1898  148.0228 C   0  0  0  0  0  0  0  0  0  0  0  0
   12.7148    8.6859  145.6276 C   0  0  0  0  0  0  0  0  0  0  0  0
   10.8480   10.8402  149.3589 N   0  0  0  0  0  0  0  0  0  0  0  0
    9.2783   13.0347  148.5791 N   0  0  0  0  0  0  0  0  0  0  0  0
    8.9950   13.7327  149.4129 N   0  0  0  0  0  0  0  0  0  0  0  0
    8.7126   14.4348  150.2410 N   0  0  0  0  0  0  0  0  0  0  0  0
   12.0875   10.9511  145.5184 N   0  0  0  0  0  0  0  0  0  0  0  0
   12.1897    9.8206  146.2338 C   0  0  0  0  0  0  0  0  0  0  0  0
   11.7204    9.7590  147.4880 N   0  0  0  0  0  0  0  0  0  0  0  0
   11.1420   10.8224  148.0622 C   0  0  0  0  0  0  0  0  0  0  0  0
   11.0032   12.0210  147.3697 C   0  0  0  0  0  0  0  0  0  0  0  0
   11.4791   12.0848  146.0675 C   0  0  0  0  0  0  0  0  0  0  0  0
  1 11  1  0  0  0  0
  1  4  1  0  0  0  0
  2  8  1  0  0  0  0
  3 10  1  0  0  0  0
  4  5  1  0  0  0  0
  5  6  1  0  0  0  0
  7  8  2  0  0  0  0
  7 12  1  0  0  0  0
  8  9  1  0  0  0  0
  9 10  2  0  0  0  0
 10 11  1  0  0  0  0
 11 12  2  0  0  0  0
M  END
>  <CHROM.1>
-63.38878608,159.38784248,64.37804854,10.88421878,11.61745978,147.68845799
-3.07313056,-1.03627088,2.35101398

>  <Name>
ligand

>  <RI>
0

>  <Rbt.Current_Directory>
/home/itssahil/PROJECTS/Mol_Feturizer/New_Systems/rnas/4NYA

>  <Rbt.Executable>
rbdock ($Id: //depot/dev/client3/rdock/2013.1/src/exe/rbdock.cxx#4 $)

>  <Rbt.Library>
libRbt.so (2013.1, Build901 2013/11/27)

>  <Rbt.Parameter_File>
/export/apps/rDock/src/rDock_2013.1_src/data/scripts/dock_solv.prm

>  <Rbt.Receptor>
prm/pocket_docking_3.prm

>  <SCORE>
-11.6073

>  <SCORE.INTER>
-12.3545

>  <SCORE.INTER.CONST>
1

>  <SCORE.INTER.POLAR>
0

>  <SCORE.INTER.ROT>
3

>  <SCORE.INTER.SOLV>
12.2385

>  <SCORE.INTER.VDW>
-17.9158

>  <SCORE.INTER.norm>
-1.02954

>  <SCORE.INTRA>
0.747147

>  <SCORE.INTRA.DIHEDRAL>
-0.203974

>  <SCORE.INTRA.DIHEDRAL.0>
2.1382

>  <SCORE.INTRA.POLAR>
0

>  <SCORE.INTRA.POLAR.0>
0

>  <SCORE.INTRA.REPUL>
0

>  <SCORE.INTRA.REPUL.0>
0

>  <SCORE.INTRA.SOLV>
1.74477

>  <SCORE.INTRA.SOLV.lig_0>
-59.6513

>  <SCORE.INTRA.VDW>
-0.0232525

>  <SCORE.INTRA.VDW.0>
-0.569808

>  <SCORE.INTRA.norm>
0.0622622

>  <SCORE.RESTR>
0

>  <SCORE.RESTR.CAVITY>
0

>  <SCORE.RESTR.norm>
0

>  <SCORE.SYSTEM>
0

>  <SCORE.SYSTEM.CONST>
0

>  <SCORE.SYSTEM.DIHEDRAL>
0

>  <SCORE.SYSTEM.SOLV>
0

>  <SCORE.SYSTEM.norm>
0

>  <SCORE.heavy>
12

>  <SCORE.norm>
-0.967278

>  <RMSD>
2.199

$$$$
ligand
 OpenBabel11021811503D
libRbt.so/2013.1/901 2013/11/27
 12 12  0  0  0  0  0  0  0  0999 V2000
   10.6309   13.2515  148.0282 C   0  0  0  0  0  0  0  0  0  0  0  0
   12.6716    8.7305  145.6275 C   0  0  0  0  0  0  0  0  0  0  0  0
   10.6791   10.8609  149.3072 N   0  0  0  0  0  0  0  0  0  0  0  0
    9.2549   13.1244  148.5309 N   0  0  0  0  0  0  0  0  0  0  0  0
    8.9659   13.8010  149.3802 N   0  0  0  0  0  0  0  0  0  0  0  0
    8.6782   14.4819  150.2240 N   0  0  0  0  0  0  0  0  0  0  0  0
   12.1408   11.0215  145.5475 N   0  0  0  0  0  0  0  0  0  0  0  0
   12.1574    9.8695  146.2351 C   0  0  0  0  0  0  0  0  0  0  0  0
   11.6146    9.7942  147.4586 N   0  0  0  0  0  0  0  0  0  0  0  0
   11.0462   10.8650  148.0292 C   0  0  0  0  0  0  0  0  0  0  0  0
   10.9944   12.0859  147.3642 C   0  0  0  0  0  0  0  0  0  0  0  0
   11.5466   12.1642  146.0933 C   0  0  0  0  0  0  0  0  0  0  0  0
  1 11  1  0  0  0  0
  1  4  1  0  0  0  0
  2  8  1  0  0  0  0
  3 10  1  0  0  0  0
  4  5  1  0  0  0  0
  5  6  1  0  0  0  0
  7  8  2  0  0  0  0
  7 12  1  0  0  0  0
  8  9  1  0  0  0  0
  9 10  2  0  0  0  0
 10 11  1  0  0  0  0
 11 12  2  0  0  0  0
M  END
>  <CHROM.1>
-62.03465733,158.37780569,63.89927830,10.84824804,11.67334238,147.67504481
-2.94451577,-1.02423410,2.49666736

>  <Name>
ligand

>  <RI>
0

>  <Rbt.Current_Directory>
/home/itssahil/PROJECTS/Mol_Feturizer/New_Systems/rnas/4NYA

>  <Rbt.Executable>
rbdock ($Id: //depot/dev/client3/rdock/2013.1/src/exe/rbdock.cxx#4 $)

>  <Rbt.Library>
libRbt.so (2013.1, Build901 2013/11/27)

>  <Rbt.Parameter_File>
/export/apps/rDock/src/rDock_2013.1_src/data/scripts/dock_solv.prm

>  <Rbt.Receptor>
prm/pocket_docking_3.prm

>  <SCORE>
-11.5772

>  <SCORE.INTER>
-12.4265

>  <SCORE.INTER.CONST>
1

>  <SCORE.INTER.POLAR>
0

>  <SCORE.INTER.ROT>
3

>  <SCORE.INTER.SOLV>
12.04

>  <SCORE.INTER.VDW>
-17.8977

>  <SCORE.INTER.norm>
-1.03554

>  <SCORE.INTRA>
0.849356

>  <SCORE.INTRA.DIHEDRAL>
-0.212524

>  <SCORE.INTRA.DIHEDRAL.0>
2.1382

>  <SCORE.INTRA.POLAR>
0

>  <SCORE.INTRA.POLAR.0>
0

>  <SCORE.INTRA.REPUL>
0

>  <SCORE.INTRA.REPUL.0>
0

>  <SCORE.INTRA.SOLV>
1.88976

>  <SCORE.INTRA.SOLV.lig_0>
-59.6513

>  <SCORE.INTRA.VDW>
0.0107361

>  <SCORE.INTRA.VDW.0>
-0.569808

>  <SCORE.INTRA.norm>
0.0707797

>  <SCORE.RESTR>
0

>  <SCORE.RESTR.CAVITY>
0

>  <SCORE.RESTR.norm>
0

>  <SCORE.SYSTEM>
0

>  <SCORE.SYSTEM.CONST>
0

>  <SCORE.SYSTEM.DIHEDRAL>
0

>  <SCORE.SYSTEM.SOLV>
0

>  <SCORE.SYSTEM.norm>
0

>  <SCORE.heavy>
12

>  <SCORE.norm>
-0.964763

>  <RMSD>
2.199

$$$$
ligand
 OpenBabel11021811503D
libRbt.so/2013.1/901 2013/11/27
 12 12  0  0  0  0  0  0  0  0999 V2000
   10.1722   13.6395  147.9494 C   0  0  0  0  0  0  0  0  0  0  0  0
   12.6762    9.2010  145.8525 C   0  0  0  0  0  0  0  0  0  0  0  0
    9.5153   11.1301  148.7397 N   0  0  0  0  0  0  0  0  0  0  0  0
   10.7458   13.7381  149.2998 N   0  0  0  0  0  0  0  0  0  0  0  0
   10.3354   14.5480  149.9619 N   0  0  0  0  0  0  0  0  0  0  0  0
    9.9196   15.3533  150.6229 N   0  0  0  0  0  0  0  0  0  0  0  0
   12.3959   11.5356  145.9405 N   0  0  0  0  0  0  0  0  0  0  0  0
   12.0441   10.3189  146.3832 C   0  0  0  0  0  0  0  0  0  0  0  0
   11.0440   10.1732  147.2640 N   0  0  0  0  0  0  0  0  0  0  0  0
   10.3728   11.2355  147.7289 C   0  0  0  0  0  0  0  0  0  0  0  0
   10.6884   12.5221  147.3039 C   0  0  0  0  0  0  0  0  0  0  0  0
   11.7167   12.6751  146.3844 C   0  0  0  0  0  0  0  0  0  0  0  0
  1 11  1  0  0  0  0
  1  4  1  0  0  0  0
  2  8  1  0  0  0  0
  3 10  1  0  0  0  0
  4  5  1  0  0  0  0
  5  6  1  0  0  0  0
  7  8  2  0  0  0  0
  7 12  1  0  0  0  0
  8  9  1  0  0  0  0
  9 10  2  0  0  0  0
 10 11  1  0  0  0  0
 11 12  2  0  0  0  0
M  END
>  <CHROM.1>
67.87331380,-174.46150140,65.44379508,10.96792953,12.17776531,147.81502693
-2.08807347,-0.85764293,-2.85670520

>  <Name>
ligand

>  <RI>
0

>  <Rbt.Current_Directory>
/home/itssahil/PROJECTS/Mol_Feturizer/New_Systems/rnas/4NYA

>  <Rbt.Executable>
rbdock ($Id: //depot/dev/client3/rdock/2013.1/src/exe/rbdock.cxx#4 $)

>  <Rbt.Library>
libRbt.so (2013.1, Build901 2013/11/27)

>  <Rbt.Parameter_File>
/export/apps/rDock/src/rDock_2013.1_src/data/scripts/dock_solv.prm

>  <Rbt.Receptor>
prm/pocket_docking_8.prm

>  <SCORE>
-12.1503

>  <SCORE.INTER>
-12.1586

>  <SCORE.INTER.CONST>
1

>  <SCORE.INTER.POLAR>
0

>  <SCORE.INTER.ROT>
3

>  <SCORE.INTER.SOLV>
9.21176

>  <SCORE.INTER.VDW>
-16.7763

>  <SCORE.INTER.norm>
-1.01322

>  <SCORE.INTRA>
0.00834397

>  <SCORE.INTRA.DIHEDRAL>
-0.764025

>  <SCORE.INTRA.DIHEDRAL.0>
2.1382

>  <SCORE.INTRA.POLAR>
0

>  <SCORE.INTRA.POLAR.0>
0

>  <SCORE.INTRA.REPUL>
0

>  <SCORE.INTRA.REPUL.0>
0

>  <SCORE.INTRA.SOLV>
0.951641

>  <SCORE.INTRA.SOLV.lig_0>
-59.6513

>  <SCORE.INTRA.VDW>
-0.0854637

>  <SCORE.INTRA.VDW.0>
-0.569808

>  <SCORE.INTRA.norm>
0.000695331

>  <SCORE.RESTR>
0

>  <SCORE.RESTR.CAVITY>
0

>  <SCORE.RESTR.norm>
0

>  <SCORE.SYSTEM>
0

>  <SCORE.SYSTEM.CONST>
0

>  <SCORE.SYSTEM.DIHEDRAL>
0

>  <SCORE.SYSTEM.SOLV>
0

>  <SCORE.SYSTEM.norm>
0

>  <SCORE.heavy>
12

>  <SCORE.norm>
-1.01252

>  <RMSD>
2.205

$$$$
ligand
 OpenBabel11021811503D
libRbt.so/2013.1/901 2013/11/27
 12 12  0  0  0  0  0  0  0  0999 V2000
   10.1589   13.6699  147.9470 C   0  0  0  0  0  0  0  0  0  0  0  0
   12.6226    9.1626  145.9518 C   0  0  0  0  0  0  0  0  0  0  0  0
    9.5663   11.1941  148.8810 N   0  0  0  0  0  0  0  0  0  0  0  0
   10.7365   13.7994  149.2930 N   0  0  0  0  0  0  0  0  0  0  0  0
   10.2905   14.5886  149.9572 N   0  0  0  0  0  0  0  0  0  0  0  0
    9.8394   15.3731  150.6201 N   0  0  0  0  0  0  0  0  0  0  0  0
   12.3188   11.4958  145.9432 N   0  0  0  0  0  0  0  0  0  0  0  0
   12.0008   10.2979  146.4569 C   0  0  0  0  0  0  0  0  0  0  0  0
   11.0413   10.1840  147.3862 N   0  0  0  0  0  0  0  0  0  0  0  0
   10.3782   11.2603  147.8300 C   0  0  0  0  0  0  0  0  0  0  0  0
   10.6600   12.5286  147.3323 C   0  0  0  0  0  0  0  0  0  0  0  0
   11.6459   12.6482  146.3628 C   0  0  0  0  0  0  0  0  0  0  0  0
  1 11  1  0  0  0  0
  1  4  1  0  0  0  0
  2  8  1  0  0  0  0
  3 10  1  0  0  0  0
  4  5  1  0  0  0  0
  5  6  1  0  0  0  0
  7  8  2  0  0  0  0
  7 12  1  0  0  0  0
  8  9  1  0  0  0  0
  9 10  2  0  0  0  0
 10 11  1  0  0  0  0
 11 12  2  0  0  0  0
M  END
>  <CHROM.1>
64.95733212,-170.54000529,63.71874938,10.93737412,12.18920618,147.85950305
-2.13879390,-0.92068715,-2.93452678

>  <Name>
ligand

>  <RI>
0

>  <Rbt.Current_Directory>
/home/itssahil/PROJECTS/Mol_Feturizer/New_Systems/rnas/4NYA

>  <Rbt.Executable>
rbdock ($Id: //depot/dev/client3/rdock/2013.1/src/exe/rbdock.cxx#4 $)

>  <Rbt.Library>
libRbt.so (2013.1, Build901 2013/11/27)

>  <Rbt.Parameter_File>
/export/apps/rDock/src/rDock_2013.1_src/data/scripts/dock_solv.prm

>  <Rbt.Receptor>
prm/pocket_docking_7.prm

>  <SCORE>
-12.1317

>  <SCORE.INTER>
-12.3162

>  <SCORE.INTER.CONST>
1

>  <SCORE.INTER.POLAR>
0

>  <SCORE.INTER.ROT>
3

>  <SCORE.INTER.SOLV>
8.74624

>  <SCORE.INTER.VDW>
-16.7262

>  <SCORE.INTER.norm>
-1.02635

>  <SCORE.INTRA>
0.184482

>  <SCORE.INTRA.DIHEDRAL>
-0.658817

>  <SCORE.INTRA.DIHEDRAL.0>
2.1382

>  <SCORE.INTRA.POLAR>
0

>  <SCORE.INTRA.POLAR.0>
0

>  <SCORE.INTRA.REPUL>
0

>  <SCORE.INTRA.REPUL.0>
0

>  <SCORE.INTRA.SOLV>
1.16447

>  <SCORE.INTRA.SOLV.lig_0>
-59.6513

>  <SCORE.INTRA.VDW>
-0.0683438

>  <SCORE.INTRA.VDW.0>
-0.569808

>  <SCORE.INTRA.norm>
0.0153735

>  <SCORE.RESTR>
0

>  <SCORE.RESTR.CAVITY>
0

>  <SCORE.RESTR.norm>
0

>  <SCORE.SYSTEM>
0

>  <SCORE.SYSTEM.CONST>
0

>  <SCORE.SYSTEM.DIHEDRAL>
0

>  <SCORE.SYSTEM.SOLV>
0

>  <SCORE.SYSTEM.norm>
0

>  <SCORE.heavy>
12

>  <SCORE.norm>
-1.01098

>  <RMSD>
2.206

$$$$
ligand
 OpenBabel11021811503D
libRbt.so/2013.1/901 2013/11/27
 12 12  0  0  0  0  0  0  0  0999 V2000
   10.6408   13.1579  148.0471 C   0  0  0  0  0  0  0  0  0  0  0  0
   12.7178    8.6768  145.6032 C   0  0  0  0  0  0  0  0  0  0  0  0
   10.8067   10.7805  149.3409 N   0  0  0  0  0  0  0  0  0  0  0  0
    9.3144   12.9743  148.6546 N   0  0  0  0  0  0  0  0  0  0  0  0
    9.0156   13.7175  149.4427 N   0  0  0  0  0  0  0  0  0  0  0  0
    8.7230   14.4579  150.2329 N   0  0  0  0  0  0  0  0  0  0  0  0
   12.1184   10.9509  145.5267 N   0  0  0  0  0  0  0  0  0  0  0  0
   12.1945    9.8057  146.2216 C   0  0  0  0  0  0  0  0  0  0  0  0
   11.7012    9.7253  147.4656 N   0  0  0  0  0  0  0  0  0  0  0  0
   11.1244   10.7843  148.0497 C   0  0  0  0  0  0  0  0  0  0  0  0
   11.0122   11.9976  147.3782 C   0  0  0  0  0  0  0  0  0  0  0  0
   11.5129   12.0808  146.0865 C   0  0  0  0  0  0  0  0  0  0  0  0
  1 11  1  0  0  0  0
  1  4  1  0  0  0  0
  2  8  1  0  0  0  0
  3 10  1  0  0  0  0
  4  5  1  0  0  0  0
  5  6  1  0  0  0  0
  7  8  2  0  0  0  0
  7 12  1  0  0  0  0
  8  9  1  0  0  0  0
  9 10  2  0  0  0  0
 10 11  1  0  0  0  0
 11 12  2  0  0  0  0
M  END
>  <CHROM.1>
-59.50391334,164.17623614,-55.46746581,10.89087986,11.59510882,147.69417497
-3.01842795,-1.03647541,2.41922158

>  <Name>
ligand

>  <RI>
0

>  <Rbt.Current_Directory>
/home/itssahil/PROJECTS/Mol_Feturizer/New_Systems/rnas/4NYA

>  <Rbt.Executable>
rbdock ($Id: //depot/dev/client3/rdock/2013.1/src/exe/rbdock.cxx#4 $)

>  <Rbt.Library>
libRbt.so (2013.1, Build901 2013/11/27)

>  <Rbt.Parameter_File>
/export/apps/rDock/src/rDock_2013.1_src/data/scripts/dock_solv.prm

>  <Rbt.Receptor>
prm/pocket_docking_5.prm

>  <SCORE>
-11.6679

>  <SCORE.INTER>
-12.4159

>  <SCORE.INTER.CONST>
1

>  <SCORE.INTER.POLAR>
0

>  <SCORE.INTER.ROT>
3

>  <SCORE.INTER.SOLV>
11.9109

>  <SCORE.INTER.VDW>
-17.8475

>  <SCORE.INTER.norm>
-1.03466

>  <SCORE.INTRA>
0.747969

>  <SCORE.INTRA.DIHEDRAL>
-0.427239

>  <SCORE.INTRA.DIHEDRAL.0>
2.1382

>  <SCORE.INTRA.POLAR>
0

>  <SCORE.INTRA.POLAR.0>
0

>  <SCORE.INTRA.REPUL>
0

>  <SCORE.INTRA.REPUL.0>
0

>  <SCORE.INTRA.SOLV>
1.74204

>  <SCORE.INTRA.SOLV.lig_0>
-59.6513

>  <SCORE.INTRA.VDW>
0.0905677

>  <SCORE.INTRA.VDW.0>
-0.569808

>  <SCORE.INTRA.norm>
0.0623308

>  <SCORE.RESTR>
0

>  <SCORE.RESTR.CAVITY>
0

>  <SCORE.RESTR.norm>
0

>  <SCORE.SYSTEM>
0

>  <SCORE.SYSTEM.CONST>
0

>  <SCORE.SYSTEM.DIHEDRAL>
0

>  <SCORE.SYSTEM.SOLV>
0

>  <SCORE.SYSTEM.norm>
0

>  <SCORE.heavy>
12

>  <SCORE.norm>
-0.972326

>  <RMSD>
2.207

$$$$
ligand
 OpenBabel11021811503D
libRbt.so/2013.1/901 2013/11/27
 12 12  0  0  0  0  0  0  0  0999 V2000
   10.1723   13.6509  147.9484 C   0  0  0  0  0  0  0  0  0  0  0  0
   12.6894    9.1866  145.9234 C   0  0  0  0  0  0  0  0  0  0  0  0
    9.5400   11.1543  148.7971 N   0  0  0  0  0  0  0  0  0  0  0  0
   10.7249   13.7587  149.3068 N   0  0  0  0  0  0  0  0  0  0  0  0
   10.3239   14.5901  149.9476 N   0  0  0  0  0  0  0  0  0  0  0  0
    9.9259   15.4246  150.5829 N   0  0  0  0  0  0  0  0  0  0  0  0
   12.3933   11.5205  145.9647 N   0  0  0  0  0  0  0  0  0  0  0  0
   12.0540   10.3110  146.4360 C   0  0  0  0  0  0  0  0  0  0  0  0
   11.0626   10.1770  147.3284 N   0  0  0  0  0  0  0  0  0  0  0  0
   10.3879   11.2443  147.7767 C   0  0  0  0  0  0  0  0  0  0  0  0
   10.6907   12.5238  147.3220 C   0  0  0  0  0  0  0  0  0  0  0  0
   11.7099   12.6644  146.3905 C   0  0  0  0  0  0  0  0  0  0  0  0
  1 11  1  0  0  0  0
  1  4  1  0  0  0  0
  2  8  1  0  0  0  0
  3 10  1  0  0  0  0
  4  5  1  0  0  0  0
  5  6  1  0  0  0  0
  7  8  2  0  0  0  0
  7 12  1  0  0  0  0
  8  9  1  0  0  0  0
  9 10  2  0  0  0  0
 10 11  1  0  0  0  0
 11 12  2  0  0  0  0
M  END
>  <CHROM.1>
66.12148828,-175.59741202,-60.40076244,10.97197136,12.18957446,147.83943410
-2.10155052,-0.87120059,-2.88824144

>  <Name>
ligand

>  <RI>
0

>  <Rbt.Current_Directory>
/home/itssahil/PROJECTS/Mol_Feturizer/New_Systems/rnas/4NYA

>  <Rbt.Executable>
rbdock ($Id: //depot/dev/client3/rdock/2013.1/src/exe/rbdock.cxx#4 $)

>  <Rbt.Library>
libRbt.so (2013.1, Build901 2013/11/27)

>  <Rbt.Parameter_File>
/export/apps/rDock/src/rDock_2013.1_src/data/scripts/dock_solv.prm

>  <Rbt.Receptor>
prm/pocket_docking_8.prm

>  <SCORE>
-12.1653

>  <SCORE.INTER>
-12.23

>  <SCORE.INTER.CONST>
1

>  <SCORE.INTER.POLAR>
0

>  <SCORE.INTER.ROT>
3

>  <SCORE.INTER.SOLV>
9.08978

>  <SCORE.INTER.VDW>
-16.7832

>  <SCORE.INTER.norm>
-1.01916

>  <SCORE.INTRA>
0.0647172

>  <SCORE.INTRA.DIHEDRAL>
-0.744577

>  <SCORE.INTRA.DIHEDRAL.0>
2.1382

>  <SCORE.INTRA.POLAR>
0

>  <SCORE.INTRA.POLAR.0>
0

>  <SCORE.INTRA.REPUL>
0

>  <SCORE.INTRA.REPUL.0>
0

>  <SCORE.INTRA.SOLV>
1.01591

>  <SCORE.INTRA.SOLV.lig_0>
-59.6513

>  <SCORE.INTRA.VDW>
-0.0709511

>  <SCORE.INTRA.VDW.0>
-0.569808

>  <SCORE.INTRA.norm>
0.0053931

>  <SCORE.RESTR>
0

>  <SCORE.RESTR.CAVITY>
0

>  <SCORE.RESTR.norm>
0

>  <SCORE.SYSTEM>
0

>  <SCORE.SYSTEM.CONST>
0

>  <SCORE.SYSTEM.DIHEDRAL>
0

>  <SCORE.SYSTEM.SOLV>
0

>  <SCORE.SYSTEM.norm>
0

>  <SCORE.heavy>
12

>  <SCORE.norm>
-1.01377

>  <RMSD>
2.217

$$$$
ligand
 OpenBabel11021811503D
libRbt.so/2013.1/901 2013/11/27
 12 12  0  0  0  0  0  0  0  0999 V2000
   10.2595   13.5911  147.8649 C   0  0  0  0  0  0  0  0  0  0  0  0
   12.6541    9.0456  145.8723 C   0  0  0  0  0  0  0  0  0  0  0  0
    9.5440   11.1176  148.7152 N   0  0  0  0  0  0  0  0  0  0  0  0
   10.7125   13.6272  149.2634 N   0  0  0  0  0  0  0  0  0  0  0  0
   10.3557   14.4927  149.8848 N   0  0  0  0  0  0  0  0  0  0  0  0
   10.0023   15.3612  150.5007 N   0  0  0  0  0  0  0  0  0  0  0  0
   12.4297   11.3876  145.9049 N   0  0  0  0  0  0  0  0  0  0  0  0
   12.0496   10.1905  146.3767 C   0  0  0  0  0  0  0  0  0  0  0  0
   11.0474   10.0897  147.2614 N   0  0  0  0  0  0  0  0  0  0  0  0
   10.4024   11.1785  147.7015 C   0  0  0  0  0  0  0  0  0  0  0  0
   10.7480   12.4467  147.2458 C   0  0  0  0  0  0  0  0  0  0  0  0
   11.7784   12.5532  146.3221 C   0  0  0  0  0  0  0  0  0  0  0  0
  1 11  1  0  0  0  0
  1  4  1  0  0  0  0
  2  8  1  0  0  0  0
  3 10  1  0  0  0  0
  4  5  1  0  0  0  0
  5  6  1  0  0  0  0
  7  8  2  0  0  0  0
  7 12  1  0  0  0  0
  8  9  1  0  0  0  0
  9 10  2  0  0  0  0
 10 11  1  0  0  0  0
 11 12  2  0  0  0  0
M  END
>  <CHROM.1>
61.37075911,-178.16246940,-58.05496548,10.99691291,12.09556080,147.77205853
-2.08355934,-0.86651527,-2.87593566

>  <Name>
ligand

>  <RI>
0

>  <Rbt.Current_Directory>
/home/itssahil/PROJECTS/Mol_Feturizer/New_Systems/rnas/4NYA

>  <Rbt.Executable>
rbdock ($Id: //depot/dev/client3/rdock/2013.1/src/exe/rbdock.cxx#4 $)

>  <Rbt.Library>
libRbt.so (2013.1, Build901 2013/11/27)

>  <Rbt.Parameter_File>
/export/apps/rDock/src/rDock_2013.1_src/data/scripts/dock_solv.prm

>  <Rbt.Receptor>
prm/pocket_docking_6.prm

>  <SCORE>
-12.1771

>  <SCORE.INTER>
-12.4389

>  <SCORE.INTER.CONST>
1

>  <SCORE.INTER.POLAR>
0

>  <SCORE.INTER.ROT>
3

>  <SCORE.INTER.SOLV>
9.33658

>  <SCORE.INTER.VDW>
-17.0048

>  <SCORE.INTER.norm>
-1.03657

>  <SCORE.INTRA>
0.261759

>  <SCORE.INTRA.DIHEDRAL>
-0.645439

>  <SCORE.INTRA.DIHEDRAL.0>
2.1382

>  <SCORE.INTRA.POLAR>
0

>  <SCORE.INTRA.POLAR.0>
0

>  <SCORE.INTRA.REPUL>
0

>  <SCORE.INTRA.REPUL.0>
0

>  <SCORE.INTRA.SOLV>
1.19885

>  <SCORE.INTRA.SOLV.lig_0>
-59.6513

>  <SCORE.INTRA.VDW>
-0.0149469

>  <SCORE.INTRA.VDW.0>
-0.569808

>  <SCORE.INTRA.norm>
0.0218133

>  <SCORE.RESTR>
0

>  <SCORE.RESTR.CAVITY>
0

>  <SCORE.RESTR.norm>
0

>  <SCORE.SYSTEM>
0

>  <SCORE.SYSTEM.CONST>
0

>  <SCORE.SYSTEM.DIHEDRAL>
0

>  <SCORE.SYSTEM.SOLV>
0

>  <SCORE.SYSTEM.norm>
0

>  <SCORE.heavy>
12

>  <SCORE.norm>
-1.01476

>  <RMSD>
2.219

$$$$
ligand
 OpenBabel11021811503D
libRbt.so/2013.1/901 2013/11/27
 12 12  0  0  0  0  0  0  0  0999 V2000
   10.1331   13.6855  147.9585 C   0  0  0  0  0  0  0  0  0  0  0  0
   12.6457    9.2034  145.9674 C   0  0  0  0  0  0  0  0  0  0  0  0
    9.5651   11.2040  148.8926 N   0  0  0  0  0  0  0  0  0  0  0  0
   10.7189   13.8294  149.2996 N   0  0  0  0  0  0  0  0  0  0  0  0
   10.3054   14.6530  149.9426 N   0  0  0  0  0  0  0  0  0  0  0  0
    9.8867   15.4720  150.5848 N   0  0  0  0  0  0  0  0  0  0  0  0
   12.3177   11.5334  145.9578 N   0  0  0  0  0  0  0  0  0  0  0  0
   12.0115   10.3323  146.4715 C   0  0  0  0  0  0  0  0  0  0  0  0
   11.0521   10.2087  147.3997 N   0  0  0  0  0  0  0  0  0  0  0  0
   10.3774   11.2783  147.8424 C   0  0  0  0  0  0  0  0  0  0  0  0
   10.6467   12.5492  147.3447 C   0  0  0  0  0  0  0  0  0  0  0  0
   11.6324   12.6788  146.3764 C   0  0  0  0  0  0  0  0  0  0  0  0
  1 11  1  0  0  0  0
  1  4  1  0  0  0  0
  2  8  1  0  0  0  0
  3 10  1  0  0  0  0
  4  5  1  0  0  0  0
  5  6  1  0  0  0  0
  7  8  2  0  0  0  0
  7 12  1  0  0  0  0
  8  9  1  0  0  0  0
  9 10  2  0  0  0  0
 10 11  1  0  0  0  0
 11 12  2  0  0  0  0
M  END
>  <CHROM.1>
65.57013780,-173.90446122,66.85307536,10.94065323,12.22517625,147.86560609
-2.12821123,-0.91285120,-2.93193691

>  <Name>
ligand

>  <RI>
0

>  <Rbt.Current_Directory>
/home/itssahil/PROJECTS/Mol_Feturizer/New_Systems/rnas/4NYA

>  <Rbt.Executable>
rbdock ($Id: //depot/dev/client3/rdock/2013.1/src/exe/rbdock.cxx#4 $)

>  <Rbt.Library>
libRbt.so (2013.1, Build901 2013/11/27)

>  <Rbt.Parameter_File>
/export/apps/rDock/src/rDock_2013.1_src/data/scripts/dock_solv.prm

>  <Rbt.Receptor>
prm/pocket_docking_6.prm

>  <SCORE>
-12.1016

>  <SCORE.INTER>
-12.2163

>  <SCORE.INTER.CONST>
1

>  <SCORE.INTER.POLAR>
0

>  <SCORE.INTER.ROT>
3

>  <SCORE.INTER.SOLV>
8.76097

>  <SCORE.INTER.VDW>
-16.6645

>  <SCORE.INTER.norm>
-1.01803

>  <SCORE.INTRA>
0.114676

>  <SCORE.INTRA.DIHEDRAL>
-0.705376

>  <SCORE.INTRA.DIHEDRAL.0>
2.1382

>  <SCORE.INTRA.POLAR>
0

>  <SCORE.INTRA.POLAR.0>
0

>  <SCORE.INTRA.REPUL>
0

>  <SCORE.INTRA.REPUL.0>
0

>  <SCORE.INTRA.SOLV>
1.07232

>  <SCORE.INTRA.SOLV.lig_0>
-59.6513

>  <SCORE.INTRA.VDW>
-0.0687945

>  <SCORE.INTRA.VDW.0>
-0.569808

>  <SCORE.INTRA.norm>
0.0095563

>  <SCORE.RESTR>
0

>  <SCORE.RESTR.CAVITY>
0

>  <SCORE.RESTR.norm>
0

>  <SCORE.SYSTEM>
0

>  <SCORE.SYSTEM.CONST>
0

>  <SCORE.SYSTEM.DIHEDRAL>
0

>  <SCORE.SYSTEM.SOLV>
0

>  <SCORE.SYSTEM.norm>
0

>  <SCORE.heavy>
12

>  <SCORE.norm>
-1.00847

>  <RMSD>
2.225

$$$$
ligand
 OpenBabel11021811503D
libRbt.so/2013.1/901 2013/11/27
 12 12  0  0  0  0  0  0  0  0999 V2000
   10.1550   13.6685  147.9614 C   0  0  0  0  0  0  0  0  0  0  0  0
   12.6113    9.1607  145.9584 C   0  0  0  0  0  0  0  0  0  0  0  0
    9.5467   11.1907  148.8799 N   0  0  0  0  0  0  0  0  0  0  0  0
   10.7467   13.8043  149.3007 N   0  0  0  0  0  0  0  0  0  0  0  0
   10.3472   14.6340  149.9446 N   0  0  0  0  0  0  0  0  0  0  0  0
    9.9502   15.4669  150.5827 N   0  0  0  0  0  0  0  0  0  0  0  0
   12.3173   11.4952  145.9595 N   0  0  0  0  0  0  0  0  0  0  0  0
   11.9913   10.2961  146.4655 C   0  0  0  0  0  0  0  0  0  0  0  0
   11.0260   10.1817  147.3887 N   0  0  0  0  0  0  0  0  0  0  0  0
   10.3649   11.2587  147.8339 C   0  0  0  0  0  0  0  0  0  0  0  0
   10.6548   12.5281  147.3441 C   0  0  0  0  0  0  0  0  0  0  0  0
   11.6468   12.6484  146.3808 C   0  0  0  0  0  0  0  0  0  0  0  0
  1 11  1  0  0  0  0
  1  4  1  0  0  0  0
  2  8  1  0  0  0  0
  3 10  1  0  0  0  0
  4  5  1  0  0  0  0
  5  6  1  0  0  0  0
  7  8  2  0  0  0  0
  7 12  1  0  0  0  0
  8  9  1  0  0  0  0
  9 10  2  0  0  0  0
 10 11  1  0  0  0  0
 11 12  2  0  0  0  0
M  END
>  <CHROM.1>
66.13028728,-174.17810796,-58.06006004,10.94624493,12.20061409,147.86238972
-2.09846781,-0.90216343,-2.90476604

>  <Name>
ligand

>  <RI>
0

>  <Rbt.Current_Directory>
/home/itssahil/PROJECTS/Mol_Feturizer/New_Systems/rnas/4NYA

>  <Rbt.Executable>
rbdock ($Id: //depot/dev/client3/rdock/2013.1/src/exe/rbdock.cxx#4 $)

>  <Rbt.Library>
libRbt.so (2013.1, Build901 2013/11/27)

>  <Rbt.Parameter_File>
/export/apps/rDock/src/rDock_2013.1_src/data/scripts/dock_solv.prm

>  <Rbt.Receptor>
prm/pocket_docking_4.prm

>  <SCORE>
-12.1714

>  <SCORE.INTER>
-12.2529

>  <SCORE.INTER.CONST>
1

>  <SCORE.INTER.POLAR>
0

>  <SCORE.INTER.ROT>
3

>  <SCORE.INTER.SOLV>
8.83342

>  <SCORE.INTER.VDW>
-16.7131

>  <SCORE.INTER.norm>
-1.02108

>  <SCORE.INTRA>
0.081578

>  <SCORE.INTRA.DIHEDRAL>
-0.73199

>  <SCORE.INTRA.DIHEDRAL.0>
2.1382

>  <SCORE.INTRA.POLAR>
0

>  <SCORE.INTRA.POLAR.0>
0

>  <SCORE.INTRA.REPUL>
0

>  <SCORE.INTRA.REPUL.0>
0

>  <SCORE.INTRA.SOLV>
1.04092

>  <SCORE.INTRA.SOLV.lig_0>
-59.6513

>  <SCORE.INTRA.VDW>
-0.0728884

>  <SCORE.INTRA.VDW.0>
-0.569808

>  <SCORE.INTRA.norm>
0.00679817

>  <SCORE.RESTR>
0

>  <SCORE.RESTR.CAVITY>
0

>  <SCORE.RESTR.norm>
0

>  <SCORE.SYSTEM>
0

>  <SCORE.SYSTEM.CONST>
0

>  <SCORE.SYSTEM.DIHEDRAL>
0

>  <SCORE.SYSTEM.SOLV>
0

>  <SCORE.SYSTEM.norm>
0

>  <SCORE.heavy>
12

>  <SCORE.norm>
-1.01428

>  <RMSD>
2.228

$$$$
ligand
 OpenBabel11021811503D
libRbt.so/2013.1/901 2013/11/27
 12 12  0  0  0  0  0  0  0  0999 V2000
   10.1877   13.6871  147.9194 C   0  0  0  0  0  0  0  0  0  0  0  0
   12.6849    9.1819  145.9614 C   0  0  0  0  0  0  0  0  0  0  0  0
    9.5718   11.2094  148.8331 N   0  0  0  0  0  0  0  0  0  0  0  0
   10.7551   13.8238  149.2690 N   0  0  0  0  0  0  0  0  0  0  0  0
   10.3446   14.6546  149.9047 N   0  0  0  0  0  0  0  0  0  0  0  0
    9.9392   15.4823  150.5442 N   0  0  0  0  0  0  0  0  0  0  0  0
   12.3851   11.5157  145.9539 N   0  0  0  0  0  0  0  0  0  0  0  0
   12.0546   10.3166  146.4571 C   0  0  0  0  0  0  0  0  0  0  0  0
   11.0758   10.2014  147.3659 N   0  0  0  0  0  0  0  0  0  0  0  0
   10.4054   11.2775  147.7993 C   0  0  0  0  0  0  0  0  0  0  0  0
   10.6995   12.5468  147.3116 C   0  0  0  0  0  0  0  0  0  0  0  0
   11.7055   12.6679  146.3631 C   0  0  0  0  0  0  0  0  0  0  0  0
  1 11  1  0  0  0  0
  1  4  1  0  0  0  0
  2  8  1  0  0  0  0
  3 10  1  0  0  0  0
  4  5  1  0  0  0  0
  5  6  1  0  0  0  0
  7  8  2  0  0  0  0
  7 12  1  0  0  0  0
  8  9  1  0  0  0  0
  9 10  2  0  0  0  0
 10 11  1  0  0  0  0
 11 12  2  0  0  0  0
M  END
>  <CHROM.1>
65.91660448,-174.27945593,-177.66872274,10.98334466,12.21992946,147.83595460
-2.10923992,-0.88922299,-2.91415573

>  <Name>
ligand

>  <RI>
0

>  <Rbt.Current_Directory>
/home/itssahil/PROJECTS/Mol_Feturizer/New_Systems/rnas/4NYA

>  <Rbt.Executable>
rbdock ($Id: //depot/dev/client3/rdock/2013.1/src/exe/rbdock.cxx#4 $)

>  <Rbt.Library>
libRbt.so (2013.1, Build901 2013/11/27)

>  <Rbt.Parameter_File>
/export/apps/rDock/src/rDock_2013.1_src/data/scripts/dock_solv.prm

>  <Rbt.Receptor>
prm/pocket_docking_7.prm

>  <SCORE>
-12.1344

>  <SCORE.INTER>
-12.2204

>  <SCORE.INTER.CONST>
1

>  <SCORE.INTER.POLAR>
0

>  <SCORE.INTER.ROT>
3

>  <SCORE.INTER.SOLV>
9.02678

>  <SCORE.INTER.VDW>
-16.7559

>  <SCORE.INTER.norm>
-1.01837

>  <SCORE.INTRA>
0.0860528

>  <SCORE.INTRA.DIHEDRAL>
-0.72783

>  <SCORE.INTRA.DIHEDRAL.0>
2.1382

>  <SCORE.INTRA.POLAR>
0

>  <SCORE.INTRA.POLAR.0>
0

>  <SCORE.INTRA.REPUL>
0

>  <SCORE.INTRA.REPUL.0>
0

>  <SCORE.INTRA.SOLV>
1.04497

>  <SCORE.INTRA.SOLV.lig_0>
-59.6513

>  <SCORE.INTRA.VDW>
-0.0725146

>  <SCORE.INTRA.VDW.0>
-0.569808

>  <SCORE.INTRA.norm>
0.00717107

>  <SCORE.RESTR>
0

>  <SCORE.RESTR.CAVITY>
0

>  <SCORE.RESTR.norm>
0

>  <SCORE.SYSTEM>
0

>  <SCORE.SYSTEM.CONST>
0

>  <SCORE.SYSTEM.DIHEDRAL>
0

>  <SCORE.SYSTEM.SOLV>
0

>  <SCORE.SYSTEM.norm>
0

>  <SCORE.heavy>
12

>  <SCORE.norm>
-1.0112

>  <RMSD>
2.233

$$$$
ligand
 OpenBabel11021811503D
libRbt.so/2013.1/901 2013/11/27
 12 12  0  0  0  0  0  0  0  0999 V2000
   10.1386   13.7000  147.9567 C   0  0  0  0  0  0  0  0  0  0  0  0
   12.6468    9.2294  145.9343 C   0  0  0  0  0  0  0  0  0  0  0  0
    9.5795   11.2140  148.8842 N   0  0  0  0  0  0  0  0  0  0  0  0
   10.7190   13.8304  149.3014 N   0  0  0  0  0  0  0  0  0  0  0  0
   10.3320   14.6732  149.9360 N   0  0  0  0  0  0  0  0  0  0  0  0
    9.9476   15.5190  150.5646 N   0  0  0  0  0  0  0  0  0  0  0  0
   12.3152   11.5589  145.9356 N   0  0  0  0  0  0  0  0  0  0  0  0
   12.0138   10.3554  146.4463 C   0  0  0  0  0  0  0  0  0  0  0  0
   11.0597   10.2268  147.3793 N   0  0  0  0  0  0  0  0  0  0  0  0
   10.3859   11.2936  147.8299 C   0  0  0  0  0  0  0  0  0  0  0  0
   10.6505   12.5669  147.3357 C   0  0  0  0  0  0  0  0  0  0  0  0
   11.6306   12.7017  146.3623 C   0  0  0  0  0  0  0  0  0  0  0  0
  1 11  1  0  0  0  0
  1  4  1  0  0  0  0
  2  8  1  0  0  0  0
  3 10  1  0  0  0  0
  4  5  1  0  0  0  0
  5  6  1  0  0  0  0
  7  8  2  0  0  0  0
  7 12  1  0  0  0  0
  8  9  1  0  0  0  0
  9 10  2  0  0  0  0
 10 11  1  0  0  0  0
 11 12  2  0  0  0  0
M  END
>  <CHROM.1>
64.87680260,-176.02797184,-58.01462413,10.95149012,12.24534594,147.85123248
-2.11966773,-0.91592758,-2.92399079

>  <Name>
ligand

>  <RI>
0

>  <Rbt.Current_Directory>
/home/itssahil/PROJECTS/Mol_Feturizer/New_Systems/rnas/4NYA

>  <Rbt.Executable>
rbdock ($Id: //depot/dev/client3/rdock/2013.1/src/exe/rbdock.cxx#4 $)

>  <Rbt.Library>
libRbt.so (2013.1, Build901 2013/11/27)

>  <Rbt.Parameter_File>
/export/apps/rDock/src/rDock_2013.1_src/data/scripts/dock_solv.prm

>  <Rbt.Receptor>
prm/pocket_docking_5.prm

>  <SCORE>
-12.1046

>  <SCORE.INTER>
-12.22

>  <SCORE.INTER.CONST>
1

>  <SCORE.INTER.POLAR>
0

>  <SCORE.INTER.ROT>
3

>  <SCORE.INTER.SOLV>
8.78953

>  <SCORE.INTER.VDW>
-16.6765

>  <SCORE.INTER.norm>
-1.01833

>  <SCORE.INTRA>
0.11535

>  <SCORE.INTRA.DIHEDRAL>
-0.718875

>  <SCORE.INTRA.DIHEDRAL.0>
2.1382

>  <SCORE.INTRA.POLAR>
0

>  <SCORE.INTRA.POLAR.0>
0

>  <SCORE.INTRA.REPUL>
0

>  <SCORE.INTRA.REPUL.0>
0

>  <SCORE.INTRA.SOLV>
1.06814

>  <SCORE.INTRA.SOLV.lig_0>
-59.6513

>  <SCORE.INTRA.VDW>
-0.0592834

>  <SCORE.INTRA.VDW.0>
-0.569808

>  <SCORE.INTRA.norm>
0.00961249

>  <SCORE.RESTR>
0

>  <SCORE.RESTR.CAVITY>
0

>  <SCORE.RESTR.norm>
0

>  <SCORE.SYSTEM>
0

>  <SCORE.SYSTEM.CONST>
0

>  <SCORE.SYSTEM.DIHEDRAL>
0

>  <SCORE.SYSTEM.SOLV>
0

>  <SCORE.SYSTEM.norm>
0

>  <SCORE.heavy>
12

>  <SCORE.norm>
-1.00872

>  <RMSD>
2.235

$$$$
ligand
 OpenBabel11021811503D
libRbt.so/2013.1/901 2013/11/27
 12 12  0  0  0  0  0  0  0  0999 V2000
   10.1607   13.6777  147.9563 C   0  0  0  0  0  0  0  0  0  0  0  0
   12.6106    9.1634  145.9598 C   0  0  0  0  0  0  0  0  0  0  0  0
    9.5480   11.2020  148.8775 N   0  0  0  0  0  0  0  0  0  0  0  0
   10.7645   13.8230  149.2891 N   0  0  0  0  0  0  0  0  0  0  0  0
   10.3716   14.6581  149.9302 N   0  0  0  0  0  0  0  0  0  0  0  0
    9.9733   15.4888  150.5702 N   0  0  0  0  0  0  0  0  0  0  0  0
   12.3204   11.4984  145.9579 N   0  0  0  0  0  0  0  0  0  0  0  0
   11.9922   10.3004  146.4652 C   0  0  0  0  0  0  0  0  0  0  0  0
   11.0263   10.1887  147.3881 N   0  0  0  0  0  0  0  0  0  0  0  0
   10.3667   11.2673  147.8317 C   0  0  0  0  0  0  0  0  0  0  0  0
   10.6590   12.5357  147.3405 C   0  0  0  0  0  0  0  0  0  0  0  0
   11.6516   12.6531  146.3776 C   0  0  0  0  0  0  0  0  0  0  0  0
  1 11  1  0  0  0  0
  1  4  1  0  0  0  0
  2  8  1  0  0  0  0
  3 10  1  0  0  0  0
  4  5  1  0  0  0  0
  5  6  1  0  0  0  0
  7  8  2  0  0  0  0
  7 12  1  0  0  0  0
  8  9  1  0  0  0  0
  9 10  2  0  0  0  0
 10 11  1  0  0  0  0
 11 12  2  0  0  0  0
M  END
>  <CHROM.1>
66.81860885,-174.47668076,62.88328812,10.95363923,12.21104674,147.85765525
-2.08945935,-0.89866187,-2.89971028

>  <Name>
ligand

>  <RI>
0

>  <Rbt.Current_Directory>
/home/itssahil/PROJECTS/Mol_Feturizer/New_Systems/rnas/4NYA

>  <Rbt.Executable>
rbdock ($Id: //depot/dev/client3/rdock/2013.1/src/exe/rbdock.cxx#4 $)

>  <Rbt.Library>
libRbt.so (2013.1, Build901 2013/11/27)

>  <Rbt.Parameter_File>
/export/apps/rDock/src/rDock_2013.1_src/data/scripts/dock_solv.prm

>  <Rbt.Receptor>
prm/pocket_docking_7.prm

>  <SCORE>
-12.1725

>  <SCORE.INTER>
-12.2214

>  <SCORE.INTER.CONST>
1

>  <SCORE.INTER.POLAR>
0

>  <SCORE.INTER.ROT>
3

>  <SCORE.INTER.SOLV>
8.87179

>  <SCORE.INTER.VDW>
-16.7049

>  <SCORE.INTER.norm>
-1.01845

>  <SCORE.INTRA>
0.0489662

>  <SCORE.INTRA.DIHEDRAL>
-0.74821

>  <SCORE.INTRA.DIHEDRAL.0>
2.1382

>  <SCORE.INTRA.POLAR>
0

>  <SCORE.INTRA.POLAR.0>
0

>  <SCORE.INTRA.REPUL>
0

>  <SCORE.INTRA.REPUL.0>
0

>  <SCORE.INTRA.SOLV>
1.00228

>  <SCORE.INTRA.SOLV.lig_0>
-59.6513

>  <SCORE.INTRA.VDW>
-0.0780666

>  <SCORE.INTRA.VDW.0>
-0.569808

>  <SCORE.INTRA.norm>
0.00408052

>  <SCORE.RESTR>
0

>  <SCORE.RESTR.CAVITY>
0

>  <SCORE.RESTR.norm>
0

>  <SCORE.SYSTEM>
0

>  <SCORE.SYSTEM.CONST>
0

>  <SCORE.SYSTEM.DIHEDRAL>
0

>  <SCORE.SYSTEM.SOLV>
0

>  <SCORE.SYSTEM.norm>
0

>  <SCORE.heavy>
12

>  <SCORE.norm>
-1.01437

>  <RMSD>
2.235

$$$$
ligand
 OpenBabel11021811503D
libRbt.so/2013.1/901 2013/11/27
 12 12  0  0  0  0  0  0  0  0999 V2000
   10.2846   13.5990  147.8591 C   0  0  0  0  0  0  0  0  0  0  0  0
   12.6354    9.0319  145.8638 C   0  0  0  0  0  0  0  0  0  0  0  0
    9.5615   11.1330  148.7246 N   0  0  0  0  0  0  0  0  0  0  0  0
   10.7186   13.6193  149.2639 N   0  0  0  0  0  0  0  0  0  0  0  0
   10.4707   14.5435  149.8529 N   0  0  0  0  0  0  0  0  0  0  0  0
   10.2165   15.4647  150.4404 N   0  0  0  0  0  0  0  0  0  0  0  0
   12.4252   11.3753  145.8894 N   0  0  0  0  0  0  0  0  0  0  0  0
   12.0419   10.1822  146.3689 C   0  0  0  0  0  0  0  0  0  0  0  0
   11.0466   10.0908  147.2623 N   0  0  0  0  0  0  0  0  0  0  0  0
   10.4117   11.1850  147.7035 C   0  0  0  0  0  0  0  0  0  0  0  0
   10.7611   12.4494  147.2402 C   0  0  0  0  0  0  0  0  0  0  0  0
   11.7844   12.5463  146.3077 C   0  0  0  0  0  0  0  0  0  0  0  0
  1 11  1  0  0  0  0
  1  4  1  0  0  0  0
  2  8  1  0  0  0  0
  3 10  1  0  0  0  0
  4  5  1  0  0  0  0
  5  6  1  0  0  0  0
  7  8  2  0  0  0  0
  7 12  1  0  0  0  0
  8  9  1  0  0  0  0
  9 10  2  0  0  0  0
 10 11  1  0  0  0  0
 11 12  2  0  0  0  0
M  END
>  <CHROM.1>
59.83090985,174.96010244,65.68393816,11.02909812,12.10762296,147.76043447
-2.04134618,-0.86318235,-2.85174154

>  <Name>
ligand

>  <RI>
0

>  <Rbt.Current_Directory>
/home/itssahil/PROJECTS/Mol_Feturizer/New_Systems/rnas/4NYA

>  <Rbt.Executable>
rbdock ($Id: //depot/dev/client3/rdock/2013.1/src/exe/rbdock.cxx#4 $)

>  <Rbt.Library>
libRbt.so (2013.1, Build901 2013/11/27)

>  <Rbt.Parameter_File>
/export/apps/rDock/src/rDock_2013.1_src/data/scripts/dock_solv.prm

>  <Rbt.Receptor>
prm/pocket_docking_8.prm

>  <SCORE>
-12.0844

>  <SCORE.INTER>
-12.4087

>  <SCORE.INTER.CONST>
1

>  <SCORE.INTER.POLAR>
0

>  <SCORE.INTER.ROT>
3

>  <SCORE.INTER.SOLV>
9.3738

>  <SCORE.INTER.VDW>
-16.997

>  <SCORE.INTER.norm>
-1.03406

>  <SCORE.INTRA>
0.324318

>  <SCORE.INTRA.DIHEDRAL>
-0.580751

>  <SCORE.INTRA.DIHEDRAL.0>
2.1382

>  <SCORE.INTRA.POLAR>
0

>  <SCORE.INTRA.POLAR.0>
0

>  <SCORE.INTRA.REPUL>
0

>  <SCORE.INTRA.REPUL.0>
0

>  <SCORE.INTRA.SOLV>
1.16787

>  <SCORE.INTRA.SOLV.lig_0>
-59.6513

>  <SCORE.INTRA.VDW>
0.0307601

>  <SCORE.INTRA.VDW.0>
-0.569808

>  <SCORE.INTRA.norm>
0.0270265

>  <SCORE.RESTR>
0

>  <SCORE.RESTR.CAVITY>
0

>  <SCORE.RESTR.norm>
0

>  <SCORE.SYSTEM>
0

>  <SCORE.SYSTEM.CONST>
0

>  <SCORE.SYSTEM.DIHEDRAL>
0

>  <SCORE.SYSTEM.SOLV>
0

>  <SCORE.SYSTEM.norm>
0

>  <SCORE.heavy>
12

>  <SCORE.norm>
-1.00703

>  <RMSD>
2.252

$$$$
ligand
 OpenBabel11021811503D
libRbt.so/2013.1/901 2013/11/27
 12 12  0  0  0  0  0  0  0  0999 V2000
   10.1326   13.7780  147.9602 C   0  0  0  0  0  0  0  0  0  0  0  0
   12.6090    9.2576  146.0110 C   0  0  0  0  0  0  0  0  0  0  0  0
    9.5856   11.3158  148.9557 N   0  0  0  0  0  0  0  0  0  0  0  0
   10.7318   13.9401  149.2932 N   0  0  0  0  0  0  0  0  0  0  0  0
   10.3524   14.7967  149.9137 N   0  0  0  0  0  0  0  0  0  0  0  0
    9.9759   15.6562  150.5285 N   0  0  0  0  0  0  0  0  0  0  0  0
   12.2788   11.5867  145.9605 N   0  0  0  0  0  0  0  0  0  0  0  0
   11.9840   10.3962  146.5046 C   0  0  0  0  0  0  0  0  0  0  0  0
   11.0435   10.2911  147.4541 N   0  0  0  0  0  0  0  0  0  0  0  0
   10.3767   11.3691  147.8883 C   0  0  0  0  0  0  0  0  0  0  0  0
   10.6348   12.6298  147.3595 C   0  0  0  0  0  0  0  0  0  0  0  0
   11.6009   12.7401  146.3692 C   0  0  0  0  0  0  0  0  0  0  0  0
  1 11  1  0  0  0  0
  1  4  1  0  0  0  0
  2  8  1  0  0  0  0
  3 10  1  0  0  0  0
  4  5  1  0  0  0  0
  5  6  1  0  0  0  0
  7  8  2  0  0  0  0
  7 12  1  0  0  0  0
  8  9  1  0  0  0  0
  9 10  2  0  0  0  0
 10 11  1  0  0  0  0
 11 12  2  0  0  0  0
M  END
>  <CHROM.1>
64.84607589,-175.86597460,-62.61147827,10.94244832,12.32003596,147.87876585
-2.11491165,-0.93032700,-2.94417815

>  <Name>
ligand

>  <RI>
0

>  <Rbt.Current_Directory>
/home/itssahil/PROJECTS/Mol_Feturizer/New_Systems/rnas/4NYA

>  <Rbt.Executable>
rbdock ($Id: //depot/dev/client3/rdock/2013.1/src/exe/rbdock.cxx#4 $)

>  <Rbt.Library>
libRbt.so (2013.1, Build901 2013/11/27)

>  <Rbt.Parameter_File>
/export/apps/rDock/src/rDock_2013.1_src/data/scripts/dock_solv.prm

>  <Rbt.Receptor>
prm/pocket_docking_5.prm

>  <SCORE>
-12.1415

>  <SCORE.INTER>
-12.2602

>  <SCORE.INTER.CONST>
1

>  <SCORE.INTER.POLAR>
0

>  <SCORE.INTER.ROT>
3

>  <SCORE.INTER.SOLV>
8.51775

>  <SCORE.INTER.VDW>
-16.6127

>  <SCORE.INTER.norm>
-1.02168

>  <SCORE.INTRA>
0.118695

>  <SCORE.INTRA.DIHEDRAL>
-0.716319

>  <SCORE.INTRA.DIHEDRAL.0>
2.1382

>  <SCORE.INTRA.POLAR>
0

>  <SCORE.INTRA.POLAR.0>
0

>  <SCORE.INTRA.REPUL>
0

>  <SCORE.INTRA.REPUL.0>
0

>  <SCORE.INTRA.SOLV>
1.07223

>  <SCORE.INTRA.SOLV.lig_0>
-59.6513

>  <SCORE.INTRA.VDW>
-0.0592626

>  <SCORE.INTRA.VDW.0>
-0.569808

>  <SCORE.INTRA.norm>
0.00989121

>  <SCORE.RESTR>
0

>  <SCORE.RESTR.CAVITY>
0

>  <SCORE.RESTR.norm>
0

>  <SCORE.SYSTEM>
0

>  <SCORE.SYSTEM.CONST>
0

>  <SCORE.SYSTEM.DIHEDRAL>
0

>  <SCORE.SYSTEM.SOLV>
0

>  <SCORE.SYSTEM.norm>
0

>  <SCORE.heavy>
12

>  <SCORE.norm>
-1.01179

>  <RMSD>
2.263

$$$$
ligand
 OpenBabel11021811503D
libRbt.so/2013.1/901 2013/11/27
 12 12  0  0  0  0  0  0  0  0999 V2000
   10.1362   13.7699  147.9292 C   0  0  0  0  0  0  0  0  0  0  0  0
   12.5957    9.2263  146.0126 C   0  0  0  0  0  0  0  0  0  0  0  0
    9.5705   11.3154  148.9336 N   0  0  0  0  0  0  0  0  0  0  0  0
   10.7396   13.9415  149.2591 N   0  0  0  0  0  0  0  0  0  0  0  0
   10.3564   14.7976  149.8779 N   0  0  0  0  0  0  0  0  0  0  0  0
    9.9678   15.6493  150.4960 N   0  0  0  0  0  0  0  0  0  0  0  0
   12.2790   11.5570  145.9498 N   0  0  0  0  0  0  0  0  0  0  0  0
   11.9749   10.3708  146.4980 C   0  0  0  0  0  0  0  0  0  0  0  0
   11.0294   10.2755  147.4436 N   0  0  0  0  0  0  0  0  0  0  0  0
   10.3669   11.3593  147.8697 C   0  0  0  0  0  0  0  0  0  0  0  0
   10.6346   12.6160  147.3363 C   0  0  0  0  0  0  0  0  0  0  0  0
   11.6059   12.7162  146.3500 C   0  0  0  0  0  0  0  0  0  0  0  0
  1 11  1  0  0  0  0
  1  4  1  0  0  0  0
  2  8  1  0  0  0  0
  3 10  1  0  0  0  0
  4  5  1  0  0  0  0
  5  6  1  0  0  0  0
  7  8  2  0  0  0  0
  7 12  1  0  0  0  0
  8  9  1  0  0  0  0
  9 10  2  0  0  0  0
 10 11  1  0  0  0  0
 11 12  2  0  0  0  0
M  END
>  <CHROM.1>
65.36940035,-175.28890042,65.19352907,10.93826819,12.30659191,147.85850428
-2.10764739,-0.92457037,-2.94239207

>  <Name>
ligand

>  <RI>
0

>  <Rbt.Current_Directory>
/home/itssahil/PROJECTS/Mol_Feturizer/New_Systems/rnas/4NYA

>  <Rbt.Executable>
rbdock ($Id: //depot/dev/client3/rdock/2013.1/src/exe/rbdock.cxx#4 $)

>  <Rbt.Library>
libRbt.so (2013.1, Build901 2013/11/27)

>  <Rbt.Parameter_File>
/export/apps/rDock/src/rDock_2013.1_src/data/scripts/dock_solv.prm

>  <Rbt.Receptor>
prm/pocket_docking_7.prm

>  <SCORE>
-12.1315

>  <SCORE.INTER>
-12.2358

>  <SCORE.INTER.CONST>
1

>  <SCORE.INTER.POLAR>
0

>  <SCORE.INTER.ROT>
3

>  <SCORE.INTER.SOLV>
8.61868

>  <SCORE.INTER.VDW>
-16.6301

>  <SCORE.INTER.norm>
-1.01965

>  <SCORE.INTRA>
0.104306

>  <SCORE.INTRA.DIHEDRAL>
-0.718445

>  <SCORE.INTRA.DIHEDRAL.0>
2.1382

>  <SCORE.INTRA.POLAR>
0

>  <SCORE.INTRA.POLAR.0>
0

>  <SCORE.INTRA.REPUL>
0

>  <SCORE.INTRA.REPUL.0>
0

>  <SCORE.INTRA.SOLV>
1.05721

>  <SCORE.INTRA.SOLV.lig_0>
-59.6513

>  <SCORE.INTRA.VDW>
-0.0650759

>  <SCORE.INTRA.VDW.0>
-0.569808

>  <SCORE.INTRA.norm>
0.00869217

>  <SCORE.RESTR>
0

>  <SCORE.RESTR.CAVITY>
0

>  <SCORE.RESTR.norm>
0

>  <SCORE.SYSTEM>
0

>  <SCORE.SYSTEM.CONST>
0

>  <SCORE.SYSTEM.DIHEDRAL>
0

>  <SCORE.SYSTEM.SOLV>
0

>  <SCORE.SYSTEM.norm>
0

>  <SCORE.heavy>
12

>  <SCORE.norm>
-1.01096

>  <RMSD>
2.264

$$$$
ligand
 OpenBabel11021811503D
libRbt.so/2013.1/901 2013/11/27
 12 12  0  0  0  0  0  0  0  0999 V2000
   10.1217   13.7551  147.9567 C   0  0  0  0  0  0  0  0  0  0  0  0
   12.6216    9.2458  146.0118 C   0  0  0  0  0  0  0  0  0  0  0  0
    9.6328   11.2984  148.9954 N   0  0  0  0  0  0  0  0  0  0  0  0
   10.7521   13.9469  149.2713 N   0  0  0  0  0  0  0  0  0  0  0  0
   10.3606   14.7939  149.8974 N   0  0  0  0  0  0  0  0  0  0  0  0
    9.9714   15.6439  150.5175 N   0  0  0  0  0  0  0  0  0  0  0  0
   12.2561   11.5690  145.9388 N   0  0  0  0  0  0  0  0  0  0  0  0
   11.9908   10.3816  146.5043 C   0  0  0  0  0  0  0  0  0  0  0  0
   11.0727   10.2753  147.4754 N   0  0  0  0  0  0  0  0  0  0  0  0
   10.3997   11.3492  147.9103 C   0  0  0  0  0  0  0  0  0  0  0  0
   10.6277   12.6065  147.3600 C   0  0  0  0  0  0  0  0  0  0  0  0
   11.5704   12.7178  146.3475 C   0  0  0  0  0  0  0  0  0  0  0  0
  1 11  1  0  0  0  0
  1  4  1  0  0  0  0
  2  8  1  0  0  0  0
  3 10  1  0  0  0  0
  4  5  1  0  0  0  0
  5  6  1  0  0  0  0
  7  8  2  0  0  0  0
  7 12  1  0  0  0  0
  8  9  1  0  0  0  0
  9 10  2  0  0  0  0
 10 11  1  0  0  0  0
 11 12  2  0  0  0  0
M  END
>  <CHROM.1>
65.12225586,-174.70748106,-59.97140890,10.94884880,12.30582177,147.87769149
-2.13787884,-0.95591526,-2.97431027

>  <Name>
ligand

>  <RI>
0

>  <Rbt.Current_Directory>
/home/itssahil/PROJECTS/Mol_Feturizer/New_Systems/rnas/4NYA

>  <Rbt.Executable>
rbdock ($Id: //depot/dev/client3/rdock/2013.1/src/exe/rbdock.cxx#4 $)

>  <Rbt.Library>
libRbt.so (2013.1, Build901 2013/11/27)

>  <Rbt.Parameter_File>
/export/apps/rDock/src/rDock_2013.1_src/data/scripts/dock_solv.prm

>  <Rbt.Receptor>
prm/pocket_docking_6.prm

>  <SCORE>
-12.1432

>  <SCORE.INTER>
-12.2618

>  <SCORE.INTER.CONST>
1

>  <SCORE.INTER.POLAR>
0

>  <SCORE.INTER.ROT>
3

>  <SCORE.INTER.SOLV>
8.48907

>  <SCORE.INTER.VDW>
-16.6042

>  <SCORE.INTER.norm>
-1.02182

>  <SCORE.INTRA>
0.118644

>  <SCORE.INTRA.DIHEDRAL>
-0.715534

>  <SCORE.INTRA.DIHEDRAL.0>
2.1382

>  <SCORE.INTRA.POLAR>
0

>  <SCORE.INTRA.POLAR.0>
0

>  <SCORE.INTRA.REPUL>
0

>  <SCORE.INTRA.REPUL.0>
0

>  <SCORE.INTRA.SOLV>
1.07959

>  <SCORE.INTRA.SOLV.lig_0>
-59.6513

>  <SCORE.INTRA.VDW>
-0.0633841

>  <SCORE.INTRA.VDW.0>
-0.569808

>  <SCORE.INTRA.norm>
0.00988698

>  <SCORE.RESTR>
0

>  <SCORE.RESTR.CAVITY>
0

>  <SCORE.RESTR.norm>
0

>  <SCORE.SYSTEM>
0

>  <SCORE.SYSTEM.CONST>
0

>  <SCORE.SYSTEM.DIHEDRAL>
0

>  <SCORE.SYSTEM.SOLV>
0

>  <SCORE.SYSTEM.norm>
0

>  <SCORE.heavy>
12

>  <SCORE.norm>
-1.01193

>  <RMSD>
2.265

$$$$
ligand
 OpenBabel11021811503D
libRbt.so/2013.1/901 2013/11/27
 12 12  0  0  0  0  0  0  0  0999 V2000
   10.0253   13.6651  148.0367 C   0  0  0  0  0  0  0  0  0  0  0  0
   12.6888    9.3182  145.9445 C   0  0  0  0  0  0  0  0  0  0  0  0
    9.5069   11.1399  148.8781 N   0  0  0  0  0  0  0  0  0  0  0  0
   10.7434   13.9157  149.2952 N   0  0  0  0  0  0  0  0  0  0  0  0
   10.3906   14.7878  149.9097 N   0  0  0  0  0  0  0  0  0  0  0  0
   10.0324   15.6555  150.5239 N   0  0  0  0  0  0  0  0  0  0  0  0
   12.2997   11.6380  146.0058 N   0  0  0  0  0  0  0  0  0  0  0  0
   12.0166   10.4130  146.4740 C   0  0  0  0  0  0  0  0  0  0  0  0
   11.0450   10.2337  147.3802 N   0  0  0  0  0  0  0  0  0  0  0  0
   10.3349   11.2702  147.8458 C   0  0  0  0  0  0  0  0  0  0  0  0
   10.5791   12.5636  147.3951 C   0  0  0  0  0  0  0  0  0  0  0  0
   11.5775   12.7508  146.4495 C   0  0  0  0  0  0  0  0  0  0  0  0
  1 11  1  0  0  0  0
  1  4  1  0  0  0  0
  2  8  1  0  0  0  0
  3 10  1  0  0  0  0
  4  5  1  0  0  0  0
  5  6  1  0  0  0  0
  7  8  2  0  0  0  0
  7 12  1  0  0  0  0
  8  9  1  0  0  0  0
  9 10  2  0  0  0  0
 10 11  1  0  0  0  0
 11 12  2  0  0  0  0
M  END
>  <CHROM.1>
75.14550475,179.82151145,62.49562763,10.93830332,12.28682698,147.87260137
-2.05580040,-0.84999299,-2.86648060

>  <Name>
ligand

>  <RI>
0

>  <Rbt.Current_Directory>
/home/itssahil/PROJECTS/Mol_Feturizer/New_Systems/rnas/4NYA

>  <Rbt.Executable>
rbdock ($Id: //depot/dev/client3/rdock/2013.1/src/exe/rbdock.cxx#4 $)

>  <Rbt.Library>
libRbt.so (2013.1, Build901 2013/11/27)

>  <Rbt.Parameter_File>
/export/apps/rDock/src/rDock_2013.1_src/data/scripts/dock_solv.prm

>  <Rbt.Receptor>
prm/pocket_docking_8.prm

>  <SCORE>
-12.0162

>  <SCORE.INTER>
-11.7325

>  <SCORE.INTER.CONST>
1

>  <SCORE.INTER.POLAR>
0

>  <SCORE.INTER.ROT>
3

>  <SCORE.INTER.SOLV>
9.02511

>  <SCORE.INTER.VDW>
-16.4301

>  <SCORE.INTER.norm>
-0.977711

>  <SCORE.INTRA>
-0.283667

>  <SCORE.INTRA.DIHEDRAL>
-0.914084

>  <SCORE.INTRA.DIHEDRAL.0>
2.1382

>  <SCORE.INTRA.POLAR>
0

>  <SCORE.INTRA.POLAR.0>
0

>  <SCORE.INTRA.REPUL>
0

>  <SCORE.INTRA.REPUL.0>
0

>  <SCORE.INTRA.SOLV>
0.533601

>  <SCORE.INTRA.SOLV.lig_0>
-59.6513

>  <SCORE.INTRA.VDW>
-0.0934255

>  <SCORE.INTRA.VDW.0>
-0.569808

>  <SCORE.INTRA.norm>
-0.0236389

>  <SCORE.RESTR>
0

>  <SCORE.RESTR.CAVITY>
0

>  <SCORE.RESTR.norm>
0

>  <SCORE.SYSTEM>
0

>  <SCORE.SYSTEM.CONST>
0

>  <SCORE.SYSTEM.DIHEDRAL>
0

>  <SCORE.SYSTEM.SOLV>
0

>  <SCORE.SYSTEM.norm>
0

>  <SCORE.heavy>
12

>  <SCORE.norm>
-1.00135

>  <RMSD>
2.273

$$$$
ligand
 OpenBabel11021811503D
libRbt.so/2013.1/901 2013/11/27
 12 12  0  0  0  0  0  0  0  0999 V2000
   10.1575   13.6822  147.9618 C   0  0  0  0  0  0  0  0  0  0  0  0
   12.5888    9.1589  145.9631 C   0  0  0  0  0  0  0  0  0  0  0  0
    9.5320   11.2084  148.8793 N   0  0  0  0  0  0  0  0  0  0  0  0
   10.7538   13.8185  149.2990 N   0  0  0  0  0  0  0  0  0  0  0  0
   10.4633   14.7303  149.8880 N   0  0  0  0  0  0  0  0  0  0  0  0
   10.1667   15.6386  150.4758 N   0  0  0  0  0  0  0  0  0  0  0  0
   12.3095   11.4952  145.9636 N   0  0  0  0  0  0  0  0  0  0  0  0
   11.9751   10.2982  146.4691 C   0  0  0  0  0  0  0  0  0  0  0  0
   11.0075   10.1900  147.3907 N   0  0  0  0  0  0  0  0  0  0  0  0
   10.3524   11.2711  147.8347 C   0  0  0  0  0  0  0  0  0  0  0  0
   10.6512   12.5387  147.3453 C   0  0  0  0  0  0  0  0  0  0  0  0
   11.6456   12.6526  146.3839 C   0  0  0  0  0  0  0  0  0  0  0  0
  1 11  1  0  0  0  0
  1  4  1  0  0  0  0
  2  8  1  0  0  0  0
  3 10  1  0  0  0  0
  4  5  1  0  0  0  0
  5  6  1  0  0  0  0
  7  8  2  0  0  0  0
  7 12  1  0  0  0  0
  8  9  1  0  0  0  0
  9 10  2  0  0  0  0
 10 11  1  0  0  0  0
 11 12  2  0  0  0  0
M  END
>  <CHROM.1>
66.46152357,177.75002939,60.94145769,10.96783265,12.23062864,147.84965469
-2.03702583,-0.87878437,-2.86826386

>  <Name>
ligand

>  <RI>
0

>  <Rbt.Current_Directory>
/home/itssahil/PROJECTS/Mol_Feturizer/New_Systems/rnas/4NYA

>  <Rbt.Executable>
rbdock ($Id: //depot/dev/client3/rdock/2013.1/src/exe/rbdock.cxx#4 $)

>  <Rbt.Library>
libRbt.so (2013.1, Build901 2013/11/27)

>  <Rbt.Parameter_File>
/export/apps/rDock/src/rDock_2013.1_src/data/scripts/dock_solv.prm

>  <Rbt.Receptor>
prm/pocket_docking_4.prm

>  <SCORE>
-12.1157

>  <SCORE.INTER>
-12.1316

>  <SCORE.INTER.CONST>
1

>  <SCORE.INTER.POLAR>
0

>  <SCORE.INTER.ROT>
3

>  <SCORE.INTER.SOLV>
8.94054

>  <SCORE.INTER.VDW>
-16.6679

>  <SCORE.INTER.norm>
-1.01097

>  <SCORE.INTRA>
0.0159295

>  <SCORE.INTRA.DIHEDRAL>
-0.763414

>  <SCORE.INTRA.DIHEDRAL.0>
2.1382

>  <SCORE.INTRA.POLAR>
0

>  <SCORE.INTRA.POLAR.0>
0

>  <SCORE.INTRA.REPUL>
0

>  <SCORE.INTRA.REPUL.0>
0

>  <SCORE.INTRA.SOLV>
0.900334

>  <SCORE.INTRA.SOLV.lig_0>
-59.6513

>  <SCORE.INTRA.VDW>
-0.0525307

>  <SCORE.INTRA.VDW.0>
-0.569808

>  <SCORE.INTRA.norm>
0.00132746

>  <SCORE.RESTR>
0

>  <SCORE.RESTR.CAVITY>
0

>  <SCORE.RESTR.norm>
0

>  <SCORE.SYSTEM>
0

>  <SCORE.SYSTEM.CONST>
0

>  <SCORE.SYSTEM.DIHEDRAL>
0

>  <SCORE.SYSTEM.SOLV>
0

>  <SCORE.SYSTEM.norm>
0

>  <SCORE.heavy>
12

>  <SCORE.norm>
-1.00964

>  <RMSD>
2.274

$$$$
ligand
 OpenBabel11021811503D
libRbt.so/2013.1/901 2013/11/27
 12 12  0  0  0  0  0  0  0  0999 V2000
   10.1207   13.7719  147.9521 C   0  0  0  0  0  0  0  0  0  0  0  0
   12.5782    9.2415  146.0021 C   0  0  0  0  0  0  0  0  0  0  0  0
    9.6061   11.3183  148.9858 N   0  0  0  0  0  0  0  0  0  0  0  0
   10.7583   13.9602  149.2637 N   0  0  0  0  0  0  0  0  0  0  0  0
   10.3901   14.8233  149.8819 N   0  0  0  0  0  0  0  0  0  0  0  0
   10.0246   15.6893  150.4942 N   0  0  0  0  0  0  0  0  0  0  0  0
   12.2358   11.5684  145.9328 N   0  0  0  0  0  0  0  0  0  0  0  0
   11.9580   10.3826  146.4959 C   0  0  0  0  0  0  0  0  0  0  0  0
   11.0377   10.2837  147.4657 N   0  0  0  0  0  0  0  0  0  0  0  0
   10.3749   11.3634  147.9017 C   0  0  0  0  0  0  0  0  0  0  0  0
   10.6160   12.6193  147.3539 C   0  0  0  0  0  0  0  0  0  0  0  0
   11.5610   12.7231  146.3427 C   0  0  0  0  0  0  0  0  0  0  0  0
  1 11  1  0  0  0  0
  1  4  1  0  0  0  0
  2  8  1  0  0  0  0
  3 10  1  0  0  0  0
  4  5  1  0  0  0  0
  5  6  1  0  0  0  0
  7  8  2  0  0  0  0
  7 12  1  0  0  0  0
  8  9  1  0  0  0  0
  9 10  2  0  0  0  0
 10 11  1  0  0  0  0
 11 12  2  0  0  0  0
M  END
>  <CHROM.1>
65.51943531,-175.93557955,-62.03453061,10.93944301,12.31944296,147.86809107
-2.10920349,-0.94895090,-2.95160342

>  <Name>
ligand

>  <RI>
0

>  <Rbt.Current_Directory>
/home/itssahil/PROJECTS/Mol_Feturizer/New_Systems/rnas/4NYA

>  <Rbt.Executable>
rbdock ($Id: //depot/dev/client3/rdock/2013.1/src/exe/rbdock.cxx#4 $)

>  <Rbt.Library>
libRbt.so (2013.1, Build901 2013/11/27)

>  <Rbt.Parameter_File>
/export/apps/rDock/src/rDock_2013.1_src/data/scripts/dock_solv.prm

>  <Rbt.Receptor>
prm/pocket_docking_7.prm

>  <SCORE>
-12.1529

>  <SCORE.INTER>
-12.2406

>  <SCORE.INTER.CONST>
1

>  <SCORE.INTER.POLAR>
0

>  <SCORE.INTER.ROT>
3

>  <SCORE.INTER.SOLV>
8.49085

>  <SCORE.INTER.VDW>
-16.5907

>  <SCORE.INTER.norm>
-1.02005

>  <SCORE.INTRA>
0.0876924

>  <SCORE.INTRA.DIHEDRAL>
-0.732622

>  <SCORE.INTRA.DIHEDRAL.0>
2.1382

>  <SCORE.INTRA.POLAR>
0

>  <SCORE.INTRA.POLAR.0>
0

>  <SCORE.INTRA.REPUL>
0

>  <SCORE.INTRA.REPUL.0>
0

>  <SCORE.INTRA.SOLV>
1.0388

>  <SCORE.INTRA.SOLV.lig_0>
-59.6513

>  <SCORE.INTRA.VDW>
-0.0653971

>  <SCORE.INTRA.VDW.0>
-0.569808

>  <SCORE.INTRA.norm>
0.0073077

>  <SCORE.RESTR>
0

>  <SCORE.RESTR.CAVITY>
0

>  <SCORE.RESTR.norm>
0

>  <SCORE.SYSTEM>
0

>  <SCORE.SYSTEM.CONST>
0

>  <SCORE.SYSTEM.DIHEDRAL>
0

>  <SCORE.SYSTEM.SOLV>
0

>  <SCORE.SYSTEM.norm>
0

>  <SCORE.heavy>
12

>  <SCORE.norm>
-1.01274

>  <RMSD>
2.277

$$$$
ligand
 OpenBabel11021811503D
libRbt.so/2013.1/901 2013/11/27
 12 12  0  0  0  0  0  0  0  0999 V2000
   10.1614   13.6886  147.9552 C   0  0  0  0  0  0  0  0  0  0  0  0
   12.5827    9.1578  145.9613 C   0  0  0  0  0  0  0  0  0  0  0  0
    9.5248   11.2165  148.8698 N   0  0  0  0  0  0  0  0  0  0  0  0
   10.7727   13.8353  149.2845 N   0  0  0  0  0  0  0  0  0  0  0  0
   10.5911   14.8084  149.8163 N   0  0  0  0  0  0  0  0  0  0  0  0
   10.4031   15.7786  150.3471 N   0  0  0  0  0  0  0  0  0  0  0  0
   12.3114   11.4951  145.9620 N   0  0  0  0  0  0  0  0  0  0  0  0
   11.9715   10.2990  146.4660 C   0  0  0  0  0  0  0  0  0  0  0  0
   11.0010   10.1937  147.3848 N   0  0  0  0  0  0  0  0  0  0  0  0
   10.3484   11.2769  147.8275 C   0  0  0  0  0  0  0  0  0  0  0  0
   10.6529   12.5436  147.3395 C   0  0  0  0  0  0  0  0  0  0  0  0
   11.6504   12.6546  146.3809 C   0  0  0  0  0  0  0  0  0  0  0  0
  1 11  1  0  0  0  0
  1  4  1  0  0  0  0
  2  8  1  0  0  0  0
  3 10  1  0  0  0  0
  4  5  1  0  0  0  0
  5  6  1  0  0  0  0
  7  8  2  0  0  0  0
  7 12  1  0  0  0  0
  8  9  1  0  0  0  0
  9 10  2  0  0  0  0
 10 11  1  0  0  0  0
 11 12  2  0  0  0  0
M  END
>  <CHROM.1>
67.47012179,170.13984978,61.41450659,10.99979649,12.25350925,147.82731174
-1.97875488,-0.85006788,-2.83485144

>  <Name>
ligand

>  <RI>
0

>  <Rbt.Current_Directory>
/home/itssahil/PROJECTS/Mol_Feturizer/New_Systems/rnas/4NYA

>  <Rbt.Executable>
rbdock ($Id: //depot/dev/client3/rdock/2013.1/src/exe/rbdock.cxx#4 $)

>  <Rbt.Library>
libRbt.so (2013.1, Build901 2013/11/27)

>  <Rbt.Parameter_File>
/export/apps/rDock/src/rDock_2013.1_src/data/scripts/dock_solv.prm

>  <Rbt.Receptor>
prm/pocket_docking_8.prm

>  <SCORE>
-12.1314

>  <SCORE.INTER>
-12.0992

>  <SCORE.INTER.CONST>
1

>  <SCORE.INTER.POLAR>
0

>  <SCORE.INTER.ROT>
3

>  <SCORE.INTER.SOLV>
9.06553

>  <SCORE.INTER.VDW>
-16.688

>  <SCORE.INTER.norm>
-1.00827

>  <SCORE.INTRA>
-0.0321858

>  <SCORE.INTRA.DIHEDRAL>
-0.710203

>  <SCORE.INTRA.DIHEDRAL.0>
2.1382

>  <SCORE.INTRA.POLAR>
0

>  <SCORE.INTRA.POLAR.0>
0

>  <SCORE.INTRA.REPUL>
0

>  <SCORE.INTRA.REPUL.0>
0

>  <SCORE.INTRA.SOLV>
0.760095

>  <SCORE.INTRA.SOLV.lig_0>
-59.6513

>  <SCORE.INTRA.VDW>
-0.0571318

>  <SCORE.INTRA.VDW.0>
-0.569808

>  <SCORE.INTRA.norm>
-0.00268215

>  <SCORE.RESTR>
0

>  <SCORE.RESTR.CAVITY>
0

>  <SCORE.RESTR.norm>
0

>  <SCORE.SYSTEM>
0

>  <SCORE.SYSTEM.CONST>
0

>  <SCORE.SYSTEM.DIHEDRAL>
0

>  <SCORE.SYSTEM.SOLV>
0

>  <SCORE.SYSTEM.norm>
0

>  <SCORE.heavy>
12

>  <SCORE.norm>
-1.01095

>  <RMSD>
2.321

$$$$
ligand
 OpenBabel11021811503D
libRbt.so/2013.1/901 2013/11/27
 12 12  0  0  0  0  0  0  0  0999 V2000
    9.7527   13.6303  148.4401 C   0  0  0  0  0  0  0  0  0  0  0  0
   12.7202    9.8194  145.7873 C   0  0  0  0  0  0  0  0  0  0  0  0
    9.7047   11.0220  149.1799 N   0  0  0  0  0  0  0  0  0  0  0  0
   10.7147   14.1811  149.4062 N   0  0  0  0  0  0  0  0  0  0  0  0
   10.3474   15.0187  150.0590 N   0  0  0  0  0  0  0  0  0  0  0  0
    9.9759   15.8507  150.7133 N   0  0  0  0  0  0  0  0  0  0  0  0
   12.0187   12.0515  146.0361 N   0  0  0  0  0  0  0  0  0  0  0  0
   11.9718   10.7788  146.4582 C   0  0  0  0  0  0  0  0  0  0  0  0
   11.1561   10.4189  147.4593 N   0  0  0  0  0  0  0  0  0  0  0  0
   10.3706   11.3179  148.0676 C   0  0  0  0  0  0  0  0  0  0  0  0
   10.3718   12.6516  147.6717 C   0  0  0  0  0  0  0  0  0  0  0  0
   11.2078   13.0252  146.6288 C   0  0  0  0  0  0  0  0  0  0  0  0
  1 11  1  0  0  0  0
  1  4  1  0  0  0  0
  2  8  1  0  0  0  0
  3 10  1  0  0  0  0
  4  5  1  0  0  0  0
  5  6  1  0  0  0  0
  7  8  2  0  0  0  0
  7 12  1  0  0  0  0
  8  9  1  0  0  0  0
  9 10  2  0  0  0  0
 10 11  1  0  0  0  0
 11 12  2  0  0  0  0
M  END
>  <CHROM.1>
89.92978585,177.30397149,60.94484494,10.86508623,12.49029151,148.01720279
2.12193280,0.94439765,0.23062799

>  <Name>
ligand

>  <RI>
0

>  <Rbt.Current_Directory>
/home/itssahil/PROJECTS/Mol_Feturizer/New_Systems/rnas/4NYA

>  <Rbt.Executable>
rbdock ($Id: //depot/dev/client3/rdock/2013.1/src/exe/rbdock.cxx#4 $)

>  <Rbt.Library>
libRbt.so (2013.1, Build901 2013/11/27)

>  <Rbt.Parameter_File>
/export/apps/rDock/src/rDock_2013.1_src/data/scripts/dock_solv.prm

>  <Rbt.Receptor>
prm/pocket_docking_6.prm

>  <SCORE>
-11.8477

>  <SCORE.INTER>
-11.222

>  <SCORE.INTER.CONST>
1

>  <SCORE.INTER.POLAR>
0

>  <SCORE.INTER.ROT>
3

>  <SCORE.INTER.SOLV>
8.17761

>  <SCORE.INTER.VDW>
-15.8072

>  <SCORE.INTER.norm>
-0.935165

>  <SCORE.INTRA>
-0.625717

>  <SCORE.INTRA.DIHEDRAL>
-0.94077

>  <SCORE.INTRA.DIHEDRAL.0>
2.1382

>  <SCORE.INTRA.POLAR>
0

>  <SCORE.INTRA.POLAR.0>
0

>  <SCORE.INTRA.REPUL>
0

>  <SCORE.INTRA.REPUL.0>
0

>  <SCORE.INTRA.SOLV>
-0.166836

>  <SCORE.INTRA.SOLV.lig_0>
-59.6513

>  <SCORE.INTRA.VDW>
-0.0719136

>  <SCORE.INTRA.VDW.0>
-0.569808

>  <SCORE.INTRA.norm>
-0.0521431

>  <SCORE.RESTR>
0

>  <SCORE.RESTR.CAVITY>
0

>  <SCORE.RESTR.norm>
0

>  <SCORE.SYSTEM>
0

>  <SCORE.SYSTEM.CONST>
0

>  <SCORE.SYSTEM.DIHEDRAL>
0

>  <SCORE.SYSTEM.SOLV>
0

>  <SCORE.SYSTEM.norm>
0

>  <SCORE.heavy>
12

>  <SCORE.norm>
-0.987308

>  <RMSD>
2.335

$$$$
ligand
 OpenBabel11021811503D
libRbt.so/2013.1/901 2013/11/27
 12 12  0  0  0  0  0  0  0  0999 V2000
    9.7907   13.6902  148.3273 C   0  0  0  0  0  0  0  0  0  0  0  0
   12.7184    9.7738  145.7862 C   0  0  0  0  0  0  0  0  0  0  0  0
    9.8413   11.1365  149.2379 N   0  0  0  0  0  0  0  0  0  0  0  0
   10.7990   14.6884  148.7137 N   0  0  0  0  0  0  0  0  0  0  0  0
   10.4337   15.5646  149.3149 N   0  0  0  0  0  0  0  0  0  0  0  0
   10.0753   16.4419  149.9152 N   0  0  0  0  0  0  0  0  0  0  0  0
   11.9760   12.0024  145.9226 N   0  0  0  0  0  0  0  0  0  0  0  0
   11.9802   10.7600  146.4290 C   0  0  0  0  0  0  0  0  0  0  0  0
   11.2224   10.4506  147.4908 N   0  0  0  0  0  0  0  0  0  0  0  0
   10.4456   11.3715  148.0770 C   0  0  0  0  0  0  0  0  0  0  0  0
   10.3956   12.6757  147.5949 C   0  0  0  0  0  0  0  0  0  0  0  0
   11.1713   12.9963  146.4897 C   0  0  0  0  0  0  0  0  0  0  0  0
  1 11  1  0  0  0  0
  1  4  1  0  0  0  0
  2  8  1  0  0  0  0
  3 10  1  0  0  0  0
  4  5  1  0  0  0  0
  5  6  1  0  0  0  0
  7  8  2  0  0  0  0
  7 12  1  0  0  0  0
  8  9  1  0  0  0  0
  9 10  2  0  0  0  0
 10 11  1  0  0  0  0
 11 12  2  0  0  0  0
M  END
>  <CHROM.1>
115.49118680,-179.93328330,-179.75856378,10.91089433,12.64485466,147.79339109
2.08039582,0.94586000,0.10411160

>  <Name>
ligand

>  <RI>
0

>  <Rbt.Current_Directory>
/home/itssahil/PROJECTS/Mol_Feturizer/New_Systems/rnas/4NYA

>  <Rbt.Executable>
rbdock ($Id: //depot/dev/client3/rdock/2013.1/src/exe/rbdock.cxx#4 $)

>  <Rbt.Library>
libRbt.so (2013.1, Build901 2013/11/27)

>  <Rbt.Parameter_File>
/export/apps/rDock/src/rDock_2013.1_src/data/scripts/dock_solv.prm

>  <Rbt.Receptor>
prm/pocket_docking_4.prm

>  <SCORE>
-12.0072

>  <SCORE.INTER>
-11.4142

>  <SCORE.INTER.CONST>
1

>  <SCORE.INTER.POLAR>
0

>  <SCORE.INTER.ROT>
3

>  <SCORE.INTER.SOLV>
9.38138

>  <SCORE.INTER.VDW>
-16.3366

>  <SCORE.INTER.norm>
-0.951183

>  <SCORE.INTRA>
-0.592957

>  <SCORE.INTRA.DIHEDRAL>
-0.420259

>  <SCORE.INTRA.DIHEDRAL.0>
2.1382

>  <SCORE.INTRA.POLAR>
0

>  <SCORE.INTRA.POLAR.0>
0

>  <SCORE.INTRA.REPUL>
0

>  <SCORE.INTRA.REPUL.0>
0

>  <SCORE.INTRA.SOLV>
-1.02182

>  <SCORE.INTRA.SOLV.lig_0>
-59.6513

>  <SCORE.INTRA.VDW>
0.128084

>  <SCORE.INTRA.VDW.0>
-0.569808

>  <SCORE.INTRA.norm>
-0.0494131

>  <SCORE.RESTR>
0

>  <SCORE.RESTR.CAVITY>
0

>  <SCORE.RESTR.norm>
0

>  <SCORE.SYSTEM>
0

>  <SCORE.SYSTEM.CONST>
0

>  <SCORE.SYSTEM.DIHEDRAL>
0

>  <SCORE.SYSTEM.SOLV>
0

>  <SCORE.SYSTEM.norm>
0

>  <SCORE.heavy>
12

>  <SCORE.norm>
-1.0006

>  <RMSD>
2.550

$$$$
ligand
 OpenBabel11021811503D
libRbt.so/2013.1/901 2013/11/27
 12 12  0  0  0  0  0  0  0  0999 V2000
    9.9681   14.8102  148.3151 C   0  0  0  0  0  0  0  0  0  0  0  0
   12.2297   10.4011  145.9044 C   0  0  0  0  0  0  0  0  0  0  0  0
    9.5001   12.2976  149.2211 N   0  0  0  0  0  0  0  0  0  0  0  0
   11.1013   15.4225  149.0246 N   0  0  0  0  0  0  0  0  0  0  0  0
   10.8913   15.8273  150.0516 N   0  0  0  0  0  0  0  0  0  0  0  0
   10.6804   16.2251  151.0790 N   0  0  0  0  0  0  0  0  0  0  0  0
   11.9098   12.7298  146.0111 N   0  0  0  0  0  0  0  0  0  0  0  0
   11.6591   11.5116  146.5143 C   0  0  0  0  0  0  0  0  0  0  0  0
   10.8086   11.3554  147.5388 N   0  0  0  0  0  0  0  0  0  0  0  0
   10.1907   12.4086  148.0902 C   0  0  0  0  0  0  0  0  0  0  0  0
   10.4067   13.6961  147.6094 C   0  0  0  0  0  0  0  0  0  0  0  0
   11.2789   13.8597  146.5423 C   0  0  0  0  0  0  0  0  0  0  0  0
  1 11  1  0  0  0  0
  1  4  1  0  0  0  0
  2  8  1  0  0  0  0
  3 10  1  0  0  0  0
  4  5  1  0  0  0  0
  5  6  1  0  0  0  0
  7  8  2  0  0  0  0
  7 12  1  0  0  0  0
  8  9  1  0  0  0  0
  9 10  2  0  0  0  0
 10 11  1  0  0  0  0
 11 12  2  0  0  0  0
M  END
>  <CHROM.1>
101.78497085,-141.75500413,64.33840268,10.89392138,13.38519948,148.01832701
-1.88308655,-0.96667915,-2.70653410

>  <Name>
ligand

>  <RI>
0

>  <Rbt.Current_Directory>
/home/itssahil/PROJECTS/Mol_Feturizer/New_Systems/rnas/4NYA

>  <Rbt.Executable>
rbdock ($Id: //depot/dev/client3/rdock/2013.1/src/exe/rbdock.cxx#4 $)

>  <Rbt.Library>
libRbt.so (2013.1, Build901 2013/11/27)

>  <Rbt.Parameter_File>
/export/apps/rDock/src/rDock_2013.1_src/data/scripts/dock_solv.prm

>  <Rbt.Receptor>
prm/pocket_docking_4.prm

>  <SCORE>
-11.8491

>  <SCORE.INTER>
-11.8037

>  <SCORE.INTER.CONST>
1

>  <SCORE.INTER.POLAR>
0

>  <SCORE.INTER.ROT>
3

>  <SCORE.INTER.SOLV>
6.08338

>  <SCORE.INTER.VDW>
-15.4969

>  <SCORE.INTER.norm>
-0.98364

>  <SCORE.INTRA>
-0.045408

>  <SCORE.INTRA.DIHEDRAL>
0.090341

>  <SCORE.INTRA.DIHEDRAL.0>
2.1382

>  <SCORE.INTRA.POLAR>
0

>  <SCORE.INTRA.POLAR.0>
0

>  <SCORE.INTRA.REPUL>
0

>  <SCORE.INTRA.REPUL.0>
0

>  <SCORE.INTRA.SOLV>
-0.0222255

>  <SCORE.INTRA.SOLV.lig_0>
-59.6513

>  <SCORE.INTRA.VDW>
-0.0794657

>  <SCORE.INTRA.VDW.0>
-0.569808

>  <SCORE.INTRA.norm>
-0.003784

>  <SCORE.RESTR>
0

>  <SCORE.RESTR.CAVITY>
0

>  <SCORE.RESTR.norm>
0

>  <SCORE.SYSTEM>
0

>  <SCORE.SYSTEM.CONST>
0

>  <SCORE.SYSTEM.DIHEDRAL>
0

>  <SCORE.SYSTEM.SOLV>
0

>  <SCORE.SYSTEM.norm>
0

>  <SCORE.heavy>
12

>  <SCORE.norm>
-0.987424

>  <RMSD>
2.684

$$$$
ligand
 OpenBabel11021811503D
libRbt.so/2013.1/901 2013/11/27
 12 12  0  0  0  0  0  0  0  0999 V2000
    9.9779   14.8996  148.2918 C   0  0  0  0  0  0  0  0  0  0  0  0
   12.1436   10.4329  145.8991 C   0  0  0  0  0  0  0  0  0  0  0  0
    9.4955   12.4046  149.2380 N   0  0  0  0  0  0  0  0  0  0  0  0
   11.1153   15.4644  149.0331 N   0  0  0  0  0  0  0  0  0  0  0  0
   10.8990   15.8534  150.0649 N   0  0  0  0  0  0  0  0  0  0  0  0
   10.6784   16.2458  151.0924 N   0  0  0  0  0  0  0  0  0  0  0  0
   11.8537   12.7665  145.9814 N   0  0  0  0  0  0  0  0  0  0  0  0
   11.5972   11.5579  146.5045 C   0  0  0  0  0  0  0  0  0  0  0  0
   10.7630   11.4252  147.5455 N   0  0  0  0  0  0  0  0  0  0  0  0
   10.1675   12.4928  148.0940 C   0  0  0  0  0  0  0  0  0  0  0  0
   10.3906   13.7714  147.5930 C   0  0  0  0  0  0  0  0  0  0  0  0
   11.2459   13.9107  146.5089 C   0  0  0  0  0  0  0  0  0  0  0  0
  1 11  1  0  0  0  0
  1  4  1  0  0  0  0
  2  8  1  0  0  0  0
  3 10  1  0  0  0  0
  4  5  1  0  0  0  0
  5  6  1  0  0  0  0
  7  8  2  0  0  0  0
  7 12  1  0  0  0  0
  8  9  1  0  0  0  0
  9 10  2  0  0  0  0
 10 11  1  0  0  0  0
 11 12  2  0  0  0  0
M  END
>  <CHROM.1>
98.69316005,-140.45888612,-56.49271225,10.86921016,13.44133446,148.01415543
-1.87765070,-0.99575063,-2.70070575

>  <Name>
ligand

>  <RI>
0

>  <Rbt.Current_Directory>
/home/itssahil/PROJECTS/Mol_Feturizer/New_Systems/rnas/4NYA

>  <Rbt.Executable>
rbdock ($Id: //depot/dev/client3/rdock/2013.1/src/exe/rbdock.cxx#4 $)

>  <Rbt.Library>
libRbt.so (2013.1, Build901 2013/11/27)

>  <Rbt.Parameter_File>
/export/apps/rDock/src/rDock_2013.1_src/data/scripts/dock_solv.prm

>  <Rbt.Receptor>
prm/pocket_docking_4.prm

>  <SCORE>
-11.7944

>  <SCORE.INTER>
-11.7983

>  <SCORE.INTER.CONST>
1

>  <SCORE.INTER.POLAR>
0

>  <SCORE.INTER.ROT>
3

>  <SCORE.INTER.SOLV>
5.94046

>  <SCORE.INTER.VDW>
-15.4457

>  <SCORE.INTER.norm>
-0.98319

>  <SCORE.INTRA>
0.00389037

>  <SCORE.INTRA.DIHEDRAL>
0.0628656

>  <SCORE.INTRA.DIHEDRAL.0>
2.1382

>  <SCORE.INTRA.POLAR>
0

>  <SCORE.INTRA.POLAR.0>
0

>  <SCORE.INTRA.REPUL>
0

>  <SCORE.INTRA.REPUL.0>
0

>  <SCORE.INTRA.SOLV>
0.160811

>  <SCORE.INTRA.SOLV.lig_0>
-59.6513

>  <SCORE.INTRA.VDW>
-0.107948

>  <SCORE.INTRA.VDW.0>
-0.569808

>  <SCORE.INTRA.norm>
0.000324197

>  <SCORE.RESTR>
0

>  <SCORE.RESTR.CAVITY>
0

>  <SCORE.RESTR.norm>
0

>  <SCORE.SYSTEM>
0

>  <SCORE.SYSTEM.CONST>
0

>  <SCORE.SYSTEM.DIHEDRAL>
0

>  <SCORE.SYSTEM.SOLV>
0

>  <SCORE.SYSTEM.norm>
0

>  <SCORE.heavy>
12

>  <SCORE.norm>
-0.982866

>  <RMSD>
2.710

$$$$
ligand
 OpenBabel11021811503D
libRbt.so/2013.1/901 2013/11/27
 12 12  0  0  0  0  0  0  0  0999 V2000
   10.0797   13.5042  148.0739 C   0  0  0  0  0  0  0  0  0  0  0  0
   12.6644    9.1305  145.9393 C   0  0  0  0  0  0  0  0  0  0  0  0
   10.0437   11.0894  149.3072 N   0  0  0  0  0  0  0  0  0  0  0  0
   11.0468   14.6064  147.9644 N   0  0  0  0  0  0  0  0  0  0  0  0
   10.7528   15.5816  148.4390 N   0  0  0  0  0  0  0  0  0  0  0  0
   10.4588   16.5521  148.9188 N   0  0  0  0  0  0  0  0  0  0  0  0
   12.0473   11.3978  145.8160 N   0  0  0  0  0  0  0  0  0  0  0  0
   12.0127   10.2322  146.4797 C   0  0  0  0  0  0  0  0  0  0  0  0
   11.2954   10.1061  147.6053 N   0  0  0  0  0  0  0  0  0  0  0  0
   10.5990   11.1383  148.0999 C   0  0  0  0  0  0  0  0  0  0  0  0
   10.5923   12.3706  147.4544 C   0  0  0  0  0  0  0  0  0  0  0  0
   11.3258   12.5013  146.2834 C   0  0  0  0  0  0  0  0  0  0  0  0
  1 11  1  0  0  0  0
  1  4  1  0  0  0  0
  2  8  1  0  0  0  0
  3 10  1  0  0  0  0
  4  5  1  0  0  0  0
  5  6  1  0  0  0  0
  7  8  2  0  0  0  0
  7 12  1  0  0  0  0
  8  9  1  0  0  0  0
  9 10  2  0  0  0  0
 10 11  1  0  0  0  0
 11 12  2  0  0  0  0
M  END
>  <CHROM.1>
130.33582806,-179.36510925,59.57250359,11.08380381,12.36962609,147.54410376
1.99782088,0.98275825,-0.02129538

>  <Name>
ligand

>  <RI>
0

>  <Rbt.Current_Directory>
/home/itssahil/PROJECTS/Mol_Feturizer/New_Systems/rnas/4NYA

>  <Rbt.Executable>
rbdock ($Id: //depot/dev/client3/rdock/2013.1/src/exe/rbdock.cxx#4 $)

>  <Rbt.Library>
libRbt.so (2013.1, Build901 2013/11/27)

>  <Rbt.Parameter_File>
/export/apps/rDock/src/rDock_2013.1_src/data/scripts/dock_solv.prm

>  <Rbt.Receptor>
prm/pocket_docking_4.prm

>  <SCORE>
-12.4924

>  <SCORE.INTER>
-12.209

>  <SCORE.INTER.CONST>
1

>  <SCORE.INTER.POLAR>
0

>  <SCORE.INTER.ROT>
3

>  <SCORE.INTER.SOLV>
10.1769

>  <SCORE.INTER.VDW>
-17.1316

>  <SCORE.INTER.norm>
-1.01741

>  <SCORE.INTRA>
-0.283499

>  <SCORE.INTRA.DIHEDRAL>
-0.0722188

>  <SCORE.INTRA.DIHEDRAL.0>
2.1382

>  <SCORE.INTRA.POLAR>
0

>  <SCORE.INTRA.POLAR.0>
0

>  <SCORE.INTRA.REPUL>
0

>  <SCORE.INTRA.REPUL.0>
0

>  <SCORE.INTRA.SOLV>
-1.22215

>  <SCORE.INTRA.SOLV.lig_0>
-59.6513

>  <SCORE.INTRA.VDW>
0.363684

>  <SCORE.INTRA.VDW.0>
-0.569808

>  <SCORE.INTRA.norm>
-0.0236249

>  <SCORE.RESTR>
0

>  <SCORE.RESTR.CAVITY>
0

>  <SCORE.RESTR.norm>
0

>  <SCORE.SYSTEM>
0

>  <SCORE.SYSTEM.CONST>
0

>  <SCORE.SYSTEM.DIHEDRAL>
0

>  <SCORE.SYSTEM.SOLV>
0

>  <SCORE.SYSTEM.norm>
0

>  <SCORE.heavy>
12

>  <SCORE.norm>
-1.04104

>  <RMSD>
2.744

$$$$
ligand
 OpenBabel11021811503D
libRbt.so/2013.1/901 2013/11/27
 12 12  0  0  0  0  0  0  0  0999 V2000
   10.0592   13.5577  147.9658 C   0  0  0  0  0  0  0  0  0  0  0  0
   12.7009    9.1661  145.9405 C   0  0  0  0  0  0  0  0  0  0  0  0
    9.9479   11.1414  149.1913 N   0  0  0  0  0  0  0  0  0  0  0  0
   11.0458   14.6470  147.9173 N   0  0  0  0  0  0  0  0  0  0  0  0
   10.7641   15.6033  148.4357 N   0  0  0  0  0  0  0  0  0  0  0  0
   10.4884   16.5610  148.9506 N   0  0  0  0  0  0  0  0  0  0  0  0
   12.1087   11.4386  145.7942 N   0  0  0  0  0  0  0  0  0  0  0  0
   12.0347   10.2724  146.4533 C   0  0  0  0  0  0  0  0  0  0  0  0
   11.2666   10.1504  147.5453 N   0  0  0  0  0  0  0  0  0  0  0  0
   10.5572   11.1875  148.0103 C   0  0  0  0  0  0  0  0  0  0  0  0
   10.5897   12.4210  147.3675 C   0  0  0  0  0  0  0  0  0  0  0  0
   11.3761   12.5474  146.2310 C   0  0  0  0  0  0  0  0  0  0  0  0
  1 11  1  0  0  0  0
  1  4  1  0  0  0  0
  2  8  1  0  0  0  0
  3 10  1  0  0  0  0
  4  5  1  0  0  0  0
  5  6  1  0  0  0  0
  7  8  2  0  0  0  0
  7 12  1  0  0  0  0
  8  9  1  0  0  0  0
  9 10  2  0  0  0  0
 10 11  1  0  0  0  0
 11 12  2  0  0  0  0
M  END
>  <CHROM.1>
129.61493273,-175.79339690,-172.86769964,11.08546676,12.40958618,147.49697358
1.97440790,0.93975799,0.01395402

>  <Name>
ligand

>  <RI>
0

>  <Rbt.Current_Directory>
/home/itssahil/PROJECTS/Mol_Feturizer/New_Systems/rnas/4NYA

>  <Rbt.Executable>
rbdock ($Id: //depot/dev/client3/rdock/2013.1/src/exe/rbdock.cxx#4 $)

>  <Rbt.Library>
libRbt.so (2013.1, Build901 2013/11/27)

>  <Rbt.Parameter_File>
/export/apps/rDock/src/rDock_2013.1_src/data/scripts/dock_solv.prm

>  <Rbt.Receptor>
prm/pocket_docking_4.prm

>  <SCORE>
-12.5287

>  <SCORE.INTER>
-12.2373

>  <SCORE.INTER.CONST>
1

>  <SCORE.INTER.POLAR>
0

>  <SCORE.INTER.ROT>
3

>  <SCORE.INTER.SOLV>
10.2222

>  <SCORE.INTER.VDW>
-17.1656

>  <SCORE.INTER.norm>
-1.01978

>  <SCORE.INTRA>
-0.291361

>  <SCORE.INTRA.DIHEDRAL>
-0.0573446

>  <SCORE.INTRA.DIHEDRAL.0>
2.1382

>  <SCORE.INTRA.POLAR>
0

>  <SCORE.INTRA.POLAR.0>
0

>  <SCORE.INTRA.REPUL>
0

>  <SCORE.INTRA.REPUL.0>
0

>  <SCORE.INTRA.SOLV>
-1.22257

>  <SCORE.INTRA.SOLV.lig_0>
-59.6513

>  <SCORE.INTRA.VDW>
0.348596

>  <SCORE.INTRA.VDW.0>
-0.569808

>  <SCORE.INTRA.norm>
-0.0242801

>  <SCORE.RESTR>
0

>  <SCORE.RESTR.CAVITY>
0

>  <SCORE.RESTR.norm>
0

>  <SCORE.SYSTEM>
0

>  <SCORE.SYSTEM.CONST>
0

>  <SCORE.SYSTEM.DIHEDRAL>
0

>  <SCORE.SYSTEM.SOLV>
0

>  <SCORE.SYSTEM.norm>
0

>  <SCORE.heavy>
12

>  <SCORE.norm>
-1.04406

>  <RMSD>
2.745

$$$$
ligand
 OpenBabel11021811503D
libRbt.so/2013.1/901 2013/11/27
 12 12  0  0  0  0  0  0  0  0999 V2000
   10.1797   13.7912  147.9054 C   0  0  0  0  0  0  0  0  0  0  0  0
   12.5703    9.1920  146.0350 C   0  0  0  0  0  0  0  0  0  0  0  0
    9.9038   11.4206  149.1927 N   0  0  0  0  0  0  0  0  0  0  0  0
   11.2394   14.8096  147.8619 N   0  0  0  0  0  0  0  0  0  0  0  0
   11.1126   15.6959  148.5411 N   0  0  0  0  0  0  0  0  0  0  0  0
   10.9917   16.5833  149.2165 N   0  0  0  0  0  0  0  0  0  0  0  0
   12.1216   11.4918  145.8202 N   0  0  0  0  0  0  0  0  0  0  0  0
   11.9673   10.3507  146.5088 C   0  0  0  0  0  0  0  0  0  0  0  0
   11.1794   10.3059  147.5926 N   0  0  0  0  0  0  0  0  0  0  0  0
   10.5296   11.3970  148.0197 C   0  0  0  0  0  0  0  0  0  0  0  0
   10.6464   12.6081  147.3451 C   0  0  0  0  0  0  0  0  0  0  0  0
   11.4535   12.6550  146.2170 C   0  0  0  0  0  0  0  0  0  0  0  0
  1 11  1  0  0  0  0
  1  4  1  0  0  0  0
  2  8  1  0  0  0  0
  3 10  1  0  0  0  0
  4  5  1  0  0  0  0
  5  6  1  0  0  0  0
  7  8  2  0  0  0  0
  7 12  1  0  0  0  0
  8  9  1  0  0  0  0
  9 10  2  0  0  0  0
 10 11  1  0  0  0  0
 11 12  2  0  0  0  0
M  END
>  <CHROM.1>
128.71281726,-162.33393205,-177.29851230,11.16726363,12.54225419,147.53662545
1.84893518,0.92971299,0.13453102

>  <Name>
ligand

>  <RI>
0

>  <Rbt.Current_Directory>
/home/itssahil/PROJECTS/Mol_Feturizer/New_Systems/rnas/4NYA

>  <Rbt.Executable>
rbdock ($Id: //depot/dev/client3/rdock/2013.1/src/exe/rbdock.cxx#4 $)

>  <Rbt.Library>
libRbt.so (2013.1, Build901 2013/11/27)

>  <Rbt.Parameter_File>
/export/apps/rDock/src/rDock_2013.1_src/data/scripts/dock_solv.prm

>  <Rbt.Receptor>
prm/pocket_docking_6.prm

>  <SCORE>
-12.7782

>  <SCORE.INTER>
-12.5676

>  <SCORE.INTER.CONST>
1

>  <SCORE.INTER.POLAR>
0

>  <SCORE.INTER.ROT>
3

>  <SCORE.INTER.SOLV>
9.89977

>  <SCORE.INTER.VDW>
-17.2783

>  <SCORE.INTER.norm>
-1.0473

>  <SCORE.INTRA>
-0.210627

>  <SCORE.INTRA.DIHEDRAL>
0.138225

>  <SCORE.INTRA.DIHEDRAL.0>
2.1382

>  <SCORE.INTRA.POLAR>
0

>  <SCORE.INTRA.POLAR.0>
0

>  <SCORE.INTRA.REPUL>
0

>  <SCORE.INTRA.REPUL.0>
0

>  <SCORE.INTRA.SOLV>
-1.21351

>  <SCORE.INTRA.SOLV.lig_0>
-59.6513

>  <SCORE.INTRA.VDW>
0.327014

>  <SCORE.INTRA.VDW.0>
-0.569808

>  <SCORE.INTRA.norm>
-0.0175523

>  <SCORE.RESTR>
0

>  <SCORE.RESTR.CAVITY>
0

>  <SCORE.RESTR.norm>
0

>  <SCORE.SYSTEM>
0

>  <SCORE.SYSTEM.CONST>
0

>  <SCORE.SYSTEM.DIHEDRAL>
0

>  <SCORE.SYSTEM.SOLV>
0

>  <SCORE.SYSTEM.norm>
0

>  <SCORE.heavy>
12

>  <SCORE.norm>
-1.06485

>  <RMSD>
2.775

$$$$
ligand
 OpenBabel11021811503D
libRbt.so/2013.1/901 2013/11/27
 12 12  0  0  0  0  0  0  0  0999 V2000
   10.2147   13.7173  147.9203 C   0  0  0  0  0  0  0  0  0  0  0  0
   12.5123    9.0935  145.9947 C   0  0  0  0  0  0  0  0  0  0  0  0
    9.8584   11.3306  149.1571 N   0  0  0  0  0  0  0  0  0  0  0  0
   11.2217   14.7704  147.7227 N   0  0  0  0  0  0  0  0  0  0  0  0
   11.1020   15.7020  148.3395 N   0  0  0  0  0  0  0  0  0  0  0  0
   10.9881   16.6346  148.9525 N   0  0  0  0  0  0  0  0  0  0  0  0
   12.1267   11.4079  145.8184 N   0  0  0  0  0  0  0  0  0  0  0  0
   11.9327   10.2583  146.4824 C   0  0  0  0  0  0  0  0  0  0  0  0
   11.1280   10.2136  147.5538 N   0  0  0  0  0  0  0  0  0  0  0  0
   10.5006   11.3130  147.9929 C   0  0  0  0  0  0  0  0  0  0  0  0
   10.6588   12.5333  147.3437 C   0  0  0  0  0  0  0  0  0  0  0  0
   11.4832   12.5805  146.2283 C   0  0  0  0  0  0  0  0  0  0  0  0
  1 11  1  0  0  0  0
  1  4  1  0  0  0  0
  2  8  1  0  0  0  0
  3 10  1  0  0  0  0
  4  5  1  0  0  0  0
  5  6  1  0  0  0  0
  7  8  2  0  0  0  0
  7 12  1  0  0  0  0
  8  9  1  0  0  0  0
  9 10  2  0  0  0  0
 10 11  1  0  0  0  0
 11 12  2  0  0  0  0
M  END
>  <CHROM.1>
137.58272309,-166.12233405,179.14766368,11.15254481,12.48078964,147.47172628
1.82369393,0.91138179,0.12075467

>  <Name>
ligand

>  <RI>
0

>  <Rbt.Current_Directory>
/home/itssahil/PROJECTS/Mol_Feturizer/New_Systems/rnas/4NYA

>  <Rbt.Executable>
rbdock ($Id: //depot/dev/client3/rdock/2013.1/src/exe/rbdock.cxx#4 $)

>  <Rbt.Library>
libRbt.so (2013.1, Build901 2013/11/27)

>  <Rbt.Parameter_File>
/export/apps/rDock/src/rDock_2013.1_src/data/scripts/dock_solv.prm

>  <Rbt.Receptor>
prm/pocket_docking_6.prm

>  <SCORE>
-12.9297

>  <SCORE.INTER>
-12.8647

>  <SCORE.INTER.CONST>
1

>  <SCORE.INTER.POLAR>
0

>  <SCORE.INTER.ROT>
3

>  <SCORE.INTER.SOLV>
10.5088

>  <SCORE.INTER.VDW>
-17.6794

>  <SCORE.INTER.norm>
-1.07206

>  <SCORE.INTRA>
-0.0650267

>  <SCORE.INTRA.DIHEDRAL>
0.176866

>  <SCORE.INTRA.DIHEDRAL.0>
2.1382

>  <SCORE.INTRA.POLAR>
0

>  <SCORE.INTRA.POLAR.0>
0

>  <SCORE.INTRA.REPUL>
0

>  <SCORE.INTRA.REPUL.0>
0

>  <SCORE.INTRA.SOLV>
-1.30755

>  <SCORE.INTRA.SOLV.lig_0>
-59.6513

>  <SCORE.INTRA.VDW>
0.500316

>  <SCORE.INTRA.VDW.0>
-0.569808

>  <SCORE.INTRA.norm>
-0.00541889

>  <SCORE.RESTR>
0

>  <SCORE.RESTR.CAVITY>
0

>  <SCORE.RESTR.norm>
0

>  <SCORE.SYSTEM>
0

>  <SCORE.SYSTEM.CONST>
0

>  <SCORE.SYSTEM.DIHEDRAL>
0

>  <SCORE.SYSTEM.SOLV>
0

>  <SCORE.SYSTEM.norm>
0

>  <SCORE.heavy>
12

>  <SCORE.norm>
-1.07748

>  <RMSD>
2.825

$$$$
ligand
 OpenBabel11021811503D
libRbt.so/2013.1/901 2013/11/27
 12 12  0  0  0  0  0  0  0  0999 V2000
   10.2248   13.6941  147.9378 C   0  0  0  0  0  0  0  0  0  0  0  0
   12.5580    9.0863  146.0166 C   0  0  0  0  0  0  0  0  0  0  0  0
    9.8514   11.2984  149.1519 N   0  0  0  0  0  0  0  0  0  0  0  0
   11.2063   14.7652  147.7104 N   0  0  0  0  0  0  0  0  0  0  0  0
   11.0818   15.6990  148.3230 N   0  0  0  0  0  0  0  0  0  0  0  0
   10.9628   16.6339  148.9314 N   0  0  0  0  0  0  0  0  0  0  0  0
   12.1727   11.4015  145.8506 N   0  0  0  0  0  0  0  0  0  0  0  0
   11.9694   10.2471  146.5033 C   0  0  0  0  0  0  0  0  0  0  0  0
   11.1477   10.1939  147.5612 N   0  0  0  0  0  0  0  0  0  0  0  0
   10.5122   11.2896  147.9980 C   0  0  0  0  0  0  0  0  0  0  0  0
   10.6794   12.5146  147.3601 C   0  0  0  0  0  0  0  0  0  0  0  0
   11.5215   12.5705  146.2583 C   0  0  0  0  0  0  0  0  0  0  0  0
  1 11  1  0  0  0  0
  1  4  1  0  0  0  0
  2  8  1  0  0  0  0
  3 10  1  0  0  0  0
  4  5  1  0  0  0  0
  5  6  1  0  0  0  0
  7  8  2  0  0  0  0
  7 12  1  0  0  0  0
  8  9  1  0  0  0  0
  9 10  2  0  0  0  0
 10 11  1  0  0  0  0
 11 12  2  0  0  0  0
M  END
>  <CHROM.1>
140.14696793,-166.13079769,-179.50325295,11.16550136,12.46755105,147.47932538
1.83224793,0.89685385,0.10920105

>  <Name>
ligand

>  <RI>
0

>  <Rbt.Current_Directory>
/home/itssahil/PROJECTS/Mol_Feturizer/New_Systems/rnas/4NYA

>  <Rbt.Executable>
rbdock ($Id: //depot/dev/client3/rdock/2013.1/src/exe/rbdock.cxx#4 $)

>  <Rbt.Library>
libRbt.so (2013.1, Build901 2013/11/27)

>  <Rbt.Parameter_File>
/export/apps/rDock/src/rDock_2013.1_src/data/scripts/dock_solv.prm

>  <Rbt.Receptor>
prm/pocket_docking_7.prm

>  <SCORE>
-12.9206

>  <SCORE.INTER>
-12.9044

>  <SCORE.INTER.CONST>
1

>  <SCORE.INTER.POLAR>
0

>  <SCORE.INTER.ROT>
3

>  <SCORE.INTER.SOLV>
10.562

>  <SCORE.INTER.VDW>
-17.7236

>  <SCORE.INTER.norm>
-1.07536

>  <SCORE.INTRA>
-0.0162261

>  <SCORE.INTRA.DIHEDRAL>
0.195098

>  <SCORE.INTRA.DIHEDRAL.0>
2.1382

>  <SCORE.INTRA.POLAR>
0

>  <SCORE.INTRA.POLAR.0>
0

>  <SCORE.INTRA.REPUL>
0

>  <SCORE.INTRA.REPUL.0>
0

>  <SCORE.INTRA.SOLV>
-1.33148

>  <SCORE.INTRA.SOLV.lig_0>
-59.6513

>  <SCORE.INTRA.VDW>
0.551967

>  <SCORE.INTRA.VDW.0>
-0.569808

>  <SCORE.INTRA.norm>
-0.00135218

>  <SCORE.RESTR>
0

>  <SCORE.RESTR.CAVITY>
0

>  <SCORE.RESTR.norm>
0

>  <SCORE.SYSTEM>
0

>  <SCORE.SYSTEM.CONST>
0

>  <SCORE.SYSTEM.DIHEDRAL>
0

>  <SCORE.SYSTEM.SOLV>
0

>  <SCORE.SYSTEM.norm>
0

>  <SCORE.heavy>
12

>  <SCORE.norm>
-1.07671

>  <RMSD>
2.827

$$$$
ligand
 OpenBabel11021811503D
libRbt.so/2013.1/901 2013/11/27
 12 12  0  0  0  0  0  0  0  0999 V2000
   10.2376   13.7137  147.9417 C   0  0  0  0  0  0  0  0  0  0  0  0
   12.5247    9.0960  145.9892 C   0  0  0  0  0  0  0  0  0  0  0  0
    9.8529   11.3161  149.1485 N   0  0  0  0  0  0  0  0  0  0  0  0
   11.2367   14.7723  147.7332 N   0  0  0  0  0  0  0  0  0  0  0  0
   11.1083   15.7104  148.3382 N   0  0  0  0  0  0  0  0  0  0  0  0
   10.9856   16.6497  148.9392 N   0  0  0  0  0  0  0  0  0  0  0  0
   12.1562   11.4148  145.8344 N   0  0  0  0  0  0  0  0  0  0  0  0
   11.9477   10.2593  146.4837 C   0  0  0  0  0  0  0  0  0  0  0  0
   11.1317   10.2082  147.5461 N   0  0  0  0  0  0  0  0  0  0  0  0
   10.5070   11.3069  147.9908 C   0  0  0  0  0  0  0  0  0  0  0  0
   10.6799   12.5331  147.3568 C   0  0  0  0  0  0  0  0  0  0  0  0
   11.5162   12.5870  146.2505 C   0  0  0  0  0  0  0  0  0  0  0  0
  1 11  1  0  0  0  0
  1  4  1  0  0  0  0
  2  8  1  0  0  0  0
  3 10  1  0  0  0  0
  4  5  1  0  0  0  0
  5  6  1  0  0  0  0
  7  8  2  0  0  0  0
  7 12  1  0  0  0  0
  8  9  1  0  0  0  0
  9 10  2  0  0  0  0
 10 11  1  0  0  0  0
 11 12  2  0  0  0  0
M  END
>  <CHROM.1>
139.16668995,-167.34429869,-179.68247297,11.16537829,12.48189460,147.47525714
1.82056503,0.90109849,0.12333611

>  <Name>
ligand

>  <RI>
0

>  <Rbt.Current_Directory>
/home/itssahil/PROJECTS/Mol_Feturizer/New_Systems/rnas/4NYA

>  <Rbt.Executable>
rbdock ($Id: //depot/dev/client3/rdock/2013.1/src/exe/rbdock.cxx#4 $)

>  <Rbt.Library>
libRbt.so (2013.1, Build901 2013/11/27)

>  <Rbt.Parameter_File>
/export/apps/rDock/src/rDock_2013.1_src/data/scripts/dock_solv.prm

>  <Rbt.Receptor>
prm/pocket_docking_7.prm

>  <SCORE>
-12.9234

>  <SCORE.INTER>
-12.8768

>  <SCORE.INTER.CONST>
1

>  <SCORE.INTER.POLAR>
0

>  <SCORE.INTER.ROT>
3

>  <SCORE.INTER.SOLV>
10.5772

>  <SCORE.INTER.VDW>
-17.7103

>  <SCORE.INTER.norm>
-1.07307

>  <SCORE.INTRA>
-0.0465579

>  <SCORE.INTRA.DIHEDRAL>
0.16463

>  <SCORE.INTRA.DIHEDRAL.0>
2.1382

>  <SCORE.INTRA.POLAR>
0

>  <SCORE.INTRA.POLAR.0>
0

>  <SCORE.INTRA.REPUL>
0

>  <SCORE.INTRA.REPUL.0>
0

>  <SCORE.INTRA.SOLV>
-1.32321

>  <SCORE.INTRA.SOLV.lig_0>
-59.6513

>  <SCORE.INTRA.VDW>
0.532732

>  <SCORE.INTRA.VDW.0>
-0.569808

>  <SCORE.INTRA.norm>
-0.00387983

>  <SCORE.RESTR>
0

>  <SCORE.RESTR.CAVITY>
0

>  <SCORE.RESTR.norm>
0

>  <SCORE.SYSTEM>
0

>  <SCORE.SYSTEM.CONST>
0

>  <SCORE.SYSTEM.DIHEDRAL>
0

>  <SCORE.SYSTEM.SOLV>
0

>  <SCORE.SYSTEM.norm>
0

>  <SCORE.heavy>
12

>  <SCORE.norm>
-1.07695

>  <RMSD>
2.829

$$$$
ligand
 OpenBabel11021811503D
libRbt.so/2013.1/901 2013/11/27
 12 12  0  0  0  0  0  0  0  0999 V2000
   10.2276   13.7285  147.9369 C   0  0  0  0  0  0  0  0  0  0  0  0
   12.5859    9.1481  145.9810 C   0  0  0  0  0  0  0  0  0  0  0  0
    9.8911   11.3267  149.1497 N   0  0  0  0  0  0  0  0  0  0  0  0
   11.2079   14.8035  147.7234 N   0  0  0  0  0  0  0  0  0  0  0  0
   11.0605   15.7436  148.3210 N   0  0  0  0  0  0  0  0  0  0  0  0
   10.9071   16.6830  148.9146 N   0  0  0  0  0  0  0  0  0  0  0  0
   12.1758   11.4598  145.8240 N   0  0  0  0  0  0  0  0  0  0  0  0
   11.9910   10.3020  146.4764 C   0  0  0  0  0  0  0  0  0  0  0  0
   11.1813   10.2385  147.5430 N   0  0  0  0  0  0  0  0  0  0  0  0
   10.5395   11.3269  147.9888 C   0  0  0  0  0  0  0  0  0  0  0  0
   10.6876   12.5548  147.3518 C   0  0  0  0  0  0  0  0  0  0  0  0
   11.5174   12.6213  146.2412 C   0  0  0  0  0  0  0  0  0  0  0  0
  1 11  1  0  0  0  0
  1  4  1  0  0  0  0
  2  8  1  0  0  0  0
  3 10  1  0  0  0  0
  4  5  1  0  0  0  0
  5  6  1  0  0  0  0
  7  8  2  0  0  0  0
  7 12  1  0  0  0  0
  8  9  1  0  0  0  0
  9 10  2  0  0  0  0
 10 11  1  0  0  0  0
 11 12  2  0  0  0  0
M  END
>  <CHROM.1>
139.07158548,-167.87492388,-59.90199333,11.17235995,12.51284116,147.46676491
1.85068377,0.90823941,0.09679677

>  <Name>
ligand

>  <RI>
0

>  <Rbt.Current_Directory>
/home/itssahil/PROJECTS/Mol_Feturizer/New_Systems/rnas/4NYA

>  <Rbt.Executable>
rbdock ($Id: //depot/dev/client3/rdock/2013.1/src/exe/rbdock.cxx#4 $)

>  <Rbt.Library>
libRbt.so (2013.1, Build901 2013/11/27)

>  <Rbt.Parameter_File>
/export/apps/rDock/src/rDock_2013.1_src/data/scripts/dock_solv.prm

>  <Rbt.Receptor>
prm/pocket_docking_5.prm

>  <SCORE>
-12.8745

>  <SCORE.INTER>
-12.8248

>  <SCORE.INTER.CONST>
1

>  <SCORE.INTER.POLAR>
0

>  <SCORE.INTER.ROT>
3

>  <SCORE.INTER.SOLV>
10.6046

>  <SCORE.INTER.VDW>
-17.6847

>  <SCORE.INTER.norm>
-1.06873

>  <SCORE.INTRA>
-0.0496976

>  <SCORE.INTRA.DIHEDRAL>
0.153878

>  <SCORE.INTRA.DIHEDRAL.0>
2.1382

>  <SCORE.INTRA.POLAR>
0

>  <SCORE.INTRA.POLAR.0>
0

>  <SCORE.INTRA.REPUL>
0

>  <SCORE.INTRA.REPUL.0>
0

>  <SCORE.INTRA.SOLV>
-1.31828

>  <SCORE.INTRA.SOLV.lig_0>
-59.6513

>  <SCORE.INTRA.VDW>
0.532505

>  <SCORE.INTRA.VDW.0>
-0.569808

>  <SCORE.INTRA.norm>
-0.00414147

>  <SCORE.RESTR>
0

>  <SCORE.RESTR.CAVITY>
0

>  <SCORE.RESTR.norm>
0

>  <SCORE.SYSTEM>
0

>  <SCORE.SYSTEM.CONST>
0

>  <SCORE.SYSTEM.DIHEDRAL>
0

>  <SCORE.SYSTEM.SOLV>
0

>  <SCORE.SYSTEM.norm>
0

>  <SCORE.heavy>
12

>  <SCORE.norm>
-1.07287

>  <RMSD>
2.832

$$$$
ligand
 OpenBabel11021811503D
libRbt.so/2013.1/901 2013/11/27
 12 12  0  0  0  0  0  0  0  0999 V2000
   10.2427   13.7324  147.9550 C   0  0  0  0  0  0  0  0  0  0  0  0
   12.5585    9.1276  146.0057 C   0  0  0  0  0  0  0  0  0  0  0  0
   10.0189   11.3659  149.2598 N   0  0  0  0  0  0  0  0  0  0  0  0
   11.2421   14.7897  147.7415 N   0  0  0  0  0  0  0  0  0  0  0  0
   11.1087   15.7343  148.3354 N   0  0  0  0  0  0  0  0  0  0  0  0
   10.9809   16.6800  148.9252 N   0  0  0  0  0  0  0  0  0  0  0  0
   12.1009   11.4267  145.8016 N   0  0  0  0  0  0  0  0  0  0  0  0
   11.9745   10.2877  146.4994 C   0  0  0  0  0  0  0  0  0  0  0  0
   11.2303   10.2463  147.6138 N   0  0  0  0  0  0  0  0  0  0  0  0
   10.5977   11.3387  148.0629 C   0  0  0  0  0  0  0  0  0  0  0  0
   10.6872   12.5476  147.3803 C   0  0  0  0  0  0  0  0  0  0  0  0
   11.4487   12.5910  146.2209 C   0  0  0  0  0  0  0  0  0  0  0  0
  1 11  1  0  0  0  0
  1  4  1  0  0  0  0
  2  8  1  0  0  0  0
  3 10  1  0  0  0  0
  4  5  1  0  0  0  0
  5  6  1  0  0  0  0
  7  8  2  0  0  0  0
  7 12  1  0  0  0  0
  8  9  1  0  0  0  0
  9 10  2  0  0  0  0
 10 11  1  0  0  0  0
 11 12  2  0  0  0  0
M  END
>  <CHROM.1>
134.61229319,-167.62942945,-178.46359155,11.19152437,12.50723315,147.49601368
1.85868830,0.96683181,0.07984214

>  <Name>
ligand

>  <RI>
0

>  <Rbt.Current_Directory>
/home/itssahil/PROJECTS/Mol_Feturizer/New_Systems/rnas/4NYA

>  <Rbt.Executable>
rbdock ($Id: //depot/dev/client3/rdock/2013.1/src/exe/rbdock.cxx#4 $)

>  <Rbt.Library>
libRbt.so (2013.1, Build901 2013/11/27)

>  <Rbt.Parameter_File>
/export/apps/rDock/src/rDock_2013.1_src/data/scripts/dock_solv.prm

>  <Rbt.Receptor>
prm/pocket_docking_7.prm

>  <SCORE>
-12.8339

>  <SCORE.INTER>
-12.6937

>  <SCORE.INTER.CONST>
1

>  <SCORE.INTER.POLAR>
0

>  <SCORE.INTER.ROT>
3

>  <SCORE.INTER.SOLV>
10.6521

>  <SCORE.INTER.VDW>
-17.6132

>  <SCORE.INTER.norm>
-1.05781

>  <SCORE.INTRA>
-0.14022

>  <SCORE.INTRA.DIHEDRAL>
0.114964

>  <SCORE.INTRA.DIHEDRAL.0>
2.1382

>  <SCORE.INTRA.POLAR>
0

>  <SCORE.INTRA.POLAR.0>
0

>  <SCORE.INTRA.REPUL>
0

>  <SCORE.INTRA.REPUL.0>
0

>  <SCORE.INTRA.SOLV>
-1.27897

>  <SCORE.INTRA.SOLV.lig_0>
-59.6513

>  <SCORE.INTRA.VDW>
0.441784

>  <SCORE.INTRA.VDW.0>
-0.569808

>  <SCORE.INTRA.norm>
-0.011685

>  <SCORE.RESTR>
0

>  <SCORE.RESTR.CAVITY>
0

>  <SCORE.RESTR.norm>
0

>  <SCORE.SYSTEM>
0

>  <SCORE.SYSTEM.CONST>
0

>  <SCORE.SYSTEM.DIHEDRAL>
0

>  <SCORE.SYSTEM.SOLV>
0

>  <SCORE.SYSTEM.norm>
0

>  <SCORE.heavy>
12

>  <SCORE.norm>
-1.06949

>  <RMSD>
2.835

$$$$
ligand
 OpenBabel11021811503D
libRbt.so/2013.1/901 2013/11/27
 12 12  0  0  0  0  0  0  0  0999 V2000
   10.2339   13.6937  147.9301 C   0  0  0  0  0  0  0  0  0  0  0  0
   12.5801    9.0923  146.0093 C   0  0  0  0  0  0  0  0  0  0  0  0
   10.0897   11.3507  149.2874 N   0  0  0  0  0  0  0  0  0  0  0  0
   11.2332   14.7510  147.7163 N   0  0  0  0  0  0  0  0  0  0  0  0
   11.0736   15.7133  148.2742 N   0  0  0  0  0  0  0  0  0  0  0  0
   10.9148   16.6706  148.8371 N   0  0  0  0  0  0  0  0  0  0  0  0
   12.0747   11.3781  145.7722 N   0  0  0  0  0  0  0  0  0  0  0  0
   11.9885   10.2516  146.4959 C   0  0  0  0  0  0  0  0  0  0  0  0
   11.2759   10.2196  147.6310 N   0  0  0  0  0  0  0  0  0  0  0  0
   10.6358   11.3093  148.0758 C   0  0  0  0  0  0  0  0  0  0  0  0
   10.6843   12.5055  147.3670 C   0  0  0  0  0  0  0  0  0  0  0  0
   11.4129   12.5389  146.1862 C   0  0  0  0  0  0  0  0  0  0  0  0
  1 11  1  0  0  0  0
  1  4  1  0  0  0  0
  2  8  1  0  0  0  0
  3 10  1  0  0  0  0
  4  5  1  0  0  0  0
  5  6  1  0  0  0  0
  7  8  2  0  0  0  0
  7 12  1  0  0  0  0
  8  9  1  0  0  0  0
  9 10  2  0  0  0  0
 10 11  1  0  0  0  0
 11 12  2  0  0  0  0
M  END
>  <CHROM.1>
132.28450502,-169.76886526,62.05837703,11.19204871,12.47477847,147.47748359
1.89072710,0.99482403,0.03807669

>  <Name>
ligand

>  <RI>
0

>  <Rbt.Current_Directory>
/home/itssahil/PROJECTS/Mol_Feturizer/New_Systems/rnas/4NYA

>  <Rbt.Executable>
rbdock ($Id: //depot/dev/client3/rdock/2013.1/src/exe/rbdock.cxx#4 $)

>  <Rbt.Library>
libRbt.so (2013.1, Build901 2013/11/27)

>  <Rbt.Parameter_File>
/export/apps/rDock/src/rDock_2013.1_src/data/scripts/dock_solv.prm

>  <Rbt.Receptor>
prm/pocket_docking_8.prm

>  <SCORE>
-12.8858

>  <SCORE.INTER>
-12.6816

>  <SCORE.INTER.CONST>
1

>  <SCORE.INTER.POLAR>
0

>  <SCORE.INTER.ROT>
3

>  <SCORE.INTER.SOLV>
10.8507

>  <SCORE.INTER.VDW>
-17.6713

>  <SCORE.INTER.norm>
-1.0568

>  <SCORE.INTRA>
-0.204185

>  <SCORE.INTRA.DIHEDRAL>
0.0450206

>  <SCORE.INTRA.DIHEDRAL.0>
2.1382

>  <SCORE.INTRA.POLAR>
0

>  <SCORE.INTRA.POLAR.0>
0

>  <SCORE.INTRA.REPUL>
0

>  <SCORE.INTRA.REPUL.0>
0

>  <SCORE.INTRA.SOLV>
-1.25083

>  <SCORE.INTRA.SOLV.lig_0>
-59.6513

>  <SCORE.INTRA.VDW>
0.398721

>  <SCORE.INTRA.VDW.0>
-0.569808

>  <SCORE.INTRA.norm>
-0.0170154

>  <SCORE.RESTR>
0

>  <SCORE.RESTR.CAVITY>
0

>  <SCORE.RESTR.norm>
0

>  <SCORE.SYSTEM>
0

>  <SCORE.SYSTEM.CONST>
0

>  <SCORE.SYSTEM.DIHEDRAL>
0

>  <SCORE.SYSTEM.SOLV>
0

>  <SCORE.SYSTEM.norm>
0

>  <SCORE.heavy>
12

>  <SCORE.norm>
-1.07382

>  <RMSD>
2.838

$$$$
ligand
 OpenBabel11021811503D
libRbt.so/2013.1/901 2013/11/27
 12 12  0  0  0  0  0  0  0  0999 V2000
   10.2353   13.7103  147.9582 C   0  0  0  0  0  0  0  0  0  0  0  0
   12.5544    9.1182  145.9833 C   0  0  0  0  0  0  0  0  0  0  0  0
    9.9517   11.3221  149.2108 N   0  0  0  0  0  0  0  0  0  0  0  0
   11.2087   14.7844  147.7113 N   0  0  0  0  0  0  0  0  0  0  0  0
   11.0633   15.7368  148.2897 N   0  0  0  0  0  0  0  0  0  0  0  0
   10.9189   16.6841  148.8729 N   0  0  0  0  0  0  0  0  0  0  0  0
   12.1266   11.4255  145.8113 N   0  0  0  0  0  0  0  0  0  0  0  0
   11.9695   10.2750  146.4835 C   0  0  0  0  0  0  0  0  0  0  0  0
   11.1952   10.2207  147.5766 N   0  0  0  0  0  0  0  0  0  0  0  0
   10.5621   11.3112  148.0296 C   0  0  0  0  0  0  0  0  0  0  0  0
   10.6827   12.5318  147.3730 C   0  0  0  0  0  0  0  0  0  0  0  0
   11.4756   12.5888  146.2353 C   0  0  0  0  0  0  0  0  0  0  0  0
  1 11  1  0  0  0  0
  1  4  1  0  0  0  0
  2  8  1  0  0  0  0
  3 10  1  0  0  0  0
  4  5  1  0  0  0  0
  5  6  1  0  0  0  0
  7  8  2  0  0  0  0
  7 12  1  0  0  0  0
  8  9  1  0  0  0  0
  9 10  2  0  0  0  0
 10 11  1  0  0  0  0
 11 12  2  0  0  0  0
M  END
>  <CHROM.1>
138.50737867,-168.96579250,60.69760107,11.17024369,12.49406805,147.47326359
1.85595682,0.94078675,0.08024787

>  <Name>
ligand

>  <RI>
0

>  <Rbt.Current_Directory>
/home/itssahil/PROJECTS/Mol_Feturizer/New_Systems/rnas/4NYA

>  <Rbt.Executable>
rbdock ($Id: //depot/dev/client3/rdock/2013.1/src/exe/rbdock.cxx#4 $)

>  <Rbt.Library>
libRbt.so (2013.1, Build901 2013/11/27)

>  <Rbt.Parameter_File>
/export/apps/rDock/src/rDock_2013.1_src/data/scripts/dock_solv.prm

>  <Rbt.Receptor>
prm/pocket_docking_8.prm

>  <SCORE>
-12.8806

>  <SCORE.INTER>
-12.8106

>  <SCORE.INTER.CONST>
1

>  <SCORE.INTER.POLAR>
0

>  <SCORE.INTER.ROT>
3

>  <SCORE.INTER.SOLV>
10.67

>  <SCORE.INTER.VDW>
-17.6971

>  <SCORE.INTER.norm>
-1.06755

>  <SCORE.INTRA>
-0.0700131

>  <SCORE.INTRA.DIHEDRAL>
0.130343

>  <SCORE.INTRA.DIHEDRAL.0>
2.1382

>  <SCORE.INTRA.POLAR>
0

>  <SCORE.INTRA.POLAR.0>
0

>  <SCORE.INTRA.REPUL>
0

>  <SCORE.INTRA.REPUL.0>
0

>  <SCORE.INTRA.SOLV>
-1.31339

>  <SCORE.INTRA.SOLV.lig_0>
-59.6513

>  <SCORE.INTRA.VDW>
0.521509

>  <SCORE.INTRA.VDW.0>
-0.569808

>  <SCORE.INTRA.norm>
-0.00583442

>  <SCORE.RESTR>
0

>  <SCORE.RESTR.CAVITY>
0

>  <SCORE.RESTR.norm>
0

>  <SCORE.SYSTEM>
0

>  <SCORE.SYSTEM.CONST>
0

>  <SCORE.SYSTEM.DIHEDRAL>
0

>  <SCORE.SYSTEM.SOLV>
0

>  <SCORE.SYSTEM.norm>
0

>  <SCORE.heavy>
12

>  <SCORE.norm>
-1.07338

>  <RMSD>
2.839

$$$$
ligand
 OpenBabel11021811503D
libRbt.so/2013.1/901 2013/11/27
 12 12  0  0  0  0  0  0  0  0999 V2000
   10.2681   13.7131  147.9085 C   0  0  0  0  0  0  0  0  0  0  0  0
   12.5404    9.0689  146.0021 C   0  0  0  0  0  0  0  0  0  0  0  0
    9.8484   11.3235  149.1195 N   0  0  0  0  0  0  0  0  0  0  0  0
   11.2829   14.7599  147.7171 N   0  0  0  0  0  0  0  0  0  0  0  0
   11.1439   15.7077  148.3045 N   0  0  0  0  0  0  0  0  0  0  0  0
   11.0058   16.6503  148.8967 N   0  0  0  0  0  0  0  0  0  0  0  0
   12.1932   11.3901  145.8339 N   0  0  0  0  0  0  0  0  0  0  0  0
   11.9671   10.2389  146.4850 C   0  0  0  0  0  0  0  0  0  0  0  0
   11.1376   10.1988  147.5374 N   0  0  0  0  0  0  0  0  0  0  0  0
   10.5167   11.3044  147.9701 C   0  0  0  0  0  0  0  0  0  0  0  0
   10.7076   12.5266  147.3335 C   0  0  0  0  0  0  0  0  0  0  0  0
   11.5579   12.5692  146.2375 C   0  0  0  0  0  0  0  0  0  0  0  0
  1 11  1  0  0  0  0
  1  4  1  0  0  0  0
  2  8  1  0  0  0  0
  3 10  1  0  0  0  0
  4  5  1  0  0  0  0
  5  6  1  0  0  0  0
  7  8  2  0  0  0  0
  7 12  1  0  0  0  0
  8  9  1  0  0  0  0
  9 10  2  0  0  0  0
 10 11  1  0  0  0  0
 11 12  2  0  0  0  0
M  END
>  <CHROM.1>
138.74458150,-168.39755528,61.97146286,11.18903425,12.47220367,147.45807287
1.81256392,0.88798605,0.12527672

>  <Name>
ligand

>  <RI>
0

>  <Rbt.Current_Directory>
/home/itssahil/PROJECTS/Mol_Feturizer/New_Systems/rnas/4NYA

>  <Rbt.Executable>
rbdock ($Id: //depot/dev/client3/rdock/2013.1/src/exe/rbdock.cxx#4 $)

>  <Rbt.Library>
libRbt.so (2013.1, Build901 2013/11/27)

>  <Rbt.Parameter_File>
/export/apps/rDock/src/rDock_2013.1_src/data/scripts/dock_solv.prm

>  <Rbt.Receptor>
prm/pocket_docking_7.prm

>  <SCORE>
-12.9402

>  <SCORE.INTER>
-12.8801

>  <SCORE.INTER.CONST>
1

>  <SCORE.INTER.POLAR>
0

>  <SCORE.INTER.ROT>
3

>  <SCORE.INTER.SOLV>
10.8257

>  <SCORE.INTER.VDW>
-17.7953

>  <SCORE.INTER.norm>
-1.07334

>  <SCORE.INTRA>
-0.0601774

>  <SCORE.INTRA.DIHEDRAL>
0.143037

>  <SCORE.INTRA.DIHEDRAL.0>
2.1382

>  <SCORE.INTRA.POLAR>
0

>  <SCORE.INTRA.POLAR.0>
0

>  <SCORE.INTRA.REPUL>
0

>  <SCORE.INTRA.REPUL.0>
0

>  <SCORE.INTRA.SOLV>
-1.31551

>  <SCORE.INTRA.SOLV.lig_0>
-59.6513

>  <SCORE.INTRA.VDW>
0.526059

>  <SCORE.INTRA.VDW.0>
-0.569808

>  <SCORE.INTRA.norm>
-0.00501478

>  <SCORE.RESTR>
0

>  <SCORE.RESTR.CAVITY>
0

>  <SCORE.RESTR.norm>
0

>  <SCORE.SYSTEM>
0

>  <SCORE.SYSTEM.CONST>
0

>  <SCORE.SYSTEM.DIHEDRAL>
0

>  <SCORE.SYSTEM.SOLV>
0

>  <SCORE.SYSTEM.norm>
0

>  <SCORE.heavy>
12

>  <SCORE.norm>
-1.07835

>  <RMSD>
2.840

$$$$
ligand
 OpenBabel11021811503D
libRbt.so/2013.1/901 2013/11/27
 12 12  0  0  0  0  0  0  0  0999 V2000
   10.2289   13.7104  147.9421 C   0  0  0  0  0  0  0  0  0  0  0  0
   12.5258    9.0884  146.0113 C   0  0  0  0  0  0  0  0  0  0  0  0
    9.8179   11.3114  149.1376 N   0  0  0  0  0  0  0  0  0  0  0  0
   11.2132   14.7776  147.7091 N   0  0  0  0  0  0  0  0  0  0  0  0
   11.0611   15.7343  148.2787 N   0  0  0  0  0  0  0  0  0  0  0  0
   10.9032   16.6900  148.8445 N   0  0  0  0  0  0  0  0  0  0  0  0
   12.1684   11.4089  145.8568 N   0  0  0  0  0  0  0  0  0  0  0  0
   11.9463   10.2528  146.5004 C   0  0  0  0  0  0  0  0  0  0  0  0
   11.1151   10.2023  147.5510 N   0  0  0  0  0  0  0  0  0  0  0  0
   10.4883   11.3024  147.9893 C   0  0  0  0  0  0  0  0  0  0  0  0
   10.6749   12.5294  147.3607 C   0  0  0  0  0  0  0  0  0  0  0  0
   11.5270   12.5827  146.2665 C   0  0  0  0  0  0  0  0  0  0  0  0
  1 11  1  0  0  0  0
  1  4  1  0  0  0  0
  2  8  1  0  0  0  0
  3 10  1  0  0  0  0
  4  5  1  0  0  0  0
  5  6  1  0  0  0  0
  7  8  2  0  0  0  0
  7 12  1  0  0  0  0
  8  9  1  0  0  0  0
  9 10  2  0  0  0  0
 10 11  1  0  0  0  0
 11 12  2  0  0  0  0
M  END
>  <CHROM.1>
141.15469102,-169.61274662,-58.66147405,11.14692291,12.48408177,147.46591221
1.82781274,0.88831283,0.10445338

>  <Name>
ligand

>  <RI>
0

>  <Rbt.Current_Directory>
/home/itssahil/PROJECTS/Mol_Feturizer/New_Systems/rnas/4NYA

>  <Rbt.Executable>
rbdock ($Id: //depot/dev/client3/rdock/2013.1/src/exe/rbdock.cxx#4 $)

>  <Rbt.Library>
libRbt.so (2013.1, Build901 2013/11/27)

>  <Rbt.Parameter_File>
/export/apps/rDock/src/rDock_2013.1_src/data/scripts/dock_solv.prm

>  <Rbt.Receptor>
prm/pocket_docking_5.prm

>  <SCORE>
-12.9692

>  <SCORE.INTER>
-12.9585

>  <SCORE.INTER.CONST>
1

>  <SCORE.INTER.POLAR>
0

>  <SCORE.INTER.ROT>
3

>  <SCORE.INTER.SOLV>
10.7004

>  <SCORE.INTER.VDW>
-17.8058

>  <SCORE.INTER.norm>
-1.07987

>  <SCORE.INTRA>
-0.0106665

>  <SCORE.INTRA.DIHEDRAL>
0.135548

>  <SCORE.INTRA.DIHEDRAL.0>
2.1382

>  <SCORE.INTRA.POLAR>
0

>  <SCORE.INTRA.POLAR.0>
0

>  <SCORE.INTRA.REPUL>
0

>  <SCORE.INTRA.REPUL.0>
0

>  <SCORE.INTRA.SOLV>
-1.33804

>  <SCORE.INTRA.SOLV.lig_0>
-59.6513

>  <SCORE.INTRA.VDW>
0.590581

>  <SCORE.INTRA.VDW.0>
-0.569808

>  <SCORE.INTRA.norm>
-0.000888874

>  <SCORE.RESTR>
0

>  <SCORE.RESTR.CAVITY>
0

>  <SCORE.RESTR.norm>
0

>  <SCORE.SYSTEM>
0

>  <SCORE.SYSTEM.CONST>
0

>  <SCORE.SYSTEM.DIHEDRAL>
0

>  <SCORE.SYSTEM.SOLV>
0

>  <SCORE.SYSTEM.norm>
0

>  <SCORE.heavy>
12

>  <SCORE.norm>
-1.08076

>  <RMSD>
2.842

$$$$
ligand
 OpenBabel11021811503D
libRbt.so/2013.1/901 2013/11/27
 12 12  0  0  0  0  0  0  0  0999 V2000
   10.2305   13.7132  147.9324 C   0  0  0  0  0  0  0  0  0  0  0  0
   12.5388    9.0920  146.0135 C   0  0  0  0  0  0  0  0  0  0  0  0
    9.8214   11.3156  149.1312 N   0  0  0  0  0  0  0  0  0  0  0  0
   11.2161   14.7804  147.7043 N   0  0  0  0  0  0  0  0  0  0  0  0
   11.0621   15.7366  148.2742 N   0  0  0  0  0  0  0  0  0  0  0  0
   10.9023   16.6919  148.8401 N   0  0  0  0  0  0  0  0  0  0  0  0
   12.1777   11.4117  145.8545 N   0  0  0  0  0  0  0  0  0  0  0  0
   11.9565   10.2562  146.4995 C   0  0  0  0  0  0  0  0  0  0  0  0
   11.1234   10.2061  147.5487 N   0  0  0  0  0  0  0  0  0  0  0  0
   10.4940   11.3058  147.9841 C   0  0  0  0  0  0  0  0  0  0  0  0
   10.6796   12.5321  147.3538 C   0  0  0  0  0  0  0  0  0  0  0  0
   11.5336   12.5850  146.2611 C   0  0  0  0  0  0  0  0  0  0  0  0
  1 11  1  0  0  0  0
  1  4  1  0  0  0  0
  2  8  1  0  0  0  0
  3 10  1  0  0  0  0
  4  5  1  0  0  0  0
  5  6  1  0  0  0  0
  7  8  2  0  0  0  0
  7 12  1  0  0  0  0
  8  9  1  0  0  0  0
  9 10  2  0  0  0  0
 10 11  1  0  0  0  0
 11 12  2  0  0  0  0
M  END
>  <CHROM.1>
140.91963918,-169.50168450,-60.15189565,11.15238430,12.48708421,147.46174843
1.83004546,0.88650258,0.10243034

>  <Name>
ligand

>  <RI>
0

>  <Rbt.Current_Directory>
/home/itssahil/PROJECTS/Mol_Feturizer/New_Systems/rnas/4NYA

>  <Rbt.Executable>
rbdock ($Id: //depot/dev/client3/rdock/2013.1/src/exe/rbdock.cxx#4 $)

>  <Rbt.Library>
libRbt.so (2013.1, Build901 2013/11/27)

>  <Rbt.Parameter_File>
/export/apps/rDock/src/rDock_2013.1_src/data/scripts/dock_solv.prm

>  <Rbt.Receptor>
prm/pocket_docking_6.prm

>  <SCORE>
-12.9689

>  <SCORE.INTER>
-12.9547

>  <SCORE.INTER.CONST>
1

>  <SCORE.INTER.POLAR>
0

>  <SCORE.INTER.ROT>
3

>  <SCORE.INTER.SOLV>
10.7386

>  <SCORE.INTER.VDW>
-17.816

>  <SCORE.INTER.norm>
-1.07956

>  <SCORE.INTRA>
-0.0141795

>  <SCORE.INTRA.DIHEDRAL>
0.135878

>  <SCORE.INTRA.DIHEDRAL.0>
2.1382

>  <SCORE.INTRA.POLAR>
0

>  <SCORE.INTRA.POLAR.0>
0

>  <SCORE.INTRA.REPUL>
0

>  <SCORE.INTRA.REPUL.0>
0

>  <SCORE.INTRA.SOLV>
-1.33594

>  <SCORE.INTRA.SOLV.lig_0>
-59.6513

>  <SCORE.INTRA.VDW>
0.585853

>  <SCORE.INTRA.VDW.0>
-0.569808

>  <SCORE.INTRA.norm>
-0.00118163

>  <SCORE.RESTR>
0

>  <SCORE.RESTR.CAVITY>
0

>  <SCORE.RESTR.norm>
0

>  <SCORE.SYSTEM>
0

>  <SCORE.SYSTEM.CONST>
0

>  <SCORE.SYSTEM.DIHEDRAL>
0

>  <SCORE.SYSTEM.SOLV>
0

>  <SCORE.SYSTEM.norm>
0

>  <SCORE.heavy>
12

>  <SCORE.norm>
-1.08074

>  <RMSD>
2.843

$$$$
ligand
 OpenBabel11021811503D
libRbt.so/2013.1/901 2013/11/27
 12 12  0  0  0  0  0  0  0  0999 V2000
   10.3019   13.6525  147.9959 C   0  0  0  0  0  0  0  0  0  0  0  0
   12.5982    9.0955  145.9156 C   0  0  0  0  0  0  0  0  0  0  0  0
    9.8681   11.2123  149.0959 N   0  0  0  0  0  0  0  0  0  0  0  0
   11.2139   14.7625  147.6822 N   0  0  0  0  0  0  0  0  0  0  0  0
   11.0542   15.7194  148.2494 N   0  0  0  0  0  0  0  0  0  0  0  0
   10.8958   16.6712  148.8215 N   0  0  0  0  0  0  0  0  0  0  0  0
   12.2525   11.4219  145.8450 N   0  0  0  0  0  0  0  0  0  0  0  0
   12.0188   10.2434  146.4423 C   0  0  0  0  0  0  0  0  0  0  0  0
   11.1766   10.1575  147.4818 N   0  0  0  0  0  0  0  0  0  0  0  0
   10.5503   11.2433  147.9549 C   0  0  0  0  0  0  0  0  0  0  0  0
   10.7486   12.4922  147.3749 C   0  0  0  0  0  0  0  0  0  0  0  0
   11.6122   12.5825  146.2922 C   0  0  0  0  0  0  0  0  0  0  0  0
  1 11  1  0  0  0  0
  1  4  1  0  0  0  0
  2  8  1  0  0  0  0
  3 10  1  0  0  0  0
  4  5  1  0  0  0  0
  5  6  1  0  0  0  0
  7  8  2  0  0  0  0
  7 12  1  0  0  0  0
  8  9  1  0  0  0  0
  9 10  2  0  0  0  0
 10 11  1  0  0  0  0
 11 12  2  0  0  0  0
M  END
>  <CHROM.1>
147.70045994,-170.91696566,59.15101591,11.19772291,12.45618230,147.44017738
1.84065793,0.88363364,0.10037942

>  <Name>
ligand

>  <RI>
0

>  <Rbt.Current_Directory>
/home/itssahil/PROJECTS/Mol_Feturizer/New_Systems/rnas/4NYA

>  <Rbt.Executable>
rbdock ($Id: //depot/dev/client3/rdock/2013.1/src/exe/rbdock.cxx#4 $)

>  <Rbt.Library>
libRbt.so (2013.1, Build901 2013/11/27)

>  <Rbt.Parameter_File>
/export/apps/rDock/src/rDock_2013.1_src/data/scripts/dock_solv.prm

>  <Rbt.Receptor>
prm/pocket_docking_8.prm

>  <SCORE>
-12.9387

>  <SCORE.INTER>
-12.9977

>  <SCORE.INTER.CONST>
1

>  <SCORE.INTER.POLAR>
0

>  <SCORE.INTER.ROT>
3

>  <SCORE.INTER.SOLV>
10.9752

>  <SCORE.INTER.VDW>
-17.9235

>  <SCORE.INTER.norm>
-1.08314

>  <SCORE.INTRA>
0.0589967

>  <SCORE.INTRA.DIHEDRAL>
0.11206

>  <SCORE.INTRA.DIHEDRAL.0>
2.1382

>  <SCORE.INTRA.POLAR>
0

>  <SCORE.INTRA.POLAR.0>
0

>  <SCORE.INTRA.REPUL>
0

>  <SCORE.INTRA.REPUL.0>
0

>  <SCORE.INTRA.SOLV>
-1.39404

>  <SCORE.INTRA.SOLV.lig_0>
-59.6513

>  <SCORE.INTRA.VDW>
0.699985

>  <SCORE.INTRA.VDW.0>
-0.569808

>  <SCORE.INTRA.norm>
0.00491639

>  <SCORE.RESTR>
0

>  <SCORE.RESTR.CAVITY>
0

>  <SCORE.RESTR.norm>
0

>  <SCORE.SYSTEM>
0

>  <SCORE.SYSTEM.CONST>
0

>  <SCORE.SYSTEM.DIHEDRAL>
0

>  <SCORE.SYSTEM.SOLV>
0

>  <SCORE.SYSTEM.norm>
0

>  <SCORE.heavy>
12

>  <SCORE.norm>
-1.07823

>  <RMSD>
2.848

$$$$
ligand
 OpenBabel11021811503D
libRbt.so/2013.1/901 2013/11/27
 12 12  0  0  0  0  0  0  0  0999 V2000
   10.2454   13.7088  147.9554 C   0  0  0  0  0  0  0  0  0  0  0  0
   12.5346    9.0952  145.9955 C   0  0  0  0  0  0  0  0  0  0  0  0
    9.8272   11.3024  149.1334 N   0  0  0  0  0  0  0  0  0  0  0  0
   11.1937   14.7942  147.6643 N   0  0  0  0  0  0  0  0  0  0  0  0
   11.0549   15.7500  148.2388 N   0  0  0  0  0  0  0  0  0  0  0  0
   10.9099   16.7045  148.8100 N   0  0  0  0  0  0  0  0  0  0  0  0
   12.1826   11.4176  145.8568 N   0  0  0  0  0  0  0  0  0  0  0  0
   11.9570   10.2574  146.4919 C   0  0  0  0  0  0  0  0  0  0  0  0
   11.1242   10.2015  147.5409 N   0  0  0  0  0  0  0  0  0  0  0  0
   10.4993   11.2999  147.9861 C   0  0  0  0  0  0  0  0  0  0  0  0
   10.6895   12.5309  147.3664 C   0  0  0  0  0  0  0  0  0  0  0  0
   11.5434   12.5899  146.2738 C   0  0  0  0  0  0  0  0  0  0  0  0
  1 11  1  0  0  0  0
  1  4  1  0  0  0  0
  2  8  1  0  0  0  0
  3 10  1  0  0  0  0
  4  5  1  0  0  0  0
  5  6  1  0  0  0  0
  7  8  2  0  0  0  0
  7 12  1  0  0  0  0
  8  9  1  0  0  0  0
  9 10  2  0  0  0  0
 10 11  1  0  0  0  0
 11 12  2  0  0  0  0
M  END
>  <CHROM.1>
144.44953474,-168.91924810,-56.38453468,11.15427213,12.48935761,147.45407645
1.82965403,0.88921085,0.09736648

>  <Name>
ligand

>  <RI>
0

>  <Rbt.Current_Directory>
/home/itssahil/PROJECTS/Mol_Feturizer/New_Systems/rnas/4NYA

>  <Rbt.Executable>
rbdock ($Id: //depot/dev/client3/rdock/2013.1/src/exe/rbdock.cxx#4 $)

>  <Rbt.Library>
libRbt.so (2013.1, Build901 2013/11/27)

>  <Rbt.Parameter_File>
/export/apps/rDock/src/rDock_2013.1_src/data/scripts/dock_solv.prm

>  <Rbt.Receptor>
prm/pocket_docking_7.prm

>  <SCORE>
-12.962

>  <SCORE.INTER>
-12.9952

>  <SCORE.INTER.CONST>
1

>  <SCORE.INTER.POLAR>
0

>  <SCORE.INTER.ROT>
3

>  <SCORE.INTER.SOLV>
10.8302

>  <SCORE.INTER.VDW>
-17.8736

>  <SCORE.INTER.norm>
-1.08294

>  <SCORE.INTRA>
0.0332279

>  <SCORE.INTRA.DIHEDRAL>
0.156134

>  <SCORE.INTRA.DIHEDRAL.0>
2.1382

>  <SCORE.INTRA.POLAR>
0

>  <SCORE.INTRA.POLAR.0>
0

>  <SCORE.INTRA.REPUL>
0

>  <SCORE.INTRA.REPUL.0>
0

>  <SCORE.INTRA.SOLV>
-1.36647

>  <SCORE.INTRA.SOLV.lig_0>
-59.6513

>  <SCORE.INTRA.VDW>
0.638395

>  <SCORE.INTRA.VDW.0>
-0.569808

>  <SCORE.INTRA.norm>
0.002769

>  <SCORE.RESTR>
0

>  <SCORE.RESTR.CAVITY>
0

>  <SCORE.RESTR.norm>
0

>  <SCORE.SYSTEM>
0

>  <SCORE.SYSTEM.CONST>
0

>  <SCORE.SYSTEM.DIHEDRAL>
0

>  <SCORE.SYSTEM.SOLV>
0

>  <SCORE.SYSTEM.norm>
0

>  <SCORE.heavy>
12

>  <SCORE.norm>
-1.08017

>  <RMSD>
2.853

$$$$
ligand
 OpenBabel11021811503D
libRbt.so/2013.1/901 2013/11/27
 12 12  0  0  0  0  0  0  0  0999 V2000
   10.2746   13.7490  147.8902 C   0  0  0  0  0  0  0  0  0  0  0  0
   12.5308    9.0965  145.9849 C   0  0  0  0  0  0  0  0  0  0  0  0
    9.7810   11.3494  149.0527 N   0  0  0  0  0  0  0  0  0  0  0  0
   11.2684   14.8079  147.6593 N   0  0  0  0  0  0  0  0  0  0  0  0
   11.1209   15.7673  148.2255 N   0  0  0  0  0  0  0  0  0  0  0  0
   10.9792   16.7276  148.7878 N   0  0  0  0  0  0  0  0  0  0  0  0
   12.2253   11.4251  145.8406 N   0  0  0  0  0  0  0  0  0  0  0  0
   11.9615   10.2685  146.4675 C   0  0  0  0  0  0  0  0  0  0  0  0
   11.0999   10.2267  147.4937 N   0  0  0  0  0  0  0  0  0  0  0  0
   10.4835   11.3359  147.9238 C   0  0  0  0  0  0  0  0  0  0  0  0
   10.7128   12.5639  147.3114 C   0  0  0  0  0  0  0  0  0  0  0  0
   11.5966   12.6084  146.2422 C   0  0  0  0  0  0  0  0  0  0  0  0
  1 11  1  0  0  0  0
  1  4  1  0  0  0  0
  2  8  1  0  0  0  0
  3 10  1  0  0  0  0
  4  5  1  0  0  0  0
  5  6  1  0  0  0  0
  7  8  2  0  0  0  0
  7 12  1  0  0  0  0
  8  9  1  0  0  0  0
  9 10  2  0  0  0  0
 10 11  1  0  0  0  0
 11 12  2  0  0  0  0
M  END
>  <CHROM.1>
142.84891132,-169.76061178,-179.91907033,11.17716035,12.51195436,147.41846379
1.80325280,0.85891841,0.12362440

>  <Name>
ligand

>  <RI>
0

>  <Rbt.Current_Directory>
/home/itssahil/PROJECTS/Mol_Feturizer/New_Systems/rnas/4NYA

>  <Rbt.Executable>
rbdock ($Id: //depot/dev/client3/rdock/2013.1/src/exe/rbdock.cxx#4 $)

>  <Rbt.Library>
libRbt.so (2013.1, Build901 2013/11/27)

>  <Rbt.Parameter_File>
/export/apps/rDock/src/rDock_2013.1_src/data/scripts/dock_solv.prm

>  <Rbt.Receptor>
prm/pocket_docking_5.prm

>  <SCORE>
-12.8634

>  <SCORE.INTER>
-12.8762

>  <SCORE.INTER.CONST>
1

>  <SCORE.INTER.POLAR>
0

>  <SCORE.INTER.ROT>
3

>  <SCORE.INTER.SOLV>
11.1989

>  <SCORE.INTER.VDW>
-17.9171

>  <SCORE.INTER.norm>
-1.07301

>  <SCORE.INTRA>
0.0127383

>  <SCORE.INTRA.DIHEDRAL>
0.137602

>  <SCORE.INTRA.DIHEDRAL.0>
2.1382

>  <SCORE.INTRA.POLAR>
0

>  <SCORE.INTRA.POLAR.0>
0

>  <SCORE.INTRA.REPUL>
0

>  <SCORE.INTRA.REPUL.0>
0

>  <SCORE.INTRA.SOLV>
-1.35752

>  <SCORE.INTRA.SOLV.lig_0>
-59.6513

>  <SCORE.INTRA.VDW>
0.622696

>  <SCORE.INTRA.VDW.0>
-0.569808

>  <SCORE.INTRA.norm>
0.00106153

>  <SCORE.RESTR>
0

>  <SCORE.RESTR.CAVITY>
0

>  <SCORE.RESTR.norm>
0

>  <SCORE.SYSTEM>
0

>  <SCORE.SYSTEM.CONST>
0

>  <SCORE.SYSTEM.DIHEDRAL>
0

>  <SCORE.SYSTEM.SOLV>
0

>  <SCORE.SYSTEM.norm>
0

>  <SCORE.heavy>
12

>  <SCORE.norm>
-1.07195

>  <RMSD>
2.868

$$$$
ligand
 OpenBabel11021811503D
libRbt.so/2013.1/901 2013/11/27
 12 12  0  0  0  0  0  0  0  0999 V2000
   10.4184   13.4702  147.9509 C   0  0  0  0  0  0  0  0  0  0  0  0
   12.7181    8.9419  145.8125 C   0  0  0  0  0  0  0  0  0  0  0  0
    9.9020   11.0042  148.9534 N   0  0  0  0  0  0  0  0  0  0  0  0
   11.2205   14.6244  147.5188 N   0  0  0  0  0  0  0  0  0  0  0  0
   11.0112   15.6019  148.0322 N   0  0  0  0  0  0  0  0  0  0  0  0
   10.7959   16.5774  148.5425 N   0  0  0  0  0  0  0  0  0  0  0  0
   12.4139   11.2751  145.8047 N   0  0  0  0  0  0  0  0  0  0  0  0
   12.1378   10.0825  146.3538 C   0  0  0  0  0  0  0  0  0  0  0  0
   11.2546    9.9784  147.3570 N   0  0  0  0  0  0  0  0  0  0  0  0
   10.6283   11.0594  147.8410 C   0  0  0  0  0  0  0  0  0  0  0  0
   10.8697   12.3225  147.3100 C   0  0  0  0  0  0  0  0  0  0  0  0
   11.7760   12.4320  146.2646 C   0  0  0  0  0  0  0  0  0  0  0  0
  1 11  1  0  0  0  0
  1  4  1  0  0  0  0
  2  8  1  0  0  0  0
  3 10  1  0  0  0  0
  4  5  1  0  0  0  0
  5  6  1  0  0  0  0
  7  8  2  0  0  0  0
  7 12  1  0  0  0  0
  8  9  1  0  0  0  0
  9 10  2  0  0  0  0
 10 11  1  0  0  0  0
 11 12  2  0  0  0  0
M  END
>  <CHROM.1>
157.68814553,-174.97508007,-59.72005376,11.26688075,12.29962135,147.32058693
1.86554506,0.85594319,0.06138341

>  <Name>
ligand

>  <RI>
0

>  <Rbt.Current_Directory>
/home/itssahil/PROJECTS/Mol_Feturizer/New_Systems/rnas/4NYA

>  <Rbt.Executable>
rbdock ($Id: //depot/dev/client3/rdock/2013.1/src/exe/rbdock.cxx#4 $)

>  <Rbt.Library>
libRbt.so (2013.1, Build901 2013/11/27)

>  <Rbt.Parameter_File>
/export/apps/rDock/src/rDock_2013.1_src/data/scripts/dock_solv.prm

>  <Rbt.Receptor>
prm/pocket_docking_4.prm

>  <SCORE>
-12.7234

>  <SCORE.INTER>
-12.8195

>  <SCORE.INTER.CONST>
1

>  <SCORE.INTER.POLAR>
0

>  <SCORE.INTER.ROT>
3

>  <SCORE.INTER.SOLV>
12.0867

>  <SCORE.INTER.VDW>
-18.1753

>  <SCORE.INTER.norm>
-1.0683

>  <SCORE.INTRA>
0.0958872

>  <SCORE.INTRA.DIHEDRAL>
-0.0496264

>  <SCORE.INTRA.DIHEDRAL.0>
2.1382

>  <SCORE.INTRA.POLAR>
0

>  <SCORE.INTRA.POLAR.0>
0

>  <SCORE.INTRA.REPUL>
0

>  <SCORE.INTRA.REPUL.0>
0

>  <SCORE.INTRA.SOLV>
-1.46609

>  <SCORE.INTRA.SOLV.lig_0>
-59.6513

>  <SCORE.INTRA.VDW>
0.853748

>  <SCORE.INTRA.VDW.0>
-0.569808

>  <SCORE.INTRA.norm>
0.0079906

>  <SCORE.RESTR>
0.000234969

>  <SCORE.RESTR.CAVITY>
0.000234969

>  <SCORE.RESTR.norm>
1.95807e-05

>  <SCORE.SYSTEM>
0

>  <SCORE.SYSTEM.CONST>
0

>  <SCORE.SYSTEM.DIHEDRAL>
0

>  <SCORE.SYSTEM.SOLV>
0

>  <SCORE.SYSTEM.norm>
0

>  <SCORE.heavy>
12

>  <SCORE.norm>
-1.06029

>  <RMSD>
2.886

$$$$
ligand
 OpenBabel11021811503D
libRbt.so/2013.1/901 2013/11/27
 12 12  0  0  0  0  0  0  0  0999 V2000
   10.4666   13.4314  148.0443 C   0  0  0  0  0  0  0  0  0  0  0  0
   12.6126    8.9111  145.7361 C   0  0  0  0  0  0  0  0  0  0  0  0
    9.8014   10.9455  148.8994 N   0  0  0  0  0  0  0  0  0  0  0  0
   10.9601   14.6339  147.3569 N   0  0  0  0  0  0  0  0  0  0  0  0
   10.8611   15.6060  147.9118 N   0  0  0  0  0  0  0  0  0  0  0  0
   10.7640   16.5798  148.4601 N   0  0  0  0  0  0  0  0  0  0  0  0
   12.4210   11.2538  145.8432 N   0  0  0  0  0  0  0  0  0  0  0  0
   12.0709   10.0496  146.3201 C   0  0  0  0  0  0  0  0  0  0  0  0
   11.1527    9.9377  147.2905 N   0  0  0  0  0  0  0  0  0  0  0  0
   10.5641   11.0221  147.8128 C   0  0  0  0  0  0  0  0  0  0  0  0
   10.8822   12.2973  147.3568 C   0  0  0  0  0  0  0  0  0  0  0  0
   11.8251   12.4156  146.3452 C   0  0  0  0  0  0  0  0  0  0  0  0
  1 11  1  0  0  0  0
  1  4  1  0  0  0  0
  2  8  1  0  0  0  0
  3 10  1  0  0  0  0
  4  5  1  0  0  0  0
  5  6  1  0  0  0  0
  7  8  2  0  0  0  0
  7 12  1  0  0  0  0
  8  9  1  0  0  0  0
  9 10  2  0  0  0  0
 10 11  1  0  0  0  0
 11 12  2  0  0  0  0
M  END
>  <CHROM.1>
178.98890813,-168.76995530,-170.10083553,11.20062794,12.27594940,147.28764923
1.86444895,0.84717763,0.05227605

>  <Name>
ligand

>  <RI>
0

>  <Rbt.Current_Directory>
/home/itssahil/PROJECTS/Mol_Feturizer/New_Systems/rnas/4NYA

>  <Rbt.Executable>
rbdock ($Id: //depot/dev/client3/rdock/2013.1/src/exe/rbdock.cxx#4 $)

>  <Rbt.Library>
libRbt.so (2013.1, Build901 2013/11/27)

>  <Rbt.Parameter_File>
/export/apps/rDock/src/rDock_2013.1_src/data/scripts/dock_solv.prm

>  <Rbt.Receptor>
prm/pocket_docking_4.prm

>  <SCORE>
-12.8072

>  <SCORE.INTER>
-12.6702

>  <SCORE.INTER.CONST>
1

>  <SCORE.INTER.POLAR>
0

>  <SCORE.INTER.ROT>
3

>  <SCORE.INTER.SOLV>
12.535

>  <SCORE.INTER.VDW>
-18.2251

>  <SCORE.INTER.norm>
-1.05585

>  <SCORE.INTRA>
-0.137062

>  <SCORE.INTRA.DIHEDRAL>
-0.461549

>  <SCORE.INTRA.DIHEDRAL.0>
2.1382

>  <SCORE.INTRA.POLAR>
0

>  <SCORE.INTRA.POLAR.0>
0

>  <SCORE.INTRA.REPUL>
0

>  <SCORE.INTRA.REPUL.0>
0

>  <SCORE.INTRA.SOLV>
-1.55077

>  <SCORE.INTRA.SOLV.lig_0>
-59.6513

>  <SCORE.INTRA.VDW>
0.869096

>  <SCORE.INTRA.VDW.0>
-0.569808

>  <SCORE.INTRA.norm>
-0.0114218

>  <SCORE.RESTR>
0

>  <SCORE.RESTR.CAVITY>
0

>  <SCORE.RESTR.norm>
0

>  <SCORE.SYSTEM>
0

>  <SCORE.SYSTEM.CONST>
0

>  <SCORE.SYSTEM.DIHEDRAL>
0

>  <SCORE.SYSTEM.SOLV>
0

>  <SCORE.SYSTEM.norm>
0

>  <SCORE.heavy>
12

>  <SCORE.norm>
-1.06727

>  <RMSD>
2.899

$$$$
ligand
 OpenBabel11021811503D
libRbt.so/2013.1/901 2013/11/27
 12 12  0  0  0  0  0  0  0  0999 V2000
   10.5943   13.3670  148.0490 C   0  0  0  0  0  0  0  0  0  0  0  0
   12.6032    8.8510  145.6126 C   0  0  0  0  0  0  0  0  0  0  0  0
    9.7027   10.8883  148.6923 N   0  0  0  0  0  0  0  0  0  0  0  0
   10.6719   14.5627  147.1966 N   0  0  0  0  0  0  0  0  0  0  0  0
   10.4197   15.5437  147.6833 N   0  0  0  0  0  0  0  0  0  0  0  0
   10.1690   16.5262  148.1632 N   0  0  0  0  0  0  0  0  0  0  0  0
   12.5602   11.1908  145.8567 N   0  0  0  0  0  0  0  0  0  0  0  0
   12.0959    9.9883  146.2288 C   0  0  0  0  0  0  0  0  0  0  0  0
   11.1017    9.8845  147.1221 N   0  0  0  0  0  0  0  0  0  0  0  0
   10.5487   10.9749  147.6701 C   0  0  0  0  0  0  0  0  0  0  0  0
   10.9844   12.2492  147.3210 C   0  0  0  0  0  0  0  0  0  0  0  0
   12.0067   12.3601  146.3889 C   0  0  0  0  0  0  0  0  0  0  0  0
  1 11  1  0  0  0  0
  1  4  1  0  0  0  0
  2  8  1  0  0  0  0
  3 10  1  0  0  0  0
  4  5  1  0  0  0  0
  5  6  1  0  0  0  0
  7  8  2  0  0  0  0
  7 12  1  0  0  0  0
  8  9  1  0  0  0  0
  9 10  2  0  0  0  0
 10 11  1  0  0  0  0
 11 12  2  0  0  0  0
M  END
>  <CHROM.1>
-155.42870581,-177.62570725,-179.24558524,11.11667628,12.21759736,147.16863676
1.95653408,0.80182246,-0.02122817

>  <Name>
ligand

>  <RI>
0

>  <Rbt.Current_Directory>
/home/itssahil/PROJECTS/Mol_Feturizer/New_Systems/rnas/4NYA

>  <Rbt.Executable>
rbdock ($Id: //depot/dev/client3/rdock/2013.1/src/exe/rbdock.cxx#4 $)

>  <Rbt.Library>
libRbt.so (2013.1, Build901 2013/11/27)

>  <Rbt.Parameter_File>
/export/apps/rDock/src/rDock_2013.1_src/data/scripts/dock_solv.prm

>  <Rbt.Receptor>
prm/pocket_docking_8.prm

>  <SCORE>
-13.2182

>  <SCORE.INTER>
-12.4437

>  <SCORE.INTER.CONST>
1

>  <SCORE.INTER.POLAR>
0

>  <SCORE.INTER.ROT>
3

>  <SCORE.INTER.SOLV>
14.2304

>  <SCORE.INTER.VDW>
-18.6393

>  <SCORE.INTER.norm>
-1.03698

>  <SCORE.INTRA>
-0.774459

>  <SCORE.INTRA.DIHEDRAL>
-0.965907

>  <SCORE.INTRA.DIHEDRAL.0>
2.1382

>  <SCORE.INTRA.POLAR>
0

>  <SCORE.INTRA.POLAR.0>
0

>  <SCORE.INTRA.REPUL>
0

>  <SCORE.INTRA.REPUL.0>
0

>  <SCORE.INTRA.SOLV>
-1.52018

>  <SCORE.INTRA.SOLV.lig_0>
-59.6513

>  <SCORE.INTRA.VDW>
0.468582

>  <SCORE.INTRA.VDW.0>
-0.569808

>  <SCORE.INTRA.norm>
-0.0645383

>  <SCORE.RESTR>
0

>  <SCORE.RESTR.CAVITY>
0

>  <SCORE.RESTR.norm>
0

>  <SCORE.SYSTEM>
0

>  <SCORE.SYSTEM.CONST>
0

>  <SCORE.SYSTEM.DIHEDRAL>
0

>  <SCORE.SYSTEM.SOLV>
0

>  <SCORE.SYSTEM.norm>
0

>  <SCORE.heavy>
12

>  <SCORE.norm>
-1.10151

>  <RMSD>
2.899

$$$$
ligand
 OpenBabel11021811503D
libRbt.so/2013.1/901 2013/11/27
 12 12  0  0  0  0  0  0  0  0999 V2000
   10.1988   14.7623  147.8330 C   0  0  0  0  0  0  0  0  0  0  0  0
   12.1199    9.8672  146.1858 C   0  0  0  0  0  0  0  0  0  0  0  0
    9.6218   12.4815  149.1813 N   0  0  0  0  0  0  0  0  0  0  0  0
   11.3948   15.4308  148.3668 N   0  0  0  0  0  0  0  0  0  0  0  0
   11.2196   16.2607  149.1039 N   0  0  0  0  0  0  0  0  0  0  0  0
   11.0420   17.0846  149.8442 N   0  0  0  0  0  0  0  0  0  0  0  0
   11.9364   12.1938  145.8862 N   0  0  0  0  0  0  0  0  0  0  0  0
   11.6351   11.1006  146.6034 C   0  0  0  0  0  0  0  0  0  0  0  0
   10.8142   11.1796  147.6604 N   0  0  0  0  0  0  0  0  0  0  0  0
   10.2769   12.3494  148.0317 C   0  0  0  0  0  0  0  0  0  0  0  0
   10.5482   13.5167  147.3251 C   0  0  0  0  0  0  0  0  0  0  0  0
   11.3898   13.4362  146.2244 C   0  0  0  0  0  0  0  0  0  0  0  0
  1 11  1  0  0  0  0
  1  4  1  0  0  0  0
  2  8  1  0  0  0  0
  3 10  1  0  0  0  0
  4  5  1  0  0  0  0
  5  6  1  0  0  0  0
  7  8  2  0  0  0  0
  7 12  1  0  0  0  0
  8  9  1  0  0  0  0
  9 10  2  0  0  0  0
 10 11  1  0  0  0  0
 11 12  2  0  0  0  0
M  END
>  <CHROM.1>
103.05598306,-159.78865280,64.73821650,11.02606936,13.31843901,147.70940289
-1.74201605,-0.91757303,-2.82743417

>  <Name>
ligand

>  <RI>
0

>  <Rbt.Current_Directory>
/home/itssahil/PROJECTS/Mol_Feturizer/New_Systems/rnas/4NYA

>  <Rbt.Executable>
rbdock ($Id: //depot/dev/client3/rdock/2013.1/src/exe/rbdock.cxx#4 $)

>  <Rbt.Library>
libRbt.so (2013.1, Build901 2013/11/27)

>  <Rbt.Parameter_File>
/export/apps/rDock/src/rDock_2013.1_src/data/scripts/dock_solv.prm

>  <Rbt.Receptor>
prm/pocket_docking_8.prm

>  <SCORE>
-11.9657

>  <SCORE.INTER>
-11.5495

>  <SCORE.INTER.CONST>
1

>  <SCORE.INTER.POLAR>
0

>  <SCORE.INTER.ROT>
3

>  <SCORE.INTER.SOLV>
8.91123

>  <SCORE.INTER.VDW>
-16.2701

>  <SCORE.INTER.norm>
-0.962461

>  <SCORE.INTRA>
-0.416182

>  <SCORE.INTRA.DIHEDRAL>
-0.426005

>  <SCORE.INTRA.DIHEDRAL.0>
2.1382

>  <SCORE.INTRA.POLAR>
0

>  <SCORE.INTRA.POLAR.0>
0

>  <SCORE.INTRA.REPUL>
0

>  <SCORE.INTRA.REPUL.0>
0

>  <SCORE.INTRA.SOLV>
-0.388747

>  <SCORE.INTRA.SOLV.lig_0>
-59.6513

>  <SCORE.INTRA.VDW>
-0.00880555

>  <SCORE.INTRA.VDW.0>
-0.569808

>  <SCORE.INTRA.norm>
-0.0346818

>  <SCORE.RESTR>
0

>  <SCORE.RESTR.CAVITY>
0

>  <SCORE.RESTR.norm>
0

>  <SCORE.SYSTEM>
0

>  <SCORE.SYSTEM.CONST>
0

>  <SCORE.SYSTEM.DIHEDRAL>
0

>  <SCORE.SYSTEM.SOLV>
0

>  <SCORE.SYSTEM.norm>
0

>  <SCORE.heavy>
12

>  <SCORE.norm>
-0.997143

>  <RMSD>
2.905

$$$$
ligand
 OpenBabel11021811503D
libRbt.so/2013.1/901 2013/11/27
 12 12  0  0  0  0  0  0  0  0999 V2000
   10.5301   13.3766  148.0453 C   0  0  0  0  0  0  0  0  0  0  0  0
   12.6646    8.8739  145.6924 C   0  0  0  0  0  0  0  0  0  0  0  0
    9.8052   10.8837  148.8282 N   0  0  0  0  0  0  0  0  0  0  0  0
   10.8873   14.5878  147.2919 N   0  0  0  0  0  0  0  0  0  0  0  0
   10.8336   15.5612  147.8509 N   0  0  0  0  0  0  0  0  0  0  0  0
   10.7817   16.5362  148.4033 N   0  0  0  0  0  0  0  0  0  0  0  0
   12.5064   11.2165  145.8464 N   0  0  0  0  0  0  0  0  0  0  0  0
   12.1258   10.0079  146.2877 C   0  0  0  0  0  0  0  0  0  0  0  0
   11.1815    9.8897  147.2320 N   0  0  0  0  0  0  0  0  0  0  0  0
   10.5965   10.9717  147.7632 C   0  0  0  0  0  0  0  0  0  0  0  0
   10.9457   12.2513  147.3435 C   0  0  0  0  0  0  0  0  0  0  0  0
   11.9158   12.3764  146.3589 C   0  0  0  0  0  0  0  0  0  0  0  0
  1 11  1  0  0  0  0
  1  4  1  0  0  0  0
  2  8  1  0  0  0  0
  3 10  1  0  0  0  0
  4  5  1  0  0  0  0
  5  6  1  0  0  0  0
  7  8  2  0  0  0  0
  7 12  1  0  0  0  0
  8  9  1  0  0  0  0
  9 10  2  0  0  0  0
 10 11  1  0  0  0  0
 11 12  2  0  0  0  0
M  END
>  <CHROM.1>
-172.65789761,-165.77147516,-177.20302893,11.23207467,12.23001996,147.25070934
1.87279153,0.82922699,0.04675372

>  <Name>
ligand

>  <RI>
0

>  <Rbt.Current_Directory>
/home/itssahil/PROJECTS/Mol_Feturizer/New_Systems/rnas/4NYA

>  <Rbt.Executable>
rbdock ($Id: //depot/dev/client3/rdock/2013.1/src/exe/rbdock.cxx#4 $)

>  <Rbt.Library>
libRbt.so (2013.1, Build901 2013/11/27)

>  <Rbt.Parameter_File>
/export/apps/rDock/src/rDock_2013.1_src/data/scripts/dock_solv.prm

>  <Rbt.Receptor>
prm/pocket_docking_4.prm

>  <SCORE>
-12.9167

>  <SCORE.INTER>
-12.5771

>  <SCORE.INTER.CONST>
1

>  <SCORE.INTER.POLAR>
0

>  <SCORE.INTER.ROT>
3

>  <SCORE.INTER.SOLV>
13.0213

>  <SCORE.INTER.VDW>
-18.3251

>  <SCORE.INTER.norm>
-1.04809

>  <SCORE.INTRA>
-0.339662

>  <SCORE.INTRA.DIHEDRAL>
-0.62523

>  <SCORE.INTRA.DIHEDRAL.0>
2.1382

>  <SCORE.INTRA.POLAR>
0

>  <SCORE.INTRA.POLAR.0>
0

>  <SCORE.INTRA.REPUL>
0

>  <SCORE.INTRA.REPUL.0>
0

>  <SCORE.INTRA.SOLV>
-1.54857

>  <SCORE.INTRA.SOLV.lig_0>
-59.6513

>  <SCORE.INTRA.VDW>
0.747236

>  <SCORE.INTRA.VDW.0>
-0.569808

>  <SCORE.INTRA.norm>
-0.0283051

>  <SCORE.RESTR>
0

>  <SCORE.RESTR.CAVITY>
0

>  <SCORE.RESTR.norm>
0

>  <SCORE.SYSTEM>
0

>  <SCORE.SYSTEM.CONST>
0

>  <SCORE.SYSTEM.DIHEDRAL>
0

>  <SCORE.SYSTEM.SOLV>
0

>  <SCORE.SYSTEM.norm>
0

>  <SCORE.heavy>
12

>  <SCORE.norm>
-1.07639

>  <RMSD>
2.909

$$$$
ligand
 OpenBabel11021811503D
libRbt.so/2013.1/901 2013/11/27
 12 12  0  0  0  0  0  0  0  0999 V2000
   10.5056   13.4920  148.1122 C   0  0  0  0  0  0  0  0  0  0  0  0
   12.5082    8.9396  145.7391 C   0  0  0  0  0  0  0  0  0  0  0  0
    9.8366   11.0167  148.9944 N   0  0  0  0  0  0  0  0  0  0  0  0
   10.4871   14.6460  147.2011 N   0  0  0  0  0  0  0  0  0  0  0  0
   10.3726   15.6584  147.6751 N   0  0  0  0  0  0  0  0  0  0  0  0
   10.2523   16.6672  148.1509 N   0  0  0  0  0  0  0  0  0  0  0  0
   12.3525   11.2849  145.8485 N   0  0  0  0  0  0  0  0  0  0  0  0
   12.0027   10.0862  146.3395 C   0  0  0  0  0  0  0  0  0  0  0  0
   11.1173    9.9883  147.3414 N   0  0  0  0  0  0  0  0  0  0  0  0
   10.5621   11.0813  147.8819 C   0  0  0  0  0  0  0  0  0  0  0  0
   10.8816   12.3515  147.4127 C   0  0  0  0  0  0  0  0  0  0  0  0
   11.7903   12.4554  146.3688 C   0  0  0  0  0  0  0  0  0  0  0  0
  1 11  1  0  0  0  0
  1  4  1  0  0  0  0
  2  8  1  0  0  0  0
  3 10  1  0  0  0  0
  4  5  1  0  0  0  0
  5  6  1  0  0  0  0
  7  8  2  0  0  0  0
  7 12  1  0  0  0  0
  8  9  1  0  0  0  0
  9 10  2  0  0  0  0
 10 11  1  0  0  0  0
 11 12  2  0  0  0  0
M  END
>  <CHROM.1>
-158.28954996,-169.75723600,-60.04034439,11.05238898,12.32452959,147.25851065
1.99207621,0.90392006,-0.10127433

>  <Name>
ligand

>  <RI>
0

>  <Rbt.Current_Directory>
/home/itssahil/PROJECTS/Mol_Feturizer/New_Systems/rnas/4NYA

>  <Rbt.Executable>
rbdock ($Id: //depot/dev/client3/rdock/2013.1/src/exe/rbdock.cxx#4 $)

>  <Rbt.Library>
libRbt.so (2013.1, Build901 2013/11/27)

>  <Rbt.Parameter_File>
/export/apps/rDock/src/rDock_2013.1_src/data/scripts/dock_solv.prm

>  <Rbt.Receptor>
prm/pocket_docking_6.prm

>  <SCORE>
-13.1846

>  <SCORE.INTER>
-12.4886

>  <SCORE.INTER.CONST>
1

>  <SCORE.INTER.POLAR>
0

>  <SCORE.INTER.ROT>
3

>  <SCORE.INTER.SOLV>
13.6762

>  <SCORE.INTER.VDW>
-18.4844

>  <SCORE.INTER.norm>
-1.04072

>  <SCORE.INTRA>
-0.696001

>  <SCORE.INTRA.DIHEDRAL>
-0.882693

>  <SCORE.INTRA.DIHEDRAL.0>
2.1382

>  <SCORE.INTRA.POLAR>
0

>  <SCORE.INTRA.POLAR.0>
0

>  <SCORE.INTRA.REPUL>
0

>  <SCORE.INTRA.REPUL.0>
0

>  <SCORE.INTRA.SOLV>
-1.5122

>  <SCORE.INTRA.SOLV.lig_0>
-59.6513

>  <SCORE.INTRA.VDW>
0.501444

>  <SCORE.INTRA.VDW.0>
-0.569808

>  <SCORE.INTRA.norm>
-0.0580001

>  <SCORE.RESTR>
0

>  <SCORE.RESTR.CAVITY>
0

>  <SCORE.RESTR.norm>
0

>  <SCORE.SYSTEM>
0

>  <SCORE.SYSTEM.CONST>
0

>  <SCORE.SYSTEM.DIHEDRAL>
0

>  <SCORE.SYSTEM.SOLV>
0

>  <SCORE.SYSTEM.norm>
0

>  <SCORE.heavy>
12

>  <SCORE.norm>
-1.09872

>  <RMSD>
2.916

$$$$
ligand
 OpenBabel11021811503D
libRbt.so/2013.1/901 2013/11/27
 12 12  0  0  0  0  0  0  0  0999 V2000
   10.3716   13.7248  147.9219 C   0  0  0  0  0  0  0  0  0  0  0  0
   12.5838    9.0797  145.9483 C   0  0  0  0  0  0  0  0  0  0  0  0
    9.8801   11.3170  149.0681 N   0  0  0  0  0  0  0  0  0  0  0  0
   11.2346   14.8340  147.4892 N   0  0  0  0  0  0  0  0  0  0  0  0
   11.1266   15.8023  148.0490 N   0  0  0  0  0  0  0  0  0  0  0  0
   11.0207   16.7659  148.6135 N   0  0  0  0  0  0  0  0  0  0  0  0
   12.2875   11.4109  145.8287 N   0  0  0  0  0  0  0  0  0  0  0  0
   12.0256   10.2498  146.4481 C   0  0  0  0  0  0  0  0  0  0  0  0
   11.1757   10.2026  147.4838 N   0  0  0  0  0  0  0  0  0  0  0  0
   10.5695   11.3106  147.9311 C   0  0  0  0  0  0  0  0  0  0  0  0
   10.7975   12.5431  147.3273 C   0  0  0  0  0  0  0  0  0  0  0  0
   11.6691   12.5934  146.2484 C   0  0  0  0  0  0  0  0  0  0  0  0
  1 11  1  0  0  0  0
  1  4  1  0  0  0  0
  2  8  1  0  0  0  0
  3 10  1  0  0  0  0
  4  5  1  0  0  0  0
  5  6  1  0  0  0  0
  7  8  2  0  0  0  0
  7 12  1  0  0  0  0
  8  9  1  0  0  0  0
  9 10  2  0  0  0  0
 10 11  1  0  0  0  0
 11 12  2  0  0  0  0
M  END
>  <CHROM.1>
153.03107635,-168.36210527,61.35582393,11.23523388,12.50481379,147.37271294
1.81620259,0.88058664,0.08314389

>  <Name>
ligand

>  <RI>
0

>  <Rbt.Current_Directory>
/home/itssahil/PROJECTS/Mol_Feturizer/New_Systems/rnas/4NYA

>  <Rbt.Executable>
rbdock ($Id: //depot/dev/client3/rdock/2013.1/src/exe/rbdock.cxx#4 $)

>  <Rbt.Library>
libRbt.so (2013.1, Build901 2013/11/27)

>  <Rbt.Parameter_File>
/export/apps/rDock/src/rDock_2013.1_src/data/scripts/dock_solv.prm

>  <Rbt.Receptor>
prm/pocket_docking_8.prm

>  <SCORE>
-12.9757

>  <SCORE.INTER>
-13.1029

>  <SCORE.INTER.CONST>
1

>  <SCORE.INTER.POLAR>
0

>  <SCORE.INTER.ROT>
3

>  <SCORE.INTER.SOLV>
11.9103

>  <SCORE.INTER.VDW>
-18.3054

>  <SCORE.INTER.norm>
-1.09191

>  <SCORE.INTRA>
0.127225

>  <SCORE.INTRA.DIHEDRAL>
0.107655

>  <SCORE.INTRA.DIHEDRAL.0>
2.1382

>  <SCORE.INTRA.POLAR>
0

>  <SCORE.INTRA.POLAR.0>
0

>  <SCORE.INTRA.REPUL>
0

>  <SCORE.INTRA.REPUL.0>
0

>  <SCORE.INTRA.SOLV>
-1.43178

>  <SCORE.INTRA.SOLV.lig_0>
-59.6513

>  <SCORE.INTRA.VDW>
0.78929

>  <SCORE.INTRA.VDW.0>
-0.569808

>  <SCORE.INTRA.norm>
0.0106021

>  <SCORE.RESTR>
0

>  <SCORE.RESTR.CAVITY>
0

>  <SCORE.RESTR.norm>
0

>  <SCORE.SYSTEM>
0

>  <SCORE.SYSTEM.CONST>
0

>  <SCORE.SYSTEM.DIHEDRAL>
0

>  <SCORE.SYSTEM.SOLV>
0

>  <SCORE.SYSTEM.norm>
0

>  <SCORE.heavy>
12

>  <SCORE.norm>
-1.08131

>  <RMSD>
2.921

$$$$
ligand
 OpenBabel11021811503D
libRbt.so/2013.1/901 2013/11/27
 12 12  0  0  0  0  0  0  0  0999 V2000
   10.3674   13.7387  147.9605 C   0  0  0  0  0  0  0  0  0  0  0  0
   12.5308    9.0693  145.9900 C   0  0  0  0  0  0  0  0  0  0  0  0
    9.8810   11.3415  149.1308 N   0  0  0  0  0  0  0  0  0  0  0  0
   11.2216   14.8428  147.4981 N   0  0  0  0  0  0  0  0  0  0  0  0
   11.1304   15.8151  148.0540 N   0  0  0  0  0  0  0  0  0  0  0  0
   11.0412   16.7826  148.6147 N   0  0  0  0  0  0  0  0  0  0  0  0
   12.2436   11.4009  145.8577 N   0  0  0  0  0  0  0  0  0  0  0  0
   11.9850   10.2456  146.4890 C   0  0  0  0  0  0  0  0  0  0  0  0
   11.1494   10.2097  147.5368 N   0  0  0  0  0  0  0  0  0  0  0  0
   10.5545   11.3237  147.9843 C   0  0  0  0  0  0  0  0  0  0  0  0
   10.7797   12.5508  147.3685 C   0  0  0  0  0  0  0  0  0  0  0  0
   11.6364   12.5892  146.2773 C   0  0  0  0  0  0  0  0  0  0  0  0
  1 11  1  0  0  0  0
  1  4  1  0  0  0  0
  2  8  1  0  0  0  0
  3 10  1  0  0  0  0
  4  5  1  0  0  0  0
  5  6  1  0  0  0  0
  7  8  2  0  0  0  0
  7 12  1  0  0  0  0
  8  9  1  0  0  0  0
  9 10  2  0  0  0  0
 10 11  1  0  0  0  0
 11 12  2  0  0  0  0
M  END
>  <CHROM.1>
153.55427959,-168.03827030,59.85111999,11.21697512,12.51120235,147.40610480
1.80769747,0.89451839,0.08114521

>  <Name>
ligand

>  <RI>
0

>  <Rbt.Current_Directory>
/home/itssahil/PROJECTS/Mol_Feturizer/New_Systems/rnas/4NYA

>  <Rbt.Executable>
rbdock ($Id: //depot/dev/client3/rdock/2013.1/src/exe/rbdock.cxx#4 $)

>  <Rbt.Library>
libRbt.so (2013.1, Build901 2013/11/27)

>  <Rbt.Parameter_File>
/export/apps/rDock/src/rDock_2013.1_src/data/scripts/dock_solv.prm

>  <Rbt.Receptor>
prm/pocket_docking_7.prm

>  <SCORE>
-12.9731

>  <SCORE.INTER>
-13.106

>  <SCORE.INTER.CONST>
1

>  <SCORE.INTER.POLAR>
0

>  <SCORE.INTER.ROT>
3

>  <SCORE.INTER.SOLV>
11.7696

>  <SCORE.INTER.VDW>
-18.2605

>  <SCORE.INTER.norm>
-1.09216

>  <SCORE.INTRA>
0.132884

>  <SCORE.INTRA.DIHEDRAL>
0.106534

>  <SCORE.INTRA.DIHEDRAL.0>
2.1382

>  <SCORE.INTRA.POLAR>
0

>  <SCORE.INTRA.POLAR.0>
0

>  <SCORE.INTRA.REPUL>
0

>  <SCORE.INTRA.REPUL.0>
0

>  <SCORE.INTRA.SOLV>
-1.43495

>  <SCORE.INTRA.SOLV.lig_0>
-59.6513

>  <SCORE.INTRA.VDW>
0.797093

>  <SCORE.INTRA.VDW.0>
-0.569808

>  <SCORE.INTRA.norm>
0.0110737

>  <SCORE.RESTR>
0

>  <SCORE.RESTR.CAVITY>
0

>  <SCORE.RESTR.norm>
0

>  <SCORE.SYSTEM>
0

>  <SCORE.SYSTEM.CONST>
0

>  <SCORE.SYSTEM.DIHEDRAL>
0

>  <SCORE.SYSTEM.SOLV>
0

>  <SCORE.SYSTEM.norm>
0

>  <SCORE.heavy>
12

>  <SCORE.norm>
-1.08109

>  <RMSD>
2.923

$$$$
ligand
 OpenBabel11021811503D
libRbt.so/2013.1/901 2013/11/27
 12 12  0  0  0  0  0  0  0  0999 V2000
   10.3706   13.7343  147.9607 C   0  0  0  0  0  0  0  0  0  0  0  0
   12.5347    9.0683  145.9830 C   0  0  0  0  0  0  0  0  0  0  0  0
    9.8799   11.3345  149.1238 N   0  0  0  0  0  0  0  0  0  0  0  0
   11.2181   14.8411  147.4927 N   0  0  0  0  0  0  0  0  0  0  0  0
   11.1251   15.8141  148.0471 N   0  0  0  0  0  0  0  0  0  0  0  0
   11.0340   16.7823  148.6063 N   0  0  0  0  0  0  0  0  0  0  0  0
   12.2494   11.4005  145.8560 N   0  0  0  0  0  0  0  0  0  0  0  0
   11.9886   10.2437  146.4838 C   0  0  0  0  0  0  0  0  0  0  0  0
   11.1508   10.2059  147.5297 N   0  0  0  0  0  0  0  0  0  0  0  0
   10.5558   11.3191  147.9788 C   0  0  0  0  0  0  0  0  0  0  0  0
   10.7832   12.5476  147.3666 C   0  0  0  0  0  0  0  0  0  0  0  0
   11.6423   12.5882  146.2773 C   0  0  0  0  0  0  0  0  0  0  0  0
  1 11  1  0  0  0  0
  1  4  1  0  0  0  0
  2  8  1  0  0  0  0
  3 10  1  0  0  0  0
  4  5  1  0  0  0  0
  5  6  1  0  0  0  0
  7  8  2  0  0  0  0
  7 12  1  0  0  0  0
  8  9  1  0  0  0  0
  9 10  2  0  0  0  0
 10 11  1  0  0  0  0
 11 12  2  0  0  0  0
M  END
>  <CHROM.1>
154.11251527,-168.19576583,59.68053591,11.21781957,12.50869736,147.40133261
1.80914716,0.89308480,0.07986348

>  <Name>
ligand

>  <RI>
0

>  <Rbt.Current_Directory>
/home/itssahil/PROJECTS/Mol_Feturizer/New_Systems/rnas/4NYA

>  <Rbt.Executable>
rbdock ($Id: //depot/dev/client3/rdock/2013.1/src/exe/rbdock.cxx#4 $)

>  <Rbt.Library>
libRbt.so (2013.1, Build901 2013/11/27)

>  <Rbt.Parameter_File>
/export/apps/rDock/src/rDock_2013.1_src/data/scripts/dock_solv.prm

>  <Rbt.Receptor>
prm/pocket_docking_5.prm

>  <SCORE>
-12.9656

>  <SCORE.INTER>
-13.0998

>  <SCORE.INTER.CONST>
1

>  <SCORE.INTER.POLAR>
0

>  <SCORE.INTER.ROT>
3

>  <SCORE.INTER.SOLV>
11.8058

>  <SCORE.INTER.VDW>
-18.2684

>  <SCORE.INTER.norm>
-1.09165

>  <SCORE.INTRA>
0.134112

>  <SCORE.INTRA.DIHEDRAL>
0.096346

>  <SCORE.INTRA.DIHEDRAL.0>
2.1382

>  <SCORE.INTRA.POLAR>
0

>  <SCORE.INTRA.POLAR.0>
0

>  <SCORE.INTRA.REPUL>
0

>  <SCORE.INTRA.REPUL.0>
0

>  <SCORE.INTRA.SOLV>
-1.43883

>  <SCORE.INTRA.SOLV.lig_0>
-59.6513

>  <SCORE.INTRA.VDW>
0.805354

>  <SCORE.INTRA.VDW.0>
-0.569808

>  <SCORE.INTRA.norm>
0.011176

>  <SCORE.RESTR>
0

>  <SCORE.RESTR.CAVITY>
0

>  <SCORE.RESTR.norm>
0

>  <SCORE.SYSTEM>
0

>  <SCORE.SYSTEM.CONST>
0

>  <SCORE.SYSTEM.DIHEDRAL>
0

>  <SCORE.SYSTEM.SOLV>
0

>  <SCORE.SYSTEM.norm>
0

>  <SCORE.heavy>
12

>  <SCORE.norm>
-1.08047

>  <RMSD>
2.924

$$$$
ligand
 OpenBabel11021811503D
libRbt.so/2013.1/901 2013/11/27
 12 12  0  0  0  0  0  0  0  0999 V2000
   10.5886   13.3528  147.9948 C   0  0  0  0  0  0  0  0  0  0  0  0
   12.6064    8.7920  145.6509 C   0  0  0  0  0  0  0  0  0  0  0  0
    9.7368   10.8836  148.7232 N   0  0  0  0  0  0  0  0  0  0  0  0
   10.7802   14.5446  147.1551 N   0  0  0  0  0  0  0  0  0  0  0  0
   10.4498   15.5255  147.5924 N   0  0  0  0  0  0  0  0  0  0  0  0
   10.1243   16.5040  148.0340 N   0  0  0  0  0  0  0  0  0  0  0  0
   12.5408   11.1372  145.8300 N   0  0  0  0  0  0  0  0  0  0  0  0
   12.0969    9.9406  146.2438 C   0  0  0  0  0  0  0  0  0  0  0  0
   11.1196    9.8512  147.1572 N   0  0  0  0  0  0  0  0  0  0  0  0
   10.5638   10.9506  147.6841 C   0  0  0  0  0  0  0  0  0  0  0  0
   10.9787   12.2192  147.2917 C   0  0  0  0  0  0  0  0  0  0  0  0
   11.9833   12.3149  146.3389 C   0  0  0  0  0  0  0  0  0  0  0  0
  1 11  1  0  0  0  0
  1  4  1  0  0  0  0
  2  8  1  0  0  0  0
  3 10  1  0  0  0  0
  4  5  1  0  0  0  0
  5  6  1  0  0  0  0
  7  8  2  0  0  0  0
  7 12  1  0  0  0  0
  8  9  1  0  0  0  0
  9 10  2  0  0  0  0
 10 11  1  0  0  0  0
 11 12  2  0  0  0  0
M  END
>  <CHROM.1>
-161.70016010,176.92122163,60.28248613,11.12649339,12.18682675,147.14439949
1.95982440,0.81543396,-0.04763741

>  <Name>
ligand

>  <RI>
0

>  <Rbt.Current_Directory>
/home/itssahil/PROJECTS/Mol_Feturizer/New_Systems/rnas/4NYA

>  <Rbt.Executable>
rbdock ($Id: //depot/dev/client3/rdock/2013.1/src/exe/rbdock.cxx#4 $)

>  <Rbt.Library>
libRbt.so (2013.1, Build901 2013/11/27)

>  <Rbt.Parameter_File>
/export/apps/rDock/src/rDock_2013.1_src/data/scripts/dock_solv.prm

>  <Rbt.Receptor>
prm/pocket_docking_4.prm

>  <SCORE>
-13.3435

>  <SCORE.INTER>
-12.6695

>  <SCORE.INTER.CONST>
1

>  <SCORE.INTER.POLAR>
0

>  <SCORE.INTER.ROT>
3

>  <SCORE.INTER.SOLV>
14.5957

>  <SCORE.INTER.VDW>
-18.9116

>  <SCORE.INTER.norm>
-1.05579

>  <SCORE.INTRA>
-0.673982

>  <SCORE.INTRA.DIHEDRAL>
-0.939784

>  <SCORE.INTRA.DIHEDRAL.0>
2.1382

>  <SCORE.INTRA.POLAR>
0

>  <SCORE.INTRA.POLAR.0>
0

>  <SCORE.INTRA.REPUL>
0

>  <SCORE.INTRA.REPUL.0>
0

>  <SCORE.INTRA.SOLV>
-1.54988

>  <SCORE.INTRA.SOLV.lig_0>
-59.6513

>  <SCORE.INTRA.VDW>
0.57085

>  <SCORE.INTRA.VDW.0>
-0.569808

>  <SCORE.INTRA.norm>
-0.0561652

>  <SCORE.RESTR>
0

>  <SCORE.RESTR.CAVITY>
0

>  <SCORE.RESTR.norm>
0

>  <SCORE.SYSTEM>
0

>  <SCORE.SYSTEM.CONST>
0

>  <SCORE.SYSTEM.DIHEDRAL>
0

>  <SCORE.SYSTEM.SOLV>
0

>  <SCORE.SYSTEM.norm>
0

>  <SCORE.heavy>
12

>  <SCORE.norm>
-1.11196

>  <RMSD>
2.925

$$$$
ligand
 OpenBabel11021811503D
libRbt.so/2013.1/901 2013/11/27
 12 12  0  0  0  0  0  0  0  0999 V2000
   10.5471   13.3636  147.9745 C   0  0  0  0  0  0  0  0  0  0  0  0
   12.7201    8.8576  145.6636 C   0  0  0  0  0  0  0  0  0  0  0  0
    9.7398   10.8731  148.6808 N   0  0  0  0  0  0  0  0  0  0  0  0
   10.6752   14.5541  147.1209 N   0  0  0  0  0  0  0  0  0  0  0  0
   10.4236   15.5414  147.5949 N   0  0  0  0  0  0  0  0  0  0  0  0
   10.1738   16.5301  148.0621 N   0  0  0  0  0  0  0  0  0  0  0  0
   12.5951   11.2001  145.8456 N   0  0  0  0  0  0  0  0  0  0  0  0
   12.1715    9.9924  146.2482 C   0  0  0  0  0  0  0  0  0  0  0  0
   11.1783    9.8776  147.1413 N   0  0  0  0  0  0  0  0  0  0  0  0
   10.5859   10.9622  147.6588 C   0  0  0  0  0  0  0  0  0  0  0  0
   10.9783   12.2412  147.2774 C   0  0  0  0  0  0  0  0  0  0  0  0
   11.9994   12.3630  146.3453 C   0  0  0  0  0  0  0  0  0  0  0  0
  1 11  1  0  0  0  0
  1  4  1  0  0  0  0
  2  8  1  0  0  0  0
  3 10  1  0  0  0  0
  4  5  1  0  0  0  0
  5  6  1  0  0  0  0
  7  8  2  0  0  0  0
  7 12  1  0  0  0  0
  8  9  1  0  0  0  0
  9 10  2  0  0  0  0
 10 11  1  0  0  0  0
 11 12  2  0  0  0  0
M  END
>  <CHROM.1>
-159.37125552,-175.94489870,-179.43214508,11.14485399,12.21517529,147.13766797
1.97345344,0.79499869,-0.05232276

>  <Name>
ligand

>  <RI>
0

>  <Rbt.Current_Directory>
/home/itssahil/PROJECTS/Mol_Feturizer/New_Systems/rnas/4NYA

>  <Rbt.Executable>
rbdock ($Id: //depot/dev/client3/rdock/2013.1/src/exe/rbdock.cxx#4 $)

>  <Rbt.Library>
libRbt.so (2013.1, Build901 2013/11/27)

>  <Rbt.Parameter_File>
/export/apps/rDock/src/rDock_2013.1_src/data/scripts/dock_solv.prm

>  <Rbt.Receptor>
prm/pocket_docking_4.prm

>  <SCORE>
-13.2689

>  <SCORE.INTER>
-12.5501

>  <SCORE.INTER.CONST>
1

>  <SCORE.INTER.POLAR>
0

>  <SCORE.INTER.ROT>
3

>  <SCORE.INTER.SOLV>
14.7853

>  <SCORE.INTER.VDW>
-18.8952

>  <SCORE.INTER.norm>
-1.04584

>  <SCORE.INTRA>
-0.718719

>  <SCORE.INTRA.DIHEDRAL>
-0.948968

>  <SCORE.INTRA.DIHEDRAL.0>
2.1382

>  <SCORE.INTRA.POLAR>
0

>  <SCORE.INTRA.POLAR.0>
0

>  <SCORE.INTRA.REPUL>
0

>  <SCORE.INTRA.REPUL.0>
0

>  <SCORE.INTRA.SOLV>
-1.53561

>  <SCORE.INTRA.SOLV.lig_0>
-59.6513

>  <SCORE.INTRA.VDW>
0.523571

>  <SCORE.INTRA.VDW.0>
-0.569808

>  <SCORE.INTRA.norm>
-0.0598932

>  <SCORE.RESTR>
0

>  <SCORE.RESTR.CAVITY>
0

>  <SCORE.RESTR.norm>
0

>  <SCORE.SYSTEM>
0

>  <SCORE.SYSTEM.CONST>
0

>  <SCORE.SYSTEM.DIHEDRAL>
0

>  <SCORE.SYSTEM.SOLV>
0

>  <SCORE.SYSTEM.norm>
0

>  <SCORE.heavy>
12

>  <SCORE.norm>
-1.10574

>  <RMSD>
2.926

$$$$
ligand
 OpenBabel11021811503D
libRbt.so/2013.1/901 2013/11/27
 12 12  0  0  0  0  0  0  0  0999 V2000
   10.5812   13.3605  147.9944 C   0  0  0  0  0  0  0  0  0  0  0  0
   12.6381    8.8144  145.6559 C   0  0  0  0  0  0  0  0  0  0  0  0
    9.7414   10.8855  148.7167 N   0  0  0  0  0  0  0  0  0  0  0  0
   10.6793   14.5421  147.1247 N   0  0  0  0  0  0  0  0  0  0  0  0
   10.4228   15.5318  147.5911 N   0  0  0  0  0  0  0  0  0  0  0  0
   10.1680   16.5228  148.0507 N   0  0  0  0  0  0  0  0  0  0  0  0
   12.5572   11.1590  145.8367 N   0  0  0  0  0  0  0  0  0  0  0  0
   12.1187    9.9593  146.2475 C   0  0  0  0  0  0  0  0  0  0  0  0
   11.1378    9.8630  147.1562 N   0  0  0  0  0  0  0  0  0  0  0  0
   10.5727   10.9585  147.6815 C   0  0  0  0  0  0  0  0  0  0  0  0
   10.9816   12.2300  147.2921 C   0  0  0  0  0  0  0  0  0  0  0  0
   11.9900   12.3328  146.3440 C   0  0  0  0  0  0  0  0  0  0  0  0
  1 11  1  0  0  0  0
  1  4  1  0  0  0  0
  2  8  1  0  0  0  0
  3 10  1  0  0  0  0
  4  5  1  0  0  0  0
  5  6  1  0  0  0  0
  7  8  2  0  0  0  0
  7 12  1  0  0  0  0
  8  9  1  0  0  0  0
  9 10  2  0  0  0  0
 10 11  1  0  0  0  0
 11 12  2  0  0  0  0
M  END
>  <CHROM.1>
-157.71279468,-177.51689394,-179.32320147,11.12789838,12.19877476,147.14396030
1.96727882,0.81270922,-0.05311628

>  <Name>
ligand

>  <RI>
0

>  <Rbt.Current_Directory>
/home/itssahil/PROJECTS/Mol_Feturizer/New_Systems/rnas/4NYA

>  <Rbt.Executable>
rbdock ($Id: //depot/dev/client3/rdock/2013.1/src/exe/rbdock.cxx#4 $)

>  <Rbt.Library>
libRbt.so (2013.1, Build901 2013/11/27)

>  <Rbt.Parameter_File>
/export/apps/rDock/src/rDock_2013.1_src/data/scripts/dock_solv.prm

>  <Rbt.Receptor>
prm/pocket_docking_4.prm

>  <SCORE>
-13.2602

>  <SCORE.INTER>
-12.5231

>  <SCORE.INTER.CONST>
1

>  <SCORE.INTER.POLAR>
0

>  <SCORE.INTER.ROT>
3

>  <SCORE.INTER.SOLV>
14.6536

>  <SCORE.INTER.VDW>
-18.8333

>  <SCORE.INTER.norm>
-1.04359

>  <SCORE.INTRA>
-0.737056

>  <SCORE.INTRA.DIHEDRAL>
-0.963425

>  <SCORE.INTRA.DIHEDRAL.0>
2.1382

>  <SCORE.INTRA.POLAR>
0

>  <SCORE.INTRA.POLAR.0>
0

>  <SCORE.INTRA.REPUL>
0

>  <SCORE.INTRA.REPUL.0>
0

>  <SCORE.INTRA.SOLV>
-1.53113

>  <SCORE.INTRA.SOLV.lig_0>
-59.6513

>  <SCORE.INTRA.VDW>
0.510223

>  <SCORE.INTRA.VDW.0>
-0.569808

>  <SCORE.INTRA.norm>
-0.0614214

>  <SCORE.RESTR>
0

>  <SCORE.RESTR.CAVITY>
0

>  <SCORE.RESTR.norm>
0

>  <SCORE.SYSTEM>
0

>  <SCORE.SYSTEM.CONST>
0

>  <SCORE.SYSTEM.DIHEDRAL>
0

>  <SCORE.SYSTEM.SOLV>
0

>  <SCORE.SYSTEM.norm>
0

>  <SCORE.heavy>
12

>  <SCORE.norm>
-1.10501

>  <RMSD>
2.926

$$$$
ligand
 OpenBabel11021811503D
libRbt.so/2013.1/901 2013/11/27
 12 12  0  0  0  0  0  0  0  0999 V2000
   10.5875   13.3390  147.9874 C   0  0  0  0  0  0  0  0  0  0  0  0
   12.5811    8.7641  145.6504 C   0  0  0  0  0  0  0  0  0  0  0  0
    9.7253   10.8753  148.7222 N   0  0  0  0  0  0  0  0  0  0  0  0
   10.6724   14.5139  147.1073 N   0  0  0  0  0  0  0  0  0  0  0  0
   10.4011   15.5042  147.5638 N   0  0  0  0  0  0  0  0  0  0  0  0
   10.1242   16.4904  148.0211 N   0  0  0  0  0  0  0  0  0  0  0  0
   12.5265   11.1099  145.8246 N   0  0  0  0  0  0  0  0  0  0  0  0
   12.0776    9.9163  146.2416 C   0  0  0  0  0  0  0  0  0  0  0  0
   11.1012    9.8333  147.1565 N   0  0  0  0  0  0  0  0  0  0  0  0
   10.5512   10.9363  147.6818 C   0  0  0  0  0  0  0  0  0  0  0  0
   10.9714   12.2022  147.2862 C   0  0  0  0  0  0  0  0  0  0  0  0
   11.9751   12.2913  146.3318 C   0  0  0  0  0  0  0  0  0  0  0  0
  1 11  1  0  0  0  0
  1  4  1  0  0  0  0
  2  8  1  0  0  0  0
  3 10  1  0  0  0  0
  4  5  1  0  0  0  0
  5  6  1  0  0  0  0
  7  8  2  0  0  0  0
  7 12  1  0  0  0  0
  8  9  1  0  0  0  0
  9 10  2  0  0  0  0
 10 11  1  0  0  0  0
 11 12  2  0  0  0  0
M  END
>  <CHROM.1>
-156.81226090,-179.08748276,-58.37802834,11.10305544,12.16679223,147.13407381
1.96655455,0.81996996,-0.05743311

>  <Name>
ligand

>  <RI>
0

>  <Rbt.Current_Directory>
/home/itssahil/PROJECTS/Mol_Feturizer/New_Systems/rnas/4NYA

>  <Rbt.Executable>
rbdock ($Id: //depot/dev/client3/rdock/2013.1/src/exe/rbdock.cxx#4 $)

>  <Rbt.Library>
libRbt.so (2013.1, Build901 2013/11/27)

>  <Rbt.Parameter_File>
/export/apps/rDock/src/rDock_2013.1_src/data/scripts/dock_solv.prm

>  <Rbt.Receptor>
prm/pocket_docking_4.prm

>  <SCORE>
-13.3116

>  <SCORE.INTER>
-12.5601

>  <SCORE.INTER.CONST>
1

>  <SCORE.INTER.POLAR>
0

>  <SCORE.INTER.ROT>
3

>  <SCORE.INTER.SOLV>
14.7625

>  <SCORE.INTER.VDW>
-18.8942

>  <SCORE.INTER.norm>
-1.04668

>  <SCORE.INTRA>
-0.7515

>  <SCORE.INTRA.DIHEDRAL>
-0.968904

>  <SCORE.INTRA.DIHEDRAL.0>
2.1382

>  <SCORE.INTRA.POLAR>
0

>  <SCORE.INTRA.POLAR.0>
0

>  <SCORE.INTRA.REPUL>
0

>  <SCORE.INTRA.REPUL.0>
0

>  <SCORE.INTRA.SOLV>
-1.52513

>  <SCORE.INTRA.SOLV.lig_0>
-59.6513

>  <SCORE.INTRA.VDW>
0.495517

>  <SCORE.INTRA.VDW.0>
-0.569808

>  <SCORE.INTRA.norm>
-0.062625

>  <SCORE.RESTR>
0

>  <SCORE.RESTR.CAVITY>
0

>  <SCORE.RESTR.norm>
0

>  <SCORE.SYSTEM>
0

>  <SCORE.SYSTEM.CONST>
0

>  <SCORE.SYSTEM.DIHEDRAL>
0

>  <SCORE.SYSTEM.SOLV>
0

>  <SCORE.SYSTEM.norm>
0

>  <SCORE.heavy>
12

>  <SCORE.norm>
-1.1093

>  <RMSD>
2.926

$$$$
ligand
 OpenBabel11021811503D
libRbt.so/2013.1/901 2013/11/27
 12 12  0  0  0  0  0  0  0  0999 V2000
   11.1633   14.6904  147.2818 C   0  0  0  0  0  0  0  0  0  0  0  0
   11.5768    9.2450  146.5449 C   0  0  0  0  0  0  0  0  0  0  0  0
   10.5786   12.9384  149.2672 N   0  0  0  0  0  0  0  0  0  0  0  0
    9.8456   15.1626  147.7323 N   0  0  0  0  0  0  0  0  0  0  0  0
    9.7994   16.2085  148.1406 N   0  0  0  0  0  0  0  0  0  0  0  0
    9.7468   17.2516  148.5499 N   0  0  0  0  0  0  0  0  0  0  0  0
   11.7558   11.4373  145.7092 N   0  0  0  0  0  0  0  0  0  0  0  0
   11.4726   10.6178  146.7331 C   0  0  0  0  0  0  0  0  0  0  0  0
   11.0188   11.1062  147.8962 N   0  0  0  0  0  0  0  0  0  0  0  0
   10.8401   12.4227  148.0697 C   0  0  0  0  0  0  0  0  0  0  0  0
   11.1121   13.3221  147.0438 C   0  0  0  0  0  0  0  0  0  0  0  0
   11.5725   12.8184  145.8352 C   0  0  0  0  0  0  0  0  0  0  0  0
  1 11  1  0  0  0  0
  1  4  1  0  0  0  0
  2  8  1  0  0  0  0
  3 10  1  0  0  0  0
  4  5  1  0  0  0  0
  5  6  1  0  0  0  0
  7  8  2  0  0  0  0
  7 12  1  0  0  0  0
  8  9  1  0  0  0  0
  9 10  2  0  0  0  0
 10 11  1  0  0  0  0
 11 12  2  0  0  0  0
M  END
>  <CHROM.1>
-62.90633772,168.95669333,-175.18361095,10.85943024,13.11731235,147.41862000
-2.34588127,-1.20179859,2.66639856

>  <Name>
ligand

>  <RI>
0

>  <Rbt.Current_Directory>
/home/itssahil/PROJECTS/Mol_Feturizer/New_Systems/rnas/4NYA

>  <Rbt.Executable>
rbdock ($Id: //depot/dev/client3/rdock/2013.1/src/exe/rbdock.cxx#4 $)

>  <Rbt.Library>
libRbt.so (2013.1, Build901 2013/11/27)

>  <Rbt.Parameter_File>
/export/apps/rDock/src/rDock_2013.1_src/data/scripts/dock_solv.prm

>  <Rbt.Receptor>
prm/pocket_docking_8.prm

>  <SCORE>
-11.3028

>  <SCORE.INTER>
-11.7806

>  <SCORE.INTER.CONST>
1

>  <SCORE.INTER.POLAR>
0

>  <SCORE.INTER.ROT>
3

>  <SCORE.INTER.SOLV>
16.0551

>  <SCORE.INTER.VDW>
-18.8055

>  <SCORE.INTER.norm>
-0.98172

>  <SCORE.INTRA>
0.477887

>  <SCORE.INTRA.DIHEDRAL>
-0.43496

>  <SCORE.INTRA.DIHEDRAL.0>
2.1382

>  <SCORE.INTRA.POLAR>
0

>  <SCORE.INTRA.POLAR.0>
0

>  <SCORE.INTRA.REPUL>
0

>  <SCORE.INTRA.REPUL.0>
0

>  <SCORE.INTRA.SOLV>
1.34953

>  <SCORE.INTRA.SOLV.lig_0>
-59.6513

>  <SCORE.INTRA.VDW>
0.0206018

>  <SCORE.INTRA.VDW.0>
-0.569808

>  <SCORE.INTRA.norm>
0.0398239

>  <SCORE.RESTR>
0

>  <SCORE.RESTR.CAVITY>
0

>  <SCORE.RESTR.norm>
0

>  <SCORE.SYSTEM>
0

>  <SCORE.SYSTEM.CONST>
0

>  <SCORE.SYSTEM.DIHEDRAL>
0

>  <SCORE.SYSTEM.SOLV>
0

>  <SCORE.SYSTEM.norm>
0

>  <SCORE.heavy>
12

>  <SCORE.norm>
-0.941896

>  <RMSD>
2.926

$$$$
ligand
 OpenBabel11021811503D
libRbt.so/2013.1/901 2013/11/27
 12 12  0  0  0  0  0  0  0  0999 V2000
   10.5830   13.3601  147.9858 C   0  0  0  0  0  0  0  0  0  0  0  0
   12.6313    8.8068  145.6539 C   0  0  0  0  0  0  0  0  0  0  0  0
    9.7447   10.8874  148.7177 N   0  0  0  0  0  0  0  0  0  0  0  0
   10.6063   14.5269  147.0912 N   0  0  0  0  0  0  0  0  0  0  0  0
   10.3603   15.5205  147.5550 N   0  0  0  0  0  0  0  0  0  0  0  0
   10.1202   16.5118  148.0220 N   0  0  0  0  0  0  0  0  0  0  0  0
   12.5516   11.1519  145.8282 N   0  0  0  0  0  0  0  0  0  0  0  0
   12.1141    9.9536  146.2438 C   0  0  0  0  0  0  0  0  0  0  0  0
   11.1360    9.8601  147.1558 N   0  0  0  0  0  0  0  0  0  0  0  0
   10.5729   10.9572  147.6797 C   0  0  0  0  0  0  0  0  0  0  0  0
   10.9809   12.2275  147.2855 C   0  0  0  0  0  0  0  0  0  0  0  0
   11.9863   12.3273  146.3340 C   0  0  0  0  0  0  0  0  0  0  0  0
  1 11  1  0  0  0  0
  1  4  1  0  0  0  0
  2  8  1  0  0  0  0
  3 10  1  0  0  0  0
  4  5  1  0  0  0  0
  5  6  1  0  0  0  0
  7  8  2  0  0  0  0
  7 12  1  0  0  0  0
  8  9  1  0  0  0  0
  9 10  2  0  0  0  0
 10 11  1  0  0  0  0
 11 12  2  0  0  0  0
M  END
>  <CHROM.1>
-154.55442627,-176.59914012,63.24864935,11.11046598,12.19294149,147.13214446
1.98255760,0.81744445,-0.06991914

>  <Name>
ligand

>  <RI>
0

>  <Rbt.Current_Directory>
/home/itssahil/PROJECTS/Mol_Feturizer/New_Systems/rnas/4NYA

>  <Rbt.Executable>
rbdock ($Id: //depot/dev/client3/rdock/2013.1/src/exe/rbdock.cxx#4 $)

>  <Rbt.Library>
libRbt.so (2013.1, Build901 2013/11/27)

>  <Rbt.Parameter_File>
/export/apps/rDock/src/rDock_2013.1_src/data/scripts/dock_solv.prm

>  <Rbt.Receptor>
prm/pocket_docking_4.prm

>  <SCORE>
-13.2528

>  <SCORE.INTER>
-12.4736

>  <SCORE.INTER.CONST>
1

>  <SCORE.INTER.POLAR>
0

>  <SCORE.INTER.ROT>
3

>  <SCORE.INTER.SOLV>
14.8945

>  <SCORE.INTER.VDW>
-18.8806

>  <SCORE.INTER.norm>
-1.03947

>  <SCORE.INTRA>
-0.779209

>  <SCORE.INTRA.DIHEDRAL>
-0.957177

>  <SCORE.INTRA.DIHEDRAL.0>
2.1382

>  <SCORE.INTRA.POLAR>
0

>  <SCORE.INTRA.POLAR.0>
0

>  <SCORE.INTRA.REPUL>
0

>  <SCORE.INTRA.REPUL.0>
0

>  <SCORE.INTRA.SOLV>
-1.50947

>  <SCORE.INTRA.SOLV.lig_0>
-59.6513

>  <SCORE.INTRA.VDW>
0.454117

>  <SCORE.INTRA.VDW.0>
-0.569808

>  <SCORE.INTRA.norm>
-0.0649341

>  <SCORE.RESTR>
0

>  <SCORE.RESTR.CAVITY>
0

>  <SCORE.RESTR.norm>
0

>  <SCORE.SYSTEM>
0

>  <SCORE.SYSTEM.CONST>
0

>  <SCORE.SYSTEM.DIHEDRAL>
0

>  <SCORE.SYSTEM.SOLV>
0

>  <SCORE.SYSTEM.norm>
0

>  <SCORE.heavy>
12

>  <SCORE.norm>
-1.1044

>  <RMSD>
2.927

$$$$
ligand
 OpenBabel11021811503D
libRbt.so/2013.1/901 2013/11/27
 12 12  0  0  0  0  0  0  0  0999 V2000
   10.5967   13.3433  147.9859 C   0  0  0  0  0  0  0  0  0  0  0  0
   12.5766    8.7665  145.6408 C   0  0  0  0  0  0  0  0  0  0  0  0
    9.7413   10.8801  148.7299 N   0  0  0  0  0  0  0  0  0  0  0  0
   10.6172   14.5076  147.0880 N   0  0  0  0  0  0  0  0  0  0  0  0
   10.3626   15.5009  147.5476 N   0  0  0  0  0  0  0  0  0  0  0  0
   10.1139   16.4920  148.0105 N   0  0  0  0  0  0  0  0  0  0  0  0
   12.5219   11.1126  145.8124 N   0  0  0  0  0  0  0  0  0  0  0  0
   12.0766    9.9193  146.2341 C   0  0  0  0  0  0  0  0  0  0  0  0
   11.1068    9.8368  147.1559 N   0  0  0  0  0  0  0  0  0  0  0  0
   10.5598   10.9402  147.6837 C   0  0  0  0  0  0  0  0  0  0  0  0
   10.9764   12.2058  147.2835 C   0  0  0  0  0  0  0  0  0  0  0  0
   11.9733   12.2943  146.3219 C   0  0  0  0  0  0  0  0  0  0  0  0
  1 11  1  0  0  0  0
  1  4  1  0  0  0  0
  2  8  1  0  0  0  0
  3 10  1  0  0  0  0
  4  5  1  0  0  0  0
  5  6  1  0  0  0  0
  7  8  2  0  0  0  0
  7 12  1  0  0  0  0
  8  9  1  0  0  0  0
  9 10  2  0  0  0  0
 10 11  1  0  0  0  0
 11 12  2  0  0  0  0
M  END
>  <CHROM.1>
-154.31661347,-177.92752490,62.12174487,11.09667101,12.16866268,147.12722691
1.97731316,0.82819650,-0.06864696

>  <Name>
ligand

>  <RI>
0

>  <Rbt.Current_Directory>
/home/itssahil/PROJECTS/Mol_Feturizer/New_Systems/rnas/4NYA

>  <Rbt.Executable>
rbdock ($Id: //depot/dev/client3/rdock/2013.1/src/exe/rbdock.cxx#4 $)

>  <Rbt.Library>
libRbt.so (2013.1, Build901 2013/11/27)

>  <Rbt.Parameter_File>
/export/apps/rDock/src/rDock_2013.1_src/data/scripts/dock_solv.prm

>  <Rbt.Receptor>
prm/pocket_docking_4.prm

>  <SCORE>
-13.3024

>  <SCORE.INTER>
-12.5152

>  <SCORE.INTER.CONST>
1

>  <SCORE.INTER.POLAR>
0

>  <SCORE.INTER.ROT>
3

>  <SCORE.INTER.SOLV>
14.8687

>  <SCORE.INTER.VDW>
-18.8997

>  <SCORE.INTER.norm>
-1.04294

>  <SCORE.INTRA>
-0.78714

>  <SCORE.INTRA.DIHEDRAL>
-0.964292

>  <SCORE.INTRA.DIHEDRAL.0>
2.1382

>  <SCORE.INTRA.POLAR>
0

>  <SCORE.INTRA.POLAR.0>
0

>  <SCORE.INTRA.REPUL>
0

>  <SCORE.INTRA.REPUL.0>
0

>  <SCORE.INTRA.SOLV>
-1.51061

>  <SCORE.INTRA.SOLV.lig_0>
-59.6513

>  <SCORE.INTRA.VDW>
0.450313

>  <SCORE.INTRA.VDW.0>
-0.569808

>  <SCORE.INTRA.norm>
-0.065595

>  <SCORE.RESTR>
0

>  <SCORE.RESTR.CAVITY>
0

>  <SCORE.RESTR.norm>
0

>  <SCORE.SYSTEM>
0

>  <SCORE.SYSTEM.CONST>
0

>  <SCORE.SYSTEM.DIHEDRAL>
0

>  <SCORE.SYSTEM.SOLV>
0

>  <SCORE.SYSTEM.norm>
0

>  <SCORE.heavy>
12

>  <SCORE.norm>
-1.10853

>  <RMSD>
2.928

$$$$
ligand
 OpenBabel11021811503D
libRbt.so/2013.1/901 2013/11/27
 12 12  0  0  0  0  0  0  0  0999 V2000
   10.4273   13.6798  147.9805 C   0  0  0  0  0  0  0  0  0  0  0  0
   12.5701    9.0345  145.9322 C   0  0  0  0  0  0  0  0  0  0  0  0
    9.8360   11.2540  149.0381 N   0  0  0  0  0  0  0  0  0  0  0  0
   11.2203   14.8085  147.4711 N   0  0  0  0  0  0  0  0  0  0  0  0
   11.1071   15.7867  148.0124 N   0  0  0  0  0  0  0  0  0  0  0  0
   10.9874   16.7631  148.5518 N   0  0  0  0  0  0  0  0  0  0  0  0
   12.3414   11.3756  145.8749 N   0  0  0  0  0  0  0  0  0  0  0  0
   12.0293   10.2047  146.4508 C   0  0  0  0  0  0  0  0  0  0  0  0
   11.1477   10.1508  147.4593 N   0  0  0  0  0  0  0  0  0  0  0  0
   10.5588   11.2618  147.9221 C   0  0  0  0  0  0  0  0  0  0  0  0
   10.8384   12.5046  147.3629 C   0  0  0  0  0  0  0  0  0  0  0  0
   11.7431   12.5622  146.3120 C   0  0  0  0  0  0  0  0  0  0  0  0
  1 11  1  0  0  0  0
  1  4  1  0  0  0  0
  2  8  1  0  0  0  0
  3 10  1  0  0  0  0
  4  5  1  0  0  0  0
  5  6  1  0  0  0  0
  7  8  2  0  0  0  0
  7 12  1  0  0  0  0
  8  9  1  0  0  0  0
  9 10  2  0  0  0  0
 10 11  1  0  0  0  0
 11 12  2  0  0  0  0
M  END
>  <CHROM.1>
160.45967785,-170.03527096,-55.74978952,11.23943621,12.46764835,147.37238814
1.80921596,0.85924215,0.08386326

>  <Name>
ligand

>  <RI>
0

>  <Rbt.Current_Directory>
/home/itssahil/PROJECTS/Mol_Feturizer/New_Systems/rnas/4NYA

>  <Rbt.Executable>
rbdock ($Id: //depot/dev/client3/rdock/2013.1/src/exe/rbdock.cxx#4 $)

>  <Rbt.Library>
libRbt.so (2013.1, Build901 2013/11/27)

>  <Rbt.Parameter_File>
/export/apps/rDock/src/rDock_2013.1_src/data/scripts/dock_solv.prm

>  <Rbt.Receptor>
prm/pocket_docking_6.prm

>  <SCORE>
-12.8795

>  <SCORE.INTER>
-13.0176

>  <SCORE.INTER.CONST>
1

>  <SCORE.INTER.POLAR>
0

>  <SCORE.INTER.ROT>
3

>  <SCORE.INTER.SOLV>
12.114

>  <SCORE.INTER.VDW>
-18.3164

>  <SCORE.INTER.norm>
-1.0848

>  <SCORE.INTRA>
0.138175

>  <SCORE.INTRA.DIHEDRAL>
-0.0380829

>  <SCORE.INTRA.DIHEDRAL.0>
2.1382

>  <SCORE.INTRA.POLAR>
0

>  <SCORE.INTRA.POLAR.0>
0

>  <SCORE.INTRA.REPUL>
0

>  <SCORE.INTRA.REPUL.0>
0

>  <SCORE.INTRA.SOLV>
-1.47912

>  <SCORE.INTRA.SOLV.lig_0>
-59.6513

>  <SCORE.INTRA.VDW>
0.896778

>  <SCORE.INTRA.VDW.0>
-0.569808

>  <SCORE.INTRA.norm>
0.0115145

>  <SCORE.RESTR>
0

>  <SCORE.RESTR.CAVITY>
0

>  <SCORE.RESTR.norm>
0

>  <SCORE.SYSTEM>
0

>  <SCORE.SYSTEM.CONST>
0

>  <SCORE.SYSTEM.DIHEDRAL>
0

>  <SCORE.SYSTEM.SOLV>
0

>  <SCORE.SYSTEM.norm>
0

>  <SCORE.heavy>
12

>  <SCORE.norm>
-1.07329

>  <RMSD>
2.928

$$$$
ligand
 OpenBabel11021811503D
libRbt.so/2013.1/901 2013/11/27
 12 12  0  0  0  0  0  0  0  0999 V2000
   10.5637   13.3800  147.9804 C   0  0  0  0  0  0  0  0  0  0  0  0
   12.6315    8.8288  145.6614 C   0  0  0  0  0  0  0  0  0  0  0  0
    9.7225   10.9064  148.7060 N   0  0  0  0  0  0  0  0  0  0  0  0
   10.6287   14.5535  147.0968 N   0  0  0  0  0  0  0  0  0  0  0  0
   10.4094   15.5498  147.5680 N   0  0  0  0  0  0  0  0  0  0  0  0
   10.1844   16.5421  148.0403 N   0  0  0  0  0  0  0  0  0  0  0  0
   12.5487   11.1738  145.8358 N   0  0  0  0  0  0  0  0  0  0  0  0
   12.1093    9.9750  146.2481 C   0  0  0  0  0  0  0  0  0  0  0  0
   11.1251    9.8806  147.1534 N   0  0  0  0  0  0  0  0  0  0  0  0
   10.5576   10.9771  147.6737 C   0  0  0  0  0  0  0  0  0  0  0  0
   10.9673   12.2478  147.2826 C   0  0  0  0  0  0  0  0  0  0  0  0
   11.9791   12.3486  146.3379 C   0  0  0  0  0  0  0  0  0  0  0  0
  1 11  1  0  0  0  0
  1  4  1  0  0  0  0
  2  8  1  0  0  0  0
  3 10  1  0  0  0  0
  4  5  1  0  0  0  0
  5  6  1  0  0  0  0
  7  8  2  0  0  0  0
  7 12  1  0  0  0  0
  8  9  1  0  0  0  0
  9 10  2  0  0  0  0
 10 11  1  0  0  0  0
 11 12  2  0  0  0  0
M  END
>  <CHROM.1>
-156.14645345,-174.98934397,-57.42064472,11.11443840,12.21575896,147.13497743
1.96606156,0.80961770,-0.05458037

>  <Name>
ligand

>  <RI>
0

>  <Rbt.Current_Directory>
/home/itssahil/PROJECTS/Mol_Feturizer/New_Systems/rnas/4NYA

>  <Rbt.Executable>
rbdock ($Id: //depot/dev/client3/rdock/2013.1/src/exe/rbdock.cxx#4 $)

>  <Rbt.Library>
libRbt.so (2013.1, Build901 2013/11/27)

>  <Rbt.Parameter_File>
/export/apps/rDock/src/rDock_2013.1_src/data/scripts/dock_solv.prm

>  <Rbt.Receptor>
prm/pocket_docking_6.prm

>  <SCORE>
-13.268

>  <SCORE.INTER>
-12.5018

>  <SCORE.INTER.CONST>
1

>  <SCORE.INTER.POLAR>
0

>  <SCORE.INTER.ROT>
3

>  <SCORE.INTER.SOLV>
14.8003

>  <SCORE.INTER.VDW>
-18.8679

>  <SCORE.INTER.norm>
-1.04181

>  <SCORE.INTRA>
-0.766215

>  <SCORE.INTRA.DIHEDRAL>
-0.948478

>  <SCORE.INTRA.DIHEDRAL.0>
2.1382

>  <SCORE.INTRA.POLAR>
0

>  <SCORE.INTRA.POLAR.0>
0

>  <SCORE.INTRA.REPUL>
0

>  <SCORE.INTRA.REPUL.0>
0

>  <SCORE.INTRA.SOLV>
-1.5143

>  <SCORE.INTRA.SOLV.lig_0>
-59.6513

>  <SCORE.INTRA.VDW>
0.465176

>  <SCORE.INTRA.VDW.0>
-0.569808

>  <SCORE.INTRA.norm>
-0.0638513

>  <SCORE.RESTR>
0

>  <SCORE.RESTR.CAVITY>
0

>  <SCORE.RESTR.norm>
0

>  <SCORE.SYSTEM>
0

>  <SCORE.SYSTEM.CONST>
0

>  <SCORE.SYSTEM.DIHEDRAL>
0

>  <SCORE.SYSTEM.SOLV>
0

>  <SCORE.SYSTEM.norm>
0

>  <SCORE.heavy>
12

>  <SCORE.norm>
-1.10567

>  <RMSD>
2.930

$$$$
ligand
 OpenBabel11021811503D
libRbt.so/2013.1/901 2013/11/27
 12 12  0  0  0  0  0  0  0  0999 V2000
   10.5758   13.3764  147.9792 C   0  0  0  0  0  0  0  0  0  0  0  0
   12.6928    8.8510  145.6542 C   0  0  0  0  0  0  0  0  0  0  0  0
    9.7690   10.8926  148.7090 N   0  0  0  0  0  0  0  0  0  0  0  0
   10.7424   14.5693  147.1357 N   0  0  0  0  0  0  0  0  0  0  0  0
   10.4582   15.5540  147.5964 N   0  0  0  0  0  0  0  0  0  0  0  0
   10.1753   16.5400  148.0504 N   0  0  0  0  0  0  0  0  0  0  0  0
   12.5807   11.1949  145.8280 N   0  0  0  0  0  0  0  0  0  0  0  0
   12.1583    9.9908  146.2424 C   0  0  0  0  0  0  0  0  0  0  0  0
   11.1788    9.8841  147.1515 N   0  0  0  0  0  0  0  0  0  0  0  0
   10.5992   10.9736  147.6735 C   0  0  0  0  0  0  0  0  0  0  0  0
   10.9912   12.2492  147.2803 C   0  0  0  0  0  0  0  0  0  0  0  0
   11.9980   12.3625  146.3318 C   0  0  0  0  0  0  0  0  0  0  0  0
  1 11  1  0  0  0  0
  1  4  1  0  0  0  0
  2  8  1  0  0  0  0
  3 10  1  0  0  0  0
  4  5  1  0  0  0  0
  5  6  1  0  0  0  0
  7  8  2  0  0  0  0
  7 12  1  0  0  0  0
  8  9  1  0  0  0  0
  9 10  2  0  0  0  0
 10 11  1  0  0  0  0
 11 12  2  0  0  0  0
M  END
>  <CHROM.1>
-161.44905398,-178.87283108,-171.36335805,11.15597114,12.22205966,147.13926092
1.96967331,0.80989934,-0.05335539

>  <Name>
ligand

>  <RI>
0

>  <Rbt.Current_Directory>
/home/itssahil/PROJECTS/Mol_Feturizer/New_Systems/rnas/4NYA

>  <Rbt.Executable>
rbdock ($Id: //depot/dev/client3/rdock/2013.1/src/exe/rbdock.cxx#4 $)

>  <Rbt.Library>
libRbt.so (2013.1, Build901 2013/11/27)

>  <Rbt.Parameter_File>
/export/apps/rDock/src/rDock_2013.1_src/data/scripts/dock_solv.prm

>  <Rbt.Receptor>
prm/pocket_docking_4.prm

>  <SCORE>
-13.2995

>  <SCORE.INTER>
-12.6081

>  <SCORE.INTER.CONST>
1

>  <SCORE.INTER.POLAR>
0

>  <SCORE.INTER.ROT>
3

>  <SCORE.INTER.SOLV>
14.6603

>  <SCORE.INTER.VDW>
-18.8921

>  <SCORE.INTER.norm>
-1.05067

>  <SCORE.INTRA>
-0.691473

>  <SCORE.INTRA.DIHEDRAL>
-0.928403

>  <SCORE.INTRA.DIHEDRAL.0>
2.1382

>  <SCORE.INTRA.POLAR>
0

>  <SCORE.INTRA.POLAR.0>
0

>  <SCORE.INTRA.REPUL>
0

>  <SCORE.INTRA.REPUL.0>
0

>  <SCORE.INTRA.SOLV>
-1.54853

>  <SCORE.INTRA.SOLV.lig_0>
-59.6513

>  <SCORE.INTRA.VDW>
0.546993

>  <SCORE.INTRA.VDW.0>
-0.569808

>  <SCORE.INTRA.norm>
-0.0576227

>  <SCORE.RESTR>
0

>  <SCORE.RESTR.CAVITY>
0

>  <SCORE.RESTR.norm>
0

>  <SCORE.SYSTEM>
0

>  <SCORE.SYSTEM.CONST>
0

>  <SCORE.SYSTEM.DIHEDRAL>
0

>  <SCORE.SYSTEM.SOLV>
0

>  <SCORE.SYSTEM.norm>
0

>  <SCORE.heavy>
12

>  <SCORE.norm>
-1.1083

>  <RMSD>
2.931

$$$$
ligand
 OpenBabel11021811503D
libRbt.so/2013.1/901 2013/11/27
 12 12  0  0  0  0  0  0  0  0999 V2000
   10.5985   13.3469  147.9803 C   0  0  0  0  0  0  0  0  0  0  0  0
   12.5751    8.7657  145.6410 C   0  0  0  0  0  0  0  0  0  0  0  0
    9.7452   10.8849  148.7311 N   0  0  0  0  0  0  0  0  0  0  0  0
   10.6448   14.5141  147.0871 N   0  0  0  0  0  0  0  0  0  0  0  0
   10.3828   15.5068  147.5439 N   0  0  0  0  0  0  0  0  0  0  0  0
   10.1151   16.4953  148.0016 N   0  0  0  0  0  0  0  0  0  0  0  0
   12.5201   11.1121  145.8077 N   0  0  0  0  0  0  0  0  0  0  0  0
   12.0760    9.9196  146.2328 C   0  0  0  0  0  0  0  0  0  0  0  0
   11.1079    9.8388  147.1566 N   0  0  0  0  0  0  0  0  0  0  0  0
   10.5616   10.9431  147.6831 C   0  0  0  0  0  0  0  0  0  0  0  0
   10.9772   12.2080  147.2795 C   0  0  0  0  0  0  0  0  0  0  0  0
   11.9722   12.2947  146.3158 C   0  0  0  0  0  0  0  0  0  0  0  0
  1 11  1  0  0  0  0
  1  4  1  0  0  0  0
  2  8  1  0  0  0  0
  3 10  1  0  0  0  0
  4  5  1  0  0  0  0
  5  6  1  0  0  0  0
  7  8  2  0  0  0  0
  7 12  1  0  0  0  0
  8  9  1  0  0  0  0
  9 10  2  0  0  0  0
 10 11  1  0  0  0  0
 11 12  2  0  0  0  0
M  END
>  <CHROM.1>
-155.52166084,-178.56061483,-57.78558669,11.10129287,12.17123119,147.12444601
1.97442585,0.82951269,-0.06775166

>  <Name>
ligand

>  <RI>
0

>  <Rbt.Current_Directory>
/home/itssahil/PROJECTS/Mol_Feturizer/New_Systems/rnas/4NYA

>  <Rbt.Executable>
rbdock ($Id: //depot/dev/client3/rdock/2013.1/src/exe/rbdock.cxx#4 $)

>  <Rbt.Library>
libRbt.so (2013.1, Build901 2013/11/27)

>  <Rbt.Parameter_File>
/export/apps/rDock/src/rDock_2013.1_src/data/scripts/dock_solv.prm

>  <Rbt.Receptor>
prm/pocket_docking_4.prm

>  <SCORE>
-13.3052

>  <SCORE.INTER>
-12.5344

>  <SCORE.INTER.CONST>
1

>  <SCORE.INTER.POLAR>
0

>  <SCORE.INTER.ROT>
3

>  <SCORE.INTER.SOLV>
14.8652

>  <SCORE.INTER.VDW>
-18.9113

>  <SCORE.INTER.norm>
-1.04454

>  <SCORE.INTRA>
-0.770804

>  <SCORE.INTRA.DIHEDRAL>
-0.967706

>  <SCORE.INTRA.DIHEDRAL.0>
2.1382

>  <SCORE.INTRA.POLAR>
0

>  <SCORE.INTRA.POLAR.0>
0

>  <SCORE.INTRA.REPUL>
0

>  <SCORE.INTRA.REPUL.0>
0

>  <SCORE.INTRA.SOLV>
-1.51788

>  <SCORE.INTRA.SOLV.lig_0>
-59.6513

>  <SCORE.INTRA.VDW>
0.47199

>  <SCORE.INTRA.VDW.0>
-0.569808

>  <SCORE.INTRA.norm>
-0.0642337

>  <SCORE.RESTR>
0

>  <SCORE.RESTR.CAVITY>
0

>  <SCORE.RESTR.norm>
0

>  <SCORE.SYSTEM>
0

>  <SCORE.SYSTEM.CONST>
0

>  <SCORE.SYSTEM.DIHEDRAL>
0

>  <SCORE.SYSTEM.SOLV>
0

>  <SCORE.SYSTEM.norm>
0

>  <SCORE.heavy>
12

>  <SCORE.norm>
-1.10877

>  <RMSD>
2.931

$$$$
ligand
 OpenBabel11021811503D
libRbt.so/2013.1/901 2013/11/27
 12 12  0  0  0  0  0  0  0  0999 V2000
   10.5368   13.3220  147.9654 C   0  0  0  0  0  0  0  0  0  0  0  0
   12.6214    8.7667  145.6699 C   0  0  0  0  0  0  0  0  0  0  0  0
    9.7341   10.8481  148.7325 N   0  0  0  0  0  0  0  0  0  0  0  0
   10.6980   14.5051  147.1072 N   0  0  0  0  0  0  0  0  0  0  0  0
   10.4139   15.4947  147.5573 N   0  0  0  0  0  0  0  0  0  0  0  0
   10.1318   16.4857  148.0008 N   0  0  0  0  0  0  0  0  0  0  0  0
   12.5149   11.1126  145.8179 N   0  0  0  0  0  0  0  0  0  0  0  0
   12.0951    9.9140  146.2507 C   0  0  0  0  0  0  0  0  0  0  0  0
   11.1253    9.8195  147.1715 N   0  0  0  0  0  0  0  0  0  0  0  0
   10.5532   10.9158  147.6872 C   0  0  0  0  0  0  0  0  0  0  0  0
   10.9428   12.1862  147.2751 C   0  0  0  0  0  0  0  0  0  0  0  0
   11.9394   12.2869  146.3145 C   0  0  0  0  0  0  0  0  0  0  0  0
  1 11  1  0  0  0  0
  1  4  1  0  0  0  0
  2  8  1  0  0  0  0
  3 10  1  0  0  0  0
  4  5  1  0  0  0  0
  5  6  1  0  0  0  0
  7  8  2  0  0  0  0
  7 12  1  0  0  0  0
  8  9  1  0  0  0  0
  9 10  2  0  0  0  0
 10 11  1  0  0  0  0
 11 12  2  0  0  0  0
M  END
>  <CHROM.1>
-161.53766979,-179.27677621,-177.53101281,11.10489992,12.15700277,147.13221529
1.96957987,0.82079230,-0.06508267

>  <Name>
ligand

>  <RI>
0

>  <Rbt.Current_Directory>
/home/itssahil/PROJECTS/Mol_Feturizer/New_Systems/rnas/4NYA

>  <Rbt.Executable>
rbdock ($Id: //depot/dev/client3/rdock/2013.1/src/exe/rbdock.cxx#4 $)

>  <Rbt.Library>
libRbt.so (2013.1, Build901 2013/11/27)

>  <Rbt.Parameter_File>
/export/apps/rDock/src/rDock_2013.1_src/data/scripts/dock_solv.prm

>  <Rbt.Receptor>
prm/pocket_docking_8.prm

>  <SCORE>
-13.2413

>  <SCORE.INTER>
-12.542

>  <SCORE.INTER.CONST>
1

>  <SCORE.INTER.POLAR>
0

>  <SCORE.INTER.ROT>
3

>  <SCORE.INTER.SOLV>
14.8588

>  <SCORE.INTER.VDW>
-18.9143

>  <SCORE.INTER.norm>
-1.04517

>  <SCORE.INTRA>
-0.699319

>  <SCORE.INTRA.DIHEDRAL>
-0.946768

>  <SCORE.INTRA.DIHEDRAL.0>
2.1382

>  <SCORE.INTRA.POLAR>
0

>  <SCORE.INTRA.POLAR.0>
0

>  <SCORE.INTRA.REPUL>
0

>  <SCORE.INTRA.REPUL.0>
0

>  <SCORE.INTRA.SOLV>
-1.54943

>  <SCORE.INTRA.SOLV.lig_0>
-59.6513

>  <SCORE.INTRA.VDW>
0.548782

>  <SCORE.INTRA.VDW.0>
-0.569808

>  <SCORE.INTRA.norm>
-0.0582766

>  <SCORE.RESTR>
0

>  <SCORE.RESTR.CAVITY>
0

>  <SCORE.RESTR.norm>
0

>  <SCORE.SYSTEM>
0

>  <SCORE.SYSTEM.CONST>
0

>  <SCORE.SYSTEM.DIHEDRAL>
0

>  <SCORE.SYSTEM.SOLV>
0

>  <SCORE.SYSTEM.norm>
0

>  <SCORE.heavy>
12

>  <SCORE.norm>
-1.10345

>  <RMSD>
2.931

$$$$
ligand
 OpenBabel11021811503D
libRbt.so/2013.1/901 2013/11/27
 12 12  0  0  0  0  0  0  0  0999 V2000
   11.1747   14.7105  147.3392 C   0  0  0  0  0  0  0  0  0  0  0  0
   11.5369    9.2712  146.5338 C   0  0  0  0  0  0  0  0  0  0  0  0
   10.4678   12.9377  149.2655 N   0  0  0  0  0  0  0  0  0  0  0  0
    9.8639   15.1818  147.8104 N   0  0  0  0  0  0  0  0  0  0  0  0
    9.8169   16.2381  148.1908 N   0  0  0  0  0  0  0  0  0  0  0  0
    9.7634   17.2918  148.5720 N   0  0  0  0  0  0  0  0  0  0  0  0
   11.7904   11.4730  145.7437 N   0  0  0  0  0  0  0  0  0  0  0  0
   11.4455   10.6424  146.7393 C   0  0  0  0  0  0  0  0  0  0  0  0
   10.9442   11.1201  147.8872 N   0  0  0  0  0  0  0  0  0  0  0  0
   10.7783   12.4365  148.0736 C   0  0  0  0  0  0  0  0  0  0  0  0
   11.1133   13.3471  147.0766 C   0  0  0  0  0  0  0  0  0  0  0  0
   11.6231   12.8548  145.8834 C   0  0  0  0  0  0  0  0  0  0  0  0
  1 11  1  0  0  0  0
  1  4  1  0  0  0  0
  2  8  1  0  0  0  0
  3 10  1  0  0  0  0
  4  5  1  0  0  0  0
  5  6  1  0  0  0  0
  7  8  2  0  0  0  0
  7 12  1  0  0  0  0
  8  9  1  0  0  0  0
  9 10  2  0  0  0  0
 10 11  1  0  0  0  0
 11 12  2  0  0  0  0
M  END
>  <CHROM.1>
-59.58126599,171.90965946,-178.23706636,10.84539336,13.14092469,147.44452644
-2.24161989,-1.16355488,2.78356306

>  <Name>
ligand

>  <RI>
0

>  <Rbt.Current_Directory>
/home/itssahil/PROJECTS/Mol_Feturizer/New_Systems/rnas/4NYA

>  <Rbt.Executable>
rbdock ($Id: //depot/dev/client3/rdock/2013.1/src/exe/rbdock.cxx#4 $)

>  <Rbt.Library>
libRbt.so (2013.1, Build901 2013/11/27)

>  <Rbt.Parameter_File>
/export/apps/rDock/src/rDock_2013.1_src/data/scripts/dock_solv.prm

>  <Rbt.Receptor>
prm/pocket_docking_8.prm

>  <SCORE>
-11.2481

>  <SCORE.INTER>
-11.7897

>  <SCORE.INTER.CONST>
1

>  <SCORE.INTER.POLAR>
0

>  <SCORE.INTER.ROT>
3

>  <SCORE.INTER.SOLV>
15.5506

>  <SCORE.INTER.VDW>
-18.6433

>  <SCORE.INTER.norm>
-0.982476

>  <SCORE.INTRA>
0.541609

>  <SCORE.INTRA.DIHEDRAL>
-0.571423

>  <SCORE.INTRA.DIHEDRAL.0>
2.1382

>  <SCORE.INTRA.POLAR>
0

>  <SCORE.INTRA.POLAR.0>
0

>  <SCORE.INTRA.REPUL>
0

>  <SCORE.INTRA.REPUL.0>
0

>  <SCORE.INTRA.SOLV>
1.44896

>  <SCORE.INTRA.SOLV.lig_0>
-59.6513

>  <SCORE.INTRA.VDW>
0.102839

>  <SCORE.INTRA.VDW.0>
-0.569808

>  <SCORE.INTRA.norm>
0.045134

>  <SCORE.RESTR>
0

>  <SCORE.RESTR.CAVITY>
0

>  <SCORE.RESTR.norm>
0

>  <SCORE.SYSTEM>
0

>  <SCORE.SYSTEM.CONST>
0

>  <SCORE.SYSTEM.DIHEDRAL>
0

>  <SCORE.SYSTEM.SOLV>
0

>  <SCORE.SYSTEM.norm>
0

>  <SCORE.heavy>
12

>  <SCORE.norm>
-0.937341

>  <RMSD>
2.931

$$$$
ligand
 OpenBabel11021811503D
libRbt.so/2013.1/901 2013/11/27
 12 12  0  0  0  0  0  0  0  0999 V2000
   10.6039   13.3501  147.9802 C   0  0  0  0  0  0  0  0  0  0  0  0
   12.5688    8.7647  145.6394 C   0  0  0  0  0  0  0  0  0  0  0  0
    9.7487   10.8899  148.7344 N   0  0  0  0  0  0  0  0  0  0  0  0
   10.6626   14.5188  147.0896 N   0  0  0  0  0  0  0  0  0  0  0  0
   10.3822   15.5089  147.5411 N   0  0  0  0  0  0  0  0  0  0  0  0
   10.1076   16.4969  147.9959 N   0  0  0  0  0  0  0  0  0  0  0  0
   12.5174   11.1113  145.8048 N   0  0  0  0  0  0  0  0  0  0  0  0
   12.0726    9.9196  146.2316 C   0  0  0  0  0  0  0  0  0  0  0  0
   11.1065    9.8408  147.1576 N   0  0  0  0  0  0  0  0  0  0  0  0
   10.5629   10.9462  147.6846 C   0  0  0  0  0  0  0  0  0  0  0  0
   10.9793   12.2103  147.2793 C   0  0  0  0  0  0  0  0  0  0  0  0
   11.9723   12.2950  146.3133 C   0  0  0  0  0  0  0  0  0  0  0  0
  1 11  1  0  0  0  0
  1  4  1  0  0  0  0
  2  8  1  0  0  0  0
  3 10  1  0  0  0  0
  4  5  1  0  0  0  0
  5  6  1  0  0  0  0
  7  8  2  0  0  0  0
  7 12  1  0  0  0  0
  8  9  1  0  0  0  0
  9 10  2  0  0  0  0
 10 11  1  0  0  0  0
 11 12  2  0  0  0  0
M  END
>  <CHROM.1>
-156.07730231,-179.87078257,63.58051958,11.10199448,12.17310224,147.12371675
1.97428886,0.83161052,-0.06848094

>  <Name>
ligand

>  <RI>
0

>  <Rbt.Current_Directory>
/home/itssahil/PROJECTS/Mol_Feturizer/New_Systems/rnas/4NYA

>  <Rbt.Executable>
rbdock ($Id: //depot/dev/client3/rdock/2013.1/src/exe/rbdock.cxx#4 $)

>  <Rbt.Library>
libRbt.so (2013.1, Build901 2013/11/27)

>  <Rbt.Parameter_File>
/export/apps/rDock/src/rDock_2013.1_src/data/scripts/dock_solv.prm

>  <Rbt.Receptor>
prm/pocket_docking_4.prm

>  <SCORE>
-13.2968

>  <SCORE.INTER>
-12.5339

>  <SCORE.INTER.CONST>
1

>  <SCORE.INTER.POLAR>
0

>  <SCORE.INTER.ROT>
3

>  <SCORE.INTER.SOLV>
14.8709

>  <SCORE.INTER.VDW>
-18.9129

>  <SCORE.INTER.norm>
-1.04449

>  <SCORE.INTRA>
-0.762937

>  <SCORE.INTRA.DIHEDRAL>
-0.96733

>  <SCORE.INTRA.DIHEDRAL.0>
2.1382

>  <SCORE.INTRA.POLAR>
0

>  <SCORE.INTRA.POLAR.0>
0

>  <SCORE.INTRA.REPUL>
0

>  <SCORE.INTRA.REPUL.0>
0

>  <SCORE.INTRA.SOLV>
-1.52297

>  <SCORE.INTRA.SOLV.lig_0>
-59.6513

>  <SCORE.INTRA.VDW>
0.482215

>  <SCORE.INTRA.VDW.0>
-0.569808

>  <SCORE.INTRA.norm>
-0.063578

>  <SCORE.RESTR>
0

>  <SCORE.RESTR.CAVITY>
0

>  <SCORE.RESTR.norm>
0

>  <SCORE.SYSTEM>
0

>  <SCORE.SYSTEM.CONST>
0

>  <SCORE.SYSTEM.DIHEDRAL>
0

>  <SCORE.SYSTEM.SOLV>
0

>  <SCORE.SYSTEM.norm>
0

>  <SCORE.heavy>
12

>  <SCORE.norm>
-1.10807

>  <RMSD>
2.932

$$$$
ligand
 OpenBabel11021811503D
libRbt.so/2013.1/901 2013/11/27
 12 12  0  0  0  0  0  0  0  0999 V2000
   10.5745   13.3346  147.9673 C   0  0  0  0  0  0  0  0  0  0  0  0
   12.6087    8.7659  145.6530 C   0  0  0  0  0  0  0  0  0  0  0  0
    9.7294   10.8672  148.7096 N   0  0  0  0  0  0  0  0  0  0  0  0
   10.6387   14.5044  147.0786 N   0  0  0  0  0  0  0  0  0  0  0  0
   10.3776   15.4972  147.5355 N   0  0  0  0  0  0  0  0  0  0  0  0
   10.1180   16.4914  147.9857 N   0  0  0  0  0  0  0  0  0  0  0  0
   12.5358   11.1120  145.8179 N   0  0  0  0  0  0  0  0  0  0  0  0
   12.0950    9.9166  146.2385 C   0  0  0  0  0  0  0  0  0  0  0  0
   11.1170    9.8297  147.1513 N   0  0  0  0  0  0  0  0  0  0  0  0
   10.5573   10.9305  147.6710 C   0  0  0  0  0  0  0  0  0  0  0  0
   10.9688   12.1980  147.2714 C   0  0  0  0  0  0  0  0  0  0  0  0
   11.9741   12.2910  146.3191 C   0  0  0  0  0  0  0  0  0  0  0  0
  1 11  1  0  0  0  0
  1  4  1  0  0  0  0
  2  8  1  0  0  0  0
  3 10  1  0  0  0  0
  4  5  1  0  0  0  0
  5  6  1  0  0  0  0
  7  8  2  0  0  0  0
  7 12  1  0  0  0  0
  8  9  1  0  0  0  0
  9 10  2  0  0  0  0
 10 11  1  0  0  0  0
 11 12  2  0  0  0  0
M  END
>  <CHROM.1>
-156.20645899,-177.88299061,-178.89811181,11.10300127,12.16364536,147.11930191
1.97445237,0.81728042,-0.06757867

>  <Name>
ligand

>  <RI>
0

>  <Rbt.Current_Directory>
/home/itssahil/PROJECTS/Mol_Feturizer/New_Systems/rnas/4NYA

>  <Rbt.Executable>
rbdock ($Id: //depot/dev/client3/rdock/2013.1/src/exe/rbdock.cxx#4 $)

>  <Rbt.Library>
libRbt.so (2013.1, Build901 2013/11/27)

>  <Rbt.Parameter_File>
/export/apps/rDock/src/rDock_2013.1_src/data/scripts/dock_solv.prm

>  <Rbt.Receptor>
prm/pocket_docking_4.prm

>  <SCORE>
-13.2871

>  <SCORE.INTER>
-12.5241

>  <SCORE.INTER.CONST>
1

>  <SCORE.INTER.POLAR>
0

>  <SCORE.INTER.ROT>
3

>  <SCORE.INTER.SOLV>
15.0281

>  <SCORE.INTER.VDW>
-18.9588

>  <SCORE.INTER.norm>
-1.04368

>  <SCORE.INTRA>
-0.762989

>  <SCORE.INTRA.DIHEDRAL>
-0.966794

>  <SCORE.INTRA.DIHEDRAL.0>
2.1382

>  <SCORE.INTRA.POLAR>
0

>  <SCORE.INTRA.POLAR.0>
0

>  <SCORE.INTRA.REPUL>
0

>  <SCORE.INTRA.REPUL.0>
0

>  <SCORE.INTRA.SOLV>
-1.52457

>  <SCORE.INTRA.SOLV.lig_0>
-59.6513

>  <SCORE.INTRA.VDW>
0.482692

>  <SCORE.INTRA.VDW.0>
-0.569808

>  <SCORE.INTRA.norm>
-0.0635824

>  <SCORE.RESTR>
0

>  <SCORE.RESTR.CAVITY>
0

>  <SCORE.RESTR.norm>
0

>  <SCORE.SYSTEM>
0

>  <SCORE.SYSTEM.CONST>
0

>  <SCORE.SYSTEM.DIHEDRAL>
0

>  <SCORE.SYSTEM.SOLV>
0

>  <SCORE.SYSTEM.norm>
0

>  <SCORE.heavy>
12

>  <SCORE.norm>
-1.10726

>  <RMSD>
2.933

$$$$
ligand
 OpenBabel11021811503D
libRbt.so/2013.1/901 2013/11/27
 12 12  0  0  0  0  0  0  0  0999 V2000
   10.5984   13.3434  147.9730 C   0  0  0  0  0  0  0  0  0  0  0  0
   12.5970    8.7657  145.6456 C   0  0  0  0  0  0  0  0  0  0  0  0
    9.7455   10.8799  148.7192 N   0  0  0  0  0  0  0  0  0  0  0  0
   10.6215   14.5060  147.0730 N   0  0  0  0  0  0  0  0  0  0  0  0
   10.3670   15.5003  147.5303 N   0  0  0  0  0  0  0  0  0  0  0  0
   10.1182   16.4924  147.9911 N   0  0  0  0  0  0  0  0  0  0  0  0
   12.5366   11.1120  145.8117 N   0  0  0  0  0  0  0  0  0  0  0  0
   12.0923    9.9186  146.2344 C   0  0  0  0  0  0  0  0  0  0  0  0
   11.1191    9.8361  147.1528 N   0  0  0  0  0  0  0  0  0  0  0  0
   10.5677   10.9395  147.6760 C   0  0  0  0  0  0  0  0  0  0  0  0
   10.9832   12.2051  147.2745 C   0  0  0  0  0  0  0  0  0  0  0  0
   11.9835   12.2936  146.3166 C   0  0  0  0  0  0  0  0  0  0  0  0
  1 11  1  0  0  0  0
  1  4  1  0  0  0  0
  2  8  1  0  0  0  0
  3 10  1  0  0  0  0
  4  5  1  0  0  0  0
  5  6  1  0  0  0  0
  7  8  2  0  0  0  0
  7 12  1  0  0  0  0
  8  9  1  0  0  0  0
  9 10  2  0  0  0  0
 10 11  1  0  0  0  0
 11 12  2  0  0  0  0
M  END
>  <CHROM.1>
-154.38938168,-177.70348875,61.05314407,11.10558346,12.16808013,147.11919249
1.97848980,0.82421736,-0.07150245

>  <Name>
ligand

>  <RI>
0

>  <Rbt.Current_Directory>
/home/itssahil/PROJECTS/Mol_Feturizer/New_Systems/rnas/4NYA

>  <Rbt.Executable>
rbdock ($Id: //depot/dev/client3/rdock/2013.1/src/exe/rbdock.cxx#4 $)

>  <Rbt.Library>
libRbt.so (2013.1, Build901 2013/11/27)

>  <Rbt.Parameter_File>
/export/apps/rDock/src/rDock_2013.1_src/data/scripts/dock_solv.prm

>  <Rbt.Receptor>
prm/pocket_docking_4.prm

>  <SCORE>
-13.2914

>  <SCORE.INTER>
-12.5054

>  <SCORE.INTER.CONST>
1

>  <SCORE.INTER.POLAR>
0

>  <SCORE.INTER.ROT>
3

>  <SCORE.INTER.SOLV>
14.9959

>  <SCORE.INTER.VDW>
-18.9355

>  <SCORE.INTER.norm>
-1.04211

>  <SCORE.INTRA>
-0.786017

>  <SCORE.INTRA.DIHEDRAL>
-0.964578

>  <SCORE.INTRA.DIHEDRAL.0>
2.1382

>  <SCORE.INTRA.POLAR>
0

>  <SCORE.INTRA.POLAR.0>
0

>  <SCORE.INTRA.REPUL>
0

>  <SCORE.INTRA.REPUL.0>
0

>  <SCORE.INTRA.SOLV>
-1.51056

>  <SCORE.INTRA.SOLV.lig_0>
-59.6513

>  <SCORE.INTRA.VDW>
0.451552

>  <SCORE.INTRA.VDW.0>
-0.569808

>  <SCORE.INTRA.norm>
-0.0655014

>  <SCORE.RESTR>
0

>  <SCORE.RESTR.CAVITY>
0

>  <SCORE.RESTR.norm>
0

>  <SCORE.SYSTEM>
0

>  <SCORE.SYSTEM.CONST>
0

>  <SCORE.SYSTEM.DIHEDRAL>
0

>  <SCORE.SYSTEM.SOLV>
0

>  <SCORE.SYSTEM.norm>
0

>  <SCORE.heavy>
12

>  <SCORE.norm>
-1.10761

>  <RMSD>
2.933

$$$$
ligand
 OpenBabel11021811503D
libRbt.so/2013.1/901 2013/11/27
 12 12  0  0  0  0  0  0  0  0999 V2000
   10.5994   13.3845  147.9901 C   0  0  0  0  0  0  0  0  0  0  0  0
   12.6349    8.8297  145.6499 C   0  0  0  0  0  0  0  0  0  0  0  0
    9.7655   10.9121  148.7286 N   0  0  0  0  0  0  0  0  0  0  0  0
   10.6656   14.5591  147.1080 N   0  0  0  0  0  0  0  0  0  0  0  0
   10.4339   15.5534  147.5774 N   0  0  0  0  0  0  0  0  0  0  0  0
   10.2038   16.5491  148.0400 N   0  0  0  0  0  0  0  0  0  0  0  0
   12.5560   11.1749  145.8230 N   0  0  0  0  0  0  0  0  0  0  0  0
   12.1209    9.9768  146.2419 C   0  0  0  0  0  0  0  0  0  0  0  0
   11.1480    9.8839  147.1596 N   0  0  0  0  0  0  0  0  0  0  0  0
   10.5878   10.9813  147.6858 C   0  0  0  0  0  0  0  0  0  0  0  0
   10.9934   12.2514  147.2884 C   0  0  0  0  0  0  0  0  0  0  0  0
   11.9934   12.3506  146.3312 C   0  0  0  0  0  0  0  0  0  0  0  0
  1 11  1  0  0  0  0
  1  4  1  0  0  0  0
  2  8  1  0  0  0  0
  3 10  1  0  0  0  0
  4  5  1  0  0  0  0
  5  6  1  0  0  0  0
  7  8  2  0  0  0  0
  7 12  1  0  0  0  0
  8  9  1  0  0  0  0
  9 10  2  0  0  0  0
 10 11  1  0  0  0  0
 11 12  2  0  0  0  0
M  END
>  <CHROM.1>
-156.64790991,-176.16674494,179.09142629,11.13737938,12.21937253,147.13826879
1.96781642,0.82192876,-0.05753805

>  <Name>
ligand

>  <RI>
0

>  <Rbt.Current_Directory>
/home/itssahil/PROJECTS/Mol_Feturizer/New_Systems/rnas/4NYA

>  <Rbt.Executable>
rbdock ($Id: //depot/dev/client3/rdock/2013.1/src/exe/rbdock.cxx#4 $)

>  <Rbt.Library>
libRbt.so (2013.1, Build901 2013/11/27)

>  <Rbt.Parameter_File>
/export/apps/rDock/src/rDock_2013.1_src/data/scripts/dock_solv.prm

>  <Rbt.Receptor>
prm/pocket_docking_4.prm

>  <SCORE>
-13.2731

>  <SCORE.INTER>
-12.5055

>  <SCORE.INTER.CONST>
1

>  <SCORE.INTER.POLAR>
0

>  <SCORE.INTER.ROT>
3

>  <SCORE.INTER.SOLV>
14.6667

>  <SCORE.INTER.VDW>
-18.8259

>  <SCORE.INTER.norm>
-1.04213

>  <SCORE.INTRA>
-0.767626

>  <SCORE.INTRA.DIHEDRAL>
-0.958225

>  <SCORE.INTRA.DIHEDRAL.0>
2.1382

>  <SCORE.INTRA.POLAR>
0

>  <SCORE.INTRA.POLAR.0>
0

>  <SCORE.INTRA.REPUL>
0

>  <SCORE.INTRA.REPUL.0>
0

>  <SCORE.INTRA.SOLV>
-1.5236

>  <SCORE.INTRA.SOLV.lig_0>
-59.6513

>  <SCORE.INTRA.VDW>
0.473285

>  <SCORE.INTRA.VDW.0>
-0.569808

>  <SCORE.INTRA.norm>
-0.0639688

>  <SCORE.RESTR>
0

>  <SCORE.RESTR.CAVITY>
0

>  <SCORE.RESTR.norm>
0

>  <SCORE.SYSTEM>
0

>  <SCORE.SYSTEM.CONST>
0

>  <SCORE.SYSTEM.DIHEDRAL>
0

>  <SCORE.SYSTEM.SOLV>
0

>  <SCORE.SYSTEM.norm>
0

>  <SCORE.heavy>
12

>  <SCORE.norm>
-1.10609

>  <RMSD>
2.934

$$$$
ligand
 OpenBabel11021811503D
libRbt.so/2013.1/901 2013/11/27
 12 12  0  0  0  0  0  0  0  0999 V2000
   10.5846   13.3432  147.9756 C   0  0  0  0  0  0  0  0  0  0  0  0
   12.5911    8.7591  145.6676 C   0  0  0  0  0  0  0  0  0  0  0  0
    9.7344   10.8815  148.7309 N   0  0  0  0  0  0  0  0  0  0  0  0
   10.7315   14.5218  147.1087 N   0  0  0  0  0  0  0  0  0  0  0  0
   10.4224   15.5093  147.5468 N   0  0  0  0  0  0  0  0  0  0  0  0
   10.1187   16.4945  147.9889 N   0  0  0  0  0  0  0  0  0  0  0  0
   12.5274   11.1060  145.8245 N   0  0  0  0  0  0  0  0  0  0  0  0
   12.0844    9.9137  146.2515 C   0  0  0  0  0  0  0  0  0  0  0  0
   11.1106    9.8335  147.1695 N   0  0  0  0  0  0  0  0  0  0  0  0
   10.5574   10.9381  147.6880 C   0  0  0  0  0  0  0  0  0  0  0  0
   10.9714   12.2027  147.2819 C   0  0  0  0  0  0  0  0  0  0  0  0
   11.9724   12.2888  146.3243 C   0  0  0  0  0  0  0  0  0  0  0  0
  1 11  1  0  0  0  0
  1  4  1  0  0  0  0
  2  8  1  0  0  0  0
  3 10  1  0  0  0  0
  4  5  1  0  0  0  0
  5  6  1  0  0  0  0
  7  8  2  0  0  0  0
  7 12  1  0  0  0  0
  8  9  1  0  0  0  0
  9 10  2  0  0  0  0
 10 11  1  0  0  0  0
 11 12  2  0  0  0  0
M  END
>  <CHROM.1>
-159.84122314,178.38197644,63.39356116,11.11270143,12.16816708,147.13269338
1.96437949,0.82053278,-0.06148157

>  <Name>
ligand

>  <RI>
0

>  <Rbt.Current_Directory>
/home/itssahil/PROJECTS/Mol_Feturizer/New_Systems/rnas/4NYA

>  <Rbt.Executable>
rbdock ($Id: //depot/dev/client3/rdock/2013.1/src/exe/rbdock.cxx#4 $)

>  <Rbt.Library>
libRbt.so (2013.1, Build901 2013/11/27)

>  <Rbt.Parameter_File>
/export/apps/rDock/src/rDock_2013.1_src/data/scripts/dock_solv.prm

>  <Rbt.Receptor>
prm/pocket_docking_5.prm

>  <SCORE>
-13.2919

>  <SCORE.INTER>
-12.5959

>  <SCORE.INTER.CONST>
1

>  <SCORE.INTER.POLAR>
0

>  <SCORE.INTER.ROT>
3

>  <SCORE.INTER.SOLV>
14.8415

>  <SCORE.INTER.VDW>
-18.9444

>  <SCORE.INTER.norm>
-1.04966

>  <SCORE.INTRA>
-0.696037

>  <SCORE.INTRA.DIHEDRAL>
-0.954811

>  <SCORE.INTRA.DIHEDRAL.0>
2.1382

>  <SCORE.INTRA.POLAR>
0

>  <SCORE.INTRA.POLAR.0>
0

>  <SCORE.INTRA.REPUL>
0

>  <SCORE.INTRA.REPUL.0>
0

>  <SCORE.INTRA.SOLV>
-1.54184

>  <SCORE.INTRA.SOLV.lig_0>
-59.6513

>  <SCORE.INTRA.VDW>
0.552287

>  <SCORE.INTRA.VDW.0>
-0.569808

>  <SCORE.INTRA.norm>
-0.0580031

>  <SCORE.RESTR>
0

>  <SCORE.RESTR.CAVITY>
0

>  <SCORE.RESTR.norm>
0

>  <SCORE.SYSTEM>
0

>  <SCORE.SYSTEM.CONST>
0

>  <SCORE.SYSTEM.DIHEDRAL>
0

>  <SCORE.SYSTEM.SOLV>
0

>  <SCORE.SYSTEM.norm>
0

>  <SCORE.heavy>
12

>  <SCORE.norm>
-1.10766

>  <RMSD>
2.934

$$$$
ligand
 OpenBabel11021811503D
libRbt.so/2013.1/901 2013/11/27
 12 12  0  0  0  0  0  0  0  0999 V2000
   10.5777   13.3397  147.9733 C   0  0  0  0  0  0  0  0  0  0  0  0
   12.6025    8.7597  145.6733 C   0  0  0  0  0  0  0  0  0  0  0  0
    9.7329   10.8762  148.7285 N   0  0  0  0  0  0  0  0  0  0  0  0
   10.6649   14.5096  147.0867 N   0  0  0  0  0  0  0  0  0  0  0  0
   10.3922   15.5024  147.5369 N   0  0  0  0  0  0  0  0  0  0  0  0
   10.1212   16.4965  147.9803 N   0  0  0  0  0  0  0  0  0  0  0  0
   12.5317   11.1065  145.8282 N   0  0  0  0  0  0  0  0  0  0  0  0
   12.0912    9.9132  146.2552 C   0  0  0  0  0  0  0  0  0  0  0  0
   11.1156    9.8309  147.1710 N   0  0  0  0  0  0  0  0  0  0  0  0
   10.5580   10.9343  147.6874 C   0  0  0  0  0  0  0  0  0  0  0  0
   10.9694   12.1998  147.2813 C   0  0  0  0  0  0  0  0  0  0  0  0
   11.9722   12.2880  146.3259 C   0  0  0  0  0  0  0  0  0  0  0  0
  1 11  1  0  0  0  0
  1  4  1  0  0  0  0
  2  8  1  0  0  0  0
  3 10  1  0  0  0  0
  4  5  1  0  0  0  0
  5  6  1  0  0  0  0
  7  8  2  0  0  0  0
  7 12  1  0  0  0  0
  8  9  1  0  0  0  0
  9 10  2  0  0  0  0
 10 11  1  0  0  0  0
 11 12  2  0  0  0  0
M  END
>  <CHROM.1>
-157.27714469,-178.82537163,-178.38671604,11.10601937,12.16519736,147.13002803
1.97147307,0.81947981,-0.06905698

>  <Name>
ligand

>  <RI>
0

>  <Rbt.Current_Directory>
/home/itssahil/PROJECTS/Mol_Feturizer/New_Systems/rnas/4NYA

>  <Rbt.Executable>
rbdock ($Id: //depot/dev/client3/rdock/2013.1/src/exe/rbdock.cxx#4 $)

>  <Rbt.Library>
libRbt.so (2013.1, Build901 2013/11/27)

>  <Rbt.Parameter_File>
/export/apps/rDock/src/rDock_2013.1_src/data/scripts/dock_solv.prm

>  <Rbt.Receptor>
prm/pocket_docking_4.prm

>  <SCORE>
-13.2787

>  <SCORE.INTER>
-12.5317

>  <SCORE.INTER.CONST>
1

>  <SCORE.INTER.POLAR>
0

>  <SCORE.INTER.ROT>
3

>  <SCORE.INTER.SOLV>
14.959

>  <SCORE.INTER.VDW>
-18.9408

>  <SCORE.INTER.norm>
-1.04431

>  <SCORE.INTRA>
-0.746997

>  <SCORE.INTRA.DIHEDRAL>
-0.967729

>  <SCORE.INTRA.DIHEDRAL.0>
2.1382

>  <SCORE.INTRA.POLAR>
0

>  <SCORE.INTRA.POLAR.0>
0

>  <SCORE.INTRA.REPUL>
0

>  <SCORE.INTRA.REPUL.0>
0

>  <SCORE.INTRA.SOLV>
-1.53127

>  <SCORE.INTRA.SOLV.lig_0>
-59.6513

>  <SCORE.INTRA.VDW>
0.502504

>  <SCORE.INTRA.VDW.0>
-0.569808

>  <SCORE.INTRA.norm>
-0.0622497

>  <SCORE.RESTR>
0

>  <SCORE.RESTR.CAVITY>
0

>  <SCORE.RESTR.norm>
0

>  <SCORE.SYSTEM>
0

>  <SCORE.SYSTEM.CONST>
0

>  <SCORE.SYSTEM.DIHEDRAL>
0

>  <SCORE.SYSTEM.SOLV>
0

>  <SCORE.SYSTEM.norm>
0

>  <SCORE.heavy>
12

>  <SCORE.norm>
-1.10656

>  <RMSD>
2.935

$$$$
ligand
 OpenBabel11021811503D
libRbt.so/2013.1/901 2013/11/27
 12 12  0  0  0  0  0  0  0  0999 V2000
   10.5746   13.3581  147.9704 C   0  0  0  0  0  0  0  0  0  0  0  0
   12.6389    8.7911  145.6797 C   0  0  0  0  0  0  0  0  0  0  0  0
    9.7463   10.8891  148.7259 N   0  0  0  0  0  0  0  0  0  0  0  0
   10.6846   14.5325  147.0922 N   0  0  0  0  0  0  0  0  0  0  0  0
   10.3998   15.5230  147.5401 N   0  0  0  0  0  0  0  0  0  0  0  0
   10.1204   16.5110  147.9918 N   0  0  0  0  0  0  0  0  0  0  0  0
   12.5503   11.1374  145.8322 N   0  0  0  0  0  0  0  0  0  0  0  0
   12.1176    9.9413  146.2592 C   0  0  0  0  0  0  0  0  0  0  0  0
   11.1405    9.8527  147.1728 N   0  0  0  0  0  0  0  0  0  0  0  0
   10.5735   10.9525  147.6867 C   0  0  0  0  0  0  0  0  0  0  0  0
   10.9764   12.2206  147.2804 C   0  0  0  0  0  0  0  0  0  0  0  0
   11.9809   12.3153  146.3274 C   0  0  0  0  0  0  0  0  0  0  0  0
  1 11  1  0  0  0  0
  1  4  1  0  0  0  0
  2  8  1  0  0  0  0
  3 10  1  0  0  0  0
  4  5  1  0  0  0  0
  5  6  1  0  0  0  0
  7  8  2  0  0  0  0
  7 12  1  0  0  0  0
  8  9  1  0  0  0  0
  9 10  2  0  0  0  0
 10 11  1  0  0  0  0
 11 12  2  0  0  0  0
M  END
>  <CHROM.1>
-158.56501792,-179.21987236,60.39615106,11.12069015,12.18750796,147.13271379
1.97550725,0.81594030,-0.07072325

>  <Name>
ligand

>  <RI>
0

>  <Rbt.Current_Directory>
/home/itssahil/PROJECTS/Mol_Feturizer/New_Systems/rnas/4NYA

>  <Rbt.Executable>
rbdock ($Id: //depot/dev/client3/rdock/2013.1/src/exe/rbdock.cxx#4 $)

>  <Rbt.Library>
libRbt.so (2013.1, Build901 2013/11/27)

>  <Rbt.Parameter_File>
/export/apps/rDock/src/rDock_2013.1_src/data/scripts/dock_solv.prm

>  <Rbt.Receptor>
prm/pocket_docking_4.prm

>  <SCORE>
-13.2267

>  <SCORE.INTER>
-12.5053

>  <SCORE.INTER.CONST>
1

>  <SCORE.INTER.POLAR>
0

>  <SCORE.INTER.ROT>
3

>  <SCORE.INTER.SOLV>
14.9354

>  <SCORE.INTER.VDW>
-18.9153

>  <SCORE.INTER.norm>
-1.0421

>  <SCORE.INTRA>
-0.721459

>  <SCORE.INTRA.DIHEDRAL>
-0.965423

>  <SCORE.INTRA.DIHEDRAL.0>
2.1382

>  <SCORE.INTRA.POLAR>
0

>  <SCORE.INTRA.POLAR.0>
0

>  <SCORE.INTRA.REPUL>
0

>  <SCORE.INTRA.REPUL.0>
0

>  <SCORE.INTRA.SOLV>
-1.53338

>  <SCORE.INTRA.SOLV.lig_0>
-59.6513

>  <SCORE.INTRA.VDW>
0.527942

>  <SCORE.INTRA.VDW.0>
-0.569808

>  <SCORE.INTRA.norm>
-0.0601216

>  <SCORE.RESTR>
0

>  <SCORE.RESTR.CAVITY>
0

>  <SCORE.RESTR.norm>
0

>  <SCORE.SYSTEM>
0

>  <SCORE.SYSTEM.CONST>
0

>  <SCORE.SYSTEM.DIHEDRAL>
0

>  <SCORE.SYSTEM.SOLV>
0

>  <SCORE.SYSTEM.norm>
0

>  <SCORE.heavy>
12

>  <SCORE.norm>
-1.10223

>  <RMSD>
2.935

$$$$
ligand
 OpenBabel11021811503D
libRbt.so/2013.1/901 2013/11/27
 12 12  0  0  0  0  0  0  0  0999 V2000
   10.6153   13.3534  147.9805 C   0  0  0  0  0  0  0  0  0  0  0  0
   12.5754    8.7613  145.6487 C   0  0  0  0  0  0  0  0  0  0  0  0
    9.7437   10.8964  148.7263 N   0  0  0  0  0  0  0  0  0  0  0  0
   10.7234   14.5282  147.1028 N   0  0  0  0  0  0  0  0  0  0  0  0
   10.4365   15.5180  147.5507 N   0  0  0  0  0  0  0  0  0  0  0  0
   10.1440   16.5036  147.9997 N   0  0  0  0  0  0  0  0  0  0  0  0
   12.5337   11.1079  145.8161 N   0  0  0  0  0  0  0  0  0  0  0  0
   12.0804    9.9179  146.2386 C   0  0  0  0  0  0  0  0  0  0  0  0
   11.1075    9.8426  147.1579 N   0  0  0  0  0  0  0  0  0  0  0  0
   10.5654   10.9500  147.6822 C   0  0  0  0  0  0  0  0  0  0  0  0
   10.9904   12.2125  147.2810 C   0  0  0  0  0  0  0  0  0  0  0  0
   11.9905   12.2936  146.3221 C   0  0  0  0  0  0  0  0  0  0  0  0
  1 11  1  0  0  0  0
  1  4  1  0  0  0  0
  2  8  1  0  0  0  0
  3 10  1  0  0  0  0
  4  5  1  0  0  0  0
  5  6  1  0  0  0  0
  7  8  2  0  0  0  0
  7 12  1  0  0  0  0
  8  9  1  0  0  0  0
  9 10  2  0  0  0  0
 10 11  1  0  0  0  0
 11 12  2  0  0  0  0
M  END
>  <CHROM.1>
-157.72328901,179.42352065,-54.43024700,11.12076786,12.17592118,147.12835070
1.96077668,0.82402623,-0.05627944

>  <Name>
ligand

>  <RI>
0

>  <Rbt.Current_Directory>
/home/itssahil/PROJECTS/Mol_Feturizer/New_Systems/rnas/4NYA

>  <Rbt.Executable>
rbdock ($Id: //depot/dev/client3/rdock/2013.1/src/exe/rbdock.cxx#4 $)

>  <Rbt.Library>
libRbt.so (2013.1, Build901 2013/11/27)

>  <Rbt.Parameter_File>
/export/apps/rDock/src/rDock_2013.1_src/data/scripts/dock_solv.prm

>  <Rbt.Receptor>
prm/pocket_docking_4.prm

>  <SCORE>
-13.3166

>  <SCORE.INTER>
-12.5836

>  <SCORE.INTER.CONST>
1

>  <SCORE.INTER.POLAR>
0

>  <SCORE.INTER.ROT>
3

>  <SCORE.INTER.SOLV>
14.7805

>  <SCORE.INTER.VDW>
-18.9159

>  <SCORE.INTER.norm>
-1.04863

>  <SCORE.INTRA>
-0.732954

>  <SCORE.INTRA.DIHEDRAL>
-0.95987

>  <SCORE.INTRA.DIHEDRAL.0>
2.1382

>  <SCORE.INTRA.POLAR>
0

>  <SCORE.INTRA.POLAR.0>
0

>  <SCORE.INTRA.REPUL>
0

>  <SCORE.INTRA.REPUL.0>
0

>  <SCORE.INTRA.SOLV>
-1.53131

>  <SCORE.INTRA.SOLV.lig_0>
-59.6513

>  <SCORE.INTRA.VDW>
0.512637

>  <SCORE.INTRA.VDW.0>
-0.569808

>  <SCORE.INTRA.norm>
-0.0610795

>  <SCORE.RESTR>
0

>  <SCORE.RESTR.CAVITY>
0

>  <SCORE.RESTR.norm>
0

>  <SCORE.SYSTEM>
0

>  <SCORE.SYSTEM.CONST>
0

>  <SCORE.SYSTEM.DIHEDRAL>
0

>  <SCORE.SYSTEM.SOLV>
0

>  <SCORE.SYSTEM.norm>
0

>  <SCORE.heavy>
12

>  <SCORE.norm>
-1.10971

>  <RMSD>
2.936

$$$$
ligand
 OpenBabel11021811503D
libRbt.so/2013.1/901 2013/11/27
 12 12  0  0  0  0  0  0  0  0999 V2000
   10.5561   13.3839  147.9748 C   0  0  0  0  0  0  0  0  0  0  0  0
   12.5882    8.8091  145.6707 C   0  0  0  0  0  0  0  0  0  0  0  0
    9.7167   10.9182  148.7293 N   0  0  0  0  0  0  0  0  0  0  0  0
   10.6222   14.5514  147.0834 N   0  0  0  0  0  0  0  0  0  0  0  0
   10.3896   15.5494  147.5446 N   0  0  0  0  0  0  0  0  0  0  0  0
   10.1579   16.5485  147.9990 N   0  0  0  0  0  0  0  0  0  0  0  0
   12.5129   11.1557  145.8270 N   0  0  0  0  0  0  0  0  0  0  0  0
   12.0751    9.9613  146.2536 C   0  0  0  0  0  0  0  0  0  0  0  0
   11.1003    9.8766  147.1701 N   0  0  0  0  0  0  0  0  0  0  0  0
   10.5410   10.9786  147.6876 C   0  0  0  0  0  0  0  0  0  0  0  0
   10.9495   12.2452  147.2818 C   0  0  0  0  0  0  0  0  0  0  0  0
   11.9514   12.3359  146.3257 C   0  0  0  0  0  0  0  0  0  0  0  0
  1 11  1  0  0  0  0
  1  4  1  0  0  0  0
  2  8  1  0  0  0  0
  3 10  1  0  0  0  0
  4  5  1  0  0  0  0
  5  6  1  0  0  0  0
  7  8  2  0  0  0  0
  7 12  1  0  0  0  0
  8  9  1  0  0  0  0
  9 10  2  0  0  0  0
 10 11  1  0  0  0  0
 11 12  2  0  0  0  0
M  END
>  <CHROM.1>
-156.48863580,-176.25042704,-174.60121557,11.09220104,12.21163499,147.13175074
1.96671419,0.82031126,-0.06414299

>  <Name>
ligand

>  <RI>
0

>  <Rbt.Current_Directory>
/home/itssahil/PROJECTS/Mol_Feturizer/New_Systems/rnas/4NYA

>  <Rbt.Executable>
rbdock ($Id: //depot/dev/client3/rdock/2013.1/src/exe/rbdock.cxx#4 $)

>  <Rbt.Library>
libRbt.so (2013.1, Build901 2013/11/27)

>  <Rbt.Parameter_File>
/export/apps/rDock/src/rDock_2013.1_src/data/scripts/dock_solv.prm

>  <Rbt.Receptor>
prm/pocket_docking_5.prm

>  <SCORE>
-13.2727

>  <SCORE.INTER>
-12.506

>  <SCORE.INTER.CONST>
1

>  <SCORE.INTER.POLAR>
0

>  <SCORE.INTER.ROT>
3

>  <SCORE.INTER.SOLV>
14.9025

>  <SCORE.INTER.VDW>
-18.9049

>  <SCORE.INTER.norm>
-1.04217

>  <SCORE.INTRA>
-0.766636

>  <SCORE.INTRA.DIHEDRAL>
-0.951176

>  <SCORE.INTRA.DIHEDRAL.0>
2.1382

>  <SCORE.INTRA.POLAR>
0

>  <SCORE.INTRA.POLAR.0>
0

>  <SCORE.INTRA.REPUL>
0

>  <SCORE.INTRA.REPUL.0>
0

>  <SCORE.INTRA.SOLV>
-1.52296

>  <SCORE.INTRA.SOLV.lig_0>
-59.6513

>  <SCORE.INTRA.VDW>
0.470433

>  <SCORE.INTRA.VDW.0>
-0.569808

>  <SCORE.INTRA.norm>
-0.0638863

>  <SCORE.RESTR>
0

>  <SCORE.RESTR.CAVITY>
0

>  <SCORE.RESTR.norm>
0

>  <SCORE.SYSTEM>
0

>  <SCORE.SYSTEM.CONST>
0

>  <SCORE.SYSTEM.DIHEDRAL>
0

>  <SCORE.SYSTEM.SOLV>
0

>  <SCORE.SYSTEM.norm>
0

>  <SCORE.heavy>
12

>  <SCORE.norm>
-1.10606

>  <RMSD>
2.936

$$$$
ligand
 OpenBabel11021811503D
libRbt.so/2013.1/901 2013/11/27
 12 12  0  0  0  0  0  0  0  0999 V2000
   10.4192   13.6713  147.9770 C   0  0  0  0  0  0  0  0  0  0  0  0
   12.5904    9.0363  145.9350 C   0  0  0  0  0  0  0  0  0  0  0  0
    9.8658   11.2460  149.0563 N   0  0  0  0  0  0  0  0  0  0  0  0
   11.1526   14.8125  147.4095 N   0  0  0  0  0  0  0  0  0  0  0  0
   11.0703   15.7874  147.9622 N   0  0  0  0  0  0  0  0  0  0  0  0
   10.9919   16.7637  148.5092 N   0  0  0  0  0  0  0  0  0  0  0  0
   12.3355   11.3744  145.8654 N   0  0  0  0  0  0  0  0  0  0  0  0
   12.0425   10.2038  146.4520 C   0  0  0  0  0  0  0  0  0  0  0  0
   11.1724   10.1470  147.4704 N   0  0  0  0  0  0  0  0  0  0  0  0
   10.5765   11.2544  147.9324 C   0  0  0  0  0  0  0  0  0  0  0  0
   10.8365   12.4966  147.3624 C   0  0  0  0  0  0  0  0  0  0  0  0
   11.7292   12.5572  146.3015 C   0  0  0  0  0  0  0  0  0  0  0  0
  1 11  1  0  0  0  0
  1  4  1  0  0  0  0
  2  8  1  0  0  0  0
  3 10  1  0  0  0  0
  4  5  1  0  0  0  0
  5  6  1  0  0  0  0
  7  8  2  0  0  0  0
  7 12  1  0  0  0  0
  8  9  1  0  0  0  0
  9 10  2  0  0  0  0
 10 11  1  0  0  0  0
 11 12  2  0  0  0  0
M  END
>  <CHROM.1>
162.93986101,-167.52064737,-178.32594066,11.23728032,12.46480725,147.36069827
1.82322715,0.87240568,0.06237983

>  <Name>
ligand

>  <RI>
0

>  <Rbt.Current_Directory>
/home/itssahil/PROJECTS/Mol_Feturizer/New_Systems/rnas/4NYA

>  <Rbt.Executable>
rbdock ($Id: //depot/dev/client3/rdock/2013.1/src/exe/rbdock.cxx#4 $)

>  <Rbt.Library>
libRbt.so (2013.1, Build901 2013/11/27)

>  <Rbt.Parameter_File>
/export/apps/rDock/src/rDock_2013.1_src/data/scripts/dock_solv.prm

>  <Rbt.Receptor>
prm/pocket_docking_8.prm

>  <SCORE>
-12.9264

>  <SCORE.INTER>
-13.0667

>  <SCORE.INTER.CONST>
1

>  <SCORE.INTER.POLAR>
0

>  <SCORE.INTER.ROT>
3

>  <SCORE.INTER.SOLV>
12.2872

>  <SCORE.INTER.VDW>
-18.4069

>  <SCORE.INTER.norm>
-1.08889

>  <SCORE.INTRA>
0.140293

>  <SCORE.INTRA.DIHEDRAL>
-0.0515252

>  <SCORE.INTRA.DIHEDRAL.0>
2.1382

>  <SCORE.INTRA.POLAR>
0

>  <SCORE.INTRA.POLAR.0>
0

>  <SCORE.INTRA.REPUL>
0

>  <SCORE.INTRA.REPUL.0>
0

>  <SCORE.INTRA.SOLV>
-1.49342

>  <SCORE.INTRA.SOLV.lig_0>
-59.6513

>  <SCORE.INTRA.VDW>
0.912765

>  <SCORE.INTRA.VDW.0>
-0.569808

>  <SCORE.INTRA.norm>
0.0116911

>  <SCORE.RESTR>
0

>  <SCORE.RESTR.CAVITY>
0

>  <SCORE.RESTR.norm>
0

>  <SCORE.SYSTEM>
0

>  <SCORE.SYSTEM.CONST>
0

>  <SCORE.SYSTEM.DIHEDRAL>
0

>  <SCORE.SYSTEM.SOLV>
0

>  <SCORE.SYSTEM.norm>
0

>  <SCORE.heavy>
12

>  <SCORE.norm>
-1.0772

>  <RMSD>
2.936

$$$$
ligand
 OpenBabel11021811503D
libRbt.so/2013.1/901 2013/11/27
 12 12  0  0  0  0  0  0  0  0999 V2000
   10.5967   13.3970  148.0211 C   0  0  0  0  0  0  0  0  0  0  0  0
   12.5871    8.8054  145.7143 C   0  0  0  0  0  0  0  0  0  0  0  0
    9.8325   10.9357  148.8643 N   0  0  0  0  0  0  0  0  0  0  0  0
   10.6315   14.5520  147.1117 N   0  0  0  0  0  0  0  0  0  0  0  0
   10.4054   15.5551  147.5648 N   0  0  0  0  0  0  0  0  0  0  0  0
   10.1802   16.5594  148.0110 N   0  0  0  0  0  0  0  0  0  0  0  0
   12.4830   11.1533  145.8270 N   0  0  0  0  0  0  0  0  0  0  0  0
   12.0846    9.9619  146.2980 C   0  0  0  0  0  0  0  0  0  0  0  0
   11.1561    9.8821  147.2617 N   0  0  0  0  0  0  0  0  0  0  0  0
   10.6051   10.9864  147.7832 C   0  0  0  0  0  0  0  0  0  0  0  0
   10.9742   12.2500  147.3331 C   0  0  0  0  0  0  0  0  0  0  0  0
   11.9278   12.3354  146.3284 C   0  0  0  0  0  0  0  0  0  0  0  0
  1 11  1  0  0  0  0
  1  4  1  0  0  0  0
  2  8  1  0  0  0  0
  3 10  1  0  0  0  0
  4  5  1  0  0  0  0
  5  6  1  0  0  0  0
  7  8  2  0  0  0  0
  7 12  1  0  0  0  0
  8  9  1  0  0  0  0
  9 10  2  0  0  0  0
 10 11  1  0  0  0  0
 11 12  2  0  0  0  0
M  END
>  <CHROM.1>
-157.75504611,-176.43096952,-176.92237496,11.11762352,12.21665400,147.17924131
1.98750783,0.86615662,-0.09849924

>  <Name>
ligand

>  <RI>
0

>  <Rbt.Current_Directory>
/home/itssahil/PROJECTS/Mol_Feturizer/New_Systems/rnas/4NYA

>  <Rbt.Executable>
rbdock ($Id: //depot/dev/client3/rdock/2013.1/src/exe/rbdock.cxx#4 $)

>  <Rbt.Library>
libRbt.so (2013.1, Build901 2013/11/27)

>  <Rbt.Parameter_File>
/export/apps/rDock/src/rDock_2013.1_src/data/scripts/dock_solv.prm

>  <Rbt.Receptor>
prm/pocket_docking_4.prm

>  <SCORE>
-13.2179

>  <SCORE.INTER>
-12.4692

>  <SCORE.INTER.CONST>
1

>  <SCORE.INTER.POLAR>
0

>  <SCORE.INTER.ROT>
3

>  <SCORE.INTER.SOLV>
14.4397

>  <SCORE.INTER.VDW>
-18.726

>  <SCORE.INTER.norm>
-1.0391

>  <SCORE.INTRA>
-0.748726

>  <SCORE.INTRA.DIHEDRAL>
-0.95547

>  <SCORE.INTRA.DIHEDRAL.0>
2.1382

>  <SCORE.INTRA.POLAR>
0

>  <SCORE.INTRA.POLAR.0>
0

>  <SCORE.INTRA.REPUL>
0

>  <SCORE.INTRA.REPUL.0>
0

>  <SCORE.INTRA.SOLV>
-1.52937

>  <SCORE.INTRA.SOLV.lig_0>
-59.6513

>  <SCORE.INTRA.VDW>
0.493695

>  <SCORE.INTRA.VDW.0>
-0.569808

>  <SCORE.INTRA.norm>
-0.0623938

>  <SCORE.RESTR>
0

>  <SCORE.RESTR.CAVITY>
0

>  <SCORE.RESTR.norm>
0

>  <SCORE.SYSTEM>
0

>  <SCORE.SYSTEM.CONST>
0

>  <SCORE.SYSTEM.DIHEDRAL>
0

>  <SCORE.SYSTEM.SOLV>
0

>  <SCORE.SYSTEM.norm>
0

>  <SCORE.heavy>
12

>  <SCORE.norm>
-1.1015

>  <RMSD>
2.937

$$$$
ligand
 OpenBabel11021811503D
libRbt.so/2013.1/901 2013/11/27
 12 12  0  0  0  0  0  0  0  0999 V2000
   10.5927   13.4161  147.9879 C   0  0  0  0  0  0  0  0  0  0  0  0
   12.6678    8.8653  145.6748 C   0  0  0  0  0  0  0  0  0  0  0  0
    9.7568   10.9420  148.7181 N   0  0  0  0  0  0  0  0  0  0  0  0
   10.6894   14.5941  147.1132 N   0  0  0  0  0  0  0  0  0  0  0  0
   10.4618   15.5890  147.5835 N   0  0  0  0  0  0  0  0  0  0  0  0
   10.2357   16.5852  148.0470 N   0  0  0  0  0  0  0  0  0  0  0  0
   12.5805   11.2104  145.8454 N   0  0  0  0  0  0  0  0  0  0  0  0
   12.1438   10.0114  146.2600 C   0  0  0  0  0  0  0  0  0  0  0  0
   11.1604    9.9165  147.1661 N   0  0  0  0  0  0  0  0  0  0  0  0
   10.5911   11.0127  147.6850 C   0  0  0  0  0  0  0  0  0  0  0  0
   10.9980   12.2836  147.2916 C   0  0  0  0  0  0  0  0  0  0  0  0
   12.0089   12.3849  146.3461 C   0  0  0  0  0  0  0  0  0  0  0  0
  1 11  1  0  0  0  0
  1  4  1  0  0  0  0
  2  8  1  0  0  0  0
  3 10  1  0  0  0  0
  4  5  1  0  0  0  0
  5  6  1  0  0  0  0
  7  8  2  0  0  0  0
  7 12  1  0  0  0  0
  8  9  1  0  0  0  0
  9 10  2  0  0  0  0
 10 11  1  0  0  0  0
 11 12  2  0  0  0  0
M  END
>  <CHROM.1>
-157.66830582,-175.56262004,-178.56001370,11.15301664,12.25308769,147.14622620
1.96128714,0.80932621,-0.05147417

>  <Name>
ligand

>  <RI>
0

>  <Rbt.Current_Directory>
/home/itssahil/PROJECTS/Mol_Feturizer/New_Systems/rnas/4NYA

>  <Rbt.Executable>
rbdock ($Id: //depot/dev/client3/rdock/2013.1/src/exe/rbdock.cxx#4 $)

>  <Rbt.Library>
libRbt.so (2013.1, Build901 2013/11/27)

>  <Rbt.Parameter_File>
/export/apps/rDock/src/rDock_2013.1_src/data/scripts/dock_solv.prm

>  <Rbt.Receptor>
prm/pocket_docking_5.prm

>  <SCORE>
-13.278

>  <SCORE.INTER>
-12.5301

>  <SCORE.INTER.CONST>
1

>  <SCORE.INTER.POLAR>
0

>  <SCORE.INTER.ROT>
3

>  <SCORE.INTER.SOLV>
14.6672

>  <SCORE.INTER.VDW>
-18.8424

>  <SCORE.INTER.norm>
-1.04417

>  <SCORE.INTRA>
-0.747951

>  <SCORE.INTRA.DIHEDRAL>
-0.952035

>  <SCORE.INTRA.DIHEDRAL.0>
2.1382

>  <SCORE.INTRA.POLAR>
0

>  <SCORE.INTRA.POLAR.0>
0

>  <SCORE.INTRA.REPUL>
0

>  <SCORE.INTRA.REPUL.0>
0

>  <SCORE.INTRA.SOLV>
-1.5273

>  <SCORE.INTRA.SOLV.lig_0>
-59.6513

>  <SCORE.INTRA.VDW>
0.491715

>  <SCORE.INTRA.VDW.0>
-0.569808

>  <SCORE.INTRA.norm>
-0.0623292

>  <SCORE.RESTR>
0

>  <SCORE.RESTR.CAVITY>
0

>  <SCORE.RESTR.norm>
0

>  <SCORE.SYSTEM>
0

>  <SCORE.SYSTEM.CONST>
0

>  <SCORE.SYSTEM.DIHEDRAL>
0

>  <SCORE.SYSTEM.SOLV>
0

>  <SCORE.SYSTEM.norm>
0

>  <SCORE.heavy>
12

>  <SCORE.norm>
-1.1065

>  <RMSD>
2.938

$$$$
ligand
 OpenBabel11021811503D
libRbt.so/2013.1/901 2013/11/27
 12 12  0  0  0  0  0  0  0  0999 V2000
   10.6224   13.3782  147.9911 C   0  0  0  0  0  0  0  0  0  0  0  0
   12.4938    8.7516  145.6546 C   0  0  0  0  0  0  0  0  0  0  0  0
    9.7086   10.9372  148.7391 N   0  0  0  0  0  0  0  0  0  0  0  0
   10.7298   14.5484  147.1072 N   0  0  0  0  0  0  0  0  0  0  0  0
   10.4365   15.5395  147.5481 N   0  0  0  0  0  0  0  0  0  0  0  0
   10.1452   16.5319  147.9824 N   0  0  0  0  0  0  0  0  0  0  0  0
   12.4947   11.0986  145.8220 N   0  0  0  0  0  0  0  0  0  0  0  0
   12.0212    9.9169  146.2457 C   0  0  0  0  0  0  0  0  0  0  0  0
   11.0494    9.8591  147.1674 N   0  0  0  0  0  0  0  0  0  0  0  0
   10.5286   10.9760  147.6930 C   0  0  0  0  0  0  0  0  0  0  0  0
   10.9752   12.2307  147.2907 C   0  0  0  0  0  0  0  0  0  0  0  0
   11.9742   12.2938  146.3293 C   0  0  0  0  0  0  0  0  0  0  0  0
  1 11  1  0  0  0  0
  1  4  1  0  0  0  0
  2  8  1  0  0  0  0
  3 10  1  0  0  0  0
  4  5  1  0  0  0  0
  5  6  1  0  0  0  0
  7  8  2  0  0  0  0
  7 12  1  0  0  0  0
  8  9  1  0  0  0  0
  9 10  2  0  0  0  0
 10 11  1  0  0  0  0
 11 12  2  0  0  0  0
M  END
>  <CHROM.1>
-156.86714044,178.02171852,-179.71265232,11.09344200,12.19064912,147.13352304
1.94600536,0.82798014,-0.04831377

>  <Name>
ligand

>  <RI>
0

>  <Rbt.Current_Directory>
/home/itssahil/PROJECTS/Mol_Feturizer/New_Systems/rnas/4NYA

>  <Rbt.Executable>
rbdock ($Id: //depot/dev/client3/rdock/2013.1/src/exe/rbdock.cxx#4 $)

>  <Rbt.Library>
libRbt.so (2013.1, Build901 2013/11/27)

>  <Rbt.Parameter_File>
/export/apps/rDock/src/rDock_2013.1_src/data/scripts/dock_solv.prm

>  <Rbt.Receptor>
prm/pocket_docking_6.prm

>  <SCORE>
-13.3196

>  <SCORE.INTER>
-12.5648

>  <SCORE.INTER.CONST>
1

>  <SCORE.INTER.POLAR>
0

>  <SCORE.INTER.ROT>
3

>  <SCORE.INTER.SOLV>
14.7434

>  <SCORE.INTER.VDW>
-18.891

>  <SCORE.INTER.norm>
-1.04707

>  <SCORE.INTRA>
-0.754787

>  <SCORE.INTRA.DIHEDRAL>
-0.967

>  <SCORE.INTRA.DIHEDRAL.0>
2.1382

>  <SCORE.INTRA.POLAR>
0

>  <SCORE.INTRA.POLAR.0>
0

>  <SCORE.INTRA.REPUL>
0

>  <SCORE.INTRA.REPUL.0>
0

>  <SCORE.INTRA.SOLV>
-1.53365

>  <SCORE.INTRA.SOLV.lig_0>
-59.6513

>  <SCORE.INTRA.VDW>
0.495539

>  <SCORE.INTRA.VDW.0>
-0.569808

>  <SCORE.INTRA.norm>
-0.0628989

>  <SCORE.RESTR>
0

>  <SCORE.RESTR.CAVITY>
0

>  <SCORE.RESTR.norm>
0

>  <SCORE.SYSTEM>
0

>  <SCORE.SYSTEM.CONST>
0

>  <SCORE.SYSTEM.DIHEDRAL>
0

>  <SCORE.SYSTEM.SOLV>
0

>  <SCORE.SYSTEM.norm>
0

>  <SCORE.heavy>
12

>  <SCORE.norm>
-1.10997

>  <RMSD>
2.938

$$$$
ligand
 OpenBabel11021811503D
libRbt.so/2013.1/901 2013/11/27
 12 12  0  0  0  0  0  0  0  0999 V2000
   10.5793   13.3900  147.9626 C   0  0  0  0  0  0  0  0  0  0  0  0
   12.7514    8.8753  145.6679 C   0  0  0  0  0  0  0  0  0  0  0  0
    9.8155   10.9013  148.7214 N   0  0  0  0  0  0  0  0  0  0  0  0
   10.7352   14.5790  147.1114 N   0  0  0  0  0  0  0  0  0  0  0  0
   10.4449   15.5643  147.5669 N   0  0  0  0  0  0  0  0  0  0  0  0
   10.1602   16.5475  148.0260 N   0  0  0  0  0  0  0  0  0  0  0  0
   12.6042   11.2187  145.8197 N   0  0  0  0  0  0  0  0  0  0  0  0
   12.2030   10.0124  146.2484 C   0  0  0  0  0  0  0  0  0  0  0  0
   11.2309    9.8995  147.1648 N   0  0  0  0  0  0  0  0  0  0  0  0
   10.6379   10.9849  147.6799 C   0  0  0  0  0  0  0  0  0  0  0  0
   11.0076   12.2626  147.2719 C   0  0  0  0  0  0  0  0  0  0  0  0
   12.0067   12.3821  146.3160 C   0  0  0  0  0  0  0  0  0  0  0  0
  1 11  1  0  0  0  0
  1  4  1  0  0  0  0
  2  8  1  0  0  0  0
  3 10  1  0  0  0  0
  4  5  1  0  0  0  0
  5  6  1  0  0  0  0
  7  8  2  0  0  0  0
  7 12  1  0  0  0  0
  8  9  1  0  0  0  0
  9 10  2  0  0  0  0
 10 11  1  0  0  0  0
 11 12  2  0  0  0  0
M  END
>  <CHROM.1>
-162.03017775,-178.57146251,66.34638634,11.17734024,12.23697818,147.13295772
1.98729047,0.81495084,-0.07375649

>  <Name>
ligand

>  <RI>
0

>  <Rbt.Current_Directory>
/home/itssahil/PROJECTS/Mol_Feturizer/New_Systems/rnas/4NYA

>  <Rbt.Executable>
rbdock ($Id: //depot/dev/client3/rdock/2013.1/src/exe/rbdock.cxx#4 $)

>  <Rbt.Library>
libRbt.so (2013.1, Build901 2013/11/27)

>  <Rbt.Parameter_File>
/export/apps/rDock/src/rDock_2013.1_src/data/scripts/dock_solv.prm

>  <Rbt.Receptor>
prm/pocket_docking_4.prm

>  <SCORE>
-13.2792

>  <SCORE.INTER>
-12.5992

>  <SCORE.INTER.CONST>
1

>  <SCORE.INTER.POLAR>
0

>  <SCORE.INTER.ROT>
3

>  <SCORE.INTER.SOLV>
14.8237

>  <SCORE.INTER.VDW>
-18.9407

>  <SCORE.INTER.norm>
-1.04994

>  <SCORE.INTRA>
-0.679957

>  <SCORE.INTRA.DIHEDRAL>
-0.932255

>  <SCORE.INTRA.DIHEDRAL.0>
2.1382

>  <SCORE.INTRA.POLAR>
0

>  <SCORE.INTRA.POLAR.0>
0

>  <SCORE.INTRA.REPUL>
0

>  <SCORE.INTRA.REPUL.0>
0

>  <SCORE.INTRA.SOLV>
-1.54618

>  <SCORE.INTRA.SOLV.lig_0>
-59.6513

>  <SCORE.INTRA.VDW>
0.559259

>  <SCORE.INTRA.VDW.0>
-0.569808

>  <SCORE.INTRA.norm>
-0.056663

>  <SCORE.RESTR>
0

>  <SCORE.RESTR.CAVITY>
0

>  <SCORE.RESTR.norm>
0

>  <SCORE.SYSTEM>
0

>  <SCORE.SYSTEM.CONST>
0

>  <SCORE.SYSTEM.DIHEDRAL>
0

>  <SCORE.SYSTEM.SOLV>
0

>  <SCORE.SYSTEM.norm>
0

>  <SCORE.heavy>
12

>  <SCORE.norm>
-1.1066

>  <RMSD>
2.939

$$$$
ligand
 OpenBabel11021811503D
libRbt.so/2013.1/901 2013/11/27
 12 12  0  0  0  0  0  0  0  0999 V2000
   10.1508   14.9189  147.8863 C   0  0  0  0  0  0  0  0  0  0  0  0
   12.1521   10.0944  146.1297 C   0  0  0  0  0  0  0  0  0  0  0  0
    9.5032   12.5834  149.1025 N   0  0  0  0  0  0  0  0  0  0  0  0
   11.1522   15.3480  148.8739 N   0  0  0  0  0  0  0  0  0  0  0  0
   11.0090   16.3677  149.3240 N   0  0  0  0  0  0  0  0  0  0  0  0
   10.8663   17.3883  149.7671 N   0  0  0  0  0  0  0  0  0  0  0  0
   11.9857   12.4323  145.9225 N   0  0  0  0  0  0  0  0  0  0  0  0
   11.6470   11.3099  146.5749 C   0  0  0  0  0  0  0  0  0  0  0  0
   10.7723   11.3453  147.5902 N   0  0  0  0  0  0  0  0  0  0  0  0
   10.2171   12.4994  147.9837 C   0  0  0  0  0  0  0  0  0  0  0  0
   10.5254   13.6955  147.3436 C   0  0  0  0  0  0  0  0  0  0  0  0
   11.4229   13.6605  146.2856 C   0  0  0  0  0  0  0  0  0  0  0  0
  1 11  1  0  0  0  0
  1  4  1  0  0  0  0
  2  8  1  0  0  0  0
  3 10  1  0  0  0  0
  4  5  1  0  0  0  0
  5  6  1  0  0  0  0
  7  8  2  0  0  0  0
  7 12  1  0  0  0  0
  8  9  1  0  0  0  0
  9 10  2  0  0  0  0
 10 11  1  0  0  0  0
 11 12  2  0  0  0  0
M  END
>  <CHROM.1>
84.24540518,175.01919061,-59.09798096,10.95776485,13.48259075,147.75573312
-1.78365103,-0.87466131,-2.82482363

>  <Name>
ligand

>  <RI>
0

>  <Rbt.Current_Directory>
/home/itssahil/PROJECTS/Mol_Feturizer/New_Systems/rnas/4NYA

>  <Rbt.Executable>
rbdock ($Id: //depot/dev/client3/rdock/2013.1/src/exe/rbdock.cxx#4 $)

>  <Rbt.Library>
libRbt.so (2013.1, Build901 2013/11/27)

>  <Rbt.Parameter_File>
/export/apps/rDock/src/rDock_2013.1_src/data/scripts/dock_solv.prm

>  <Rbt.Receptor>
prm/pocket_docking_6.prm

>  <SCORE>
-12.0095

>  <SCORE.INTER>
-11.474

>  <SCORE.INTER.CONST>
1

>  <SCORE.INTER.POLAR>
0

>  <SCORE.INTER.ROT>
3

>  <SCORE.INTER.SOLV>
8.95486

>  <SCORE.INTER.VDW>
-16.2343

>  <SCORE.INTER.norm>
-0.956163

>  <SCORE.INTRA>
-0.535559

>  <SCORE.INTRA.DIHEDRAL>
-0.950334

>  <SCORE.INTRA.DIHEDRAL.0>
2.1382

>  <SCORE.INTRA.POLAR>
0

>  <SCORE.INTRA.POLAR.0>
0

>  <SCORE.INTRA.REPUL>
0

>  <SCORE.INTRA.REPUL.0>
0

>  <SCORE.INTRA.SOLV>
0.0554452

>  <SCORE.INTRA.SOLV.lig_0>
-59.6513

>  <SCORE.INTRA.VDW>
-0.0881152

>  <SCORE.INTRA.VDW.0>
-0.569808

>  <SCORE.INTRA.norm>
-0.04463

>  <SCORE.RESTR>
0

>  <SCORE.RESTR.CAVITY>
0

>  <SCORE.RESTR.norm>
0

>  <SCORE.SYSTEM>
0

>  <SCORE.SYSTEM.CONST>
0

>  <SCORE.SYSTEM.DIHEDRAL>
0

>  <SCORE.SYSTEM.SOLV>
0

>  <SCORE.SYSTEM.norm>
0

>  <SCORE.heavy>
12

>  <SCORE.norm>
-1.00079

>  <RMSD>
2.940

$$$$
ligand
 OpenBabel11021811503D
libRbt.so/2013.1/901 2013/11/27
 12 12  0  0  0  0  0  0  0  0999 V2000
   10.5919   13.3902  147.9666 C   0  0  0  0  0  0  0  0  0  0  0  0
   12.6361    8.8223  145.6597 C   0  0  0  0  0  0  0  0  0  0  0  0
    9.7606   10.9218  148.7210 N   0  0  0  0  0  0  0  0  0  0  0  0
   10.7300   14.5699  147.0998 N   0  0  0  0  0  0  0  0  0  0  0  0
   10.4316   15.5578  147.5446 N   0  0  0  0  0  0  0  0  0  0  0  0
   10.1387   16.5433  147.9932 N   0  0  0  0  0  0  0  0  0  0  0  0
   12.5538   11.1685  145.8167 N   0  0  0  0  0  0  0  0  0  0  0  0
   12.1199    9.9727  146.2433 C   0  0  0  0  0  0  0  0  0  0  0  0
   11.1462    9.8848  147.1606 N   0  0  0  0  0  0  0  0  0  0  0  0
   10.5839   10.9850  147.6787 C   0  0  0  0  0  0  0  0  0  0  0  0
   10.9882   12.2529  147.2730 C   0  0  0  0  0  0  0  0  0  0  0  0
   11.9891   12.3469  146.3162 C   0  0  0  0  0  0  0  0  0  0  0  0
  1 11  1  0  0  0  0
  1  4  1  0  0  0  0
  2  8  1  0  0  0  0
  3 10  1  0  0  0  0
  4  5  1  0  0  0  0
  5  6  1  0  0  0  0
  7  8  2  0  0  0  0
  7 12  1  0  0  0  0
  8  9  1  0  0  0  0
  9 10  2  0  0  0  0
 10 11  1  0  0  0  0
 11 12  2  0  0  0  0
M  END
>  <CHROM.1>
-159.83414587,179.53411045,63.77730284,11.13473177,12.22016248,147.12569632
1.97030619,0.81932744,-0.06457649

>  <Name>
ligand

>  <RI>
0

>  <Rbt.Current_Directory>
/home/itssahil/PROJECTS/Mol_Feturizer/New_Systems/rnas/4NYA

>  <Rbt.Executable>
rbdock ($Id: //depot/dev/client3/rdock/2013.1/src/exe/rbdock.cxx#4 $)

>  <Rbt.Library>
libRbt.so (2013.1, Build901 2013/11/27)

>  <Rbt.Parameter_File>
/export/apps/rDock/src/rDock_2013.1_src/data/scripts/dock_solv.prm

>  <Rbt.Receptor>
prm/pocket_docking_5.prm

>  <SCORE>
-13.2868

>  <SCORE.INTER>
-12.5905

>  <SCORE.INTER.CONST>
1

>  <SCORE.INTER.POLAR>
0

>  <SCORE.INTER.ROT>
3

>  <SCORE.INTER.SOLV>
14.8844

>  <SCORE.INTER.VDW>
-18.9551

>  <SCORE.INTER.norm>
-1.04921

>  <SCORE.INTRA>
-0.696301

>  <SCORE.INTRA.DIHEDRAL>
-0.956073

>  <SCORE.INTRA.DIHEDRAL.0>
2.1382

>  <SCORE.INTRA.POLAR>
0

>  <SCORE.INTRA.POLAR.0>
0

>  <SCORE.INTRA.REPUL>
0

>  <SCORE.INTRA.REPUL.0>
0

>  <SCORE.INTRA.SOLV>
-1.54047

>  <SCORE.INTRA.SOLV.lig_0>
-59.6513

>  <SCORE.INTRA.VDW>
0.551971

>  <SCORE.INTRA.VDW.0>
-0.569808

>  <SCORE.INTRA.norm>
-0.058025

>  <SCORE.RESTR>
0

>  <SCORE.RESTR.CAVITY>
0

>  <SCORE.RESTR.norm>
0

>  <SCORE.SYSTEM>
0

>  <SCORE.SYSTEM.CONST>
0

>  <SCORE.SYSTEM.DIHEDRAL>
0

>  <SCORE.SYSTEM.SOLV>
0

>  <SCORE.SYSTEM.norm>
0

>  <SCORE.heavy>
12

>  <SCORE.norm>
-1.10723

>  <RMSD>
2.941

$$$$
ligand
 OpenBabel11021811503D
libRbt.so/2013.1/901 2013/11/27
 12 12  0  0  0  0  0  0  0  0999 V2000
   10.5633   13.4591  148.0461 C   0  0  0  0  0  0  0  0  0  0  0  0
   12.5534    8.8673  145.7393 C   0  0  0  0  0  0  0  0  0  0  0  0
    9.8506   10.9980  148.9336 N   0  0  0  0  0  0  0  0  0  0  0  0
   10.5738   14.6068  147.1269 N   0  0  0  0  0  0  0  0  0  0  0  0
   10.4281   15.6211  147.5881 N   0  0  0  0  0  0  0  0  0  0  0  0
   10.2829   16.6365  148.0423 N   0  0  0  0  0  0  0  0  0  0  0  0
   12.4230   11.2149  145.8299 N   0  0  0  0  0  0  0  0  0  0  0  0
   12.0511   10.0239  146.3230 C   0  0  0  0  0  0  0  0  0  0  0  0
   11.1475    9.9432  147.3101 N   0  0  0  0  0  0  0  0  0  0  0  0
   10.5958   11.0464  147.8334 C   0  0  0  0  0  0  0  0  0  0  0  0
   10.9380   12.3094  147.3611 C   0  0  0  0  0  0  0  0  0  0  0  0
   11.8656   12.3955  146.3323 C   0  0  0  0  0  0  0  0  0  0  0  0
  1 11  1  0  0  0  0
  1  4  1  0  0  0  0
  2  8  1  0  0  0  0
  3 10  1  0  0  0  0
  4  5  1  0  0  0  0
  5  6  1  0  0  0  0
  7  8  2  0  0  0  0
  7 12  1  0  0  0  0
  8  9  1  0  0  0  0
  9 10  2  0  0  0  0
 10 11  1  0  0  0  0
 11 12  2  0  0  0  0
M  END
>  <CHROM.1>
-158.28587517,-171.75360530,-176.53079562,11.10255415,12.27912172,147.20831507
1.98127483,0.88835341,-0.10123027

>  <Name>
ligand

>  <RI>
0

>  <Rbt.Current_Directory>
/home/itssahil/PROJECTS/Mol_Feturizer/New_Systems/rnas/4NYA

>  <Rbt.Executable>
rbdock ($Id: //depot/dev/client3/rdock/2013.1/src/exe/rbdock.cxx#4 $)

>  <Rbt.Library>
libRbt.so (2013.1, Build901 2013/11/27)

>  <Rbt.Parameter_File>
/export/apps/rDock/src/rDock_2013.1_src/data/scripts/dock_solv.prm

>  <Rbt.Receptor>
prm/pocket_docking_8.prm

>  <SCORE>
-13.2743

>  <SCORE.INTER>
-12.5604

>  <SCORE.INTER.CONST>
1

>  <SCORE.INTER.POLAR>
0

>  <SCORE.INTER.ROT>
3

>  <SCORE.INTER.SOLV>
14.1032

>  <SCORE.INTER.VDW>
-18.6746

>  <SCORE.INTER.norm>
-1.0467

>  <SCORE.INTRA>
-0.713973

>  <SCORE.INTRA.DIHEDRAL>
-0.908588

>  <SCORE.INTRA.DIHEDRAL.0>
2.1382

>  <SCORE.INTRA.POLAR>
0

>  <SCORE.INTRA.POLAR.0>
0

>  <SCORE.INTRA.REPUL>
0

>  <SCORE.INTRA.REPUL.0>
0

>  <SCORE.INTRA.SOLV>
-1.52166

>  <SCORE.INTRA.SOLV.lig_0>
-59.6513

>  <SCORE.INTRA.VDW>
0.501153

>  <SCORE.INTRA.VDW.0>
-0.569808

>  <SCORE.INTRA.norm>
-0.0594978

>  <SCORE.RESTR>
0

>  <SCORE.RESTR.CAVITY>
0

>  <SCORE.RESTR.norm>
0

>  <SCORE.SYSTEM>
0

>  <SCORE.SYSTEM.CONST>
0

>  <SCORE.SYSTEM.DIHEDRAL>
0

>  <SCORE.SYSTEM.SOLV>
0

>  <SCORE.SYSTEM.norm>
0

>  <SCORE.heavy>
12

>  <SCORE.norm>
-1.10619

>  <RMSD>
2.941

$$$$
ligand
 OpenBabel11021811503D
libRbt.so/2013.1/901 2013/11/27
 12 12  0  0  0  0  0  0  0  0999 V2000
   10.2118   14.9769  147.8671 C   0  0  0  0  0  0  0  0  0  0  0  0
   12.1001   10.0907  146.1566 C   0  0  0  0  0  0  0  0  0  0  0  0
    9.4451   12.6619  149.0529 N   0  0  0  0  0  0  0  0  0  0  0  0
   11.1261   15.3137  148.9684 N   0  0  0  0  0  0  0  0  0  0  0  0
   11.0458   16.3531  149.3878 N   0  0  0  0  0  0  0  0  0  0  0  0
   10.9609   17.3886  149.8107 N   0  0  0  0  0  0  0  0  0  0  0  0
   12.0215   12.4335  145.9532 N   0  0  0  0  0  0  0  0  0  0  0  0
   11.6234   11.3217  146.5901 C   0  0  0  0  0  0  0  0  0  0  0  0
   10.7184   11.3847  147.5771 N   0  0  0  0  0  0  0  0  0  0  0  0
   10.1911   12.5563  147.9572 C   0  0  0  0  0  0  0  0  0  0  0  0
   10.5610   13.7427  147.3319 C   0  0  0  0  0  0  0  0  0  0  0  0
   11.4902   13.6794  146.3029 C   0  0  0  0  0  0  0  0  0  0  0  0
  1 11  1  0  0  0  0
  1  4  1  0  0  0  0
  2  8  1  0  0  0  0
  3 10  1  0  0  0  0
  4  5  1  0  0  0  0
  5  6  1  0  0  0  0
  7  8  2  0  0  0  0
  7 12  1  0  0  0  0
  8  9  1  0  0  0  0
  9 10  2  0  0  0  0
 10 11  1  0  0  0  0
 11 12  2  0  0  0  0
M  END
>  <CHROM.1>
79.30661763,171.34133872,87.21329802,10.96471181,13.50345480,147.77091131
-1.75795452,-0.84282495,-2.79309789

>  <Name>
ligand

>  <RI>
0

>  <Rbt.Current_Directory>
/home/itssahil/PROJECTS/Mol_Feturizer/New_Systems/rnas/4NYA

>  <Rbt.Executable>
rbdock ($Id: //depot/dev/client3/rdock/2013.1/src/exe/rbdock.cxx#4 $)

>  <Rbt.Library>
libRbt.so (2013.1, Build901 2013/11/27)

>  <Rbt.Parameter_File>
/export/apps/rDock/src/rDock_2013.1_src/data/scripts/dock_solv.prm

>  <Rbt.Receptor>
prm/pocket_docking_5.prm

>  <SCORE>
-11.8583

>  <SCORE.INTER>
-11.5184

>  <SCORE.INTER.CONST>
1

>  <SCORE.INTER.POLAR>
0

>  <SCORE.INTER.ROT>
3

>  <SCORE.INTER.SOLV>
8.75794

>  <SCORE.INTER.VDW>
-16.1983

>  <SCORE.INTER.norm>
-0.959868

>  <SCORE.INTRA>
-0.339848

>  <SCORE.INTRA.DIHEDRAL>
-0.723419

>  <SCORE.INTRA.DIHEDRAL.0>
2.1382

>  <SCORE.INTRA.POLAR>
0

>  <SCORE.INTRA.POLAR.0>
0

>  <SCORE.INTRA.REPUL>
0

>  <SCORE.INTRA.REPUL.0>
0

>  <SCORE.INTRA.SOLV>
0.230916

>  <SCORE.INTRA.SOLV.lig_0>
-59.6513

>  <SCORE.INTRA.VDW>
-0.0935963

>  <SCORE.INTRA.VDW.0>
-0.569808

>  <SCORE.INTRA.norm>
-0.0283207

>  <SCORE.RESTR>
0

>  <SCORE.RESTR.CAVITY>
0

>  <SCORE.RESTR.norm>
0

>  <SCORE.SYSTEM>
0

>  <SCORE.SYSTEM.CONST>
0

>  <SCORE.SYSTEM.DIHEDRAL>
0

>  <SCORE.SYSTEM.SOLV>
0

>  <SCORE.SYSTEM.norm>
0

>  <SCORE.heavy>
12

>  <SCORE.norm>
-0.988189

>  <RMSD>
2.942

$$$$
ligand
 OpenBabel11021811503D
libRbt.so/2013.1/901 2013/11/27
 12 12  0  0  0  0  0  0  0  0999 V2000
   10.5391   13.4821  148.0602 C   0  0  0  0  0  0  0  0  0  0  0  0
   12.5314    8.8769  145.7820 C   0  0  0  0  0  0  0  0  0  0  0  0
    9.8353   11.0263  148.9695 N   0  0  0  0  0  0  0  0  0  0  0  0
   10.5909   14.6310  147.1439 N   0  0  0  0  0  0  0  0  0  0  0  0
   10.4498   15.6467  147.6034 N   0  0  0  0  0  0  0  0  0  0  0  0
   10.3095   16.6635  148.0559 N   0  0  0  0  0  0  0  0  0  0  0  0
   12.3959   11.2249  145.8548 N   0  0  0  0  0  0  0  0  0  0  0  0
   12.0285   10.0369  146.3585 C   0  0  0  0  0  0  0  0  0  0  0  0
   11.1287    9.9619  147.3495 N   0  0  0  0  0  0  0  0  0  0  0  0
   10.5764   11.0678  147.8662 C   0  0  0  0  0  0  0  0  0  0  0  0
   10.9140   12.3279  147.3828 C   0  0  0  0  0  0  0  0  0  0  0  0
   11.8376   12.4081  146.3500 C   0  0  0  0  0  0  0  0  0  0  0  0
  1 11  1  0  0  0  0
  1  4  1  0  0  0  0
  2  8  1  0  0  0  0
  3 10  1  0  0  0  0
  4  5  1  0  0  0  0
  5  6  1  0  0  0  0
  7  8  2  0  0  0  0
  7 12  1  0  0  0  0
  8  9  1  0  0  0  0
  9 10  2  0  0  0  0
 10 11  1  0  0  0  0
 11 12  2  0  0  0  0
M  END
>  <CHROM.1>
-160.33568725,-171.69477887,-178.88540873,11.09176437,12.29852428,147.23423619
1.97085737,0.89058103,-0.09777791

>  <Name>
ligand

>  <RI>
0

>  <Rbt.Current_Directory>
/home/itssahil/PROJECTS/Mol_Feturizer/New_Systems/rnas/4NYA

>  <Rbt.Executable>
rbdock ($Id: //depot/dev/client3/rdock/2013.1/src/exe/rbdock.cxx#4 $)

>  <Rbt.Library>
libRbt.so (2013.1, Build901 2013/11/27)

>  <Rbt.Parameter_File>
/export/apps/rDock/src/rDock_2013.1_src/data/scripts/dock_solv.prm

>  <Rbt.Receptor>
prm/pocket_docking_8.prm

>  <SCORE>
-13.2773

>  <SCORE.INTER>
-12.6011

>  <SCORE.INTER.CONST>
1

>  <SCORE.INTER.POLAR>
0

>  <SCORE.INTER.ROT>
3

>  <SCORE.INTER.SOLV>
13.9213

>  <SCORE.INTER.VDW>
-18.6411

>  <SCORE.INTER.norm>
-1.05009

>  <SCORE.INTRA>
-0.676209

>  <SCORE.INTRA.DIHEDRAL>
-0.901057

>  <SCORE.INTRA.DIHEDRAL.0>
2.1382

>  <SCORE.INTRA.POLAR>
0

>  <SCORE.INTRA.POLAR.0>
0

>  <SCORE.INTRA.REPUL>
0

>  <SCORE.INTRA.REPUL.0>
0

>  <SCORE.INTRA.SOLV>
-1.53051

>  <SCORE.INTRA.SOLV.lig_0>
-59.6513

>  <SCORE.INTRA.VDW>
0.539577

>  <SCORE.INTRA.VDW.0>
-0.569808

>  <SCORE.INTRA.norm>
-0.0563507

>  <SCORE.RESTR>
0

>  <SCORE.RESTR.CAVITY>
0

>  <SCORE.RESTR.norm>
0

>  <SCORE.SYSTEM>
0

>  <SCORE.SYSTEM.CONST>
0

>  <SCORE.SYSTEM.DIHEDRAL>
0

>  <SCORE.SYSTEM.SOLV>
0

>  <SCORE.SYSTEM.norm>
0

>  <SCORE.heavy>
12

>  <SCORE.norm>
-1.10644

>  <RMSD>
2.942

$$$$
ligand
 OpenBabel11021811503D
libRbt.so/2013.1/901 2013/11/27
 12 12  0  0  0  0  0  0  0  0999 V2000
   10.5507   13.5395  148.0610 C   0  0  0  0  0  0  0  0  0  0  0  0
   12.5139    8.9379  145.7508 C   0  0  0  0  0  0  0  0  0  0  0  0
    9.8946   11.0833  149.0042 N   0  0  0  0  0  0  0  0  0  0  0  0
   10.6027   14.6897  147.1463 N   0  0  0  0  0  0  0  0  0  0  0  0
   10.3915   15.6981  147.5948 N   0  0  0  0  0  0  0  0  0  0  0  0
   10.1753   16.7022  148.0459 N   0  0  0  0  0  0  0  0  0  0  0  0
   12.3609   11.2850  145.8144 N   0  0  0  0  0  0  0  0  0  0  0  0
   12.0184   10.0969  146.3353 C   0  0  0  0  0  0  0  0  0  0  0  0
   11.1488   10.0202  147.3528 N   0  0  0  0  0  0  0  0  0  0  0  0
   10.6026   11.1245  147.8793 C   0  0  0  0  0  0  0  0  0  0  0  0
   10.9152   12.3846  147.3792 C   0  0  0  0  0  0  0  0  0  0  0  0
   11.8074   12.4664  146.3193 C   0  0  0  0  0  0  0  0  0  0  0  0
  1 11  1  0  0  0  0
  1  4  1  0  0  0  0
  2  8  1  0  0  0  0
  3 10  1  0  0  0  0
  4  5  1  0  0  0  0
  5  6  1  0  0  0  0
  7  8  2  0  0  0  0
  7 12  1  0  0  0  0
  8  9  1  0  0  0  0
  9 10  2  0  0  0  0
 10 11  1  0  0  0  0
 11 12  2  0  0  0  0
M  END
>  <CHROM.1>
-161.92728901,-176.24503739,-45.30128267,11.07830688,12.35467434,147.22646131
2.00489176,0.91879866,-0.12971887

>  <Name>
ligand

>  <RI>
0

>  <Rbt.Current_Directory>
/home/itssahil/PROJECTS/Mol_Feturizer/New_Systems/rnas/4NYA

>  <Rbt.Executable>
rbdock ($Id: //depot/dev/client3/rdock/2013.1/src/exe/rbdock.cxx#4 $)

>  <Rbt.Library>
libRbt.so (2013.1, Build901 2013/11/27)

>  <Rbt.Parameter_File>
/export/apps/rDock/src/rDock_2013.1_src/data/scripts/dock_solv.prm

>  <Rbt.Receptor>
prm/pocket_docking_5.prm

>  <SCORE>
-13.1951

>  <SCORE.INTER>
-12.5424

>  <SCORE.INTER.CONST>
1

>  <SCORE.INTER.POLAR>
0

>  <SCORE.INTER.ROT>
3

>  <SCORE.INTER.SOLV>
14.1869

>  <SCORE.INTER.VDW>
-18.6906

>  <SCORE.INTER.norm>
-1.0452

>  <SCORE.INTRA>
-0.652729

>  <SCORE.INTRA.DIHEDRAL>
-0.87781

>  <SCORE.INTRA.DIHEDRAL.0>
2.1382

>  <SCORE.INTRA.POLAR>
0

>  <SCORE.INTRA.POLAR.0>
0

>  <SCORE.INTRA.REPUL>
0

>  <SCORE.INTRA.REPUL.0>
0

>  <SCORE.INTRA.SOLV>
-1.54125

>  <SCORE.INTRA.SOLV.lig_0>
-59.6513

>  <SCORE.INTRA.VDW>
0.5568

>  <SCORE.INTRA.VDW.0>
-0.569808

>  <SCORE.INTRA.norm>
-0.054394

>  <SCORE.RESTR>
0

>  <SCORE.RESTR.CAVITY>
0

>  <SCORE.RESTR.norm>
0

>  <SCORE.SYSTEM>
0

>  <SCORE.SYSTEM.CONST>
0

>  <SCORE.SYSTEM.DIHEDRAL>
0

>  <SCORE.SYSTEM.SOLV>
0

>  <SCORE.SYSTEM.norm>
0

>  <SCORE.heavy>
12

>  <SCORE.norm>
-1.09959

>  <RMSD>
2.943

$$$$
ligand
 OpenBabel11021811503D
libRbt.so/2013.1/901 2013/11/27
 12 12  0  0  0  0  0  0  0  0999 V2000
   10.6163   13.4194  148.0035 C   0  0  0  0  0  0  0  0  0  0  0  0
   12.6122    8.8223  145.7123 C   0  0  0  0  0  0  0  0  0  0  0  0
    9.8236   10.9604  148.8268 N   0  0  0  0  0  0  0  0  0  0  0  0
   10.7347   14.5866  147.1169 N   0  0  0  0  0  0  0  0  0  0  0  0
   10.4563   15.5822  147.5574 N   0  0  0  0  0  0  0  0  0  0  0  0
   10.1722   16.5736  147.9987 N   0  0  0  0  0  0  0  0  0  0  0  0
   12.5215   11.1706  145.8310 N   0  0  0  0  0  0  0  0  0  0  0  0
   12.1083    9.9802  146.2920 C   0  0  0  0  0  0  0  0  0  0  0  0
   11.1647    9.9033  147.2412 N   0  0  0  0  0  0  0  0  0  0  0  0
   10.6129   11.0095  147.7578 C   0  0  0  0  0  0  0  0  0  0  0  0
   10.9969   12.2722  147.3175 C   0  0  0  0  0  0  0  0  0  0  0  0
   11.9663   12.3546  146.3277 C   0  0  0  0  0  0  0  0  0  0  0  0
  1 11  1  0  0  0  0
  1  4  1  0  0  0  0
  2  8  1  0  0  0  0
  3 10  1  0  0  0  0
  4  5  1  0  0  0  0
  5  6  1  0  0  0  0
  7  8  2  0  0  0  0
  7 12  1  0  0  0  0
  8  9  1  0  0  0  0
  9 10  2  0  0  0  0
 10 11  1  0  0  0  0
 11 12  2  0  0  0  0
M  END
>  <CHROM.1>
-160.47436190,-179.86946547,-55.20764418,11.14460367,12.23844978,147.16804538
1.97601376,0.85026713,-0.08497331

>  <Name>
ligand

>  <RI>
0

>  <Rbt.Current_Directory>
/home/itssahil/PROJECTS/Mol_Feturizer/New_Systems/rnas/4NYA

>  <Rbt.Executable>
rbdock ($Id: //depot/dev/client3/rdock/2013.1/src/exe/rbdock.cxx#4 $)

>  <Rbt.Library>
libRbt.so (2013.1, Build901 2013/11/27)

>  <Rbt.Parameter_File>
/export/apps/rDock/src/rDock_2013.1_src/data/scripts/dock_solv.prm

>  <Rbt.Receptor>
prm/pocket_docking_4.prm

>  <SCORE>
-13.2557

>  <SCORE.INTER>
-12.5738

>  <SCORE.INTER.CONST>
1

>  <SCORE.INTER.POLAR>
0

>  <SCORE.INTER.ROT>
3

>  <SCORE.INTER.SOLV>
14.5316

>  <SCORE.INTER.VDW>
-18.8264

>  <SCORE.INTER.norm>
-1.04782

>  <SCORE.INTRA>
-0.681848

>  <SCORE.INTRA.DIHEDRAL>
-0.950097

>  <SCORE.INTRA.DIHEDRAL.0>
2.1382

>  <SCORE.INTRA.POLAR>
0

>  <SCORE.INTRA.POLAR.0>
0

>  <SCORE.INTRA.REPUL>
0

>  <SCORE.INTRA.REPUL.0>
0

>  <SCORE.INTRA.SOLV>
-1.54182

>  <SCORE.INTRA.SOLV.lig_0>
-59.6513

>  <SCORE.INTRA.VDW>
0.56411

>  <SCORE.INTRA.VDW.0>
-0.569808

>  <SCORE.INTRA.norm>
-0.0568207

>  <SCORE.RESTR>
0

>  <SCORE.RESTR.CAVITY>
0

>  <SCORE.RESTR.norm>
0

>  <SCORE.SYSTEM>
0

>  <SCORE.SYSTEM.CONST>
0

>  <SCORE.SYSTEM.DIHEDRAL>
0

>  <SCORE.SYSTEM.SOLV>
0

>  <SCORE.SYSTEM.norm>
0

>  <SCORE.heavy>
12

>  <SCORE.norm>
-1.10464

>  <RMSD>
2.944

$$$$
ligand
 OpenBabel11021811503D
libRbt.so/2013.1/901 2013/11/27
 12 12  0  0  0  0  0  0  0  0999 V2000
   10.5419   13.4880  148.0439 C   0  0  0  0  0  0  0  0  0  0  0  0
   12.5435    8.8801  145.7796 C   0  0  0  0  0  0  0  0  0  0  0  0
    9.8476   11.0337  148.9644 N   0  0  0  0  0  0  0  0  0  0  0  0
   10.6300   14.6403  147.1345 N   0  0  0  0  0  0  0  0  0  0  0  0
   10.4423   15.6520  147.5861 N   0  0  0  0  0  0  0  0  0  0  0  0
   10.2487   16.6600  148.0387 N   0  0  0  0  0  0  0  0  0  0  0  0
   12.4010   11.2279  145.8434 N   0  0  0  0  0  0  0  0  0  0  0  0
   12.0383   10.0407  146.3526 C   0  0  0  0  0  0  0  0  0  0  0  0
   11.1409    9.9669  147.3458 N   0  0  0  0  0  0  0  0  0  0  0  0
   10.5862   11.0731  147.8593 C   0  0  0  0  0  0  0  0  0  0  0  0
   10.9189   12.3323  147.3702 C   0  0  0  0  0  0  0  0  0  0  0  0
   11.8401   12.4112  146.3351 C   0  0  0  0  0  0  0  0  0  0  0  0
  1 11  1  0  0  0  0
  1  4  1  0  0  0  0
  2  8  1  0  0  0  0
  3 10  1  0  0  0  0
  4  5  1  0  0  0  0
  5  6  1  0  0  0  0
  7  8  2  0  0  0  0
  7 12  1  0  0  0  0
  8  9  1  0  0  0  0
  9 10  2  0  0  0  0
 10 11  1  0  0  0  0
 11 12  2  0  0  0  0
M  END
>  <CHROM.1>
-162.15183044,-174.48524999,-60.16856576,11.09516942,12.30288710,147.22401573
1.97995942,0.89204503,-0.10695630

>  <Name>
ligand

>  <RI>
0

>  <Rbt.Current_Directory>
/home/itssahil/PROJECTS/Mol_Feturizer/New_Systems/rnas/4NYA

>  <Rbt.Executable>
rbdock ($Id: //depot/dev/client3/rdock/2013.1/src/exe/rbdock.cxx#4 $)

>  <Rbt.Library>
libRbt.so (2013.1, Build901 2013/11/27)

>  <Rbt.Parameter_File>
/export/apps/rDock/src/rDock_2013.1_src/data/scripts/dock_solv.prm

>  <Rbt.Receptor>
prm/pocket_docking_5.prm

>  <SCORE>
-13.2683

>  <SCORE.INTER>
-12.5992

>  <SCORE.INTER.CONST>
1

>  <SCORE.INTER.POLAR>
0

>  <SCORE.INTER.ROT>
3

>  <SCORE.INTER.SOLV>
14.0793

>  <SCORE.INTER.VDW>
-18.6926

>  <SCORE.INTER.norm>
-1.04994

>  <SCORE.INTRA>
-0.669075

>  <SCORE.INTRA.DIHEDRAL>
-0.918989

>  <SCORE.INTRA.DIHEDRAL.0>
2.1382

>  <SCORE.INTRA.POLAR>
0

>  <SCORE.INTRA.POLAR.0>
0

>  <SCORE.INTRA.REPUL>
0

>  <SCORE.INTRA.REPUL.0>
0

>  <SCORE.INTRA.SOLV>
-1.53936

>  <SCORE.INTRA.SOLV.lig_0>
-59.6513

>  <SCORE.INTRA.VDW>
0.560099

>  <SCORE.INTRA.VDW.0>
-0.569808

>  <SCORE.INTRA.norm>
-0.0557563

>  <SCORE.RESTR>
0

>  <SCORE.RESTR.CAVITY>
0

>  <SCORE.RESTR.norm>
0

>  <SCORE.SYSTEM>
0

>  <SCORE.SYSTEM.CONST>
0

>  <SCORE.SYSTEM.DIHEDRAL>
0

>  <SCORE.SYSTEM.SOLV>
0

>  <SCORE.SYSTEM.norm>
0

>  <SCORE.heavy>
12

>  <SCORE.norm>
-1.10569

>  <RMSD>
2.944

$$$$
ligand
 OpenBabel11021811503D
libRbt.so/2013.1/901 2013/11/27
 12 12  0  0  0  0  0  0  0  0999 V2000
   10.5474   13.4878  148.0490 C   0  0  0  0  0  0  0  0  0  0  0  0
   12.5486    8.8836  145.7766 C   0  0  0  0  0  0  0  0  0  0  0  0
    9.8528   11.0319  148.9651 N   0  0  0  0  0  0  0  0  0  0  0  0
   10.6314   14.6409  147.1405 N   0  0  0  0  0  0  0  0  0  0  0  0
   10.4571   15.6532  147.5963 N   0  0  0  0  0  0  0  0  0  0  0  0
   10.2884   16.6627  148.0554 N   0  0  0  0  0  0  0  0  0  0  0  0
   12.4063   11.2313  145.8446 N   0  0  0  0  0  0  0  0  0  0  0  0
   12.0435   10.0433  146.3516 C   0  0  0  0  0  0  0  0  0  0  0  0
   11.1460    9.9678  147.3447 N   0  0  0  0  0  0  0  0  0  0  0  0
   10.5914   11.0732  147.8601 C   0  0  0  0  0  0  0  0  0  0  0  0
   10.9243   12.3332  147.3733 C   0  0  0  0  0  0  0  0  0  0  0  0
   11.8455   12.4139  146.3384 C   0  0  0  0  0  0  0  0  0  0  0  0
  1 11  1  0  0  0  0
  1  4  1  0  0  0  0
  2  8  1  0  0  0  0
  3 10  1  0  0  0  0
  4  5  1  0  0  0  0
  5  6  1  0  0  0  0
  7  8  2  0  0  0  0
  7 12  1  0  0  0  0
  8  9  1  0  0  0  0
  9 10  2  0  0  0  0
 10 11  1  0  0  0  0
 11 12  2  0  0  0  0
M  END
>  <CHROM.1>
-161.96603243,-173.68741639,60.42734907,11.10390318,12.30427543,147.22758134
1.97535186,0.89195968,-0.10118339

>  <Name>
ligand

>  <RI>
0

>  <Rbt.Current_Directory>
/home/itssahil/PROJECTS/Mol_Feturizer/New_Systems/rnas/4NYA

>  <Rbt.Executable>
rbdock ($Id: //depot/dev/client3/rdock/2013.1/src/exe/rbdock.cxx#4 $)

>  <Rbt.Library>
libRbt.so (2013.1, Build901 2013/11/27)

>  <Rbt.Parameter_File>
/export/apps/rDock/src/rDock_2013.1_src/data/scripts/dock_solv.prm

>  <Rbt.Receptor>
prm/pocket_docking_5.prm

>  <SCORE>
-13.2794

>  <SCORE.INTER>
-12.6106

>  <SCORE.INTER.CONST>
1

>  <SCORE.INTER.POLAR>
0

>  <SCORE.INTER.ROT>
3

>  <SCORE.INTER.SOLV>
13.9721

>  <SCORE.INTER.VDW>
-18.6644

>  <SCORE.INTER.norm>
-1.05088

>  <SCORE.INTRA>
-0.668864

>  <SCORE.INTRA.DIHEDRAL>
-0.912885

>  <SCORE.INTRA.DIHEDRAL.0>
2.1382

>  <SCORE.INTRA.POLAR>
0

>  <SCORE.INTRA.POLAR.0>
0

>  <SCORE.INTRA.REPUL>
0

>  <SCORE.INTRA.REPUL.0>
0

>  <SCORE.INTRA.SOLV>
-1.53708

>  <SCORE.INTRA.SOLV.lig_0>
-59.6513

>  <SCORE.INTRA.VDW>
0.556116

>  <SCORE.INTRA.VDW.0>
-0.569808

>  <SCORE.INTRA.norm>
-0.0557387

>  <SCORE.RESTR>
0

>  <SCORE.RESTR.CAVITY>
0

>  <SCORE.RESTR.norm>
0

>  <SCORE.SYSTEM>
0

>  <SCORE.SYSTEM.CONST>
0

>  <SCORE.SYSTEM.DIHEDRAL>
0

>  <SCORE.SYSTEM.SOLV>
0

>  <SCORE.SYSTEM.norm>
0

>  <SCORE.heavy>
12

>  <SCORE.norm>
-1.10662

>  <RMSD>
2.944

$$$$
ligand
 OpenBabel11021811503D
libRbt.so/2013.1/901 2013/11/27
 12 12  0  0  0  0  0  0  0  0999 V2000
   10.1429   14.9220  148.0088 C   0  0  0  0  0  0  0  0  0  0  0  0
   12.1645   10.1604  146.1096 C   0  0  0  0  0  0  0  0  0  0  0  0
    9.5485   12.5537  149.1882 N   0  0  0  0  0  0  0  0  0  0  0  0
   11.1355   15.3190  149.0184 N   0  0  0  0  0  0  0  0  0  0  0  0
   11.0436   16.3602  149.4310 N   0  0  0  0  0  0  0  0  0  0  0  0
   10.9526   17.4021  149.8366 N   0  0  0  0  0  0  0  0  0  0  0  0
   11.9660   12.5000  145.9554 N   0  0  0  0  0  0  0  0  0  0  0  0
   11.6543   11.3600  146.5907 C   0  0  0  0  0  0  0  0  0  0  0  0
   10.8006   11.3633  147.6243 N   0  0  0  0  0  0  0  0  0  0  0  0
   10.2399   12.5020  148.0535 C   0  0  0  0  0  0  0  0  0  0  0  0
   10.5207   13.7150  147.4327 C   0  0  0  0  0  0  0  0  0  0  0  0
   11.3964   13.7132  146.3560 C   0  0  0  0  0  0  0  0  0  0  0  0
  1 11  1  0  0  0  0
  1  4  1  0  0  0  0
  2  8  1  0  0  0  0
  3 10  1  0  0  0  0
  4  5  1  0  0  0  0
  5  6  1  0  0  0  0
  7  8  2  0  0  0  0
  7 12  1  0  0  0  0
  8  9  1  0  0  0  0
  9 10  2  0  0  0  0
 10 11  1  0  0  0  0
 11 12  2  0  0  0  0
M  END
>  <CHROM.1>
82.27122812,169.71836627,-59.14998563,10.97189217,13.50120904,147.82397051
-1.77851171,-0.89236560,-2.80676911

>  <Name>
ligand

>  <RI>
0

>  <Rbt.Current_Directory>
/home/itssahil/PROJECTS/Mol_Feturizer/New_Systems/rnas/4NYA

>  <Rbt.Executable>
rbdock ($Id: //depot/dev/client3/rdock/2013.1/src/exe/rbdock.cxx#4 $)

>  <Rbt.Library>
libRbt.so (2013.1, Build901 2013/11/27)

>  <Rbt.Parameter_File>
/export/apps/rDock/src/rDock_2013.1_src/data/scripts/dock_solv.prm

>  <Rbt.Receptor>
prm/pocket_docking_6.prm

>  <SCORE>
-12.0313

>  <SCORE.INTER>
-11.5381

>  <SCORE.INTER.CONST>
1

>  <SCORE.INTER.POLAR>
0

>  <SCORE.INTER.ROT>
3

>  <SCORE.INTER.SOLV>
8.40163

>  <SCORE.INTER.VDW>
-16.0926

>  <SCORE.INTER.norm>
-0.961509

>  <SCORE.INTRA>
-0.49318

>  <SCORE.INTRA.DIHEDRAL>
-0.883511

>  <SCORE.INTRA.DIHEDRAL.0>
2.1382

>  <SCORE.INTRA.POLAR>
0

>  <SCORE.INTRA.POLAR.0>
0

>  <SCORE.INTRA.REPUL>
0

>  <SCORE.INTRA.REPUL.0>
0

>  <SCORE.INTRA.SOLV>
0.0786778

>  <SCORE.INTRA.SOLV.lig_0>
-59.6513

>  <SCORE.INTRA.VDW>
-0.0907629

>  <SCORE.INTRA.VDW.0>
-0.569808

>  <SCORE.INTRA.norm>
-0.0410983

>  <SCORE.RESTR>
0

>  <SCORE.RESTR.CAVITY>
0

>  <SCORE.RESTR.norm>
0

>  <SCORE.SYSTEM>
0

>  <SCORE.SYSTEM.CONST>
0

>  <SCORE.SYSTEM.DIHEDRAL>
0

>  <SCORE.SYSTEM.SOLV>
0

>  <SCORE.SYSTEM.norm>
0

>  <SCORE.heavy>
12

>  <SCORE.norm>
-1.00261

>  <RMSD>
2.944

$$$$
ligand
 OpenBabel11021811503D
libRbt.so/2013.1/901 2013/11/27
 12 12  0  0  0  0  0  0  0  0999 V2000
   10.4481   13.6742  148.0089 C   0  0  0  0  0  0  0  0  0  0  0  0
   12.5148    9.0349  145.8707 C   0  0  0  0  0  0  0  0  0  0  0  0
    9.8213   11.2386  149.0230 N   0  0  0  0  0  0  0  0  0  0  0  0
   11.1066   14.8269  147.3766 N   0  0  0  0  0  0  0  0  0  0  0  0
   11.0611   15.8004  147.9359 N   0  0  0  0  0  0  0  0  0  0  0  0
   11.0187   16.7754  148.4891 N   0  0  0  0  0  0  0  0  0  0  0  0
   12.3223   11.3799  145.8570 N   0  0  0  0  0  0  0  0  0  0  0  0
   11.9932   10.2035  146.4119 C   0  0  0  0  0  0  0  0  0  0  0  0
   11.1128   10.1447  147.4212 N   0  0  0  0  0  0  0  0  0  0  0  0
   10.5421   11.2558  147.9056 C   0  0  0  0  0  0  0  0  0  0  0  0
   10.8398   12.5043  147.3689 C   0  0  0  0  0  0  0  0  0  0  0  0
   11.7433   12.5673  146.3172 C   0  0  0  0  0  0  0  0  0  0  0  0
  1 11  1  0  0  0  0
  1  4  1  0  0  0  0
  2  8  1  0  0  0  0
  3 10  1  0  0  0  0
  4  5  1  0  0  0  0
  5  6  1  0  0  0  0
  7  8  2  0  0  0  0
  7 12  1  0  0  0  0
  8  9  1  0  0  0  0
  9 10  2  0  0  0  0
 10 11  1  0  0  0  0
 11 12  2  0  0  0  0
M  END
>  <CHROM.1>
169.11540844,-166.63759019,-174.28787640,11.21514582,12.46937275,147.33933636
1.80548618,0.86993987,0.07923010

>  <Name>
ligand

>  <RI>
0

>  <Rbt.Current_Directory>
/home/itssahil/PROJECTS/Mol_Feturizer/New_Systems/rnas/4NYA

>  <Rbt.Executable>
rbdock ($Id: //depot/dev/client3/rdock/2013.1/src/exe/rbdock.cxx#4 $)

>  <Rbt.Library>
libRbt.so (2013.1, Build901 2013/11/27)

>  <Rbt.Parameter_File>
/export/apps/rDock/src/rDock_2013.1_src/data/scripts/dock_solv.prm

>  <Rbt.Receptor>
prm/pocket_docking_6.prm

>  <SCORE>
-12.9105

>  <SCORE.INTER>
-12.9918

>  <SCORE.INTER.CONST>
1

>  <SCORE.INTER.POLAR>
0

>  <SCORE.INTER.ROT>
3

>  <SCORE.INTER.SOLV>
12.3917

>  <SCORE.INTER.VDW>
-18.3918

>  <SCORE.INTER.norm>
-1.08265

>  <SCORE.INTRA>
0.0812721

>  <SCORE.INTRA.DIHEDRAL>
-0.176653

>  <SCORE.INTRA.DIHEDRAL.0>
2.1382

>  <SCORE.INTRA.POLAR>
0

>  <SCORE.INTRA.POLAR.0>
0

>  <SCORE.INTRA.REPUL>
0

>  <SCORE.INTRA.REPUL.0>
0

>  <SCORE.INTRA.SOLV>
-1.51876

>  <SCORE.INTRA.SOLV.lig_0>
-59.6513

>  <SCORE.INTRA.VDW>
0.92898

>  <SCORE.INTRA.VDW.0>
-0.569808

>  <SCORE.INTRA.norm>
0.00677267

>  <SCORE.RESTR>
0

>  <SCORE.RESTR.CAVITY>
0

>  <SCORE.RESTR.norm>
0

>  <SCORE.SYSTEM>
0

>  <SCORE.SYSTEM.CONST>
0

>  <SCORE.SYSTEM.DIHEDRAL>
0

>  <SCORE.SYSTEM.SOLV>
0

>  <SCORE.SYSTEM.norm>
0

>  <SCORE.heavy>
12

>  <SCORE.norm>
-1.07588

>  <RMSD>
2.944

$$$$
ligand
 OpenBabel11021811503D
libRbt.so/2013.1/901 2013/11/27
 12 12  0  0  0  0  0  0  0  0999 V2000
   10.6023   13.4062  147.9982 C   0  0  0  0  0  0  0  0  0  0  0  0
   12.6113    8.8093  145.7180 C   0  0  0  0  0  0  0  0  0  0  0  0
    9.8444   10.9467  148.8524 N   0  0  0  0  0  0  0  0  0  0  0  0
   10.6688   14.5624  147.0921 N   0  0  0  0  0  0  0  0  0  0  0  0
   10.4188   15.5638  147.5365 N   0  0  0  0  0  0  0  0  0  0  0  0
   10.1744   16.5628  147.9844 N   0  0  0  0  0  0  0  0  0  0  0  0
   12.4996   11.1575  145.8186 N   0  0  0  0  0  0  0  0  0  0  0  0
   12.1041    9.9671  146.2949 C   0  0  0  0  0  0  0  0  0  0  0  0
   11.1742    9.8892  147.2575 N   0  0  0  0  0  0  0  0  0  0  0  0
   10.6187   10.9944  147.7724 C   0  0  0  0  0  0  0  0  0  0  0  0
   10.9846   12.2569  147.3166 C   0  0  0  0  0  0  0  0  0  0  0  0
   11.9397   12.3402  146.3131 C   0  0  0  0  0  0  0  0  0  0  0  0
  1 11  1  0  0  0  0
  1  4  1  0  0  0  0
  2  8  1  0  0  0  0
  3 10  1  0  0  0  0
  4  5  1  0  0  0  0
  5  6  1  0  0  0  0
  7  8  2  0  0  0  0
  7 12  1  0  0  0  0
  8  9  1  0  0  0  0
  9 10  2  0  0  0  0
 10 11  1  0  0  0  0
 11 12  2  0  0  0  0
M  END
>  <CHROM.1>
-159.22397799,-177.79372189,61.17453816,11.13244082,12.22359683,147.16559350
1.98900255,0.86354450,-0.10289670

>  <Name>
ligand

>  <RI>
0

>  <Rbt.Current_Directory>
/home/itssahil/PROJECTS/Mol_Feturizer/New_Systems/rnas/4NYA

>  <Rbt.Executable>
rbdock ($Id: //depot/dev/client3/rdock/2013.1/src/exe/rbdock.cxx#4 $)

>  <Rbt.Library>
libRbt.so (2013.1, Build901 2013/11/27)

>  <Rbt.Parameter_File>
/export/apps/rDock/src/rDock_2013.1_src/data/scripts/dock_solv.prm

>  <Rbt.Receptor>
prm/pocket_docking_4.prm

>  <SCORE>
-13.2344

>  <SCORE.INTER>
-12.5109

>  <SCORE.INTER.CONST>
1

>  <SCORE.INTER.POLAR>
0

>  <SCORE.INTER.ROT>
3

>  <SCORE.INTER.SOLV>
14.5912

>  <SCORE.INTER.VDW>
-18.8043

>  <SCORE.INTER.norm>
-1.04258

>  <SCORE.INTRA>
-0.72346

>  <SCORE.INTRA.DIHEDRAL>
-0.958848

>  <SCORE.INTRA.DIHEDRAL.0>
2.1382

>  <SCORE.INTRA.POLAR>
0

>  <SCORE.INTRA.POLAR.0>
0

>  <SCORE.INTRA.REPUL>
0

>  <SCORE.INTRA.REPUL.0>
0

>  <SCORE.INTRA.SOLV>
-1.534

>  <SCORE.INTRA.SOLV.lig_0>
-59.6513

>  <SCORE.INTRA.VDW>
0.522966

>  <SCORE.INTRA.VDW.0>
-0.569808

>  <SCORE.INTRA.norm>
-0.0602884

>  <SCORE.RESTR>
0

>  <SCORE.RESTR.CAVITY>
0

>  <SCORE.RESTR.norm>
0

>  <SCORE.SYSTEM>
0

>  <SCORE.SYSTEM.CONST>
0

>  <SCORE.SYSTEM.DIHEDRAL>
0

>  <SCORE.SYSTEM.SOLV>
0

>  <SCORE.SYSTEM.norm>
0

>  <SCORE.heavy>
12

>  <SCORE.norm>
-1.10286

>  <RMSD>
2.946

$$$$
ligand
 OpenBabel11021811503D
libRbt.so/2013.1/901 2013/11/27
 12 12  0  0  0  0  0  0  0  0999 V2000
   10.6018   13.4051  147.9606 C   0  0  0  0  0  0  0  0  0  0  0  0
   12.5797    8.7982  145.6734 C   0  0  0  0  0  0  0  0  0  0  0  0
    9.6850   10.9554  148.6761 N   0  0  0  0  0  0  0  0  0  0  0  0
   10.7301   14.5784  147.0837 N   0  0  0  0  0  0  0  0  0  0  0  0
   10.4336   15.5691  147.5235 N   0  0  0  0  0  0  0  0  0  0  0  0
   10.1379   16.5608  147.9564 N   0  0  0  0  0  0  0  0  0  0  0  0
   12.5569   11.1448  145.8451 N   0  0  0  0  0  0  0  0  0  0  0  0
   12.0801    9.9585  146.2520 C   0  0  0  0  0  0  0  0  0  0  0  0
   11.0813    9.8912  147.1437 N   0  0  0  0  0  0  0  0  0  0  0  0
   10.5360   11.0029  147.6554 C   0  0  0  0  0  0  0  0  0  0  0  0
   10.9847   12.2619  147.2692 C   0  0  0  0  0  0  0  0  0  0  0  0
   12.0118   12.3348  146.3386 C   0  0  0  0  0  0  0  0  0  0  0  0
  1 11  1  0  0  0  0
  1  4  1  0  0  0  0
  2  8  1  0  0  0  0
  3 10  1  0  0  0  0
  4  5  1  0  0  0  0
  5  6  1  0  0  0  0
  7  8  2  0  0  0  0
  7 12  1  0  0  0  0
  8  9  1  0  0  0  0
  9 10  2  0  0  0  0
 10 11  1  0  0  0  0
 11 12  2  0  0  0  0
M  END
>  <CHROM.1>
-157.02172611,179.08122189,-169.34973419,11.11338902,12.22392760,147.11742082
1.94933072,0.79716778,-0.04760724

>  <Name>
ligand

>  <RI>
0

>  <Rbt.Current_Directory>
/home/itssahil/PROJECTS/Mol_Feturizer/New_Systems/rnas/4NYA

>  <Rbt.Executable>
rbdock ($Id: //depot/dev/client3/rdock/2013.1/src/exe/rbdock.cxx#4 $)

>  <Rbt.Library>
libRbt.so (2013.1, Build901 2013/11/27)

>  <Rbt.Parameter_File>
/export/apps/rDock/src/rDock_2013.1_src/data/scripts/dock_solv.prm

>  <Rbt.Receptor>
prm/pocket_docking_5.prm

>  <SCORE>
-13.248

>  <SCORE.INTER>
-12.5102

>  <SCORE.INTER.CONST>
1

>  <SCORE.INTER.POLAR>
0

>  <SCORE.INTER.ROT>
3

>  <SCORE.INTER.SOLV>
15.1099

>  <SCORE.INTER.VDW>
-18.9768

>  <SCORE.INTER.norm>
-1.04252

>  <SCORE.INTRA>
-0.737791

>  <SCORE.INTRA.DIHEDRAL>
-0.939023

>  <SCORE.INTRA.DIHEDRAL.0>
2.1382

>  <SCORE.INTRA.POLAR>
0

>  <SCORE.INTRA.POLAR.0>
0

>  <SCORE.INTRA.REPUL>
0

>  <SCORE.INTRA.REPUL.0>
0

>  <SCORE.INTRA.SOLV>
-1.53303

>  <SCORE.INTRA.SOLV.lig_0>
-59.6513

>  <SCORE.INTRA.VDW>
0.498233

>  <SCORE.INTRA.VDW.0>
-0.569808

>  <SCORE.INTRA.norm>
-0.0614826

>  <SCORE.RESTR>
0

>  <SCORE.RESTR.CAVITY>
0

>  <SCORE.RESTR.norm>
0

>  <SCORE.SYSTEM>
0

>  <SCORE.SYSTEM.CONST>
0

>  <SCORE.SYSTEM.DIHEDRAL>
0

>  <SCORE.SYSTEM.SOLV>
0

>  <SCORE.SYSTEM.norm>
0

>  <SCORE.heavy>
12

>  <SCORE.norm>
-1.104

>  <RMSD>
2.946

$$$$
ligand
 OpenBabel11021811503D
libRbt.so/2013.1/901 2013/11/27
 12 12  0  0  0  0  0  0  0  0999 V2000
   10.4165   13.6366  147.9143 C   0  0  0  0  0  0  0  0  0  0  0  0
   12.4887    8.9472  145.8937 C   0  0  0  0  0  0  0  0  0  0  0  0
    9.8752   11.2358  149.0530 N   0  0  0  0  0  0  0  0  0  0  0  0
   11.2425   14.7422  147.4069 N   0  0  0  0  0  0  0  0  0  0  0  0
   11.1074   15.7401  147.9056 N   0  0  0  0  0  0  0  0  0  0  0  0
   10.9658   16.7360  148.4021 N   0  0  0  0  0  0  0  0  0  0  0  0
   12.2510   11.2859  145.7894 N   0  0  0  0  0  0  0  0  0  0  0  0
   11.9658   10.1285  146.4054 C   0  0  0  0  0  0  0  0  0  0  0  0
   11.1256   10.0974  147.4496 N   0  0  0  0  0  0  0  0  0  0  0  0
   10.5525   11.2180  147.9088 C   0  0  0  0  0  0  0  0  0  0  0  0
   10.8059   12.4476  147.3092 C   0  0  0  0  0  0  0  0  0  0  0  0
   11.6674   12.4815  146.2216 C   0  0  0  0  0  0  0  0  0  0  0  0
  1 11  1  0  0  0  0
  1  4  1  0  0  0  0
  2  8  1  0  0  0  0
  3 10  1  0  0  0  0
  4  5  1  0  0  0  0
  5  6  1  0  0  0  0
  7  8  2  0  0  0  0
  7 12  1  0  0  0  0
  8  9  1  0  0  0  0
  9 10  2  0  0  0  0
 10 11  1  0  0  0  0
 11 12  2  0  0  0  0
M  END
>  <CHROM.1>
156.97629223,-173.14498546,-56.05235895,11.21133324,12.41032447,147.31308131
1.80603594,0.89624105,0.06813728

>  <Name>
ligand

>  <RI>
0

>  <Rbt.Current_Directory>
/home/itssahil/PROJECTS/Mol_Feturizer/New_Systems/rnas/4NYA

>  <Rbt.Executable>
rbdock ($Id: //depot/dev/client3/rdock/2013.1/src/exe/rbdock.cxx#4 $)

>  <Rbt.Library>
libRbt.so (2013.1, Build901 2013/11/27)

>  <Rbt.Parameter_File>
/export/apps/rDock/src/rDock_2013.1_src/data/scripts/dock_solv.prm

>  <Rbt.Receptor>
prm/pocket_docking_6.prm

>  <SCORE>
-12.9719

>  <SCORE.INTER>
-13.0788

>  <SCORE.INTER.CONST>
1

>  <SCORE.INTER.POLAR>
0

>  <SCORE.INTER.ROT>
3

>  <SCORE.INTER.SOLV>
12.5359

>  <SCORE.INTER.VDW>
-18.4978

>  <SCORE.INTER.norm>
-1.0899

>  <SCORE.INTRA>
0.106855

>  <SCORE.INTRA.DIHEDRAL>
-0.0155809

>  <SCORE.INTRA.DIHEDRAL.0>
2.1382

>  <SCORE.INTRA.POLAR>
0

>  <SCORE.INTRA.POLAR.0>
0

>  <SCORE.INTRA.REPUL>
0

>  <SCORE.INTRA.REPUL.0>
0

>  <SCORE.INTRA.SOLV>
-1.46083

>  <SCORE.INTRA.SOLV.lig_0>
-59.6513

>  <SCORE.INTRA.VDW>
0.845063

>  <SCORE.INTRA.VDW.0>
-0.569808

>  <SCORE.INTRA.norm>
0.00890462

>  <SCORE.RESTR>
0

>  <SCORE.RESTR.CAVITY>
0

>  <SCORE.RESTR.norm>
0

>  <SCORE.SYSTEM>
0

>  <SCORE.SYSTEM.CONST>
0

>  <SCORE.SYSTEM.DIHEDRAL>
0

>  <SCORE.SYSTEM.SOLV>
0

>  <SCORE.SYSTEM.norm>
0

>  <SCORE.heavy>
12

>  <SCORE.norm>
-1.081

>  <RMSD>
2.946

$$$$
ligand
 OpenBabel11021811503D
libRbt.so/2013.1/901 2013/11/27
 12 12  0  0  0  0  0  0  0  0999 V2000
   10.5792   13.4687  148.0326 C   0  0  0  0  0  0  0  0  0  0  0  0
   12.5373    8.8533  145.7455 C   0  0  0  0  0  0  0  0  0  0  0  0
    9.8387   11.0163  148.9216 N   0  0  0  0  0  0  0  0  0  0  0  0
   10.6540   14.6223  147.1238 N   0  0  0  0  0  0  0  0  0  0  0  0
   10.4382   15.6298  147.5722 N   0  0  0  0  0  0  0  0  0  0  0  0
   10.2237   16.6385  148.0137 N   0  0  0  0  0  0  0  0  0  0  0  0
   12.4287   11.2023  145.8305 N   0  0  0  0  0  0  0  0  0  0  0  0
   12.0429   10.0159  146.3242 C   0  0  0  0  0  0  0  0  0  0  0  0
   11.1337    9.9459  147.3069 N   0  0  0  0  0  0  0  0  0  0  0  0
   10.5899   11.0553  147.8251 C   0  0  0  0  0  0  0  0  0  0  0  0
   10.9464   12.3140  147.3518 C   0  0  0  0  0  0  0  0  0  0  0  0
   11.8800   12.3891  146.3276 C   0  0  0  0  0  0  0  0  0  0  0  0
  1 11  1  0  0  0  0
  1  4  1  0  0  0  0
  2  8  1  0  0  0  0
  3 10  1  0  0  0  0
  4  5  1  0  0  0  0
  5  6  1  0  0  0  0
  7  8  2  0  0  0  0
  7 12  1  0  0  0  0
  8  9  1  0  0  0  0
  9 10  2  0  0  0  0
 10 11  1  0  0  0  0
 11 12  2  0  0  0  0
M  END
>  <CHROM.1>
-160.40208855,-176.51855562,179.94603355,11.10404593,12.28158910,147.20072784
1.97695394,0.88396592,-0.09961020

>  <Name>
ligand

>  <RI>
0

>  <Rbt.Current_Directory>
/home/itssahil/PROJECTS/Mol_Feturizer/New_Systems/rnas/4NYA

>  <Rbt.Executable>
rbdock ($Id: //depot/dev/client3/rdock/2013.1/src/exe/rbdock.cxx#4 $)

>  <Rbt.Library>
libRbt.so (2013.1, Build901 2013/11/27)

>  <Rbt.Parameter_File>
/export/apps/rDock/src/rDock_2013.1_src/data/scripts/dock_solv.prm

>  <Rbt.Receptor>
prm/pocket_docking_7.prm

>  <SCORE>
-13.2418

>  <SCORE.INTER>
-12.5411

>  <SCORE.INTER.CONST>
1

>  <SCORE.INTER.POLAR>
0

>  <SCORE.INTER.ROT>
3

>  <SCORE.INTER.SOLV>
14.2411

>  <SCORE.INTER.VDW>
-18.7078

>  <SCORE.INTER.norm>
-1.0451

>  <SCORE.INTRA>
-0.700653

>  <SCORE.INTRA.DIHEDRAL>
-0.946887

>  <SCORE.INTRA.DIHEDRAL.0>
2.1382

>  <SCORE.INTRA.POLAR>
0

>  <SCORE.INTRA.POLAR.0>
0

>  <SCORE.INTRA.REPUL>
0

>  <SCORE.INTRA.REPUL.0>
0

>  <SCORE.INTRA.SOLV>
-1.54087

>  <SCORE.INTRA.SOLV.lig_0>
-59.6513

>  <SCORE.INTRA.VDW>
0.543225

>  <SCORE.INTRA.VDW.0>
-0.569808

>  <SCORE.INTRA.norm>
-0.0583878

>  <SCORE.RESTR>
0

>  <SCORE.RESTR.CAVITY>
0

>  <SCORE.RESTR.norm>
0

>  <SCORE.SYSTEM>
0

>  <SCORE.SYSTEM.CONST>
0

>  <SCORE.SYSTEM.DIHEDRAL>
0

>  <SCORE.SYSTEM.SOLV>
0

>  <SCORE.SYSTEM.norm>
0

>  <SCORE.heavy>
12

>  <SCORE.norm>
-1.10348

>  <RMSD>
2.946

$$$$
ligand
 OpenBabel11021811503D
libRbt.so/2013.1/901 2013/11/27
 12 12  0  0  0  0  0  0  0  0999 V2000
   10.5324   13.5043  148.0539 C   0  0  0  0  0  0  0  0  0  0  0  0
   12.5175    8.8864  145.7955 C   0  0  0  0  0  0  0  0  0  0  0  0
    9.8391   11.0540  148.9855 N   0  0  0  0  0  0  0  0  0  0  0  0
   10.6103   14.6523  147.1383 N   0  0  0  0  0  0  0  0  0  0  0  0
   10.4706   15.6695  147.5950 N   0  0  0  0  0  0  0  0  0  0  0  0
   10.3249   16.6831  148.0530 N   0  0  0  0  0  0  0  0  0  0  0  0
   12.3784   11.2346  145.8522 N   0  0  0  0  0  0  0  0  0  0  0  0
   12.0164   10.0496  146.3670 C   0  0  0  0  0  0  0  0  0  0  0  0
   11.1235    9.9801  147.3645 N   0  0  0  0  0  0  0  0  0  0  0  0
   10.5727   11.0888  147.8770 C   0  0  0  0  0  0  0  0  0  0  0  0
   10.9047   12.3460  147.3822 C   0  0  0  0  0  0  0  0  0  0  0  0
   11.8213   12.4203  146.3427 C   0  0  0  0  0  0  0  0  0  0  0  0
  1 11  1  0  0  0  0
  1  4  1  0  0  0  0
  2  8  1  0  0  0  0
  3 10  1  0  0  0  0
  4  5  1  0  0  0  0
  5  6  1  0  0  0  0
  7  8  2  0  0  0  0
  7 12  1  0  0  0  0
  8  9  1  0  0  0  0
  9 10  2  0  0  0  0
 10 11  1  0  0  0  0
 11 12  2  0  0  0  0
M  END
>  <CHROM.1>
-161.82385392,-171.85615930,-61.14987556,11.08997366,12.31650066,147.23680481
1.96632423,0.89635171,-0.09843449

>  <Name>
ligand

>  <RI>
0

>  <Rbt.Current_Directory>
/home/itssahil/PROJECTS/Mol_Feturizer/New_Systems/rnas/4NYA

>  <Rbt.Executable>
rbdock ($Id: //depot/dev/client3/rdock/2013.1/src/exe/rbdock.cxx#4 $)

>  <Rbt.Library>
libRbt.so (2013.1, Build901 2013/11/27)

>  <Rbt.Parameter_File>
/export/apps/rDock/src/rDock_2013.1_src/data/scripts/dock_solv.prm

>  <Rbt.Receptor>
prm/pocket_docking_6.prm

>  <SCORE>
-13.31

>  <SCORE.INTER>
-12.65

>  <SCORE.INTER.CONST>
1

>  <SCORE.INTER.POLAR>
0

>  <SCORE.INTER.ROT>
3

>  <SCORE.INTER.SOLV>
13.8974

>  <SCORE.INTER.VDW>
-18.6658

>  <SCORE.INTER.norm>
-1.05416

>  <SCORE.INTRA>
-0.660036

>  <SCORE.INTRA.DIHEDRAL>
-0.892497

>  <SCORE.INTRA.DIHEDRAL.0>
2.1382

>  <SCORE.INTRA.POLAR>
0

>  <SCORE.INTRA.POLAR.0>
0

>  <SCORE.INTRA.REPUL>
0

>  <SCORE.INTRA.REPUL.0>
0

>  <SCORE.INTRA.SOLV>
-1.53252

>  <SCORE.INTRA.SOLV.lig_0>
-59.6513

>  <SCORE.INTRA.VDW>
0.552474

>  <SCORE.INTRA.VDW.0>
-0.569808

>  <SCORE.INTRA.norm>
-0.055003

>  <SCORE.RESTR>
0

>  <SCORE.RESTR.CAVITY>
0

>  <SCORE.RESTR.norm>
0

>  <SCORE.SYSTEM>
0

>  <SCORE.SYSTEM.CONST>
0

>  <SCORE.SYSTEM.DIHEDRAL>
0

>  <SCORE.SYSTEM.SOLV>
0

>  <SCORE.SYSTEM.norm>
0

>  <SCORE.heavy>
12

>  <SCORE.norm>
-1.10917

>  <RMSD>
2.947

$$$$
ligand
 OpenBabel11021811503D
libRbt.so/2013.1/901 2013/11/27
 12 12  0  0  0  0  0  0  0  0999 V2000
   10.6327   13.4264  148.0090 C   0  0  0  0  0  0  0  0  0  0  0  0
   12.7235    8.8747  145.7120 C   0  0  0  0  0  0  0  0  0  0  0  0
    9.8851   10.9505  148.8238 N   0  0  0  0  0  0  0  0  0  0  0  0
   10.6474   14.5831  147.1012 N   0  0  0  0  0  0  0  0  0  0  0  0
   10.4434   15.5869  147.5632 N   0  0  0  0  0  0  0  0  0  0  0  0
   10.2403   16.5919  148.0184 N   0  0  0  0  0  0  0  0  0  0  0  0
   12.5871   11.2204  145.8365 N   0  0  0  0  0  0  0  0  0  0  0  0
   12.1956   10.0211  146.2932 C   0  0  0  0  0  0  0  0  0  0  0  0
   11.2510    9.9236  147.2394 N   0  0  0  0  0  0  0  0  0  0  0  0
   10.6764   11.0176  147.7573 C   0  0  0  0  0  0  0  0  0  0  0  0
   11.0373   12.2885  147.3213 C   0  0  0  0  0  0  0  0  0  0  0  0
   12.0077   12.3922  146.3345 C   0  0  0  0  0  0  0  0  0  0  0  0
  1 11  1  0  0  0  0
  1  4  1  0  0  0  0
  2  8  1  0  0  0  0
  3 10  1  0  0  0  0
  4  5  1  0  0  0  0
  5  6  1  0  0  0  0
  7  8  2  0  0  0  0
  7 12  1  0  0  0  0
  8  9  1  0  0  0  0
  9 10  2  0  0  0  0
 10 11  1  0  0  0  0
 11 12  2  0  0  0  0
M  END
>  <CHROM.1>
-156.81334896,-173.78170471,-178.18167253,11.18951303,12.25854977,147.17023628
1.99659614,0.84703075,-0.09916448

>  <Name>
ligand

>  <RI>
0

>  <Rbt.Current_Directory>
/home/itssahil/PROJECTS/Mol_Feturizer/New_Systems/rnas/4NYA

>  <Rbt.Executable>
rbdock ($Id: //depot/dev/client3/rdock/2013.1/src/exe/rbdock.cxx#4 $)

>  <Rbt.Library>
libRbt.so (2013.1, Build901 2013/11/27)

>  <Rbt.Parameter_File>
/export/apps/rDock/src/rDock_2013.1_src/data/scripts/dock_solv.prm

>  <Rbt.Receptor>
prm/pocket_docking_4.prm

>  <SCORE>
-13.2162

>  <SCORE.INTER>
-12.4627

>  <SCORE.INTER.CONST>
1

>  <SCORE.INTER.POLAR>
0

>  <SCORE.INTER.ROT>
3

>  <SCORE.INTER.SOLV>
14.6021

>  <SCORE.INTER.VDW>
-18.7759

>  <SCORE.INTER.norm>
-1.03856

>  <SCORE.INTRA>
-0.753483

>  <SCORE.INTRA.DIHEDRAL>
-0.93788

>  <SCORE.INTRA.DIHEDRAL.0>
2.1382

>  <SCORE.INTRA.POLAR>
0

>  <SCORE.INTRA.POLAR.0>
0

>  <SCORE.INTRA.REPUL>
0

>  <SCORE.INTRA.REPUL.0>
0

>  <SCORE.INTRA.SOLV>
-1.5194

>  <SCORE.INTRA.SOLV.lig_0>
-59.6513

>  <SCORE.INTRA.VDW>
0.475159

>  <SCORE.INTRA.VDW.0>
-0.569808

>  <SCORE.INTRA.norm>
-0.0627902

>  <SCORE.RESTR>
0

>  <SCORE.RESTR.CAVITY>
0

>  <SCORE.RESTR.norm>
0

>  <SCORE.SYSTEM>
0

>  <SCORE.SYSTEM.CONST>
0

>  <SCORE.SYSTEM.DIHEDRAL>
0

>  <SCORE.SYSTEM.SOLV>
0

>  <SCORE.SYSTEM.norm>
0

>  <SCORE.heavy>
12

>  <SCORE.norm>
-1.10135

>  <RMSD>
2.948

$$$$
ligand
 OpenBabel11021811503D
libRbt.so/2013.1/901 2013/11/27
 12 12  0  0  0  0  0  0  0  0999 V2000
   10.5454   13.5831  148.1039 C   0  0  0  0  0  0  0  0  0  0  0  0
   12.4496    8.9606  145.7860 C   0  0  0  0  0  0  0  0  0  0  0  0
    9.8401   11.1336  149.0289 N   0  0  0  0  0  0  0  0  0  0  0  0
   10.5511   14.7252  147.1777 N   0  0  0  0  0  0  0  0  0  0  0  0
   10.4543   15.7457  147.6381 N   0  0  0  0  0  0  0  0  0  0  0  0
   10.3578   16.7672  148.0915 N   0  0  0  0  0  0  0  0  0  0  0  0
   12.3358   11.3096  145.8606 N   0  0  0  0  0  0  0  0  0  0  0  0
   11.9690   10.1249  146.3725 C   0  0  0  0  0  0  0  0  0  0  0  0
   11.0898   10.0578  147.3824 N   0  0  0  0  0  0  0  0  0  0  0  0
   10.5579   11.1685  147.9102 C   0  0  0  0  0  0  0  0  0  0  0  0
   10.8960   12.4256  147.4192 C   0  0  0  0  0  0  0  0  0  0  0  0
   11.7982   12.4976  146.3670 C   0  0  0  0  0  0  0  0  0  0  0  0
  1 11  1  0  0  0  0
  1  4  1  0  0  0  0
  2  8  1  0  0  0  0
  3 10  1  0  0  0  0
  4  5  1  0  0  0  0
  5  6  1  0  0  0  0
  7  8  2  0  0  0  0
  7 12  1  0  0  0  0
  8  9  1  0  0  0  0
  9 10  2  0  0  0  0
 10 11  1  0  0  0  0
 11 12  2  0  0  0  0
M  END
>  <CHROM.1>
-158.76684365,-170.02554693,-178.89027992,11.06749887,12.39399107,147.26429825
1.96202807,0.91288196,-0.09293214

>  <Name>
ligand

>  <RI>
0

>  <Rbt.Current_Directory>
/home/itssahil/PROJECTS/Mol_Feturizer/New_Systems/rnas/4NYA

>  <Rbt.Executable>
rbdock ($Id: //depot/dev/client3/rdock/2013.1/src/exe/rbdock.cxx#4 $)

>  <Rbt.Library>
libRbt.so (2013.1, Build901 2013/11/27)

>  <Rbt.Parameter_File>
/export/apps/rDock/src/rDock_2013.1_src/data/scripts/dock_solv.prm

>  <Rbt.Receptor>
prm/pocket_docking_5.prm

>  <SCORE>
-13.1738

>  <SCORE.INTER>
-12.4806

>  <SCORE.INTER.CONST>
1

>  <SCORE.INTER.POLAR>
0

>  <SCORE.INTER.ROT>
3

>  <SCORE.INTER.SOLV>
13.7301

>  <SCORE.INTER.VDW>
-18.4971

>  <SCORE.INTER.norm>
-1.04005

>  <SCORE.INTRA>
-0.693123

>  <SCORE.INTRA.DIHEDRAL>
-0.884869

>  <SCORE.INTRA.DIHEDRAL.0>
2.1382

>  <SCORE.INTRA.POLAR>
0

>  <SCORE.INTRA.POLAR.0>
0

>  <SCORE.INTRA.REPUL>
0

>  <SCORE.INTRA.REPUL.0>
0

>  <SCORE.INTRA.SOLV>
-1.51943

>  <SCORE.INTRA.SOLV.lig_0>
-59.6513

>  <SCORE.INTRA.VDW>
0.509025

>  <SCORE.INTRA.VDW.0>
-0.569808

>  <SCORE.INTRA.norm>
-0.0577603

>  <SCORE.RESTR>
0

>  <SCORE.RESTR.CAVITY>
0

>  <SCORE.RESTR.norm>
0

>  <SCORE.SYSTEM>
0

>  <SCORE.SYSTEM.CONST>
0

>  <SCORE.SYSTEM.DIHEDRAL>
0

>  <SCORE.SYSTEM.SOLV>
0

>  <SCORE.SYSTEM.norm>
0

>  <SCORE.heavy>
12

>  <SCORE.norm>
-1.09781

>  <RMSD>
2.948

$$$$
ligand
 OpenBabel11021811503D
libRbt.so/2013.1/901 2013/11/27
 12 12  0  0  0  0  0  0  0  0999 V2000
   10.1073   14.7479  148.1283 C   0  0  0  0  0  0  0  0  0  0  0  0
   12.1920   10.1190  145.9850 C   0  0  0  0  0  0  0  0  0  0  0  0
    9.6452   12.3252  149.2553 N   0  0  0  0  0  0  0  0  0  0  0  0
   11.2983   15.5217  148.5091 N   0  0  0  0  0  0  0  0  0  0  0  0
   11.1328   16.3884  149.2050 N   0  0  0  0  0  0  0  0  0  0  0  0
   10.9652   17.2493  149.9043 N   0  0  0  0  0  0  0  0  0  0  0  0
   11.9109   12.4541  145.9164 N   0  0  0  0  0  0  0  0  0  0  0  0
   11.6661   11.2850  146.5276 C   0  0  0  0  0  0  0  0  0  0  0  0
   10.8614   11.2272  147.5983 N   0  0  0  0  0  0  0  0  0  0  0  0
   10.2847   12.3324  148.0894 C   0  0  0  0  0  0  0  0  0  0  0  0
   10.4969   13.5729  147.4965 C   0  0  0  0  0  0  0  0  0  0  0  0
   11.3214   13.6343  146.3818 C   0  0  0  0  0  0  0  0  0  0  0  0
  1 11  1  0  0  0  0
  1  4  1  0  0  0  0
  2  8  1  0  0  0  0
  3 10  1  0  0  0  0
  4  5  1  0  0  0  0
  5  6  1  0  0  0  0
  7  8  2  0  0  0  0
  7 12  1  0  0  0  0
  8  9  1  0  0  0  0
  9 10  2  0  0  0  0
 10 11  1  0  0  0  0
 11 12  2  0  0  0  0
M  END
>  <CHROM.1>
112.52114261,-168.19226790,60.64475114,11.00012527,13.41860641,147.76954520
1.76188988,0.91057884,0.32633077

>  <Name>
ligand

>  <RI>
0

>  <Rbt.Current_Directory>
/home/itssahil/PROJECTS/Mol_Feturizer/New_Systems/rnas/4NYA

>  <Rbt.Executable>
rbdock ($Id: //depot/dev/client3/rdock/2013.1/src/exe/rbdock.cxx#4 $)

>  <Rbt.Library>
libRbt.so (2013.1, Build901 2013/11/27)

>  <Rbt.Parameter_File>
/export/apps/rDock/src/rDock_2013.1_src/data/scripts/dock_solv.prm

>  <Rbt.Receptor>
prm/pocket_docking_6.prm

>  <SCORE>
-12.2297

>  <SCORE.INTER>
-11.6851

>  <SCORE.INTER.CONST>
1

>  <SCORE.INTER.POLAR>
0

>  <SCORE.INTER.ROT>
3

>  <SCORE.INTER.SOLV>
8.61144

>  <SCORE.INTER.VDW>
-16.2605

>  <SCORE.INTER.norm>
-0.973756

>  <SCORE.INTRA>
-0.544671

>  <SCORE.INTRA.DIHEDRAL>
-0.388746

>  <SCORE.INTRA.DIHEDRAL.0>
2.1382

>  <SCORE.INTRA.POLAR>
0

>  <SCORE.INTRA.POLAR.0>
0

>  <SCORE.INTRA.REPUL>
0

>  <SCORE.INTRA.REPUL.0>
0

>  <SCORE.INTRA.SOLV>
-0.880721

>  <SCORE.INTRA.SOLV.lig_0>
-59.6513

>  <SCORE.INTRA.VDW>
0.0900629

>  <SCORE.INTRA.VDW.0>
-0.569808

>  <SCORE.INTRA.norm>
-0.0453892

>  <SCORE.RESTR>
0

>  <SCORE.RESTR.CAVITY>
0

>  <SCORE.RESTR.norm>
0

>  <SCORE.SYSTEM>
0

>  <SCORE.SYSTEM.CONST>
0

>  <SCORE.SYSTEM.DIHEDRAL>
0

>  <SCORE.SYSTEM.SOLV>
0

>  <SCORE.SYSTEM.norm>
0

>  <SCORE.heavy>
12

>  <SCORE.norm>
-1.01915

>  <RMSD>
2.948

$$$$
ligand
 OpenBabel11021811503D
libRbt.so/2013.1/901 2013/11/27
 12 12  0  0  0  0  0  0  0  0999 V2000
   10.5327   13.5036  148.0501 C   0  0  0  0  0  0  0  0  0  0  0  0
   12.5448    8.8971  145.7923 C   0  0  0  0  0  0  0  0  0  0  0  0
    9.8373   11.0488  148.9685 N   0  0  0  0  0  0  0  0  0  0  0  0
   10.6120   14.6542  147.1379 N   0  0  0  0  0  0  0  0  0  0  0  0
   10.4662   15.6697  147.5964 N   0  0  0  0  0  0  0  0  0  0  0  0
   10.3216   16.6863  148.0480 N   0  0  0  0  0  0  0  0  0  0  0  0
   12.4003   11.2448  145.8555 N   0  0  0  0  0  0  0  0  0  0  0  0
   12.0369   10.0574  146.3636 C   0  0  0  0  0  0  0  0  0  0  0  0
   11.1364    9.9829  147.3541 N   0  0  0  0  0  0  0  0  0  0  0  0
   10.5793   11.0887  147.8658 C   0  0  0  0  0  0  0  0  0  0  0  0
   10.9126   12.3482  147.3776 C   0  0  0  0  0  0  0  0  0  0  0  0
   11.8370   12.4278  146.3455 C   0  0  0  0  0  0  0  0  0  0  0  0
  1 11  1  0  0  0  0
  1  4  1  0  0  0  0
  2  8  1  0  0  0  0
  3 10  1  0  0  0  0
  4  5  1  0  0  0  0
  5  6  1  0  0  0  0
  7  8  2  0  0  0  0
  7 12  1  0  0  0  0
  8  9  1  0  0  0  0
  9 10  2  0  0  0  0
 10 11  1  0  0  0  0
 11 12  2  0  0  0  0
M  END
>  <CHROM.1>
-161.68417612,-171.86906035,179.10376904,11.09866993,12.31985659,147.23249797
1.96835978,0.88841726,-0.09769798

>  <Name>
ligand

>  <RI>
0

>  <Rbt.Current_Directory>
/home/itssahil/PROJECTS/Mol_Feturizer/New_Systems/rnas/4NYA

>  <Rbt.Executable>
rbdock ($Id: //depot/dev/client3/rdock/2013.1/src/exe/rbdock.cxx#4 $)

>  <Rbt.Library>
libRbt.so (2013.1, Build901 2013/11/27)

>  <Rbt.Parameter_File>
/export/apps/rDock/src/rDock_2013.1_src/data/scripts/dock_solv.prm

>  <Rbt.Receptor>
prm/pocket_docking_7.prm

>  <SCORE>
-13.307

>  <SCORE.INTER>
-12.6402

>  <SCORE.INTER.CONST>
1

>  <SCORE.INTER.POLAR>
0

>  <SCORE.INTER.ROT>
3

>  <SCORE.INTER.SOLV>
13.9685

>  <SCORE.INTER.VDW>
-18.683

>  <SCORE.INTER.norm>
-1.05335

>  <SCORE.INTRA>
-0.666751

>  <SCORE.INTRA.DIHEDRAL>
-0.893934

>  <SCORE.INTRA.DIHEDRAL.0>
2.1382

>  <SCORE.INTRA.POLAR>
0

>  <SCORE.INTRA.POLAR.0>
0

>  <SCORE.INTRA.REPUL>
0

>  <SCORE.INTRA.REPUL.0>
0

>  <SCORE.INTRA.SOLV>
-1.53627

>  <SCORE.INTRA.SOLV.lig_0>
-59.6513

>  <SCORE.INTRA.VDW>
0.548349

>  <SCORE.INTRA.VDW.0>
-0.569808

>  <SCORE.INTRA.norm>
-0.0555626

>  <SCORE.RESTR>
0

>  <SCORE.RESTR.CAVITY>
0

>  <SCORE.RESTR.norm>
0

>  <SCORE.SYSTEM>
0

>  <SCORE.SYSTEM.CONST>
0

>  <SCORE.SYSTEM.DIHEDRAL>
0

>  <SCORE.SYSTEM.SOLV>
0

>  <SCORE.SYSTEM.norm>
0

>  <SCORE.heavy>
12

>  <SCORE.norm>
-1.10892

>  <RMSD>
2.948

$$$$
ligand
 OpenBabel11021811503D
libRbt.so/2013.1/901 2013/11/27
 12 12  0  0  0  0  0  0  0  0999 V2000
   10.5617   13.4949  148.0358 C   0  0  0  0  0  0  0  0  0  0  0  0
   12.5927    8.9186  145.7337 C   0  0  0  0  0  0  0  0  0  0  0  0
    9.8837   11.0287  148.9364 N   0  0  0  0  0  0  0  0  0  0  0  0
   10.6119   14.6501  147.1273 N   0  0  0  0  0  0  0  0  0  0  0  0
   10.4578   15.6615  147.5918 N   0  0  0  0  0  0  0  0  0  0  0  0
   10.3098   16.6706  148.0590 N   0  0  0  0  0  0  0  0  0  0  0  0
   12.4349   11.2649  145.8166 N   0  0  0  0  0  0  0  0  0  0  0  0
   12.0800   10.0713  146.3162 C   0  0  0  0  0  0  0  0  0  0  0  0
   11.1834    9.9835  147.3090 N   0  0  0  0  0  0  0  0  0  0  0  0
   10.6217   11.0819  147.8316 C   0  0  0  0  0  0  0  0  0  0  0  0
   10.9460   12.3472  147.3526 C   0  0  0  0  0  0  0  0  0  0  0  0
   11.8664   12.4405  146.3181 C   0  0  0  0  0  0  0  0  0  0  0  0
  1 11  1  0  0  0  0
  1  4  1  0  0  0  0
  2  8  1  0  0  0  0
  3 10  1  0  0  0  0
  4  5  1  0  0  0  0
  5  6  1  0  0  0  0
  7  8  2  0  0  0  0
  7 12  1  0  0  0  0
  8  9  1  0  0  0  0
  9 10  2  0  0  0  0
 10 11  1  0  0  0  0
 11 12  2  0  0  0  0
M  END
>  <CHROM.1>
-160.83690801,-172.00249238,66.45760975,11.12607138,12.32015222,147.20535708
1.98430210,0.89184315,-0.10268315

>  <Name>
ligand

>  <RI>
0

>  <Rbt.Current_Directory>
/home/itssahil/PROJECTS/Mol_Feturizer/New_Systems/rnas/4NYA

>  <Rbt.Executable>
rbdock ($Id: //depot/dev/client3/rdock/2013.1/src/exe/rbdock.cxx#4 $)

>  <Rbt.Library>
libRbt.so (2013.1, Build901 2013/11/27)

>  <Rbt.Parameter_File>
/export/apps/rDock/src/rDock_2013.1_src/data/scripts/dock_solv.prm

>  <Rbt.Receptor>
prm/pocket_docking_8.prm

>  <SCORE>
-13.216

>  <SCORE.INTER>
-12.5565

>  <SCORE.INTER.CONST>
1

>  <SCORE.INTER.POLAR>
0

>  <SCORE.INTER.ROT>
3

>  <SCORE.INTER.SOLV>
14.0928

>  <SCORE.INTER.VDW>
-18.6686

>  <SCORE.INTER.norm>
-1.04638

>  <SCORE.INTRA>
-0.659474

>  <SCORE.INTRA.DIHEDRAL>
-0.890822

>  <SCORE.INTRA.DIHEDRAL.0>
2.1382

>  <SCORE.INTRA.POLAR>
0

>  <SCORE.INTRA.POLAR.0>
0

>  <SCORE.INTRA.REPUL>
0

>  <SCORE.INTRA.REPUL.0>
0

>  <SCORE.INTRA.SOLV>
-1.52928

>  <SCORE.INTRA.SOLV.lig_0>
-59.6513

>  <SCORE.INTRA.VDW>
0.550578

>  <SCORE.INTRA.VDW.0>
-0.569808

>  <SCORE.INTRA.norm>
-0.0549562

>  <SCORE.RESTR>
0

>  <SCORE.RESTR.CAVITY>
0

>  <SCORE.RESTR.norm>
0

>  <SCORE.SYSTEM>
0

>  <SCORE.SYSTEM.CONST>
0

>  <SCORE.SYSTEM.DIHEDRAL>
0

>  <SCORE.SYSTEM.SOLV>
0

>  <SCORE.SYSTEM.norm>
0

>  <SCORE.heavy>
12

>  <SCORE.norm>
-1.10133

>  <RMSD>
2.948

$$$$
ligand
 OpenBabel11021811503D
libRbt.so/2013.1/901 2013/11/27
 12 12  0  0  0  0  0  0  0  0999 V2000
   10.5447   13.5033  148.0445 C   0  0  0  0  0  0  0  0  0  0  0  0
   12.5397    8.8958  145.7736 C   0  0  0  0  0  0  0  0  0  0  0  0
    9.8714   11.0493  148.9815 N   0  0  0  0  0  0  0  0  0  0  0  0
   10.6099   14.6514  147.1281 N   0  0  0  0  0  0  0  0  0  0  0  0
   10.4509   15.6667  147.5828 N   0  0  0  0  0  0  0  0  0  0  0  0
   10.2861   16.6782  148.0390 N   0  0  0  0  0  0  0  0  0  0  0  0
   12.3879   11.2431  145.8307 N   0  0  0  0  0  0  0  0  0  0  0  0
   12.0361   10.0563  146.3482 C   0  0  0  0  0  0  0  0  0  0  0  0
   11.1505    9.9822  147.3520 N   0  0  0  0  0  0  0  0  0  0  0  0
   10.5971   11.0879  147.8679 C   0  0  0  0  0  0  0  0  0  0  0  0
   10.9188   12.3468  147.3706 C   0  0  0  0  0  0  0  0  0  0  0  0
   11.8277   12.4259  146.3248 C   0  0  0  0  0  0  0  0  0  0  0  0
  1 11  1  0  0  0  0
  1  4  1  0  0  0  0
  2  8  1  0  0  0  0
  3 10  1  0  0  0  0
  4  5  1  0  0  0  0
  5  6  1  0  0  0  0
  7  8  2  0  0  0  0
  7 12  1  0  0  0  0
  8  9  1  0  0  0  0
  9 10  2  0  0  0  0
 10 11  1  0  0  0  0
 11 12  2  0  0  0  0
M  END
>  <CHROM.1>
-161.82403706,-172.82856169,-57.89908524,11.09878409,12.31796047,147.22319546
1.98177641,0.90288966,-0.11133290

>  <Name>
ligand

>  <RI>
0

>  <Rbt.Current_Directory>
/home/itssahil/PROJECTS/Mol_Feturizer/New_Systems/rnas/4NYA

>  <Rbt.Executable>
rbdock ($Id: //depot/dev/client3/rdock/2013.1/src/exe/rbdock.cxx#4 $)

>  <Rbt.Library>
libRbt.so (2013.1, Build901 2013/11/27)

>  <Rbt.Parameter_File>
/export/apps/rDock/src/rDock_2013.1_src/data/scripts/dock_solv.prm

>  <Rbt.Receptor>
prm/pocket_docking_5.prm

>  <SCORE>
-13.2933

>  <SCORE.INTER>
-12.6273

>  <SCORE.INTER.CONST>
1

>  <SCORE.INTER.POLAR>
0

>  <SCORE.INTER.ROT>
3

>  <SCORE.INTER.SOLV>
14.0493

>  <SCORE.INTER.VDW>
-18.7013

>  <SCORE.INTER.norm>
-1.05228

>  <SCORE.INTRA>
-0.666019

>  <SCORE.INTRA.DIHEDRAL>
-0.903571

>  <SCORE.INTRA.DIHEDRAL.0>
2.1382

>  <SCORE.INTRA.POLAR>
0

>  <SCORE.INTRA.POLAR.0>
0

>  <SCORE.INTRA.REPUL>
0

>  <SCORE.INTRA.REPUL.0>
0

>  <SCORE.INTRA.SOLV>
-1.5346

>  <SCORE.INTRA.SOLV.lig_0>
-59.6513

>  <SCORE.INTRA.VDW>
0.553065

>  <SCORE.INTRA.VDW.0>
-0.569808

>  <SCORE.INTRA.norm>
-0.0555016

>  <SCORE.RESTR>
0

>  <SCORE.RESTR.CAVITY>
0

>  <SCORE.RESTR.norm>
0

>  <SCORE.SYSTEM>
0

>  <SCORE.SYSTEM.CONST>
0

>  <SCORE.SYSTEM.DIHEDRAL>
0

>  <SCORE.SYSTEM.SOLV>
0

>  <SCORE.SYSTEM.norm>
0

>  <SCORE.heavy>
12

>  <SCORE.norm>
-1.10778

>  <RMSD>
2.949

$$$$
ligand
 OpenBabel11021811503D
libRbt.so/2013.1/901 2013/11/27
 12 12  0  0  0  0  0  0  0  0999 V2000
   10.5373   13.5044  148.0409 C   0  0  0  0  0  0  0  0  0  0  0  0
   12.5199    8.8807  145.7921 C   0  0  0  0  0  0  0  0  0  0  0  0
    9.8442   11.0564  148.9789 N   0  0  0  0  0  0  0  0  0  0  0  0
   10.6096   14.6494  147.1211 N   0  0  0  0  0  0  0  0  0  0  0  0
   10.4337   15.6651  147.5686 N   0  0  0  0  0  0  0  0  0  0  0  0
   10.2520   16.6770  148.0174 N   0  0  0  0  0  0  0  0  0  0  0  0
   12.3812   11.2291  145.8434 N   0  0  0  0  0  0  0  0  0  0  0  0
   12.0194   10.0454  146.3612 C   0  0  0  0  0  0  0  0  0  0  0  0
   11.1272    9.9785  147.3596 N   0  0  0  0  0  0  0  0  0  0  0  0
   10.5769   11.0885  147.8698 C   0  0  0  0  0  0  0  0  0  0  0  0
   10.9089   12.3444  147.3718 C   0  0  0  0  0  0  0  0  0  0  0  0
   11.8247   12.4161  146.3314 C   0  0  0  0  0  0  0  0  0  0  0  0
  1 11  1  0  0  0  0
  1  4  1  0  0  0  0
  2  8  1  0  0  0  0
  3 10  1  0  0  0  0
  4  5  1  0  0  0  0
  5  6  1  0  0  0  0
  7  8  2  0  0  0  0
  7 12  1  0  0  0  0
  8  9  1  0  0  0  0
  9 10  2  0  0  0  0
 10 11  1  0  0  0  0
 11 12  2  0  0  0  0
M  END
>  <CHROM.1>
-161.60451403,-173.96443884,-58.11144156,11.08312837,12.31362207,147.22411603
1.97940767,0.89773999,-0.11263704

>  <Name>
ligand

>  <RI>
0

>  <Rbt.Current_Directory>
/home/itssahil/PROJECTS/Mol_Feturizer/New_Systems/rnas/4NYA

>  <Rbt.Executable>
rbdock ($Id: //depot/dev/client3/rdock/2013.1/src/exe/rbdock.cxx#4 $)

>  <Rbt.Library>
libRbt.so (2013.1, Build901 2013/11/27)

>  <Rbt.Parameter_File>
/export/apps/rDock/src/rDock_2013.1_src/data/scripts/dock_solv.prm

>  <Rbt.Receptor>
prm/pocket_docking_6.prm

>  <SCORE>
-13.2926

>  <SCORE.INTER>
-12.6151

>  <SCORE.INTER.CONST>
1

>  <SCORE.INTER.POLAR>
0

>  <SCORE.INTER.ROT>
3

>  <SCORE.INTER.SOLV>
14.1455

>  <SCORE.INTER.VDW>
-18.7253

>  <SCORE.INTER.norm>
-1.05126

>  <SCORE.INTRA>
-0.677461

>  <SCORE.INTRA.DIHEDRAL>
-0.917655

>  <SCORE.INTRA.DIHEDRAL.0>
2.1382

>  <SCORE.INTRA.POLAR>
0

>  <SCORE.INTRA.POLAR.0>
0

>  <SCORE.INTRA.REPUL>
0

>  <SCORE.INTRA.REPUL.0>
0

>  <SCORE.INTRA.SOLV>
-1.53622

>  <SCORE.INTRA.SOLV.lig_0>
-59.6513

>  <SCORE.INTRA.VDW>
0.549475

>  <SCORE.INTRA.VDW.0>
-0.569808

>  <SCORE.INTRA.norm>
-0.0564551

>  <SCORE.RESTR>
0

>  <SCORE.RESTR.CAVITY>
0

>  <SCORE.RESTR.norm>
0

>  <SCORE.SYSTEM>
0

>  <SCORE.SYSTEM.CONST>
0

>  <SCORE.SYSTEM.DIHEDRAL>
0

>  <SCORE.SYSTEM.SOLV>
0

>  <SCORE.SYSTEM.norm>
0

>  <SCORE.heavy>
12

>  <SCORE.norm>
-1.10772

>  <RMSD>
2.949

$$$$
ligand
 OpenBabel11021811503D
libRbt.so/2013.1/901 2013/11/27
 12 12  0  0  0  0  0  0  0  0999 V2000
   10.6024   13.3678  147.9513 C   0  0  0  0  0  0  0  0  0  0  0  0
   12.5628    8.7573  145.6564 C   0  0  0  0  0  0  0  0  0  0  0  0
    9.7415   10.9162  148.7268 N   0  0  0  0  0  0  0  0  0  0  0  0
   10.7245   14.5369  147.0678 N   0  0  0  0  0  0  0  0  0  0  0  0
   10.4224   15.5284  147.5019 N   0  0  0  0  0  0  0  0  0  0  0  0
   10.1257   16.5175  147.9400 N   0  0  0  0  0  0  0  0  0  0  0  0
   12.5155   11.1054  145.7999 N   0  0  0  0  0  0  0  0  0  0  0  0
   12.0678    9.9186  146.2370 C   0  0  0  0  0  0  0  0  0  0  0  0
   11.0999    9.8501  147.1621 N   0  0  0  0  0  0  0  0  0  0  0  0
   10.5575   10.9614  147.6779 C   0  0  0  0  0  0  0  0  0  0  0  0
   10.9770   12.2208  147.2616 C   0  0  0  0  0  0  0  0  0  0  0  0
   11.9717   12.2948  146.2966 C   0  0  0  0  0  0  0  0  0  0  0  0
  1 11  1  0  0  0  0
  1  4  1  0  0  0  0
  2  8  1  0  0  0  0
  3 10  1  0  0  0  0
  4  5  1  0  0  0  0
  5  6  1  0  0  0  0
  7  8  2  0  0  0  0
  7 12  1  0  0  0  0
  8  9  1  0  0  0  0
  9 10  2  0  0  0  0
 10 11  1  0  0  0  0
 11 12  2  0  0  0  0
M  END
>  <CHROM.1>
-158.67902628,178.39222152,62.41636950,11.10938693,12.18344098,147.10927289
1.96291748,0.82860262,-0.06773711

>  <Name>
ligand

>  <RI>
0

>  <Rbt.Current_Directory>
/home/itssahil/PROJECTS/Mol_Feturizer/New_Systems/rnas/4NYA

>  <Rbt.Executable>
rbdock ($Id: //depot/dev/client3/rdock/2013.1/src/exe/rbdock.cxx#4 $)

>  <Rbt.Library>
libRbt.so (2013.1, Build901 2013/11/27)

>  <Rbt.Parameter_File>
/export/apps/rDock/src/rDock_2013.1_src/data/scripts/dock_solv.prm

>  <Rbt.Receptor>
prm/pocket_docking_7.prm

>  <SCORE>
-13.3014

>  <SCORE.INTER>
-12.5824

>  <SCORE.INTER.CONST>
1

>  <SCORE.INTER.POLAR>
0

>  <SCORE.INTER.ROT>
3

>  <SCORE.INTER.SOLV>
15.0601

>  <SCORE.INTER.VDW>
-19.0083

>  <SCORE.INTER.norm>
-1.04853

>  <SCORE.INTRA>
-0.71898

>  <SCORE.INTRA.DIHEDRAL>
-0.961812

>  <SCORE.INTRA.DIHEDRAL.0>
2.1382

>  <SCORE.INTRA.POLAR>
0

>  <SCORE.INTRA.POLAR.0>
0

>  <SCORE.INTRA.REPUL>
0

>  <SCORE.INTRA.REPUL.0>
0

>  <SCORE.INTRA.SOLV>
-1.53707

>  <SCORE.INTRA.SOLV.lig_0>
-59.6513

>  <SCORE.INTRA.VDW>
0.530461

>  <SCORE.INTRA.VDW.0>
-0.569808

>  <SCORE.INTRA.norm>
-0.059915

>  <SCORE.RESTR>
0

>  <SCORE.RESTR.CAVITY>
0

>  <SCORE.RESTR.norm>
0

>  <SCORE.SYSTEM>
0

>  <SCORE.SYSTEM.CONST>
0

>  <SCORE.SYSTEM.DIHEDRAL>
0

>  <SCORE.SYSTEM.SOLV>
0

>  <SCORE.SYSTEM.norm>
0

>  <SCORE.heavy>
12

>  <SCORE.norm>
-1.10845

>  <RMSD>
2.949

$$$$
ligand
 OpenBabel11021811503D
libRbt.so/2013.1/901 2013/11/27
 12 12  0  0  0  0  0  0  0  0999 V2000
   10.5319   13.5027  148.0479 C   0  0  0  0  0  0  0  0  0  0  0  0
   12.5290    8.8879  145.7936 C   0  0  0  0  0  0  0  0  0  0  0  0
    9.8422   11.0513  148.9795 N   0  0  0  0  0  0  0  0  0  0  0  0
   10.6124   14.6511  147.1330 N   0  0  0  0  0  0  0  0  0  0  0  0
   10.4668   15.6678  147.5890 N   0  0  0  0  0  0  0  0  0  0  0  0
   10.3267   16.6815  148.0484 N   0  0  0  0  0  0  0  0  0  0  0  0
   12.3852   11.2358  145.8494 N   0  0  0  0  0  0  0  0  0  0  0  0
   12.0249   10.0503  146.3641 C   0  0  0  0  0  0  0  0  0  0  0  0
   11.1308    9.9794  147.3605 N   0  0  0  0  0  0  0  0  0  0  0  0
   10.5772   11.0872  147.8719 C   0  0  0  0  0  0  0  0  0  0  0  0
   10.9074   12.3449  147.3771 C   0  0  0  0  0  0  0  0  0  0  0  0
   11.8252   12.4206  146.3388 C   0  0  0  0  0  0  0  0  0  0  0  0
  1 11  1  0  0  0  0
  1  4  1  0  0  0  0
  2  8  1  0  0  0  0
  3 10  1  0  0  0  0
  4  5  1  0  0  0  0
  5  6  1  0  0  0  0
  7  8  2  0  0  0  0
  7 12  1  0  0  0  0
  8  9  1  0  0  0  0
  9 10  2  0  0  0  0
 10 11  1  0  0  0  0
 11 12  2  0  0  0  0
M  END
>  <CHROM.1>
-161.98141784,-172.06702930,58.53334806,11.09395878,12.31578908,147.23234058
1.96799926,0.89480113,-0.09980402

>  <Name>
ligand

>  <RI>
0

>  <Rbt.Current_Directory>
/home/itssahil/PROJECTS/Mol_Feturizer/New_Systems/rnas/4NYA

>  <Rbt.Executable>
rbdock ($Id: //depot/dev/client3/rdock/2013.1/src/exe/rbdock.cxx#4 $)

>  <Rbt.Library>
libRbt.so (2013.1, Build901 2013/11/27)

>  <Rbt.Parameter_File>
/export/apps/rDock/src/rDock_2013.1_src/data/scripts/dock_solv.prm

>  <Rbt.Receptor>
prm/pocket_docking_7.prm

>  <SCORE>
-13.313

>  <SCORE.INTER>
-12.655

>  <SCORE.INTER.CONST>
1

>  <SCORE.INTER.POLAR>
0

>  <SCORE.INTER.ROT>
3

>  <SCORE.INTER.SOLV>
13.9354

>  <SCORE.INTER.VDW>
-18.6818

>  <SCORE.INTER.norm>
-1.05458

>  <SCORE.INTRA>
-0.658015

>  <SCORE.INTRA.DIHEDRAL>
-0.893674

>  <SCORE.INTRA.DIHEDRAL.0>
2.1382

>  <SCORE.INTRA.POLAR>
0

>  <SCORE.INTRA.POLAR.0>
0

>  <SCORE.INTRA.REPUL>
0

>  <SCORE.INTRA.REPUL.0>
0

>  <SCORE.INTRA.SOLV>
-1.53349

>  <SCORE.INTRA.SOLV.lig_0>
-59.6513

>  <SCORE.INTRA.VDW>
0.555566

>  <SCORE.INTRA.VDW.0>
-0.569808

>  <SCORE.INTRA.norm>
-0.0548346

>  <SCORE.RESTR>
0

>  <SCORE.RESTR.CAVITY>
0

>  <SCORE.RESTR.norm>
0

>  <SCORE.SYSTEM>
0

>  <SCORE.SYSTEM.CONST>
0

>  <SCORE.SYSTEM.DIHEDRAL>
0

>  <SCORE.SYSTEM.SOLV>
0

>  <SCORE.SYSTEM.norm>
0

>  <SCORE.heavy>
12

>  <SCORE.norm>
-1.10942

>  <RMSD>
2.949

$$$$
ligand
 OpenBabel11021811503D
libRbt.so/2013.1/901 2013/11/27
 12 12  0  0  0  0  0  0  0  0999 V2000
   10.5393   13.5039  148.0368 C   0  0  0  0  0  0  0  0  0  0  0  0
   12.5294    8.8840  145.7867 C   0  0  0  0  0  0  0  0  0  0  0  0
    9.8581   11.0547  148.9806 N   0  0  0  0  0  0  0  0  0  0  0  0
   10.6111   14.6490  147.1171 N   0  0  0  0  0  0  0  0  0  0  0  0
   10.4053   15.6616  147.5587 N   0  0  0  0  0  0  0  0  0  0  0  0
   10.1938   16.6703  148.0016 N   0  0  0  0  0  0  0  0  0  0  0  0
   12.3829   11.2319  145.8354 N   0  0  0  0  0  0  0  0  0  0  0  0
   12.0271   10.0477  146.3562 C   0  0  0  0  0  0  0  0  0  0  0  0
   11.1388    9.9791  147.3579 N   0  0  0  0  0  0  0  0  0  0  0  0
   10.5866   11.0878  147.8687 C   0  0  0  0  0  0  0  0  0  0  0  0
   10.9124   12.3442  147.3678 C   0  0  0  0  0  0  0  0  0  0  0  0
   11.8241   12.4177  146.3239 C   0  0  0  0  0  0  0  0  0  0  0  0
  1 11  1  0  0  0  0
  1  4  1  0  0  0  0
  2  8  1  0  0  0  0
  3 10  1  0  0  0  0
  4  5  1  0  0  0  0
  5  6  1  0  0  0  0
  7  8  2  0  0  0  0
  7 12  1  0  0  0  0
  8  9  1  0  0  0  0
  9 10  2  0  0  0  0
 10 11  1  0  0  0  0
 11 12  2  0  0  0  0
M  END
>  <CHROM.1>
-161.89783680,-175.63620781,-57.30926279,11.08066516,12.31334158,147.21865636
1.99277913,0.90104547,-0.12509505

>  <Name>
ligand

>  <RI>
0

>  <Rbt.Current_Directory>
/home/itssahil/PROJECTS/Mol_Feturizer/New_Systems/rnas/4NYA

>  <Rbt.Executable>
rbdock ($Id: //depot/dev/client3/rdock/2013.1/src/exe/rbdock.cxx#4 $)

>  <Rbt.Library>
libRbt.so (2013.1, Build901 2013/11/27)

>  <Rbt.Parameter_File>
/export/apps/rDock/src/rDock_2013.1_src/data/scripts/dock_solv.prm

>  <Rbt.Receptor>
prm/pocket_docking_8.prm

>  <SCORE>
-13.2779

>  <SCORE.INTER>
-12.5992

>  <SCORE.INTER.CONST>
1

>  <SCORE.INTER.POLAR>
0

>  <SCORE.INTER.ROT>
3

>  <SCORE.INTER.SOLV>
14.2919

>  <SCORE.INTER.VDW>
-18.7634

>  <SCORE.INTER.norm>
-1.04993

>  <SCORE.INTRA>
-0.678632

>  <SCORE.INTRA.DIHEDRAL>
-0.928403

>  <SCORE.INTRA.DIHEDRAL.0>
2.1382

>  <SCORE.INTRA.POLAR>
0

>  <SCORE.INTRA.POLAR.0>
0

>  <SCORE.INTRA.REPUL>
0

>  <SCORE.INTRA.REPUL.0>
0

>  <SCORE.INTRA.SOLV>
-1.54052

>  <SCORE.INTRA.SOLV.lig_0>
-59.6513

>  <SCORE.INTRA.VDW>
0.555828

>  <SCORE.INTRA.VDW.0>
-0.569808

>  <SCORE.INTRA.norm>
-0.0565527

>  <SCORE.RESTR>
0

>  <SCORE.RESTR.CAVITY>
0

>  <SCORE.RESTR.norm>
0

>  <SCORE.SYSTEM>
0

>  <SCORE.SYSTEM.CONST>
0

>  <SCORE.SYSTEM.DIHEDRAL>
0

>  <SCORE.SYSTEM.SOLV>
0

>  <SCORE.SYSTEM.norm>
0

>  <SCORE.heavy>
12

>  <SCORE.norm>
-1.10649

>  <RMSD>
2.949

$$$$
ligand
 OpenBabel11021811503D
libRbt.so/2013.1/901 2013/11/27
 12 12  0  0  0  0  0  0  0  0999 V2000
   10.5325   13.5090  148.0545 C   0  0  0  0  0  0  0  0  0  0  0  0
   12.5219    8.8926  145.7966 C   0  0  0  0  0  0  0  0  0  0  0  0
    9.8486   11.0583  148.9922 N   0  0  0  0  0  0  0  0  0  0  0  0
   10.6054   14.6559  147.1371 N   0  0  0  0  0  0  0  0  0  0  0  0
   10.4638   15.6733  147.5927 N   0  0  0  0  0  0  0  0  0  0  0  0
   10.3232   16.6918  148.0414 N   0  0  0  0  0  0  0  0  0  0  0  0
   12.3769   11.2405  145.8502 N   0  0  0  0  0  0  0  0  0  0  0  0
   12.0197   10.0554  146.3680 C   0  0  0  0  0  0  0  0  0  0  0  0
   11.1303    9.9852  147.3686 N   0  0  0  0  0  0  0  0  0  0  0  0
   10.5783   11.0933  147.8812 C   0  0  0  0  0  0  0  0  0  0  0  0
   10.9055   12.3505  147.3834 C   0  0  0  0  0  0  0  0  0  0  0  0
   11.8184   12.4256  146.3407 C   0  0  0  0  0  0  0  0  0  0  0  0
  1 11  1  0  0  0  0
  1  4  1  0  0  0  0
  2  8  1  0  0  0  0
  3 10  1  0  0  0  0
  4  5  1  0  0  0  0
  5  6  1  0  0  0  0
  7  8  2  0  0  0  0
  7 12  1  0  0  0  0
  8  9  1  0  0  0  0
  9 10  2  0  0  0  0
 10 11  1  0  0  0  0
 11 12  2  0  0  0  0
M  END
>  <CHROM.1>
-161.86906898,-171.90620507,-179.12437356,11.09102746,12.32171687,147.23674036
1.96986859,0.89926395,-0.10337860

>  <Name>
ligand

>  <RI>
0

>  <Rbt.Current_Directory>
/home/itssahil/PROJECTS/Mol_Feturizer/New_Systems/rnas/4NYA

>  <Rbt.Executable>
rbdock ($Id: //depot/dev/client3/rdock/2013.1/src/exe/rbdock.cxx#4 $)

>  <Rbt.Library>
libRbt.so (2013.1, Build901 2013/11/27)

>  <Rbt.Parameter_File>
/export/apps/rDock/src/rDock_2013.1_src/data/scripts/dock_solv.prm

>  <Rbt.Receptor>
prm/pocket_docking_5.prm

>  <SCORE>
-13.3051

>  <SCORE.INTER>
-12.642

>  <SCORE.INTER.CONST>
1

>  <SCORE.INTER.POLAR>
0

>  <SCORE.INTER.ROT>
3

>  <SCORE.INTER.SOLV>
13.9415

>  <SCORE.INTER.VDW>
-18.6752

>  <SCORE.INTER.norm>
-1.0535

>  <SCORE.INTRA>
-0.663101

>  <SCORE.INTRA.DIHEDRAL>
-0.892928

>  <SCORE.INTRA.DIHEDRAL.0>
2.1382

>  <SCORE.INTRA.POLAR>
0

>  <SCORE.INTRA.POLAR.0>
0

>  <SCORE.INTRA.REPUL>
0

>  <SCORE.INTRA.REPUL.0>
0

>  <SCORE.INTRA.SOLV>
-1.53705

>  <SCORE.INTRA.SOLV.lig_0>
-59.6513

>  <SCORE.INTRA.VDW>
0.551887

>  <SCORE.INTRA.VDW.0>
-0.569808

>  <SCORE.INTRA.norm>
-0.0552584

>  <SCORE.RESTR>
0

>  <SCORE.RESTR.CAVITY>
0

>  <SCORE.RESTR.norm>
0

>  <SCORE.SYSTEM>
0

>  <SCORE.SYSTEM.CONST>
0

>  <SCORE.SYSTEM.DIHEDRAL>
0

>  <SCORE.SYSTEM.SOLV>
0

>  <SCORE.SYSTEM.norm>
0

>  <SCORE.heavy>
12

>  <SCORE.norm>
-1.10876

>  <RMSD>
2.950

$$$$
ligand
 OpenBabel11021811503D
libRbt.so/2013.1/901 2013/11/27
 12 12  0  0  0  0  0  0  0  0999 V2000
   10.5360   13.5070  148.0548 C   0  0  0  0  0  0  0  0  0  0  0  0
   12.5024    8.8817  145.7951 C   0  0  0  0  0  0  0  0  0  0  0  0
    9.8391   11.0593  148.9909 N   0  0  0  0  0  0  0  0  0  0  0  0
   10.6113   14.6535  147.1371 N   0  0  0  0  0  0  0  0  0  0  0  0
   10.4703   15.6712  147.5921 N   0  0  0  0  0  0  0  0  0  0  0  0
   10.3307   16.6901  148.0402 N   0  0  0  0  0  0  0  0  0  0  0  0
   12.3695   11.2303  145.8500 N   0  0  0  0  0  0  0  0  0  0  0  0
   12.0060   10.0468  146.3670 C   0  0  0  0  0  0  0  0  0  0  0  0
   11.1159    9.9806  147.3672 N   0  0  0  0  0  0  0  0  0  0  0  0
   10.5694   11.0912  147.8802 C   0  0  0  0  0  0  0  0  0  0  0  0
   10.9033   12.3470  147.3832 C   0  0  0  0  0  0  0  0  0  0  0  0
   11.8170   12.4180  146.3409 C   0  0  0  0  0  0  0  0  0  0  0  0
  1 11  1  0  0  0  0
  1  4  1  0  0  0  0
  2  8  1  0  0  0  0
  3 10  1  0  0  0  0
  4  5  1  0  0  0  0
  5  6  1  0  0  0  0
  7  8  2  0  0  0  0
  7 12  1  0  0  0  0
  8  9  1  0  0  0  0
  9 10  2  0  0  0  0
 10 11  1  0  0  0  0
 11 12  2  0  0  0  0
M  END
>  <CHROM.1>
-161.69935141,-172.14852338,177.04763110,11.08654508,12.31715769,147.23607674
1.96403827,0.89957979,-0.09864953

>  <Name>
ligand

>  <RI>
0

>  <Rbt.Current_Directory>
/home/itssahil/PROJECTS/Mol_Feturizer/New_Systems/rnas/4NYA

>  <Rbt.Executable>
rbdock ($Id: //depot/dev/client3/rdock/2013.1/src/exe/rbdock.cxx#4 $)

>  <Rbt.Library>
libRbt.so (2013.1, Build901 2013/11/27)

>  <Rbt.Parameter_File>
/export/apps/rDock/src/rDock_2013.1_src/data/scripts/dock_solv.prm

>  <Rbt.Receptor>
prm/pocket_docking_5.prm

>  <SCORE>
-13.3051

>  <SCORE.INTER>
-12.6378

>  <SCORE.INTER.CONST>
1

>  <SCORE.INTER.POLAR>
0

>  <SCORE.INTER.ROT>
3

>  <SCORE.INTER.SOLV>
13.9063

>  <SCORE.INTER.VDW>
-18.6606

>  <SCORE.INTER.norm>
-1.05315

>  <SCORE.INTRA>
-0.667296

>  <SCORE.INTRA.DIHEDRAL>
-0.895216

>  <SCORE.INTRA.DIHEDRAL.0>
2.1382

>  <SCORE.INTRA.POLAR>
0

>  <SCORE.INTRA.POLAR.0>
0

>  <SCORE.INTRA.REPUL>
0

>  <SCORE.INTRA.REPUL.0>
0

>  <SCORE.INTRA.SOLV>
-1.53697

>  <SCORE.INTRA.SOLV.lig_0>
-59.6513

>  <SCORE.INTRA.VDW>
0.548797

>  <SCORE.INTRA.VDW.0>
-0.569808

>  <SCORE.INTRA.norm>
-0.055608

>  <SCORE.RESTR>
0

>  <SCORE.RESTR.CAVITY>
0

>  <SCORE.RESTR.norm>
0

>  <SCORE.SYSTEM>
0

>  <SCORE.SYSTEM.CONST>
0

>  <SCORE.SYSTEM.DIHEDRAL>
0

>  <SCORE.SYSTEM.SOLV>
0

>  <SCORE.SYSTEM.norm>
0

>  <SCORE.heavy>
12

>  <SCORE.norm>
-1.10876

>  <RMSD>
2.950

$$$$
ligand
 OpenBabel11021811503D
libRbt.so/2013.1/901 2013/11/27
 12 12  0  0  0  0  0  0  0  0999 V2000
   10.5048   13.5213  148.0444 C   0  0  0  0  0  0  0  0  0  0  0  0
   12.4667    8.8909  145.7912 C   0  0  0  0  0  0  0  0  0  0  0  0
    9.7810   11.0751  148.9638 N   0  0  0  0  0  0  0  0  0  0  0  0
   10.5933   14.6697  147.1303 N   0  0  0  0  0  0  0  0  0  0  0  0
   10.4519   15.6868  147.5864 N   0  0  0  0  0  0  0  0  0  0  0  0
   10.3119   16.7051  148.0357 N   0  0  0  0  0  0  0  0  0  0  0  0
   12.3486   11.2401  145.8528 N   0  0  0  0  0  0  0  0  0  0  0  0
   11.9714   10.0572  146.3614 C   0  0  0  0  0  0  0  0  0  0  0  0
   11.0693    9.9935  147.3511 N   0  0  0  0  0  0  0  0  0  0  0  0
   10.5243   11.1059  147.8616 C   0  0  0  0  0  0  0  0  0  0  0  0
   10.8722   12.3612  147.3730 C   0  0  0  0  0  0  0  0  0  0  0  0
   11.7983   12.4297  146.3416 C   0  0  0  0  0  0  0  0  0  0  0  0
  1 11  1  0  0  0  0
  1  4  1  0  0  0  0
  2  8  1  0  0  0  0
  3 10  1  0  0  0  0
  4  5  1  0  0  0  0
  5  6  1  0  0  0  0
  7  8  2  0  0  0  0
  7 12  1  0  0  0  0
  8  9  1  0  0  0  0
  9 10  2  0  0  0  0
 10 11  1  0  0  0  0
 11 12  2  0  0  0  0
M  END
>  <CHROM.1>
-161.48675343,-172.23635811,177.02681400,11.05515022,12.33049380,147.22729060
1.95376914,0.88887877,-0.08753530

>  <Name>
ligand

>  <RI>
0

>  <Rbt.Current_Directory>
/home/itssahil/PROJECTS/Mol_Feturizer/New_Systems/rnas/4NYA

>  <Rbt.Executable>
rbdock ($Id: //depot/dev/client3/rdock/2013.1/src/exe/rbdock.cxx#4 $)

>  <Rbt.Library>
libRbt.so (2013.1, Build901 2013/11/27)

>  <Rbt.Parameter_File>
/export/apps/rDock/src/rDock_2013.1_src/data/scripts/dock_solv.prm

>  <Rbt.Receptor>
prm/pocket_docking_6.prm

>  <SCORE>
-13.2442

>  <SCORE.INTER>
-12.5719

>  <SCORE.INTER.CONST>
1

>  <SCORE.INTER.POLAR>
0

>  <SCORE.INTER.ROT>
3

>  <SCORE.INTER.SOLV>
14.0399

>  <SCORE.INTER.VDW>
-18.6612

>  <SCORE.INTER.norm>
-1.04766

>  <SCORE.INTRA>
-0.672349

>  <SCORE.INTRA.DIHEDRAL>
-0.897948

>  <SCORE.INTRA.DIHEDRAL.0>
2.1382

>  <SCORE.INTRA.POLAR>
0

>  <SCORE.INTRA.POLAR.0>
0

>  <SCORE.INTRA.REPUL>
0

>  <SCORE.INTRA.REPUL.0>
0

>  <SCORE.INTRA.SOLV>
-1.53636

>  <SCORE.INTRA.SOLV.lig_0>
-59.6513

>  <SCORE.INTRA.VDW>
0.544807

>  <SCORE.INTRA.VDW.0>
-0.569808

>  <SCORE.INTRA.norm>
-0.0560291

>  <SCORE.RESTR>
0

>  <SCORE.RESTR.CAVITY>
0

>  <SCORE.RESTR.norm>
0

>  <SCORE.SYSTEM>
0

>  <SCORE.SYSTEM.CONST>
0

>  <SCORE.SYSTEM.DIHEDRAL>
0

>  <SCORE.SYSTEM.SOLV>
0

>  <SCORE.SYSTEM.norm>
0

>  <SCORE.heavy>
12

>  <SCORE.norm>
-1.10369

>  <RMSD>
2.950

$$$$
ligand
 OpenBabel11021811503D
libRbt.so/2013.1/901 2013/11/27
 12 12  0  0  0  0  0  0  0  0999 V2000
   10.5533   13.5345  148.0672 C   0  0  0  0  0  0  0  0  0  0  0  0
   12.3910    8.8782  145.7632 C   0  0  0  0  0  0  0  0  0  0  0  0
    9.7933   11.0982  148.9838 N   0  0  0  0  0  0  0  0  0  0  0  0
   10.6269   14.6824  147.1512 N   0  0  0  0  0  0  0  0  0  0  0  0
   10.4772   15.6988  147.6065 N   0  0  0  0  0  0  0  0  0  0  0  0
   10.3282   16.7162  148.0549 N   0  0  0  0  0  0  0  0  0  0  0  0
   12.3208   11.2289  145.8386 N   0  0  0  0  0  0  0  0  0  0  0  0
   11.9270   10.0511  146.3462 C   0  0  0  0  0  0  0  0  0  0  0  0
   11.0375   10.0000  147.3479 N   0  0  0  0  0  0  0  0  0  0  0  0
   10.5219   11.1203  147.8717 C   0  0  0  0  0  0  0  0  0  0  0  0
   10.8881   12.3710  147.3848 C   0  0  0  0  0  0  0  0  0  0  0  0
   11.8012   12.4266  146.3411 C   0  0  0  0  0  0  0  0  0  0  0  0
  1 11  1  0  0  0  0
  1  4  1  0  0  0  0
  2  8  1  0  0  0  0
  3 10  1  0  0  0  0
  4  5  1  0  0  0  0
  5  6  1  0  0  0  0
  7  8  2  0  0  0  0
  7 12  1  0  0  0  0
  8  9  1  0  0  0  0
  9 10  2  0  0  0  0
 10 11  1  0  0  0  0
 11 12  2  0  0  0  0
M  END
>  <CHROM.1>
-160.39146544,-174.12664060,-176.43400686,11.05264650,12.33626988,147.23258735
1.94187977,0.90558214,-0.07567238

>  <Name>
ligand

>  <RI>
0

>  <Rbt.Current_Directory>
/home/itssahil/PROJECTS/Mol_Feturizer/New_Systems/rnas/4NYA

>  <Rbt.Executable>
rbdock ($Id: //depot/dev/client3/rdock/2013.1/src/exe/rbdock.cxx#4 $)

>  <Rbt.Library>
libRbt.so (2013.1, Build901 2013/11/27)

>  <Rbt.Parameter_File>
/export/apps/rDock/src/rDock_2013.1_src/data/scripts/dock_solv.prm

>  <Rbt.Receptor>
prm/pocket_docking_7.prm

>  <SCORE>
-13.2759

>  <SCORE.INTER>
-12.5871

>  <SCORE.INTER.CONST>
1

>  <SCORE.INTER.POLAR>
0

>  <SCORE.INTER.ROT>
3

>  <SCORE.INTER.SOLV>
13.8164

>  <SCORE.INTER.VDW>
-18.5969

>  <SCORE.INTER.norm>
-1.04893

>  <SCORE.INTRA>
-0.688786

>  <SCORE.INTRA.DIHEDRAL>
-0.925269

>  <SCORE.INTRA.DIHEDRAL.0>
2.1382

>  <SCORE.INTRA.POLAR>
0

>  <SCORE.INTRA.POLAR.0>
0

>  <SCORE.INTRA.REPUL>
0

>  <SCORE.INTRA.REPUL.0>
0

>  <SCORE.INTRA.SOLV>
-1.53621

>  <SCORE.INTRA.SOLV.lig_0>
-59.6513

>  <SCORE.INTRA.VDW>
0.541953

>  <SCORE.INTRA.VDW.0>
-0.569808

>  <SCORE.INTRA.norm>
-0.0573989

>  <SCORE.RESTR>
0

>  <SCORE.RESTR.CAVITY>
0

>  <SCORE.RESTR.norm>
0

>  <SCORE.SYSTEM>
0

>  <SCORE.SYSTEM.CONST>
0

>  <SCORE.SYSTEM.DIHEDRAL>
0

>  <SCORE.SYSTEM.SOLV>
0

>  <SCORE.SYSTEM.norm>
0

>  <SCORE.heavy>
12

>  <SCORE.norm>
-1.10632

>  <RMSD>
2.950

$$$$
ligand
 OpenBabel11021811503D
libRbt.so/2013.1/901 2013/11/27
 12 12  0  0  0  0  0  0  0  0999 V2000
   10.5179   13.5475  148.0589 C   0  0  0  0  0  0  0  0  0  0  0  0
   12.4153    8.8967  145.7925 C   0  0  0  0  0  0  0  0  0  0  0  0
    9.7537   11.1090  148.9659 N   0  0  0  0  0  0  0  0  0  0  0  0
   10.5998   14.6943  147.1422 N   0  0  0  0  0  0  0  0  0  0  0  0
   10.4742   15.7130  147.5996 N   0  0  0  0  0  0  0  0  0  0  0  0
   10.3547   16.7292  148.0595 N   0  0  0  0  0  0  0  0  0  0  0  0
   12.3332   11.2472  145.8635 N   0  0  0  0  0  0  0  0  0  0  0  0
   11.9362   10.0682  146.3660 C   0  0  0  0  0  0  0  0  0  0  0  0
   11.0303   10.0143  147.3527 N   0  0  0  0  0  0  0  0  0  0  0  0
   10.5009   11.1329  147.8662 C   0  0  0  0  0  0  0  0  0  0  0  0
   10.8695   12.3847  147.3838 C   0  0  0  0  0  0  0  0  0  0  0  0
   11.7997   12.4431  146.3555 C   0  0  0  0  0  0  0  0  0  0  0  0
  1 11  1  0  0  0  0
  1  4  1  0  0  0  0
  2  8  1  0  0  0  0
  3 10  1  0  0  0  0
  4  5  1  0  0  0  0
  5  6  1  0  0  0  0
  7  8  2  0  0  0  0
  7 12  1  0  0  0  0
  8  9  1  0  0  0  0
  9 10  2  0  0  0  0
 10 11  1  0  0  0  0
 11 12  2  0  0  0  0
M  END
>  <CHROM.1>
-160.31219330,-172.01339071,67.95545044,11.04613588,12.35075168,147.23668975
1.93558796,0.88790799,-0.07036851

>  <Name>
ligand

>  <RI>
0

>  <Rbt.Current_Directory>
/home/itssahil/PROJECTS/Mol_Feturizer/New_Systems/rnas/4NYA

>  <Rbt.Executable>
rbdock ($Id: //depot/dev/client3/rdock/2013.1/src/exe/rbdock.cxx#4 $)

>  <Rbt.Library>
libRbt.so (2013.1, Build901 2013/11/27)

>  <Rbt.Parameter_File>
/export/apps/rDock/src/rDock_2013.1_src/data/scripts/dock_solv.prm

>  <Rbt.Receptor>
prm/pocket_docking_6.prm

>  <SCORE>
-13.2321

>  <SCORE.INTER>
-12.5648

>  <SCORE.INTER.CONST>
1

>  <SCORE.INTER.POLAR>
0

>  <SCORE.INTER.ROT>
3

>  <SCORE.INTER.SOLV>
13.892

>  <SCORE.INTER.VDW>
-18.6072

>  <SCORE.INTER.norm>
-1.04706

>  <SCORE.INTRA>
-0.667295

>  <SCORE.INTRA.DIHEDRAL>
-0.88858

>  <SCORE.INTRA.DIHEDRAL.0>
2.1382

>  <SCORE.INTRA.POLAR>
0

>  <SCORE.INTRA.POLAR.0>
0

>  <SCORE.INTRA.REPUL>
0

>  <SCORE.INTRA.REPUL.0>
0

>  <SCORE.INTRA.SOLV>
-1.52725

>  <SCORE.INTRA.SOLV.lig_0>
-59.6513

>  <SCORE.INTRA.VDW>
0.540619

>  <SCORE.INTRA.VDW.0>
-0.569808

>  <SCORE.INTRA.norm>
-0.0556079

>  <SCORE.RESTR>
0

>  <SCORE.RESTR.CAVITY>
0

>  <SCORE.RESTR.norm>
0

>  <SCORE.SYSTEM>
0

>  <SCORE.SYSTEM.CONST>
0

>  <SCORE.SYSTEM.DIHEDRAL>
0

>  <SCORE.SYSTEM.SOLV>
0

>  <SCORE.SYSTEM.norm>
0

>  <SCORE.heavy>
12

>  <SCORE.norm>
-1.10267

>  <RMSD>
2.951

$$$$
ligand
 OpenBabel11021811503D
libRbt.so/2013.1/901 2013/11/27
 12 12  0  0  0  0  0  0  0  0999 V2000
   10.5387   13.5051  148.0448 C   0  0  0  0  0  0  0  0  0  0  0  0
   12.5150    8.8818  145.7897 C   0  0  0  0  0  0  0  0  0  0  0  0
    9.8492   11.0570  148.9851 N   0  0  0  0  0  0  0  0  0  0  0  0
   10.6099   14.6504  147.1254 N   0  0  0  0  0  0  0  0  0  0  0  0
   10.4388   15.6663  147.5742 N   0  0  0  0  0  0  0  0  0  0  0  0
   10.2685   16.6832  148.0161 N   0  0  0  0  0  0  0  0  0  0  0  0
   12.3760   11.2301  145.8413 N   0  0  0  0  0  0  0  0  0  0  0  0
   12.0162   10.0464  146.3604 C   0  0  0  0  0  0  0  0  0  0  0  0
   11.1272    9.9793  147.3617 N   0  0  0  0  0  0  0  0  0  0  0  0
   10.5784   11.0892  147.8736 C   0  0  0  0  0  0  0  0  0  0  0  0
   10.9084   12.3452  147.3745 C   0  0  0  0  0  0  0  0  0  0  0  0
   11.8208   12.4170  146.3312 C   0  0  0  0  0  0  0  0  0  0  0  0
  1 11  1  0  0  0  0
  1  4  1  0  0  0  0
  2  8  1  0  0  0  0
  3 10  1  0  0  0  0
  4  5  1  0  0  0  0
  5  6  1  0  0  0  0
  7  8  2  0  0  0  0
  7 12  1  0  0  0  0
  8  9  1  0  0  0  0
  9 10  2  0  0  0  0
 10 11  1  0  0  0  0
 11 12  2  0  0  0  0
M  END
>  <CHROM.1>
-161.69441629,-173.76862741,-177.79807934,11.08422954,12.31498250,147.22591770
1.97758310,0.90072811,-0.11164887

>  <Name>
ligand

>  <RI>
0

>  <Rbt.Current_Directory>
/home/itssahil/PROJECTS/Mol_Feturizer/New_Systems/rnas/4NYA

>  <Rbt.Executable>
rbdock ($Id: //depot/dev/client3/rdock/2013.1/src/exe/rbdock.cxx#4 $)

>  <Rbt.Library>
libRbt.so (2013.1, Build901 2013/11/27)

>  <Rbt.Parameter_File>
/export/apps/rDock/src/rDock_2013.1_src/data/scripts/dock_solv.prm

>  <Rbt.Receptor>
prm/pocket_docking_6.prm

>  <SCORE>
-13.2913

>  <SCORE.INTER>
-12.6133

>  <SCORE.INTER.CONST>
1

>  <SCORE.INTER.POLAR>
0

>  <SCORE.INTER.ROT>
3

>  <SCORE.INTER.SOLV>
14.1105

>  <SCORE.INTER.VDW>
-18.7124

>  <SCORE.INTER.norm>
-1.05111

>  <SCORE.INTRA>
-0.678012

>  <SCORE.INTRA.DIHEDRAL>
-0.91465

>  <SCORE.INTRA.DIHEDRAL.0>
2.1382

>  <SCORE.INTRA.POLAR>
0

>  <SCORE.INTRA.POLAR.0>
0

>  <SCORE.INTRA.REPUL>
0

>  <SCORE.INTRA.REPUL.0>
0

>  <SCORE.INTRA.SOLV>
-1.54051

>  <SCORE.INTRA.SOLV.lig_0>
-59.6513

>  <SCORE.INTRA.VDW>
0.549569

>  <SCORE.INTRA.VDW.0>
-0.569808

>  <SCORE.INTRA.norm>
-0.056501

>  <SCORE.RESTR>
0

>  <SCORE.RESTR.CAVITY>
0

>  <SCORE.RESTR.norm>
0

>  <SCORE.SYSTEM>
0

>  <SCORE.SYSTEM.CONST>
0

>  <SCORE.SYSTEM.DIHEDRAL>
0

>  <SCORE.SYSTEM.SOLV>
0

>  <SCORE.SYSTEM.norm>
0

>  <SCORE.heavy>
12

>  <SCORE.norm>
-1.10761

>  <RMSD>
2.951

$$$$
ligand
 OpenBabel11021811503D
libRbt.so/2013.1/901 2013/11/27
 12 12  0  0  0  0  0  0  0  0999 V2000
   10.5652   13.5099  148.0464 C   0  0  0  0  0  0  0  0  0  0  0  0
   12.5116    8.8779  145.7832 C   0  0  0  0  0  0  0  0  0  0  0  0
    9.8711   11.0649  148.9915 N   0  0  0  0  0  0  0  0  0  0  0  0
   10.6086   14.6501  147.1189 N   0  0  0  0  0  0  0  0  0  0  0  0
   10.4275   15.6662  147.5631 N   0  0  0  0  0  0  0  0  0  0  0  0
   10.2521   16.6799  148.0106 N   0  0  0  0  0  0  0  0  0  0  0  0
   12.3820   11.2267  145.8344 N   0  0  0  0  0  0  0  0  0  0  0  0
   12.0203   10.0446  146.3559 C   0  0  0  0  0  0  0  0  0  0  0  0
   11.1364    9.9815  147.3619 N   0  0  0  0  0  0  0  0  0  0  0  0
   10.5945   11.0938  147.8761 C   0  0  0  0  0  0  0  0  0  0  0  0
   10.9269   12.3482  147.3747 C   0  0  0  0  0  0  0  0  0  0  0  0
   11.8341   12.4160  146.3266 C   0  0  0  0  0  0  0  0  0  0  0  0
  1 11  1  0  0  0  0
  1  4  1  0  0  0  0
  2  8  1  0  0  0  0
  3 10  1  0  0  0  0
  4  5  1  0  0  0  0
  5  6  1  0  0  0  0
  7  8  2  0  0  0  0
  7 12  1  0  0  0  0
  8  9  1  0  0  0  0
  9 10  2  0  0  0  0
 10 11  1  0  0  0  0
 11 12  2  0  0  0  0
M  END
>  <CHROM.1>
-160.50579508,-174.57679165,61.55176442,11.09079922,12.31567116,147.22294914
1.98492662,0.90732139,-0.11932758

>  <Name>
ligand

>  <RI>
0

>  <Rbt.Current_Directory>
/home/itssahil/PROJECTS/Mol_Feturizer/New_Systems/rnas/4NYA

>  <Rbt.Executable>
rbdock ($Id: //depot/dev/client3/rdock/2013.1/src/exe/rbdock.cxx#4 $)

>  <Rbt.Library>
libRbt.so (2013.1, Build901 2013/11/27)

>  <Rbt.Parameter_File>
/export/apps/rDock/src/rDock_2013.1_src/data/scripts/dock_solv.prm

>  <Rbt.Receptor>
prm/pocket_docking_8.prm

>  <SCORE>
-13.2698

>  <SCORE.INTER>
-12.5831

>  <SCORE.INTER.CONST>
1

>  <SCORE.INTER.POLAR>
0

>  <SCORE.INTER.ROT>
3

>  <SCORE.INTER.SOLV>
14.1635

>  <SCORE.INTER.VDW>
-18.7099

>  <SCORE.INTER.norm>
-1.04859

>  <SCORE.INTRA>
-0.68669

>  <SCORE.INTRA.DIHEDRAL>
-0.931487

>  <SCORE.INTRA.DIHEDRAL.0>
2.1382

>  <SCORE.INTRA.POLAR>
0

>  <SCORE.INTRA.POLAR.0>
0

>  <SCORE.INTRA.REPUL>
0

>  <SCORE.INTRA.REPUL.0>
0

>  <SCORE.INTRA.SOLV>
-1.53338

>  <SCORE.INTRA.SOLV.lig_0>
-59.6513

>  <SCORE.INTRA.VDW>
0.545742

>  <SCORE.INTRA.VDW.0>
-0.569808

>  <SCORE.INTRA.norm>
-0.0572242

>  <SCORE.RESTR>
0

>  <SCORE.RESTR.CAVITY>
0

>  <SCORE.RESTR.norm>
0

>  <SCORE.SYSTEM>
0

>  <SCORE.SYSTEM.CONST>
0

>  <SCORE.SYSTEM.DIHEDRAL>
0

>  <SCORE.SYSTEM.SOLV>
0

>  <SCORE.SYSTEM.norm>
0

>  <SCORE.heavy>
12

>  <SCORE.norm>
-1.10582

>  <RMSD>
2.952

$$$$
ligand
 OpenBabel11021811503D
libRbt.so/2013.1/901 2013/11/27
 12 12  0  0  0  0  0  0  0  0999 V2000
   10.5387   13.5153  148.0527 C   0  0  0  0  0  0  0  0  0  0  0  0
   12.3624    8.8345  145.7875 C   0  0  0  0  0  0  0  0  0  0  0  0
    9.7533   11.0891  148.9746 N   0  0  0  0  0  0  0  0  0  0  0  0
   10.6037   14.6546  147.1254 N   0  0  0  0  0  0  0  0  0  0  0  0
   10.4666   15.6758  147.5739 N   0  0  0  0  0  0  0  0  0  0  0  0
   10.3353   16.6942  148.0256 N   0  0  0  0  0  0  0  0  0  0  0  0
   12.3087   11.1860  145.8507 N   0  0  0  0  0  0  0  0  0  0  0  0
   11.9020   10.0135  146.3607 C   0  0  0  0  0  0  0  0  0  0  0  0
   11.0035    9.9738  147.3549 N   0  0  0  0  0  0  0  0  0  0  0  0
   10.4916   11.1004  147.8687 C   0  0  0  0  0  0  0  0  0  0  0  0
   10.8711   12.3460  147.3789 C   0  0  0  0  0  0  0  0  0  0  0  0
   11.7934   12.3898  146.3428 C   0  0  0  0  0  0  0  0  0  0  0  0
  1 11  1  0  0  0  0
  1  4  1  0  0  0  0
  2  8  1  0  0  0  0
  3 10  1  0  0  0  0
  4  5  1  0  0  0  0
  5  6  1  0  0  0  0
  7  8  2  0  0  0  0
  7 12  1  0  0  0  0
  8  9  1  0  0  0  0
  9 10  2  0  0  0  0
 10 11  1  0  0  0  0
 11 12  2  0  0  0  0
M  END
>  <CHROM.1>
-159.32287630,-173.47171587,61.07607825,11.03294222,12.30849794,147.22737709
1.93276134,0.89820530,-0.07383613

>  <Name>
ligand

>  <RI>
0

>  <Rbt.Current_Directory>
/home/itssahil/PROJECTS/Mol_Feturizer/New_Systems/rnas/4NYA

>  <Rbt.Executable>
rbdock ($Id: //depot/dev/client3/rdock/2013.1/src/exe/rbdock.cxx#4 $)

>  <Rbt.Library>
libRbt.so (2013.1, Build901 2013/11/27)

>  <Rbt.Parameter_File>
/export/apps/rDock/src/rDock_2013.1_src/data/scripts/dock_solv.prm

>  <Rbt.Receptor>
prm/pocket_docking_5.prm

>  <SCORE>
-13.3003

>  <SCORE.INTER>
-12.5963

>  <SCORE.INTER.CONST>
1

>  <SCORE.INTER.POLAR>
0

>  <SCORE.INTER.ROT>
3

>  <SCORE.INTER.SOLV>
13.9015

>  <SCORE.INTER.VDW>
-18.6314

>  <SCORE.INTER.norm>
-1.04969

>  <SCORE.INTRA>
-0.704021

>  <SCORE.INTRA.DIHEDRAL>
-0.927732

>  <SCORE.INTRA.DIHEDRAL.0>
2.1382

>  <SCORE.INTRA.POLAR>
0

>  <SCORE.INTRA.POLAR.0>
0

>  <SCORE.INTRA.REPUL>
0

>  <SCORE.INTRA.REPUL.0>
0

>  <SCORE.INTRA.SOLV>
-1.5261

>  <SCORE.INTRA.SOLV.lig_0>
-59.6513

>  <SCORE.INTRA.VDW>
0.522895

>  <SCORE.INTRA.VDW.0>
-0.569808

>  <SCORE.INTRA.norm>
-0.0586684

>  <SCORE.RESTR>
0

>  <SCORE.RESTR.CAVITY>
0

>  <SCORE.RESTR.norm>
0

>  <SCORE.SYSTEM>
0

>  <SCORE.SYSTEM.CONST>
0

>  <SCORE.SYSTEM.DIHEDRAL>
0

>  <SCORE.SYSTEM.SOLV>
0

>  <SCORE.SYSTEM.norm>
0

>  <SCORE.heavy>
12

>  <SCORE.norm>
-1.10836

>  <RMSD>
2.953

$$$$
ligand
 OpenBabel11021811503D
libRbt.so/2013.1/901 2013/11/27
 12 12  0  0  0  0  0  0  0  0999 V2000
   10.5357   13.5063  148.0429 C   0  0  0  0  0  0  0  0  0  0  0  0
   12.5125    8.8784  145.7977 C   0  0  0  0  0  0  0  0  0  0  0  0
    9.8420   11.0600  148.9848 N   0  0  0  0  0  0  0  0  0  0  0  0
   10.6118   14.6507  147.1226 N   0  0  0  0  0  0  0  0  0  0  0  0
   10.4672   15.6693  147.5747 N   0  0  0  0  0  0  0  0  0  0  0  0
   10.3283   16.6851  148.0300 N   0  0  0  0  0  0  0  0  0  0  0  0
   12.3755   11.2269  145.8461 N   0  0  0  0  0  0  0  0  0  0  0  0
   12.0135   10.0441  146.3659 C   0  0  0  0  0  0  0  0  0  0  0  0
   11.1224    9.9791  147.3654 N   0  0  0  0  0  0  0  0  0  0  0  0
   10.5735   11.0901  147.8748 C   0  0  0  0  0  0  0  0  0  0  0  0
   10.9058   12.3452  147.3748 C   0  0  0  0  0  0  0  0  0  0  0  0
   11.8204   12.4149  146.3333 C   0  0  0  0  0  0  0  0  0  0  0  0
  1 11  1  0  0  0  0
  1  4  1  0  0  0  0
  2  8  1  0  0  0  0
  3 10  1  0  0  0  0
  4  5  1  0  0  0  0
  5  6  1  0  0  0  0
  7  8  2  0  0  0  0
  7 12  1  0  0  0  0
  8  9  1  0  0  0  0
  9 10  2  0  0  0  0
 10 11  1  0  0  0  0
 11 12  2  0  0  0  0
M  END
>  <CHROM.1>
-161.77818453,-172.23371931,60.61989522,11.08970207,12.31490822,147.22890885
1.96631294,0.89841433,-0.10225833

>  <Name>
ligand

>  <RI>
0

>  <Rbt.Current_Directory>
/home/itssahil/PROJECTS/Mol_Feturizer/New_Systems/rnas/4NYA

>  <Rbt.Executable>
rbdock ($Id: //depot/dev/client3/rdock/2013.1/src/exe/rbdock.cxx#4 $)

>  <Rbt.Library>
libRbt.so (2013.1, Build901 2013/11/27)

>  <Rbt.Parameter_File>
/export/apps/rDock/src/rDock_2013.1_src/data/scripts/dock_solv.prm

>  <Rbt.Receptor>
prm/pocket_docking_6.prm

>  <SCORE>
-13.3123

>  <SCORE.INTER>
-12.6485

>  <SCORE.INTER.CONST>
1

>  <SCORE.INTER.POLAR>
0

>  <SCORE.INTER.ROT>
3

>  <SCORE.INTER.SOLV>
13.9734

>  <SCORE.INTER.VDW>
-18.6901

>  <SCORE.INTER.norm>
-1.05404

>  <SCORE.INTRA>
-0.663801

>  <SCORE.INTRA.DIHEDRAL>
-0.897925

>  <SCORE.INTRA.DIHEDRAL.0>
2.1382

>  <SCORE.INTRA.POLAR>
0

>  <SCORE.INTRA.POLAR.0>
0

>  <SCORE.INTRA.REPUL>
0

>  <SCORE.INTRA.REPUL.0>
0

>  <SCORE.INTRA.SOLV>
-1.5332

>  <SCORE.INTRA.SOLV.lig_0>
-59.6513

>  <SCORE.INTRA.VDW>
0.551763

>  <SCORE.INTRA.VDW.0>
-0.569808

>  <SCORE.INTRA.norm>
-0.0553167

>  <SCORE.RESTR>
0

>  <SCORE.RESTR.CAVITY>
0

>  <SCORE.RESTR.norm>
0

>  <SCORE.SYSTEM>
0

>  <SCORE.SYSTEM.CONST>
0

>  <SCORE.SYSTEM.DIHEDRAL>
0

>  <SCORE.SYSTEM.SOLV>
0

>  <SCORE.SYSTEM.norm>
0

>  <SCORE.heavy>
12

>  <SCORE.norm>
-1.10936

>  <RMSD>
2.953

$$$$
ligand
 OpenBabel11021811503D
libRbt.so/2013.1/901 2013/11/27
 12 12  0  0  0  0  0  0  0  0999 V2000
   10.5547   13.5085  148.0483 C   0  0  0  0  0  0  0  0  0  0  0  0
   12.5039    8.8723  145.7960 C   0  0  0  0  0  0  0  0  0  0  0  0
    9.8431   11.0648  148.9837 N   0  0  0  0  0  0  0  0  0  0  0  0
   10.6111   14.6499  147.1230 N   0  0  0  0  0  0  0  0  0  0  0  0
   10.4666   15.6692  147.5732 N   0  0  0  0  0  0  0  0  0  0  0  0
   10.3279   16.6859  148.0265 N   0  0  0  0  0  0  0  0  0  0  0  0
   12.3826   11.2216  145.8494 N   0  0  0  0  0  0  0  0  0  0  0  0
   12.0118   10.0401  146.3660 C   0  0  0  0  0  0  0  0  0  0  0  0
   11.1187    9.9789  147.3639 N   0  0  0  0  0  0  0  0  0  0  0  0
   10.5765   11.0925  147.8749 C   0  0  0  0  0  0  0  0  0  0  0  0
   10.9180   12.3464  147.3783 C   0  0  0  0  0  0  0  0  0  0  0  0
   11.8348   12.4122  146.3384 C   0  0  0  0  0  0  0  0  0  0  0  0
  1 11  1  0  0  0  0
  1  4  1  0  0  0  0
  2  8  1  0  0  0  0
  3 10  1  0  0  0  0
  4  5  1  0  0  0  0
  5  6  1  0  0  0  0
  7  8  2  0  0  0  0
  7 12  1  0  0  0  0
  8  9  1  0  0  0  0
  9 10  2  0  0  0  0
 10 11  1  0  0  0  0
 11 12  2  0  0  0  0
M  END
>  <CHROM.1>
-160.52757978,-172.44568686,62.18715756,11.09286414,12.31425619,147.22954157
1.96518023,0.89839513,-0.10126727

>  <Name>
ligand

>  <RI>
0

>  <Rbt.Current_Directory>
/home/itssahil/PROJECTS/Mol_Feturizer/New_Systems/rnas/4NYA

>  <Rbt.Executable>
rbdock ($Id: //depot/dev/client3/rdock/2013.1/src/exe/rbdock.cxx#4 $)

>  <Rbt.Library>
libRbt.so (2013.1, Build901 2013/11/27)

>  <Rbt.Parameter_File>
/export/apps/rDock/src/rDock_2013.1_src/data/scripts/dock_solv.prm

>  <Rbt.Receptor>
prm/pocket_docking_6.prm

>  <SCORE>
-13.2947

>  <SCORE.INTER>
-12.6211

>  <SCORE.INTER.CONST>
1

>  <SCORE.INTER.POLAR>
0

>  <SCORE.INTER.ROT>
3

>  <SCORE.INTER.SOLV>
13.9775

>  <SCORE.INTER.VDW>
-18.6732

>  <SCORE.INTER.norm>
-1.05176

>  <SCORE.INTRA>
-0.673603

>  <SCORE.INTRA.DIHEDRAL>
-0.908397

>  <SCORE.INTRA.DIHEDRAL.0>
2.1382

>  <SCORE.INTRA.POLAR>
0

>  <SCORE.INTRA.POLAR.0>
0

>  <SCORE.INTRA.REPUL>
0

>  <SCORE.INTRA.REPUL.0>
0

>  <SCORE.INTRA.SOLV>
-1.52888

>  <SCORE.INTRA.SOLV.lig_0>
-59.6513

>  <SCORE.INTRA.VDW>
0.545034

>  <SCORE.INTRA.VDW.0>
-0.569808

>  <SCORE.INTRA.norm>
-0.0561336

>  <SCORE.RESTR>
0

>  <SCORE.RESTR.CAVITY>
0

>  <SCORE.RESTR.norm>
0

>  <SCORE.SYSTEM>
0

>  <SCORE.SYSTEM.CONST>
0

>  <SCORE.SYSTEM.DIHEDRAL>
0

>  <SCORE.SYSTEM.SOLV>
0

>  <SCORE.SYSTEM.norm>
0

>  <SCORE.heavy>
12

>  <SCORE.norm>
-1.10789

>  <RMSD>
2.953

$$$$
ligand
 OpenBabel11021811503D
libRbt.so/2013.1/901 2013/11/27
 12 12  0  0  0  0  0  0  0  0999 V2000
   10.5579   13.5083  148.0476 C   0  0  0  0  0  0  0  0  0  0  0  0
   12.4978    8.8711  145.7893 C   0  0  0  0  0  0  0  0  0  0  0  0
    9.8408   11.0648  148.9794 N   0  0  0  0  0  0  0  0  0  0  0  0
   10.6088   14.6495  147.1217 N   0  0  0  0  0  0  0  0  0  0  0  0
   10.4634   15.6686  147.5721 N   0  0  0  0  0  0  0  0  0  0  0  0
   10.3236   16.6850  148.0258 N   0  0  0  0  0  0  0  0  0  0  0  0
   12.3815   11.2205  145.8460 N   0  0  0  0  0  0  0  0  0  0  0  0
   12.0081   10.0391  146.3608 C   0  0  0  0  0  0  0  0  0  0  0  0
   11.1146    9.9784  147.3584 N   0  0  0  0  0  0  0  0  0  0  0  0
   10.5746   11.0924  147.8708 C   0  0  0  0  0  0  0  0  0  0  0  0
   10.9189   12.3463  147.3760 C   0  0  0  0  0  0  0  0  0  0  0  0
   11.8361   12.4116  146.3364 C   0  0  0  0  0  0  0  0  0  0  0  0
  1 11  1  0  0  0  0
  1  4  1  0  0  0  0
  2  8  1  0  0  0  0
  3 10  1  0  0  0  0
  4  5  1  0  0  0  0
  5  6  1  0  0  0  0
  7  8  2  0  0  0  0
  7 12  1  0  0  0  0
  8  9  1  0  0  0  0
  9 10  2  0  0  0  0
 10 11  1  0  0  0  0
 11 12  2  0  0  0  0
M  END
>  <CHROM.1>
-160.17162899,-172.57416709,58.92108386,11.09080459,12.31368982,147.22643708
1.96498033,0.89860659,-0.10030776

>  <Name>
ligand

>  <RI>
0

>  <Rbt.Current_Directory>
/home/itssahil/PROJECTS/Mol_Feturizer/New_Systems/rnas/4NYA

>  <Rbt.Executable>
rbdock ($Id: //depot/dev/client3/rdock/2013.1/src/exe/rbdock.cxx#4 $)

>  <Rbt.Library>
libRbt.so (2013.1, Build901 2013/11/27)

>  <Rbt.Parameter_File>
/export/apps/rDock/src/rDock_2013.1_src/data/scripts/dock_solv.prm

>  <Rbt.Receptor>
prm/pocket_docking_7.prm

>  <SCORE>
-13.2918

>  <SCORE.INTER>
-12.6098

>  <SCORE.INTER.CONST>
1

>  <SCORE.INTER.POLAR>
0

>  <SCORE.INTER.ROT>
3

>  <SCORE.INTER.SOLV>
13.9899

>  <SCORE.INTER.VDW>
-18.6699

>  <SCORE.INTER.norm>
-1.05082

>  <SCORE.INTRA>
-0.681927

>  <SCORE.INTRA.DIHEDRAL>
-0.913126

>  <SCORE.INTRA.DIHEDRAL.0>
2.1382

>  <SCORE.INTRA.POLAR>
0

>  <SCORE.INTRA.POLAR.0>
0

>  <SCORE.INTRA.REPUL>
0

>  <SCORE.INTRA.REPUL.0>
0

>  <SCORE.INTRA.SOLV>
-1.52757

>  <SCORE.INTRA.SOLV.lig_0>
-59.6513

>  <SCORE.INTRA.VDW>
0.538423

>  <SCORE.INTRA.VDW.0>
-0.569808

>  <SCORE.INTRA.norm>
-0.0568272

>  <SCORE.RESTR>
0

>  <SCORE.RESTR.CAVITY>
0

>  <SCORE.RESTR.norm>
0

>  <SCORE.SYSTEM>
0

>  <SCORE.SYSTEM.CONST>
0

>  <SCORE.SYSTEM.DIHEDRAL>
0

>  <SCORE.SYSTEM.SOLV>
0

>  <SCORE.SYSTEM.norm>
0

>  <SCORE.heavy>
12

>  <SCORE.norm>
-1.10765

>  <RMSD>
2.953

$$$$
ligand
 OpenBabel11021811503D
libRbt.so/2013.1/901 2013/11/27
 12 12  0  0  0  0  0  0  0  0999 V2000
   10.5380   13.5060  148.0404 C   0  0  0  0  0  0  0  0  0  0  0  0
   12.5221    8.8821  145.7934 C   0  0  0  0  0  0  0  0  0  0  0  0
    9.8467   11.0582  148.9801 N   0  0  0  0  0  0  0  0  0  0  0  0
   10.6075   14.6502  147.1194 N   0  0  0  0  0  0  0  0  0  0  0  0
   10.4694   15.6691  147.5728 N   0  0  0  0  0  0  0  0  0  0  0  0
   10.3256   16.6843  148.0278 N   0  0  0  0  0  0  0  0  0  0  0  0
   12.3821   11.2304  145.8433 N   0  0  0  0  0  0  0  0  0  0  0  0
   12.0213   10.0468  146.3620 C   0  0  0  0  0  0  0  0  0  0  0  0
   11.1295    9.9800  147.3609 N   0  0  0  0  0  0  0  0  0  0  0  0
   10.5789   11.0900  147.8706 C   0  0  0  0  0  0  0  0  0  0  0  0
   10.9099   12.3458  147.3718 C   0  0  0  0  0  0  0  0  0  0  0  0
   11.8252   12.4174  146.3309 C   0  0  0  0  0  0  0  0  0  0  0  0
  1 11  1  0  0  0  0
  1  4  1  0  0  0  0
  2  8  1  0  0  0  0
  3 10  1  0  0  0  0
  4  5  1  0  0  0  0
  5  6  1  0  0  0  0
  7  8  2  0  0  0  0
  7 12  1  0  0  0  0
  8  9  1  0  0  0  0
  9 10  2  0  0  0  0
 10 11  1  0  0  0  0
 11 12  2  0  0  0  0
M  END
>  <CHROM.1>
-161.52460605,-171.73642971,-57.25345634,11.09361828,12.31576892,147.22559760
1.96849977,0.89767977,-0.10351807

>  <Name>
ligand

>  <RI>
0

>  <Rbt.Current_Directory>
/home/itssahil/PROJECTS/Mol_Feturizer/New_Systems/rnas/4NYA

>  <Rbt.Executable>
rbdock ($Id: //depot/dev/client3/rdock/2013.1/src/exe/rbdock.cxx#4 $)

>  <Rbt.Library>
libRbt.so (2013.1, Build901 2013/11/27)

>  <Rbt.Parameter_File>
/export/apps/rDock/src/rDock_2013.1_src/data/scripts/dock_solv.prm

>  <Rbt.Receptor>
prm/pocket_docking_7.prm

>  <SCORE>
-13.3087

>  <SCORE.INTER>
-12.6442

>  <SCORE.INTER.CONST>
1

>  <SCORE.INTER.POLAR>
0

>  <SCORE.INTER.ROT>
3

>  <SCORE.INTER.SOLV>
14.0042

>  <SCORE.INTER.VDW>
-18.6975

>  <SCORE.INTER.norm>
-1.05368

>  <SCORE.INTRA>
-0.664502

>  <SCORE.INTRA.DIHEDRAL>
-0.891612

>  <SCORE.INTRA.DIHEDRAL.0>
2.1382

>  <SCORE.INTRA.POLAR>
0

>  <SCORE.INTRA.POLAR.0>
0

>  <SCORE.INTRA.REPUL>
0

>  <SCORE.INTRA.REPUL.0>
0

>  <SCORE.INTRA.SOLV>
-1.53094

>  <SCORE.INTRA.SOLV.lig_0>
-59.6513

>  <SCORE.INTRA.VDW>
0.546774

>  <SCORE.INTRA.VDW.0>
-0.569808

>  <SCORE.INTRA.norm>
-0.0553752

>  <SCORE.RESTR>
0

>  <SCORE.RESTR.CAVITY>
0

>  <SCORE.RESTR.norm>
0

>  <SCORE.SYSTEM>
0

>  <SCORE.SYSTEM.CONST>
0

>  <SCORE.SYSTEM.DIHEDRAL>
0

>  <SCORE.SYSTEM.SOLV>
0

>  <SCORE.SYSTEM.norm>
0

>  <SCORE.heavy>
12

>  <SCORE.norm>
-1.10905

>  <RMSD>
2.953

$$$$
ligand
 OpenBabel11021811503D
libRbt.so/2013.1/901 2013/11/27
 12 12  0  0  0  0  0  0  0  0999 V2000
   10.5632   13.5283  148.0622 C   0  0  0  0  0  0  0  0  0  0  0  0
   12.4322    8.8714  145.7849 C   0  0  0  0  0  0  0  0  0  0  0  0
    9.8016   11.0923  148.9781 N   0  0  0  0  0  0  0  0  0  0  0  0
   10.6016   14.6682  147.1342 N   0  0  0  0  0  0  0  0  0  0  0  0
   10.4638   15.6881  147.5853 N   0  0  0  0  0  0  0  0  0  0  0  0
   10.3262   16.7090  148.0295 N   0  0  0  0  0  0  0  0  0  0  0  0
   12.3555   11.2221  145.8542 N   0  0  0  0  0  0  0  0  0  0  0  0
   11.9603   10.0444  146.3612 C   0  0  0  0  0  0  0  0  0  0  0  0
   11.0625    9.9934  147.3554 N   0  0  0  0  0  0  0  0  0  0  0  0
   10.5396   11.1135  147.8722 C   0  0  0  0  0  0  0  0  0  0  0  0
   10.9068   12.3641  147.3854 C   0  0  0  0  0  0  0  0  0  0  0  0
   11.8286   12.4196  146.3493 C   0  0  0  0  0  0  0  0  0  0  0  0
  1 11  1  0  0  0  0
  1  4  1  0  0  0  0
  2  8  1  0  0  0  0
  3 10  1  0  0  0  0
  4  5  1  0  0  0  0
  5  6  1  0  0  0  0
  7  8  2  0  0  0  0
  7 12  1  0  0  0  0
  8  9  1  0  0  0  0
  9 10  2  0  0  0  0
 10 11  1  0  0  0  0
 11 12  2  0  0  0  0
M  END
>  <CHROM.1>
-158.66451552,-172.86152224,-174.43281181,11.06695971,12.32856787,147.23197671
1.95004751,0.89776553,-0.08622240

>  <Name>
ligand

>  <RI>
0

>  <Rbt.Current_Directory>
/home/itssahil/PROJECTS/Mol_Feturizer/New_Systems/rnas/4NYA

>  <Rbt.Executable>
rbdock ($Id: //depot/dev/client3/rdock/2013.1/src/exe/rbdock.cxx#4 $)

>  <Rbt.Library>
libRbt.so (2013.1, Build901 2013/11/27)

>  <Rbt.Parameter_File>
/export/apps/rDock/src/rDock_2013.1_src/data/scripts/dock_solv.prm

>  <Rbt.Receptor>
prm/pocket_docking_7.prm

>  <SCORE>
-13.2758

>  <SCORE.INTER>
-12.5637

>  <SCORE.INTER.CONST>
1

>  <SCORE.INTER.POLAR>
0

>  <SCORE.INTER.ROT>
3

>  <SCORE.INTER.SOLV>
13.9491

>  <SCORE.INTER.VDW>
-18.6255

>  <SCORE.INTER.norm>
-1.04698

>  <SCORE.INTRA>
-0.712042

>  <SCORE.INTRA.DIHEDRAL>
-0.915728

>  <SCORE.INTRA.DIHEDRAL.0>
2.1382

>  <SCORE.INTRA.POLAR>
0

>  <SCORE.INTRA.POLAR.0>
0

>  <SCORE.INTRA.REPUL>
0

>  <SCORE.INTRA.REPUL.0>
0

>  <SCORE.INTRA.SOLV>
-1.52604

>  <SCORE.INTRA.SOLV.lig_0>
-59.6513

>  <SCORE.INTRA.VDW>
0.508843

>  <SCORE.INTRA.VDW.0>
-0.569808

>  <SCORE.INTRA.norm>
-0.0593368

>  <SCORE.RESTR>
0

>  <SCORE.RESTR.CAVITY>
0

>  <SCORE.RESTR.norm>
0

>  <SCORE.SYSTEM>
0

>  <SCORE.SYSTEM.CONST>
0

>  <SCORE.SYSTEM.DIHEDRAL>
0

>  <SCORE.SYSTEM.SOLV>
0

>  <SCORE.SYSTEM.norm>
0

>  <SCORE.heavy>
12

>  <SCORE.norm>
-1.10632

>  <RMSD>
2.953

$$$$
ligand
 OpenBabel11021811503D
libRbt.so/2013.1/901 2013/11/27
 12 12  0  0  0  0  0  0  0  0999 V2000
   10.5381   13.5076  148.0295 C   0  0  0  0  0  0  0  0  0  0  0  0
   12.5294    8.8795  145.7975 C   0  0  0  0  0  0  0  0  0  0  0  0
    9.8459   11.0616  148.9734 N   0  0  0  0  0  0  0  0  0  0  0  0
   10.6105   14.6499  147.1064 N   0  0  0  0  0  0  0  0  0  0  0  0
   10.4308   15.6665  147.5502 N   0  0  0  0  0  0  0  0  0  0  0  0
   10.2453   16.6794  147.9953 N   0  0  0  0  0  0  0  0  0  0  0  0
   12.3882   11.2278  145.8417 N   0  0  0  0  0  0  0  0  0  0  0  0
   12.0268   10.0452  146.3623 C   0  0  0  0  0  0  0  0  0  0  0  0
   11.1329    9.9803  147.3594 N   0  0  0  0  0  0  0  0  0  0  0  0
   10.5806   11.0912  147.8654 C   0  0  0  0  0  0  0  0  0  0  0  0
   10.9121   12.3460  147.3643 C   0  0  0  0  0  0  0  0  0  0  0  0
   11.8296   12.4156  146.3253 C   0  0  0  0  0  0  0  0  0  0  0  0
  1 11  1  0  0  0  0
  1  4  1  0  0  0  0
  2  8  1  0  0  0  0
  3 10  1  0  0  0  0
  4  5  1  0  0  0  0
  5  6  1  0  0  0  0
  7  8  2  0  0  0  0
  7 12  1  0  0  0  0
  8  9  1  0  0  0  0
  9 10  2  0  0  0  0
 10 11  1  0  0  0  0
 11 12  2  0  0  0  0
M  END
>  <CHROM.1>
-161.58940928,-174.07447286,-58.71904819,11.08599650,12.31493108,147.21691219
1.98148920,0.89592995,-0.11726725

>  <Name>
ligand

>  <RI>
0

>  <Rbt.Current_Directory>
/home/itssahil/PROJECTS/Mol_Feturizer/New_Systems/rnas/4NYA

>  <Rbt.Executable>
rbdock ($Id: //depot/dev/client3/rdock/2013.1/src/exe/rbdock.cxx#4 $)

>  <Rbt.Library>
libRbt.so (2013.1, Build901 2013/11/27)

>  <Rbt.Parameter_File>
/export/apps/rDock/src/rDock_2013.1_src/data/scripts/dock_solv.prm

>  <Rbt.Receptor>
prm/pocket_docking_5.prm

>  <SCORE>
-13.286

>  <SCORE.INTER>
-12.6074

>  <SCORE.INTER.CONST>
1

>  <SCORE.INTER.POLAR>
0

>  <SCORE.INTER.ROT>
3

>  <SCORE.INTER.SOLV>
14.2613

>  <SCORE.INTER.VDW>
-18.7587

>  <SCORE.INTER.norm>
-1.05062

>  <SCORE.INTRA>
-0.678656

>  <SCORE.INTRA.DIHEDRAL>
-0.919366

>  <SCORE.INTRA.DIHEDRAL.0>
2.1382

>  <SCORE.INTRA.POLAR>
0

>  <SCORE.INTRA.POLAR.0>
0

>  <SCORE.INTRA.REPUL>
0

>  <SCORE.INTRA.REPUL.0>
0

>  <SCORE.INTRA.SOLV>
-1.53641

>  <SCORE.INTRA.SOLV.lig_0>
-59.6513

>  <SCORE.INTRA.VDW>
0.549234

>  <SCORE.INTRA.VDW.0>
-0.569808

>  <SCORE.INTRA.norm>
-0.0565547

>  <SCORE.RESTR>
0

>  <SCORE.RESTR.CAVITY>
0

>  <SCORE.RESTR.norm>
0

>  <SCORE.SYSTEM>
0

>  <SCORE.SYSTEM.CONST>
0

>  <SCORE.SYSTEM.DIHEDRAL>
0

>  <SCORE.SYSTEM.SOLV>
0

>  <SCORE.SYSTEM.norm>
0

>  <SCORE.heavy>
12

>  <SCORE.norm>
-1.10717

>  <RMSD>
2.954

$$$$
ligand
 OpenBabel11021811503D
libRbt.so/2013.1/901 2013/11/27
 12 12  0  0  0  0  0  0  0  0999 V2000
   10.5539   13.5217  148.0452 C   0  0  0  0  0  0  0  0  0  0  0  0
   12.5094    8.8874  145.7946 C   0  0  0  0  0  0  0  0  0  0  0  0
    9.8321   11.0771  148.9704 N   0  0  0  0  0  0  0  0  0  0  0  0
   10.5917   14.6607  147.1160 N   0  0  0  0  0  0  0  0  0  0  0  0
   10.4575   15.6813  147.5667 N   0  0  0  0  0  0  0  0  0  0  0  0
   10.3178   16.6981  148.0195 N   0  0  0  0  0  0  0  0  0  0  0  0
   12.3919   11.2367  145.8527 N   0  0  0  0  0  0  0  0  0  0  0  0
   12.0158   10.0547  146.3642 C   0  0  0  0  0  0  0  0  0  0  0  0
   11.1162    9.9928  147.3562 N   0  0  0  0  0  0  0  0  0  0  0  0
   10.5727   11.1061  147.8664 C   0  0  0  0  0  0  0  0  0  0  0  0
   10.9195   12.3605  147.3748 C   0  0  0  0  0  0  0  0  0  0  0  0
   11.8430   12.4272  146.3409 C   0  0  0  0  0  0  0  0  0  0  0  0
  1 11  1  0  0  0  0
  1  4  1  0  0  0  0
  2  8  1  0  0  0  0
  3 10  1  0  0  0  0
  4  5  1  0  0  0  0
  5  6  1  0  0  0  0
  7  8  2  0  0  0  0
  7 12  1  0  0  0  0
  8  9  1  0  0  0  0
  9 10  2  0  0  0  0
 10 11  1  0  0  0  0
 11 12  2  0  0  0  0
M  END
>  <CHROM.1>
-159.37830170,-171.64749321,-54.64281331,11.09031997,12.32773274,147.22497081
1.96631709,0.89277582,-0.10126569

>  <Name>
ligand

>  <RI>
0

>  <Rbt.Current_Directory>
/home/itssahil/PROJECTS/Mol_Feturizer/New_Systems/rnas/4NYA

>  <Rbt.Executable>
rbdock ($Id: //depot/dev/client3/rdock/2013.1/src/exe/rbdock.cxx#4 $)

>  <Rbt.Library>
libRbt.so (2013.1, Build901 2013/11/27)

>  <Rbt.Parameter_File>
/export/apps/rDock/src/rDock_2013.1_src/data/scripts/dock_solv.prm

>  <Rbt.Receptor>
prm/pocket_docking_5.prm

>  <SCORE>
-13.2692

>  <SCORE.INTER>
-12.5822

>  <SCORE.INTER.CONST>
1

>  <SCORE.INTER.POLAR>
0

>  <SCORE.INTER.ROT>
3

>  <SCORE.INTER.SOLV>
14.0857

>  <SCORE.INTER.VDW>
-18.6834

>  <SCORE.INTER.norm>
-1.04852

>  <SCORE.INTRA>
-0.686944

>  <SCORE.INTRA.DIHEDRAL>
-0.898209

>  <SCORE.INTRA.DIHEDRAL.0>
2.1382

>  <SCORE.INTRA.POLAR>
0

>  <SCORE.INTRA.POLAR.0>
0

>  <SCORE.INTRA.REPUL>
0

>  <SCORE.INTRA.REPUL.0>
0

>  <SCORE.INTRA.SOLV>
-1.52182

>  <SCORE.INTRA.SOLV.lig_0>
-59.6513

>  <SCORE.INTRA.VDW>
0.523068

>  <SCORE.INTRA.VDW.0>
-0.569808

>  <SCORE.INTRA.norm>
-0.0572454

>  <SCORE.RESTR>
0

>  <SCORE.RESTR.CAVITY>
0

>  <SCORE.RESTR.norm>
0

>  <SCORE.SYSTEM>
0

>  <SCORE.SYSTEM.CONST>
0

>  <SCORE.SYSTEM.DIHEDRAL>
0

>  <SCORE.SYSTEM.SOLV>
0

>  <SCORE.SYSTEM.norm>
0

>  <SCORE.heavy>
12

>  <SCORE.norm>
-1.10576

>  <RMSD>
2.955

$$$$
ligand
 OpenBabel11021811503D
libRbt.so/2013.1/901 2013/11/27
 12 12  0  0  0  0  0  0  0  0999 V2000
   10.5606   13.5317  148.0509 C   0  0  0  0  0  0  0  0  0  0  0  0
   12.4326    8.8707  145.7844 C   0  0  0  0  0  0  0  0  0  0  0  0
    9.7980   11.0973  148.9702 N   0  0  0  0  0  0  0  0  0  0  0  0
   10.5888   14.6681  147.1182 N   0  0  0  0  0  0  0  0  0  0  0  0
   10.4587   15.6899  147.5674 N   0  0  0  0  0  0  0  0  0  0  0  0
   10.3344   16.7090  148.0194 N   0  0  0  0  0  0  0  0  0  0  0  0
   12.3557   11.2215  145.8493 N   0  0  0  0  0  0  0  0  0  0  0  0
   11.9600   10.0447  146.3579 C   0  0  0  0  0  0  0  0  0  0  0  0
   11.0609    9.9955  147.3512 N   0  0  0  0  0  0  0  0  0  0  0  0
   10.5374   11.1166  147.8652 C   0  0  0  0  0  0  0  0  0  0  0  0
   10.9051   12.3663  147.3767 C   0  0  0  0  0  0  0  0  0  0  0  0
   11.8281   12.4199  146.3416 C   0  0  0  0  0  0  0  0  0  0  0  0
  1 11  1  0  0  0  0
  1  4  1  0  0  0  0
  2  8  1  0  0  0  0
  3 10  1  0  0  0  0
  4  5  1  0  0  0  0
  5  6  1  0  0  0  0
  7  8  2  0  0  0  0
  7 12  1  0  0  0  0
  8  9  1  0  0  0  0
  9 10  2  0  0  0  0
 10 11  1  0  0  0  0
 11 12  2  0  0  0  0
M  END
>  <CHROM.1>
-158.18178011,-172.32888213,61.00365637,11.06514810,12.32997706,147.22364737
1.94992614,0.89674115,-0.08762278

>  <Name>
ligand

>  <RI>
0

>  <Rbt.Current_Directory>
/home/itssahil/PROJECTS/Mol_Feturizer/New_Systems/rnas/4NYA

>  <Rbt.Executable>
rbdock ($Id: //depot/dev/client3/rdock/2013.1/src/exe/rbdock.cxx#4 $)

>  <Rbt.Library>
libRbt.so (2013.1, Build901 2013/11/27)

>  <Rbt.Parameter_File>
/export/apps/rDock/src/rDock_2013.1_src/data/scripts/dock_solv.prm

>  <Rbt.Receptor>
prm/pocket_docking_5.prm

>  <SCORE>
-13.2791

>  <SCORE.INTER>
-12.5612

>  <SCORE.INTER.CONST>
1

>  <SCORE.INTER.POLAR>
0

>  <SCORE.INTER.ROT>
3

>  <SCORE.INTER.SOLV>
14.0171

>  <SCORE.INTER.VDW>
-18.6465

>  <SCORE.INTER.norm>
-1.04677

>  <SCORE.INTRA>
-0.717835

>  <SCORE.INTRA.DIHEDRAL>
-0.919255

>  <SCORE.INTRA.DIHEDRAL.0>
2.1382

>  <SCORE.INTRA.POLAR>
0

>  <SCORE.INTRA.POLAR.0>
0

>  <SCORE.INTRA.REPUL>
0

>  <SCORE.INTRA.REPUL.0>
0

>  <SCORE.INTRA.SOLV>
-1.51834

>  <SCORE.INTRA.SOLV.lig_0>
-59.6513

>  <SCORE.INTRA.VDW>
0.500963

>  <SCORE.INTRA.VDW.0>
-0.569808

>  <SCORE.INTRA.norm>
-0.0598196

>  <SCORE.RESTR>
0

>  <SCORE.RESTR.CAVITY>
0

>  <SCORE.RESTR.norm>
0

>  <SCORE.SYSTEM>
0

>  <SCORE.SYSTEM.CONST>
0

>  <SCORE.SYSTEM.DIHEDRAL>
0

>  <SCORE.SYSTEM.SOLV>
0

>  <SCORE.SYSTEM.norm>
0

>  <SCORE.heavy>
12

>  <SCORE.norm>
-1.10659

>  <RMSD>
2.956

$$$$
ligand
 OpenBabel11021811503D
libRbt.so/2013.1/901 2013/11/27
 12 12  0  0  0  0  0  0  0  0999 V2000
   10.5380   13.5091  148.0291 C   0  0  0  0  0  0  0  0  0  0  0  0
   12.5118    8.8772  145.7894 C   0  0  0  0  0  0  0  0  0  0  0  0
    9.8397   11.0642  148.9714 N   0  0  0  0  0  0  0  0  0  0  0  0
   10.6112   14.6519  147.1067 N   0  0  0  0  0  0  0  0  0  0  0  0
   10.4577   15.6705  147.5557 N   0  0  0  0  0  0  0  0  0  0  0  0
   10.3101   16.6865  148.0078 N   0  0  0  0  0  0  0  0  0  0  0  0
   12.3779   11.2259  145.8363 N   0  0  0  0  0  0  0  0  0  0  0  0
   12.0136   10.0439  146.3562 C   0  0  0  0  0  0  0  0  0  0  0  0
   11.1210    9.9807  147.3545 N   0  0  0  0  0  0  0  0  0  0  0  0
   10.5728   11.0927  147.8624 C   0  0  0  0  0  0  0  0  0  0  0  0
   10.9075   12.3471  147.3622 C   0  0  0  0  0  0  0  0  0  0  0  0
   11.8237   12.4149  146.3220 C   0  0  0  0  0  0  0  0  0  0  0  0
  1 11  1  0  0  0  0
  1  4  1  0  0  0  0
  2  8  1  0  0  0  0
  3 10  1  0  0  0  0
  4  5  1  0  0  0  0
  5  6  1  0  0  0  0
  7  8  2  0  0  0  0
  7 12  1  0  0  0  0
  8  9  1  0  0  0  0
  9 10  2  0  0  0  0
 10 11  1  0  0  0  0
 11 12  2  0  0  0  0
M  END
>  <CHROM.1>
-161.52799964,-172.76516905,63.07655065,11.08758482,12.31614037,147.21557141
1.96860994,0.89742863,-0.10536462

>  <Name>
ligand

>  <RI>
0

>  <Rbt.Current_Directory>
/home/itssahil/PROJECTS/Mol_Feturizer/New_Systems/rnas/4NYA

>  <Rbt.Executable>
rbdock ($Id: //depot/dev/client3/rdock/2013.1/src/exe/rbdock.cxx#4 $)

>  <Rbt.Library>
libRbt.so (2013.1, Build901 2013/11/27)

>  <Rbt.Parameter_File>
/export/apps/rDock/src/rDock_2013.1_src/data/scripts/dock_solv.prm

>  <Rbt.Receptor>
prm/pocket_docking_6.prm

>  <SCORE>
-13.2961

>  <SCORE.INTER>
-12.6247

>  <SCORE.INTER.CONST>
1

>  <SCORE.INTER.POLAR>
0

>  <SCORE.INTER.ROT>
3

>  <SCORE.INTER.SOLV>
14.116

>  <SCORE.INTER.VDW>
-18.7218

>  <SCORE.INTER.norm>
-1.05206

>  <SCORE.INTRA>
-0.671426

>  <SCORE.INTRA.DIHEDRAL>
-0.903815

>  <SCORE.INTRA.DIHEDRAL.0>
2.1382

>  <SCORE.INTRA.POLAR>
0

>  <SCORE.INTRA.POLAR.0>
0

>  <SCORE.INTRA.REPUL>
0

>  <SCORE.INTRA.REPUL.0>
0

>  <SCORE.INTRA.SOLV>
-1.53357

>  <SCORE.INTRA.SOLV.lig_0>
-59.6513

>  <SCORE.INTRA.VDW>
0.547266

>  <SCORE.INTRA.VDW.0>
-0.569808

>  <SCORE.INTRA.norm>
-0.0559522

>  <SCORE.RESTR>
0

>  <SCORE.RESTR.CAVITY>
0

>  <SCORE.RESTR.norm>
0

>  <SCORE.SYSTEM>
0

>  <SCORE.SYSTEM.CONST>
0

>  <SCORE.SYSTEM.DIHEDRAL>
0

>  <SCORE.SYSTEM.SOLV>
0

>  <SCORE.SYSTEM.norm>
0

>  <SCORE.heavy>
12

>  <SCORE.norm>
-1.10801

>  <RMSD>
2.957

$$$$
ligand
 OpenBabel11021811503D
libRbt.so/2013.1/901 2013/11/27
 12 12  0  0  0  0  0  0  0  0999 V2000
   10.5501   13.5399  148.0446 C   0  0  0  0  0  0  0  0  0  0  0  0
   12.4594    8.8900  145.7865 C   0  0  0  0  0  0  0  0  0  0  0  0
    9.8815   11.1028  149.0278 N   0  0  0  0  0  0  0  0  0  0  0  0
   10.6066   14.6767  147.1137 N   0  0  0  0  0  0  0  0  0  0  0  0
   10.4197   15.6945  147.5518 N   0  0  0  0  0  0  0  0  0  0  0  0
   10.2269   16.7085  147.9913 N   0  0  0  0  0  0  0  0  0  0  0  0
   12.3255   11.2390  145.8175 N   0  0  0  0  0  0  0  0  0  0  0  0
   11.9775   10.0613  146.3580 C   0  0  0  0  0  0  0  0  0  0  0  0
   11.1149   10.0061  147.3827 N   0  0  0  0  0  0  0  0  0  0  0  0
   10.5814   11.1222  147.8974 C   0  0  0  0  0  0  0  0  0  0  0  0
   10.9003   12.3724  147.3769 C   0  0  0  0  0  0  0  0  0  0  0  0
   11.7852   12.4318  146.3094 C   0  0  0  0  0  0  0  0  0  0  0  0
  1 11  1  0  0  0  0
  1  4  1  0  0  0  0
  2  8  1  0  0  0  0
  3 10  1  0  0  0  0
  4  5  1  0  0  0  0
  5  6  1  0  0  0  0
  7  8  2  0  0  0  0
  7 12  1  0  0  0  0
  8  9  1  0  0  0  0
  9 10  2  0  0  0  0
 10 11  1  0  0  0  0
 11 12  2  0  0  0  0
M  END
>  <CHROM.1>
-162.02032390,-175.50391615,-59.10300573,11.06589179,12.33949584,147.22411558
1.98846664,0.92704075,-0.13047209

>  <Name>
ligand

>  <RI>
0

>  <Rbt.Current_Directory>
/home/itssahil/PROJECTS/Mol_Feturizer/New_Systems/rnas/4NYA

>  <Rbt.Executable>
rbdock ($Id: //depot/dev/client3/rdock/2013.1/src/exe/rbdock.cxx#4 $)

>  <Rbt.Library>
libRbt.so (2013.1, Build901 2013/11/27)

>  <Rbt.Parameter_File>
/export/apps/rDock/src/rDock_2013.1_src/data/scripts/dock_solv.prm

>  <Rbt.Receptor>
prm/pocket_docking_6.prm

>  <SCORE>
-13.2399

>  <SCORE.INTER>
-12.5635

>  <SCORE.INTER.CONST>
1

>  <SCORE.INTER.POLAR>
0

>  <SCORE.INTER.ROT>
3

>  <SCORE.INTER.SOLV>
14.2116

>  <SCORE.INTER.VDW>
-18.7129

>  <SCORE.INTER.norm>
-1.04696

>  <SCORE.INTRA>
-0.676415

>  <SCORE.INTRA.DIHEDRAL>
-0.928187

>  <SCORE.INTRA.DIHEDRAL.0>
2.1382

>  <SCORE.INTRA.POLAR>
0

>  <SCORE.INTRA.POLAR.0>
0

>  <SCORE.INTRA.REPUL>
0

>  <SCORE.INTRA.REPUL.0>
0

>  <SCORE.INTRA.SOLV>
-1.54079

>  <SCORE.INTRA.SOLV.lig_0>
-59.6513

>  <SCORE.INTRA.VDW>
0.558073

>  <SCORE.INTRA.VDW.0>
-0.569808

>  <SCORE.INTRA.norm>
-0.0563679

>  <SCORE.RESTR>
0

>  <SCORE.RESTR.CAVITY>
0

>  <SCORE.RESTR.norm>
0

>  <SCORE.SYSTEM>
0

>  <SCORE.SYSTEM.CONST>
0

>  <SCORE.SYSTEM.DIHEDRAL>
0

>  <SCORE.SYSTEM.SOLV>
0

>  <SCORE.SYSTEM.norm>
0

>  <SCORE.heavy>
12

>  <SCORE.norm>
-1.10332

>  <RMSD>
2.957

$$$$
ligand
 OpenBabel11021811503D
libRbt.so/2013.1/901 2013/11/27
 12 12  0  0  0  0  0  0  0  0999 V2000
   10.5505   13.5049  148.0244 C   0  0  0  0  0  0  0  0  0  0  0  0
   12.5334    8.8808  145.7766 C   0  0  0  0  0  0  0  0  0  0  0  0
    9.8750   11.0576  148.9770 N   0  0  0  0  0  0  0  0  0  0  0  0
   10.6111   14.6468  147.0999 N   0  0  0  0  0  0  0  0  0  0  0  0
   10.4459   15.6644  147.5470 N   0  0  0  0  0  0  0  0  0  0  0  0
   10.2750   16.6782  147.9957 N   0  0  0  0  0  0  0  0  0  0  0  0
   12.3857   11.2288  145.8203 N   0  0  0  0  0  0  0  0  0  0  0  0
   12.0329   10.0456  146.3454 C   0  0  0  0  0  0  0  0  0  0  0  0
   11.1491    9.9788  147.3513 N   0  0  0  0  0  0  0  0  0  0  0  0
   10.5986   11.0885  147.8618 C   0  0  0  0  0  0  0  0  0  0  0  0
   10.9214   12.3439  147.3565 C   0  0  0  0  0  0  0  0  0  0  0  0
   11.8284   12.4153  146.3085 C   0  0  0  0  0  0  0  0  0  0  0  0
  1 11  1  0  0  0  0
  1  4  1  0  0  0  0
  2  8  1  0  0  0  0
  3 10  1  0  0  0  0
  4  5  1  0  0  0  0
  5  6  1  0  0  0  0
  7  8  2  0  0  0  0
  7 12  1  0  0  0  0
  8  9  1  0  0  0  0
  9 10  2  0  0  0  0
 10 11  1  0  0  0  0
 11 12  2  0  0  0  0
M  END
>  <CHROM.1>
-161.61762970,-173.31596744,-56.95823808,11.09752686,12.31350330,147.20812822
1.98364843,0.90523523,-0.11925697

>  <Name>
ligand

>  <RI>
0

>  <Rbt.Current_Directory>
/home/itssahil/PROJECTS/Mol_Feturizer/New_Systems/rnas/4NYA

>  <Rbt.Executable>
rbdock ($Id: //depot/dev/client3/rdock/2013.1/src/exe/rbdock.cxx#4 $)

>  <Rbt.Library>
libRbt.so (2013.1, Build901 2013/11/27)

>  <Rbt.Parameter_File>
/export/apps/rDock/src/rDock_2013.1_src/data/scripts/dock_solv.prm

>  <Rbt.Receptor>
prm/pocket_docking_6.prm

>  <SCORE>
-13.281

>  <SCORE.INTER>
-12.6084

>  <SCORE.INTER.CONST>
1

>  <SCORE.INTER.POLAR>
0

>  <SCORE.INTER.ROT>
3

>  <SCORE.INTER.SOLV>
14.2307

>  <SCORE.INTER.VDW>
-18.7491

>  <SCORE.INTER.norm>
-1.0507

>  <SCORE.INTRA>
-0.672682

>  <SCORE.INTRA.DIHEDRAL>
-0.909339

>  <SCORE.INTRA.DIHEDRAL.0>
2.1382

>  <SCORE.INTRA.POLAR>
0

>  <SCORE.INTRA.POLAR.0>
0

>  <SCORE.INTRA.REPUL>
0

>  <SCORE.INTRA.REPUL.0>
0

>  <SCORE.INTRA.SOLV>
-1.53485

>  <SCORE.INTRA.SOLV.lig_0>
-59.6513

>  <SCORE.INTRA.VDW>
0.549413

>  <SCORE.INTRA.VDW.0>
-0.569808

>  <SCORE.INTRA.norm>
-0.0560568

>  <SCORE.RESTR>
0

>  <SCORE.RESTR.CAVITY>
0

>  <SCORE.RESTR.norm>
0

>  <SCORE.SYSTEM>
0

>  <SCORE.SYSTEM.CONST>
0

>  <SCORE.SYSTEM.DIHEDRAL>
0

>  <SCORE.SYSTEM.SOLV>
0

>  <SCORE.SYSTEM.norm>
0

>  <SCORE.heavy>
12

>  <SCORE.norm>
-1.10675

>  <RMSD>
2.957

$$$$
ligand
 OpenBabel11021811503D
libRbt.so/2013.1/901 2013/11/27
 12 12  0  0  0  0  0  0  0  0999 V2000
   10.5571   13.5503  148.0540 C   0  0  0  0  0  0  0  0  0  0  0  0
   12.3866    8.8711  145.7902 C   0  0  0  0  0  0  0  0  0  0  0  0
    9.7944   11.1233  148.9928 N   0  0  0  0  0  0  0  0  0  0  0  0
   10.5870   14.6833  147.1172 N   0  0  0  0  0  0  0  0  0  0  0  0
   10.4538   15.7065  147.5620 N   0  0  0  0  0  0  0  0  0  0  0  0
   10.3265   16.7271  148.0099 N   0  0  0  0  0  0  0  0  0  0  0  0
   12.3198   11.2225  145.8447 N   0  0  0  0  0  0  0  0  0  0  0  0
   11.9247   10.0497  146.3630 C   0  0  0  0  0  0  0  0  0  0  0  0
   11.0359   10.0088  147.3658 N   0  0  0  0  0  0  0  0  0  0  0  0
   10.5223   11.1344  147.8800 C   0  0  0  0  0  0  0  0  0  0  0  0
   10.8898   12.3803  147.3817 C   0  0  0  0  0  0  0  0  0  0  0  0
   11.8022   12.4253  146.3368 C   0  0  0  0  0  0  0  0  0  0  0  0
  1 11  1  0  0  0  0
  1  4  1  0  0  0  0
  2  8  1  0  0  0  0
  3 10  1  0  0  0  0
  4  5  1  0  0  0  0
  5  6  1  0  0  0  0
  7  8  2  0  0  0  0
  7 12  1  0  0  0  0
  8  9  1  0  0  0  0
  9 10  2  0  0  0  0
 10 11  1  0  0  0  0
 11 12  2  0  0  0  0
M  END
>  <CHROM.1>
-158.47488624,-173.04549622,60.91140266,11.04682003,12.34262050,147.22742147
1.94693001,0.90756514,-0.08987958

>  <Name>
ligand

>  <RI>
0

>  <Rbt.Current_Directory>
/home/itssahil/PROJECTS/Mol_Feturizer/New_Systems/rnas/4NYA

>  <Rbt.Executable>
rbdock ($Id: //depot/dev/client3/rdock/2013.1/src/exe/rbdock.cxx#4 $)

>  <Rbt.Library>
libRbt.so (2013.1, Build901 2013/11/27)

>  <Rbt.Parameter_File>
/export/apps/rDock/src/rDock_2013.1_src/data/scripts/dock_solv.prm

>  <Rbt.Receptor>
prm/pocket_docking_5.prm

>  <SCORE>
-13.255

>  <SCORE.INTER>
-12.5378

>  <SCORE.INTER.CONST>
1

>  <SCORE.INTER.POLAR>
0

>  <SCORE.INTER.ROT>
3

>  <SCORE.INTER.SOLV>
14.0157

>  <SCORE.INTER.VDW>
-18.6304

>  <SCORE.INTER.norm>
-1.04482

>  <SCORE.INTRA>
-0.717231

>  <SCORE.INTRA.DIHEDRAL>
-0.926725

>  <SCORE.INTRA.DIHEDRAL.0>
2.1382

>  <SCORE.INTRA.POLAR>
0

>  <SCORE.INTRA.POLAR.0>
0

>  <SCORE.INTRA.REPUL>
0

>  <SCORE.INTRA.REPUL.0>
0

>  <SCORE.INTRA.SOLV>
-1.52137

>  <SCORE.INTRA.SOLV.lig_0>
-59.6513

>  <SCORE.INTRA.VDW>
0.506817

>  <SCORE.INTRA.VDW.0>
-0.569808

>  <SCORE.INTRA.norm>
-0.0597692

>  <SCORE.RESTR>
0

>  <SCORE.RESTR.CAVITY>
0

>  <SCORE.RESTR.norm>
0

>  <SCORE.SYSTEM>
0

>  <SCORE.SYSTEM.CONST>
0

>  <SCORE.SYSTEM.DIHEDRAL>
0

>  <SCORE.SYSTEM.SOLV>
0

>  <SCORE.SYSTEM.norm>
0

>  <SCORE.heavy>
12

>  <SCORE.norm>
-1.10459

>  <RMSD>
2.959

$$$$
ligand
 OpenBabel11021811503D
libRbt.so/2013.1/901 2013/11/27
 12 12  0  0  0  0  0  0  0  0999 V2000
   10.5927   13.5144  148.0275 C   0  0  0  0  0  0  0  0  0  0  0  0
   12.5137    8.8661  145.7759 C   0  0  0  0  0  0  0  0  0  0  0  0
    9.8878   11.0757  148.9808 N   0  0  0  0  0  0  0  0  0  0  0  0
   10.6047   14.6455  147.0879 N   0  0  0  0  0  0  0  0  0  0  0  0
   10.3978   15.6612  147.5219 N   0  0  0  0  0  0  0  0  0  0  0  0
   10.1855   16.6728  147.9578 N   0  0  0  0  0  0  0  0  0  0  0  0
   12.3956   11.2157  145.8202 N   0  0  0  0  0  0  0  0  0  0  0  0
   12.0288   10.0370  146.3457 C   0  0  0  0  0  0  0  0  0  0  0  0
   11.1458    9.9812  147.3529 N   0  0  0  0  0  0  0  0  0  0  0  0
   10.6100   11.0976  147.8645 C   0  0  0  0  0  0  0  0  0  0  0  0
   10.9479   12.3489  147.3589 C   0  0  0  0  0  0  0  0  0  0  0  0
   11.8541   12.4091  146.3094 C   0  0  0  0  0  0  0  0  0  0  0  0
  1 11  1  0  0  0  0
  1  4  1  0  0  0  0
  2  8  1  0  0  0  0
  3 10  1  0  0  0  0
  4  5  1  0  0  0  0
  5  6  1  0  0  0  0
  7  8  2  0  0  0  0
  7 12  1  0  0  0  0
  8  9  1  0  0  0  0
  9 10  2  0  0  0  0
 10 11  1  0  0  0  0
 11 12  2  0  0  0  0
M  END
>  <CHROM.1>
-158.96170080,-176.20074610,-54.36811289,11.09296700,12.31271994,147.20272486
1.99896233,0.91007917,-0.13633743

>  <Name>
ligand

>  <RI>
0

>  <Rbt.Current_Directory>
/home/itssahil/PROJECTS/Mol_Feturizer/New_Systems/rnas/4NYA

>  <Rbt.Executable>
rbdock ($Id: //depot/dev/client3/rdock/2013.1/src/exe/rbdock.cxx#4 $)

>  <Rbt.Library>
libRbt.so (2013.1, Build901 2013/11/27)

>  <Rbt.Parameter_File>
/export/apps/rDock/src/rDock_2013.1_src/data/scripts/dock_solv.prm

>  <Rbt.Receptor>
prm/pocket_docking_7.prm

>  <SCORE>
-13.2618

>  <SCORE.INTER>
-12.5425

>  <SCORE.INTER.CONST>
1

>  <SCORE.INTER.POLAR>
0

>  <SCORE.INTER.ROT>
3

>  <SCORE.INTER.SOLV>
14.47

>  <SCORE.INTER.VDW>
-18.785

>  <SCORE.INTER.norm>
-1.04521

>  <SCORE.INTRA>
-0.719292

>  <SCORE.INTRA.DIHEDRAL>
-0.943923

>  <SCORE.INTRA.DIHEDRAL.0>
2.1382

>  <SCORE.INTRA.POLAR>
0

>  <SCORE.INTRA.POLAR.0>
0

>  <SCORE.INTRA.REPUL>
0

>  <SCORE.INTRA.REPUL.0>
0

>  <SCORE.INTRA.SOLV>
-1.52981

>  <SCORE.INTRA.SOLV.lig_0>
-59.6513

>  <SCORE.INTRA.VDW>
0.517577

>  <SCORE.INTRA.VDW.0>
-0.569808

>  <SCORE.INTRA.norm>
-0.059941

>  <SCORE.RESTR>
0

>  <SCORE.RESTR.CAVITY>
0

>  <SCORE.RESTR.norm>
0

>  <SCORE.SYSTEM>
0

>  <SCORE.SYSTEM.CONST>
0

>  <SCORE.SYSTEM.DIHEDRAL>
0

>  <SCORE.SYSTEM.SOLV>
0

>  <SCORE.SYSTEM.norm>
0

>  <SCORE.heavy>
12

>  <SCORE.norm>
-1.10515

>  <RMSD>
2.959

$$$$
ligand
 OpenBabel11021811503D
libRbt.so/2013.1/901 2013/11/27
 12 12  0  0  0  0  0  0  0  0999 V2000
   10.5559   13.5284  148.0272 C   0  0  0  0  0  0  0  0  0  0  0  0
   12.5084    8.8822  145.7984 C   0  0  0  0  0  0  0  0  0  0  0  0
    9.8745   11.0899  148.9980 N   0  0  0  0  0  0  0  0  0  0  0  0
   10.6153   14.6641  147.0950 N   0  0  0  0  0  0  0  0  0  0  0  0
   10.4472   15.6843  147.5350 N   0  0  0  0  0  0  0  0  0  0  0  0
   10.2851   16.7022  147.9778 N   0  0  0  0  0  0  0  0  0  0  0  0
   12.3708   11.2310  145.8284 N   0  0  0  0  0  0  0  0  0  0  0  0
   12.0155   10.0526  146.3625 C   0  0  0  0  0  0  0  0  0  0  0  0
   11.1363    9.9957  147.3729 N   0  0  0  0  0  0  0  0  0  0  0  0
   10.5929   11.1109  147.8792 C   0  0  0  0  0  0  0  0  0  0  0  0
   10.9186   12.3617  147.3647 C   0  0  0  0  0  0  0  0  0  0  0  0
   11.8209   12.4229  146.3120 C   0  0  0  0  0  0  0  0  0  0  0  0
  1 11  1  0  0  0  0
  1  4  1  0  0  0  0
  2  8  1  0  0  0  0
  3 10  1  0  0  0  0
  4  5  1  0  0  0  0
  5  6  1  0  0  0  0
  7  8  2  0  0  0  0
  7 12  1  0  0  0  0
  8  9  1  0  0  0  0
  9 10  2  0  0  0  0
 10 11  1  0  0  0  0
 11 12  2  0  0  0  0
M  END
>  <CHROM.1>
-161.54928067,-173.85084592,64.85053372,11.09207250,12.32957772,147.21522031
1.97980929,0.91058453,-0.12269119

>  <Name>
ligand

>  <RI>
0

>  <Rbt.Current_Directory>
/home/itssahil/PROJECTS/Mol_Feturizer/New_Systems/rnas/4NYA

>  <Rbt.Executable>
rbdock ($Id: //depot/dev/client3/rdock/2013.1/src/exe/rbdock.cxx#4 $)

>  <Rbt.Library>
libRbt.so (2013.1, Build901 2013/11/27)

>  <Rbt.Parameter_File>
/export/apps/rDock/src/rDock_2013.1_src/data/scripts/dock_solv.prm

>  <Rbt.Receptor>
prm/pocket_docking_5.prm

>  <SCORE>
-13.2713

>  <SCORE.INTER>
-12.5957

>  <SCORE.INTER.CONST>
1

>  <SCORE.INTER.POLAR>
0

>  <SCORE.INTER.ROT>
3

>  <SCORE.INTER.SOLV>
14.2519

>  <SCORE.INTER.VDW>
-18.7478

>  <SCORE.INTER.norm>
-1.04965

>  <SCORE.INTRA>
-0.67559

>  <SCORE.INTRA.DIHEDRAL>
-0.91153

>  <SCORE.INTRA.DIHEDRAL.0>
2.1382

>  <SCORE.INTRA.POLAR>
0

>  <SCORE.INTRA.POLAR.0>
0

>  <SCORE.INTRA.REPUL>
0

>  <SCORE.INTRA.REPUL.0>
0

>  <SCORE.INTRA.SOLV>
-1.53607

>  <SCORE.INTRA.SOLV.lig_0>
-59.6513

>  <SCORE.INTRA.VDW>
0.548211

>  <SCORE.INTRA.VDW.0>
-0.569808

>  <SCORE.INTRA.norm>
-0.0562991

>  <SCORE.RESTR>
0

>  <SCORE.RESTR.CAVITY>
0

>  <SCORE.RESTR.norm>
0

>  <SCORE.SYSTEM>
0

>  <SCORE.SYSTEM.CONST>
0

>  <SCORE.SYSTEM.DIHEDRAL>
0

>  <SCORE.SYSTEM.SOLV>
0

>  <SCORE.SYSTEM.norm>
0

>  <SCORE.heavy>
12

>  <SCORE.norm>
-1.10594

>  <RMSD>
2.964

$$$$
ligand
 OpenBabel11021811503D
libRbt.so/2013.1/901 2013/11/27
 12 12  0  0  0  0  0  0  0  0999 V2000
   10.5481   13.5671  148.0527 C   0  0  0  0  0  0  0  0  0  0  0  0
   12.3776    8.8922  145.7803 C   0  0  0  0  0  0  0  0  0  0  0  0
    9.8574   11.1393  149.0433 N   0  0  0  0  0  0  0  0  0  0  0  0
   10.6006   14.7013  147.1182 N   0  0  0  0  0  0  0  0  0  0  0  0
   10.4658   15.7247  147.5622 N   0  0  0  0  0  0  0  0  0  0  0  0
   10.3253   16.7444  148.0082 N   0  0  0  0  0  0  0  0  0  0  0  0
   12.2740   11.2426  145.8111 N   0  0  0  0  0  0  0  0  0  0  0  0
   11.9159   10.0698  146.3553 C   0  0  0  0  0  0  0  0  0  0  0  0
   11.0619   10.0261  147.3879 N   0  0  0  0  0  0  0  0  0  0  0  0
   10.5473   11.1492  147.9066 C   0  0  0  0  0  0  0  0  0  0  0  0
   10.8774   12.3950  147.3825 C   0  0  0  0  0  0  0  0  0  0  0  0
   11.7534   12.4426  146.3071 C   0  0  0  0  0  0  0  0  0  0  0  0
  1 11  1  0  0  0  0
  1  4  1  0  0  0  0
  2  8  1  0  0  0  0
  3 10  1  0  0  0  0
  4  5  1  0  0  0  0
  5  6  1  0  0  0  0
  7  8  2  0  0  0  0
  7 12  1  0  0  0  0
  8  9  1  0  0  0  0
  9 10  2  0  0  0  0
 10 11  1  0  0  0  0
 11 12  2  0  0  0  0
M  END
>  <CHROM.1>
-161.58267401,-173.41240238,-56.05790366,11.04775000,12.36030474,147.22896770
1.96007424,0.93740565,-0.10768487

>  <Name>
ligand

>  <RI>
0

>  <Rbt.Current_Directory>
/home/itssahil/PROJECTS/Mol_Feturizer/New_Systems/rnas/4NYA

>  <Rbt.Executable>
rbdock ($Id: //depot/dev/client3/rdock/2013.1/src/exe/rbdock.cxx#4 $)

>  <Rbt.Library>
libRbt.so (2013.1, Build901 2013/11/27)

>  <Rbt.Parameter_File>
/export/apps/rDock/src/rDock_2013.1_src/data/scripts/dock_solv.prm

>  <Rbt.Receptor>
prm/pocket_docking_5.prm

>  <SCORE>
-13.2797

>  <SCORE.INTER>
-12.6066

>  <SCORE.INTER.CONST>
1

>  <SCORE.INTER.POLAR>
0

>  <SCORE.INTER.ROT>
3

>  <SCORE.INTER.SOLV>
13.9517

>  <SCORE.INTER.VDW>
-18.655

>  <SCORE.INTER.norm>
-1.05055

>  <SCORE.INTRA>
-0.673098

>  <SCORE.INTRA.DIHEDRAL>
-0.908931

>  <SCORE.INTRA.DIHEDRAL.0>
2.1382

>  <SCORE.INTRA.POLAR>
0

>  <SCORE.INTRA.POLAR.0>
0

>  <SCORE.INTRA.REPUL>
0

>  <SCORE.INTRA.REPUL.0>
0

>  <SCORE.INTRA.SOLV>
-1.53489

>  <SCORE.INTRA.SOLV.lig_0>
-59.6513

>  <SCORE.INTRA.VDW>
0.548811

>  <SCORE.INTRA.VDW.0>
-0.569808

>  <SCORE.INTRA.norm>
-0.0560915

>  <SCORE.RESTR>
0

>  <SCORE.RESTR.CAVITY>
0

>  <SCORE.RESTR.norm>
0

>  <SCORE.SYSTEM>
0

>  <SCORE.SYSTEM.CONST>
0

>  <SCORE.SYSTEM.DIHEDRAL>
0

>  <SCORE.SYSTEM.SOLV>
0

>  <SCORE.SYSTEM.norm>
0

>  <SCORE.heavy>
12

>  <SCORE.norm>
-1.10664

>  <RMSD>
2.964

$$$$
ligand
 OpenBabel11021811503D
libRbt.so/2013.1/901 2013/11/27
 12 12  0  0  0  0  0  0  0  0999 V2000
   10.5782   13.5641  148.0480 C   0  0  0  0  0  0  0  0  0  0  0  0
   12.3850    8.8746  145.7875 C   0  0  0  0  0  0  0  0  0  0  0  0
    9.8619   11.1419  149.0343 N   0  0  0  0  0  0  0  0  0  0  0  0
   10.5969   14.6905  147.1029 N   0  0  0  0  0  0  0  0  0  0  0  0
   10.4092   15.7111  147.5340 N   0  0  0  0  0  0  0  0  0  0  0  0
   10.2274   16.7293  147.9682 N   0  0  0  0  0  0  0  0  0  0  0  0
   12.2998   11.2258  145.8176 N   0  0  0  0  0  0  0  0  0  0  0  0
   11.9289   10.0559  146.3595 C   0  0  0  0  0  0  0  0  0  0  0  0
   11.0680   10.0191  147.3866 N   0  0  0  0  0  0  0  0  0  0  0  0
   10.5591   11.1463  147.9020 C   0  0  0  0  0  0  0  0  0  0  0  0
   10.9024   12.3893  147.3800 C   0  0  0  0  0  0  0  0  0  0  0  0
   11.7856   12.4299  146.3102 C   0  0  0  0  0  0  0  0  0  0  0  0
  1 11  1  0  0  0  0
  1  4  1  0  0  0  0
  2  8  1  0  0  0  0
  3 10  1  0  0  0  0
  4  5  1  0  0  0  0
  5  6  1  0  0  0  0
  7  8  2  0  0  0  0
  7 12  1  0  0  0  0
  8  9  1  0  0  0  0
  9 10  2  0  0  0  0
 10 11  1  0  0  0  0
 11 12  2  0  0  0  0
M  END
>  <CHROM.1>
-159.49629332,-176.52486531,61.66050188,11.04658669,12.35052020,147.22165216
1.97797158,0.93381891,-0.12612388

>  <Name>
ligand

>  <RI>
0

>  <Rbt.Current_Directory>
/home/itssahil/PROJECTS/Mol_Feturizer/New_Systems/rnas/4NYA

>  <Rbt.Executable>
rbdock ($Id: //depot/dev/client3/rdock/2013.1/src/exe/rbdock.cxx#4 $)

>  <Rbt.Library>
libRbt.so (2013.1, Build901 2013/11/27)

>  <Rbt.Parameter_File>
/export/apps/rDock/src/rDock_2013.1_src/data/scripts/dock_solv.prm

>  <Rbt.Receptor>
prm/pocket_docking_6.prm

>  <SCORE>
-13.2642

>  <SCORE.INTER>
-12.5497

>  <SCORE.INTER.CONST>
1

>  <SCORE.INTER.POLAR>
0

>  <SCORE.INTER.ROT>
3

>  <SCORE.INTER.SOLV>
14.2375

>  <SCORE.INTER.VDW>
-18.7123

>  <SCORE.INTER.norm>
-1.04581

>  <SCORE.INTRA>
-0.714547

>  <SCORE.INTRA.DIHEDRAL>
-0.951256

>  <SCORE.INTRA.DIHEDRAL.0>
2.1382

>  <SCORE.INTRA.POLAR>
0

>  <SCORE.INTRA.POLAR.0>
0

>  <SCORE.INTRA.REPUL>
0

>  <SCORE.INTRA.REPUL.0>
0

>  <SCORE.INTRA.SOLV>
-1.53299

>  <SCORE.INTRA.SOLV.lig_0>
-59.6513

>  <SCORE.INTRA.VDW>
0.527575

>  <SCORE.INTRA.VDW.0>
-0.569808

>  <SCORE.INTRA.norm>
-0.0595456

>  <SCORE.RESTR>
0

>  <SCORE.RESTR.CAVITY>
0

>  <SCORE.RESTR.norm>
0

>  <SCORE.SYSTEM>
0

>  <SCORE.SYSTEM.CONST>
0

>  <SCORE.SYSTEM.DIHEDRAL>
0

>  <SCORE.SYSTEM.SOLV>
0

>  <SCORE.SYSTEM.norm>
0

>  <SCORE.heavy>
12

>  <SCORE.norm>
-1.10535

>  <RMSD>
2.964

$$$$
ligand
 OpenBabel11021811503D
libRbt.so/2013.1/901 2013/11/27
 12 12  0  0  0  0  0  0  0  0999 V2000
   10.5553   13.5608  148.0457 C   0  0  0  0  0  0  0  0  0  0  0  0
   12.4672    8.9026  145.8069 C   0  0  0  0  0  0  0  0  0  0  0  0
    9.8513   11.1263  149.0102 N   0  0  0  0  0  0  0  0  0  0  0  0
   10.5690   14.6889  147.1026 N   0  0  0  0  0  0  0  0  0  0  0  0
   10.4605   15.7157  147.5461 N   0  0  0  0  0  0  0  0  0  0  0  0
   10.3582   16.7401  147.9917 N   0  0  0  0  0  0  0  0  0  0  0  0
   12.3508   11.2525  145.8426 N   0  0  0  0  0  0  0  0  0  0  0  0
   11.9846   10.0760  146.3735 C   0  0  0  0  0  0  0  0  0  0  0  0
   11.1042   10.0247  147.3833 N   0  0  0  0  0  0  0  0  0  0  0  0
   10.5705   11.1434  147.8919 C   0  0  0  0  0  0  0  0  0  0  0  0
   10.9079   12.3926  147.3807 C   0  0  0  0  0  0  0  0  0  0  0  0
   11.8114   12.4481  146.3286 C   0  0  0  0  0  0  0  0  0  0  0  0
  1 11  1  0  0  0  0
  1  4  1  0  0  0  0
  2  8  1  0  0  0  0
  3 10  1  0  0  0  0
  4  5  1  0  0  0  0
  5  6  1  0  0  0  0
  7  8  2  0  0  0  0
  7 12  1  0  0  0  0
  8  9  1  0  0  0  0
  9 10  2  0  0  0  0
 10 11  1  0  0  0  0
 11 12  2  0  0  0  0
M  END
>  <CHROM.1>
-159.11006217,-170.64409686,67.17155099,11.07965591,12.35837595,147.22784935
1.96412429,0.91159888,-0.11007951

>  <Name>
ligand

>  <RI>
0

>  <Rbt.Current_Directory>
/home/itssahil/PROJECTS/Mol_Feturizer/New_Systems/rnas/4NYA

>  <Rbt.Executable>
rbdock ($Id: //depot/dev/client3/rdock/2013.1/src/exe/rbdock.cxx#4 $)

>  <Rbt.Library>
libRbt.so (2013.1, Build901 2013/11/27)

>  <Rbt.Parameter_File>
/export/apps/rDock/src/rDock_2013.1_src/data/scripts/dock_solv.prm

>  <Rbt.Receptor>
prm/pocket_docking_6.prm

>  <SCORE>
-13.2379

>  <SCORE.INTER>
-12.5562

>  <SCORE.INTER.CONST>
1

>  <SCORE.INTER.POLAR>
0

>  <SCORE.INTER.ROT>
3

>  <SCORE.INTER.SOLV>
14.0963

>  <SCORE.INTER.VDW>
-18.6695

>  <SCORE.INTER.norm>
-1.04635

>  <SCORE.INTRA>
-0.681786

>  <SCORE.INTRA.DIHEDRAL>
-0.879242

>  <SCORE.INTRA.DIHEDRAL.0>
2.1382

>  <SCORE.INTRA.POLAR>
0

>  <SCORE.INTRA.POLAR.0>
0

>  <SCORE.INTRA.REPUL>
0

>  <SCORE.INTRA.REPUL.0>
0

>  <SCORE.INTRA.SOLV>
-1.51864

>  <SCORE.INTRA.SOLV.lig_0>
-59.6513

>  <SCORE.INTRA.VDW>
0.517157

>  <SCORE.INTRA.VDW.0>
-0.569808

>  <SCORE.INTRA.norm>
-0.0568155

>  <SCORE.RESTR>
0

>  <SCORE.RESTR.CAVITY>
0

>  <SCORE.RESTR.norm>
0

>  <SCORE.SYSTEM>
0

>  <SCORE.SYSTEM.CONST>
0

>  <SCORE.SYSTEM.DIHEDRAL>
0

>  <SCORE.SYSTEM.SOLV>
0

>  <SCORE.SYSTEM.norm>
0

>  <SCORE.heavy>
12

>  <SCORE.norm>
-1.10316

>  <RMSD>
2.967

$$$$
ligand
 OpenBabel11021811503D
libRbt.so/2013.1/901 2013/11/27
 12 12  0  0  0  0  0  0  0  0999 V2000
   10.6027   13.5687  148.0593 C   0  0  0  0  0  0  0  0  0  0  0  0
   12.3523    8.8631  145.7871 C   0  0  0  0  0  0  0  0  0  0  0  0
    9.8484   11.1529  149.0330 N   0  0  0  0  0  0  0  0  0  0  0  0
   10.6048   14.6929  147.1115 N   0  0  0  0  0  0  0  0  0  0  0  0
   10.4691   15.7190  147.5490 N   0  0  0  0  0  0  0  0  0  0  0  0
   10.3279   16.7413  147.9888 N   0  0  0  0  0  0  0  0  0  0  0  0
   12.3001   11.2151  145.8263 N   0  0  0  0  0  0  0  0  0  0  0  0
   11.9106   10.0484  146.3621 C   0  0  0  0  0  0  0  0  0  0  0  0
   11.0452   10.0197  147.3856 N   0  0  0  0  0  0  0  0  0  0  0  0
   10.5501   11.1519  147.9035 C   0  0  0  0  0  0  0  0  0  0  0  0
   10.9130   12.3920  147.3878 C   0  0  0  0  0  0  0  0  0  0  0  0
   11.8010   12.4244  146.3217 C   0  0  0  0  0  0  0  0  0  0  0  0
  1 11  1  0  0  0  0
  1  4  1  0  0  0  0
  2  8  1  0  0  0  0
  3 10  1  0  0  0  0
  4  5  1  0  0  0  0
  5  6  1  0  0  0  0
  7  8  2  0  0  0  0
  7 12  1  0  0  0  0
  8  9  1  0  0  0  0
  9 10  2  0  0  0  0
 10 11  1  0  0  0  0
 11 12  2  0  0  0  0
M  END
>  <CHROM.1>
-157.94935389,-174.05458971,-55.13838226,11.05706508,12.35151249,147.22875607
1.95225727,0.93199010,-0.10227149

>  <Name>
ligand

>  <RI>
0

>  <Rbt.Current_Directory>
/home/itssahil/PROJECTS/Mol_Feturizer/New_Systems/rnas/4NYA

>  <Rbt.Executable>
rbdock ($Id: //depot/dev/client3/rdock/2013.1/src/exe/rbdock.cxx#4 $)

>  <Rbt.Library>
libRbt.so (2013.1, Build901 2013/11/27)

>  <Rbt.Parameter_File>
/export/apps/rDock/src/rDock_2013.1_src/data/scripts/dock_solv.prm

>  <Rbt.Receptor>
prm/pocket_docking_6.prm

>  <SCORE>
-13.2959

>  <SCORE.INTER>
-12.5668

>  <SCORE.INTER.CONST>
1

>  <SCORE.INTER.POLAR>
0

>  <SCORE.INTER.ROT>
3

>  <SCORE.INTER.SOLV>
13.9804

>  <SCORE.INTER.VDW>
-18.638

>  <SCORE.INTER.norm>
-1.04724

>  <SCORE.INTRA>
-0.729094

>  <SCORE.INTRA.DIHEDRAL>
-0.932698

>  <SCORE.INTRA.DIHEDRAL.0>
2.1382

>  <SCORE.INTRA.POLAR>
0

>  <SCORE.INTRA.POLAR.0>
0

>  <SCORE.INTRA.REPUL>
0

>  <SCORE.INTRA.REPUL.0>
0

>  <SCORE.INTRA.SOLV>
-1.52097

>  <SCORE.INTRA.SOLV.lig_0>
-59.6513

>  <SCORE.INTRA.VDW>
0.497739

>  <SCORE.INTRA.VDW.0>
-0.569808

>  <SCORE.INTRA.norm>
-0.0607578

>  <SCORE.RESTR>
0

>  <SCORE.RESTR.CAVITY>
0

>  <SCORE.RESTR.norm>
0

>  <SCORE.SYSTEM>
0

>  <SCORE.SYSTEM.CONST>
0

>  <SCORE.SYSTEM.DIHEDRAL>
0

>  <SCORE.SYSTEM.SOLV>
0

>  <SCORE.SYSTEM.norm>
0

>  <SCORE.heavy>
12

>  <SCORE.norm>
-1.10799

>  <RMSD>
2.968

$$$$
ligand
 OpenBabel11021811503D
libRbt.so/2013.1/901 2013/11/27
 12 12  0  0  0  0  0  0  0  0999 V2000
   10.0993   14.7638  148.0315 C   0  0  0  0  0  0  0  0  0  0  0  0
   12.2448   10.0776  146.0813 C   0  0  0  0  0  0  0  0  0  0  0  0
    9.6080   12.3741  149.2152 N   0  0  0  0  0  0  0  0  0  0  0  0
   11.2785   15.5346  148.4530 N   0  0  0  0  0  0  0  0  0  0  0  0
   11.0854   16.4393  149.0909 N   0  0  0  0  0  0  0  0  0  0  0  0
   10.8885   17.3449  149.7230 N   0  0  0  0  0  0  0  0  0  0  0  0
   11.9643   12.4093  145.9374 N   0  0  0  0  0  0  0  0  0  0  0  0
   11.7035   11.2581  146.5752 C   0  0  0  0  0  0  0  0  0  0  0  0
   10.8698   11.2303  147.6247 N   0  0  0  0  0  0  0  0  0  0  0  0
   10.2791   12.3484  148.0676 C   0  0  0  0  0  0  0  0  0  0  0  0
   10.5068   13.5715  147.4450 C   0  0  0  0  0  0  0  0  0  0  0  0
   11.3616   13.6017  146.3519 C   0  0  0  0  0  0  0  0  0  0  0  0
  1 11  1  0  0  0  0
  1  4  1  0  0  0  0
  2  8  1  0  0  0  0
  3 10  1  0  0  0  0
  4  5  1  0  0  0  0
  5  6  1  0  0  0  0
  7  8  2  0  0  0  0
  7 12  1  0  0  0  0
  8  9  1  0  0  0  0
  9 10  2  0  0  0  0
 10 11  1  0  0  0  0
 11 12  2  0  0  0  0
M  END
>  <CHROM.1>
111.09949604,-170.30217619,-56.35519387,11.00007370,13.42725187,147.73605315
1.77868870,0.88396752,0.28253458

>  <Name>
ligand

>  <RI>
0

>  <Rbt.Current_Directory>
/home/itssahil/PROJECTS/Mol_Feturizer/New_Systems/rnas/4NYA

>  <Rbt.Executable>
rbdock ($Id: //depot/dev/client3/rdock/2013.1/src/exe/rbdock.cxx#4 $)

>  <Rbt.Library>
libRbt.so (2013.1, Build901 2013/11/27)

>  <Rbt.Parameter_File>
/export/apps/rDock/src/rDock_2013.1_src/data/scripts/dock_solv.prm

>  <Rbt.Receptor>
prm/pocket_docking_6.prm

>  <SCORE>
-12.2549

>  <SCORE.INTER>
-11.6726

>  <SCORE.INTER.CONST>
1

>  <SCORE.INTER.POLAR>
0

>  <SCORE.INTER.ROT>
3

>  <SCORE.INTER.SOLV>
9.11542

>  <SCORE.INTER.VDW>
-16.4202

>  <SCORE.INTER.norm>
-0.97272

>  <SCORE.INTRA>
-0.582263

>  <SCORE.INTRA.DIHEDRAL>
-0.458474

>  <SCORE.INTRA.DIHEDRAL.0>
2.1382

>  <SCORE.INTRA.POLAR>
0

>  <SCORE.INTRA.POLAR.0>
0

>  <SCORE.INTRA.REPUL>
0

>  <SCORE.INTRA.REPUL.0>
0

>  <SCORE.INTRA.SOLV>
-0.856553

>  <SCORE.INTRA.SOLV.lig_0>
-59.6513

>  <SCORE.INTRA.VDW>
0.075251

>  <SCORE.INTRA.VDW.0>
-0.569808

>  <SCORE.INTRA.norm>
-0.0485219

>  <SCORE.RESTR>
0

>  <SCORE.RESTR.CAVITY>
0

>  <SCORE.RESTR.norm>
0

>  <SCORE.SYSTEM>
0

>  <SCORE.SYSTEM.CONST>
0

>  <SCORE.SYSTEM.DIHEDRAL>
0

>  <SCORE.SYSTEM.SOLV>
0

>  <SCORE.SYSTEM.norm>
0

>  <SCORE.heavy>
12

>  <SCORE.norm>
-1.02124

>  <RMSD>
2.970

$$$$
ligand
 OpenBabel11021811503D
libRbt.so/2013.1/901 2013/11/27
 12 12  0  0  0  0  0  0  0  0999 V2000
   10.4657   13.7179  147.9829 C   0  0  0  0  0  0  0  0  0  0  0  0
   12.4657    9.0298  145.8880 C   0  0  0  0  0  0  0  0  0  0  0  0
    9.8235   11.3025  149.0348 N   0  0  0  0  0  0  0  0  0  0  0  0
   11.1293   14.8554  147.3288 N   0  0  0  0  0  0  0  0  0  0  0  0
   11.0434   15.8507  147.8434 N   0  0  0  0  0  0  0  0  0  0  0  0
   10.9609   16.8472  148.3519 N   0  0  0  0  0  0  0  0  0  0  0  0
   12.2968   11.3763  145.8450 N   0  0  0  0  0  0  0  0  0  0  0  0
   11.9609   10.2108  146.4184 C   0  0  0  0  0  0  0  0  0  0  0  0
   11.0892   10.1743  147.4362 N   0  0  0  0  0  0  0  0  0  0  0  0
   10.5342   11.2976  147.9109 C   0  0  0  0  0  0  0  0  0  0  0  0
   10.8397   12.5358  147.3550 C   0  0  0  0  0  0  0  0  0  0  0  0
   11.7341   12.5756  146.2945 C   0  0  0  0  0  0  0  0  0  0  0  0
  1 11  1  0  0  0  0
  1  4  1  0  0  0  0
  2  8  1  0  0  0  0
  3 10  1  0  0  0  0
  4  5  1  0  0  0  0
  5  6  1  0  0  0  0
  7  8  2  0  0  0  0
  7 12  1  0  0  0  0
  8  9  1  0  0  0  0
  9 10  2  0  0  0  0
 10 11  1  0  0  0  0
 11 12  2  0  0  0  0
M  END
>  <CHROM.1>
169.15704536,-170.37228364,-175.29555123,11.19971906,12.50022444,147.31401222
1.80490874,0.88110017,0.05940252

>  <Name>
ligand

>  <RI>
0

>  <Rbt.Current_Directory>
/home/itssahil/PROJECTS/Mol_Feturizer/New_Systems/rnas/4NYA

>  <Rbt.Executable>
rbdock ($Id: //depot/dev/client3/rdock/2013.1/src/exe/rbdock.cxx#4 $)

>  <Rbt.Library>
libRbt.so (2013.1, Build901 2013/11/27)

>  <Rbt.Parameter_File>
/export/apps/rDock/src/rDock_2013.1_src/data/scripts/dock_solv.prm

>  <Rbt.Receptor>
prm/pocket_docking_5.prm

>  <SCORE>
-12.963

>  <SCORE.INTER>
-13.0078

>  <SCORE.INTER.CONST>
1

>  <SCORE.INTER.POLAR>
0

>  <SCORE.INTER.ROT>
3

>  <SCORE.INTER.SOLV>
12.7263

>  <SCORE.INTER.VDW>
-18.514

>  <SCORE.INTER.norm>
-1.08398

>  <SCORE.INTRA>
0.0447821

>  <SCORE.INTRA.DIHEDRAL>
-0.2469

>  <SCORE.INTRA.DIHEDRAL.0>
2.1382

>  <SCORE.INTRA.POLAR>
0

>  <SCORE.INTRA.POLAR.0>
0

>  <SCORE.INTRA.REPUL>
0

>  <SCORE.INTRA.REPUL.0>
0

>  <SCORE.INTRA.SOLV>
-1.52498

>  <SCORE.INTRA.SOLV.lig_0>
-59.6513

>  <SCORE.INTRA.VDW>
0.93072

>  <SCORE.INTRA.VDW.0>
-0.569808

>  <SCORE.INTRA.norm>
0.00373184

>  <SCORE.RESTR>
0

>  <SCORE.RESTR.CAVITY>
0

>  <SCORE.RESTR.norm>
0

>  <SCORE.SYSTEM>
0

>  <SCORE.SYSTEM.CONST>
0

>  <SCORE.SYSTEM.DIHEDRAL>
0

>  <SCORE.SYSTEM.SOLV>
0

>  <SCORE.SYSTEM.norm>
0

>  <SCORE.heavy>
12

>  <SCORE.norm>
-1.08025

>  <RMSD>
2.974

$$$$
ligand
 OpenBabel11021811503D
libRbt.so/2013.1/901 2013/11/27
 12 12  0  0  0  0  0  0  0  0999 V2000
   10.5669   13.5934  148.0371 C   0  0  0  0  0  0  0  0  0  0  0  0
   12.3370    8.8931  145.7699 C   0  0  0  0  0  0  0  0  0  0  0  0
    9.8673   11.1759  149.0468 N   0  0  0  0  0  0  0  0  0  0  0  0
   10.6237   14.7231  147.0976 N   0  0  0  0  0  0  0  0  0  0  0  0
   10.4297   15.7434  147.5266 N   0  0  0  0  0  0  0  0  0  0  0  0
   10.2367   16.7647  147.9486 N   0  0  0  0  0  0  0  0  0  0  0  0
   12.2519   11.2444  145.7900 N   0  0  0  0  0  0  0  0  0  0  0  0
   11.8902   10.0771  146.3437 C   0  0  0  0  0  0  0  0  0  0  0  0
   11.0463   10.0452  147.3850 N   0  0  0  0  0  0  0  0  0  0  0  0
   10.5458   11.1748  147.9032 C   0  0  0  0  0  0  0  0  0  0  0  0
   10.8803   12.4154  147.3696 C   0  0  0  0  0  0  0  0  0  0  0  0
   11.7457   12.4508  146.2852 C   0  0  0  0  0  0  0  0  0  0  0  0
  1 11  1  0  0  0  0
  1  4  1  0  0  0  0
  2  8  1  0  0  0  0
  3 10  1  0  0  0  0
  4  5  1  0  0  0  0
  5  6  1  0  0  0  0
  7  8  2  0  0  0  0
  7 12  1  0  0  0  0
  8  9  1  0  0  0  0
  9 10  2  0  0  0  0
 10 11  1  0  0  0  0
 11 12  2  0  0  0  0
M  END
>  <CHROM.1>
-161.79208479,-177.59335073,-178.60031439,11.03195536,12.37756221,147.21109352
1.97079187,0.94876187,-0.12395856

>  <Name>
ligand

>  <RI>
0

>  <Rbt.Current_Directory>
/home/itssahil/PROJECTS/Mol_Feturizer/New_Systems/rnas/4NYA

>  <Rbt.Executable>
rbdock ($Id: //depot/dev/client3/rdock/2013.1/src/exe/rbdock.cxx#4 $)

>  <Rbt.Library>
libRbt.so (2013.1, Build901 2013/11/27)

>  <Rbt.Parameter_File>
/export/apps/rDock/src/rDock_2013.1_src/data/scripts/dock_solv.prm

>  <Rbt.Receptor>
prm/pocket_docking_7.prm

>  <SCORE>
-13.2661

>  <SCORE.INTER>
-12.5745

>  <SCORE.INTER.CONST>
1

>  <SCORE.INTER.POLAR>
0

>  <SCORE.INTER.ROT>
3

>  <SCORE.INTER.SOLV>
14.2855

>  <SCORE.INTER.VDW>
-18.7448

>  <SCORE.INTER.norm>
-1.04787

>  <SCORE.INTRA>
-0.691651

>  <SCORE.INTRA.DIHEDRAL>
-0.941551

>  <SCORE.INTRA.DIHEDRAL.0>
2.1382

>  <SCORE.INTRA.POLAR>
0

>  <SCORE.INTRA.POLAR.0>
0

>  <SCORE.INTRA.REPUL>
0

>  <SCORE.INTRA.REPUL.0>
0

>  <SCORE.INTRA.SOLV>
-1.54788

>  <SCORE.INTRA.SOLV.lig_0>
-59.6513

>  <SCORE.INTRA.VDW>
0.553062

>  <SCORE.INTRA.VDW.0>
-0.569808

>  <SCORE.INTRA.norm>
-0.0576376

>  <SCORE.RESTR>
0

>  <SCORE.RESTR.CAVITY>
0

>  <SCORE.RESTR.norm>
0

>  <SCORE.SYSTEM>
0

>  <SCORE.SYSTEM.CONST>
0

>  <SCORE.SYSTEM.DIHEDRAL>
0

>  <SCORE.SYSTEM.SOLV>
0

>  <SCORE.SYSTEM.norm>
0

>  <SCORE.heavy>
12

>  <SCORE.norm>
-1.10551

>  <RMSD>
2.974

$$$$
ligand
 OpenBabel11021811503D
libRbt.so/2013.1/901 2013/11/27
 12 12  0  0  0  0  0  0  0  0999 V2000
   10.1621   15.0904  148.1304 C   0  0  0  0  0  0  0  0  0  0  0  0
   12.0258   10.3383  146.0542 C   0  0  0  0  0  0  0  0  0  0  0  0
    9.4393   12.6982  149.1830 N   0  0  0  0  0  0  0  0  0  0  0  0
   11.3245   15.6124  148.8643 N   0  0  0  0  0  0  0  0  0  0  0  0
   11.1219   16.4249  149.6136 N   0  0  0  0  0  0  0  0  0  0  0  0
   10.9263   17.2377  150.3616 N   0  0  0  0  0  0  0  0  0  0  0  0
   11.9304   12.6888  146.0063 N   0  0  0  0  0  0  0  0  0  0  0  0
   11.5553   11.5354  146.5798 C   0  0  0  0  0  0  0  0  0  0  0  0
   10.6775   11.5280  147.5931 N   0  0  0  0  0  0  0  0  0  0  0  0
   10.1553   12.6690  148.0629 C   0  0  0  0  0  0  0  0  0  0  0  0
   10.5023   13.8960  147.5065 C   0  0  0  0  0  0  0  0  0  0  0  0
   11.4031   13.9059  146.4508 C   0  0  0  0  0  0  0  0  0  0  0  0
  1 11  1  0  0  0  0
  1  4  1  0  0  0  0
  2  8  1  0  0  0  0
  3 10  1  0  0  0  0
  4  5  1  0  0  0  0
  5  6  1  0  0  0  0
  7  8  2  0  0  0  0
  7 12  1  0  0  0  0
  8  9  1  0  0  0  0
  9 10  2  0  0  0  0
 10 11  1  0  0  0  0
 11 12  2  0  0  0  0
M  END
>  <CHROM.1>
99.78413325,-165.24541176,-162.30991485,10.94373103,13.64594978,147.89121003
-1.73003660,-0.85108481,-2.71241571

>  <Name>
ligand

>  <RI>
0

>  <Rbt.Current_Directory>
/home/itssahil/PROJECTS/Mol_Feturizer/New_Systems/rnas/4NYA

>  <Rbt.Executable>
rbdock ($Id: //depot/dev/client3/rdock/2013.1/src/exe/rbdock.cxx#4 $)

>  <Rbt.Library>
libRbt.so (2013.1, Build901 2013/11/27)

>  <Rbt.Parameter_File>
/export/apps/rDock/src/rDock_2013.1_src/data/scripts/dock_solv.prm

>  <Rbt.Receptor>
prm/pocket_docking_5.prm

>  <SCORE>
-12.0207

>  <SCORE.INTER>
-11.5425

>  <SCORE.INTER.CONST>
1

>  <SCORE.INTER.POLAR>
0

>  <SCORE.INTER.ROT>
3

>  <SCORE.INTER.SOLV>
8.18475

>  <SCORE.INTER.VDW>
-16.0233

>  <SCORE.INTER.norm>
-0.961877

>  <SCORE.INTRA>
-0.478211

>  <SCORE.INTRA.DIHEDRAL>
-0.556895

>  <SCORE.INTRA.DIHEDRAL.0>
2.1382

>  <SCORE.INTRA.POLAR>
0

>  <SCORE.INTRA.POLAR.0>
0

>  <SCORE.INTRA.REPUL>
0

>  <SCORE.INTRA.REPUL.0>
0

>  <SCORE.INTRA.SOLV>
-0.339826

>  <SCORE.INTRA.SOLV.lig_0>
-59.6513

>  <SCORE.INTRA.VDW>
-0.0298506

>  <SCORE.INTRA.VDW.0>
-0.569808

>  <SCORE.INTRA.norm>
-0.039851

>  <SCORE.RESTR>
0

>  <SCORE.RESTR.CAVITY>
0

>  <SCORE.RESTR.norm>
0

>  <SCORE.SYSTEM>
0

>  <SCORE.SYSTEM.CONST>
0

>  <SCORE.SYSTEM.DIHEDRAL>
0

>  <SCORE.SYSTEM.SOLV>
0

>  <SCORE.SYSTEM.norm>
0

>  <SCORE.heavy>
12

>  <SCORE.norm>
-1.00173

>  <RMSD>
2.980

$$$$
ligand
 OpenBabel11021811503D
libRbt.so/2013.1/901 2013/11/27
 12 12  0  0  0  0  0  0  0  0999 V2000
   10.1302   14.6908  147.9520 C   0  0  0  0  0  0  0  0  0  0  0  0
   12.2426    9.9267  146.1610 C   0  0  0  0  0  0  0  0  0  0  0  0
    9.5870   12.3400  149.1896 N   0  0  0  0  0  0  0  0  0  0  0  0
   11.3133   15.5074  148.2611 N   0  0  0  0  0  0  0  0  0  0  0  0
   11.1406   16.4261  148.8847 N   0  0  0  0  0  0  0  0  0  0  0  0
   10.9635   17.3454  149.5028 N   0  0  0  0  0  0  0  0  0  0  0  0
   11.9964   12.2573  145.9514 N   0  0  0  0  0  0  0  0  0  0  0  0
   11.7096   11.1269  146.6148 C   0  0  0  0  0  0  0  0  0  0  0  0
   10.8587   11.1379  147.6507 N   0  0  0  0  0  0  0  0  0  0  0  0
   10.2763   12.2750  148.0543 C   0  0  0  0  0  0  0  0  0  0  0  0
   10.5308   13.4781  147.4037 C   0  0  0  0  0  0  0  0  0  0  0  0
   11.4034   13.4681  146.3246 C   0  0  0  0  0  0  0  0  0  0  0  0
  1 11  1  0  0  0  0
  1  4  1  0  0  0  0
  2  8  1  0  0  0  0
  3 10  1  0  0  0  0
  4  5  1  0  0  0  0
  5  6  1  0  0  0  0
  7  8  2  0  0  0  0
  7 12  1  0  0  0  0
  8  9  1  0  0  0  0
  9 10  2  0  0  0  0
 10 11  1  0  0  0  0
 11 12  2  0  0  0  0
M  END
>  <CHROM.1>
116.16838117,-168.77957009,-56.13188904,11.02205902,13.34698099,147.68092461
1.75646750,0.86027185,0.25563055

>  <Name>
ligand

>  <RI>
0

>  <Rbt.Current_Directory>
/home/itssahil/PROJECTS/Mol_Feturizer/New_Systems/rnas/4NYA

>  <Rbt.Executable>
rbdock ($Id: //depot/dev/client3/rdock/2013.1/src/exe/rbdock.cxx#4 $)

>  <Rbt.Library>
libRbt.so (2013.1, Build901 2013/11/27)

>  <Rbt.Parameter_File>
/export/apps/rDock/src/rDock_2013.1_src/data/scripts/dock_solv.prm

>  <Rbt.Receptor>
prm/pocket_docking_6.prm

>  <SCORE>
-12.2932

>  <SCORE.INTER>
-11.7722

>  <SCORE.INTER.CONST>
1

>  <SCORE.INTER.POLAR>
0

>  <SCORE.INTER.ROT>
3

>  <SCORE.INTER.SOLV>
9.60367

>  <SCORE.INTER.VDW>
-16.6493

>  <SCORE.INTER.norm>
-0.981013

>  <SCORE.INTRA>
-0.521058

>  <SCORE.INTRA.DIHEDRAL>
-0.297488

>  <SCORE.INTRA.DIHEDRAL.0>
2.1382

>  <SCORE.INTRA.POLAR>
0

>  <SCORE.INTRA.POLAR.0>
0

>  <SCORE.INTRA.REPUL>
0

>  <SCORE.INTRA.REPUL.0>
0

>  <SCORE.INTRA.SOLV>
-1.01512

>  <SCORE.INTRA.SOLV.lig_0>
-59.6513

>  <SCORE.INTRA.VDW>
0.135244

>  <SCORE.INTRA.VDW.0>
-0.569808

>  <SCORE.INTRA.norm>
-0.0434215

>  <SCORE.RESTR>
0

>  <SCORE.RESTR.CAVITY>
0

>  <SCORE.RESTR.norm>
0

>  <SCORE.SYSTEM>
0

>  <SCORE.SYSTEM.CONST>
0

>  <SCORE.SYSTEM.DIHEDRAL>
0

>  <SCORE.SYSTEM.SOLV>
0

>  <SCORE.SYSTEM.norm>
0

>  <SCORE.heavy>
12

>  <SCORE.norm>
-1.02443

>  <RMSD>
2.982

$$$$
ligand
 OpenBabel11021811503D
libRbt.so/2013.1/901 2013/11/27
 12 12  0  0  0  0  0  0  0  0999 V2000
   10.1221   14.8141  148.1261 C   0  0  0  0  0  0  0  0  0  0  0  0
   12.1443   10.1615  145.9743 C   0  0  0  0  0  0  0  0  0  0  0  0
    9.5616   12.3888  149.2018 N   0  0  0  0  0  0  0  0  0  0  0  0
   11.3218   15.5597  148.5347 N   0  0  0  0  0  0  0  0  0  0  0  0
   11.1587   16.4422  149.2110 N   0  0  0  0  0  0  0  0  0  0  0  0
   11.0025   17.3244  149.8860 N   0  0  0  0  0  0  0  0  0  0  0  0
   11.9284   12.5041  145.9333 N   0  0  0  0  0  0  0  0  0  0  0  0
   11.6340   11.3335  146.5190 C   0  0  0  0  0  0  0  0  0  0  0  0
   10.7966   11.2821  147.5646 N   0  0  0  0  0  0  0  0  0  0  0  0
   10.2355   12.3954  148.0555 C   0  0  0  0  0  0  0  0  0  0  0  0
   10.4986   13.6381  147.4881 C   0  0  0  0  0  0  0  0  0  0  0  0
   11.3573   13.6931  146.3991 C   0  0  0  0  0  0  0  0  0  0  0  0
  1 11  1  0  0  0  0
  1  4  1  0  0  0  0
  2  8  1  0  0  0  0
  3 10  1  0  0  0  0
  4  5  1  0  0  0  0
  5  6  1  0  0  0  0
  7  8  2  0  0  0  0
  7 12  1  0  0  0  0
  8  9  1  0  0  0  0
  9 10  2  0  0  0  0
 10 11  1  0  0  0  0
 11 12  2  0  0  0  0
M  END
>  <CHROM.1>
113.41026832,-170.07782284,-178.57237380,10.98984425,13.47503512,147.76090851
1.73348082,0.87006784,0.35234115

>  <Name>
ligand

>  <RI>
0

>  <Rbt.Current_Directory>
/home/itssahil/PROJECTS/Mol_Feturizer/New_Systems/rnas/4NYA

>  <Rbt.Executable>
rbdock ($Id: //depot/dev/client3/rdock/2013.1/src/exe/rbdock.cxx#4 $)

>  <Rbt.Library>
libRbt.so (2013.1, Build901 2013/11/27)

>  <Rbt.Parameter_File>
/export/apps/rDock/src/rDock_2013.1_src/data/scripts/dock_solv.prm

>  <Rbt.Receptor>
prm/pocket_docking_7.prm

>  <SCORE>
-12.2518

>  <SCORE.INTER>
-11.6836

>  <SCORE.INTER.CONST>
1

>  <SCORE.INTER.POLAR>
0

>  <SCORE.INTER.ROT>
3

>  <SCORE.INTER.SOLV>
8.65271

>  <SCORE.INTER.VDW>
-16.2733

>  <SCORE.INTER.norm>
-0.973634

>  <SCORE.INTRA>
-0.568246

>  <SCORE.INTRA.DIHEDRAL>
-0.396374

>  <SCORE.INTRA.DIHEDRAL.0>
2.1382

>  <SCORE.INTRA.POLAR>
0

>  <SCORE.INTRA.POLAR.0>
0

>  <SCORE.INTRA.REPUL>
0

>  <SCORE.INTRA.REPUL.0>
0

>  <SCORE.INTRA.SOLV>
-0.940043

>  <SCORE.INTRA.SOLV.lig_0>
-59.6513

>  <SCORE.INTRA.VDW>
0.099963

>  <SCORE.INTRA.VDW.0>
-0.569808

>  <SCORE.INTRA.norm>
-0.0473538

>  <SCORE.RESTR>
0

>  <SCORE.RESTR.CAVITY>
0

>  <SCORE.RESTR.norm>
0

>  <SCORE.SYSTEM>
0

>  <SCORE.SYSTEM.CONST>
0

>  <SCORE.SYSTEM.DIHEDRAL>
0

>  <SCORE.SYSTEM.SOLV>
0

>  <SCORE.SYSTEM.norm>
0

>  <SCORE.heavy>
12

>  <SCORE.norm>
-1.02099

>  <RMSD>
2.982

$$$$
ligand
 OpenBabel11021811503D
libRbt.so/2013.1/901 2013/11/27
 12 12  0  0  0  0  0  0  0  0999 V2000
   10.1921   15.0914  148.0657 C   0  0  0  0  0  0  0  0  0  0  0  0
   12.0444   10.3074  146.0536 C   0  0  0  0  0  0  0  0  0  0  0  0
    9.4712   12.7157  149.1563 N   0  0  0  0  0  0  0  0  0  0  0  0
   11.2191   15.4494  149.0553 N   0  0  0  0  0  0  0  0  0  0  0  0
   11.0930   16.4377  149.5750 N   0  0  0  0  0  0  0  0  0  0  0  0
   10.9613   17.4221  150.0965 N   0  0  0  0  0  0  0  0  0  0  0  0
   11.9508   12.6570  145.9710 N   0  0  0  0  0  0  0  0  0  0  0  0
   11.5768   11.5126  146.5630 C   0  0  0  0  0  0  0  0  0  0  0  0
   10.7027   11.5210  147.5795 N   0  0  0  0  0  0  0  0  0  0  0  0
   10.1832   12.6693  148.0342 C   0  0  0  0  0  0  0  0  0  0  0  0
   10.5291   13.8876  147.4584 C   0  0  0  0  0  0  0  0  0  0  0  0
   11.4261   13.8810  146.3993 C   0  0  0  0  0  0  0  0  0  0  0  0
  1 11  1  0  0  0  0
  1  4  1  0  0  0  0
  2  8  1  0  0  0  0
  3 10  1  0  0  0  0
  4  5  1  0  0  0  0
  5  6  1  0  0  0  0
  7  8  2  0  0  0  0
  7 12  1  0  0  0  0
  8  9  1  0  0  0  0
  9 10  2  0  0  0  0
 10 11  1  0  0  0  0
 11 12  2  0  0  0  0
M  END
>  <CHROM.1>
85.34896957,176.50261872,62.47131449,10.95355429,13.64012731,147.85833910
-1.74031387,-0.86362404,-2.73764285

>  <Name>
ligand

>  <RI>
0

>  <Rbt.Current_Directory>
/home/itssahil/PROJECTS/Mol_Feturizer/New_Systems/rnas/4NYA

>  <Rbt.Executable>
rbdock ($Id: //depot/dev/client3/rdock/2013.1/src/exe/rbdock.cxx#4 $)

>  <Rbt.Library>
libRbt.so (2013.1, Build901 2013/11/27)

>  <Rbt.Parameter_File>
/export/apps/rDock/src/rDock_2013.1_src/data/scripts/dock_solv.prm

>  <Rbt.Receptor>
prm/pocket_docking_8.prm

>  <SCORE>
-12.0698

>  <SCORE.INTER>
-11.5175

>  <SCORE.INTER.CONST>
1

>  <SCORE.INTER.POLAR>
0

>  <SCORE.INTER.ROT>
3

>  <SCORE.INTER.SOLV>
8.37769

>  <SCORE.INTER.VDW>
-16.0709

>  <SCORE.INTER.norm>
-0.959788

>  <SCORE.INTRA>
-0.552343

>  <SCORE.INTRA.DIHEDRAL>
-0.958025

>  <SCORE.INTRA.DIHEDRAL.0>
2.1382

>  <SCORE.INTRA.POLAR>
0

>  <SCORE.INTRA.POLAR.0>
0

>  <SCORE.INTRA.REPUL>
0

>  <SCORE.INTRA.REPUL.0>
0

>  <SCORE.INTRA.SOLV>
0.0254665

>  <SCORE.INTRA.SOLV.lig_0>
-59.6513

>  <SCORE.INTRA.VDW>
-0.0860636

>  <SCORE.INTRA.VDW.0>
-0.569808

>  <SCORE.INTRA.norm>
-0.0460286

>  <SCORE.RESTR>
0

>  <SCORE.RESTR.CAVITY>
0

>  <SCORE.RESTR.norm>
0

>  <SCORE.SYSTEM>
0

>  <SCORE.SYSTEM.CONST>
0

>  <SCORE.SYSTEM.DIHEDRAL>
0

>  <SCORE.SYSTEM.SOLV>
0

>  <SCORE.SYSTEM.norm>
0

>  <SCORE.heavy>
12

>  <SCORE.norm>
-1.00582

>  <RMSD>
2.994

$$$$
ligand
 OpenBabel11021811503D
libRbt.so/2013.1/901 2013/11/27
 12 12  0  0  0  0  0  0  0  0999 V2000
   10.4656   13.6899  148.0275 C   0  0  0  0  0  0  0  0  0  0  0  0
   12.3005    8.9647  145.8661 C   0  0  0  0  0  0  0  0  0  0  0  0
    9.8102   11.2869  149.0995 N   0  0  0  0  0  0  0  0  0  0  0  0
   10.5383   14.8030  147.0695 N   0  0  0  0  0  0  0  0  0  0  0  0
   10.4562   15.8393  147.4962 N   0  0  0  0  0  0  0  0  0  0  0  0
   10.3682   16.8721  147.9252 N   0  0  0  0  0  0  0  0  0  0  0  0
   12.1775   11.3141  145.8294 N   0  0  0  0  0  0  0  0  0  0  0  0
   11.8374   10.1550  146.4132 C   0  0  0  0  0  0  0  0  0  0  0  0
   10.9993   10.1350  147.4594 N   0  0  0  0  0  0  0  0  0  0  0  0
   10.4830   11.2688  147.9526 C   0  0  0  0  0  0  0  0  0  0  0  0
   10.7948   12.5011  147.3872 C   0  0  0  0  0  0  0  0  0  0  0  0
   11.6542   12.5240  146.2977 C   0  0  0  0  0  0  0  0  0  0  0  0
  1 11  1  0  0  0  0
  1  4  1  0  0  0  0
  2  8  1  0  0  0  0
  3 10  1  0  0  0  0
  4  5  1  0  0  0  0
  5  6  1  0  0  0  0
  7  8  2  0  0  0  0
  7 12  1  0  0  0  0
  8  9  1  0  0  0  0
  9 10  2  0  0  0  0
 10 11  1  0  0  0  0
 11 12  2  0  0  0  0
M  END
>  <CHROM.1>
-163.46250313,-170.49109132,-55.48191143,10.98872717,12.46541449,147.23769060
1.94551860,0.94906150,-0.12126929

>  <Name>
ligand

>  <RI>
0

>  <Rbt.Current_Directory>
/home/itssahil/PROJECTS/Mol_Feturizer/New_Systems/rnas/4NYA

>  <Rbt.Executable>
rbdock ($Id: //depot/dev/client3/rdock/2013.1/src/exe/rbdock.cxx#4 $)

>  <Rbt.Library>
libRbt.so (2013.1, Build901 2013/11/27)

>  <Rbt.Parameter_File>
/export/apps/rDock/src/rDock_2013.1_src/data/scripts/dock_solv.prm

>  <Rbt.Receptor>
prm/pocket_docking_8.prm

>  <SCORE>
-13.2418

>  <SCORE.INTER>
-12.6308

>  <SCORE.INTER.CONST>
1

>  <SCORE.INTER.POLAR>
0

>  <SCORE.INTER.ROT>
3

>  <SCORE.INTER.SOLV>
14.4272

>  <SCORE.INTER.VDW>
-18.8296

>  <SCORE.INTER.norm>
-1.05257

>  <SCORE.INTRA>
-0.610969

>  <SCORE.INTRA.DIHEDRAL>
-0.853016

>  <SCORE.INTRA.DIHEDRAL.0>
2.1382

>  <SCORE.INTRA.POLAR>
0

>  <SCORE.INTRA.POLAR.0>
0

>  <SCORE.INTRA.REPUL>
0

>  <SCORE.INTRA.REPUL.0>
0

>  <SCORE.INTRA.SOLV>
-1.53486

>  <SCORE.INTRA.SOLV.lig_0>
-59.6513

>  <SCORE.INTRA.VDW>
0.582967

>  <SCORE.INTRA.VDW.0>
-0.569808

>  <SCORE.INTRA.norm>
-0.0509141

>  <SCORE.RESTR>
0

>  <SCORE.RESTR.CAVITY>
0

>  <SCORE.RESTR.norm>
0

>  <SCORE.SYSTEM>
0

>  <SCORE.SYSTEM.CONST>
0

>  <SCORE.SYSTEM.DIHEDRAL>
0

>  <SCORE.SYSTEM.SOLV>
0

>  <SCORE.SYSTEM.norm>
0

>  <SCORE.heavy>
12

>  <SCORE.norm>
-1.10348

>  <RMSD>
2.998

$$$$
ligand
 OpenBabel11021811503D
libRbt.so/2013.1/901 2013/11/27
 12 12  0  0  0  0  0  0  0  0999 V2000
   10.6464   13.5471  147.9231 C   0  0  0  0  0  0  0  0  0  0  0  0
   12.5188    8.8420  145.7500 C   0  0  0  0  0  0  0  0  0  0  0  0
    9.6953   11.1357  148.7191 N   0  0  0  0  0  0  0  0  0  0  0  0
   10.9083   14.7047  147.0550 N   0  0  0  0  0  0  0  0  0  0  0  0
   10.7021   15.7184  147.4938 N   0  0  0  0  0  0  0  0  0  0  0  0
   10.4898   16.7286  147.9331 N   0  0  0  0  0  0  0  0  0  0  0  0
   12.5385   11.1926  145.8537 N   0  0  0  0  0  0  0  0  0  0  0  0
   12.0458   10.0271  146.2999 C   0  0  0  0  0  0  0  0  0  0  0  0
   11.0559   10.0032  147.2036 N   0  0  0  0  0  0  0  0  0  0  0  0
   10.5356   11.1387  147.6885 C   0  0  0  0  0  0  0  0  0  0  0  0
   11.0018   12.3779  147.2612 C   0  0  0  0  0  0  0  0  0  0  0  0
   12.0196   12.4058  146.3181 C   0  0  0  0  0  0  0  0  0  0  0  0
  1 11  1  0  0  0  0
  1  4  1  0  0  0  0
  2  8  1  0  0  0  0
  3 10  1  0  0  0  0
  4  5  1  0  0  0  0
  5  6  1  0  0  0  0
  7  8  2  0  0  0  0
  7 12  1  0  0  0  0
  8  9  1  0  0  0  0
  9 10  2  0  0  0  0
 10 11  1  0  0  0  0
 11 12  2  0  0  0  0
M  END
>  <CHROM.1>
-162.44940691,-177.49310164,-56.94107445,11.17735986,12.33762329,147.12778788
1.87580793,0.80324666,-0.01146654

>  <Name>
ligand

>  <RI>
0

>  <Rbt.Current_Directory>
/home/itssahil/PROJECTS/Mol_Feturizer/New_Systems/rnas/4NYA

>  <Rbt.Executable>
rbdock ($Id: //depot/dev/client3/rdock/2013.1/src/exe/rbdock.cxx#4 $)

>  <Rbt.Library>
libRbt.so (2013.1, Build901 2013/11/27)

>  <Rbt.Parameter_File>
/export/apps/rDock/src/rDock_2013.1_src/data/scripts/dock_solv.prm

>  <Rbt.Receptor>
prm/pocket_docking_6.prm

>  <SCORE>
-13.2354

>  <SCORE.INTER>
-12.5629

>  <SCORE.INTER.CONST>
1

>  <SCORE.INTER.POLAR>
0

>  <SCORE.INTER.ROT>
3

>  <SCORE.INTER.SOLV>
14.8959

>  <SCORE.INTER.VDW>
-18.9406

>  <SCORE.INTER.norm>
-1.04691

>  <SCORE.INTRA>
-0.672496

>  <SCORE.INTRA.DIHEDRAL>
-0.933498

>  <SCORE.INTRA.DIHEDRAL.0>
2.1382

>  <SCORE.INTRA.POLAR>
0

>  <SCORE.INTRA.POLAR.0>
0

>  <SCORE.INTRA.REPUL>
0

>  <SCORE.INTRA.REPUL.0>
0

>  <SCORE.INTRA.SOLV>
-1.54558

>  <SCORE.INTRA.SOLV.lig_0>
-59.6513

>  <SCORE.INTRA.VDW>
0.567045

>  <SCORE.INTRA.VDW.0>
-0.569808

>  <SCORE.INTRA.norm>
-0.0560413

>  <SCORE.RESTR>
0

>  <SCORE.RESTR.CAVITY>
0

>  <SCORE.RESTR.norm>
0

>  <SCORE.SYSTEM>
0

>  <SCORE.SYSTEM.CONST>
0

>  <SCORE.SYSTEM.DIHEDRAL>
0

>  <SCORE.SYSTEM.SOLV>
0

>  <SCORE.SYSTEM.norm>
0

>  <SCORE.heavy>
12

>  <SCORE.norm>
-1.10295

>  <RMSD>
3.001

$$$$
ligand
 OpenBabel11021811503D
libRbt.so/2013.1/901 2013/11/27
 12 12  0  0  0  0  0  0  0  0999 V2000
   10.6583   13.3804  147.8871 C   0  0  0  0  0  0  0  0  0  0  0  0
   12.5172    8.6528  145.7515 C   0  0  0  0  0  0  0  0  0  0  0  0
    9.7298   10.9766  148.7312 N   0  0  0  0  0  0  0  0  0  0  0  0
   10.8951   14.5262  146.9963 N   0  0  0  0  0  0  0  0  0  0  0  0
   10.6570   15.5428  147.4116 N   0  0  0  0  0  0  0  0  0  0  0  0
   10.4131   16.5555  147.8279 N   0  0  0  0  0  0  0  0  0  0  0  0
   12.5285   11.0047  145.8219 N   0  0  0  0  0  0  0  0  0  0  0  0
   12.0477    9.8436  146.2919 C   0  0  0  0  0  0  0  0  0  0  0  0
   11.0718    9.8284  147.2111 N   0  0  0  0  0  0  0  0  0  0  0  0
   10.5542   10.9685  147.6879 C   0  0  0  0  0  0  0  0  0  0  0  0
   11.0085   12.2034  147.2362 C   0  0  0  0  0  0  0  0  0  0  0  0
   12.0116   12.2222  146.2773 C   0  0  0  0  0  0  0  0  0  0  0  0
  1 11  1  0  0  0  0
  1  4  1  0  0  0  0
  2  8  1  0  0  0  0
  3 10  1  0  0  0  0
  4  5  1  0  0  0  0
  5  6  1  0  0  0  0
  7  8  2  0  0  0  0
  7 12  1  0  0  0  0
  8  9  1  0  0  0  0
  9 10  2  0  0  0  0
 10 11  1  0  0  0  0
 11 12  2  0  0  0  0
M  END
>  <CHROM.1>
-162.14653643,-179.54003868,-51.40364042,11.17143260,12.16123714,147.09680492
1.89400753,0.81946204,-0.04137459

>  <Name>
ligand

>  <RI>
0

>  <Rbt.Current_Directory>
/home/itssahil/PROJECTS/Mol_Feturizer/New_Systems/rnas/4NYA

>  <Rbt.Executable>
rbdock ($Id: //depot/dev/client3/rdock/2013.1/src/exe/rbdock.cxx#4 $)

>  <Rbt.Library>
libRbt.so (2013.1, Build901 2013/11/27)

>  <Rbt.Parameter_File>
/export/apps/rDock/src/rDock_2013.1_src/data/scripts/dock_solv.prm

>  <Rbt.Receptor>
prm/pocket_docking_7.prm

>  <SCORE>
-13.1678

>  <SCORE.INTER>
-12.4943

>  <SCORE.INTER.CONST>
1

>  <SCORE.INTER.POLAR>
0

>  <SCORE.INTER.ROT>
3

>  <SCORE.INTER.SOLV>
15.3512

>  <SCORE.INTER.VDW>
-19.0466

>  <SCORE.INTER.norm>
-1.04119

>  <SCORE.INTRA>
-0.673512

>  <SCORE.INTRA.DIHEDRAL>
-0.923789

>  <SCORE.INTRA.DIHEDRAL.0>
2.1382

>  <SCORE.INTRA.POLAR>
0

>  <SCORE.INTRA.POLAR.0>
0

>  <SCORE.INTRA.REPUL>
0

>  <SCORE.INTRA.REPUL.0>
0

>  <SCORE.INTRA.SOLV>
-1.54726

>  <SCORE.INTRA.SOLV.lig_0>
-59.6513

>  <SCORE.INTRA.VDW>
0.562011

>  <SCORE.INTRA.VDW.0>
-0.569808

>  <SCORE.INTRA.norm>
-0.056126

>  <SCORE.RESTR>
0

>  <SCORE.RESTR.CAVITY>
0

>  <SCORE.RESTR.norm>
0

>  <SCORE.SYSTEM>
0

>  <SCORE.SYSTEM.CONST>
0

>  <SCORE.SYSTEM.DIHEDRAL>
0

>  <SCORE.SYSTEM.SOLV>
0

>  <SCORE.SYSTEM.norm>
0

>  <SCORE.heavy>
12

>  <SCORE.norm>
-1.09732

>  <RMSD>
3.003

$$$$
ligand
 OpenBabel11021811503D
libRbt.so/2013.1/901 2013/11/27
 12 12  0  0  0  0  0  0  0  0999 V2000
   10.4626   13.7652  147.9127 C   0  0  0  0  0  0  0  0  0  0  0  0
   12.5086    9.0382  145.9543 C   0  0  0  0  0  0  0  0  0  0  0  0
    9.9289   11.3856  149.0981 N   0  0  0  0  0  0  0  0  0  0  0  0
   11.2744   14.8629  147.3663 N   0  0  0  0  0  0  0  0  0  0  0  0
   11.0682   15.8903  147.7722 N   0  0  0  0  0  0  0  0  0  0  0  0
   10.8559   16.9152  148.1758 N   0  0  0  0  0  0  0  0  0  0  0  0
   12.2733   11.3750  145.8116 N   0  0  0  0  0  0  0  0  0  0  0  0
   11.9924   10.2290  146.4503 C   0  0  0  0  0  0  0  0  0  0  0  0
   11.1622   10.2174  147.5029 N   0  0  0  0  0  0  0  0  0  0  0  0
   10.5952   11.3468  147.9480 C   0  0  0  0  0  0  0  0  0  0  0  0
   10.8445   12.5653  147.3246 C   0  0  0  0  0  0  0  0  0  0  0  0
   11.6956   12.5789  146.2284 C   0  0  0  0  0  0  0  0  0  0  0  0
  1 11  1  0  0  0  0
  1  4  1  0  0  0  0
  2  8  1  0  0  0  0
  3 10  1  0  0  0  0
  4  5  1  0  0  0  0
  5  6  1  0  0  0  0
  7  8  2  0  0  0  0
  7 12  1  0  0  0  0
  8  9  1  0  0  0  0
  9 10  2  0  0  0  0
 10 11  1  0  0  0  0
 11 12  2  0  0  0  0
M  END
>  <CHROM.1>
157.64956144,-179.36961567,-54.46282446,11.22696250,12.53344442,147.30218050
1.82806254,0.90946953,0.01515736

>  <Name>
ligand

>  <RI>
0

>  <Rbt.Current_Directory>
/home/itssahil/PROJECTS/Mol_Feturizer/New_Systems/rnas/4NYA

>  <Rbt.Executable>
rbdock ($Id: //depot/dev/client3/rdock/2013.1/src/exe/rbdock.cxx#4 $)

>  <Rbt.Library>
libRbt.so (2013.1, Build901 2013/11/27)

>  <Rbt.Parameter_File>
/export/apps/rDock/src/rDock_2013.1_src/data/scripts/dock_solv.prm

>  <Rbt.Receptor>
prm/pocket_docking_8.prm

>  <SCORE>
-12.942

>  <SCORE.INTER>
-13.0324

>  <SCORE.INTER.CONST>
1

>  <SCORE.INTER.POLAR>
0

>  <SCORE.INTER.ROT>
3

>  <SCORE.INTER.SOLV>
13.2657

>  <SCORE.INTER.VDW>
-18.7102

>  <SCORE.INTER.norm>
-1.08603

>  <SCORE.INTRA>
0.0904185

>  <SCORE.INTRA.DIHEDRAL>
-0.0609453

>  <SCORE.INTRA.DIHEDRAL.0>
2.1382

>  <SCORE.INTRA.POLAR>
0

>  <SCORE.INTRA.POLAR.0>
0

>  <SCORE.INTRA.REPUL>
0

>  <SCORE.INTRA.REPUL.0>
0

>  <SCORE.INTRA.SOLV>
-1.46533

>  <SCORE.INTRA.SOLV.lig_0>
-59.6513

>  <SCORE.INTRA.VDW>
0.853554

>  <SCORE.INTRA.VDW.0>
-0.569808

>  <SCORE.INTRA.norm>
0.00753487

>  <SCORE.RESTR>
0

>  <SCORE.RESTR.CAVITY>
0

>  <SCORE.RESTR.norm>
0

>  <SCORE.SYSTEM>
0

>  <SCORE.SYSTEM.CONST>
0

>  <SCORE.SYSTEM.DIHEDRAL>
0

>  <SCORE.SYSTEM.SOLV>
0

>  <SCORE.SYSTEM.norm>
0

>  <SCORE.heavy>
12

>  <SCORE.norm>
-1.0785

>  <RMSD>
3.004

$$$$
ligand
 OpenBabel11021811503D
libRbt.so/2013.1/901 2013/11/27
 12 12  0  0  0  0  0  0  0  0999 V2000
   10.1978   15.0856  148.0792 C   0  0  0  0  0  0  0  0  0  0  0  0
   12.0631   10.3192  146.0376 C   0  0  0  0  0  0  0  0  0  0  0  0
    9.4987   12.7022  149.1671 N   0  0  0  0  0  0  0  0  0  0  0  0
   11.2306   15.4470  149.0615 N   0  0  0  0  0  0  0  0  0  0  0  0
   11.1284   16.4535  149.5506 N   0  0  0  0  0  0  0  0  0  0  0  0
   11.0259   17.4612  150.0327 N   0  0  0  0  0  0  0  0  0  0  0  0
   11.9553   12.6685  145.9637 N   0  0  0  0  0  0  0  0  0  0  0  0
   11.5923   11.5199  146.5545 C   0  0  0  0  0  0  0  0  0  0  0  0
   10.7256   11.5199  147.5773 N   0  0  0  0  0  0  0  0  0  0  0  0
   10.2027   12.6636  148.0397 C   0  0  0  0  0  0  0  0  0  0  0  0
   10.5374   13.8858  147.4654 C   0  0  0  0  0  0  0  0  0  0  0  0
   11.4267   13.8880  146.3999 C   0  0  0  0  0  0  0  0  0  0  0  0
  1 11  1  0  0  0  0
  1  4  1  0  0  0  0
  2  8  1  0  0  0  0
  3 10  1  0  0  0  0
  4  5  1  0  0  0  0
  5  6  1  0  0  0  0
  7  8  2  0  0  0  0
  7 12  1  0  0  0  0
  8  9  1  0  0  0  0
  9 10  2  0  0  0  0
 10 11  1  0  0  0  0
 11 12  2  0  0  0  0
M  END
>  <CHROM.1>
85.40822276,173.77212407,-51.99207034,10.97356062,13.64554139,147.85133626
-1.73314097,-0.86567045,-2.73766926

>  <Name>
ligand

>  <RI>
0

>  <Rbt.Current_Directory>
/home/itssahil/PROJECTS/Mol_Feturizer/New_Systems/rnas/4NYA

>  <Rbt.Executable>
rbdock ($Id: //depot/dev/client3/rdock/2013.1/src/exe/rbdock.cxx#4 $)

>  <Rbt.Library>
libRbt.so (2013.1, Build901 2013/11/27)

>  <Rbt.Parameter_File>
/export/apps/rDock/src/rDock_2013.1_src/data/scripts/dock_solv.prm

>  <Rbt.Receptor>
prm/pocket_docking_8.prm

>  <SCORE>
-12.1164

>  <SCORE.INTER>
-11.5648

>  <SCORE.INTER.CONST>
1

>  <SCORE.INTER.POLAR>
0

>  <SCORE.INTER.ROT>
3

>  <SCORE.INTER.SOLV>
8.31136

>  <SCORE.INTER.VDW>
-16.0803

>  <SCORE.INTER.norm>
-0.96373

>  <SCORE.INTRA>
-0.551691

>  <SCORE.INTRA.DIHEDRAL>
-0.920678

>  <SCORE.INTRA.DIHEDRAL.0>
2.1382

>  <SCORE.INTRA.POLAR>
0

>  <SCORE.INTRA.POLAR.0>
0

>  <SCORE.INTRA.REPUL>
0

>  <SCORE.INTRA.REPUL.0>
0

>  <SCORE.INTRA.SOLV>
-0.0123468

>  <SCORE.INTRA.SOLV.lig_0>
-59.6513

>  <SCORE.INTRA.VDW>
-0.0851786

>  <SCORE.INTRA.VDW.0>
-0.569808

>  <SCORE.INTRA.norm>
-0.0459742

>  <SCORE.RESTR>
0

>  <SCORE.RESTR.CAVITY>
0

>  <SCORE.RESTR.norm>
0

>  <SCORE.SYSTEM>
0

>  <SCORE.SYSTEM.CONST>
0

>  <SCORE.SYSTEM.DIHEDRAL>
0

>  <SCORE.SYSTEM.SOLV>
0

>  <SCORE.SYSTEM.norm>
0

>  <SCORE.heavy>
12

>  <SCORE.norm>
-1.0097

>  <RMSD>
3.010

$$$$
ligand
 OpenBabel11021811503D
libRbt.so/2013.1/901 2013/11/27
 12 12  0  0  0  0  0  0  0  0999 V2000
   10.6268   13.4299  147.8746 C   0  0  0  0  0  0  0  0  0  0  0  0
   12.4879    8.7114  145.7210 C   0  0  0  0  0  0  0  0  0  0  0  0
    9.6757   11.0238  148.6863 N   0  0  0  0  0  0  0  0  0  0  0  0
   10.9393   14.5861  147.0214 N   0  0  0  0  0  0  0  0  0  0  0  0
   10.9576   15.5909  147.5241 N   0  0  0  0  0  0  0  0  0  0  0  0
   10.9808   16.5919  148.0299 N   0  0  0  0  0  0  0  0  0  0  0  0
   12.5104   11.0625  145.8121 N   0  0  0  0  0  0  0  0  0  0  0  0
   12.0178    9.8999  146.2660 C   0  0  0  0  0  0  0  0  0  0  0  0
   11.0306    9.8818  147.1728 N   0  0  0  0  0  0  0  0  0  0  0  0
   10.5129   11.0204  147.6532 C   0  0  0  0  0  0  0  0  0  0  0  0
   10.9790   12.2568  147.2178 C   0  0  0  0  0  0  0  0  0  0  0  0
   11.9941   12.2787  146.2716 C   0  0  0  0  0  0  0  0  0  0  0  0
  1 11  1  0  0  0  0
  1  4  1  0  0  0  0
  2  8  1  0  0  0  0
  3 10  1  0  0  0  0
  4  5  1  0  0  0  0
  5  6  1  0  0  0  0
  7  8  2  0  0  0  0
  7 12  1  0  0  0  0
  8  9  1  0  0  0  0
  9 10  2  0  0  0  0
 10 11  1  0  0  0  0
 11 12  2  0  0  0  0
M  END
>  <CHROM.1>
-164.79241371,-164.50911636,60.46320770,11.22662296,12.21359366,147.10798722
1.79746503,0.79375060,0.05640356

>  <Name>
ligand

>  <RI>
0

>  <Rbt.Current_Directory>
/home/itssahil/PROJECTS/Mol_Feturizer/New_Systems/rnas/4NYA

>  <Rbt.Executable>
rbdock ($Id: //depot/dev/client3/rdock/2013.1/src/exe/rbdock.cxx#4 $)

>  <Rbt.Library>
libRbt.so (2013.1, Build901 2013/11/27)

>  <Rbt.Parameter_File>
/export/apps/rDock/src/rDock_2013.1_src/data/scripts/dock_solv.prm

>  <Rbt.Receptor>
prm/pocket_docking_5.prm

>  <SCORE>
-13.211

>  <SCORE.INTER>
-12.6886

>  <SCORE.INTER.CONST>
1

>  <SCORE.INTER.POLAR>
0

>  <SCORE.INTER.ROT>
3

>  <SCORE.INTER.SOLV>
14.9655

>  <SCORE.INTER.VDW>
-19.0476

>  <SCORE.INTER.norm>
-1.05739

>  <SCORE.INTRA>
-0.522347

>  <SCORE.INTRA.DIHEDRAL>
-0.729725

>  <SCORE.INTRA.DIHEDRAL.0>
2.1382

>  <SCORE.INTRA.POLAR>
0

>  <SCORE.INTRA.POLAR.0>
0

>  <SCORE.INTRA.REPUL>
0

>  <SCORE.INTRA.REPUL.0>
0

>  <SCORE.INTRA.SOLV>
-1.52256

>  <SCORE.INTRA.SOLV.lig_0>
-59.6513

>  <SCORE.INTRA.VDW>
0.603798

>  <SCORE.INTRA.VDW.0>
-0.569808

>  <SCORE.INTRA.norm>
-0.0435289

>  <SCORE.RESTR>
0

>  <SCORE.RESTR.CAVITY>
0

>  <SCORE.RESTR.norm>
0

>  <SCORE.SYSTEM>
0

>  <SCORE.SYSTEM.CONST>
0

>  <SCORE.SYSTEM.DIHEDRAL>
0

>  <SCORE.SYSTEM.SOLV>
0

>  <SCORE.SYSTEM.norm>
0

>  <SCORE.heavy>
12

>  <SCORE.norm>
-1.10091

>  <RMSD>
3.012

$$$$
ligand
 OpenBabel11021811503D
libRbt.so/2013.1/901 2013/11/27
 12 12  0  0  0  0  0  0  0  0999 V2000
   10.6320   13.4424  147.8787 C   0  0  0  0  0  0  0  0  0  0  0  0
   12.4872    8.7172  145.7346 C   0  0  0  0  0  0  0  0  0  0  0  0
    9.7363   11.0364  148.7516 N   0  0  0  0  0  0  0  0  0  0  0  0
   11.0064   14.5952  147.0462 N   0  0  0  0  0  0  0  0  0  0  0  0
   10.9702   15.6041  147.5397 N   0  0  0  0  0  0  0  0  0  0  0  0
   10.9389   16.6092  148.0369 N   0  0  0  0  0  0  0  0  0  0  0  0
   12.4826   11.0694  145.7928 N   0  0  0  0  0  0  0  0  0  0  0  0
   12.0187    9.9074  146.2773 C   0  0  0  0  0  0  0  0  0  0  0  0
   11.0594    9.8900  147.2137 N   0  0  0  0  0  0  0  0  0  0  0  0
   10.5420   11.0288  147.6938 C   0  0  0  0  0  0  0  0  0  0  0  0
   10.9792   12.2646  147.2277 C   0  0  0  0  0  0  0  0  0  0  0  0
   11.9650   12.2856  146.2511 C   0  0  0  0  0  0  0  0  0  0  0  0
  1 11  1  0  0  0  0
  1  4  1  0  0  0  0
  2  8  1  0  0  0  0
  3 10  1  0  0  0  0
  4  5  1  0  0  0  0
  5  6  1  0  0  0  0
  7  8  2  0  0  0  0
  7 12  1  0  0  0  0
  8  9  1  0  0  0  0
  9 10  2  0  0  0  0
 10 11  1  0  0  0  0
 11 12  2  0  0  0  0
M  END
>  <CHROM.1>
-169.42295296,-168.11964019,61.07742066,11.23574061,12.22334235,147.12437905
1.80541273,0.82136791,0.04545449

>  <Name>
ligand

>  <RI>
0

>  <Rbt.Current_Directory>
/home/itssahil/PROJECTS/Mol_Feturizer/New_Systems/rnas/4NYA

>  <Rbt.Executable>
rbdock ($Id: //depot/dev/client3/rdock/2013.1/src/exe/rbdock.cxx#4 $)

>  <Rbt.Library>
libRbt.so (2013.1, Build901 2013/11/27)

>  <Rbt.Parameter_File>
/export/apps/rDock/src/rDock_2013.1_src/data/scripts/dock_solv.prm

>  <Rbt.Receptor>
prm/pocket_docking_8.prm

>  <SCORE>
-13.2184

>  <SCORE.INTER>
-12.7714

>  <SCORE.INTER.CONST>
1

>  <SCORE.INTER.POLAR>
0

>  <SCORE.INTER.ROT>
3

>  <SCORE.INTER.SOLV>
14.7171

>  <SCORE.INTER.VDW>
-19.02

>  <SCORE.INTER.norm>
-1.06428

>  <SCORE.INTRA>
-0.447007

>  <SCORE.INTRA.DIHEDRAL>
-0.735318

>  <SCORE.INTRA.DIHEDRAL.0>
2.1382

>  <SCORE.INTRA.POLAR>
0

>  <SCORE.INTRA.POLAR.0>
0

>  <SCORE.INTRA.REPUL>
0

>  <SCORE.INTRA.REPUL.0>
0

>  <SCORE.INTRA.SOLV>
-1.54521

>  <SCORE.INTRA.SOLV.lig_0>
-59.6513

>  <SCORE.INTRA.VDW>
0.693255

>  <SCORE.INTRA.VDW.0>
-0.569808

>  <SCORE.INTRA.norm>
-0.0372506

>  <SCORE.RESTR>
0

>  <SCORE.RESTR.CAVITY>
0

>  <SCORE.RESTR.norm>
0

>  <SCORE.SYSTEM>
0

>  <SCORE.SYSTEM.CONST>
0

>  <SCORE.SYSTEM.DIHEDRAL>
0

>  <SCORE.SYSTEM.SOLV>
0

>  <SCORE.SYSTEM.norm>
0

>  <SCORE.heavy>
12

>  <SCORE.norm>
-1.10153

>  <RMSD>
3.013

$$$$
ligand
 OpenBabel11021811503D
libRbt.so/2013.1/901 2013/11/27
 12 12  0  0  0  0  0  0  0  0999 V2000
   10.5838   13.6286  147.9224 C   0  0  0  0  0  0  0  0  0  0  0  0
   12.3519    8.8643  145.7912 C   0  0  0  0  0  0  0  0  0  0  0  0
    9.6124   11.2436  148.7715 N   0  0  0  0  0  0  0  0  0  0  0  0
   10.8868   14.7712  147.0478 N   0  0  0  0  0  0  0  0  0  0  0  0
   10.6890   15.7935  147.4704 N   0  0  0  0  0  0  0  0  0  0  0  0
   10.4959   16.8128  147.8973 N   0  0  0  0  0  0  0  0  0  0  0  0
   12.4068   11.2157  145.8581 N   0  0  0  0  0  0  0  0  0  0  0  0
   11.9053   10.0644  146.3306 C   0  0  0  0  0  0  0  0  0  0  0  0
   10.9307   10.0686  147.2511 N   0  0  0  0  0  0  0  0  0  0  0  0
   10.4349   11.2187  147.7270 C   0  0  0  0  0  0  0  0  0  0  0  0
   10.9113   12.4444  147.2727 C   0  0  0  0  0  0  0  0  0  0  0  0
   11.9132   12.4432  146.3123 C   0  0  0  0  0  0  0  0  0  0  0  0
  1 11  1  0  0  0  0
  1  4  1  0  0  0  0
  2  8  1  0  0  0  0
  3 10  1  0  0  0  0
  4  5  1  0  0  0  0
  5  6  1  0  0  0  0
  7  8  2  0  0  0  0
  7 12  1  0  0  0  0
  8  9  1  0  0  0  0
  9 10  2  0  0  0  0
 10 11  1  0  0  0  0
 11 12  2  0  0  0  0
M  END
>  <CHROM.1>
-164.21160626,-178.53393034,59.75915970,11.09168061,12.39998035,147.14047602
1.84831477,0.81869182,-0.00476147

>  <Name>
ligand

>  <RI>
0

>  <Rbt.Current_Directory>
/home/itssahil/PROJECTS/Mol_Feturizer/New_Systems/rnas/4NYA

>  <Rbt.Executable>
rbdock ($Id: //depot/dev/client3/rdock/2013.1/src/exe/rbdock.cxx#4 $)

>  <Rbt.Library>
libRbt.so (2013.1, Build901 2013/11/27)

>  <Rbt.Parameter_File>
/export/apps/rDock/src/rDock_2013.1_src/data/scripts/dock_solv.prm

>  <Rbt.Receptor>
prm/pocket_docking_5.prm

>  <SCORE>
-13.3256

>  <SCORE.INTER>
-12.6892

>  <SCORE.INTER.CONST>
1

>  <SCORE.INTER.POLAR>
0

>  <SCORE.INTER.ROT>
3

>  <SCORE.INTER.SOLV>
14.8561

>  <SCORE.INTER.VDW>
-19.0115

>  <SCORE.INTER.norm>
-1.05744

>  <SCORE.INTRA>
-0.636324

>  <SCORE.INTRA.DIHEDRAL>
-0.921551

>  <SCORE.INTRA.DIHEDRAL.0>
2.1382

>  <SCORE.INTRA.POLAR>
0

>  <SCORE.INTRA.POLAR.0>
0

>  <SCORE.INTRA.REPUL>
0

>  <SCORE.INTRA.REPUL.0>
0

>  <SCORE.INTRA.SOLV>
-1.55277

>  <SCORE.INTRA.SOLV.lig_0>
-59.6513

>  <SCORE.INTRA.VDW>
0.600839

>  <SCORE.INTRA.VDW.0>
-0.569808

>  <SCORE.INTRA.norm>
-0.053027

>  <SCORE.RESTR>
0

>  <SCORE.RESTR.CAVITY>
0

>  <SCORE.RESTR.norm>
0

>  <SCORE.SYSTEM>
0

>  <SCORE.SYSTEM.CONST>
0

>  <SCORE.SYSTEM.DIHEDRAL>
0

>  <SCORE.SYSTEM.SOLV>
0

>  <SCORE.SYSTEM.norm>
0

>  <SCORE.heavy>
12

>  <SCORE.norm>
-1.11046

>  <RMSD>
3.014

$$$$
ligand
 OpenBabel11021811503D
libRbt.so/2013.1/901 2013/11/27
 12 12  0  0  0  0  0  0  0  0999 V2000
   10.6109   13.6101  147.9572 C   0  0  0  0  0  0  0  0  0  0  0  0
   12.4230    8.8656  145.8190 C   0  0  0  0  0  0  0  0  0  0  0  0
    9.7976   11.2115  148.9258 N   0  0  0  0  0  0  0  0  0  0  0  0
   10.7831   14.7385  147.0302 N   0  0  0  0  0  0  0  0  0  0  0  0
   10.6484   15.7676  147.4610 N   0  0  0  0  0  0  0  0  0  0  0  0
   10.5077   16.7931  147.8932 N   0  0  0  0  0  0  0  0  0  0  0  0
   12.3863   11.2182  145.8280 N   0  0  0  0  0  0  0  0  0  0  0  0
   11.9655   10.0607  146.3602 C   0  0  0  0  0  0  0  0  0  0  0  0
   11.0564   10.0504  147.3455 N   0  0  0  0  0  0  0  0  0  0  0  0
   10.5476   11.1921  147.8279 C   0  0  0  0  0  0  0  0  0  0  0  0
   10.9415   12.4234  147.3139 C   0  0  0  0  0  0  0  0  0  0  0  0
   11.8750   12.4368  146.2869 C   0  0  0  0  0  0  0  0  0  0  0  0
  1 11  1  0  0  0  0
  1  4  1  0  0  0  0
  2  8  1  0  0  0  0
  3 10  1  0  0  0  0
  4  5  1  0  0  0  0
  5  6  1  0  0  0  0
  7  8  2  0  0  0  0
  7 12  1  0  0  0  0
  8  9  1  0  0  0  0
  9 10  2  0  0  0  0
 10 11  1  0  0  0  0
 11 12  2  0  0  0  0
M  END
>  <CHROM.1>
-163.17269095,-173.94512762,-55.72009674,11.12667456,12.38324852,147.17328269
1.89727952,0.88504857,-0.06361650

>  <Name>
ligand

>  <RI>
0

>  <Rbt.Current_Directory>
/home/itssahil/PROJECTS/Mol_Feturizer/New_Systems/rnas/4NYA

>  <Rbt.Executable>
rbdock ($Id: //depot/dev/client3/rdock/2013.1/src/exe/rbdock.cxx#4 $)

>  <Rbt.Library>
libRbt.so (2013.1, Build901 2013/11/27)

>  <Rbt.Parameter_File>
/export/apps/rDock/src/rDock_2013.1_src/data/scripts/dock_solv.prm

>  <Rbt.Receptor>
prm/pocket_docking_5.prm

>  <SCORE>
-13.2576

>  <SCORE.INTER>
-12.6164

>  <SCORE.INTER.CONST>
1

>  <SCORE.INTER.POLAR>
0

>  <SCORE.INTER.ROT>
3

>  <SCORE.INTER.SOLV>
14.5395

>  <SCORE.INTER.VDW>
-18.8574

>  <SCORE.INTER.norm>
-1.05136

>  <SCORE.INTRA>
-0.641201

>  <SCORE.INTRA.DIHEDRAL>
-0.899465

>  <SCORE.INTRA.DIHEDRAL.0>
2.1382

>  <SCORE.INTRA.POLAR>
0

>  <SCORE.INTRA.POLAR.0>
0

>  <SCORE.INTRA.REPUL>
0

>  <SCORE.INTRA.REPUL.0>
0

>  <SCORE.INTRA.SOLV>
-1.54162

>  <SCORE.INTRA.SOLV.lig_0>
-59.6513

>  <SCORE.INTRA.VDW>
0.579343

>  <SCORE.INTRA.VDW.0>
-0.569808

>  <SCORE.INTRA.norm>
-0.0534334

>  <SCORE.RESTR>
0

>  <SCORE.RESTR.CAVITY>
0

>  <SCORE.RESTR.norm>
0

>  <SCORE.SYSTEM>
0

>  <SCORE.SYSTEM.CONST>
0

>  <SCORE.SYSTEM.DIHEDRAL>
0

>  <SCORE.SYSTEM.SOLV>
0

>  <SCORE.SYSTEM.norm>
0

>  <SCORE.heavy>
12

>  <SCORE.norm>
-1.1048

>  <RMSD>
3.015

$$$$
ligand
 OpenBabel11021811503D
libRbt.so/2013.1/901 2013/11/27
 12 12  0  0  0  0  0  0  0  0999 V2000
   10.6490   13.6303  147.9760 C   0  0  0  0  0  0  0  0  0  0  0  0
   12.3511    8.8566  145.8123 C   0  0  0  0  0  0  0  0  0  0  0  0
    9.7992   11.2455  148.9475 N   0  0  0  0  0  0  0  0  0  0  0  0
   10.8070   14.7546  147.0415 N   0  0  0  0  0  0  0  0  0  0  0  0
   10.6555   15.7845  147.4647 N   0  0  0  0  0  0  0  0  0  0  0  0
   10.4983   16.8108  147.8894 N   0  0  0  0  0  0  0  0  0  0  0  0
   12.3591   11.2095  145.8261 N   0  0  0  0  0  0  0  0  0  0  0  0
   11.9213   10.0591  146.3600 C   0  0  0  0  0  0  0  0  0  0  0  0
   11.0212   10.0639  147.3535 N   0  0  0  0  0  0  0  0  0  0  0  0
   10.5386   11.2141  147.8427 C   0  0  0  0  0  0  0  0  0  0  0  0
   10.9511   12.4388  147.3274 C   0  0  0  0  0  0  0  0  0  0  0  0
   11.8752   12.4366  146.2919 C   0  0  0  0  0  0  0  0  0  0  0  0
  1 11  1  0  0  0  0
  1  4  1  0  0  0  0
  2  8  1  0  0  0  0
  3 10  1  0  0  0  0
  4  5  1  0  0  0  0
  5  6  1  0  0  0  0
  7  8  2  0  0  0  0
  7 12  1  0  0  0  0
  8  9  1  0  0  0  0
  9 10  2  0  0  0  0
 10 11  1  0  0  0  0
 11 12  2  0  0  0  0
M  END
>  <CHROM.1>
-162.00281917,-176.16057124,-54.04238248,11.11665015,12.39457959,147.18014660
1.88805751,0.89742559,-0.05784844

>  <Name>
ligand

>  <RI>
0

>  <Rbt.Current_Directory>
/home/itssahil/PROJECTS/Mol_Feturizer/New_Systems/rnas/4NYA

>  <Rbt.Executable>
rbdock ($Id: //depot/dev/client3/rdock/2013.1/src/exe/rbdock.cxx#4 $)

>  <Rbt.Library>
libRbt.so (2013.1, Build901 2013/11/27)

>  <Rbt.Parameter_File>
/export/apps/rDock/src/rDock_2013.1_src/data/scripts/dock_solv.prm

>  <Rbt.Receptor>
prm/pocket_docking_5.prm

>  <SCORE>
-13.3683

>  <SCORE.INTER>
-12.6939

>  <SCORE.INTER.CONST>
1

>  <SCORE.INTER.POLAR>
0

>  <SCORE.INTER.ROT>
3

>  <SCORE.INTER.SOLV>
14.4204

>  <SCORE.INTER.VDW>
-18.8694

>  <SCORE.INTER.norm>
-1.05782

>  <SCORE.INTRA>
-0.674447

>  <SCORE.INTRA.DIHEDRAL>
-0.923368

>  <SCORE.INTRA.DIHEDRAL.0>
2.1382

>  <SCORE.INTRA.POLAR>
0

>  <SCORE.INTRA.POLAR.0>
0

>  <SCORE.INTRA.REPUL>
0

>  <SCORE.INTRA.REPUL.0>
0

>  <SCORE.INTRA.SOLV>
-1.5417

>  <SCORE.INTRA.SOLV.lig_0>
-59.6513

>  <SCORE.INTRA.VDW>
0.558088

>  <SCORE.INTRA.VDW.0>
-0.569808

>  <SCORE.INTRA.norm>
-0.0562039

>  <SCORE.RESTR>
0

>  <SCORE.RESTR.CAVITY>
0

>  <SCORE.RESTR.norm>
0

>  <SCORE.SYSTEM>
0

>  <SCORE.SYSTEM.CONST>
0

>  <SCORE.SYSTEM.DIHEDRAL>
0

>  <SCORE.SYSTEM.SOLV>
0

>  <SCORE.SYSTEM.norm>
0

>  <SCORE.heavy>
12

>  <SCORE.norm>
-1.11403

>  <RMSD>
3.017

$$$$
ligand
 OpenBabel11021811503D
libRbt.so/2013.1/901 2013/11/27
 12 12  0  0  0  0  0  0  0  0999 V2000
   10.6486   13.6331  147.9755 C   0  0  0  0  0  0  0  0  0  0  0  0
   12.3555    8.8590  145.8166 C   0  0  0  0  0  0  0  0  0  0  0  0
    9.7992   11.2485  148.9477 N   0  0  0  0  0  0  0  0  0  0  0  0
   10.7860   14.7548  147.0346 N   0  0  0  0  0  0  0  0  0  0  0  0
   10.6426   15.7858  147.4578 N   0  0  0  0  0  0  0  0  0  0  0  0
   10.5047   16.8141  147.8844 N   0  0  0  0  0  0  0  0  0  0  0  0
   12.3622   11.2119  145.8288 N   0  0  0  0  0  0  0  0  0  0  0  0
   11.9245   10.0616  146.3630 C   0  0  0  0  0  0  0  0  0  0  0  0
   11.0235   10.0666  147.3557 N   0  0  0  0  0  0  0  0  0  0  0  0
   10.5397   11.2168  147.8437 C   0  0  0  0  0  0  0  0  0  0  0  0
   10.9520   12.4414  147.3280 C   0  0  0  0  0  0  0  0  0  0  0  0
   11.8772   12.4390  146.2934 C   0  0  0  0  0  0  0  0  0  0  0  0
  1 11  1  0  0  0  0
  1  4  1  0  0  0  0
  2  8  1  0  0  0  0
  3 10  1  0  0  0  0
  4  5  1  0  0  0  0
  5  6  1  0  0  0  0
  7  8  2  0  0  0  0
  7 12  1  0  0  0  0
  8  9  1  0  0  0  0
  9 10  2  0  0  0  0
 10 11  1  0  0  0  0
 11 12  2  0  0  0  0
M  END
>  <CHROM.1>
-161.10064548,-175.52665150,61.70805944,11.11563364,12.39695069,147.17976152
1.89033657,0.89698067,-0.06100618

>  <Name>
ligand

>  <RI>
0

>  <Rbt.Current_Directory>
/home/itssahil/PROJECTS/Mol_Feturizer/New_Systems/rnas/4NYA

>  <Rbt.Executable>
rbdock ($Id: //depot/dev/client3/rdock/2013.1/src/exe/rbdock.cxx#4 $)

>  <Rbt.Library>
libRbt.so (2013.1, Build901 2013/11/27)

>  <Rbt.Parameter_File>
/export/apps/rDock/src/rDock_2013.1_src/data/scripts/dock_solv.prm

>  <Rbt.Receptor>
prm/pocket_docking_5.prm

>  <SCORE>
-13.3606

>  <SCORE.INTER>
-12.6818

>  <SCORE.INTER.CONST>
1

>  <SCORE.INTER.POLAR>
0

>  <SCORE.INTER.ROT>
3

>  <SCORE.INTER.SOLV>
14.4667

>  <SCORE.INTER.VDW>
-18.8768

>  <SCORE.INTER.norm>
-1.05682

>  <SCORE.INTRA>
-0.678802

>  <SCORE.INTRA.DIHEDRAL>
-0.934956

>  <SCORE.INTRA.DIHEDRAL.0>
2.1382

>  <SCORE.INTRA.POLAR>
0

>  <SCORE.INTRA.POLAR.0>
0

>  <SCORE.INTRA.REPUL>
0

>  <SCORE.INTRA.REPUL.0>
0

>  <SCORE.INTRA.SOLV>
-1.53755

>  <SCORE.INTRA.SOLV.lig_0>
-59.6513

>  <SCORE.INTRA.VDW>
0.557453

>  <SCORE.INTRA.VDW.0>
-0.569808

>  <SCORE.INTRA.norm>
-0.0565668

>  <SCORE.RESTR>
0

>  <SCORE.RESTR.CAVITY>
0

>  <SCORE.RESTR.norm>
0

>  <SCORE.SYSTEM>
0

>  <SCORE.SYSTEM.CONST>
0

>  <SCORE.SYSTEM.DIHEDRAL>
0

>  <SCORE.SYSTEM.SOLV>
0

>  <SCORE.SYSTEM.norm>
0

>  <SCORE.heavy>
12

>  <SCORE.norm>
-1.11339

>  <RMSD>
3.018

$$$$
ligand
 OpenBabel11021811503D
libRbt.so/2013.1/901 2013/11/27
 12 12  0  0  0  0  0  0  0  0999 V2000
   10.6541   13.5291  147.8989 C   0  0  0  0  0  0  0  0  0  0  0  0
   12.4341    8.7736  145.7579 C   0  0  0  0  0  0  0  0  0  0  0  0
    9.6846   11.1402  148.7392 N   0  0  0  0  0  0  0  0  0  0  0  0
   11.0120   14.6768  147.0522 N   0  0  0  0  0  0  0  0  0  0  0  0
   10.9177   15.6944  147.5194 N   0  0  0  0  0  0  0  0  0  0  0  0
   10.8170   16.7091  147.9871 N   0  0  0  0  0  0  0  0  0  0  0  0
   12.4852   11.1249  145.8316 N   0  0  0  0  0  0  0  0  0  0  0  0
   11.9845    9.9715  146.2997 C   0  0  0  0  0  0  0  0  0  0  0  0
   11.0079    9.9715  147.2182 N   0  0  0  0  0  0  0  0  0  0  0  0
   10.5094   11.1195  147.6964 C   0  0  0  0  0  0  0  0  0  0  0  0
   10.9848   12.3472  147.2465 C   0  0  0  0  0  0  0  0  0  0  0  0
   11.9887   12.3503  146.2883 C   0  0  0  0  0  0  0  0  0  0  0  0
  1 11  1  0  0  0  0
  1  4  1  0  0  0  0
  2  8  1  0  0  0  0
  3 10  1  0  0  0  0
  4  5  1  0  0  0  0
  5  6  1  0  0  0  0
  7  8  2  0  0  0  0
  7 12  1  0  0  0  0
  8  9  1  0  0  0  0
  9 10  2  0  0  0  0
 10 11  1  0  0  0  0
 11 12  2  0  0  0  0
M  END
>  <CHROM.1>
-166.68742971,-172.35977508,-57.60210278,11.20649232,12.30322230,147.13144649
1.80793648,0.80965905,0.03892572

>  <Name>
ligand

>  <RI>
0

>  <Rbt.Current_Directory>
/home/itssahil/PROJECTS/Mol_Feturizer/New_Systems/rnas/4NYA

>  <Rbt.Executable>
rbdock ($Id: //depot/dev/client3/rdock/2013.1/src/exe/rbdock.cxx#4 $)

>  <Rbt.Library>
libRbt.so (2013.1, Build901 2013/11/27)

>  <Rbt.Parameter_File>
/export/apps/rDock/src/rDock_2013.1_src/data/scripts/dock_solv.prm

>  <Rbt.Receptor>
prm/pocket_docking_6.prm

>  <SCORE>
-13.3118

>  <SCORE.INTER>
-12.7613

>  <SCORE.INTER.CONST>
1

>  <SCORE.INTER.POLAR>
0

>  <SCORE.INTER.ROT>
3

>  <SCORE.INTER.SOLV>
14.7952

>  <SCORE.INTER.VDW>
-19.0393

>  <SCORE.INTER.norm>
-1.06345

>  <SCORE.INTRA>
-0.550461

>  <SCORE.INTRA.DIHEDRAL>
-0.842615

>  <SCORE.INTRA.DIHEDRAL.0>
2.1382

>  <SCORE.INTRA.POLAR>
0

>  <SCORE.INTRA.POLAR.0>
0

>  <SCORE.INTRA.REPUL>
0

>  <SCORE.INTRA.REPUL.0>
0

>  <SCORE.INTRA.SOLV>
-1.54874

>  <SCORE.INTRA.SOLV.lig_0>
-59.6513

>  <SCORE.INTRA.VDW>
0.645215

>  <SCORE.INTRA.VDW.0>
-0.569808

>  <SCORE.INTRA.norm>
-0.0458718

>  <SCORE.RESTR>
0

>  <SCORE.RESTR.CAVITY>
0

>  <SCORE.RESTR.norm>
0

>  <SCORE.SYSTEM>
0

>  <SCORE.SYSTEM.CONST>
0

>  <SCORE.SYSTEM.DIHEDRAL>
0

>  <SCORE.SYSTEM.SOLV>
0

>  <SCORE.SYSTEM.norm>
0

>  <SCORE.heavy>
12

>  <SCORE.norm>
-1.10932

>  <RMSD>
3.018

$$$$
ligand
 OpenBabel11021811503D
libRbt.so/2013.1/901 2013/11/27
 12 12  0  0  0  0  0  0  0  0999 V2000
   10.6308   13.6286  147.9649 C   0  0  0  0  0  0  0  0  0  0  0  0
   12.3500    8.8572  145.8097 C   0  0  0  0  0  0  0  0  0  0  0  0
    9.7983   11.2425  148.9479 N   0  0  0  0  0  0  0  0  0  0  0  0
   10.7763   14.7505  147.0255 N   0  0  0  0  0  0  0  0  0  0  0  0
   10.6420   15.7820  147.4503 N   0  0  0  0  0  0  0  0  0  0  0  0
   10.5016   16.8102  147.8765 N   0  0  0  0  0  0  0  0  0  0  0  0
   12.3451   11.2102  145.8157 N   0  0  0  0  0  0  0  0  0  0  0  0
   11.9159   10.0592  146.3552 C   0  0  0  0  0  0  0  0  0  0  0  0
   11.0200   10.0624  147.3525 N   0  0  0  0  0  0  0  0  0  0  0  0
   10.5332   11.2115  147.8401 C   0  0  0  0  0  0  0  0  0  0  0  0
   10.9367   12.4367  147.3190 C   0  0  0  0  0  0  0  0  0  0  0  0
   11.8564   12.4361  146.2796 C   0  0  0  0  0  0  0  0  0  0  0  0
  1 11  1  0  0  0  0
  1  4  1  0  0  0  0
  2  8  1  0  0  0  0
  3 10  1  0  0  0  0
  4  5  1  0  0  0  0
  5  6  1  0  0  0  0
  7  8  2  0  0  0  0
  7 12  1  0  0  0  0
  8  9  1  0  0  0  0
  9 10  2  0  0  0  0
 10 11  1  0  0  0  0
 11 12  2  0  0  0  0
M  END
>  <CHROM.1>
-161.90193542,-174.92690747,-58.30039833,11.10672603,12.39315642,147.17211713
1.89121628,0.90094960,-0.06294870

>  <Name>
ligand

>  <RI>
0

>  <Rbt.Current_Directory>
/home/itssahil/PROJECTS/Mol_Feturizer/New_Systems/rnas/4NYA

>  <Rbt.Executable>
rbdock ($Id: //depot/dev/client3/rdock/2013.1/src/exe/rbdock.cxx#4 $)

>  <Rbt.Library>
libRbt.so (2013.1, Build901 2013/11/27)

>  <Rbt.Parameter_File>
/export/apps/rDock/src/rDock_2013.1_src/data/scripts/dock_solv.prm

>  <Rbt.Receptor>
prm/pocket_docking_5.prm

>  <SCORE>
-13.3809

>  <SCORE.INTER>
-12.7048

>  <SCORE.INTER.CONST>
1

>  <SCORE.INTER.POLAR>
0

>  <SCORE.INTER.ROT>
3

>  <SCORE.INTER.SOLV>
14.5059

>  <SCORE.INTER.VDW>
-18.9051

>  <SCORE.INTER.norm>
-1.05873

>  <SCORE.INTRA>
-0.676097

>  <SCORE.INTRA.DIHEDRAL>
-0.92411

>  <SCORE.INTRA.DIHEDRAL.0>
2.1382

>  <SCORE.INTRA.POLAR>
0

>  <SCORE.INTRA.POLAR.0>
0

>  <SCORE.INTRA.REPUL>
0

>  <SCORE.INTRA.REPUL.0>
0

>  <SCORE.INTRA.SOLV>
-1.53924

>  <SCORE.INTRA.SOLV.lig_0>
-59.6513

>  <SCORE.INTRA.VDW>
0.555579

>  <SCORE.INTRA.VDW.0>
-0.569808

>  <SCORE.INTRA.norm>
-0.0563414

>  <SCORE.RESTR>
0

>  <SCORE.RESTR.CAVITY>
0

>  <SCORE.RESTR.norm>
0

>  <SCORE.SYSTEM>
0

>  <SCORE.SYSTEM.CONST>
0

>  <SCORE.SYSTEM.DIHEDRAL>
0

>  <SCORE.SYSTEM.SOLV>
0

>  <SCORE.SYSTEM.norm>
0

>  <SCORE.heavy>
12

>  <SCORE.norm>
-1.11507

>  <RMSD>
3.019

$$$$
ligand
 OpenBabel11021811503D
libRbt.so/2013.1/901 2013/11/27
 12 12  0  0  0  0  0  0  0  0999 V2000
   10.6246   13.6126  147.9660 C   0  0  0  0  0  0  0  0  0  0  0  0
   12.3617    8.8455  145.8157 C   0  0  0  0  0  0  0  0  0  0  0  0
    9.8239   11.2242  148.9701 N   0  0  0  0  0  0  0  0  0  0  0  0
   10.7943   14.7355  147.0321 N   0  0  0  0  0  0  0  0  0  0  0  0
   10.6478   15.7666  147.4543 N   0  0  0  0  0  0  0  0  0  0  0  0
   10.5021   16.7984  147.8696 N   0  0  0  0  0  0  0  0  0  0  0  0
   12.3362   11.1983  145.8100 N   0  0  0  0  0  0  0  0  0  0  0  0
   11.9231   10.0463  146.3600 C   0  0  0  0  0  0  0  0  0  0  0  0
   11.0383   10.0468  147.3672 N   0  0  0  0  0  0  0  0  0  0  0  0
   10.5467   11.1940  147.8544 C   0  0  0  0  0  0  0  0  0  0  0  0
   10.9337   12.4200  147.3227 C   0  0  0  0  0  0  0  0  0  0  0  0
   11.8419   12.4222  146.2732 C   0  0  0  0  0  0  0  0  0  0  0  0
  1 11  1  0  0  0  0
  1  4  1  0  0  0  0
  2  8  1  0  0  0  0
  3 10  1  0  0  0  0
  4  5  1  0  0  0  0
  5  6  1  0  0  0  0
  7  8  2  0  0  0  0
  7 12  1  0  0  0  0
  8  9  1  0  0  0  0
  9 10  2  0  0  0  0
 10 11  1  0  0  0  0
 11 12  2  0  0  0  0
M  END
>  <CHROM.1>
-163.82153262,-175.60648011,-173.71269867,11.11266362,12.37849568,147.17703628
1.89585452,0.90963313,-0.06993036

>  <Name>
ligand

>  <RI>
0

>  <Rbt.Current_Directory>
/home/itssahil/PROJECTS/Mol_Feturizer/New_Systems/rnas/4NYA

>  <Rbt.Executable>
rbdock ($Id: //depot/dev/client3/rdock/2013.1/src/exe/rbdock.cxx#4 $)

>  <Rbt.Library>
libRbt.so (2013.1, Build901 2013/11/27)

>  <Rbt.Parameter_File>
/export/apps/rDock/src/rDock_2013.1_src/data/scripts/dock_solv.prm

>  <Rbt.Receptor>
prm/pocket_docking_8.prm

>  <SCORE>
-13.3487

>  <SCORE.INTER>
-12.7134

>  <SCORE.INTER.CONST>
1

>  <SCORE.INTER.POLAR>
0

>  <SCORE.INTER.ROT>
3

>  <SCORE.INTER.SOLV>
14.4669

>  <SCORE.INTER.VDW>
-18.8979

>  <SCORE.INTER.norm>
-1.05945

>  <SCORE.INTRA>
-0.635289

>  <SCORE.INTRA.DIHEDRAL>
-0.901094

>  <SCORE.INTRA.DIHEDRAL.0>
2.1382

>  <SCORE.INTRA.POLAR>
0

>  <SCORE.INTRA.POLAR.0>
0

>  <SCORE.INTRA.REPUL>
0

>  <SCORE.INTRA.REPUL.0>
0

>  <SCORE.INTRA.SOLV>
-1.55131

>  <SCORE.INTRA.SOLV.lig_0>
-59.6513

>  <SCORE.INTRA.VDW>
0.590913

>  <SCORE.INTRA.VDW.0>
-0.569808

>  <SCORE.INTRA.norm>
-0.0529407

>  <SCORE.RESTR>
0

>  <SCORE.RESTR.CAVITY>
0

>  <SCORE.RESTR.norm>
0

>  <SCORE.SYSTEM>
0

>  <SCORE.SYSTEM.CONST>
0

>  <SCORE.SYSTEM.DIHEDRAL>
0

>  <SCORE.SYSTEM.SOLV>
0

>  <SCORE.SYSTEM.norm>
0

>  <SCORE.heavy>
12

>  <SCORE.norm>
-1.11239

>  <RMSD>
3.019

$$$$
ligand
 OpenBabel11021811503D
libRbt.so/2013.1/901 2013/11/27
 12 12  0  0  0  0  0  0  0  0999 V2000
   10.6245   13.6161  147.9654 C   0  0  0  0  0  0  0  0  0  0  0  0
   12.3615    8.8480  145.8172 C   0  0  0  0  0  0  0  0  0  0  0  0
    9.8435   11.2284  148.9862 N   0  0  0  0  0  0  0  0  0  0  0  0
   10.7901   14.7371  147.0283 N   0  0  0  0  0  0  0  0  0  0  0  0
   10.6443   15.7690  147.4487 N   0  0  0  0  0  0  0  0  0  0  0  0
   10.4997   16.8017  147.8622 N   0  0  0  0  0  0  0  0  0  0  0  0
   12.3260   11.2007  145.8027 N   0  0  0  0  0  0  0  0  0  0  0  0
   11.9229   10.0492  146.3609 C   0  0  0  0  0  0  0  0  0  0  0  0
   11.0477   10.0498  147.3764 N   0  0  0  0  0  0  0  0  0  0  0  0
   10.5559   11.1969  147.8638 C   0  0  0  0  0  0  0  0  0  0  0  0
   10.9327   12.4224  147.3238 C   0  0  0  0  0  0  0  0  0  0  0  0
   11.8309   12.4243  146.2658 C   0  0  0  0  0  0  0  0  0  0  0  0
  1 11  1  0  0  0  0
  1  4  1  0  0  0  0
  2  8  1  0  0  0  0
  3 10  1  0  0  0  0
  4  5  1  0  0  0  0
  5  6  1  0  0  0  0
  7  8  2  0  0  0  0
  7 12  1  0  0  0  0
  8  9  1  0  0  0  0
  9 10  2  0  0  0  0
 10 11  1  0  0  0  0
 11 12  2  0  0  0  0
M  END
>  <CHROM.1>
-164.23274688,-175.59592421,-177.45966299,11.11317527,12.38125532,147.17753669
1.90086381,0.91832172,-0.07713879

>  <Name>
ligand

>  <RI>
0

>  <Rbt.Current_Directory>
/home/itssahil/PROJECTS/Mol_Feturizer/New_Systems/rnas/4NYA

>  <Rbt.Executable>
rbdock ($Id: //depot/dev/client3/rdock/2013.1/src/exe/rbdock.cxx#4 $)

>  <Rbt.Library>
libRbt.so (2013.1, Build901 2013/11/27)

>  <Rbt.Parameter_File>
/export/apps/rDock/src/rDock_2013.1_src/data/scripts/dock_solv.prm

>  <Rbt.Receptor>
prm/pocket_docking_7.prm

>  <SCORE>
-13.3461

>  <SCORE.INTER>
-12.7159

>  <SCORE.INTER.CONST>
1

>  <SCORE.INTER.POLAR>
0

>  <SCORE.INTER.ROT>
3

>  <SCORE.INTER.SOLV>
14.4882

>  <SCORE.INTER.VDW>
-18.9067

>  <SCORE.INTER.norm>
-1.05966

>  <SCORE.INTRA>
-0.630277

>  <SCORE.INTRA.DIHEDRAL>
-0.905446

>  <SCORE.INTRA.DIHEDRAL.0>
2.1382

>  <SCORE.INTRA.POLAR>
0

>  <SCORE.INTRA.POLAR.0>
0

>  <SCORE.INTRA.REPUL>
0

>  <SCORE.INTRA.REPUL.0>
0

>  <SCORE.INTRA.SOLV>
-1.55257

>  <SCORE.INTRA.SOLV.lig_0>
-59.6513

>  <SCORE.INTRA.VDW>
0.598729

>  <SCORE.INTRA.VDW.0>
-0.569808

>  <SCORE.INTRA.norm>
-0.0525231

>  <SCORE.RESTR>
0

>  <SCORE.RESTR.CAVITY>
0

>  <SCORE.RESTR.norm>
0

>  <SCORE.SYSTEM>
0

>  <SCORE.SYSTEM.CONST>
0

>  <SCORE.SYSTEM.DIHEDRAL>
0

>  <SCORE.SYSTEM.SOLV>
0

>  <SCORE.SYSTEM.norm>
0

>  <SCORE.heavy>
12

>  <SCORE.norm>
-1.11218

>  <RMSD>
3.021

$$$$
ligand
 OpenBabel11021811503D
libRbt.so/2013.1/901 2013/11/27
 12 12  0  0  0  0  0  0  0  0999 V2000
   10.6161   13.6149  147.9534 C   0  0  0  0  0  0  0  0  0  0  0  0
   12.4303    8.8636  145.8321 C   0  0  0  0  0  0  0  0  0  0  0  0
    9.8344   11.2197  148.9559 N   0  0  0  0  0  0  0  0  0  0  0  0
   10.8719   14.7459  147.0492 N   0  0  0  0  0  0  0  0  0  0  0  0
   10.6866   15.7733  147.4651 N   0  0  0  0  0  0  0  0  0  0  0  0
   10.5033   16.8016  147.8742 N   0  0  0  0  0  0  0  0  0  0  0  0
   12.3769   11.2159  145.8201 N   0  0  0  0  0  0  0  0  0  0  0  0
   11.9723   10.0605  146.3691 C   0  0  0  0  0  0  0  0  0  0  0  0
   11.0779   10.0528  147.3678 N   0  0  0  0  0  0  0  0  0  0  0  0
   10.5681   11.1953  147.8472 C   0  0  0  0  0  0  0  0  0  0  0  0
   10.9456   12.4246  147.3161 C   0  0  0  0  0  0  0  0  0  0  0  0
   11.8637   12.4350  146.2754 C   0  0  0  0  0  0  0  0  0  0  0  0
  1 11  1  0  0  0  0
  1  4  1  0  0  0  0
  2  8  1  0  0  0  0
  3 10  1  0  0  0  0
  4  5  1  0  0  0  0
  5  6  1  0  0  0  0
  7  8  2  0  0  0  0
  7 12  1  0  0  0  0
  8  9  1  0  0  0  0
  9 10  2  0  0  0  0
 10 11  1  0  0  0  0
 11 12  2  0  0  0  0
M  END
>  <CHROM.1>
-167.79747149,-177.41270802,-177.58773349,11.14421183,12.38624972,147.17978996
1.89618090,0.89579616,-0.06786395

>  <Name>
ligand

>  <RI>
0

>  <Rbt.Current_Directory>
/home/itssahil/PROJECTS/Mol_Feturizer/New_Systems/rnas/4NYA

>  <Rbt.Executable>
rbdock ($Id: //depot/dev/client3/rdock/2013.1/src/exe/rbdock.cxx#4 $)

>  <Rbt.Library>
libRbt.so (2013.1, Build901 2013/11/27)

>  <Rbt.Parameter_File>
/export/apps/rDock/src/rDock_2013.1_src/data/scripts/dock_solv.prm

>  <Rbt.Receptor>
prm/pocket_docking_7.prm

>  <SCORE>
-13.2599

>  <SCORE.INTER>
-12.7104

>  <SCORE.INTER.CONST>
1

>  <SCORE.INTER.POLAR>
0

>  <SCORE.INTER.ROT>
3

>  <SCORE.INTER.SOLV>
14.488

>  <SCORE.INTER.VDW>
-18.9029

>  <SCORE.INTER.norm>
-1.0592

>  <SCORE.INTRA>
-0.549545

>  <SCORE.INTRA.DIHEDRAL>
-0.867829

>  <SCORE.INTRA.DIHEDRAL.0>
2.1382

>  <SCORE.INTRA.POLAR>
0

>  <SCORE.INTRA.POLAR.0>
0

>  <SCORE.INTRA.REPUL>
0

>  <SCORE.INTRA.REPUL.0>
0

>  <SCORE.INTRA.SOLV>
-1.56443

>  <SCORE.INTRA.SOLV.lig_0>
-59.6513

>  <SCORE.INTRA.VDW>
0.666585

>  <SCORE.INTRA.VDW.0>
-0.569808

>  <SCORE.INTRA.norm>
-0.0457954

>  <SCORE.RESTR>
0

>  <SCORE.RESTR.CAVITY>
0

>  <SCORE.RESTR.norm>
0

>  <SCORE.SYSTEM>
0

>  <SCORE.SYSTEM.CONST>
0

>  <SCORE.SYSTEM.DIHEDRAL>
0

>  <SCORE.SYSTEM.SOLV>
0

>  <SCORE.SYSTEM.norm>
0

>  <SCORE.heavy>
12

>  <SCORE.norm>
-1.10499

>  <RMSD>
3.021

$$$$
ligand
 OpenBabel11021811503D
libRbt.so/2013.1/901 2013/11/27
 12 12  0  0  0  0  0  0  0  0999 V2000
   10.6456   13.6392  147.9682 C   0  0  0  0  0  0  0  0  0  0  0  0
   12.3592    8.8587  145.8290 C   0  0  0  0  0  0  0  0  0  0  0  0
    9.7958   11.2575  148.9471 N   0  0  0  0  0  0  0  0  0  0  0  0
   10.8536   14.7643  147.0445 N   0  0  0  0  0  0  0  0  0  0  0  0
   10.6756   15.7937  147.4585 N   0  0  0  0  0  0  0  0  0  0  0  0
   10.5032   16.8204  147.8762 N   0  0  0  0  0  0  0  0  0  0  0  0
   12.3645   11.2116  145.8331 N   0  0  0  0  0  0  0  0  0  0  0  0
   11.9265   10.0629  146.3705 C   0  0  0  0  0  0  0  0  0  0  0  0
   11.0236   10.0708  147.3614 N   0  0  0  0  0  0  0  0  0  0  0  0
   10.5383   11.2224  147.8446 C   0  0  0  0  0  0  0  0  0  0  0  0
   10.9509   12.4454  147.3254 C   0  0  0  0  0  0  0  0  0  0  0  0
   11.8779   12.4400  146.2926 C   0  0  0  0  0  0  0  0  0  0  0  0
  1 11  1  0  0  0  0
  1  4  1  0  0  0  0
  2  8  1  0  0  0  0
  3 10  1  0  0  0  0
  4  5  1  0  0  0  0
  5  6  1  0  0  0  0
  7  8  2  0  0  0  0
  7 12  1  0  0  0  0
  8  9  1  0  0  0  0
  9 10  2  0  0  0  0
 10 11  1  0  0  0  0
 11 12  2  0  0  0  0
M  END
>  <CHROM.1>
-164.11250718,-177.84464952,64.00889103,11.12427579,12.40152961,147.18169164
1.88277623,0.89294068,-0.05602407

>  <Name>
ligand

>  <RI>
0

>  <Rbt.Current_Directory>
/home/itssahil/PROJECTS/Mol_Feturizer/New_Systems/rnas/4NYA

>  <Rbt.Executable>
rbdock ($Id: //depot/dev/client3/rdock/2013.1/src/exe/rbdock.cxx#4 $)

>  <Rbt.Library>
libRbt.so (2013.1, Build901 2013/11/27)

>  <Rbt.Parameter_File>
/export/apps/rDock/src/rDock_2013.1_src/data/scripts/dock_solv.prm

>  <Rbt.Receptor>
prm/pocket_docking_5.prm

>  <SCORE>
-13.3821

>  <SCORE.INTER>
-12.7468

>  <SCORE.INTER.CONST>
1

>  <SCORE.INTER.POLAR>
0

>  <SCORE.INTER.ROT>
3

>  <SCORE.INTER.SOLV>
14.4792

>  <SCORE.INTER.VDW>
-18.9242

>  <SCORE.INTER.norm>
-1.06223

>  <SCORE.INTRA>
-0.635304

>  <SCORE.INTRA.DIHEDRAL>
-0.91624

>  <SCORE.INTRA.DIHEDRAL.0>
2.1382

>  <SCORE.INTRA.POLAR>
0

>  <SCORE.INTRA.POLAR.0>
0

>  <SCORE.INTRA.REPUL>
0

>  <SCORE.INTRA.REPUL.0>
0

>  <SCORE.INTRA.SOLV>
-1.5517

>  <SCORE.INTRA.SOLV.lig_0>
-59.6513

>  <SCORE.INTRA.VDW>
0.598667

>  <SCORE.INTRA.VDW.0>
-0.569808

>  <SCORE.INTRA.norm>
-0.052942

>  <SCORE.RESTR>
0

>  <SCORE.RESTR.CAVITY>
0

>  <SCORE.RESTR.norm>
0

>  <SCORE.SYSTEM>
0

>  <SCORE.SYSTEM.CONST>
0

>  <SCORE.SYSTEM.DIHEDRAL>
0

>  <SCORE.SYSTEM.SOLV>
0

>  <SCORE.SYSTEM.norm>
0

>  <SCORE.heavy>
12

>  <SCORE.norm>
-1.11517

>  <RMSD>
3.022

$$$$
ligand
 OpenBabel11021811503D
libRbt.so/2013.1/901 2013/11/27
 12 12  0  0  0  0  0  0  0  0999 V2000
   10.6348   13.6327  147.9651 C   0  0  0  0  0  0  0  0  0  0  0  0
   12.3513    8.8614  145.8077 C   0  0  0  0  0  0  0  0  0  0  0  0
    9.8055   11.2466  148.9507 N   0  0  0  0  0  0  0  0  0  0  0  0
   10.8704   14.7624  147.0538 N   0  0  0  0  0  0  0  0  0  0  0  0
   10.7355   15.7916  147.4842 N   0  0  0  0  0  0  0  0  0  0  0  0
   10.6058   16.8178  147.9185 N   0  0  0  0  0  0  0  0  0  0  0  0
   12.3454   11.2144  145.8129 N   0  0  0  0  0  0  0  0  0  0  0  0
   11.9179   10.0633  146.3537 C   0  0  0  0  0  0  0  0  0  0  0  0
   11.0242   10.0665  147.3530 N   0  0  0  0  0  0  0  0  0  0  0  0
   10.5379   11.2155  147.8413 C   0  0  0  0  0  0  0  0  0  0  0  0
   10.9398   12.4407  147.3189 C   0  0  0  0  0  0  0  0  0  0  0  0
   11.8573   12.4402  146.2775 C   0  0  0  0  0  0  0  0  0  0  0  0
  1 11  1  0  0  0  0
  1  4  1  0  0  0  0
  2  8  1  0  0  0  0
  3 10  1  0  0  0  0
  4  5  1  0  0  0  0
  5  6  1  0  0  0  0
  7  8  2  0  0  0  0
  7 12  1  0  0  0  0
  8  9  1  0  0  0  0
  9 10  2  0  0  0  0
 10 11  1  0  0  0  0
 11 12  2  0  0  0  0
M  END
>  <CHROM.1>
-165.92483158,-175.44775747,60.32387631,11.13437270,12.39873555,147.18086941
1.86595122,0.89890129,-0.03740166

>  <Name>
ligand

>  <RI>
0

>  <Rbt.Current_Directory>
/home/itssahil/PROJECTS/Mol_Feturizer/New_Systems/rnas/4NYA

>  <Rbt.Executable>
rbdock ($Id: //depot/dev/client3/rdock/2013.1/src/exe/rbdock.cxx#4 $)

>  <Rbt.Library>
libRbt.so (2013.1, Build901 2013/11/27)

>  <Rbt.Parameter_File>
/export/apps/rDock/src/rDock_2013.1_src/data/scripts/dock_solv.prm

>  <Rbt.Receptor>
prm/pocket_docking_6.prm

>  <SCORE>
-13.2651

>  <SCORE.INTER>
-12.6783

>  <SCORE.INTER.CONST>
1

>  <SCORE.INTER.POLAR>
0

>  <SCORE.INTER.ROT>
3

>  <SCORE.INTER.SOLV>
14.2971

>  <SCORE.INTER.VDW>
-18.8179

>  <SCORE.INTER.norm>
-1.05653

>  <SCORE.INTRA>
-0.586769

>  <SCORE.INTRA.DIHEDRAL>
-0.885159

>  <SCORE.INTRA.DIHEDRAL.0>
2.1382

>  <SCORE.INTRA.POLAR>
0

>  <SCORE.INTRA.POLAR.0>
0

>  <SCORE.INTRA.REPUL>
0

>  <SCORE.INTRA.REPUL.0>
0

>  <SCORE.INTRA.SOLV>
-1.55278

>  <SCORE.INTRA.SOLV.lig_0>
-59.6513

>  <SCORE.INTRA.VDW>
0.632201

>  <SCORE.INTRA.VDW.0>
-0.569808

>  <SCORE.INTRA.norm>
-0.0488974

>  <SCORE.RESTR>
0

>  <SCORE.RESTR.CAVITY>
0

>  <SCORE.RESTR.norm>
0

>  <SCORE.SYSTEM>
0

>  <SCORE.SYSTEM.CONST>
0

>  <SCORE.SYSTEM.DIHEDRAL>
0

>  <SCORE.SYSTEM.SOLV>
0

>  <SCORE.SYSTEM.norm>
0

>  <SCORE.heavy>
12

>  <SCORE.norm>
-1.10542

>  <RMSD>
3.023

$$$$
ligand
 OpenBabel11021811503D
libRbt.so/2013.1/901 2013/11/27
 12 12  0  0  0  0  0  0  0  0999 V2000
   10.6435   13.6427  147.9683 C   0  0  0  0  0  0  0  0  0  0  0  0
   12.3583    8.8613  145.8318 C   0  0  0  0  0  0  0  0  0  0  0  0
    9.7981   11.2612  148.9517 N   0  0  0  0  0  0  0  0  0  0  0  0
   10.8517   14.7671  147.0438 N   0  0  0  0  0  0  0  0  0  0  0  0
   10.6756   15.7968  147.4577 N   0  0  0  0  0  0  0  0  0  0  0  0
   10.5045   16.8237  147.8756 N   0  0  0  0  0  0  0  0  0  0  0  0
   12.3611   11.2143  145.8330 N   0  0  0  0  0  0  0  0  0  0  0  0
   11.9253   10.0658  146.3726 C   0  0  0  0  0  0  0  0  0  0  0  0
   11.0242   10.0739  147.3652 N   0  0  0  0  0  0  0  0  0  0  0  0
   10.5386   11.2256  147.8478 C   0  0  0  0  0  0  0  0  0  0  0  0
   10.9488   12.4484  147.3264 C   0  0  0  0  0  0  0  0  0  0  0  0
   11.8740   12.4427  146.2918 C   0  0  0  0  0  0  0  0  0  0  0  0
  1 11  1  0  0  0  0
  1  4  1  0  0  0  0
  2  8  1  0  0  0  0
  3 10  1  0  0  0  0
  4  5  1  0  0  0  0
  5  6  1  0  0  0  0
  7  8  2  0  0  0  0
  7 12  1  0  0  0  0
  8  9  1  0  0  0  0
  9 10  2  0  0  0  0
 10 11  1  0  0  0  0
 11 12  2  0  0  0  0
M  END
>  <CHROM.1>
-164.25052184,-177.73467855,58.90891363,11.12337607,12.40455897,147.18290138
1.88317628,0.89454257,-0.05722449

>  <Name>
ligand

>  <RI>
0

>  <Rbt.Current_Directory>
/home/itssahil/PROJECTS/Mol_Feturizer/New_Systems/rnas/4NYA

>  <Rbt.Executable>
rbdock ($Id: //depot/dev/client3/rdock/2013.1/src/exe/rbdock.cxx#4 $)

>  <Rbt.Library>
libRbt.so (2013.1, Build901 2013/11/27)

>  <Rbt.Parameter_File>
/export/apps/rDock/src/rDock_2013.1_src/data/scripts/dock_solv.prm

>  <Rbt.Receptor>
prm/pocket_docking_8.prm

>  <SCORE>
-13.3873

>  <SCORE.INTER>
-12.7536

>  <SCORE.INTER.CONST>
1

>  <SCORE.INTER.POLAR>
0

>  <SCORE.INTER.ROT>
3

>  <SCORE.INTER.SOLV>
14.4751

>  <SCORE.INTER.VDW>
-18.9274

>  <SCORE.INTER.norm>
-1.0628

>  <SCORE.INTRA>
-0.633705

>  <SCORE.INTRA.DIHEDRAL>
-0.918352

>  <SCORE.INTRA.DIHEDRAL.0>
2.1382

>  <SCORE.INTRA.POLAR>
0

>  <SCORE.INTRA.POLAR.0>
0

>  <SCORE.INTRA.REPUL>
0

>  <SCORE.INTRA.REPUL.0>
0

>  <SCORE.INTRA.SOLV>
-1.55173

>  <SCORE.INTRA.SOLV.lig_0>
-59.6513

>  <SCORE.INTRA.VDW>
0.601333

>  <SCORE.INTRA.VDW.0>
-0.569808

>  <SCORE.INTRA.norm>
-0.0528087

>  <SCORE.RESTR>
0

>  <SCORE.RESTR.CAVITY>
0

>  <SCORE.RESTR.norm>
0

>  <SCORE.SYSTEM>
0

>  <SCORE.SYSTEM.CONST>
0

>  <SCORE.SYSTEM.DIHEDRAL>
0

>  <SCORE.SYSTEM.SOLV>
0

>  <SCORE.SYSTEM.norm>
0

>  <SCORE.heavy>
12

>  <SCORE.norm>
-1.11561

>  <RMSD>
3.023

$$$$
ligand
 OpenBabel11021811503D
libRbt.so/2013.1/901 2013/11/27
 12 12  0  0  0  0  0  0  0  0999 V2000
   10.6512   13.6410  147.9720 C   0  0  0  0  0  0  0  0  0  0  0  0
   12.3599    8.8529  145.8457 C   0  0  0  0  0  0  0  0  0  0  0  0
    9.8354   11.2626  148.9872 N   0  0  0  0  0  0  0  0  0  0  0  0
   10.7836   14.7539  147.0200 N   0  0  0  0  0  0  0  0  0  0  0  0
   10.5971   15.7856  147.4243 N   0  0  0  0  0  0  0  0  0  0  0  0
   10.4163   16.8149  147.8320 N   0  0  0  0  0  0  0  0  0  0  0  0
   12.3490   11.2058  145.8286 N   0  0  0  0  0  0  0  0  0  0  0  0
   11.9285   10.0591  146.3840 C   0  0  0  0  0  0  0  0  0  0  0  0
   11.0432   10.0699  147.3907 N   0  0  0  0  0  0  0  0  0  0  0  0
   10.5586   11.2225  147.8720 C   0  0  0  0  0  0  0  0  0  0  0  0
   10.9534   12.4435  147.3346 C   0  0  0  0  0  0  0  0  0  0  0  0
   11.8621   12.4350  146.2856 C   0  0  0  0  0  0  0  0  0  0  0  0
  1 11  1  0  0  0  0
  1  4  1  0  0  0  0
  2  8  1  0  0  0  0
  3 10  1  0  0  0  0
  4  5  1  0  0  0  0
  5  6  1  0  0  0  0
  7  8  2  0  0  0  0
  7 12  1  0  0  0  0
  8  9  1  0  0  0  0
  9 10  2  0  0  0  0
 10 11  1  0  0  0  0
 11 12  2  0  0  0  0
M  END
>  <CHROM.1>
-161.88968358,-178.07976408,64.26376169,11.10882128,12.39812493,147.18350986
1.91283108,0.91233190,-0.09186519

>  <Name>
ligand

>  <RI>
0

>  <Rbt.Current_Directory>
/home/itssahil/PROJECTS/Mol_Feturizer/New_Systems/rnas/4NYA

>  <Rbt.Executable>
rbdock ($Id: //depot/dev/client3/rdock/2013.1/src/exe/rbdock.cxx#4 $)

>  <Rbt.Library>
libRbt.so (2013.1, Build901 2013/11/27)

>  <Rbt.Parameter_File>
/export/apps/rDock/src/rDock_2013.1_src/data/scripts/dock_solv.prm

>  <Rbt.Receptor>
prm/pocket_docking_8.prm

>  <SCORE>
-13.2738

>  <SCORE.INTER>
-12.5888

>  <SCORE.INTER.CONST>
1

>  <SCORE.INTER.POLAR>
0

>  <SCORE.INTER.ROT>
3

>  <SCORE.INTER.SOLV>
14.7076

>  <SCORE.INTER.VDW>
-18.8951

>  <SCORE.INTER.norm>
-1.04907

>  <SCORE.INTRA>
-0.684999

>  <SCORE.INTRA.DIHEDRAL>
-0.938052

>  <SCORE.INTRA.DIHEDRAL.0>
2.1382

>  <SCORE.INTRA.POLAR>
0

>  <SCORE.INTRA.POLAR.0>
0

>  <SCORE.INTRA.REPUL>
0

>  <SCORE.INTRA.REPUL.0>
0

>  <SCORE.INTRA.SOLV>
-1.54487

>  <SCORE.INTRA.SOLV.lig_0>
-59.6513

>  <SCORE.INTRA.VDW>
0.556462

>  <SCORE.INTRA.VDW.0>
-0.569808

>  <SCORE.INTRA.norm>
-0.0570833

>  <SCORE.RESTR>
0

>  <SCORE.RESTR.CAVITY>
0

>  <SCORE.RESTR.norm>
0

>  <SCORE.SYSTEM>
0

>  <SCORE.SYSTEM.CONST>
0

>  <SCORE.SYSTEM.DIHEDRAL>
0

>  <SCORE.SYSTEM.SOLV>
0

>  <SCORE.SYSTEM.norm>
0

>  <SCORE.heavy>
12

>  <SCORE.norm>
-1.10615

>  <RMSD>
3.023

$$$$
ligand
 OpenBabel11021811503D
libRbt.so/2013.1/901 2013/11/27
 12 12  0  0  0  0  0  0  0  0999 V2000
   10.6447   13.6468  147.9634 C   0  0  0  0  0  0  0  0  0  0  0  0
   12.3583    8.8634  145.8303 C   0  0  0  0  0  0  0  0  0  0  0  0
    9.8059   11.2662  148.9546 N   0  0  0  0  0  0  0  0  0  0  0  0
   10.8421   14.7691  147.0341 N   0  0  0  0  0  0  0  0  0  0  0  0
   10.6677   15.7996  147.4468 N   0  0  0  0  0  0  0  0  0  0  0  0
   10.4871   16.8266  147.8603 N   0  0  0  0  0  0  0  0  0  0  0  0
   12.3579   11.2164  145.8268 N   0  0  0  0  0  0  0  0  0  0  0  0
   11.9256   10.0684  146.3703 C   0  0  0  0  0  0  0  0  0  0  0  0
   11.0280   10.0773  147.3661 N   0  0  0  0  0  0  0  0  0  0  0  0
   10.5426   11.2293  147.8482 C   0  0  0  0  0  0  0  0  0  0  0  0
   10.9493   12.4516  147.3228 C   0  0  0  0  0  0  0  0  0  0  0  0
   11.8708   12.4451  146.2850 C   0  0  0  0  0  0  0  0  0  0  0  0
  1 11  1  0  0  0  0
  1  4  1  0  0  0  0
  2  8  1  0  0  0  0
  3 10  1  0  0  0  0
  4  5  1  0  0  0  0
  5  6  1  0  0  0  0
  7  8  2  0  0  0  0
  7 12  1  0  0  0  0
  8  9  1  0  0  0  0
  9 10  2  0  0  0  0
 10 11  1  0  0  0  0
 11 12  2  0  0  0  0
M  END
>  <CHROM.1>
-163.99300786,-177.60783330,-59.00919447,11.12131713,12.40760046,147.17809608
1.88804351,0.89827909,-0.06349163

>  <Name>
ligand

>  <RI>
0

>  <Rbt.Current_Directory>
/home/itssahil/PROJECTS/Mol_Feturizer/New_Systems/rnas/4NYA

>  <Rbt.Executable>
rbdock ($Id: //depot/dev/client3/rdock/2013.1/src/exe/rbdock.cxx#4 $)

>  <Rbt.Library>
libRbt.so (2013.1, Build901 2013/11/27)

>  <Rbt.Parameter_File>
/export/apps/rDock/src/rDock_2013.1_src/data/scripts/dock_solv.prm

>  <Rbt.Receptor>
prm/pocket_docking_5.prm

>  <SCORE>
-13.3781

>  <SCORE.INTER>
-12.7387

>  <SCORE.INTER.CONST>
1

>  <SCORE.INTER.POLAR>
0

>  <SCORE.INTER.ROT>
3

>  <SCORE.INTER.SOLV>
14.5611

>  <SCORE.INTER.VDW>
-18.9462

>  <SCORE.INTER.norm>
-1.06156

>  <SCORE.INTRA>
-0.639362

>  <SCORE.INTRA.DIHEDRAL>
-0.920801

>  <SCORE.INTRA.DIHEDRAL.0>
2.1382

>  <SCORE.INTRA.POLAR>
0

>  <SCORE.INTRA.POLAR.0>
0

>  <SCORE.INTRA.REPUL>
0

>  <SCORE.INTRA.REPUL.0>
0

>  <SCORE.INTRA.SOLV>
-1.55078

>  <SCORE.INTRA.SOLV.lig_0>
-59.6513

>  <SCORE.INTRA.VDW>
0.596428

>  <SCORE.INTRA.VDW.0>
-0.569808

>  <SCORE.INTRA.norm>
-0.0532802

>  <SCORE.RESTR>
0

>  <SCORE.RESTR.CAVITY>
0

>  <SCORE.RESTR.norm>
0

>  <SCORE.SYSTEM>
0

>  <SCORE.SYSTEM.CONST>
0

>  <SCORE.SYSTEM.DIHEDRAL>
0

>  <SCORE.SYSTEM.SOLV>
0

>  <SCORE.SYSTEM.norm>
0

>  <SCORE.heavy>
12

>  <SCORE.norm>
-1.11484

>  <RMSD>
3.025

$$$$
ligand
 OpenBabel11021811503D
libRbt.so/2013.1/901 2013/11/27
 12 12  0  0  0  0  0  0  0  0999 V2000
   10.1842   15.1532  148.0290 C   0  0  0  0  0  0  0  0  0  0  0  0
   11.9967   10.3523  146.0209 C   0  0  0  0  0  0  0  0  0  0  0  0
    9.4833   12.7867  149.1521 N   0  0  0  0  0  0  0  0  0  0  0  0
   11.2787   15.5709  148.9178 N   0  0  0  0  0  0  0  0  0  0  0  0
   11.1036   16.4975  149.5289 N   0  0  0  0  0  0  0  0  0  0  0  0
   10.9352   17.4220  150.1415 N   0  0  0  0  0  0  0  0  0  0  0  0
   11.9023   12.7012  145.9212 N   0  0  0  0  0  0  0  0  0  0  0  0
   11.5392   11.5617  146.5294 C   0  0  0  0  0  0  0  0  0  0  0  0
   10.6844   11.5788  147.5620 N   0  0  0  0  0  0  0  0  0  0  0  0
   10.1739   12.7309  148.0172 C   0  0  0  0  0  0  0  0  0  0  0  0
   10.5093   13.9444  147.4251 C   0  0  0  0  0  0  0  0  0  0  0  0
   11.3862   13.9289  146.3495 C   0  0  0  0  0  0  0  0  0  0  0  0
  1 11  1  0  0  0  0
  1  4  1  0  0  0  0
  2  8  1  0  0  0  0
  3 10  1  0  0  0  0
  4  5  1  0  0  0  0
  5  6  1  0  0  0  0
  7  8  2  0  0  0  0
  7 12  1  0  0  0  0
  8  9  1  0  0  0  0
  9 10  2  0  0  0  0
 10 11  1  0  0  0  0
 11 12  2  0  0  0  0
M  END
>  <CHROM.1>
89.73788976,-175.39735630,-177.67458757,10.93956828,13.69654596,147.82387073
-1.73429971,-0.88301115,-2.73291840

>  <Name>
ligand

>  <RI>
0

>  <Rbt.Current_Directory>
/home/itssahil/PROJECTS/Mol_Feturizer/New_Systems/rnas/4NYA

>  <Rbt.Executable>
rbdock ($Id: //depot/dev/client3/rdock/2013.1/src/exe/rbdock.cxx#4 $)

>  <Rbt.Library>
libRbt.so (2013.1, Build901 2013/11/27)

>  <Rbt.Parameter_File>
/export/apps/rDock/src/rDock_2013.1_src/data/scripts/dock_solv.prm

>  <Rbt.Receptor>
prm/pocket_docking_7.prm

>  <SCORE>
-12.1198

>  <SCORE.INTER>
-11.5485

>  <SCORE.INTER.CONST>
1

>  <SCORE.INTER.POLAR>
0

>  <SCORE.INTER.ROT>
3

>  <SCORE.INTER.SOLV>
8.56274

>  <SCORE.INTER.VDW>
-16.1532

>  <SCORE.INTER.norm>
-0.962374

>  <SCORE.INTRA>
-0.571287

>  <SCORE.INTRA.DIHEDRAL>
-0.929693

>  <SCORE.INTRA.DIHEDRAL.0>
2.1382

>  <SCORE.INTRA.POLAR>
0

>  <SCORE.INTRA.POLAR.0>
0

>  <SCORE.INTRA.REPUL>
0

>  <SCORE.INTRA.REPUL.0>
0

>  <SCORE.INTRA.SOLV>
-0.0587234

>  <SCORE.INTRA.SOLV.lig_0>
-59.6513

>  <SCORE.INTRA.VDW>
-0.077079

>  <SCORE.INTRA.VDW.0>
-0.569808

>  <SCORE.INTRA.norm>
-0.0476072

>  <SCORE.RESTR>
0

>  <SCORE.RESTR.CAVITY>
0

>  <SCORE.RESTR.norm>
0

>  <SCORE.SYSTEM>
0

>  <SCORE.SYSTEM.CONST>
0

>  <SCORE.SYSTEM.DIHEDRAL>
0

>  <SCORE.SYSTEM.SOLV>
0

>  <SCORE.SYSTEM.norm>
0

>  <SCORE.heavy>
12

>  <SCORE.norm>
-1.00998

>  <RMSD>
3.027

$$$$
ligand
 OpenBabel11021811503D
libRbt.so/2013.1/901 2013/11/27
 12 12  0  0  0  0  0  0  0  0999 V2000
   10.6464   13.5474  147.8819 C   0  0  0  0  0  0  0  0  0  0  0  0
   12.4299    8.7779  145.7754 C   0  0  0  0  0  0  0  0  0  0  0  0
    9.6547   11.1654  148.7159 N   0  0  0  0  0  0  0  0  0  0  0  0
   11.0174   14.6911  147.0354 N   0  0  0  0  0  0  0  0  0  0  0  0
   10.9954   15.7039  147.5218 N   0  0  0  0  0  0  0  0  0  0  0  0
   10.9750   16.7179  148.0012 N   0  0  0  0  0  0  0  0  0  0  0  0
   12.4916   11.1290  145.8439 N   0  0  0  0  0  0  0  0  0  0  0  0
   11.9794    9.9793  146.3085 C   0  0  0  0  0  0  0  0  0  0  0  0
   10.9914    9.9864  147.2146 N   0  0  0  0  0  0  0  0  0  0  0  0
   10.4925   11.1381  147.6836 C   0  0  0  0  0  0  0  0  0  0  0  0
   10.9795   12.3623  147.2368 C   0  0  0  0  0  0  0  0  0  0  0  0
   11.9954   12.3581  146.2912 C   0  0  0  0  0  0  0  0  0  0  0  0
  1 11  1  0  0  0  0
  1  4  1  0  0  0  0
  2  8  1  0  0  0  0
  3 10  1  0  0  0  0
  4  5  1  0  0  0  0
  5  6  1  0  0  0  0
  7  8  2  0  0  0  0
  7 12  1  0  0  0  0
  8  9  1  0  0  0  0
  9 10  2  0  0  0  0
 10 11  1  0  0  0  0
 11 12  2  0  0  0  0
M  END
>  <CHROM.1>
-166.54204946,-167.95076985,-175.04664713,11.22136951,12.31557152,147.12950706
1.78084781,0.79299225,0.05933592

>  <Name>
ligand

>  <RI>
0

>  <Rbt.Current_Directory>
/home/itssahil/PROJECTS/Mol_Feturizer/New_Systems/rnas/4NYA

>  <Rbt.Executable>
rbdock ($Id: //depot/dev/client3/rdock/2013.1/src/exe/rbdock.cxx#4 $)

>  <Rbt.Library>
libRbt.so (2013.1, Build901 2013/11/27)

>  <Rbt.Parameter_File>
/export/apps/rDock/src/rDock_2013.1_src/data/scripts/dock_solv.prm

>  <Rbt.Receptor>
prm/pocket_docking_5.prm

>  <SCORE>
-13.2747

>  <SCORE.INTER>
-12.7562

>  <SCORE.INTER.CONST>
1

>  <SCORE.INTER.POLAR>
0

>  <SCORE.INTER.ROT>
3

>  <SCORE.INTER.SOLV>
14.9063

>  <SCORE.INTER.VDW>
-19.0729

>  <SCORE.INTER.norm>
-1.06301

>  <SCORE.INTRA>
-0.518563

>  <SCORE.INTRA.DIHEDRAL>
-0.771445

>  <SCORE.INTRA.DIHEDRAL.0>
2.1382

>  <SCORE.INTRA.POLAR>
0

>  <SCORE.INTRA.POLAR.0>
0

>  <SCORE.INTRA.REPUL>
0

>  <SCORE.INTRA.REPUL.0>
0

>  <SCORE.INTRA.SOLV>
-1.54219

>  <SCORE.INTRA.SOLV.lig_0>
-59.6513

>  <SCORE.INTRA.VDW>
0.638256

>  <SCORE.INTRA.VDW.0>
-0.569808

>  <SCORE.INTRA.norm>
-0.0432136

>  <SCORE.RESTR>
0

>  <SCORE.RESTR.CAVITY>
0

>  <SCORE.RESTR.norm>
0

>  <SCORE.SYSTEM>
0

>  <SCORE.SYSTEM.CONST>
0

>  <SCORE.SYSTEM.DIHEDRAL>
0

>  <SCORE.SYSTEM.SOLV>
0

>  <SCORE.SYSTEM.norm>
0

>  <SCORE.heavy>
12

>  <SCORE.norm>
-1.10623

>  <RMSD>
3.029

$$$$
ligand
 OpenBabel11021811503D
libRbt.so/2013.1/901 2013/11/27
 12 12  0  0  0  0  0  0  0  0999 V2000
   10.6881   13.4563  147.8777 C   0  0  0  0  0  0  0  0  0  0  0  0
   12.5941    8.7626  145.7091 C   0  0  0  0  0  0  0  0  0  0  0  0
    9.8246   11.0361  148.7439 N   0  0  0  0  0  0  0  0  0  0  0  0
   10.9603   14.6121  147.0103 N   0  0  0  0  0  0  0  0  0  0  0  0
   10.9558   15.6220  147.5031 N   0  0  0  0  0  0  0  0  0  0  0  0
   10.9514   16.6331  147.9889 N   0  0  0  0  0  0  0  0  0  0  0  0
   12.5609   11.1143  145.7766 N   0  0  0  0  0  0  0  0  0  0  0  0
   12.1128    9.9449  146.2579 C   0  0  0  0  0  0  0  0  0  0  0  0
   11.1568    9.9120  147.1973 N   0  0  0  0  0  0  0  0  0  0  0  0
   10.6271   11.0425  147.6836 C   0  0  0  0  0  0  0  0  0  0  0  0
   11.0476   12.2854  147.2210 C   0  0  0  0  0  0  0  0  0  0  0  0
   12.0299   12.3222  146.2413 C   0  0  0  0  0  0  0  0  0  0  0  0
  1 11  1  0  0  0  0
  1  4  1  0  0  0  0
  2  8  1  0  0  0  0
  3 10  1  0  0  0  0
  4  5  1  0  0  0  0
  5  6  1  0  0  0  0
  7  8  2  0  0  0  0
  7 12  1  0  0  0  0
  8  9  1  0  0  0  0
  9 10  2  0  0  0  0
 10 11  1  0  0  0  0
 11 12  2  0  0  0  0
M  END
>  <CHROM.1>
-165.54876727,-165.38666079,-167.88460133,11.29266362,12.24777264,147.10448771
1.83190327,0.82775783,0.02179718

>  <Name>
ligand

>  <RI>
0

>  <Rbt.Current_Directory>
/home/itssahil/PROJECTS/Mol_Feturizer/New_Systems/rnas/4NYA

>  <Rbt.Executable>
rbdock ($Id: //depot/dev/client3/rdock/2013.1/src/exe/rbdock.cxx#4 $)

>  <Rbt.Library>
libRbt.so (2013.1, Build901 2013/11/27)

>  <Rbt.Parameter_File>
/export/apps/rDock/src/rDock_2013.1_src/data/scripts/dock_solv.prm

>  <Rbt.Receptor>
prm/pocket_docking_8.prm

>  <SCORE>
-13.2004

>  <SCORE.INTER>
-12.7015

>  <SCORE.INTER.CONST>
1

>  <SCORE.INTER.POLAR>
0

>  <SCORE.INTER.ROT>
3

>  <SCORE.INTER.SOLV>
15.0066

>  <SCORE.INTER.VDW>
-19.0699

>  <SCORE.INTER.norm>
-1.05846

>  <SCORE.INTRA>
-0.498887

>  <SCORE.INTRA.DIHEDRAL>
-0.700969

>  <SCORE.INTRA.DIHEDRAL.0>
2.1382

>  <SCORE.INTRA.POLAR>
0

>  <SCORE.INTRA.POLAR.0>
0

>  <SCORE.INTRA.REPUL>
0

>  <SCORE.INTRA.REPUL.0>
0

>  <SCORE.INTRA.SOLV>
-1.53191

>  <SCORE.INTRA.SOLV.lig_0>
-59.6513

>  <SCORE.INTRA.VDW>
0.61755

>  <SCORE.INTRA.VDW.0>
-0.569808

>  <SCORE.INTRA.norm>
-0.0415739

>  <SCORE.RESTR>
0

>  <SCORE.RESTR.CAVITY>
0

>  <SCORE.RESTR.norm>
0

>  <SCORE.SYSTEM>
0

>  <SCORE.SYSTEM.CONST>
0

>  <SCORE.SYSTEM.DIHEDRAL>
0

>  <SCORE.SYSTEM.SOLV>
0

>  <SCORE.SYSTEM.norm>
0

>  <SCORE.heavy>
12

>  <SCORE.norm>
-1.10003

>  <RMSD>
3.029

$$$$
ligand
 OpenBabel11021811503D
libRbt.so/2013.1/901 2013/11/27
 12 12  0  0  0  0  0  0  0  0999 V2000
   10.6276   13.6170  147.8879 C   0  0  0  0  0  0  0  0  0  0  0  0
   12.3446    8.8192  145.7904 C   0  0  0  0  0  0  0  0  0  0  0  0
    9.6223   11.2492  148.7456 N   0  0  0  0  0  0  0  0  0  0  0  0
   11.0637   14.7527  147.0618 N   0  0  0  0  0  0  0  0  0  0  0  0
   10.9961   15.7710  147.5320 N   0  0  0  0  0  0  0  0  0  0  0  0
   10.9221   16.7866  148.0027 N   0  0  0  0  0  0  0  0  0  0  0  0
   12.4290   11.1700  145.8448 N   0  0  0  0  0  0  0  0  0  0  0  0
   11.9108   10.0278  146.3213 C   0  0  0  0  0  0  0  0  0  0  0  0
   10.9323   10.0493  147.2374 N   0  0  0  0  0  0  0  0  0  0  0  0
   10.4491   11.2082  147.7049 C   0  0  0  0  0  0  0  0  0  0  0  0
   10.9429   12.4253  147.2461 C   0  0  0  0  0  0  0  0  0  0  0  0
   11.9489   12.4062  146.2902 C   0  0  0  0  0  0  0  0  0  0  0  0
  1 11  1  0  0  0  0
  1  4  1  0  0  0  0
  2  8  1  0  0  0  0
  3 10  1  0  0  0  0
  4  5  1  0  0  0  0
  5  6  1  0  0  0  0
  7  8  2  0  0  0  0
  7 12  1  0  0  0  0
  8  9  1  0  0  0  0
  9 10  2  0  0  0  0
 10 11  1  0  0  0  0
 11 12  2  0  0  0  0
M  END
>  <CHROM.1>
-169.44603207,-171.76398150,-55.56598777,11.18332212,12.37609626,147.14255341
1.76960658,0.80185812,0.06533960

>  <Name>
ligand

>  <RI>
0

>  <Rbt.Current_Directory>
/home/itssahil/PROJECTS/Mol_Feturizer/New_Systems/rnas/4NYA

>  <Rbt.Executable>
rbdock ($Id: //depot/dev/client3/rdock/2013.1/src/exe/rbdock.cxx#4 $)

>  <Rbt.Library>
libRbt.so (2013.1, Build901 2013/11/27)

>  <Rbt.Parameter_File>
/export/apps/rDock/src/rDock_2013.1_src/data/scripts/dock_solv.prm

>  <Rbt.Receptor>
prm/pocket_docking_5.prm

>  <SCORE>
-13.2785

>  <SCORE.INTER>
-12.8041

>  <SCORE.INTER.CONST>
1

>  <SCORE.INTER.POLAR>
0

>  <SCORE.INTER.ROT>
3

>  <SCORE.INTER.SOLV>
14.7155

>  <SCORE.INTER.VDW>
-19.0412

>  <SCORE.INTER.norm>
-1.06701

>  <SCORE.INTRA>
-0.47437

>  <SCORE.INTRA.DIHEDRAL>
-0.787328

>  <SCORE.INTRA.DIHEDRAL.0>
2.1382

>  <SCORE.INTRA.POLAR>
0

>  <SCORE.INTRA.POLAR.0>
0

>  <SCORE.INTRA.REPUL>
0

>  <SCORE.INTRA.REPUL.0>
0

>  <SCORE.INTRA.SOLV>
-1.55345

>  <SCORE.INTRA.SOLV.lig_0>
-59.6513

>  <SCORE.INTRA.VDW>
0.696019

>  <SCORE.INTRA.VDW.0>
-0.569808

>  <SCORE.INTRA.norm>
-0.0395308

>  <SCORE.RESTR>
0

>  <SCORE.RESTR.CAVITY>
0

>  <SCORE.RESTR.norm>
0

>  <SCORE.SYSTEM>
0

>  <SCORE.SYSTEM.CONST>
0

>  <SCORE.SYSTEM.DIHEDRAL>
0

>  <SCORE.SYSTEM.SOLV>
0

>  <SCORE.SYSTEM.norm>
0

>  <SCORE.heavy>
12

>  <SCORE.norm>
-1.10654

>  <RMSD>
3.032

$$$$
ligand
 OpenBabel11021811503D
libRbt.so/2013.1/901 2013/11/27
 12 12  0  0  0  0  0  0  0  0999 V2000
   10.6460   13.5452  147.8931 C   0  0  0  0  0  0  0  0  0  0  0  0
   12.4315    8.7805  145.7775 C   0  0  0  0  0  0  0  0  0  0  0  0
    9.6649   11.1605  148.7321 N   0  0  0  0  0  0  0  0  0  0  0  0
   10.9110   14.6851  147.0029 N   0  0  0  0  0  0  0  0  0  0  0  0
   10.9535   15.6994  147.4847 N   0  0  0  0  0  0  0  0  0  0  0  0
   10.9900   16.7108  147.9685 N   0  0  0  0  0  0  0  0  0  0  0  0
   12.4873   11.1318  145.8457 N   0  0  0  0  0  0  0  0  0  0  0  0
   11.9805    9.9807  146.3129 C   0  0  0  0  0  0  0  0  0  0  0  0
   10.9971    9.9852  147.2240 N   0  0  0  0  0  0  0  0  0  0  0  0
   10.4975   11.1355  147.6956 C   0  0  0  0  0  0  0  0  0  0  0  0
   10.9789   12.3610  147.2463 C   0  0  0  0  0  0  0  0  0  0  0  0
   11.9900   12.3595  146.2956 C   0  0  0  0  0  0  0  0  0  0  0  0
  1 11  1  0  0  0  0
  1  4  1  0  0  0  0
  2  8  1  0  0  0  0
  3 10  1  0  0  0  0
  4  5  1  0  0  0  0
  5  6  1  0  0  0  0
  7  8  2  0  0  0  0
  7 12  1  0  0  0  0
  8  9  1  0  0  0  0
  9 10  2  0  0  0  0
 10 11  1  0  0  0  0
 11 12  2  0  0  0  0
M  END
>  <CHROM.1>
-162.10366987,-163.88640831,-52.42357227,11.21092016,12.31373575,147.12642199
1.79002687,0.80073450,0.04580718

>  <Name>
ligand

>  <RI>
0

>  <Rbt.Current_Directory>
/home/itssahil/PROJECTS/Mol_Feturizer/New_Systems/rnas/4NYA

>  <Rbt.Executable>
rbdock ($Id: //depot/dev/client3/rdock/2013.1/src/exe/rbdock.cxx#4 $)

>  <Rbt.Library>
libRbt.so (2013.1, Build901 2013/11/27)

>  <Rbt.Parameter_File>
/export/apps/rDock/src/rDock_2013.1_src/data/scripts/dock_solv.prm

>  <Rbt.Receptor>
prm/pocket_docking_6.prm

>  <SCORE>
-13.314

>  <SCORE.INTER>
-12.7471

>  <SCORE.INTER.CONST>
1

>  <SCORE.INTER.POLAR>
0

>  <SCORE.INTER.ROT>
3

>  <SCORE.INTER.SOLV>
15.0387

>  <SCORE.INTER.VDW>
-19.111

>  <SCORE.INTER.norm>
-1.06226

>  <SCORE.INTRA>
-0.566881

>  <SCORE.INTRA.DIHEDRAL>
-0.727537

>  <SCORE.INTRA.DIHEDRAL.0>
2.1382

>  <SCORE.INTRA.POLAR>
0

>  <SCORE.INTRA.POLAR.0>
0

>  <SCORE.INTRA.REPUL>
0

>  <SCORE.INTRA.REPUL.0>
0

>  <SCORE.INTRA.SOLV>
-1.51047

>  <SCORE.INTRA.SOLV.lig_0>
-59.6513

>  <SCORE.INTRA.VDW>
0.552121

>  <SCORE.INTRA.VDW.0>
-0.569808

>  <SCORE.INTRA.norm>
-0.0472401

>  <SCORE.RESTR>
0

>  <SCORE.RESTR.CAVITY>
0

>  <SCORE.RESTR.norm>
0

>  <SCORE.SYSTEM>
0

>  <SCORE.SYSTEM.CONST>
0

>  <SCORE.SYSTEM.DIHEDRAL>
0

>  <SCORE.SYSTEM.SOLV>
0

>  <SCORE.SYSTEM.norm>
0

>  <SCORE.heavy>
12

>  <SCORE.norm>
-1.1095

>  <RMSD>
3.033

$$$$
ligand
 OpenBabel11021811503D
libRbt.so/2013.1/901 2013/11/27
 12 12  0  0  0  0  0  0  0  0999 V2000
   10.6648   13.5560  147.8853 C   0  0  0  0  0  0  0  0  0  0  0  0
   12.4251    8.7808  145.7721 C   0  0  0  0  0  0  0  0  0  0  0  0
    9.6684   11.1772  148.7228 N   0  0  0  0  0  0  0  0  0  0  0  0
   10.9417   14.6946  146.9970 N   0  0  0  0  0  0  0  0  0  0  0  0
   10.9001   15.7166  147.4624 N   0  0  0  0  0  0  0  0  0  0  0  0
   10.8521   16.7356  147.9289 N   0  0  0  0  0  0  0  0  0  0  0  0
   12.4947   11.1318  145.8405 N   0  0  0  0  0  0  0  0  0  0  0  0
   11.9804    9.9837  146.3070 C   0  0  0  0  0  0  0  0  0  0  0  0
   10.9957    9.9940  147.2167 N   0  0  0  0  0  0  0  0  0  0  0  0
   10.5023   11.1472  147.6875 C   0  0  0  0  0  0  0  0  0  0  0  0
   10.9916   12.3699  147.2389 C   0  0  0  0  0  0  0  0  0  0  0  0
   12.0041   12.3624  146.2897 C   0  0  0  0  0  0  0  0  0  0  0  0
  1 11  1  0  0  0  0
  1  4  1  0  0  0  0
  2  8  1  0  0  0  0
  3 10  1  0  0  0  0
  4  5  1  0  0  0  0
  5  6  1  0  0  0  0
  7  8  2  0  0  0  0
  7 12  1  0  0  0  0
  8  9  1  0  0  0  0
  9 10  2  0  0  0  0
 10 11  1  0  0  0  0
 11 12  2  0  0  0  0
M  END
>  <CHROM.1>
-162.27568611,-169.11351513,-58.98558897,11.20118341,12.32336620,147.11541966
1.80621248,0.80393944,0.03111860

>  <Name>
ligand

>  <RI>
0

>  <Rbt.Current_Directory>
/home/itssahil/PROJECTS/Mol_Feturizer/New_Systems/rnas/4NYA

>  <Rbt.Executable>
rbdock ($Id: //depot/dev/client3/rdock/2013.1/src/exe/rbdock.cxx#4 $)

>  <Rbt.Library>
libRbt.so (2013.1, Build901 2013/11/27)

>  <Rbt.Parameter_File>
/export/apps/rDock/src/rDock_2013.1_src/data/scripts/dock_solv.prm

>  <Rbt.Receptor>
prm/pocket_docking_5.prm

>  <SCORE>
-13.2595

>  <SCORE.INTER>
-12.6315

>  <SCORE.INTER.CONST>
1

>  <SCORE.INTER.POLAR>
0

>  <SCORE.INTER.ROT>
3

>  <SCORE.INTER.SOLV>
15.1481

>  <SCORE.INTER.VDW>
-19.0704

>  <SCORE.INTER.norm>
-1.05263

>  <SCORE.INTRA>
-0.628031

>  <SCORE.INTRA.DIHEDRAL>
-0.847615

>  <SCORE.INTRA.DIHEDRAL.0>
2.1382

>  <SCORE.INTRA.POLAR>
0

>  <SCORE.INTRA.POLAR.0>
0

>  <SCORE.INTRA.REPUL>
0

>  <SCORE.INTRA.REPUL.0>
0

>  <SCORE.INTRA.SOLV>
-1.52723

>  <SCORE.INTRA.SOLV.lig_0>
-59.6513

>  <SCORE.INTRA.VDW>
0.559392

>  <SCORE.INTRA.VDW.0>
-0.569808

>  <SCORE.INTRA.norm>
-0.0523359

>  <SCORE.RESTR>
0

>  <SCORE.RESTR.CAVITY>
0

>  <SCORE.RESTR.norm>
0

>  <SCORE.SYSTEM>
0

>  <SCORE.SYSTEM.CONST>
0

>  <SCORE.SYSTEM.DIHEDRAL>
0

>  <SCORE.SYSTEM.SOLV>
0

>  <SCORE.SYSTEM.norm>
0

>  <SCORE.heavy>
12

>  <SCORE.norm>
-1.10496

>  <RMSD>
3.034

$$$$
ligand
 OpenBabel11021811503D
libRbt.so/2013.1/901 2013/11/27
 12 12  0  0  0  0  0  0  0  0999 V2000
   10.6813   13.6117  147.9142 C   0  0  0  0  0  0  0  0  0  0  0  0
   12.4082    8.8368  145.7729 C   0  0  0  0  0  0  0  0  0  0  0  0
    9.7990   11.2280  148.8588 N   0  0  0  0  0  0  0  0  0  0  0  0
   10.8207   14.7337  146.9740 N   0  0  0  0  0  0  0  0  0  0  0  0
   10.6581   15.7635  147.3933 N   0  0  0  0  0  0  0  0  0  0  0  0
   10.5010   16.7906  147.8161 N   0  0  0  0  0  0  0  0  0  0  0  0
   12.4271   11.1896  145.7946 N   0  0  0  0  0  0  0  0  0  0  0  0
   11.9721   10.0396  146.3149 C   0  0  0  0  0  0  0  0  0  0  0  0
   11.0503   10.0456  147.2883 N   0  0  0  0  0  0  0  0  0  0  0  0
   10.5624   11.1965  147.7706 C   0  0  0  0  0  0  0  0  0  0  0  0
   10.9920   12.4208  147.2685 C   0  0  0  0  0  0  0  0  0  0  0  0
   11.9388   12.4175  146.2538 C   0  0  0  0  0  0  0  0  0  0  0  0
  1 11  1  0  0  0  0
  1  4  1  0  0  0  0
  2  8  1  0  0  0  0
  3 10  1  0  0  0  0
  4  5  1  0  0  0  0
  5  6  1  0  0  0  0
  7  8  2  0  0  0  0
  7 12  1  0  0  0  0
  8  9  1  0  0  0  0
  9 10  2  0  0  0  0
 10 11  1  0  0  0  0
 11 12  2  0  0  0  0
M  END
>  <CHROM.1>
-160.07255630,-176.32672435,61.86747878,11.14822140,12.37535498,147.12058069
1.89128134,0.87751578,-0.05977067

>  <Name>
ligand

>  <RI>
0

>  <Rbt.Current_Directory>
/home/itssahil/PROJECTS/Mol_Feturizer/New_Systems/rnas/4NYA

>  <Rbt.Executable>
rbdock ($Id: //depot/dev/client3/rdock/2013.1/src/exe/rbdock.cxx#4 $)

>  <Rbt.Library>
libRbt.so (2013.1, Build901 2013/11/27)

>  <Rbt.Parameter_File>
/export/apps/rDock/src/rDock_2013.1_src/data/scripts/dock_solv.prm

>  <Rbt.Receptor>
prm/pocket_docking_7.prm

>  <SCORE>
-13.2927

>  <SCORE.INTER>
-12.5901

>  <SCORE.INTER.CONST>
1

>  <SCORE.INTER.POLAR>
0

>  <SCORE.INTER.ROT>
3

>  <SCORE.INTER.SOLV>
15.079

>  <SCORE.INTER.VDW>
-19.0198

>  <SCORE.INTER.norm>
-1.04918

>  <SCORE.INTRA>
-0.702562

>  <SCORE.INTRA.DIHEDRAL>
-0.946791

>  <SCORE.INTRA.DIHEDRAL.0>
2.1382

>  <SCORE.INTRA.POLAR>
0

>  <SCORE.INTRA.POLAR.0>
0

>  <SCORE.INTRA.REPUL>
0

>  <SCORE.INTRA.REPUL.0>
0

>  <SCORE.INTRA.SOLV>
-1.535

>  <SCORE.INTRA.SOLV.lig_0>
-59.6513

>  <SCORE.INTRA.VDW>
0.538335

>  <SCORE.INTRA.VDW.0>
-0.569808

>  <SCORE.INTRA.norm>
-0.0585469

>  <SCORE.RESTR>
0

>  <SCORE.RESTR.CAVITY>
0

>  <SCORE.RESTR.norm>
0

>  <SCORE.SYSTEM>
0

>  <SCORE.SYSTEM.CONST>
0

>  <SCORE.SYSTEM.DIHEDRAL>
0

>  <SCORE.SYSTEM.SOLV>
0

>  <SCORE.SYSTEM.norm>
0

>  <SCORE.heavy>
12

>  <SCORE.norm>
-1.10772

>  <RMSD>
3.035

$$$$
ligand
 OpenBabel11021811503D
libRbt.so/2013.1/901 2013/11/27
 12 12  0  0  0  0  0  0  0  0999 V2000
   10.6816   13.5927  147.8934 C   0  0  0  0  0  0  0  0  0  0  0  0
   12.3693    8.7924  145.7778 C   0  0  0  0  0  0  0  0  0  0  0  0
    9.6630   11.2277  148.7433 N   0  0  0  0  0  0  0  0  0  0  0  0
   10.8275   14.7152  146.9548 N   0  0  0  0  0  0  0  0  0  0  0  0
   10.7079   15.7471  147.3833 N   0  0  0  0  0  0  0  0  0  0  0  0
   10.5825   16.7754  147.8136 N   0  0  0  0  0  0  0  0  0  0  0  0
   12.4674   11.1425  145.8406 N   0  0  0  0  0  0  0  0  0  0  0  0
   11.9429   10.0016  146.3133 C   0  0  0  0  0  0  0  0  0  0  0  0
   10.9651   10.0256  147.2301 N   0  0  0  0  0  0  0  0  0  0  0  0
   10.4889   11.1856  147.7020 C   0  0  0  0  0  0  0  0  0  0  0  0
   10.9895   12.4014  147.2472 C   0  0  0  0  0  0  0  0  0  0  0  0
   11.9949   12.3798  146.2906 C   0  0  0  0  0  0  0  0  0  0  0  0
  1 11  1  0  0  0  0
  1  4  1  0  0  0  0
  2  8  1  0  0  0  0
  3 10  1  0  0  0  0
  4  5  1  0  0  0  0
  5  6  1  0  0  0  0
  7  8  2  0  0  0  0
  7 12  1  0  0  0  0
  8  9  1  0  0  0  0
  9 10  2  0  0  0  0
 10 11  1  0  0  0  0
 11 12  2  0  0  0  0
M  END
>  <CHROM.1>
-156.23589825,-173.97284310,-54.50837483,11.13722798,12.35143504,147.10126820
1.84928344,0.82187207,-0.01619700

>  <Name>
ligand

>  <RI>
0

>  <Rbt.Current_Directory>
/home/itssahil/PROJECTS/Mol_Feturizer/New_Systems/rnas/4NYA

>  <Rbt.Executable>
rbdock ($Id: //depot/dev/client3/rdock/2013.1/src/exe/rbdock.cxx#4 $)

>  <Rbt.Library>
libRbt.so (2013.1, Build901 2013/11/27)

>  <Rbt.Parameter_File>
/export/apps/rDock/src/rDock_2013.1_src/data/scripts/dock_solv.prm

>  <Rbt.Receptor>
prm/pocket_docking_5.prm

>  <SCORE>
-13.2819

>  <SCORE.INTER>
-12.5256

>  <SCORE.INTER.CONST>
1

>  <SCORE.INTER.POLAR>
0

>  <SCORE.INTER.ROT>
3

>  <SCORE.INTER.SOLV>
15.438

>  <SCORE.INTER.VDW>
-19.0964

>  <SCORE.INTER.norm>
-1.0438

>  <SCORE.INTRA>
-0.75636

>  <SCORE.INTRA.DIHEDRAL>
-0.932955

>  <SCORE.INTRA.DIHEDRAL.0>
2.1382

>  <SCORE.INTRA.POLAR>
0

>  <SCORE.INTRA.POLAR.0>
0

>  <SCORE.INTRA.REPUL>
0

>  <SCORE.INTRA.REPUL.0>
0

>  <SCORE.INTRA.SOLV>
-1.51242

>  <SCORE.INTRA.SOLV.lig_0>
-59.6513

>  <SCORE.INTRA.VDW>
0.466328

>  <SCORE.INTRA.VDW.0>
-0.569808

>  <SCORE.INTRA.norm>
-0.06303

>  <SCORE.RESTR>
0

>  <SCORE.RESTR.CAVITY>
0

>  <SCORE.RESTR.norm>
0

>  <SCORE.SYSTEM>
0

>  <SCORE.SYSTEM.CONST>
0

>  <SCORE.SYSTEM.DIHEDRAL>
0

>  <SCORE.SYSTEM.SOLV>
0

>  <SCORE.SYSTEM.norm>
0

>  <SCORE.heavy>
12

>  <SCORE.norm>
-1.10683

>  <RMSD>
3.036

$$$$
ligand
 OpenBabel11021811503D
libRbt.so/2013.1/901 2013/11/27
 12 12  0  0  0  0  0  0  0  0999 V2000
   10.6343   13.5950  147.8736 C   0  0  0  0  0  0  0  0  0  0  0  0
   12.3698    8.8019  145.7807 C   0  0  0  0  0  0  0  0  0  0  0  0
    9.6585   11.2229  148.7533 N   0  0  0  0  0  0  0  0  0  0  0  0
   10.8089   14.7177  146.9401 N   0  0  0  0  0  0  0  0  0  0  0  0
   10.6493   15.7483  147.3585 N   0  0  0  0  0  0  0  0  0  0  0  0
   10.4951   16.7761  147.7807 N   0  0  0  0  0  0  0  0  0  0  0  0
   12.4347   11.1536  145.8231 N   0  0  0  0  0  0  0  0  0  0  0  0
   11.9314   10.0093  146.3104 C   0  0  0  0  0  0  0  0  0  0  0  0
   10.9626   10.0269  147.2369 N   0  0  0  0  0  0  0  0  0  0  0  0
   10.4744   11.1839  147.7040 C   0  0  0  0  0  0  0  0  0  0  0  0
   10.9529   12.4029  147.2342 C   0  0  0  0  0  0  0  0  0  0  0  0
   11.9488   12.3877  146.2677 C   0  0  0  0  0  0  0  0  0  0  0  0
  1 11  1  0  0  0  0
  1  4  1  0  0  0  0
  2  8  1  0  0  0  0
  3 10  1  0  0  0  0
  4  5  1  0  0  0  0
  5  6  1  0  0  0  0
  7  8  2  0  0  0  0
  7 12  1  0  0  0  0
  8  9  1  0  0  0  0
  9 10  2  0  0  0  0
 10 11  1  0  0  0  0
 11 12  2  0  0  0  0
M  END
>  <CHROM.1>
-158.59435874,-175.96819742,59.81238618,11.10730443,12.35473958,147.09072912
1.86488576,0.83007973,-0.03378928

>  <Name>
ligand

>  <RI>
0

>  <Rbt.Current_Directory>
/home/itssahil/PROJECTS/Mol_Feturizer/New_Systems/rnas/4NYA

>  <Rbt.Executable>
rbdock ($Id: //depot/dev/client3/rdock/2013.1/src/exe/rbdock.cxx#4 $)

>  <Rbt.Library>
libRbt.so (2013.1, Build901 2013/11/27)

>  <Rbt.Parameter_File>
/export/apps/rDock/src/rDock_2013.1_src/data/scripts/dock_solv.prm

>  <Rbt.Receptor>
prm/pocket_docking_8.prm

>  <SCORE>
-13.3799

>  <SCORE.INTER>
-12.6501

>  <SCORE.INTER.CONST>
1

>  <SCORE.INTER.POLAR>
0

>  <SCORE.INTER.ROT>
3

>  <SCORE.INTER.SOLV>
15.5687

>  <SCORE.INTER.VDW>
-19.223

>  <SCORE.INTER.norm>
-1.05418

>  <SCORE.INTRA>
-0.729766

>  <SCORE.INTRA.DIHEDRAL>
-0.952527

>  <SCORE.INTRA.DIHEDRAL.0>
2.1382

>  <SCORE.INTRA.POLAR>
0

>  <SCORE.INTRA.POLAR.0>
0

>  <SCORE.INTRA.REPUL>
0

>  <SCORE.INTRA.REPUL.0>
0

>  <SCORE.INTRA.SOLV>
-1.528

>  <SCORE.INTRA.SOLV.lig_0>
-59.6513

>  <SCORE.INTRA.VDW>
0.510497

>  <SCORE.INTRA.VDW.0>
-0.569808

>  <SCORE.INTRA.norm>
-0.0608138

>  <SCORE.RESTR>
0

>  <SCORE.RESTR.CAVITY>
0

>  <SCORE.RESTR.norm>
0

>  <SCORE.SYSTEM>
0

>  <SCORE.SYSTEM.CONST>
0

>  <SCORE.SYSTEM.DIHEDRAL>
0

>  <SCORE.SYSTEM.SOLV>
0

>  <SCORE.SYSTEM.norm>
0

>  <SCORE.heavy>
12

>  <SCORE.norm>
-1.11499

>  <RMSD>
3.036

$$$$
ligand
 OpenBabel11021811503D
libRbt.so/2013.1/901 2013/11/27
 12 12  0  0  0  0  0  0  0  0999 V2000
   10.6959   13.5910  147.8946 C   0  0  0  0  0  0  0  0  0  0  0  0
   12.3695    8.7985  145.7504 C   0  0  0  0  0  0  0  0  0  0  0  0
    9.6916   11.2223  148.7509 N   0  0  0  0  0  0  0  0  0  0  0  0
   10.8211   14.7149  146.9546 N   0  0  0  0  0  0  0  0  0  0  0  0
   10.7075   15.7460  147.3865 N   0  0  0  0  0  0  0  0  0  0  0  0
   10.5885   16.7734  147.8209 N   0  0  0  0  0  0  0  0  0  0  0  0
   12.4636   11.1486  145.8169 N   0  0  0  0  0  0  0  0  0  0  0  0
   11.9467   10.0057  146.2931 C   0  0  0  0  0  0  0  0  0  0  0  0
   10.9791   10.0258  147.2208 N   0  0  0  0  0  0  0  0  0  0  0  0
   10.5059   11.1840  147.7003 C   0  0  0  0  0  0  0  0  0  0  0  0
   10.9990   12.4017  147.2425 C   0  0  0  0  0  0  0  0  0  0  0  0
   11.9936   12.3841  146.2748 C   0  0  0  0  0  0  0  0  0  0  0  0
  1 11  1  0  0  0  0
  1  4  1  0  0  0  0
  2  8  1  0  0  0  0
  3 10  1  0  0  0  0
  4  5  1  0  0  0  0
  5  6  1  0  0  0  0
  7  8  2  0  0  0  0
  7 12  1  0  0  0  0
  8  9  1  0  0  0  0
  9 10  2  0  0  0  0
 10 11  1  0  0  0  0
 11 12  2  0  0  0  0
M  END
>  <CHROM.1>
-155.89875279,-173.74744953,-48.67619008,11.14394901,12.35218245,147.09436211
1.85351441,0.83320139,-0.01756101

>  <Name>
ligand

>  <RI>
0

>  <Rbt.Current_Directory>
/home/itssahil/PROJECTS/Mol_Feturizer/New_Systems/rnas/4NYA

>  <Rbt.Executable>
rbdock ($Id: //depot/dev/client3/rdock/2013.1/src/exe/rbdock.cxx#4 $)

>  <Rbt.Library>
libRbt.so (2013.1, Build901 2013/11/27)

>  <Rbt.Parameter_File>
/export/apps/rDock/src/rDock_2013.1_src/data/scripts/dock_solv.prm

>  <Rbt.Receptor>
prm/pocket_docking_5.prm

>  <SCORE>
-13.2943

>  <SCORE.INTER>
-12.5471

>  <SCORE.INTER.CONST>
1

>  <SCORE.INTER.POLAR>
0

>  <SCORE.INTER.ROT>
3

>  <SCORE.INTER.SOLV>
15.3819

>  <SCORE.INTER.VDW>
-19.092

>  <SCORE.INTER.norm>
-1.04559

>  <SCORE.INTRA>
-0.747207

>  <SCORE.INTRA.DIHEDRAL>
-0.90486

>  <SCORE.INTRA.DIHEDRAL.0>
2.1382

>  <SCORE.INTRA.POLAR>
0

>  <SCORE.INTRA.POLAR.0>
0

>  <SCORE.INTRA.REPUL>
0

>  <SCORE.INTRA.REPUL.0>
0

>  <SCORE.INTRA.SOLV>
-1.50995

>  <SCORE.INTRA.SOLV.lig_0>
-59.6513

>  <SCORE.INTRA.VDW>
0.460198

>  <SCORE.INTRA.VDW.0>
-0.569808

>  <SCORE.INTRA.norm>
-0.0622673

>  <SCORE.RESTR>
0

>  <SCORE.RESTR.CAVITY>
0

>  <SCORE.RESTR.norm>
0

>  <SCORE.SYSTEM>
0

>  <SCORE.SYSTEM.CONST>
0

>  <SCORE.SYSTEM.DIHEDRAL>
0

>  <SCORE.SYSTEM.SOLV>
0

>  <SCORE.SYSTEM.norm>
0

>  <SCORE.heavy>
12

>  <SCORE.norm>
-1.10786

>  <RMSD>
3.037

$$$$
ligand
 OpenBabel11021811503D
libRbt.so/2013.1/901 2013/11/27
 12 12  0  0  0  0  0  0  0  0999 V2000
   10.6923   13.5837  147.8858 C   0  0  0  0  0  0  0  0  0  0  0  0
   12.3753    8.7818  145.7702 C   0  0  0  0  0  0  0  0  0  0  0  0
    9.7005   11.2176  148.7637 N   0  0  0  0  0  0  0  0  0  0  0  0
   10.8455   14.7050  146.9470 N   0  0  0  0  0  0  0  0  0  0  0  0
   10.6707   15.7347  147.3615 N   0  0  0  0  0  0  0  0  0  0  0  0
   10.4926   16.7600  147.7804 N   0  0  0  0  0  0  0  0  0  0  0  0
   12.4607   11.1328  145.8190 N   0  0  0  0  0  0  0  0  0  0  0  0
   11.9501    9.9915  146.3057 C   0  0  0  0  0  0  0  0  0  0  0  0
   10.9863   10.0148  147.2372 N   0  0  0  0  0  0  0  0  0  0  0  0
   10.5106   11.1746  147.7102 C   0  0  0  0  0  0  0  0  0  0  0  0
   10.9972   12.3907  147.2414 C   0  0  0  0  0  0  0  0  0  0  0  0
   11.9879   12.3698  146.2697 C   0  0  0  0  0  0  0  0  0  0  0  0
  1 11  1  0  0  0  0
  1  4  1  0  0  0  0
  2  8  1  0  0  0  0
  3 10  1  0  0  0  0
  4  5  1  0  0  0  0
  5  6  1  0  0  0  0
  7  8  2  0  0  0  0
  7 12  1  0  0  0  0
  8  9  1  0  0  0  0
  9 10  2  0  0  0  0
 10 11  1  0  0  0  0
 11 12  2  0  0  0  0
M  END
>  <CHROM.1>
-157.45592800,-177.37685228,-22.20663934,11.13595036,12.34058741,147.09301090
1.86765822,0.83736995,-0.03544554

>  <Name>
ligand

>  <RI>
0

>  <Rbt.Current_Directory>
/home/itssahil/PROJECTS/Mol_Feturizer/New_Systems/rnas/4NYA

>  <Rbt.Executable>
rbdock ($Id: //depot/dev/client3/rdock/2013.1/src/exe/rbdock.cxx#4 $)

>  <Rbt.Library>
libRbt.so (2013.1, Build901 2013/11/27)

>  <Rbt.Parameter_File>
/export/apps/rDock/src/rDock_2013.1_src/data/scripts/dock_solv.prm

>  <Rbt.Receptor>
prm/pocket_docking_8.prm

>  <SCORE>
-13.1636

>  <SCORE.INTER>
-12.5667

>  <SCORE.INTER.CONST>
1

>  <SCORE.INTER.POLAR>
0

>  <SCORE.INTER.ROT>
3

>  <SCORE.INTER.SOLV>
15.4947

>  <SCORE.INTER.VDW>
-19.1427

>  <SCORE.INTER.norm>
-1.04722

>  <SCORE.INTRA>
-0.596867

>  <SCORE.INTRA.DIHEDRAL>
-0.684198

>  <SCORE.INTRA.DIHEDRAL.0>
2.1382

>  <SCORE.INTRA.POLAR>
0

>  <SCORE.INTRA.POLAR.0>
0

>  <SCORE.INTRA.REPUL>
0

>  <SCORE.INTRA.REPUL.0>
0

>  <SCORE.INTRA.SOLV>
-1.52419

>  <SCORE.INTRA.SOLV.lig_0>
-59.6513

>  <SCORE.INTRA.VDW>
0.507329

>  <SCORE.INTRA.VDW.0>
-0.569808

>  <SCORE.INTRA.norm>
-0.0497389

>  <SCORE.RESTR>
0

>  <SCORE.RESTR.CAVITY>
0

>  <SCORE.RESTR.norm>
0

>  <SCORE.SYSTEM>
0

>  <SCORE.SYSTEM.CONST>
0

>  <SCORE.SYSTEM.DIHEDRAL>
0

>  <SCORE.SYSTEM.SOLV>
0

>  <SCORE.SYSTEM.norm>
0

>  <SCORE.heavy>
12

>  <SCORE.norm>
-1.09696

>  <RMSD>
3.037

$$$$
ligand
 OpenBabel11021811503D
libRbt.so/2013.1/901 2013/11/27
 12 12  0  0  0  0  0  0  0  0999 V2000
   10.5982   13.6217  147.8669 C   0  0  0  0  0  0  0  0  0  0  0  0
   12.3521    8.8292  145.7879 C   0  0  0  0  0  0  0  0  0  0  0  0
    9.6354   11.2482  148.7572 N   0  0  0  0  0  0  0  0  0  0  0  0
   10.8418   14.7488  146.9544 N   0  0  0  0  0  0  0  0  0  0  0  0
   10.6699   15.7783  147.3707 N   0  0  0  0  0  0  0  0  0  0  0  0
   10.4924   16.8040  147.7888 N   0  0  0  0  0  0  0  0  0  0  0  0
   12.4059   11.1813  145.8215 N   0  0  0  0  0  0  0  0  0  0  0  0
   11.9090   10.0364  146.3141 C   0  0  0  0  0  0  0  0  0  0  0  0
   10.9420   10.0528  147.2425 N   0  0  0  0  0  0  0  0  0  0  0  0
   10.4494   11.2092  147.7064 C   0  0  0  0  0  0  0  0  0  0  0  0
   10.9211   12.4287  147.2311 C   0  0  0  0  0  0  0  0  0  0  0  0
   11.9151   12.4147  146.2626 C   0  0  0  0  0  0  0  0  0  0  0  0
  1 11  1  0  0  0  0
  1  4  1  0  0  0  0
  2  8  1  0  0  0  0
  3 10  1  0  0  0  0
  4  5  1  0  0  0  0
  5  6  1  0  0  0  0
  7  8  2  0  0  0  0
  7 12  1  0  0  0  0
  8  9  1  0  0  0  0
  9 10  2  0  0  0  0
 10 11  1  0  0  0  0
 11 12  2  0  0  0  0
M  END
>  <CHROM.1>
-161.93343925,-176.85522925,-47.92891769,11.09219168,12.38202445,147.09436670
1.85654086,0.82885920,-0.02697383

>  <Name>
ligand

>  <RI>
0

>  <Rbt.Current_Directory>
/home/itssahil/PROJECTS/Mol_Feturizer/New_Systems/rnas/4NYA

>  <Rbt.Executable>
rbdock ($Id: //depot/dev/client3/rdock/2013.1/src/exe/rbdock.cxx#4 $)

>  <Rbt.Library>
libRbt.so (2013.1, Build901 2013/11/27)

>  <Rbt.Parameter_File>
/export/apps/rDock/src/rDock_2013.1_src/data/scripts/dock_solv.prm

>  <Rbt.Receptor>
prm/pocket_docking_5.prm

>  <SCORE>
-13.3576

>  <SCORE.INTER>
-12.6941

>  <SCORE.INTER.CONST>
1

>  <SCORE.INTER.POLAR>
0

>  <SCORE.INTER.ROT>
3

>  <SCORE.INTER.SOLV>
15.4999

>  <SCORE.INTER.VDW>
-19.2293

>  <SCORE.INTER.norm>
-1.05784

>  <SCORE.INTRA>
-0.663546

>  <SCORE.INTRA.DIHEDRAL>
-0.898933

>  <SCORE.INTRA.DIHEDRAL.0>
2.1382

>  <SCORE.INTRA.POLAR>
0

>  <SCORE.INTRA.POLAR.0>
0

>  <SCORE.INTRA.REPUL>
0

>  <SCORE.INTRA.REPUL.0>
0

>  <SCORE.INTRA.SOLV>
-1.54241

>  <SCORE.INTRA.SOLV.lig_0>
-59.6513

>  <SCORE.INTRA.VDW>
0.557124

>  <SCORE.INTRA.VDW.0>
-0.569808

>  <SCORE.INTRA.norm>
-0.0552955

>  <SCORE.RESTR>
0

>  <SCORE.RESTR.CAVITY>
0

>  <SCORE.RESTR.norm>
0

>  <SCORE.SYSTEM>
0

>  <SCORE.SYSTEM.CONST>
0

>  <SCORE.SYSTEM.DIHEDRAL>
0

>  <SCORE.SYSTEM.SOLV>
0

>  <SCORE.SYSTEM.norm>
0

>  <SCORE.heavy>
12

>  <SCORE.norm>
-1.11313

>  <RMSD>
3.038

$$$$
ligand
 OpenBabel11021811503D
libRbt.so/2013.1/901 2013/11/27
 12 12  0  0  0  0  0  0  0  0999 V2000
   10.6235   13.5856  147.8733 C   0  0  0  0  0  0  0  0  0  0  0  0
   12.3850    8.7820  145.8268 C   0  0  0  0  0  0  0  0  0  0  0  0
    9.6763   11.2162  148.7909 N   0  0  0  0  0  0  0  0  0  0  0  0
   10.8483   14.7047  146.9463 N   0  0  0  0  0  0  0  0  0  0  0  0
   10.6750   15.7374  147.3542 N   0  0  0  0  0  0  0  0  0  0  0  0
   10.4957   16.7665  147.7630 N   0  0  0  0  0  0  0  0  0  0  0  0
   12.4290   11.1345  145.8389 N   0  0  0  0  0  0  0  0  0  0  0  0
   11.9401    9.9921  146.3449 C   0  0  0  0  0  0  0  0  0  0  0  0
   10.9787   10.0128  147.2790 N   0  0  0  0  0  0  0  0  0  0  0  0
   10.4840   11.1712  147.7355 C   0  0  0  0  0  0  0  0  0  0  0  0
   10.9476   12.3884  147.2464 C   0  0  0  0  0  0  0  0  0  0  0  0
   11.9357   12.3698  146.2720 C   0  0  0  0  0  0  0  0  0  0  0  0
  1 11  1  0  0  0  0
  1  4  1  0  0  0  0
  2  8  1  0  0  0  0
  3 10  1  0  0  0  0
  4  5  1  0  0  0  0
  5  6  1  0  0  0  0
  7  8  2  0  0  0  0
  7 12  1  0  0  0  0
  8  9  1  0  0  0  0
  9 10  2  0  0  0  0
 10 11  1  0  0  0  0
 11 12  2  0  0  0  0
M  END
>  <CHROM.1>
-161.56317506,-176.78196467,-56.96403968,11.11592546,12.34103082,147.10808511
1.86515093,0.83523458,-0.04295173

>  <Name>
ligand

>  <RI>
0

>  <Rbt.Current_Directory>
/home/itssahil/PROJECTS/Mol_Feturizer/New_Systems/rnas/4NYA

>  <Rbt.Executable>
rbdock ($Id: //depot/dev/client3/rdock/2013.1/src/exe/rbdock.cxx#4 $)

>  <Rbt.Library>
libRbt.so (2013.1, Build901 2013/11/27)

>  <Rbt.Parameter_File>
/export/apps/rDock/src/rDock_2013.1_src/data/scripts/dock_solv.prm

>  <Rbt.Receptor>
prm/pocket_docking_8.prm

>  <SCORE>
-13.3143

>  <SCORE.INTER>
-12.6247

>  <SCORE.INTER.CONST>
1

>  <SCORE.INTER.POLAR>
0

>  <SCORE.INTER.ROT>
3

>  <SCORE.INTER.SOLV>
15.5344

>  <SCORE.INTER.VDW>
-19.1946

>  <SCORE.INTER.norm>
-1.05206

>  <SCORE.INTRA>
-0.689535

>  <SCORE.INTRA.DIHEDRAL>
-0.93765

>  <SCORE.INTRA.DIHEDRAL.0>
2.1382

>  <SCORE.INTRA.POLAR>
0

>  <SCORE.INTRA.POLAR.0>
0

>  <SCORE.INTRA.REPUL>
0

>  <SCORE.INTRA.REPUL.0>
0

>  <SCORE.INTRA.SOLV>
-1.54131

>  <SCORE.INTRA.SOLV.lig_0>
-59.6513

>  <SCORE.INTRA.VDW>
0.549945

>  <SCORE.INTRA.VDW.0>
-0.569808

>  <SCORE.INTRA.norm>
-0.0574613

>  <SCORE.RESTR>
0

>  <SCORE.RESTR.CAVITY>
0

>  <SCORE.RESTR.norm>
0

>  <SCORE.SYSTEM>
0

>  <SCORE.SYSTEM.CONST>
0

>  <SCORE.SYSTEM.DIHEDRAL>
0

>  <SCORE.SYSTEM.SOLV>
0

>  <SCORE.SYSTEM.norm>
0

>  <SCORE.heavy>
12

>  <SCORE.norm>
-1.10952

>  <RMSD>
3.039

$$$$
ligand
 OpenBabel11021811503D
libRbt.so/2013.1/901 2013/11/27
 12 12  0  0  0  0  0  0  0  0999 V2000
   10.6040   13.6578  147.9425 C   0  0  0  0  0  0  0  0  0  0  0  0
   12.3533    8.8736  145.8407 C   0  0  0  0  0  0  0  0  0  0  0  0
    9.7910   11.2776  148.9558 N   0  0  0  0  0  0  0  0  0  0  0  0
   10.8571   14.7803  147.0270 N   0  0  0  0  0  0  0  0  0  0  0  0
   10.8684   15.8074  147.4827 N   0  0  0  0  0  0  0  0  0  0  0  0
   10.8808   16.8354  147.9315 N   0  0  0  0  0  0  0  0  0  0  0  0
   12.3313   11.2264  145.8186 N   0  0  0  0  0  0  0  0  0  0  0  0
   11.9116   10.0788  146.3727 C   0  0  0  0  0  0  0  0  0  0  0  0
   11.0179   10.0874  147.3719 N   0  0  0  0  0  0  0  0  0  0  0  0
   10.5237   11.2387  147.8468 C   0  0  0  0  0  0  0  0  0  0  0  0
   10.9172   12.4605  147.3102 C   0  0  0  0  0  0  0  0  0  0  0  0
   11.8347   12.4542  146.2689 C   0  0  0  0  0  0  0  0  0  0  0  0
  1 11  1  0  0  0  0
  1  4  1  0  0  0  0
  2  8  1  0  0  0  0
  3 10  1  0  0  0  0
  4  5  1  0  0  0  0
  5  6  1  0  0  0  0
  7  8  2  0  0  0  0
  7 12  1  0  0  0  0
  8  9  1  0  0  0  0
  9 10  2  0  0  0  0
 10 11  1  0  0  0  0
 11 12  2  0  0  0  0
M  END
>  <CHROM.1>
-167.03533851,-166.58673353,-178.56589234,11.15823465,12.41746077,147.18377677
1.82196587,0.89102604,-0.00683105

>  <Name>
ligand

>  <RI>
0

>  <Rbt.Current_Directory>
/home/itssahil/PROJECTS/Mol_Feturizer/New_Systems/rnas/4NYA

>  <Rbt.Executable>
rbdock ($Id: //depot/dev/client3/rdock/2013.1/src/exe/rbdock.cxx#4 $)

>  <Rbt.Library>
libRbt.so (2013.1, Build901 2013/11/27)

>  <Rbt.Parameter_File>
/export/apps/rDock/src/rDock_2013.1_src/data/scripts/dock_solv.prm

>  <Rbt.Receptor>
prm/pocket_docking_6.prm

>  <SCORE>
-13.243

>  <SCORE.INTER>
-12.7477

>  <SCORE.INTER.CONST>
1

>  <SCORE.INTER.POLAR>
0

>  <SCORE.INTER.ROT>
3

>  <SCORE.INTER.SOLV>
14.3642

>  <SCORE.INTER.VDW>
-18.8865

>  <SCORE.INTER.norm>
-1.06231

>  <SCORE.INTRA>
-0.495303

>  <SCORE.INTRA.DIHEDRAL>
-0.743946

>  <SCORE.INTRA.DIHEDRAL.0>
2.1382

>  <SCORE.INTRA.POLAR>
0

>  <SCORE.INTRA.POLAR.0>
0

>  <SCORE.INTRA.REPUL>
0

>  <SCORE.INTRA.REPUL.0>
0

>  <SCORE.INTRA.SOLV>
-1.53975

>  <SCORE.INTRA.SOLV.lig_0>
-59.6513

>  <SCORE.INTRA.VDW>
0.646545

>  <SCORE.INTRA.VDW.0>
-0.569808

>  <SCORE.INTRA.norm>
-0.0412753

>  <SCORE.RESTR>
0

>  <SCORE.RESTR.CAVITY>
0

>  <SCORE.RESTR.norm>
0

>  <SCORE.SYSTEM>
0

>  <SCORE.SYSTEM.CONST>
0

>  <SCORE.SYSTEM.DIHEDRAL>
0

>  <SCORE.SYSTEM.SOLV>
0

>  <SCORE.SYSTEM.norm>
0

>  <SCORE.heavy>
12

>  <SCORE.norm>
-1.10358

>  <RMSD>
3.043

$$$$
ligand
 OpenBabel11021811503D
libRbt.so/2013.1/901 2013/11/27
 12 12  0  0  0  0  0  0  0  0999 V2000
   10.6196   13.6163  147.8546 C   0  0  0  0  0  0  0  0  0  0  0  0
   12.3511    8.8129  145.7821 C   0  0  0  0  0  0  0  0  0  0  0  0
    9.6529   11.2482  148.7549 N   0  0  0  0  0  0  0  0  0  0  0  0
   10.8682   14.7405  146.9400 N   0  0  0  0  0  0  0  0  0  0  0  0
   10.6807   15.7707  147.3478 N   0  0  0  0  0  0  0  0  0  0  0  0
   10.4873   16.7972  147.7569 N   0  0  0  0  0  0  0  0  0  0  0  0
   12.4122   11.1649  145.8092 N   0  0  0  0  0  0  0  0  0  0  0  0
   11.9138   10.0229  146.3067 C   0  0  0  0  0  0  0  0  0  0  0  0
   10.9502   10.0448  147.2386 N   0  0  0  0  0  0  0  0  0  0  0  0
   10.4628   11.2039  147.7012 C   0  0  0  0  0  0  0  0  0  0  0  0
   10.9365   12.4207  147.2209 C   0  0  0  0  0  0  0  0  0  0  0  0
   11.9269   12.4010  146.2488 C   0  0  0  0  0  0  0  0  0  0  0  0
  1 11  1  0  0  0  0
  1  4  1  0  0  0  0
  2  8  1  0  0  0  0
  3 10  1  0  0  0  0
  4  5  1  0  0  0  0
  5  6  1  0  0  0  0
  7  8  2  0  0  0  0
  7 12  1  0  0  0  0
  8  9  1  0  0  0  0
  9 10  2  0  0  0  0
 10 11  1  0  0  0  0
 11 12  2  0  0  0  0
M  END
>  <CHROM.1>
-162.15002868,-178.10111851,-51.78854792,11.10292478,12.37291912,147.08242300
1.85693755,0.83295055,-0.03084366

>  <Name>
ligand

>  <RI>
0

>  <Rbt.Current_Directory>
/home/itssahil/PROJECTS/Mol_Feturizer/New_Systems/rnas/4NYA

>  <Rbt.Executable>
rbdock ($Id: //depot/dev/client3/rdock/2013.1/src/exe/rbdock.cxx#4 $)

>  <Rbt.Library>
libRbt.so (2013.1, Build901 2013/11/27)

>  <Rbt.Parameter_File>
/export/apps/rDock/src/rDock_2013.1_src/data/scripts/dock_solv.prm

>  <Rbt.Receptor>
prm/pocket_docking_7.prm

>  <SCORE>
-13.3259

>  <SCORE.INTER>
-12.6536

>  <SCORE.INTER.CONST>
1

>  <SCORE.INTER.POLAR>
0

>  <SCORE.INTER.ROT>
3

>  <SCORE.INTER.SOLV>
15.6654

>  <SCORE.INTER.VDW>
-19.2575

>  <SCORE.INTER.norm>
-1.05446

>  <SCORE.INTRA>
-0.67235

>  <SCORE.INTRA.DIHEDRAL>
-0.922687

>  <SCORE.INTRA.DIHEDRAL.0>
2.1382

>  <SCORE.INTRA.POLAR>
0

>  <SCORE.INTRA.POLAR.0>
0

>  <SCORE.INTRA.REPUL>
0

>  <SCORE.INTRA.REPUL.0>
0

>  <SCORE.INTRA.SOLV>
-1.54528

>  <SCORE.INTRA.SOLV.lig_0>
-59.6513

>  <SCORE.INTRA.VDW>
0.561633

>  <SCORE.INTRA.VDW.0>
-0.569808

>  <SCORE.INTRA.norm>
-0.0560291

>  <SCORE.RESTR>
0

>  <SCORE.RESTR.CAVITY>
0

>  <SCORE.RESTR.norm>
0

>  <SCORE.SYSTEM>
0

>  <SCORE.SYSTEM.CONST>
0

>  <SCORE.SYSTEM.DIHEDRAL>
0

>  <SCORE.SYSTEM.SOLV>
0

>  <SCORE.SYSTEM.norm>
0

>  <SCORE.heavy>
12

>  <SCORE.norm>
-1.11049

>  <RMSD>
3.045

$$$$
ligand
 OpenBabel11021811503D
libRbt.so/2013.1/901 2013/11/27
 12 12  0  0  0  0  0  0  0  0999 V2000
   10.6115   13.6599  147.9398 C   0  0  0  0  0  0  0  0  0  0  0  0
   12.3510    8.8677  145.8481 C   0  0  0  0  0  0  0  0  0  0  0  0
    9.8024   11.2835  148.9653 N   0  0  0  0  0  0  0  0  0  0  0  0
   10.8511   14.7782  147.0157 N   0  0  0  0  0  0  0  0  0  0  0  0
   10.8552   15.8085  147.4643 N   0  0  0  0  0  0  0  0  0  0  0  0
   10.8652   16.8356  147.9153 N   0  0  0  0  0  0  0  0  0  0  0  0
   12.3292   11.2204  145.8174 N   0  0  0  0  0  0  0  0  0  0  0  0
   11.9118   10.0749  146.3776 C   0  0  0  0  0  0  0  0  0  0  0  0
   11.0223   10.0873  147.3806 N   0  0  0  0  0  0  0  0  0  0  0  0
   10.5304   11.2404  147.8533 C   0  0  0  0  0  0  0  0  0  0  0  0
   10.9217   12.4602  147.3106 C   0  0  0  0  0  0  0  0  0  0  0  0
   11.8348   12.4499  146.2654 C   0  0  0  0  0  0  0  0  0  0  0  0
  1 11  1  0  0  0  0
  1  4  1  0  0  0  0
  2  8  1  0  0  0  0
  3 10  1  0  0  0  0
  4  5  1  0  0  0  0
  5  6  1  0  0  0  0
  7  8  2  0  0  0  0
  7 12  1  0  0  0  0
  8  9  1  0  0  0  0
  9 10  2  0  0  0  0
 10 11  1  0  0  0  0
 11 12  2  0  0  0  0
M  END
>  <CHROM.1>
-166.60732564,-167.09394438,70.15432318,11.15769746,12.41650241,147.18233004
1.82692306,0.89637667,-0.01488275

>  <Name>
ligand

>  <RI>
0

>  <Rbt.Current_Directory>
/home/itssahil/PROJECTS/Mol_Feturizer/New_Systems/rnas/4NYA

>  <Rbt.Executable>
rbdock ($Id: //depot/dev/client3/rdock/2013.1/src/exe/rbdock.cxx#4 $)

>  <Rbt.Library>
libRbt.so (2013.1, Build901 2013/11/27)

>  <Rbt.Parameter_File>
/export/apps/rDock/src/rDock_2013.1_src/data/scripts/dock_solv.prm

>  <Rbt.Receptor>
prm/pocket_docking_8.prm

>  <SCORE>
-13.2674

>  <SCORE.INTER>
-12.7728

>  <SCORE.INTER.CONST>
1

>  <SCORE.INTER.POLAR>
0

>  <SCORE.INTER.ROT>
3

>  <SCORE.INTER.SOLV>
14.4229

>  <SCORE.INTER.VDW>
-18.9229

>  <SCORE.INTER.norm>
-1.0644

>  <SCORE.INTRA>
-0.494599

>  <SCORE.INTRA.DIHEDRAL>
-0.733238

>  <SCORE.INTRA.DIHEDRAL.0>
2.1382

>  <SCORE.INTRA.POLAR>
0

>  <SCORE.INTRA.POLAR.0>
0

>  <SCORE.INTRA.REPUL>
0

>  <SCORE.INTRA.REPUL.0>
0

>  <SCORE.INTRA.SOLV>
-1.5362

>  <SCORE.INTRA.SOLV.lig_0>
-59.6513

>  <SCORE.INTRA.VDW>
0.640121

>  <SCORE.INTRA.VDW.0>
-0.569808

>  <SCORE.INTRA.norm>
-0.0412166

>  <SCORE.RESTR>
0

>  <SCORE.RESTR.CAVITY>
0

>  <SCORE.RESTR.norm>
0

>  <SCORE.SYSTEM>
0

>  <SCORE.SYSTEM.CONST>
0

>  <SCORE.SYSTEM.DIHEDRAL>
0

>  <SCORE.SYSTEM.SOLV>
0

>  <SCORE.SYSTEM.norm>
0

>  <SCORE.heavy>
12

>  <SCORE.norm>
-1.10562

>  <RMSD>
3.046

$$$$
ligand
 OpenBabel11021811503D
libRbt.so/2013.1/901 2013/11/27
 12 12  0  0  0  0  0  0  0  0999 V2000
   10.6842   13.5927  147.8835 C   0  0  0  0  0  0  0  0  0  0  0  0
   12.3698    8.7977  145.7544 C   0  0  0  0  0  0  0  0  0  0  0  0
    9.6928   11.2236  148.7538 N   0  0  0  0  0  0  0  0  0  0  0  0
   10.8207   14.7150  146.9433 N   0  0  0  0  0  0  0  0  0  0  0  0
   10.7834   15.7476  147.3850 N   0  0  0  0  0  0  0  0  0  0  0  0
   10.7518   16.7771  147.8294 N   0  0  0  0  0  0  0  0  0  0  0  0
   12.4545   11.1485  145.8102 N   0  0  0  0  0  0  0  0  0  0  0  0
   11.9440   10.0056  146.2933 C   0  0  0  0  0  0  0  0  0  0  0  0
   10.9797   10.0258  147.2244 N   0  0  0  0  0  0  0  0  0  0  0  0
   10.5034   11.1840  147.7005 C   0  0  0  0  0  0  0  0  0  0  0  0
   10.9899   12.4017  147.2356 C   0  0  0  0  0  0  0  0  0  0  0  0
   11.9811   12.3840  146.2644 C   0  0  0  0  0  0  0  0  0  0  0  0
  1 11  1  0  0  0  0
  1  4  1  0  0  0  0
  2  8  1  0  0  0  0
  3 10  1  0  0  0  0
  4  5  1  0  0  0  0
  5  6  1  0  0  0  0
  7  8  2  0  0  0  0
  7 12  1  0  0  0  0
  8  9  1  0  0  0  0
  9 10  2  0  0  0  0
 10 11  1  0  0  0  0
 11 12  2  0  0  0  0
M  END
>  <CHROM.1>
-156.72705899,-169.28433108,63.01801763,11.16108193,12.35280111,147.09212163
1.83014723,0.83277508,-0.00139519

>  <Name>
ligand

>  <RI>
0

>  <Rbt.Current_Directory>
/home/itssahil/PROJECTS/Mol_Feturizer/New_Systems/rnas/4NYA

>  <Rbt.Executable>
rbdock ($Id: //depot/dev/client3/rdock/2013.1/src/exe/rbdock.cxx#4 $)

>  <Rbt.Library>
libRbt.so (2013.1, Build901 2013/11/27)

>  <Rbt.Parameter_File>
/export/apps/rDock/src/rDock_2013.1_src/data/scripts/dock_solv.prm

>  <Rbt.Receptor>
prm/pocket_docking_7.prm

>  <SCORE>
-13.2446

>  <SCORE.INTER>
-12.5271

>  <SCORE.INTER.CONST>
1

>  <SCORE.INTER.POLAR>
0

>  <SCORE.INTER.ROT>
3

>  <SCORE.INTER.SOLV>
15.4329

>  <SCORE.INTER.VDW>
-19.0957

>  <SCORE.INTER.norm>
-1.04393

>  <SCORE.INTRA>
-0.717433

>  <SCORE.INTRA.DIHEDRAL>
-0.87593

>  <SCORE.INTRA.DIHEDRAL.0>
2.1382

>  <SCORE.INTRA.POLAR>
0

>  <SCORE.INTRA.POLAR.0>
0

>  <SCORE.INTRA.REPUL>
0

>  <SCORE.INTRA.REPUL.0>
0

>  <SCORE.INTRA.SOLV>
-1.50334

>  <SCORE.INTRA.SOLV.lig_0>
-59.6513

>  <SCORE.INTRA.VDW>
0.4722

>  <SCORE.INTRA.VDW.0>
-0.569808

>  <SCORE.INTRA.norm>
-0.0597861

>  <SCORE.RESTR>
0

>  <SCORE.RESTR.CAVITY>
0

>  <SCORE.RESTR.norm>
0

>  <SCORE.SYSTEM>
0

>  <SCORE.SYSTEM.CONST>
0

>  <SCORE.SYSTEM.DIHEDRAL>
0

>  <SCORE.SYSTEM.SOLV>
0

>  <SCORE.SYSTEM.norm>
0

>  <SCORE.heavy>
12

>  <SCORE.norm>
-1.10371

>  <RMSD>
3.048

$$$$
ligand
 OpenBabel11021811503D
libRbt.so/2013.1/901 2013/11/27
 12 12  0  0  0  0  0  0  0  0999 V2000
   10.6673   13.6021  147.8827 C   0  0  0  0  0  0  0  0  0  0  0  0
   12.3548    8.7961  145.7802 C   0  0  0  0  0  0  0  0  0  0  0  0
    9.6591   11.2387  148.7492 N   0  0  0  0  0  0  0  0  0  0  0  0
   10.8969   14.7290  146.9664 N   0  0  0  0  0  0  0  0  0  0  0  0
   10.8807   15.7568  147.4203 N   0  0  0  0  0  0  0  0  0  0  0  0
   10.8582   16.7819  147.8755 N   0  0  0  0  0  0  0  0  0  0  0  0
   12.4476   11.1467  145.8314 N   0  0  0  0  0  0  0  0  0  0  0  0
   11.9285   10.0068  146.3123 C   0  0  0  0  0  0  0  0  0  0  0  0
   10.9557   10.0327  147.2344 N   0  0  0  0  0  0  0  0  0  0  0  0
   10.4793   11.1937  147.7035 C   0  0  0  0  0  0  0  0  0  0  0  0
   10.9745   12.4086  147.2404 C   0  0  0  0  0  0  0  0  0  0  0  0
   11.9746   12.3849  146.2784 C   0  0  0  0  0  0  0  0  0  0  0  0
  1 11  1  0  0  0  0
  1  4  1  0  0  0  0
  2  8  1  0  0  0  0
  3 10  1  0  0  0  0
  4  5  1  0  0  0  0
  5  6  1  0  0  0  0
  7  8  2  0  0  0  0
  7 12  1  0  0  0  0
  8  9  1  0  0  0  0
  9 10  2  0  0  0  0
 10 11  1  0  0  0  0
 11 12  2  0  0  0  0
M  END
>  <CHROM.1>
-160.22194363,-168.37932430,-59.25807119,11.17234223,12.35906753,147.10889036
1.80017606,0.81859171,0.02499347

>  <Name>
ligand

>  <RI>
0

>  <Rbt.Current_Directory>
/home/itssahil/PROJECTS/Mol_Feturizer/New_Systems/rnas/4NYA

>  <Rbt.Executable>
rbdock ($Id: //depot/dev/client3/rdock/2013.1/src/exe/rbdock.cxx#4 $)

>  <Rbt.Library>
libRbt.so (2013.1, Build901 2013/11/27)

>  <Rbt.Parameter_File>
/export/apps/rDock/src/rDock_2013.1_src/data/scripts/dock_solv.prm

>  <Rbt.Receptor>
prm/pocket_docking_5.prm

>  <SCORE>
-13.2944

>  <SCORE.INTER>
-12.6476

>  <SCORE.INTER.CONST>
1

>  <SCORE.INTER.POLAR>
0

>  <SCORE.INTER.ROT>
3

>  <SCORE.INTER.SOLV>
15.2719

>  <SCORE.INTER.VDW>
-19.1224

>  <SCORE.INTER.norm>
-1.05397

>  <SCORE.INTRA>
-0.646777

>  <SCORE.INTRA.DIHEDRAL>
-0.850098

>  <SCORE.INTRA.DIHEDRAL.0>
2.1382

>  <SCORE.INTRA.POLAR>
0

>  <SCORE.INTRA.POLAR.0>
0

>  <SCORE.INTRA.REPUL>
0

>  <SCORE.INTRA.REPUL.0>
0

>  <SCORE.INTRA.SOLV>
-1.51699

>  <SCORE.INTRA.SOLV.lig_0>
-59.6513

>  <SCORE.INTRA.VDW>
0.536765

>  <SCORE.INTRA.VDW.0>
-0.569808

>  <SCORE.INTRA.norm>
-0.0538981

>  <SCORE.RESTR>
0

>  <SCORE.RESTR.CAVITY>
0

>  <SCORE.RESTR.norm>
0

>  <SCORE.SYSTEM>
0

>  <SCORE.SYSTEM.CONST>
0

>  <SCORE.SYSTEM.DIHEDRAL>
0

>  <SCORE.SYSTEM.SOLV>
0

>  <SCORE.SYSTEM.norm>
0

>  <SCORE.heavy>
12

>  <SCORE.norm>
-1.10787

>  <RMSD>
3.049

$$$$
ligand
 OpenBabel11021811503D
libRbt.so/2013.1/901 2013/11/27
 12 12  0  0  0  0  0  0  0  0999 V2000
   10.1968   15.1321  148.0396 C   0  0  0  0  0  0  0  0  0  0  0  0
   12.0359   10.3322  146.0534 C   0  0  0  0  0  0  0  0  0  0  0  0
    9.5391   12.7692  149.1959 N   0  0  0  0  0  0  0  0  0  0  0  0
   11.2844   15.5543  148.9348 N   0  0  0  0  0  0  0  0  0  0  0  0
   11.1450   16.5340  149.4672 N   0  0  0  0  0  0  0  0  0  0  0  0
   11.0119   17.5112  150.0017 N   0  0  0  0  0  0  0  0  0  0  0  0
   11.9130   12.6788  145.9319 N   0  0  0  0  0  0  0  0  0  0  0  0
   11.5717   11.5414  146.5564 C   0  0  0  0  0  0  0  0  0  0  0  0
   10.7315   11.5591  147.6009 N   0  0  0  0  0  0  0  0  0  0  0  0
   10.2142   12.7099  148.0519 C   0  0  0  0  0  0  0  0  0  0  0  0
   10.5272   13.9211  147.4432 C   0  0  0  0  0  0  0  0  0  0  0  0
   11.3889   13.9047  146.3553 C   0  0  0  0  0  0  0  0  0  0  0  0
  1 11  1  0  0  0  0
  1  4  1  0  0  0  0
  2  8  1  0  0  0  0
  3 10  1  0  0  0  0
  4  5  1  0  0  0  0
  5  6  1  0  0  0  0
  7  8  2  0  0  0  0
  7 12  1  0  0  0  0
  8  9  1  0  0  0  0
  9 10  2  0  0  0  0
 10 11  1  0  0  0  0
 11 12  2  0  0  0  0
M  END
>  <CHROM.1>
88.31958407,179.00165660,-179.61236905,10.97191052,13.69051438,147.82627549
-1.73086173,-0.89296799,-2.75226145

>  <Name>
ligand

>  <RI>
0

>  <Rbt.Current_Directory>
/home/itssahil/PROJECTS/Mol_Feturizer/New_Systems/rnas/4NYA

>  <Rbt.Executable>
rbdock ($Id: //depot/dev/client3/rdock/2013.1/src/exe/rbdock.cxx#4 $)

>  <Rbt.Library>
libRbt.so (2013.1, Build901 2013/11/27)

>  <Rbt.Parameter_File>
/export/apps/rDock/src/rDock_2013.1_src/data/scripts/dock_solv.prm

>  <Rbt.Receptor>
prm/pocket_docking_8.prm

>  <SCORE>
-12.1359

>  <SCORE.INTER>
-11.5391

>  <SCORE.INTER.CONST>
1

>  <SCORE.INTER.POLAR>
0

>  <SCORE.INTER.ROT>
3

>  <SCORE.INTER.SOLV>
8.57436

>  <SCORE.INTER.VDW>
-16.1508

>  <SCORE.INTER.norm>
-0.961588

>  <SCORE.INTRA>
-0.5968

>  <SCORE.INTRA.DIHEDRAL>
-0.957409

>  <SCORE.INTRA.DIHEDRAL.0>
2.1382

>  <SCORE.INTRA.POLAR>
0

>  <SCORE.INTRA.POLAR.0>
0

>  <SCORE.INTRA.REPUL>
0

>  <SCORE.INTRA.REPUL.0>
0

>  <SCORE.INTRA.SOLV>
-0.0768822

>  <SCORE.INTRA.SOLV.lig_0>
-59.6513

>  <SCORE.INTRA.VDW>
-0.0796542

>  <SCORE.INTRA.VDW.0>
-0.569808

>  <SCORE.INTRA.norm>
-0.0497333

>  <SCORE.RESTR>
0

>  <SCORE.RESTR.CAVITY>
0

>  <SCORE.RESTR.norm>
0

>  <SCORE.SYSTEM>
0

>  <SCORE.SYSTEM.CONST>
0

>  <SCORE.SYSTEM.DIHEDRAL>
0

>  <SCORE.SYSTEM.SOLV>
0

>  <SCORE.SYSTEM.norm>
0

>  <SCORE.heavy>
12

>  <SCORE.norm>
-1.01132

>  <RMSD>
3.049

$$$$
ligand
 OpenBabel11021811503D
libRbt.so/2013.1/901 2013/11/27
 12 12  0  0  0  0  0  0  0  0999 V2000
   10.6357   13.6392  147.8839 C   0  0  0  0  0  0  0  0  0  0  0  0
   12.3515    8.8278  145.8167 C   0  0  0  0  0  0  0  0  0  0  0  0
    9.8128   11.2722  148.9197 N   0  0  0  0  0  0  0  0  0  0  0  0
   10.8012   14.7448  146.9287 N   0  0  0  0  0  0  0  0  0  0  0  0
   10.6464   15.7829  147.3301 N   0  0  0  0  0  0  0  0  0  0  0  0
   10.4858   16.8173  147.7333 N   0  0  0  0  0  0  0  0  0  0  0  0
   12.3425   11.1804  145.7749 N   0  0  0  0  0  0  0  0  0  0  0  0
   11.9182   10.0399  146.3400 C   0  0  0  0  0  0  0  0  0  0  0  0
   11.0278   10.0619  147.3420 N   0  0  0  0  0  0  0  0  0  0  0  0
   10.5416   11.2198  147.8087 C   0  0  0  0  0  0  0  0  0  0  0  0
   10.9402   12.4348  147.2606 C   0  0  0  0  0  0  0  0  0  0  0  0
   11.8542   12.4146  146.2165 C   0  0  0  0  0  0  0  0  0  0  0  0
  1 11  1  0  0  0  0
  1  4  1  0  0  0  0
  2  8  1  0  0  0  0
  3 10  1  0  0  0  0
  4  5  1  0  0  0  0
  5  6  1  0  0  0  0
  7  8  2  0  0  0  0
  7 12  1  0  0  0  0
  8  9  1  0  0  0  0
  9 10  2  0  0  0  0
 10 11  1  0  0  0  0
 11 12  2  0  0  0  0
M  END
>  <CHROM.1>
-163.07098479,-176.29013144,-53.21914560,11.11107877,12.38892274,147.11498359
1.89390642,0.90563869,-0.08461733

>  <Name>
ligand

>  <RI>
0

>  <Rbt.Current_Directory>
/home/itssahil/PROJECTS/Mol_Feturizer/New_Systems/rnas/4NYA

>  <Rbt.Executable>
rbdock ($Id: //depot/dev/client3/rdock/2013.1/src/exe/rbdock.cxx#4 $)

>  <Rbt.Library>
libRbt.so (2013.1, Build901 2013/11/27)

>  <Rbt.Parameter_File>
/export/apps/rDock/src/rDock_2013.1_src/data/scripts/dock_solv.prm

>  <Rbt.Receptor>
prm/pocket_docking_5.prm

>  <SCORE>
-13.3024

>  <SCORE.INTER>
-12.6523

>  <SCORE.INTER.CONST>
1

>  <SCORE.INTER.POLAR>
0

>  <SCORE.INTER.ROT>
3

>  <SCORE.INTER.SOLV>
15.3504

>  <SCORE.INTER.VDW>
-19.1516

>  <SCORE.INTER.norm>
-1.05436

>  <SCORE.INTRA>
-0.650103

>  <SCORE.INTRA.DIHEDRAL>
-0.911614

>  <SCORE.INTRA.DIHEDRAL.0>
2.1382

>  <SCORE.INTRA.POLAR>
0

>  <SCORE.INTRA.POLAR.0>
0

>  <SCORE.INTRA.REPUL>
0

>  <SCORE.INTRA.REPUL.0>
0

>  <SCORE.INTRA.SOLV>
-1.54554

>  <SCORE.INTRA.SOLV.lig_0>
-59.6513

>  <SCORE.INTRA.VDW>
0.578474

>  <SCORE.INTRA.VDW.0>
-0.569808

>  <SCORE.INTRA.norm>
-0.0541753

>  <SCORE.RESTR>
0

>  <SCORE.RESTR.CAVITY>
0

>  <SCORE.RESTR.norm>
0

>  <SCORE.SYSTEM>
0

>  <SCORE.SYSTEM.CONST>
0

>  <SCORE.SYSTEM.DIHEDRAL>
0

>  <SCORE.SYSTEM.SOLV>
0

>  <SCORE.SYSTEM.norm>
0

>  <SCORE.heavy>
12

>  <SCORE.norm>
-1.10853

>  <RMSD>
3.053

$$$$
ligand
 OpenBabel11021811503D
libRbt.so/2013.1/901 2013/11/27
 12 12  0  0  0  0  0  0  0  0999 V2000
   10.6051   13.6919  147.9316 C   0  0  0  0  0  0  0  0  0  0  0  0
   12.3421    8.8847  145.8724 C   0  0  0  0  0  0  0  0  0  0  0  0
    9.7814   11.3229  148.9621 N   0  0  0  0  0  0  0  0  0  0  0  0
   10.7986   14.8007  146.9853 N   0  0  0  0  0  0  0  0  0  0  0  0
   10.7688   15.8386  147.4148 N   0  0  0  0  0  0  0  0  0  0  0  0
   10.7402   16.8774  147.8374 N   0  0  0  0  0  0  0  0  0  0  0  0
   12.3286   11.2373  145.8312 N   0  0  0  0  0  0  0  0  0  0  0  0
   11.9035   10.0957  146.3937 C   0  0  0  0  0  0  0  0  0  0  0  0
   11.0076   10.1156  147.3907 N   0  0  0  0  0  0  0  0  0  0  0  0
   10.5164   11.2724  147.8552 C   0  0  0  0  0  0  0  0  0  0  0  0
   10.9155   12.4884  147.3096 C   0  0  0  0  0  0  0  0  0  0  0  0
   11.8353   12.4704  146.2705 C   0  0  0  0  0  0  0  0  0  0  0  0
  1 11  1  0  0  0  0
  1  4  1  0  0  0  0
  2  8  1  0  0  0  0
  3 10  1  0  0  0  0
  4  5  1  0  0  0  0
  5  6  1  0  0  0  0
  7  8  2  0  0  0  0
  7 12  1  0  0  0  0
  8  9  1  0  0  0  0
  9 10  2  0  0  0  0
 10 11  1  0  0  0  0
 11 12  2  0  0  0  0
M  END
>  <CHROM.1>
-164.15587909,-168.87399784,-179.60212597,11.12813972,12.44400760,147.17361736
1.84739542,0.89446728,-0.04196863

>  <Name>
ligand

>  <RI>
0

>  <Rbt.Current_Directory>
/home/itssahil/PROJECTS/Mol_Feturizer/New_Systems/rnas/4NYA

>  <Rbt.Executable>
rbdock ($Id: //depot/dev/client3/rdock/2013.1/src/exe/rbdock.cxx#4 $)

>  <Rbt.Library>
libRbt.so (2013.1, Build901 2013/11/27)

>  <Rbt.Parameter_File>
/export/apps/rDock/src/rDock_2013.1_src/data/scripts/dock_solv.prm

>  <Rbt.Receptor>
prm/pocket_docking_5.prm

>  <SCORE>
-13.2327

>  <SCORE.INTER>
-12.6451

>  <SCORE.INTER.CONST>
1

>  <SCORE.INTER.POLAR>
0

>  <SCORE.INTER.ROT>
3

>  <SCORE.INTER.SOLV>
14.7238

>  <SCORE.INTER.VDW>
-18.938

>  <SCORE.INTER.norm>
-1.05376

>  <SCORE.INTRA>
-0.58765

>  <SCORE.INTRA.DIHEDRAL>
-0.824953

>  <SCORE.INTRA.DIHEDRAL.0>
2.1382

>  <SCORE.INTRA.POLAR>
0

>  <SCORE.INTRA.POLAR.0>
0

>  <SCORE.INTRA.REPUL>
0

>  <SCORE.INTRA.REPUL.0>
0

>  <SCORE.INTRA.SOLV>
-1.53751

>  <SCORE.INTRA.SOLV.lig_0>
-59.6513

>  <SCORE.INTRA.VDW>
0.593584

>  <SCORE.INTRA.VDW.0>
-0.569808

>  <SCORE.INTRA.norm>
-0.0489708

>  <SCORE.RESTR>
0

>  <SCORE.RESTR.CAVITY>
0

>  <SCORE.RESTR.norm>
0

>  <SCORE.SYSTEM>
0

>  <SCORE.SYSTEM.CONST>
0

>  <SCORE.SYSTEM.DIHEDRAL>
0

>  <SCORE.SYSTEM.SOLV>
0

>  <SCORE.SYSTEM.norm>
0

>  <SCORE.heavy>
12

>  <SCORE.norm>
-1.10273

>  <RMSD>
3.054

$$$$
ligand
 OpenBabel11021811503D
libRbt.so/2013.1/901 2013/11/27
 12 12  0  0  0  0  0  0  0  0999 V2000
   10.6117   13.5929  147.8446 C   0  0  0  0  0  0  0  0  0  0  0  0
   12.3736    8.7964  145.7818 C   0  0  0  0  0  0  0  0  0  0  0  0
    9.6745   11.2200  148.7632 N   0  0  0  0  0  0  0  0  0  0  0  0
   10.8313   14.7141  146.9189 N   0  0  0  0  0  0  0  0  0  0  0  0
   10.8087   15.7454  147.3646 N   0  0  0  0  0  0  0  0  0  0  0  0
   10.7799   16.7737  147.8121 N   0  0  0  0  0  0  0  0  0  0  0  0
   12.4124   11.1490  145.7974 N   0  0  0  0  0  0  0  0  0  0  0  0
   11.9286   10.0047  146.3040 C   0  0  0  0  0  0  0  0  0  0  0  0
   10.9719   10.0218  147.2430 N   0  0  0  0  0  0  0  0  0  0  0  0
   10.4769   11.1785  147.7037 C   0  0  0  0  0  0  0  0  0  0  0  0
   10.9353   12.3974  147.2142 C   0  0  0  0  0  0  0  0  0  0  0  0
   11.9185   12.3825  146.2348 C   0  0  0  0  0  0  0  0  0  0  0  0
  1 11  1  0  0  0  0
  1  4  1  0  0  0  0
  2  8  1  0  0  0  0
  3 10  1  0  0  0  0
  4  5  1  0  0  0  0
  5  6  1  0  0  0  0
  7  8  2  0  0  0  0
  7 12  1  0  0  0  0
  8  9  1  0  0  0  0
  9 10  2  0  0  0  0
 10 11  1  0  0  0  0
 11 12  2  0  0  0  0
M  END
>  <CHROM.1>
-161.64801880,-167.95082507,-56.41359238,11.14293028,12.35061502,147.08443804
1.82345769,0.83444778,-0.00373329

>  <Name>
ligand

>  <RI>
0

>  <Rbt.Current_Directory>
/home/itssahil/PROJECTS/Mol_Feturizer/New_Systems/rnas/4NYA

>  <Rbt.Executable>
rbdock ($Id: //depot/dev/client3/rdock/2013.1/src/exe/rbdock.cxx#4 $)

>  <Rbt.Library>
libRbt.so (2013.1, Build901 2013/11/27)

>  <Rbt.Parameter_File>
/export/apps/rDock/src/rDock_2013.1_src/data/scripts/dock_solv.prm

>  <Rbt.Receptor>
prm/pocket_docking_7.prm

>  <SCORE>
-13.2414

>  <SCORE.INTER>
-12.6128

>  <SCORE.INTER.CONST>
1

>  <SCORE.INTER.POLAR>
0

>  <SCORE.INTER.ROT>
3

>  <SCORE.INTER.SOLV>
15.5653

>  <SCORE.INTER.VDW>
-19.197

>  <SCORE.INTER.norm>
-1.05107

>  <SCORE.INTRA>
-0.628579

>  <SCORE.INTRA.DIHEDRAL>
-0.828985

>  <SCORE.INTRA.DIHEDRAL.0>
2.1382

>  <SCORE.INTRA.POLAR>
0

>  <SCORE.INTRA.POLAR.0>
0

>  <SCORE.INTRA.REPUL>
0

>  <SCORE.INTRA.REPUL.0>
0

>  <SCORE.INTRA.SOLV>
-1.52149

>  <SCORE.INTRA.SOLV.lig_0>
-59.6513

>  <SCORE.INTRA.VDW>
0.546659

>  <SCORE.INTRA.VDW.0>
-0.569808

>  <SCORE.INTRA.norm>
-0.0523816

>  <SCORE.RESTR>
0

>  <SCORE.RESTR.CAVITY>
0

>  <SCORE.RESTR.norm>
0

>  <SCORE.SYSTEM>
0

>  <SCORE.SYSTEM.CONST>
0

>  <SCORE.SYSTEM.DIHEDRAL>
0

>  <SCORE.SYSTEM.SOLV>
0

>  <SCORE.SYSTEM.norm>
0

>  <SCORE.heavy>
12

>  <SCORE.norm>
-1.10345

>  <RMSD>
3.054

$$$$
ligand
 OpenBabel11021811503D
libRbt.so/2013.1/901 2013/11/27
 12 12  0  0  0  0  0  0  0  0999 V2000
   10.6887   13.6369  147.9258 C   0  0  0  0  0  0  0  0  0  0  0  0
   12.3308    8.8241  145.8030 C   0  0  0  0  0  0  0  0  0  0  0  0
    9.8060   11.2715  148.9150 N   0  0  0  0  0  0  0  0  0  0  0  0
   10.8558   14.7509  146.9806 N   0  0  0  0  0  0  0  0  0  0  0  0
   10.8710   15.7849  147.4205 N   0  0  0  0  0  0  0  0  0  0  0  0
   10.8806   16.8156  147.8630 N   0  0  0  0  0  0  0  0  0  0  0  0
   12.3699   11.1767  145.7980 N   0  0  0  0  0  0  0  0  0  0  0  0
   11.9161   10.0365  146.3403 C   0  0  0  0  0  0  0  0  0  0  0  0
   11.0147   10.0612  147.3324 N   0  0  0  0  0  0  0  0  0  0  0  0
   10.5466   11.2215  147.8117 C   0  0  0  0  0  0  0  0  0  0  0  0
   10.9760   12.4364  147.2872 C   0  0  0  0  0  0  0  0  0  0  0  0
   11.9015   12.4137  146.2533 C   0  0  0  0  0  0  0  0  0  0  0  0
  1 11  1  0  0  0  0
  1  4  1  0  0  0  0
  2  8  1  0  0  0  0
  3 10  1  0  0  0  0
  4  5  1  0  0  0  0
  5  6  1  0  0  0  0
  7  8  2  0  0  0  0
  7 12  1  0  0  0  0
  8  9  1  0  0  0  0
  9 10  2  0  0  0  0
 10 11  1  0  0  0  0
 11 12  2  0  0  0  0
M  END
>  <CHROM.1>
-161.69572131,-167.23417412,-49.96487943,11.17939905,12.38842449,147.14672761
1.81987539,0.89097989,-0.00832169

>  <Name>
ligand

>  <RI>
0

>  <Rbt.Current_Directory>
/home/itssahil/PROJECTS/Mol_Feturizer/New_Systems/rnas/4NYA

>  <Rbt.Executable>
rbdock ($Id: //depot/dev/client3/rdock/2013.1/src/exe/rbdock.cxx#4 $)

>  <Rbt.Library>
libRbt.so (2013.1, Build901 2013/11/27)

>  <Rbt.Parameter_File>
/export/apps/rDock/src/rDock_2013.1_src/data/scripts/dock_solv.prm

>  <Rbt.Receptor>
prm/pocket_docking_7.prm

>  <SCORE>
-13.2184

>  <SCORE.INTER>
-12.6101

>  <SCORE.INTER.CONST>
1

>  <SCORE.INTER.POLAR>
0

>  <SCORE.INTER.ROT>
3

>  <SCORE.INTER.SOLV>
14.8038

>  <SCORE.INTER.VDW>
-18.9413

>  <SCORE.INTER.norm>
-1.05084

>  <SCORE.INTRA>
-0.60831

>  <SCORE.INTRA.DIHEDRAL>
-0.791524

>  <SCORE.INTRA.DIHEDRAL.0>
2.1382

>  <SCORE.INTRA.POLAR>
0

>  <SCORE.INTRA.POLAR.0>
0

>  <SCORE.INTRA.REPUL>
0

>  <SCORE.INTRA.REPUL.0>
0

>  <SCORE.INTRA.SOLV>
-1.51934

>  <SCORE.INTRA.SOLV.lig_0>
-59.6513

>  <SCORE.INTRA.VDW>
0.547122

>  <SCORE.INTRA.VDW.0>
-0.569808

>  <SCORE.INTRA.norm>
-0.0506925

>  <SCORE.RESTR>
0

>  <SCORE.RESTR.CAVITY>
0

>  <SCORE.RESTR.norm>
0

>  <SCORE.SYSTEM>
0

>  <SCORE.SYSTEM.CONST>
0

>  <SCORE.SYSTEM.DIHEDRAL>
0

>  <SCORE.SYSTEM.SOLV>
0

>  <SCORE.SYSTEM.norm>
0

>  <SCORE.heavy>
12

>  <SCORE.norm>
-1.10153

>  <RMSD>
3.057

$$$$
ligand
 OpenBabel11021811503D
libRbt.so/2013.1/901 2013/11/27
 12 12  0  0  0  0  0  0  0  0999 V2000
   10.6563   13.6431  147.9047 C   0  0  0  0  0  0  0  0  0  0  0  0
   12.3644    8.8153  145.8697 C   0  0  0  0  0  0  0  0  0  0  0  0
    9.8169   11.2843  148.9459 N   0  0  0  0  0  0  0  0  0  0  0  0
   10.8167   14.7422  146.9410 N   0  0  0  0  0  0  0  0  0  0  0  0
   10.7442   15.7854  147.3523 N   0  0  0  0  0  0  0  0  0  0  0  0
   10.6660   16.8253  147.7657 N   0  0  0  0  0  0  0  0  0  0  0  0
   12.3656   11.1677  145.8173 N   0  0  0  0  0  0  0  0  0  0  0  0
   11.9331   10.0316  146.3849 C   0  0  0  0  0  0  0  0  0  0  0  0
   11.0366   10.0618  147.3812 N   0  0  0  0  0  0  0  0  0  0  0  0
   10.5524   11.2239  147.8398 C   0  0  0  0  0  0  0  0  0  0  0  0
   10.9595   12.4347  147.2887 C   0  0  0  0  0  0  0  0  0  0  0  0
   11.8799   12.4060  146.2503 C   0  0  0  0  0  0  0  0  0  0  0  0
  1 11  1  0  0  0  0
  1  4  1  0  0  0  0
  2  8  1  0  0  0  0
  3 10  1  0  0  0  0
  4  5  1  0  0  0  0
  5  6  1  0  0  0  0
  7  8  2  0  0  0  0
  7 12  1  0  0  0  0
  8  9  1  0  0  0  0
  9 10  2  0  0  0  0
 10 11  1  0  0  0  0
 11 12  2  0  0  0  0
M  END
>  <CHROM.1>
-162.39058666,-171.52781026,-52.25765214,11.14797452,12.38776522,147.14719777
1.86481062,0.89817696,-0.06422743

>  <Name>
ligand

>  <RI>
0

>  <Rbt.Current_Directory>
/home/itssahil/PROJECTS/Mol_Feturizer/New_Systems/rnas/4NYA

>  <Rbt.Executable>
rbdock ($Id: //depot/dev/client3/rdock/2013.1/src/exe/rbdock.cxx#4 $)

>  <Rbt.Library>
libRbt.so (2013.1, Build901 2013/11/27)

>  <Rbt.Parameter_File>
/export/apps/rDock/src/rDock_2013.1_src/data/scripts/dock_solv.prm

>  <Rbt.Receptor>
prm/pocket_docking_7.prm

>  <SCORE>
-13.2569

>  <SCORE.INTER>
-12.6196

>  <SCORE.INTER.CONST>
1

>  <SCORE.INTER.POLAR>
0

>  <SCORE.INTER.ROT>
3

>  <SCORE.INTER.SOLV>
15.1629

>  <SCORE.INTER.VDW>
-19.0674

>  <SCORE.INTER.norm>
-1.05163

>  <SCORE.INTRA>
-0.637269

>  <SCORE.INTRA.DIHEDRAL>
-0.867462

>  <SCORE.INTRA.DIHEDRAL.0>
2.1382

>  <SCORE.INTRA.POLAR>
0

>  <SCORE.INTRA.POLAR.0>
0

>  <SCORE.INTRA.REPUL>
0

>  <SCORE.INTRA.REPUL.0>
0

>  <SCORE.INTRA.SOLV>
-1.53347

>  <SCORE.INTRA.SOLV.lig_0>
-59.6513

>  <SCORE.INTRA.VDW>
0.563197

>  <SCORE.INTRA.VDW.0>
-0.569808

>  <SCORE.INTRA.norm>
-0.0531058

>  <SCORE.RESTR>
0

>  <SCORE.RESTR.CAVITY>
0

>  <SCORE.RESTR.norm>
0

>  <SCORE.SYSTEM>
0

>  <SCORE.SYSTEM.CONST>
0

>  <SCORE.SYSTEM.DIHEDRAL>
0

>  <SCORE.SYSTEM.SOLV>
0

>  <SCORE.SYSTEM.norm>
0

>  <SCORE.heavy>
12

>  <SCORE.norm>
-1.10474

>  <RMSD>
3.059

$$$$
ligand
 OpenBabel11021811503D
libRbt.so/2013.1/901 2013/11/27
 12 12  0  0  0  0  0  0  0  0999 V2000
   10.6569   13.6771  147.9079 C   0  0  0  0  0  0  0  0  0  0  0  0
   12.3478    8.8508  145.8552 C   0  0  0  0  0  0  0  0  0  0  0  0
    9.8106   11.3174  148.9418 N   0  0  0  0  0  0  0  0  0  0  0  0
   10.8316   14.7800  146.9512 N   0  0  0  0  0  0  0  0  0  0  0  0
   10.7682   15.8215  147.3683 N   0  0  0  0  0  0  0  0  0  0  0  0
   10.6985   16.8600  147.7868 N   0  0  0  0  0  0  0  0  0  0  0  0
   12.3567   11.2033  145.8109 N   0  0  0  0  0  0  0  0  0  0  0  0
   11.9208   10.0666  146.3749 C   0  0  0  0  0  0  0  0  0  0  0  0
   11.0251   10.0964  147.3720 N   0  0  0  0  0  0  0  0  0  0  0  0
   10.5451   11.2584  147.8348 C   0  0  0  0  0  0  0  0  0  0  0  0
   10.9557   12.4699  147.2876 C   0  0  0  0  0  0  0  0  0  0  0  0
   11.8753   12.4417  146.2485 C   0  0  0  0  0  0  0  0  0  0  0  0
  1 11  1  0  0  0  0
  1  4  1  0  0  0  0
  2  8  1  0  0  0  0
  3 10  1  0  0  0  0
  4  5  1  0  0  0  0
  5  6  1  0  0  0  0
  7  8  2  0  0  0  0
  7 12  1  0  0  0  0
  8  9  1  0  0  0  0
  9 10  2  0  0  0  0
 10 11  1  0  0  0  0
 11 12  2  0  0  0  0
M  END
>  <CHROM.1>
-162.88691501,-171.27340028,-59.77150026,11.14827608,12.42292897,147.14719707
1.85491436,0.89835900,-0.05215936

>  <Name>
ligand

>  <RI>
0

>  <Rbt.Current_Directory>
/home/itssahil/PROJECTS/Mol_Feturizer/New_Systems/rnas/4NYA

>  <Rbt.Executable>
rbdock ($Id: //depot/dev/client3/rdock/2013.1/src/exe/rbdock.cxx#4 $)

>  <Rbt.Library>
libRbt.so (2013.1, Build901 2013/11/27)

>  <Rbt.Parameter_File>
/export/apps/rDock/src/rDock_2013.1_src/data/scripts/dock_solv.prm

>  <Rbt.Receptor>
prm/pocket_docking_8.prm

>  <SCORE>
-13.2162

>  <SCORE.INTER>
-12.5833

>  <SCORE.INTER.CONST>
1

>  <SCORE.INTER.POLAR>
0

>  <SCORE.INTER.ROT>
3

>  <SCORE.INTER.SOLV>
15.0506

>  <SCORE.INTER.VDW>
-19.0057

>  <SCORE.INTER.norm>
-1.04861

>  <SCORE.INTRA>
-0.632867

>  <SCORE.INTRA.DIHEDRAL>
-0.875591

>  <SCORE.INTRA.DIHEDRAL.0>
2.1382

>  <SCORE.INTRA.POLAR>
0

>  <SCORE.INTRA.POLAR.0>
0

>  <SCORE.INTRA.REPUL>
0

>  <SCORE.INTRA.REPUL.0>
0

>  <SCORE.INTRA.SOLV>
-1.53495

>  <SCORE.INTRA.SOLV.lig_0>
-59.6513

>  <SCORE.INTRA.VDW>
0.572401

>  <SCORE.INTRA.VDW.0>
-0.569808

>  <SCORE.INTRA.norm>
-0.0527389

>  <SCORE.RESTR>
0

>  <SCORE.RESTR.CAVITY>
0

>  <SCORE.RESTR.norm>
0

>  <SCORE.SYSTEM>
0

>  <SCORE.SYSTEM.CONST>
0

>  <SCORE.SYSTEM.DIHEDRAL>
0

>  <SCORE.SYSTEM.SOLV>
0

>  <SCORE.SYSTEM.norm>
0

>  <SCORE.heavy>
12

>  <SCORE.norm>
-1.10135

>  <RMSD>
3.063

$$$$
ligand
 OpenBabel11021811503D
libRbt.so/2013.1/901 2013/11/27
 12 12  0  0  0  0  0  0  0  0999 V2000
   10.2062   15.1942  148.0616 C   0  0  0  0  0  0  0  0  0  0  0  0
   11.9715   10.3811  146.0407 C   0  0  0  0  0  0  0  0  0  0  0  0
    9.5183   12.8337  149.2052 N   0  0  0  0  0  0  0  0  0  0  0  0
   11.2920   15.5843  148.9732 N   0  0  0  0  0  0  0  0  0  0  0  0
   11.1685   16.5628  149.5118 N   0  0  0  0  0  0  0  0  0  0  0  0
   11.0513   17.5387  150.0525 N   0  0  0  0  0  0  0  0  0  0  0  0
   11.8817   12.7299  145.9339 N   0  0  0  0  0  0  0  0  0  0  0  0
   11.5260   11.5937  146.5524 C   0  0  0  0  0  0  0  0  0  0  0  0
   10.6889   11.6168  147.5994 N   0  0  0  0  0  0  0  0  0  0  0  0
   10.1893   12.7719  148.0589 C   0  0  0  0  0  0  0  0  0  0  0  0
   10.5178   13.9823  147.4568 C   0  0  0  0  0  0  0  0  0  0  0  0
   11.3761   13.9605  146.3664 C   0  0  0  0  0  0  0  0  0  0  0  0
  1 11  1  0  0  0  0
  1  4  1  0  0  0  0
  2  8  1  0  0  0  0
  3 10  1  0  0  0  0
  4  5  1  0  0  0  0
  5  6  1  0  0  0  0
  7  8  2  0  0  0  0
  7 12  1  0  0  0  0
  8  9  1  0  0  0  0
  9 10  2  0  0  0  0
 10 11  1  0  0  0  0
 11 12  2  0  0  0  0
M  END
>  <CHROM.1>
87.38422239,178.84864576,-178.70052467,10.95771109,13.74029354,147.84153813
-1.71167271,-0.89291349,-2.72801836

>  <Name>
ligand

>  <RI>
0

>  <Rbt.Current_Directory>
/home/itssahil/PROJECTS/Mol_Feturizer/New_Systems/rnas/4NYA

>  <Rbt.Executable>
rbdock ($Id: //depot/dev/client3/rdock/2013.1/src/exe/rbdock.cxx#4 $)

>  <Rbt.Library>
libRbt.so (2013.1, Build901 2013/11/27)

>  <Rbt.Parameter_File>
/export/apps/rDock/src/rDock_2013.1_src/data/scripts/dock_solv.prm

>  <Rbt.Receptor>
prm/pocket_docking_7.prm

>  <SCORE>
-12.1496

>  <SCORE.INTER>
-11.5674

>  <SCORE.INTER.CONST>
1

>  <SCORE.INTER.POLAR>
0

>  <SCORE.INTER.ROT>
3

>  <SCORE.INTER.SOLV>
8.44852

>  <SCORE.INTER.VDW>
-16.1278

>  <SCORE.INTER.norm>
-0.963952

>  <SCORE.INTRA>
-0.582188

>  <SCORE.INTRA.DIHEDRAL>
-0.961647

>  <SCORE.INTRA.DIHEDRAL.0>
2.1382

>  <SCORE.INTRA.POLAR>
0

>  <SCORE.INTRA.POLAR.0>
0

>  <SCORE.INTRA.REPUL>
0

>  <SCORE.INTRA.REPUL.0>
0

>  <SCORE.INTRA.SOLV>
-0.037489

>  <SCORE.INTRA.SOLV.lig_0>
-59.6513

>  <SCORE.INTRA.VDW>
-0.0826201

>  <SCORE.INTRA.VDW.0>
-0.569808

>  <SCORE.INTRA.norm>
-0.0485157

>  <SCORE.RESTR>
0

>  <SCORE.RESTR.CAVITY>
0

>  <SCORE.RESTR.norm>
0

>  <SCORE.SYSTEM>
0

>  <SCORE.SYSTEM.CONST>
0

>  <SCORE.SYSTEM.DIHEDRAL>
0

>  <SCORE.SYSTEM.SOLV>
0

>  <SCORE.SYSTEM.norm>
0

>  <SCORE.heavy>
12

>  <SCORE.norm>
-1.01247

>  <RMSD>
3.075

$$$$
ligand
 OpenBabel11021811503D
libRbt.so/2013.1/901 2013/11/27
 12 12  0  0  0  0  0  0  0  0999 V2000
   10.3168   15.3061  147.9663 C   0  0  0  0  0  0  0  0  0  0  0  0
   11.9249   10.3728  146.1106 C   0  0  0  0  0  0  0  0  0  0  0  0
    9.5307   13.0080  149.1721 N   0  0  0  0  0  0  0  0  0  0  0  0
   11.3771   15.6571  148.9227 N   0  0  0  0  0  0  0  0  0  0  0  0
   11.2759   16.6475  149.4438 N   0  0  0  0  0  0  0  0  0  0  0  0
   11.1807   17.6353  149.9670 N   0  0  0  0  0  0  0  0  0  0  0  0
   11.9225   12.7191  145.9327 N   0  0  0  0  0  0  0  0  0  0  0  0
   11.5189   11.6158  146.5807 C   0  0  0  0  0  0  0  0  0  0  0  0
   10.6725   11.7011  147.6169 N   0  0  0  0  0  0  0  0  0  0  0  0
   10.2109   12.8871  148.0359 C   0  0  0  0  0  0  0  0  0  0  0  0
   10.5898   14.0659  147.4016 C   0  0  0  0  0  0  0  0  0  0  0  0
   11.4580   13.9798  146.3223 C   0  0  0  0  0  0  0  0  0  0  0  0
  1 11  1  0  0  0  0
  1  4  1  0  0  0  0
  2  8  1  0  0  0  0
  3 10  1  0  0  0  0
  4  5  1  0  0  0  0
  5  6  1  0  0  0  0
  7  8  2  0  0  0  0
  7 12  1  0  0  0  0
  8  9  1  0  0  0  0
  9 10  2  0  0  0  0
 10 11  1  0  0  0  0
 11 12  2  0  0  0  0
M  END
>  <CHROM.1>
84.91221425,179.51263244,-176.73241727,11.00671971,13.81078281,147.81359191
-1.67858235,-0.87876991,-2.72108634

>  <Name>
ligand

>  <RI>
0

>  <Rbt.Current_Directory>
/home/itssahil/PROJECTS/Mol_Feturizer/New_Systems/rnas/4NYA

>  <Rbt.Executable>
rbdock ($Id: //depot/dev/client3/rdock/2013.1/src/exe/rbdock.cxx#4 $)

>  <Rbt.Library>
libRbt.so (2013.1, Build901 2013/11/27)

>  <Rbt.Parameter_File>
/export/apps/rDock/src/rDock_2013.1_src/data/scripts/dock_solv.prm

>  <Rbt.Receptor>
prm/pocket_docking_8.prm

>  <SCORE>
-12.03

>  <SCORE.INTER>
-11.4979

>  <SCORE.INTER.CONST>
1

>  <SCORE.INTER.POLAR>
0

>  <SCORE.INTER.ROT>
3

>  <SCORE.INTER.SOLV>
8.92059

>  <SCORE.INTER.VDW>
-16.2388

>  <SCORE.INTER.norm>
-0.958158

>  <SCORE.INTRA>
-0.532104

>  <SCORE.INTRA.DIHEDRAL>
-0.96726

>  <SCORE.INTRA.DIHEDRAL.0>
2.1382

>  <SCORE.INTRA.POLAR>
0

>  <SCORE.INTRA.POLAR.0>
0

>  <SCORE.INTRA.REPUL>
0

>  <SCORE.INTRA.REPUL.0>
0

>  <SCORE.INTRA.SOLV>
0.0822251

>  <SCORE.INTRA.SOLV.lig_0>
-59.6513

>  <SCORE.INTRA.VDW>
-0.0895861

>  <SCORE.INTRA.VDW.0>
-0.569808

>  <SCORE.INTRA.norm>
-0.044342

>  <SCORE.RESTR>
0

>  <SCORE.RESTR.CAVITY>
0

>  <SCORE.RESTR.norm>
0

>  <SCORE.SYSTEM>
0

>  <SCORE.SYSTEM.CONST>
0

>  <SCORE.SYSTEM.DIHEDRAL>
0

>  <SCORE.SYSTEM.SOLV>
0

>  <SCORE.SYSTEM.norm>
0

>  <SCORE.heavy>
12

>  <SCORE.norm>
-1.0025

>  <RMSD>
3.139

$$$$
ligand
 OpenBabel11021811503D
libRbt.so/2013.1/901 2013/11/27
 12 12  0  0  0  0  0  0  0  0999 V2000
   10.3529   15.4720  147.7785 C   0  0  0  0  0  0  0  0  0  0  0  0
   11.7950   10.3910  146.2068 C   0  0  0  0  0  0  0  0  0  0  0  0
    9.5266   13.2753  149.1366 N   0  0  0  0  0  0  0  0  0  0  0  0
   11.4849   15.8884  148.6196 N   0  0  0  0  0  0  0  0  0  0  0  0
   11.2886   16.7184  149.3511 N   0  0  0  0  0  0  0  0  0  0  0  0
   11.0991   17.5471  150.0832 N   0  0  0  0  0  0  0  0  0  0  0  0
   11.8526   12.7210  145.8839 N   0  0  0  0  0  0  0  0  0  0  0  0
   11.4309   11.6713  146.6053 C   0  0  0  0  0  0  0  0  0  0  0  0
   10.6054   11.8438  147.6474 N   0  0  0  0  0  0  0  0  0  0  0  0
   10.1833   13.0657  147.9995 C   0  0  0  0  0  0  0  0  0  0  0  0
   10.5826   14.1923  147.2875 C   0  0  0  0  0  0  0  0  0  0  0  0
   11.4292   14.0158  146.2019 C   0  0  0  0  0  0  0  0  0  0  0  0
  1 11  1  0  0  0  0
  1  4  1  0  0  0  0
  2  8  1  0  0  0  0
  3 10  1  0  0  0  0
  4  5  1  0  0  0  0
  5  6  1  0  0  0  0
  7  8  2  0  0  0  0
  7 12  1  0  0  0  0
  8  9  1  0  0  0  0
  9 10  2  0  0  0  0
 10 11  1  0  0  0  0
 11 12  2  0  0  0  0
M  END
>  <CHROM.1>
88.85304040,-159.45365851,-175.73327881,10.97755824,13.91087860,147.75887473
-1.67016360,-0.92218346,-2.72454002

>  <Name>
ligand

>  <RI>
0

>  <Rbt.Current_Directory>
/home/itssahil/PROJECTS/Mol_Feturizer/New_Systems/rnas/4NYA

>  <Rbt.Executable>
rbdock ($Id: //depot/dev/client3/rdock/2013.1/src/exe/rbdock.cxx#4 $)

>  <Rbt.Library>
libRbt.so (2013.1, Build901 2013/11/27)

>  <Rbt.Parameter_File>
/export/apps/rDock/src/rDock_2013.1_src/data/scripts/dock_solv.prm

>  <Rbt.Receptor>
prm/pocket_docking_6.prm

>  <SCORE>
-12.0312

>  <SCORE.INTER>
-11.725

>  <SCORE.INTER.CONST>
1

>  <SCORE.INTER.POLAR>
0

>  <SCORE.INTER.ROT>
3

>  <SCORE.INTER.SOLV>
9.42866

>  <SCORE.INTER.VDW>
-16.5595

>  <SCORE.INTER.norm>
-0.977083

>  <SCORE.INTRA>
-0.306174

>  <SCORE.INTRA.DIHEDRAL>
-0.634966

>  <SCORE.INTRA.DIHEDRAL.0>
2.1382

>  <SCORE.INTRA.POLAR>
0

>  <SCORE.INTRA.POLAR.0>
0

>  <SCORE.INTRA.REPUL>
0

>  <SCORE.INTRA.REPUL.0>
0

>  <SCORE.INTRA.SOLV>
0.245323

>  <SCORE.INTRA.SOLV.lig_0>
-59.6513

>  <SCORE.INTRA.VDW>
-0.111353

>  <SCORE.INTRA.VDW.0>
-0.569808

>  <SCORE.INTRA.norm>
-0.0255145

>  <SCORE.RESTR>
0

>  <SCORE.RESTR.CAVITY>
0

>  <SCORE.RESTR.norm>
0

>  <SCORE.SYSTEM>
0

>  <SCORE.SYSTEM.CONST>
0

>  <SCORE.SYSTEM.DIHEDRAL>
0

>  <SCORE.SYSTEM.SOLV>
0

>  <SCORE.SYSTEM.norm>
0

>  <SCORE.heavy>
12

>  <SCORE.norm>
-1.0026

>  <RMSD>
3.187

$$$$
ligand
 OpenBabel11021811503D
libRbt.so/2013.1/901 2013/11/27
 12 12  0  0  0  0  0  0  0  0999 V2000
   10.3192   15.5684  147.8279 C   0  0  0  0  0  0  0  0  0  0  0  0
   11.8723   10.5348  146.2101 C   0  0  0  0  0  0  0  0  0  0  0  0
    9.5212   13.3402  149.1513 N   0  0  0  0  0  0  0  0  0  0  0  0
   11.5205   16.0872  148.4987 N   0  0  0  0  0  0  0  0  0  0  0  0
   11.3566   16.8704  149.2876 N   0  0  0  0  0  0  0  0  0  0  0  0
   11.1897   17.6477  150.0790 N   0  0  0  0  0  0  0  0  0  0  0  0
   11.8890   12.8692  145.9157 N   0  0  0  0  0  0  0  0  0  0  0  0
   11.4802   11.8031  146.6203 C   0  0  0  0  0  0  0  0  0  0  0  0
   10.6413   11.9474  147.6561 N   0  0  0  0  0  0  0  0  0  0  0  0
   10.1928   13.1568  148.0184 C   0  0  0  0  0  0  0  0  0  0  0  0
   10.5778   14.2992  147.3240 C   0  0  0  0  0  0  0  0  0  0  0  0
   11.4381   14.1518  146.2450 C   0  0  0  0  0  0  0  0  0  0  0  0
  1 11  1  0  0  0  0
  1  4  1  0  0  0  0
  2  8  1  0  0  0  0
  3 10  1  0  0  0  0
  4  5  1  0  0  0  0
  5  6  1  0  0  0  0
  7  8  2  0  0  0  0
  7 12  1  0  0  0  0
  8  9  1  0  0  0  0
  9 10  2  0  0  0  0
 10 11  1  0  0  0  0
 11 12  2  0  0  0  0
M  END
>  <CHROM.1>
98.16262945,-155.73271409,65.65149664,11.00921936,14.03416466,147.76036343
-1.66068220,-0.89123323,-2.72723107

>  <Name>
ligand

>  <RI>
0

>  <Rbt.Current_Directory>
/home/itssahil/PROJECTS/Mol_Feturizer/New_Systems/rnas/4NYA

>  <Rbt.Executable>
rbdock ($Id: //depot/dev/client3/rdock/2013.1/src/exe/rbdock.cxx#4 $)

>  <Rbt.Library>
libRbt.so (2013.1, Build901 2013/11/27)

>  <Rbt.Parameter_File>
/export/apps/rDock/src/rDock_2013.1_src/data/scripts/dock_solv.prm

>  <Rbt.Receptor>
prm/pocket_docking_8.prm

>  <SCORE>
-12.0909

>  <SCORE.INTER>
-11.7853

>  <SCORE.INTER.CONST>
1

>  <SCORE.INTER.POLAR>
0

>  <SCORE.INTER.ROT>
3

>  <SCORE.INTER.SOLV>
10.0056

>  <SCORE.INTER.VDW>
-16.7921

>  <SCORE.INTER.norm>
-0.982108

>  <SCORE.INTRA>
-0.305608

>  <SCORE.INTRA.DIHEDRAL>
-0.406362

>  <SCORE.INTRA.DIHEDRAL.0>
2.1382

>  <SCORE.INTRA.POLAR>
0

>  <SCORE.INTRA.POLAR.0>
0

>  <SCORE.INTRA.REPUL>
0

>  <SCORE.INTRA.REPUL.0>
0

>  <SCORE.INTRA.SOLV>
-0.10583

>  <SCORE.INTRA.SOLV.lig_0>
-59.6513

>  <SCORE.INTRA.VDW>
-0.0495119

>  <SCORE.INTRA.VDW.0>
-0.569808

>  <SCORE.INTRA.norm>
-0.0254673

>  <SCORE.RESTR>
0

>  <SCORE.RESTR.CAVITY>
0

>  <SCORE.RESTR.norm>
0

>  <SCORE.SYSTEM>
0

>  <SCORE.SYSTEM.CONST>
0

>  <SCORE.SYSTEM.DIHEDRAL>
0

>  <SCORE.SYSTEM.SOLV>
0

>  <SCORE.SYSTEM.norm>
0

>  <SCORE.heavy>
12

>  <SCORE.norm>
-1.00758

>  <RMSD>
3.281

$$$$
ligand
 OpenBabel11021811503D
libRbt.so/2013.1/901 2013/11/27
 12 12  0  0  0  0  0  0  0  0999 V2000
   10.3187   15.5885  147.8069 C   0  0  0  0  0  0  0  0  0  0  0  0
   11.8760   10.5513  146.2043 C   0  0  0  0  0  0  0  0  0  0  0  0
    9.5820   13.3686  149.1790 N   0  0  0  0  0  0  0  0  0  0  0  0
   11.5218   16.1113  148.4712 N   0  0  0  0  0  0  0  0  0  0  0  0
   11.3576   16.8723  149.2816 N   0  0  0  0  0  0  0  0  0  0  0  0
   11.1903   17.6359  150.0861 N   0  0  0  0  0  0  0  0  0  0  0  0
   11.8604   12.8820  145.8820 N   0  0  0  0  0  0  0  0  0  0  0  0
   11.4829   11.8206  146.6107 C   0  0  0  0  0  0  0  0  0  0  0  0
   10.6728   11.9691  147.6685 N   0  0  0  0  0  0  0  0  0  0  0  0
   10.2226   13.1783  148.0294 C   0  0  0  0  0  0  0  0  0  0  0  0
   10.5757   14.3160  147.3107 C   0  0  0  0  0  0  0  0  0  0  0  0
   11.4060   14.1640  146.2091 C   0  0  0  0  0  0  0  0  0  0  0  0
  1 11  1  0  0  0  0
  1  4  1  0  0  0  0
  2  8  1  0  0  0  0
  3 10  1  0  0  0  0
  4  5  1  0  0  0  0
  5  6  1  0  0  0  0
  7  8  2  0  0  0  0
  7 12  1  0  0  0  0
  8  9  1  0  0  0  0
  9 10  2  0  0  0  0
 10 11  1  0  0  0  0
 11 12  2  0  0  0  0
M  END
>  <CHROM.1>
96.51089757,-153.56282880,-57.62153587,11.01518525,14.04921921,147.75268785
-1.66869057,-0.93389116,-2.73279003

>  <Name>
ligand

>  <RI>
0

>  <Rbt.Current_Directory>
/home/itssahil/PROJECTS/Mol_Feturizer/New_Systems/rnas/4NYA

>  <Rbt.Executable>
rbdock ($Id: //depot/dev/client3/rdock/2013.1/src/exe/rbdock.cxx#4 $)

>  <Rbt.Library>
libRbt.so (2013.1, Build901 2013/11/27)

>  <Rbt.Parameter_File>
/export/apps/rDock/src/rDock_2013.1_src/data/scripts/dock_solv.prm

>  <Rbt.Receptor>
prm/pocket_docking_6.prm

>  <SCORE>
-12.0593

>  <SCORE.INTER>
-11.7961

>  <SCORE.INTER.CONST>
1

>  <SCORE.INTER.POLAR>
0

>  <SCORE.INTER.ROT>
3

>  <SCORE.INTER.SOLV>
9.9619

>  <SCORE.INTER.VDW>
-16.7847

>  <SCORE.INTER.norm>
-0.98301

>  <SCORE.INTRA>
-0.263152

>  <SCORE.INTRA.DIHEDRAL>
-0.37574

>  <SCORE.INTRA.DIHEDRAL.0>
2.1382

>  <SCORE.INTRA.POLAR>
0

>  <SCORE.INTRA.POLAR.0>
0

>  <SCORE.INTRA.REPUL>
0

>  <SCORE.INTRA.REPUL.0>
0

>  <SCORE.INTRA.SOLV>
0.00702381

>  <SCORE.INTRA.SOLV.lig_0>
-59.6513

>  <SCORE.INTRA.VDW>
-0.078794

>  <SCORE.INTRA.VDW.0>
-0.569808

>  <SCORE.INTRA.norm>
-0.0219294

>  <SCORE.RESTR>
0

>  <SCORE.RESTR.CAVITY>
0

>  <SCORE.RESTR.norm>
0

>  <SCORE.SYSTEM>
0

>  <SCORE.SYSTEM.CONST>
0

>  <SCORE.SYSTEM.DIHEDRAL>
0

>  <SCORE.SYSTEM.SOLV>
0

>  <SCORE.SYSTEM.norm>
0

>  <SCORE.heavy>
12

>  <SCORE.norm>
-1.00494

>  <RMSD>
3.288

$$$$
ligand
 OpenBabel11021811503D
libRbt.so/2013.1/901 2013/11/27
 12 12  0  0  0  0  0  0  0  0999 V2000
   10.3522   15.6399  147.9015 C   0  0  0  0  0  0  0  0  0  0  0  0
   11.8427   10.6115  146.2105 C   0  0  0  0  0  0  0  0  0  0  0  0
    9.5838   13.4062  149.2330 N   0  0  0  0  0  0  0  0  0  0  0  0
   11.6219   16.2485  148.3255 N   0  0  0  0  0  0  0  0  0  0  0  0
   11.6294   16.7438  149.3341 N   0  0  0  0  0  0  0  0  0  0  0  0
   11.6353   17.2323  150.3440 N   0  0  0  0  0  0  0  0  0  0  0  0
   11.8591   12.9476  145.9299 N   0  0  0  0  0  0  0  0  0  0  0  0
   11.4664   11.8785  146.6392 C   0  0  0  0  0  0  0  0  0  0  0  0
   10.6572   12.0191  147.6987 N   0  0  0  0  0  0  0  0  0  0  0  0
   10.2230   13.2277  148.0808 C   0  0  0  0  0  0  0  0  0  0  0  0
   10.5924   14.3731  147.3828 C   0  0  0  0  0  0  0  0  0  0  0  0
   11.4219   14.2296  146.2794 C   0  0  0  0  0  0  0  0  0  0  0  0
  1 11  1  0  0  0  0
  1  4  1  0  0  0  0
  2  8  1  0  0  0  0
  3 10  1  0  0  0  0
  4  5  1  0  0  0  0
  5  6  1  0  0  0  0
  7  8  2  0  0  0  0
  7 12  1  0  0  0  0
  8  9  1  0  0  0  0
  9 10  2  0  0  0  0
 10 11  1  0  0  0  0
 11 12  2  0  0  0  0
M  END
>  <CHROM.1>
108.18979475,-134.02196676,61.21817530,11.08592143,14.05543686,147.80387414
-1.58694771,-0.92804427,-2.64156767

>  <Name>
ligand

>  <RI>
0

>  <Rbt.Current_Directory>
/home/itssahil/PROJECTS/Mol_Feturizer/New_Systems/rnas/4NYA

>  <Rbt.Executable>
rbdock ($Id: //depot/dev/client3/rdock/2013.1/src/exe/rbdock.cxx#4 $)

>  <Rbt.Library>
libRbt.so (2013.1, Build901 2013/11/27)

>  <Rbt.Parameter_File>
/export/apps/rDock/src/rDock_2013.1_src/data/scripts/dock_solv.prm

>  <Rbt.Receptor>
prm/pocket_docking_7.prm

>  <SCORE>
-12.0881

>  <SCORE.INTER>
-12.1889

>  <SCORE.INTER.CONST>
1

>  <SCORE.INTER.POLAR>
0

>  <SCORE.INTER.ROT>
3

>  <SCORE.INTER.SOLV>
8.89628

>  <SCORE.INTER.VDW>
-16.6914

>  <SCORE.INTER.norm>
-1.01574

>  <SCORE.INTRA>
0.100794

>  <SCORE.INTRA.DIHEDRAL>
0.432085

>  <SCORE.INTRA.DIHEDRAL.0>
2.1382

>  <SCORE.INTRA.POLAR>
0

>  <SCORE.INTRA.POLAR.0>
0

>  <SCORE.INTRA.REPUL>
0

>  <SCORE.INTRA.REPUL.0>
0

>  <SCORE.INTRA.SOLV>
-0.160588

>  <SCORE.INTRA.SOLV.lig_0>
-59.6513

>  <SCORE.INTRA.VDW>
-0.0349544

>  <SCORE.INTRA.VDW.0>
-0.569808

>  <SCORE.INTRA.norm>
0.00839948

>  <SCORE.RESTR>
0

>  <SCORE.RESTR.CAVITY>
0

>  <SCORE.RESTR.norm>
0

>  <SCORE.SYSTEM>
0

>  <SCORE.SYSTEM.CONST>
0

>  <SCORE.SYSTEM.DIHEDRAL>
0

>  <SCORE.SYSTEM.SOLV>
0

>  <SCORE.SYSTEM.norm>
0

>  <SCORE.heavy>
12

>  <SCORE.norm>
-1.00735

>  <RMSD>
3.292

$$$$
ligand
 OpenBabel11021811503D
libRbt.so/2013.1/901 2013/11/27
 12 12  0  0  0  0  0  0  0  0999 V2000
   10.3459   15.6717  147.8989 C   0  0  0  0  0  0  0  0  0  0  0  0
   11.8366   10.6417  146.2125 C   0  0  0  0  0  0  0  0  0  0  0  0
    9.6264   13.4426  149.2651 N   0  0  0  0  0  0  0  0  0  0  0  0
   11.6110   16.2628  148.3596 N   0  0  0  0  0  0  0  0  0  0  0  0
   11.5847   16.7996  149.3464 N   0  0  0  0  0  0  0  0  0  0  0  0
   11.5567   17.3296  150.3347 N   0  0  0  0  0  0  0  0  0  0  0  0
   11.8280   12.9756  145.9136 N   0  0  0  0  0  0  0  0  0  0  0  0
   11.4604   11.9091  146.6399 C   0  0  0  0  0  0  0  0  0  0  0  0
   10.6749   12.0518  147.7170 N   0  0  0  0  0  0  0  0  0  0  0  0
   10.2401   13.2600  148.0997 C   0  0  0  0  0  0  0  0  0  0  0  0
   10.5841   14.4027  147.3845 C   0  0  0  0  0  0  0  0  0  0  0  0
   11.3888   14.2569  146.2632 C   0  0  0  0  0  0  0  0  0  0  0  0
  1 11  1  0  0  0  0
  1  4  1  0  0  0  0
  2  8  1  0  0  0  0
  3 10  1  0  0  0  0
  4  5  1  0  0  0  0
  5  6  1  0  0  0  0
  7  8  2  0  0  0  0
  7 12  1  0  0  0  0
  8  9  1  0  0  0  0
  9 10  2  0  0  0  0
 10 11  1  0  0  0  0
 11 12  2  0  0  0  0
M  END
>  <CHROM.1>
104.96904640,-136.88930286,62.25028441,11.07341667,14.09294907,147.81038509
-1.60070973,-0.96164212,-2.65262352

>  <Name>
ligand

>  <RI>
0

>  <Rbt.Current_Directory>
/home/itssahil/PROJECTS/Mol_Feturizer/New_Systems/rnas/4NYA

>  <Rbt.Executable>
rbdock ($Id: //depot/dev/client3/rdock/2013.1/src/exe/rbdock.cxx#4 $)

>  <Rbt.Library>
libRbt.so (2013.1, Build901 2013/11/27)

>  <Rbt.Parameter_File>
/export/apps/rDock/src/rDock_2013.1_src/data/scripts/dock_solv.prm

>  <Rbt.Receptor>
prm/pocket_docking_8.prm

>  <SCORE>
-12.1097

>  <SCORE.INTER>
-12.1534

>  <SCORE.INTER.CONST>
1

>  <SCORE.INTER.POLAR>
0

>  <SCORE.INTER.ROT>
3

>  <SCORE.INTER.SOLV>
8.97554

>  <SCORE.INTER.VDW>
-16.6941

>  <SCORE.INTER.norm>
-1.01279

>  <SCORE.INTRA>
0.0437384

>  <SCORE.INTRA.DIHEDRAL>
0.288145

>  <SCORE.INTRA.DIHEDRAL.0>
2.1382

>  <SCORE.INTRA.POLAR>
0

>  <SCORE.INTRA.POLAR.0>
0

>  <SCORE.INTRA.REPUL>
0

>  <SCORE.INTRA.REPUL.0>
0

>  <SCORE.INTRA.SOLV>
-0.0770991

>  <SCORE.INTRA.SOLV.lig_0>
-59.6513

>  <SCORE.INTRA.VDW>
-0.0617845

>  <SCORE.INTRA.VDW.0>
-0.569808

>  <SCORE.INTRA.norm>
0.00364487

>  <SCORE.RESTR>
0

>  <SCORE.RESTR.CAVITY>
0

>  <SCORE.RESTR.norm>
0

>  <SCORE.SYSTEM>
0

>  <SCORE.SYSTEM.CONST>
0

>  <SCORE.SYSTEM.DIHEDRAL>
0

>  <SCORE.SYSTEM.SOLV>
0

>  <SCORE.SYSTEM.norm>
0

>  <SCORE.heavy>
12

>  <SCORE.norm>
-1.00914

>  <RMSD>
3.313

$$$$
ligand
 OpenBabel11021811503D
libRbt.so/2013.1/901 2013/11/27
 12 12  0  0  0  0  0  0  0  0999 V2000
   10.4095   15.7554  147.9554 C   0  0  0  0  0  0  0  0  0  0  0  0
   11.7688   10.7266  146.1584 C   0  0  0  0  0  0  0  0  0  0  0  0
    9.6613   13.5176  149.2916 N   0  0  0  0  0  0  0  0  0  0  0  0
   11.6943   16.3142  148.4021 N   0  0  0  0  0  0  0  0  0  0  0  0
   11.7067   16.7962  149.4171 N   0  0  0  0  0  0  0  0  0  0  0  0
   11.7256   17.2789  150.4295 N   0  0  0  0  0  0  0  0  0  0  0  0
   11.8061   13.0652  145.9014 N   0  0  0  0  0  0  0  0  0  0  0  0
   11.4257   11.9937  146.6137 C   0  0  0  0  0  0  0  0  0  0  0  0
   10.6584   12.1333  147.7041 N   0  0  0  0  0  0  0  0  0  0  0  0
   10.2549   13.3433  148.1145 C   0  0  0  0  0  0  0  0  0  0  0  0
   10.6133   14.4913  147.4151 C   0  0  0  0  0  0  0  0  0  0  0  0
   11.3993   14.3489  146.2801 C   0  0  0  0  0  0  0  0  0  0  0  0
  1 11  1  0  0  0  0
  1  4  1  0  0  0  0
  2  8  1  0  0  0  0
  3 10  1  0  0  0  0
  4  5  1  0  0  0  0
  5  6  1  0  0  0  0
  7  8  2  0  0  0  0
  7 12  1  0  0  0  0
  8  9  1  0  0  0  0
  9 10  2  0  0  0  0
 10 11  1  0  0  0  0
 11 12  2  0  0  0  0
M  END
>  <CHROM.1>
105.27060236,-134.40964499,-179.09191009,11.10632286,14.15529732,147.83115936
-1.55153509,-0.96759805,-2.58926161

>  <Name>
ligand

>  <RI>
0

>  <Rbt.Current_Directory>
/home/itssahil/PROJECTS/Mol_Feturizer/New_Systems/rnas/4NYA

>  <Rbt.Executable>
rbdock ($Id: //depot/dev/client3/rdock/2013.1/src/exe/rbdock.cxx#4 $)

>  <Rbt.Library>
libRbt.so (2013.1, Build901 2013/11/27)

>  <Rbt.Parameter_File>
/export/apps/rDock/src/rDock_2013.1_src/data/scripts/dock_solv.prm

>  <Rbt.Receptor>
prm/pocket_docking_6.prm

>  <SCORE>
-12.0225

>  <SCORE.INTER>
-12.1124

>  <SCORE.INTER.CONST>
1

>  <SCORE.INTER.POLAR>
0

>  <SCORE.INTER.ROT>
3

>  <SCORE.INTER.SOLV>
8.71753

>  <SCORE.INTER.VDW>
-16.5808

>  <SCORE.INTER.norm>
-1.00937

>  <SCORE.INTRA>
0.0899669

>  <SCORE.INTRA.DIHEDRAL>
0.35109

>  <SCORE.INTRA.DIHEDRAL.0>
2.1382

>  <SCORE.INTRA.POLAR>
0

>  <SCORE.INTRA.POLAR.0>
0

>  <SCORE.INTRA.REPUL>
0

>  <SCORE.INTRA.REPUL.0>
0

>  <SCORE.INTRA.SOLV>
-0.0390905

>  <SCORE.INTRA.SOLV.lig_0>
-59.6513

>  <SCORE.INTRA.VDW>
-0.066033

>  <SCORE.INTRA.VDW.0>
-0.569808

>  <SCORE.INTRA.norm>
0.00749724

>  <SCORE.RESTR>
0

>  <SCORE.RESTR.CAVITY>
0

>  <SCORE.RESTR.norm>
0

>  <SCORE.SYSTEM>
0

>  <SCORE.SYSTEM.CONST>
0

>  <SCORE.SYSTEM.DIHEDRAL>
0

>  <SCORE.SYSTEM.SOLV>
0

>  <SCORE.SYSTEM.norm>
0

>  <SCORE.heavy>
12

>  <SCORE.norm>
-1.00187

>  <RMSD>
3.358

$$$$
ligand
 OpenBabel11021811503D
libRbt.so/2013.1/901 2013/11/27
 12 12  0  0  0  0  0  0  0  0999 V2000
   10.3649   15.7450  147.9094 C   0  0  0  0  0  0  0  0  0  0  0  0
   11.7769   10.6928  146.2216 C   0  0  0  0  0  0  0  0  0  0  0  0
    9.5929   13.5260  149.2633 N   0  0  0  0  0  0  0  0  0  0  0  0
   11.6298   16.2959  148.4180 N   0  0  0  0  0  0  0  0  0  0  0  0
   11.5590   16.9766  149.3092 N   0  0  0  0  0  0  0  0  0  0  0  0
   11.4856   17.6511  150.2025 N   0  0  0  0  0  0  0  0  0  0  0  0
   11.8138   13.0273  145.9292 N   0  0  0  0  0  0  0  0  0  0  0  0
   11.4205   11.9659  146.6495 C   0  0  0  0  0  0  0  0  0  0  0  0
   10.6287   12.1202  147.7202 N   0  0  0  0  0  0  0  0  0  0  0  0
   10.2130   13.3351  148.1026 C   0  0  0  0  0  0  0  0  0  0  0  0
   10.5840   14.4732  147.3936 C   0  0  0  0  0  0  0  0  0  0  0  0
   11.3954   14.3155  146.2787 C   0  0  0  0  0  0  0  0  0  0  0  0
  1 11  1  0  0  0  0
  1  4  1  0  0  0  0
  2  8  1  0  0  0  0
  3 10  1  0  0  0  0
  4  5  1  0  0  0  0
  5  6  1  0  0  0  0
  7  8  2  0  0  0  0
  7 12  1  0  0  0  0
  8  9  1  0  0  0  0
  9 10  2  0  0  0  0
 10 11  1  0  0  0  0
 11 12  2  0  0  0  0
M  END
>  <CHROM.1>
103.33605973,-147.24471719,61.63823470,11.05004152,14.18745125,147.80674344
-1.59019835,-0.92474689,-2.66483657

>  <Name>
ligand

>  <RI>
0

>  <Rbt.Current_Directory>
/home/itssahil/PROJECTS/Mol_Feturizer/New_Systems/rnas/4NYA

>  <Rbt.Executable>
rbdock ($Id: //depot/dev/client3/rdock/2013.1/src/exe/rbdock.cxx#4 $)

>  <Rbt.Library>
libRbt.so (2013.1, Build901 2013/11/27)

>  <Rbt.Parameter_File>
/export/apps/rDock/src/rDock_2013.1_src/data/scripts/dock_solv.prm

>  <Rbt.Receptor>
prm/pocket_docking_7.prm

>  <SCORE>
-12.1536

>  <SCORE.INTER>
-11.9987

>  <SCORE.INTER.CONST>
1

>  <SCORE.INTER.POLAR>
0

>  <SCORE.INTER.ROT>
3

>  <SCORE.INTER.SOLV>
9.70454

>  <SCORE.INTER.VDW>
-16.8339

>  <SCORE.INTER.norm>
-0.999888

>  <SCORE.INTRA>
-0.154969

>  <SCORE.INTRA.DIHEDRAL>
-0.0445715

>  <SCORE.INTRA.DIHEDRAL.0>
2.1382

>  <SCORE.INTRA.POLAR>
0

>  <SCORE.INTRA.POLAR.0>
0

>  <SCORE.INTRA.REPUL>
0

>  <SCORE.INTRA.REPUL.0>
0

>  <SCORE.INTRA.SOLV>
-0.189193

>  <SCORE.INTRA.SOLV.lig_0>
-59.6513

>  <SCORE.INTRA.VDW>
-0.0380871

>  <SCORE.INTRA.VDW.0>
-0.569808

>  <SCORE.INTRA.norm>
-0.0129141

>  <SCORE.RESTR>
0

>  <SCORE.RESTR.CAVITY>
0

>  <SCORE.RESTR.norm>
0

>  <SCORE.SYSTEM>
0

>  <SCORE.SYSTEM.CONST>
0

>  <SCORE.SYSTEM.DIHEDRAL>
0

>  <SCORE.SYSTEM.SOLV>
0

>  <SCORE.SYSTEM.norm>
0

>  <SCORE.heavy>
12

>  <SCORE.norm>
-1.0128

>  <RMSD>
3.399

$$$$
ligand
 OpenBabel11021811503D
libRbt.so/2013.1/901 2013/11/27
 12 12  0  0  0  0  0  0  0  0999 V2000
   10.3400   15.7525  147.9262 C   0  0  0  0  0  0  0  0  0  0  0  0
   11.8246   10.7383  146.1883 C   0  0  0  0  0  0  0  0  0  0  0  0
    9.6435   13.5123  149.2861 N   0  0  0  0  0  0  0  0  0  0  0  0
   11.6071   16.3391  148.3872 N   0  0  0  0  0  0  0  0  0  0  0  0
   11.5536   17.0019  149.2931 N   0  0  0  0  0  0  0  0  0  0  0  0
   11.5069   17.6647  150.1969 N   0  0  0  0  0  0  0  0  0  0  0  0
   11.8057   13.0741  145.9051 N   0  0  0  0  0  0  0  0  0  0  0  0
   11.4499   12.0018  146.6288 C   0  0  0  0  0  0  0  0  0  0  0  0
   10.6771   12.1349  147.7161 N   0  0  0  0  0  0  0  0  0  0  0  0
   10.2436   13.3393  148.1122 C   0  0  0  0  0  0  0  0  0  0  0  0
   10.5755   14.4877  147.4005 C   0  0  0  0  0  0  0  0  0  0  0  0
   11.3671   14.3517  146.2686 C   0  0  0  0  0  0  0  0  0  0  0  0
  1 11  1  0  0  0  0
  1  4  1  0  0  0  0
  2  8  1  0  0  0  0
  3 10  1  0  0  0  0
  4  5  1  0  0  0  0
  5  6  1  0  0  0  0
  7  8  2  0  0  0  0
  7 12  1  0  0  0  0
  8  9  1  0  0  0  0
  9 10  2  0  0  0  0
 10 11  1  0  0  0  0
 11 12  2  0  0  0  0
M  END
>  <CHROM.1>
104.43191826,-146.13501196,-177.23789551,11.06137075,14.21041563,147.79900879
-1.59973993,-0.94999946,-2.67050972

>  <Name>
ligand

>  <RI>
0

>  <Rbt.Current_Directory>
/home/itssahil/PROJECTS/Mol_Feturizer/New_Systems/rnas/4NYA

>  <Rbt.Executable>
rbdock ($Id: //depot/dev/client3/rdock/2013.1/src/exe/rbdock.cxx#4 $)

>  <Rbt.Library>
libRbt.so (2013.1, Build901 2013/11/27)

>  <Rbt.Parameter_File>
/export/apps/rDock/src/rDock_2013.1_src/data/scripts/dock_solv.prm

>  <Rbt.Receptor>
prm/pocket_docking_7.prm

>  <SCORE>
-12.1378

>  <SCORE.INTER>
-12.003

>  <SCORE.INTER.CONST>
1

>  <SCORE.INTER.POLAR>
0

>  <SCORE.INTER.ROT>
3

>  <SCORE.INTER.SOLV>
9.7124

>  <SCORE.INTER.VDW>
-16.8395

>  <SCORE.INTER.norm>
-1.00025

>  <SCORE.INTRA>
-0.134847

>  <SCORE.INTRA.DIHEDRAL>
0.0164381

>  <SCORE.INTRA.DIHEDRAL.0>
2.1382

>  <SCORE.INTRA.POLAR>
0

>  <SCORE.INTRA.POLAR.0>
0

>  <SCORE.INTRA.REPUL>
0

>  <SCORE.INTRA.REPUL.0>
0

>  <SCORE.INTRA.SOLV>
-0.223254

>  <SCORE.INTRA.SOLV.lig_0>
-59.6513

>  <SCORE.INTRA.VDW>
-0.0314386

>  <SCORE.INTRA.VDW.0>
-0.569808

>  <SCORE.INTRA.norm>
-0.0112372

>  <SCORE.RESTR>
0

>  <SCORE.RESTR.CAVITY>
0

>  <SCORE.RESTR.norm>
0

>  <SCORE.SYSTEM>
0

>  <SCORE.SYSTEM.CONST>
0

>  <SCORE.SYSTEM.DIHEDRAL>
0

>  <SCORE.SYSTEM.SOLV>
0

>  <SCORE.SYSTEM.norm>
0

>  <SCORE.heavy>
12

>  <SCORE.norm>
-1.01149

>  <RMSD>
3.415

$$$$
ligand
 OpenBabel11021811503D
libRbt.so/2013.1/901 2013/11/27
 12 12  0  0  0  0  0  0  0  0999 V2000
   10.3793   15.7800  147.9220 C   0  0  0  0  0  0  0  0  0  0  0  0
   11.7843   10.7441  146.1809 C   0  0  0  0  0  0  0  0  0  0  0  0
    9.6669   13.5514  149.2928 N   0  0  0  0  0  0  0  0  0  0  0  0
   11.6518   16.3356  148.4060 N   0  0  0  0  0  0  0  0  0  0  0  0
   11.5884   17.0756  149.2492 N   0  0  0  0  0  0  0  0  0  0  0  0
   11.5318   17.8153  150.0907 N   0  0  0  0  0  0  0  0  0  0  0  0
   11.7924   13.0794  145.8932 N   0  0  0  0  0  0  0  0  0  0  0  0
   11.4297   12.0130  146.6222 C   0  0  0  0  0  0  0  0  0  0  0  0
   10.6686   12.1581  147.7163 N   0  0  0  0  0  0  0  0  0  0  0  0
   10.2540   13.3685  148.1138 C   0  0  0  0  0  0  0  0  0  0  0  0
   10.5939   14.5113  147.3968 C   0  0  0  0  0  0  0  0  0  0  0  0
   11.3733   14.3631  146.2580 C   0  0  0  0  0  0  0  0  0  0  0  0
  1 11  1  0  0  0  0
  1  4  1  0  0  0  0
  2  8  1  0  0  0  0
  3 10  1  0  0  0  0
  4  5  1  0  0  0  0
  5  6  1  0  0  0  0
  7  8  2  0  0  0  0
  7 12  1  0  0  0  0
  8  9  1  0  0  0  0
  9 10  2  0  0  0  0
 10 11  1  0  0  0  0
 11 12  2  0  0  0  0
M  END
>  <CHROM.1>
102.79578210,-151.92255603,-176.97849313,11.07135339,14.24403052,147.78466454
-1.58079270,-0.94483297,-2.66815885

>  <Name>
ligand

>  <RI>
0

>  <Rbt.Current_Directory>
/home/itssahil/PROJECTS/Mol_Feturizer/New_Systems/rnas/4NYA

>  <Rbt.Executable>
rbdock ($Id: //depot/dev/client3/rdock/2013.1/src/exe/rbdock.cxx#4 $)

>  <Rbt.Library>
libRbt.so (2013.1, Build901 2013/11/27)

>  <Rbt.Parameter_File>
/export/apps/rDock/src/rDock_2013.1_src/data/scripts/dock_solv.prm

>  <Rbt.Receptor>
prm/pocket_docking_8.prm

>  <SCORE>
-12.0996

>  <SCORE.INTER>
-11.8525

>  <SCORE.INTER.CONST>
1

>  <SCORE.INTER.POLAR>
0

>  <SCORE.INTER.ROT>
3

>  <SCORE.INTER.SOLV>
10.2489

>  <SCORE.INTER.VDW>
-16.918

>  <SCORE.INTER.norm>
-0.987712

>  <SCORE.INTRA>
-0.247053

>  <SCORE.INTRA.DIHEDRAL>
-0.201524

>  <SCORE.INTRA.DIHEDRAL.0>
2.1382

>  <SCORE.INTRA.POLAR>
0

>  <SCORE.INTRA.POLAR.0>
0

>  <SCORE.INTRA.REPUL>
0

>  <SCORE.INTRA.REPUL.0>
0

>  <SCORE.INTRA.SOLV>
-0.250004

>  <SCORE.INTRA.SOLV.lig_0>
-59.6513

>  <SCORE.INTRA.VDW>
-0.021289

>  <SCORE.INTRA.VDW.0>
-0.569808

>  <SCORE.INTRA.norm>
-0.0205877

>  <SCORE.RESTR>
0

>  <SCORE.RESTR.CAVITY>
0

>  <SCORE.RESTR.norm>
0

>  <SCORE.SYSTEM>
0

>  <SCORE.SYSTEM.CONST>
0

>  <SCORE.SYSTEM.DIHEDRAL>
0

>  <SCORE.SYSTEM.SOLV>
0

>  <SCORE.SYSTEM.norm>
0

>  <SCORE.heavy>
12

>  <SCORE.norm>
-1.0083

>  <RMSD>
3.460

$$$$
ligand
 OpenBabel11021811503D
libRbt.so/2013.1/901 2013/11/27
 12 12  0  0  0  0  0  0  0  0999 V2000
   11.3934   10.7164  146.6573 C   0  0  0  0  0  0  0  0  0  0  0  0
   10.4447   16.0528  147.6517 C   0  0  0  0  0  0  0  0  0  0  0  0
    9.9970   11.5307  148.8344 N   0  0  0  0  0  0  0  0  0  0  0  0
   12.6443   10.4784  145.9219 N   0  0  0  0  0  0  0  0  0  0  0  0
   12.8547    9.4169  145.6190 N   0  0  0  0  0  0  0  0  0  0  0  0
   13.0651    8.3555  145.3232 N   0  0  0  0  0  0  0  0  0  0  0  0
   11.3961   14.3624  146.3200 N   0  0  0  0  0  0  0  0  0  0  0  0
   10.6820   14.7067  147.4024 C   0  0  0  0  0  0  0  0  0  0  0  0
   10.2706   13.7765  148.2758 N   0  0  0  0  0  0  0  0  0  0  0  0
   10.5560   12.4806  148.0905 C   0  0  0  0  0  0  0  0  0  0  0  0
   11.2966   12.0625  146.9895 C   0  0  0  0  0  0  0  0  0  0  0  0
   11.7325   13.0243  146.0890 C   0  0  0  0  0  0  0  0  0  0  0  0
  1 11  1  0  0  0  0
  1  4  1  0  0  0  0
  2  8  1  0  0  0  0
  3 10  1  0  0  0  0
  4  5  1  0  0  0  0
  5  6  1  0  0  0  0
  7  8  2  0  0  0  0
  7 12  1  0  0  0  0
  8  9  1  0  0  0  0
  9 10  2  0  0  0  0
 10 11  1  0  0  0  0
 11 12  2  0  0  0  0
M  END
>  <CHROM.1>
-153.85469434,178.39506663,-63.49896506,11.36982854,12.23036280,146.92531277
0.95472155,-0.91880449,2.96952259

>  <Name>
ligand

>  <RI>
0

>  <Rbt.Current_Directory>
/home/itssahil/PROJECTS/Mol_Feturizer/New_Systems/rnas/4NYA

>  <Rbt.Executable>
rbdock ($Id: //depot/dev/client3/rdock/2013.1/src/exe/rbdock.cxx#4 $)

>  <Rbt.Library>
libRbt.so (2013.1, Build901 2013/11/27)

>  <Rbt.Parameter_File>
/export/apps/rDock/src/rDock_2013.1_src/data/scripts/dock_solv.prm

>  <Rbt.Receptor>
prm/pocket_docking_4.prm

>  <SCORE>
-10.2846

>  <SCORE.INTER>
-9.48942

>  <SCORE.INTER.CONST>
1

>  <SCORE.INTER.POLAR>
0

>  <SCORE.INTER.ROT>
3

>  <SCORE.INTER.SOLV>
23.8966

>  <SCORE.INTER.VDW>
-19.8918

>  <SCORE.INTER.norm>
-0.790785

>  <SCORE.INTRA>
-0.795178

>  <SCORE.INTRA.DIHEDRAL>
-0.962399

>  <SCORE.INTRA.DIHEDRAL.0>
2.1382

>  <SCORE.INTRA.POLAR>
0

>  <SCORE.INTRA.POLAR.0>
0

>  <SCORE.INTRA.REPUL>
0

>  <SCORE.INTRA.REPUL.0>
0

>  <SCORE.INTRA.SOLV>
-1.51384

>  <SCORE.INTRA.SOLV.lig_0>
-59.6513

>  <SCORE.INTRA.VDW>
0.442944

>  <SCORE.INTRA.VDW.0>
-0.569808

>  <SCORE.INTRA.norm>
-0.0662648

>  <SCORE.RESTR>
0

>  <SCORE.RESTR.CAVITY>
0

>  <SCORE.RESTR.norm>
0

>  <SCORE.SYSTEM>
0

>  <SCORE.SYSTEM.CONST>
0

>  <SCORE.SYSTEM.DIHEDRAL>
0

>  <SCORE.SYSTEM.SOLV>
0

>  <SCORE.SYSTEM.norm>
0

>  <SCORE.heavy>
12

>  <SCORE.norm>
-0.85705

>  <RMSD>
4.924

$$$$
