@<TRIPOS>MOLECULE
4NYA_rdock.pdb
 1652 1847 0 0 0
SMALL
GASTEIGER

@<TRIPOS>ATOM
      1  P         33.7910    8.3430  154.7750 P.3    11  G11         0.1280
      2  C5'       36.3280    8.0700  154.0980 C.3    11  G11         0.1795
      3  O5'       35.1200    7.4790  154.6140 O.3    11  G11        -0.3259
      4  C4'       37.4210    7.0310  154.0130 C.3    11  G11         0.1772
      5  O4'       38.2940    7.1600  155.1690 O.3    11  G11        -0.3307
      6  C3'       36.9500    5.5820  154.0070 C.3    11  G11         0.1860
      7  O3'       36.7820    5.1150  152.6730 O.3    11  G11        -0.3112
      8  C2'       38.0970    4.8560  154.7000 C.3    11  G11         0.2309
      9  O2'       39.1730    4.5570  153.8340 O.3    11  G11        -0.2156
     10  C1'       38.5190    5.8870  155.7440 C.3    11  G11         0.2408
     11  N1        37.6660    3.2550  160.0010 N.ar   11  G11        -0.1709
     12  C2        38.5460    2.9970  158.9800 C.ar   11  G11         0.2606
     13  N2        39.2970    1.8930  159.1110 N.pl3  11  G11        -0.0859
     14  N3        38.6810    3.7630  157.9100 N.ar   11  G11        -0.1918
     15  C4        37.8510    4.8270  157.9430 C.ar   11  G11         0.1723
     16  C5        36.9360    5.1740  158.9150 C.ar   11  G11         0.1748
     17  C6        36.8010    4.3430  160.0570 C.ar   11  G11         0.3023
     18  O6        36.0460    4.4810  161.0270 O.2    11  G11        -0.2633
     19  N7        36.2750    6.3460  158.5720 N.ar   11  G11        -0.2173
     20  C8        36.7910    6.6830  157.4210 C.ar   11  G11         0.1817
     21  N9        37.7520    5.8050  156.9830 N.ar   11  G11        -0.2693
     22  OP1       33.4530    8.9280  153.4530 O.3    11  G11        -0.1955
     23  OP2       32.7860    7.5150  155.4890 O.co2  11  G11        -0.7863
     24  P         35.9590    3.7720  152.3930 P.3    12  A12         0.2141
     25  C5'       37.9690    2.0630  152.4630 C.3    12  A12         0.1812
     26  O5'       36.8330    2.6560  153.1200 O.3    12  A12        -0.3114
     27  C4'       38.4480    0.8580  153.2360 C.3    12  A12         0.1773
     28  O4'       38.8500    1.2750  154.5700 O.3    12  A12        -0.3307
     29  C3'       37.4130   -0.2470  153.4380 C.3    12  A12         0.1860
     30  O3'       37.5170   -1.2250  152.4090 O.3    12  A12        -0.3112
     31  C2'       37.8090   -0.8320  154.7890 C.3    12  A12         0.2309
     32  O2'       38.8600   -1.7730  154.7040 O.3    12  A12        -0.2156
     33  C1'       38.2680    0.4190  155.5350 C.3    12  A12         0.2408
     34  N1        34.9400    0.4880  159.4580 N.ar   12  A12        -0.2040
     35  C2        35.8960   -0.3800  159.1050 C.ar   12  A12         0.2016
     36  N3        36.7310   -0.3400  158.0690 N.ar   12  A12        -0.2048
     37  C4        36.5120    0.7590  157.3270 C.ar   12  A12         0.1692
     38  C5        35.5680    1.7420  157.5610 C.ar   12  A12         0.1518
     39  C6        34.7460    1.5830  158.6910 C.ar   12  A12         0.1919
     40  N6        33.7930    2.4490  159.0420 N.pl3  12  A12        -0.1054
     41  N7        35.6330    2.7270  156.5850 N.ar   12  A12        -0.2193
     42  C8        36.5990    2.3240  155.7960 C.ar   12  A12         0.1816
     43  N9        37.1750    1.1400  156.1860 N.ar   12  A12        -0.2693
     44  OP1       35.9890    3.5110  150.9320 O.2    12  A12        -0.5172
     45  OP2       34.6540    3.8790  153.0940 O.co2  12  A12        -0.4373
     46  P         36.1970   -1.9200  151.8300 P.3    13  C13         0.2141
     47  C5'       36.9470   -4.1840  152.9360 C.3    13  C13         0.1812
     48  O5'       35.9700   -3.1570  152.8030 O.3    13  C13        -0.3114
     49  C4'       36.5690   -5.1020  154.0720 C.3    13  C13         0.1773
     50  O4'       36.6940   -4.3890  155.3360 O.3    13  C13        -0.3307
     51  C3'       35.1240   -5.5760  154.0630 C.3    13  C13         0.1860
     52  O3'       34.9550   -6.7040  153.2270 O.3    13  C13        -0.3112
     53  C2'       34.9100   -5.9400  155.5220 C.3    13  C13         0.2309
     54  O2'       35.4980   -7.1890  155.8340 O.3    13  C13        -0.2156
     55  C1'       35.6650   -4.8060  156.2260 C.3    13  C13         0.2420
     56  N1        34.7960   -3.6490  156.5020 N.ar   13  C13        -0.2535
     57  C2        33.8380   -3.7530  157.5090 C.ar   13  C13         0.3532
     58  O2        33.7900   -4.7860  158.1740 O.2    13  C13        -0.2443
     59  N3        32.9920   -2.7180  157.7310 N.ar   13  C13        -0.1739
     60  C4        33.0940   -1.6040  156.9990 C.ar   13  C13         0.1759
     61  N4        32.2430   -0.6150  157.2440 N.pl3  13  C13        -0.1070
     62  C5        34.0770   -1.4600  155.9840 C.ar   13  C13         0.0566
     63  C6        34.9030   -2.4960  155.7710 C.ar   13  C13         0.0850
     64  OP1       36.4980   -2.4600  150.4810 O.2    13  C13        -0.5172
     65  OP2       35.0530   -0.9900  152.0080 O.co2  13  C13        -0.4373
     66  P         33.6480   -6.8180  152.3040 P.3    14  U14         0.2141
     67  C5'       32.4930   -8.5280  153.9340 C.3    14  U14         0.1812
     68  O5'       32.4760   -7.2540  153.2930 O.3    14  U14        -0.3114
     69  C4'       31.5890   -8.5320  155.1550 C.3    14  U14         0.1773
     70  O4'       32.0000   -7.4920  156.0930 O.3    14  U14        -0.3307
     71  C3'       30.1150   -8.2340  154.9220 C.3    14  U14         0.1860
     72  O3'       29.4020   -9.3670  154.4500 O.3    14  U14        -0.3112
     73  C2'       29.6530   -7.8260  156.3170 C.3    14  U14         0.2309
     74  O2'       29.4290   -8.9200  157.1750 O.3    14  U14        -0.2156
     75  C1'       30.8590   -7.0270  156.8110 C.3    14  U14         0.2420
     76  N1        30.6730   -5.5950  156.5460 N.ar   14  U14        -0.2534
     77  C2        29.8160   -4.8990  157.3770 C.ar   14  U14         0.3546
     78  O2        29.2370   -5.4150  158.3200 O.2    14  U14        -0.2443
     79  N3        29.6570   -3.5760  157.0610 N.ar   14  U14        -0.1530
     80  C4        30.2560   -2.8930  156.0270 C.ar   14  U14         0.2846
     81  O4        30.0000   -1.7020  155.8650 O.2    14  U14        -0.2650
     82  C5        31.1350   -3.6770  155.2240 C.ar   14  U14         0.0814
     83  C6        31.3100   -4.9700  155.5040 C.ar   14  U14         0.0870
     84  OP1       33.9000   -7.9310  151.3530 O.2    14  U14        -0.5172
     85  OP2       33.3330   -5.4600  151.7810 O.co2  14  U14        -0.4373
     86  P         28.0440   -9.1560  153.6150 P.3    15  C15         0.2141
     87  C5'       26.3690   -9.4300  155.6160 C.3    15  C15         0.1812
     88  O5'       27.0080   -8.5650  154.6780 O.3    15  C15        -0.3114
     89  C4'       25.5050   -8.6490  156.5940 C.3    15  C15         0.1773
     90  O4'       26.3010   -7.6160  157.2470 O.3    15  C15        -0.3307
     91  C3'       24.3310   -7.8310  156.0750 C.3    15  C15         0.1860
     92  O3'       23.1790   -8.5840  155.7220 O.3    15  C15        -0.3112
     93  C2'       24.0320   -6.9830  157.3000 C.3    15  C15         0.2309
     94  O2'       23.4500   -7.7410  158.3380 O.3    15  C15        -0.2156
     95  C1'       25.4420   -6.5760  157.7050 C.3    15  C15         0.2420
     96  N1        25.7860   -5.3160  157.0310 N.ar   15  C15        -0.2535
     97  C2        25.3710   -4.1220  157.6240 C.ar   15  C15         0.3532
     98  O2        24.7430   -4.1740  158.6920 O.2    15  C15        -0.2443
     99  N3        25.6550   -2.9450  157.0220 N.ar   15  C15        -0.1739
    100  C4        26.3230   -2.9320  155.8710 C.ar   15  C15         0.1759
    101  N4        26.5770   -1.7470  155.3170 N.pl3  15  C15        -0.1070
    102  C5        26.7590   -4.1370  155.2390 C.ar   15  C15         0.0566
    103  C6        26.4730   -5.2970  155.8510 C.ar   15  C15         0.0850
    104  OP1       27.5480  -10.5000  153.2220 O.3    15  C15        -0.4373
    105  OP2       28.3160   -8.1310  152.5620 O.co2  15  C15        -0.5172
    106  P         22.0780   -7.9290  154.7390 P.3    16  G16         0.2141
    107  C5'       20.8300   -7.0710  156.8700 C.3    16  G16         0.1812
    108  O5'       21.3900   -6.7840  155.6020 O.3    16  G16        -0.3114
    109  C4'       20.3560   -5.8020  157.5310 C.3    16  G16         0.1773
    110  O4'       21.4730   -4.8970  157.7490 O.3    16  G16        -0.3307
    111  C3'       19.3860   -4.9330  156.7560 C.3    16  G16         0.1860
    112  O3'       18.0640   -5.4610  156.8050 O.3    16  G16        -0.3112
    113  C2'       19.4840   -3.6470  157.5580 C.3    16  G16         0.2309
    114  O2'       18.8460   -3.8160  158.8080 O.3    16  G16        -0.2156
    115  C1'       20.9930   -3.5630  157.7860 C.3    16  G16         0.2408
    116  N1        21.9080    1.0660  155.9340 N.ar   16  G16        -0.1709
    117  C2        21.1380    0.6820  157.0030 C.ar   16  G16         0.2606
    118  N2        20.5360    1.6600  157.6740 N.pl3  16  G16        -0.0859
    119  N3        20.9720   -0.5710  157.3850 N.ar   16  G16        -0.1918
    120  C4        21.6460   -1.4320  156.6020 C.ar   16  G16         0.1723
    121  C5        22.4390   -1.1630  155.5090 C.ar   16  G16         0.1748
    122  C6        22.6100    0.1990  155.1050 C.ar   16  G16         0.3023
    123  O6        23.2700    0.6530  154.1590 O.2    16  G16        -0.2633
    124  N7        22.9580   -2.3370  154.9770 N.ar   16  G16        -0.2173
    125  C8        22.4790   -3.2770  155.7450 C.ar   16  G16         0.1817
    126  N9        21.6780   -2.7940  156.7520 N.ar   16  G16        -0.2693
    127  OP1       21.0820   -9.0010  154.4620 O.3    16  G16        -0.4373
    128  OP2       22.7500   -7.2260  153.6090 O.co2  16  G16        -0.5172
    129  P         16.9560   -4.9310  155.7670 P.3    17  G17         0.2141
    130  C5'       16.2480   -3.1370  157.5380 C.3    17  G17         0.1812
    131  O5'       16.7310   -3.4180  156.2220 O.3    17  G17        -0.3114
    132  C4'       16.0710   -1.6460  157.7470 C.3    17  G17         0.1773
    133  O4'       17.3590   -0.9710  157.6790 O.3    17  G17        -0.3307
    134  C3'       15.2340   -0.8970  156.7220 C.3    17  G17         0.1860
    135  O3'       13.8400   -1.0490  156.9290 O.3    17  G17        -0.3112
    136  C2'       15.6720    0.5320  156.9780 C.3    17  G17         0.2309
    137  O2'       15.0880    1.0390  158.1600 O.3    17  G17        -0.2156
    138  C1'       17.1780    0.3380  157.1630 C.3    17  G17         0.2408
    139  N1        18.7440    3.3960  153.4220 N.ar   17  G17        -0.1709
    140  C2        18.0310    3.7000  154.5520 C.ar   17  G17         0.2606
    141  N2        17.6870    4.9840  154.7120 N.pl3  17  G17        -0.0859
    142  N3        17.6780    2.8110  155.4650 N.ar   17  G17        -0.1918
    143  C4        18.1050    1.5680  155.1540 C.ar   17  G17         0.1723
    144  C5        18.8220    1.1620  154.0560 C.ar   17  G17         0.1748
    145  C6        19.1920    2.1270  153.0840 C.ar   17  G17         0.3023
    146  O6        19.8220    1.9630  152.0440 O.2    17  G17        -0.2633
    147  N7        19.0590   -0.2020  154.1030 N.ar   17  G17        -0.2173
    148  C8        18.4900   -0.5930  155.2110 C.ar   17  G17         0.1817
    149  N9        17.8950    0.4290  155.8960 N.ar   17  G17        -0.2693
    150  OP1       15.7020   -5.6620  156.0720 O.3    17  G17        -0.4373
    151  OP2       17.5250   -4.9930  154.3940 O.co2  17  G17        -0.5172
    152  P         12.8530   -1.0710  155.6590 P.3    18  G18         0.2141
    153  C5'       12.4130    1.5090  155.9480 C.3    18  G18         0.1812
    154  O5'       12.8790    0.4320  155.1250 O.3    18  G18        -0.3114
    155  C4'       12.5290    2.8250  155.2190 C.3    18  G18         0.1773
    156  O4'       13.9210    3.1230  154.9380 O.3    18  G18        -0.3307
    157  C3'       11.8720    2.8610  153.8550 C.3    18  G18         0.1860
    158  O3'       10.4660    3.0670  154.0070 O.3    18  G18        -0.3112
    159  C2'       12.6020    4.0210  153.1720 C.3    18  G18         0.2309
    160  O2'       12.1420    5.3070  153.5190 O.3    18  G18        -0.2156
    161  C1'       14.0070    3.8930  153.7530 C.3    18  G18         0.2408
    162  N1        17.1940    4.7980  149.9350 N.ar   18  G18        -0.1709
    163  C2        16.3870    5.6680  150.6360 C.ar   18  G18         0.2606
    164  N2        16.4400    6.9640  150.2710 N.pl3  18  G18        -0.0859
    165  N3        15.5920    5.3000  151.6270 N.ar   18  G18        -0.1918
    166  C4        15.6710    3.9740  151.8700 C.ar   18  G18         0.1723
    167  C5        16.4420    3.0270  151.2370 C.ar   18  G18         0.1748
    168  C6        17.2900    3.4340  150.1750 C.ar   18  G18         0.3023
    169  O6        18.0530    2.7500  149.4960 O.2    18  G18        -0.2633
    170  N7        16.2330    1.7750  151.7920 N.ar   18  G18        -0.2173
    171  C8        15.3560    1.9810  152.7360 C.ar   18  G18         0.1817
    172  N9        14.9710    3.2950  152.8330 N.ar   18  G18        -0.2693
    173  OP1       11.4860   -1.3130  156.1800 O.3    18  G18        -0.4373
    174  OP2       13.4090   -1.9670  154.5970 O.co2  18  G18        -0.5172
    175  P          9.4790    2.7900  152.7710 P.3    19  G19         0.2141
    176  C5'        9.2250    5.3270  152.1900 C.3    19  G19         0.1812
    177  O5'        9.7130    4.0400  151.8190 O.3    19  G19        -0.3114
    178  C4'        9.5160    6.3200  151.1030 C.3    19  G19         0.1773
    179  O4'       10.9520    6.4820  150.9760 O.3    19  G19        -0.3307
    180  C3'        9.0680    5.8920  149.7200 C.3    19  G19         0.1860
    181  O3'        7.7030    6.2390  149.5370 O.3    19  G19        -0.3112
    182  C2'        9.9810    6.7360  148.8460 C.3    19  G19         0.2309
    183  O2'        9.5680    8.0880  148.8480 O.3    19  G19        -0.2156
    184  C1'       11.2950    6.6480  149.6190 C.3    19  G19         0.2408
    185  N1        15.5660    5.3440  147.3020 N.ar   19  G19        -0.1709
    186  C2        14.9820    6.5800  147.4420 C.ar   19  G19         0.2606
    187  N2        15.6390    7.6210  146.9140 N.pl3  19  G19        -0.0859
    188  N3        13.8410    6.7810  148.0550 N.ar   19  G19        -0.1918
    189  C4        13.3190    5.6380  148.5350 C.ar   19  G19         0.1723
    190  C5        13.8170    4.3550  148.4530 C.ar   19  G19         0.1748
    191  C6        15.0420    4.1490  147.7870 C.ar   19  G19         0.3023
    192  O6        15.6520    3.0910  147.6040 O.2    19  G19        -0.2633
    193  N7        12.9670    3.4550  149.0740 N.ar   19  G19        -0.2173
    194  C8        11.9900    4.1980  149.5200 C.ar   19  G19         0.1817
    195  N9        12.1550    5.5340  149.2360 N.ar   19  G19        -0.2693
    196  OP1        8.0800    2.8740  153.2810 O.3    19  G19        -0.4373
    197  OP2        9.9260    1.5730  152.0520 O.co2  19  G19        -0.5172
    198  P          6.7490    5.2930  148.6700 P.3    20  U20         0.2141
    199  C5'        6.9060    6.8990  146.6240 C.3    20  U20         0.1812
    200  O5'        7.1540    5.6200  147.1740 O.3    20  U20        -0.3114
    201  C4'        7.7970    7.1150  145.4320 C.3    20  U20         0.1773
    202  O4'        9.1740    6.9460  145.8610 O.3    20  U20        -0.3307
    203  C3'        7.6260    6.1170  144.2940 C.3    20  U20         0.1860
    204  O3'        6.6310    6.5900  143.3870 O.3    20  U20        -0.3112
    205  C2'        8.9910    6.1770  143.6150 C.3    20  U20         0.2309
    206  O2'        9.0690    7.2760  142.7430 O.3    20  U20        -0.2156
    207  C1'        9.9380    6.4090  144.7990 C.3    20  U20         0.2420
    208  N1        10.5820    5.1790  145.2720 N.ar   20  U20        -0.2534
    209  C2        11.9040    4.9880  144.9450 C.ar   20  U20         0.3546
    210  O2        12.5470    5.8070  144.3180 O.2    20  U20        -0.2443
    211  N3        12.4480    3.8060  145.3860 N.ar   20  U20        -0.1530
    212  C4        11.8120    2.8260  146.1160 C.ar   20  U20         0.2846
    213  O4        12.4230    1.8040  146.4220 O.2    20  U20        -0.2650
    214  C5        10.4470    3.1090  146.4280 C.ar   20  U20         0.0814
    215  C6         9.8920    4.2470  146.0040 C.ar   20  U20         0.0870
    216  OP1        5.3570    5.7740  148.8320 O.2    20  U20        -0.5172
    217  OP2        7.0870    3.8860  148.9830 O.co2  20  U20        -0.4373
    218  P          5.3320    5.6900  143.0460 P.3    21  G21         0.2141
    219  C5'        3.5440    6.9780  144.4510 C.3    21  G21         0.1812
    220  O5'        4.1170    6.7120  143.1830 O.3    21  G21        -0.3114
    221  C4'        3.5030    8.4630  144.7030 C.3    21  G21         0.1773
    222  O4'        4.8440    9.0340  144.7000 O.3    21  G21        -0.3307
    223  C3'        2.8220    9.2960  143.6400 C.3    21  G21         0.1860
    224  O3'        1.4210    9.1870  143.7110 O.3    21  G21        -0.3112
    225  C2'        3.3040   10.6920  144.0090 C.3    21  G21         0.2309
    226  O2'        2.6920   11.1990  145.1760 O.3    21  G21        -0.2156
    227  C1'        4.7630   10.4050  144.3340 C.3    21  G21         0.2408
    228  N1         6.6220   13.9970  141.3430 N.ar   21  G21        -0.1709
    229  C2         5.7030   14.0810  142.3510 C.ar   21  G21         0.2606
    230  N2         5.2460   15.3100  142.6300 N.pl3  21  G21        -0.0859
    231  N3         5.2660   13.0430  143.0360 N.ar   21  G21        -0.1918
    232  C4         5.8380   11.8940  142.6320 C.ar   21  G21         0.1723
    233  C5         6.7590   11.6930  141.6320 C.ar   21  G21         0.1748
    234  C6         7.2220   12.8250  140.8990 C.ar   21  G21         0.3023
    235  O6         8.0530   12.8720  139.9750 O.2    21  G21        -0.2633
    236  N7         7.0820   10.3450  141.5240 N.ar   21  G21        -0.2173
    237  C8         6.3740    9.7680  142.4580 C.ar   21  G21         0.1817
    238  N9         5.6170   10.6590  143.1810 N.ar   21  G21        -0.2693
    239  OP1        5.1890    4.6650  144.1190 O.3    21  G21        -0.4373
    240  OP2        5.3650    5.2740  141.6160 O.co2  21  G21        -0.5172
    241  P          0.5640    9.4870  142.4090 P.3    22  C22         0.2141
    242  C5'        0.0440   11.9770  143.0070 C.3    22  C22         0.1812
    243  O5'        0.7480   11.0520  142.1980 O.3    22  C22        -0.3114
    244  C4'        0.2300   13.3620  142.4680 C.3    22  C22         0.1773
    245  O4'        1.6520   13.6050  142.3550 O.3    22  C22        -0.3307
    246  C3'       -0.2640   13.5870  141.0550 C.3    22  C22         0.1860
    247  O3'       -1.6540   13.8720  141.0270 O.3    22  C22        -0.3112
    248  C2'        0.5670   14.7870  140.6160 C.3    22  C22         0.2309
    249  O2'        0.0870   16.0030  141.1540 O.3    22  C22        -0.2156
    250  C1'        1.9100   14.4620  141.2590 C.3    22  C22         0.2420
    251  N1         2.8820   13.7990  140.3800 N.ar   22  C22        -0.2535
    252  C2         3.7280   14.5890  139.6040 C.ar   22  C22         0.3532
    253  O2         3.6060   15.8180  139.6540 O.2    22  C22        -0.2443
    254  N3         4.6600   13.9980  138.8290 N.ar   22  C22        -0.1739
    255  C4         4.7680   12.6720  138.8080 C.ar   22  C22         0.1759
    256  N4         5.7100   12.1440  138.0420 N.pl3  22  C22        -0.1070
    257  C5         3.9120   11.8330  139.5750 C.ar   22  C22         0.0566
    258  C6         2.9840   12.4340  140.3380 C.ar   22  C22         0.0850
    259  OP1       -0.8390    9.2090  142.7810 O.3    22  C22        -0.4373
    260  OP2        1.1740    8.8020  141.2450 O.co2  22  C22        -0.5172
    261  P         -2.5500   13.2400  139.8610 P.3    23  C23         0.2141
    262  C5'       -2.4050   14.1860  137.4400 C.3    23  C23         0.1812
    263  O5'       -1.7460   13.6510  138.5630 O.3    23  C23        -0.3114
    264  C4'       -1.9420   15.5970  137.2130 C.3    23  C23         0.1773
    265  O4'       -0.5010   15.6490  137.3160 O.3    23  C23        -0.3307
    266  C3'       -2.2900   16.1130  135.8340 C.3    23  C23         0.1860
    267  O3'       -2.8910   17.3960  135.8860 O.3    23  C23        -0.3112
    268  C2'       -1.0330   15.9330  134.9890 C.3    23  C23         0.2309
    269  O2'       -0.7450   17.1010  134.2600 O.3    23  C23        -0.2156
    270  C1'        0.0690   15.8470  136.0470 C.3    23  C23         0.2420
    271  N1         1.0680   14.7960  135.8270 N.ar   23  C23        -0.2535
    272  C2         2.0700   15.0280  134.9100 C.ar   23  C23         0.3532
    273  O2         2.0540   16.0870  134.2750 O.2    23  C23        -0.2443
    274  N3         3.0280   14.1010  134.7290 N.ar   23  C23        -0.1739
    275  C4         2.9920   12.9660  135.4240 C.ar   23  C23         0.1759
    276  N4         3.9660   12.0790  135.2220 N.pl3  23  C23        -0.1070
    277  C5         1.9590   12.6910  136.3550 C.ar   23  C23         0.0566
    278  C6         1.0240   13.6230  136.5240 C.ar   23  C23         0.0850
    279  OP1       -3.8750   13.9110  139.8460 O.2    23  C23        -0.5172
    280  OP2       -2.4760   11.7570  139.9730 O.co2  23  C23        -0.4373
    281  P         -4.2700   17.6700  135.1300 P.3    24  C24         0.2141
    282  C5'       -4.7690   19.8970  133.8310 C.3    24  C24         0.1812
    283  O5'       -3.8760   18.8310  134.1130 O.3    24  C24        -0.3114
    284  C4'       -4.0930   20.9100  132.9390 C.3    24  C24         0.1773
    285  O4'       -3.0170   21.5530  133.6710 O.3    24  C24        -0.3307
    286  C3'       -3.4130   20.3330  131.7070 C.3    24  C24         0.1860
    287  O3'       -4.3550   20.1380  130.6430 O.3    24  C24        -0.3112
    288  C2'       -2.3780   21.4080  131.3790 C.3    24  C24         0.2309
    289  O2'       -2.8980   22.4680  130.6140 O.3    24  C24        -0.2156
    290  C1'       -1.9920   21.9270  132.7700 C.3    24  C24         0.2420
    291  N1        -0.7170   21.3710  133.2430 N.ar   24  C24        -0.2535
    292  C2         0.3800   22.2300  133.4050 C.ar   24  C24         0.3532
    293  O2         0.2300   23.4440  133.2060 O.2    24  C24        -0.2443
    294  N3         1.5740   21.7140  133.7810 N.ar   24  C24        -0.1739
    295  C4         1.6900   20.4070  134.0070 C.ar   24  C24         0.1759
    296  N4         2.8790   19.9410  134.3750 N.pl3  24  C24        -0.1070
    297  C5         0.5880   19.5160  133.8680 C.ar   24  C24         0.0566
    298  C6        -0.5880   20.0350  133.4930 C.ar   24  C24         0.0850
    299  OP1       -5.2010   18.1980  136.1650 O.3    24  C24        -0.4373
    300  OP2       -4.6410   16.4580  134.3550 O.co2  24  C24        -0.5172
    301  P         -4.5640   18.6650  130.0000 P.3    25  U25         0.2141
    302  C5'       -2.8940   19.5370  128.1710 C.3    25  U25         0.1812
    303  O5'       -3.3000   18.4800  129.0370 O.3    25  U25        -0.3114
    304  C4'       -1.6620   19.1530  127.3750 C.3    25  U25         0.1773
    305  O4'       -0.4920   19.0670  128.2310 O.3    25  U25        -0.3307
    306  C3'       -1.6570   17.8040  126.6830 C.3    25  U25         0.1860
    307  O3'       -2.4340   17.8020  125.4960 O.3    25  U25        -0.3112
    308  C2'       -0.1770   17.6400  126.3590 C.3    25  U25         0.2309
    309  O2'        0.2240   18.3790  125.2200 O.3    25  U25        -0.2156
    310  C1'        0.4750   18.2260  127.6150 C.3    25  U25         0.2420
    311  N1         0.8660   17.1580  128.5460 N.ar   25  U25        -0.2534
    312  C2         1.8840   16.3220  128.1440 C.ar   25  U25         0.3546
    313  O2         2.4720   16.4610  127.0930 O.2    25  U25        -0.2443
    314  N3         2.1870   15.3140  129.0100 N.ar   25  U25        -0.1530
    315  C4         1.5990   15.0630  130.2090 C.ar   25  U25         0.2846
    316  O4         1.9880   14.1090  130.8760 O.2    25  U25        -0.2650
    317  C5         0.5650   15.9780  130.5710 C.ar   25  U25         0.0814
    318  C6         0.2430   16.9720  129.7480 C.ar   25  U25         0.0870
    319  OP1       -5.7820   18.7340  129.1460 O.2    25  U25        -0.5172
    320  OP2       -4.4950   17.6570  131.0980 O.co2  25  U25        -0.4373
    321  P         -2.8070   16.4040  124.7950 P.3    26  U26         0.2141
    322  C5'       -0.8380   16.3650  123.0720 C.3    26  U26         0.1812
    323  O5'       -1.4130   15.8390  124.2660 O.3    26  U26        -0.3114
    324  C4'        0.3850   15.5720  122.6600 C.3    26  U26         0.1773
    325  O4'        1.3700   15.5930  123.7310 O.3    26  U26        -0.3307
    326  C3'        0.1890   14.0900  122.3900 C.3    26  U26         0.1860
    327  O3'       -0.3610   13.8380  121.1000 O.3    26  U26        -0.3112
    328  C2'        1.6140   13.5710  122.5200 C.3    26  U26         0.2309
    329  O2'        2.4140   13.8480  121.3870 O.3    26  U26        -0.2156
    330  C1'        2.1010   14.3750  123.7260 C.3    26  U26         0.2420
    331  N1         1.8060   13.6600  124.9730 N.ar   26  U26        -0.2534
    332  C2         2.6190   12.6050  125.3090 C.ar   26  U26         0.3546
    333  O2         3.5710   12.2630  124.6310 O.2    26  U26        -0.2443
    334  N3         2.2790   11.9580  126.4670 N.ar   26  U26        -0.1530
    335  C4         1.2330   12.2590  127.3040 C.ar   26  U26         0.2846
    336  O4         1.0520   11.5780  128.3110 O.2    26  U26        -0.2650
    337  C5         0.4430   13.3720  126.8920 C.ar   26  U26         0.0814
    338  C6         0.7510   14.0200  125.7680 C.ar   26  U26         0.0870
    339  OP1       -3.6360   16.7490  123.6080 O.2    26  U26        -0.5172
    340  OP2       -3.3360   15.4590  125.8070 O.co2  26  U26        -0.4373
    341  P         -1.2100   12.4920  120.8470 P.3    27  C27         0.2141
    342  C5'        0.8680   11.4010  119.6450 C.3    27  C27         0.1812
    343  O5'       -0.0980   11.3560  120.6980 O.3    27  C27        -0.3114
    344  C4'        1.9080   10.3130  119.8290 C.3    27  C27         0.1773
    345  O4'        2.6200   10.5350  121.0800 O.3    27  C27        -0.3307
    346  C3'        1.3710    8.8950  119.9600 C.3    27  C27         0.1860
    347  O3'        1.0830    8.3060  118.6950 O.3    27  C27        -0.3112
    348  C2'        2.5060    8.1910  120.7020 C.3    27  C27         0.2309
    349  O2'        3.5910    7.7780  119.8930 O.3    27  C27        -0.2156
    350  C1'        2.9460    9.2850  121.6790 C.3    27  C27         0.2420
    351  N1         2.2300    9.1800  122.9650 N.ar   27  C27        -0.2535
    352  C2         2.6750    8.2520  123.9190 C.ar   27  C27         0.3532
    353  O2         3.6800    7.5610  123.6670 O.2    27  C27        -0.2443
    354  N3         2.0030    8.1330  125.0880 N.ar   27  C27        -0.1739
    355  C4         0.9370    8.8980  125.3250 C.ar   27  C27         0.1759
    356  N4         0.3090    8.7510  126.4900 N.pl3  27  C27        -0.1070
    357  C5         0.4680    9.8500  124.3780 C.ar   27  C27         0.0566
    358  C6         1.1390    9.9610  123.2230 C.ar   27  C27         0.0850
    359  OP1       -1.9060   12.6590  119.5390 O.2    27  C27        -0.5172
    360  OP2       -2.0060   12.2110  122.0720 O.co2  27  C27        -0.4373
    361  P         -0.2240    7.3770  118.5230 P.3    28  U28         0.2141
    362  C5'       -2.6860    7.6260  119.4620 C.3    28  U28         0.1812
    363  O5'       -1.3100    8.0260  119.4990 O.3    28  U28        -0.3114
    364  C4'       -3.1450    7.2220  120.8500 C.3    28  U28         0.1773
    365  O4'       -2.3620    6.0710  121.2360 O.3    28  U28        -0.3307
    366  C3'       -2.9030    8.2730  121.9320 C.3    28  U28         0.1860
    367  O3'       -4.0400    9.0900  122.2730 O.3    28  U28        -0.3112
    368  C2'       -2.5940    7.4500  123.1890 C.3    28  U28         0.2309
    369  O2'       -3.7190    7.2090  124.0110 O.3    28  U28        -0.2156
    370  C1'       -2.1070    6.1150  122.6220 C.3    28  U28         0.2420
    371  N1        -0.7060    5.7480  122.8690 N.ar   28  U28        -0.2534
    372  C2        -0.3850    5.2550  124.1180 C.ar   28  U28         0.3546
    373  O2        -1.1890    5.1770  125.0250 O.2    28  U28        -0.2443
    374  N3         0.9130    4.8550  124.2640 N.ar   28  U28        -0.1530
    375  C4         1.9030    4.9080  123.3120 C.ar   28  U28         0.2846
    376  O4         3.0270    4.4950  123.5870 O.2    28  U28        -0.2650
    377  C5         1.4990    5.4560  122.0580 C.ar   28  U28         0.0814
    378  C6         0.2400    5.8540  121.8880 C.ar   28  U28         0.0870
    379  OP1        0.1430    6.0320  119.0400 O.3    28  U28        -0.4373
    380  OP2       -0.7130    7.5210  117.1220 O.co2  28  U28        -0.5172
    381  P         -5.3210    9.2420  121.2850 P.3    29  G29         0.2141
    382  C5'       -7.6090    9.2070  122.5660 C.3    29  G29         0.1812
    383  O5'       -6.4900    8.4890  122.0590 O.3    29  G29        -0.3114
    384  C4'       -8.6280    8.2530  123.1530 C.3    29  G29         0.1773
    385  O4'       -9.1570    7.3830  122.1080 O.3    29  G29        -0.3307
    386  C3'       -8.1070    7.2870  124.2050 C.3    29  G29         0.1860
    387  O3'       -8.0360    7.8970  125.4870 O.3    29  G29        -0.3112
    388  C2'       -9.1510    6.1820  124.1390 C.3    29  G29         0.2309
    389  O2'      -10.3670    6.5450  124.7700 O.3    29  G29        -0.2156
    390  C1'       -9.3460    6.0720  122.6240 C.3    29  G29         0.2408
    391  N1        -7.5690    1.3340  122.1150 N.ar   29  G29        -0.1709
    392  C2        -8.6930    1.7680  122.7630 C.ar   29  G29         0.2606
    393  N2        -9.4140    0.8220  123.3790 N.pl3  29  G29        -0.0859
    394  N3        -9.0800    3.0340  122.8070 N.ar   29  G29        -0.1918
    395  C4        -8.2280    3.8420  122.1420 C.ar   29  G29         0.1723
    396  C5        -7.0780    3.5030  121.4610 C.ar   29  G29         0.1748
    397  C6        -6.6820    2.1450  121.4230 C.ar   29  G29         0.3023
    398  O6        -5.6950    1.6490  120.8780 O.2    29  G29        -0.2633
    399  N7        -6.4800    4.6280  120.9080 N.ar   29  G29        -0.2173
    400  C8        -7.2610    5.6140  121.2580 C.ar   29  G29         0.1817
    401  N9        -8.3300    5.2120  122.0230 N.ar   29  G29        -0.2693
    402  OP1       -5.1490    8.5430  119.9860 O.2    29  G29        -0.5172
    403  OP2       -5.6830   10.6810  121.2940 O.co2  29  G29        -0.4373
    404  P         -6.9140    7.4190  126.5300 P.3    30  C30         0.2141
    405  C5'       -8.6620    5.9710  127.8270 C.3    30  C30         0.1812
    406  O5'       -7.4760    6.0270  127.0530 O.3    30  C30        -0.3114
    407  C4'       -8.8570    4.5800  128.3640 C.3    30  C30         0.1773
    408  O4'       -9.1270    3.6710  127.2620 O.3    30  C30        -0.3307
    409  C3'       -7.6470    3.9590  129.0430 C.3    30  C30         0.1860
    410  O3'       -7.4970    4.4200  130.3830 O.3    30  C30        -0.3112
    411  C2'       -8.0080    2.4830  128.9700 C.3    30  C30         0.2309
    412  O2'       -9.0200    2.1330  129.8930 O.3    30  C30        -0.2156
    413  C1'       -8.5700    2.3960  127.5500 C.3    30  C30         0.2420
    414  N1        -7.4990    2.1210  126.5780 N.ar   30  C30        -0.2535
    415  C2        -7.1830    0.7930  126.2900 C.ar   30  C30         0.3532
    416  O2        -7.8410   -0.1060  126.8320 O.2    30  C30        -0.2443
    417  N3        -6.1730    0.5240  125.4310 N.ar   30  C30        -0.1739
    418  C4        -5.4950    1.5230  124.8650 C.ar   30  C30         0.1759
    419  N4        -4.5020    1.2130  124.0360 N.pl3  30  C30        -0.1070
    420  C5        -5.8050    2.8880  125.1270 C.ar   30  C30         0.0566
    421  C6        -6.8080    3.1390  125.9800 C.ar   30  C30         0.0850
    422  OP1       -6.9030    8.3650  127.6730 O.3    30  C30        -0.4373
    423  OP2       -5.6570    7.1540  125.7870 O.co2  30  C30        -0.5172
    424  P         -6.0370    4.4550  131.0640 P.3    31  G31         0.2141
    425  C5'       -6.2800    1.9210  131.6570 C.3    31  G31         0.1812
    426  O5'       -5.5500    2.9450  130.9920 O.3    31  G31        -0.3114
    427  C4'       -5.6650    0.5800  131.3710 C.3    31  G31         0.1773
    428  O4'       -5.8040    0.2850  129.9540 O.3    31  G31        -0.3307
    429  C3'       -4.1670    0.5070  131.6190 C.3    31  G31         0.1860
    430  O3'       -3.8760    0.2430  132.9900 O.3    31  G31        -0.3112
    431  C2'       -3.7620   -0.6520  130.7190 C.3    31  G31         0.2309
    432  O2'       -4.0740   -1.9020  131.3040 O.3    31  G31        -0.2156
    433  C1'       -4.6510   -0.4060  129.4960 C.3    31  G31         0.2408
    434  N1        -1.0590   -0.1800  125.9040 N.ar   31  G31        -0.1709
    435  C2        -1.3800   -1.2150  126.7490 C.ar   31  G31         0.2606
    436  N2        -0.6540   -2.3380  126.6160 N.pl3  31  G31        -0.0859
    437  N3        -2.3420   -1.1560  127.6570 N.ar   31  G31        -0.1918
    438  C4        -2.9680    0.0380  127.6500 C.ar   31  G31         0.1723
    439  C5        -2.7230    1.1320  126.8480 C.ar   31  G31         0.1748
    440  C6        -1.6920    1.0560  125.8800 C.ar   31  G31         0.3023
    441  O6        -1.3290    1.9190  125.0720 O.2    31  G31        -0.2633
    442  N7        -3.5890    2.1700  127.1560 N.ar   31  G31        -0.2173
    443  C8        -4.3320    1.6980  128.1200 C.ar   31  G31         0.1817
    444  N9        -4.0110    0.4090  128.4670 N.ar   31  G31        -0.2693
    445  OP1       -6.2580    4.7640  132.5000 O.3    31  G31        -0.4373
    446  OP2       -5.1110    5.3040  130.2650 O.co2  31  G31        -0.5172
    447  P         -2.5600    0.8820  133.6640 P.3    32  U32         0.2141
    448  C5'       -1.1380   -1.0040  132.5310 C.3    32  U32         0.1812
    449  O5'       -1.3720    0.3880  132.7270 O.3    32  U32        -0.3114
    450  C4'       -0.0230   -1.2110  131.5380 C.3    32  U32         0.1773
    451  O4'       -0.4540   -0.8580  130.1990 O.3    32  U32        -0.3307
    452  C3'        1.2020   -0.3530  131.7860 C.3    32  U32         0.1860
    453  O3'        2.0000   -0.9770  132.7840 O.3    32  U32        -0.3112
    454  C2'        1.8590   -0.3220  130.4070 C.3    32  U32         0.2309
    455  O2'        2.6240   -1.4750  130.1300 O.3    32  U32        -0.2156
    456  C1'        0.6370   -0.3050  129.4820 C.3    32  U32         0.2420
    457  N1         0.2470    1.0330  129.0190 N.ar   32  U32        -0.2534
    458  C2         0.8910    1.5500  127.9060 C.ar   32  U32         0.3546
    459  O2         1.7740    0.9550  127.3150 O.2    32  U32        -0.2443
    460  N3         0.4590    2.7920  127.5130 N.ar   32  U32        -0.1530
    461  C4        -0.5240    3.5560  128.1080 C.ar   32  U32         0.2846
    462  O4        -0.8100    4.6540  127.6320 O.2    32  U32        -0.2650
    463  C5        -1.1320    2.9580  129.2580 C.ar   32  U32         0.0814
    464  C6        -0.7340    1.7480  129.6640 C.ar   32  U32         0.0870
    465  OP1       -2.3880    0.2320  134.9880 O.3    32  U32        -0.4373
    466  OP2       -2.6460    2.3640  133.5780 O.co2  32  U32        -0.5172
    467  P          2.9950   -0.0960  133.6860 P.3    33  G33         0.2141
    468  C5'        5.2060    0.9600  132.7010 C.3    33  G33         0.1812
    469  O5'        4.3750   -0.1870  132.8860 O.3    33  G33        -0.3114
    470  C4'        5.8380    0.9340  131.3250 C.3    33  G33         0.1773
    471  O4'        4.7950    0.9320  130.3130 O.3    33  G33        -0.3307
    472  C3'        6.6800    2.1540  130.9910 C.3    33  G33         0.1860
    473  O3'        8.0100    2.0030  131.4710 O.3    33  G33        -0.3112
    474  C2'        6.6220    2.1950  129.4680 C.3    33  G33         0.2309
    475  O2'        7.5190    1.2950  128.8480 O.3    33  G33        -0.2156
    476  C1'        5.1880    1.7400  129.2120 C.3    33  G33         0.2408
    477  N1         3.6640    5.7730  126.4970 N.ar   33  G33        -0.1709
    478  C2         4.7610    4.9670  126.3100 C.ar   33  G33         0.2606
    479  N2         5.5380    5.2650  125.2550 N.pl3  33  G33        -0.0859
    480  N3         5.0740    3.9460  127.0990 N.ar   33  G33        -0.1918
    481  C4         4.1900    3.7990  128.1080 C.ar   33  G33         0.1723
    482  C5         3.0670    4.5520  128.3820 C.ar   33  G33         0.1748
    483  C6         2.7410    5.6370  127.5290 C.ar   33  G33         0.3023
    484  O6         1.7860    6.4140  127.6060 O.2    33  G33        -0.2633
    485  N7         2.4210    4.0780  129.5130 N.ar   33  G33        -0.2173
    486  C8         3.1440    3.0630  129.8980 C.ar   33  G33         0.1817
    487  N9         4.2240    2.8280  129.0830 N.ar   33  G33        -0.2693
    488  OP1        3.1390   -0.8240  134.9720 O.3    33  G33        -0.4373
    489  OP2        2.5250    1.3160  133.6940 O.co2  33  G33        -0.5172
    490  P          8.8750    3.3110  131.8240 P.3    34  A34         0.2141
    491  C5'        9.8660    5.1460  130.2470 C.3    34  A34         0.1812
    492  O5'        9.4420    3.8000  130.4170 O.3    34  A34        -0.3114
    493  C4'        9.6790    5.5810  128.8160 C.3    34  A34         0.1773
    494  O4'        8.3310    5.2560  128.3870 O.3    34  A34        -0.3307
    495  C3'        9.7760    7.0820  128.5940 C.3    34  A34         0.1860
    496  O3'       11.1200    7.5400  128.4960 O.3    34  A34        -0.3112
    497  C2'        9.0020    7.2610  127.2960 C.3    34  A34         0.2309
    498  O2'        9.7690    6.9400  126.1530 O.3    34  A34        -0.2156
    499  C1'        7.8680    6.2490  127.4840 C.3    34  A34         0.2408
    500  N1         4.3250    9.9530  126.9770 N.ar   34  A34        -0.2040
    501  C2         5.4070    9.6360  126.2570 C.ar   34  A34         0.2016
    502  N3         6.2920    8.6560  126.4460 N.ar   34  A34        -0.2048
    503  C4         5.9770    7.9310  127.5330 C.ar   34  A34         0.1692
    504  C5         4.8980    8.1290  128.3730 C.ar   34  A34         0.1518
    505  C6         4.0320    9.2050  128.0620 C.ar   34  A34         0.1919
    506  N6         2.9450    9.5190  128.7740 N.pl3  34  A34        -0.1054
    507  N7         4.8940    7.1840  129.3930 N.ar   34  A34        -0.2193
    508  C8         5.9530    6.4510  129.1500 C.ar   34  A34         0.1816
    509  N9         6.6530    6.8460  128.0390 N.ar   34  A34        -0.2693
    510  OP1       10.0170    2.8870  132.6790 O.3    34  A34        -0.4373
    511  OP2        7.9310    4.3510  132.3180 O.co2  34  A34        -0.5172
    512  P         11.5720    8.8290  129.3430 P.3    35  A35         0.2141
    513  C5'       11.5630   10.3330  127.2030 C.3    35  A35         0.1812
    514  O5'       11.0420   10.0720  128.4980 O.3    35  A35        -0.3114
    515  C4'       10.7650   11.4160  126.5150 C.3    35  A35         0.1773
    516  O4'        9.4050   10.9620  126.2580 O.3    35  A35        -0.3307
    517  C3'       10.5430   12.6890  127.3010 C.3    35  A35         0.1860
    518  O3'       11.7010   13.4980  127.3400 O.3    35  A35        -0.3112
    519  C2'        9.3910   13.3160  126.5300 C.3    35  A35         0.2309
    520  O2'        9.7850   13.9020  125.3060 O.3    35  A35        -0.2156
    521  C1'        8.5280   12.0820  126.2560 C.3    35  A35         0.2408
    522  N1         4.1650   13.8640  128.2500 N.ar   35  A35        -0.2040
    523  C2         4.9090   14.2540  127.2120 C.ar   35  A35         0.2016
    524  N3         6.0430   13.7360  126.7480 N.ar   35  A35        -0.2048
    525  C4         6.4140   12.6750  127.4840 C.ar   35  A35         0.1692
    526  C5         5.7550   12.1540  128.5800 C.ar   35  A35         0.1518
    527  C6         4.5680   12.7990  128.9700 C.ar   35  A35         0.1919
    528  N6         3.8280   12.4260  130.0040 N.pl3  35  A35        -0.1054
    529  N7         6.4390   11.0570  129.0880 N.ar   35  A35        -0.2193
    530  C8         7.4820   10.9420  128.2980 C.ar   35  A35         0.1816
    531  N9         7.5270   11.8900  127.3050 N.ar   35  A35        -0.2693
    532  OP1       13.0580    8.8880  129.3790 O.2    35  A35        -0.5172
    533  OP2       10.8020    8.7630  130.6130 O.co2  35  A35        -0.4373
    534  P         12.0890   14.2360  128.7110 P.3    36  G36         0.2141
    535  C5'       10.9440   16.3340  127.6700 C.3    36  G36         0.1812
    536  O5'       11.0610   15.4450  128.7690 O.3    36  G36        -0.3114
    537  C4'        9.6320   17.0600  127.7380 C.3    36  G36         0.1773
    538  O4'        8.5320   16.1080  127.6010 O.3    36  G36        -0.3307
    539  C3'        9.3640   17.6930  129.0830 C.3    36  G36         0.1860
    540  O3'       10.1040   18.8910  129.2760 O.3    36  G36        -0.3112
    541  C2'        7.8530   17.8620  129.0340 C.3    36  G36         0.2309
    542  O2'        7.4430   18.9250  128.2070 O.3    36  G36        -0.2156
    543  C1'        7.4420   16.5210  128.4180 C.3    36  G36         0.2408
    544  N1         4.5920   15.2180  132.3750 N.ar   36  G36        -0.1709
    545  C2         4.4670   16.2820  131.5090 C.ar   36  G36         0.2606
    546  N2         3.4660   17.1530  131.7430 N.pl3  36  G36        -0.0859
    547  N3         5.2700   16.4890  130.4850 N.ar   36  G36        -0.1918
    548  C4         6.2360   15.5540  130.4010 C.ar   36  G36         0.1723
    549  C5         6.4570   14.4640  131.2120 C.ar   36  G36         0.1748
    550  C6         5.5790   14.2350  132.2970 C.ar   36  G36         0.3023
    551  O6         5.6020   13.3120  133.1190 O.2    36  G36        -0.2633
    552  N7         7.5610   13.7450  130.7820 N.ar   36  G36        -0.2173
    553  C8         7.9850   14.4040  129.7370 C.ar   36  G36         0.1817
    554  N9         7.2320   15.5220  129.4640 N.ar   36  G36        -0.2693
    555  OP1       13.4500   14.8140  128.5850 O.2    36  G36        -0.5172
    556  OP2       11.7880   13.2950  129.8260 O.co2  36  G36        -0.4373
    557  P         10.8170   19.1560  130.6990 P.3    37  G37         0.2141
    558  C5'        8.7570   20.7000  131.2090 C.3    37  G37         0.1812
    559  O5'        9.6150   19.6430  131.6280 O.3    37  G37        -0.3114
    560  C4'        7.5710   20.8170  132.1350 C.3    37  G37         0.1773
    561  O4'        6.7270   19.6350  132.0150 O.3    37  G37        -0.3307
    562  C3'        7.8790   20.8550  133.6220 C.3    37  G37         0.1860
    563  O3'        8.3400   22.1210  134.0690 O.3    37  G37        -0.3112
    564  C2'        6.5200   20.5030  134.2050 C.3    37  G37         0.2309
    565  O2'        5.5990   21.5790  134.1110 O.3    37  G37        -0.2156
    566  C1'        6.0990   19.3730  133.2670 C.3    37  G37         0.2408
    567  N1         5.3040   15.7340  136.7040 N.ar   37  G37        -0.1709
    568  C2         4.5920   16.8820  136.4640 C.ar   37  G37         0.2606
    569  N2         3.5360   17.1030  137.2490 N.pl3  37  G37        -0.0859
    570  N3         4.8930   17.7520  135.5160 N.ar   37  G37        -0.1918
    571  C4         5.9840   17.3760  134.8110 C.ar   37  G37         0.1723
    572  C5         6.7650   16.2480  134.9660 C.ar   37  G37         0.1748
    573  C6         6.4280   15.3200  135.9880 C.ar   37  G37         0.3023
    574  O6         6.9960   14.2550  136.2840 O.2    37  G37        -0.2633
    575  N7         7.7990   16.2330  134.0440 N.ar   37  G37        -0.2173
    576  C8         7.6330   17.3320  133.3530 C.ar   37  G37         0.1817
    577  N9         6.5560   18.0780  133.7760 N.ar   37  G37        -0.2693
    578  OP1       11.7840   20.2740  130.5340 O.2    37  G37        -0.5172
    579  OP2       11.2940   17.8390  131.2210 O.co2  37  G37        -0.4373
    580  P          9.3710   22.1930  135.3020 P.3    38  C38         0.2141
    581  C5'        7.4190   22.6050  137.0230 C.3    38  C38         0.1812
    582  O5'        8.5060   21.7820  136.5810 O.3    38  C38        -0.3114
    583  C4'        6.9040   22.1450  138.3710 C.3    38  C38         0.1773
    584  O4'        6.1970   20.8750  138.2450 O.3    38  C38        -0.3307
    585  C3'        7.9560   21.8460  139.4230 C.3    38  C38         0.1860
    586  O3'        8.5360   23.0090  140.0210 O.3    38  C38        -0.3112
    587  C2'        7.1630   20.9910  140.3980 C.3    38  C38         0.2309
    588  O2'        6.2600   21.7820  141.1390 O.3    38  C38        -0.2156
    589  C1'        6.3790   20.1030  139.4300 C.3    38  C38         0.2420
    590  N1         7.0970   18.8530  139.0780 N.ar   38  C38        -0.2535
    591  C2         6.9820   17.7300  139.9200 C.ar   38  C38         0.3532
    592  O2         6.2980   17.8160  140.9560 O.2    38  C38        -0.2443
    593  N3         7.6240   16.5860  139.5830 N.ar   38  C38        -0.1739
    594  C4         8.3610   16.5390  138.4700 C.ar   38  C38         0.1759
    595  N4         8.9760   15.3890  138.1660 N.pl3  38  C38        -0.1070
    596  C5         8.5020   17.6640  137.6140 C.ar   38  C38         0.0566
    597  C6         7.8610   18.7840  137.9490 C.ar   38  C38         0.0850
    598  OP1        9.7450   23.6260  135.4950 O.3    38  C38        -0.4373
    599  OP2       10.4300   21.1680  135.0700 O.co2  38  C38        -0.5172
    600  P         10.1400   23.0820  140.1800 P.3    39  U39         0.2141
    601  C5'        9.6280   22.8820  142.7340 C.3    39  U39         0.1812
    602  O5'       10.4090   22.4740  141.6240 O.3    39  U39        -0.3114
    603  C4'        9.7300   21.8640  143.8300 C.3    39  U39         0.1773
    604  O4'        9.0010   20.6680  143.4580 O.3    39  U39        -0.3307
    605  C3'       11.1330   21.3580  144.1060 C.3    39  U39         0.1860
    606  O3'       11.8590   22.2820  144.9210 O.3    39  U39        -0.3112
    607  C2'       10.8550   20.0300  144.8080 C.3    39  U39         0.2309
    608  O2'       10.5750   20.1820  146.1850 O.3    39  U39        -0.2156
    609  C1'        9.5930   19.5450  144.0860 C.3    39  U39         0.2420
    610  N1         9.8440   18.5150  143.0690 N.ar   39  U39        -0.2534
    611  C2         9.7980   17.1940  143.4730 C.ar   39  U39         0.3546
    612  O2         9.5390   16.8580  144.6120 O.2    39  U39        -0.2443
    613  N3        10.0660   16.2770  142.4910 N.ar   39  U39        -0.1530
    614  C4        10.3650   16.5380  141.1750 C.ar   39  U39         0.2846
    615  O4        10.6100   15.5990  140.4190 O.2    39  U39        -0.2650
    616  C5        10.3790   17.9230  140.8300 C.ar   39  U39         0.0814
    617  C6        10.1230   18.8430  141.7660 C.ar   39  U39         0.0870
    618  OP1       10.5590   24.5000  140.1610 O.3    39  U39        -0.4373
    619  OP2       10.7170   22.1320  139.1920 O.co2  39  U39        -0.5172
    620  P         13.4590   22.3970  144.7710 P.3    40  G40         0.2141
    621  C5'       13.6910   20.7090  146.7580 C.3    40  G40         0.1812
    622  O5'       13.9920   21.0380  145.4080 O.3    40  G40        -0.3114
    623  C4'       14.0770   19.2810  147.0480 C.3    40  G40         0.1773
    624  O4'       13.2020   18.3710  146.3270 O.3    40  G40        -0.3307
    625  C3'       15.4750   18.8670  146.6180 C.3    40  G40         0.1860
    626  O3'       16.4420   19.2730  147.5830 O.3    40  G40        -0.3112
    627  C2'       15.3300   17.3520  146.5610 C.3    40  G40         0.2309
    628  O2'       15.3410   16.7690  147.8480 O.3    40  G40        -0.2156
    629  C1'       13.9280   17.2080  145.9610 C.3    40  G40         0.2408
    630  N1        13.6480   14.0850  141.9690 N.ar   40  G40        -0.1709
    631  C2        13.4590   13.8150  143.2940 C.ar   40  G40         0.2606
    632  N2        13.1800   12.5410  143.5960 N.pl3  40  G40        -0.0859
    633  N3        13.5330   14.7250  144.2510 N.ar   40  G40        -0.1918
    634  C4        13.8040   15.9540  143.7610 C.ar   40  G40         0.1723
    635  C5        13.9970   16.3320  142.4540 C.ar   40  G40         0.1748
    636  C6        13.9280   15.3340  141.4390 C.ar   40  G40         0.3023
    637  O6        14.0820   15.4560  140.2230 O.2    40  G40        -0.2633
    638  N7        14.2410   17.6960  142.3680 N.ar   40  G40        -0.2173
    639  C8        14.2040   18.1140  143.6030 C.ar   40  G40         0.1817
    640  N9        13.9640   17.1060  144.5020 N.ar   40  G40        -0.2693
    641  OP1       13.9280   23.5080  145.6490 O.3    40  G40        -0.4373
    642  OP2       13.8150   22.4110  143.3250 O.co2  40  G40        -0.5172
    643  P         17.9900   19.4410  147.1570 P.3    41  A41         0.2141
    644  C5'       19.7890   17.7260  146.2920 C.3    41  A41         0.1812
    645  O5'       18.5020   17.9560  146.8690 O.3    41  A41        -0.3114
    646  C4'       20.1130   16.2450  146.2670 C.3    41  A41         0.1773
    647  O4'       20.2180   15.7350  147.6230 O.3    41  A41        -0.3307
    648  C3'       19.0960   15.3220  145.6110 C.3    41  A41         0.1860
    649  O3'       19.2870   15.2970  144.2050 O.3    41  A41        -0.3112
    650  C2'       19.4680   13.9710  146.2100 C.3    41  A41         0.2309
    651  O2'       20.6070   13.4110  145.5830 O.3    41  A41        -0.2156
    652  C1'       19.8420   14.3650  147.6390 C.3    41  A41         0.2408
    653  N1        17.0810   11.0230  150.4210 N.ar   41  A41        -0.2040
    654  C2        17.9790   10.8460  149.4530 C.ar   41  A41         0.2016
    655  N3        18.6340   11.7540  148.7390 N.ar   41  A41        -0.2048
    656  C4        18.2840   12.9990  149.1100 C.ar   41  A41         0.1692
    657  C5        17.3700   13.3390  150.0830 C.ar   41  A41         0.1518
    658  C6        16.7410   12.2850  150.7620 C.ar   41  A41         0.1919
    659  N6        15.8290   12.4640  151.7150 N.pl3  41  A41        -0.1054
    660  N7        17.2590   14.7160  150.1890 N.ar   41  A41        -0.2193
    661  C8        18.1040   15.1720  149.3000 C.ar   41  A41         0.1816
    662  N9        18.7780   14.1900  148.6280 N.ar   41  A41        -0.2693
    663  OP1       18.6730   19.9500  148.3780 O.3    41  A41        -0.4373
    664  OP2       18.0800   20.2100  145.8900 O.co2  41  A41        -0.5172
    665  P         18.0170   15.2200  143.2240 P.3    42  G42         0.2141
    666  C5'       18.3590   12.6490  142.8070 C.3    42  G42         0.1812
    667  O5'       17.5480   13.7010  143.3290 O.3    42  G42        -0.3114
    668  C4'       17.9250   11.3180  143.3830 C.3    42  G42         0.1773
    669  O4'       18.0260   11.3870  144.8330 O.3    42  G42        -0.3307
    670  C3'       16.4810   10.9090  143.1070 C.3    42  G42         0.1860
    671  O3'       16.3990   10.1620  141.8970 O.3    42  G42        -0.3112
    672  C2'       16.1730   10.0100  144.2960 C.3    42  G42         0.2309
    673  O2'       16.7420    8.7250  144.1240 O.3    42  G42        -0.2156
    674  C1'       16.9070   10.7420  145.4240 C.3    42  G42         0.2408
    675  N1        13.7890   11.7250  149.3030 N.ar   42  G42        -0.1709
    676  C2        14.3290   10.5290  148.9080 C.ar   42  G42         0.2606
    677  N2        14.0110    9.4600  149.6530 N.pl3  42  G42        -0.0859
    678  N3        15.1210   10.3930  147.8630 N.ar   42  G42        -0.1918
    679  C4        15.3330   11.5660  147.2360 C.ar   42  G42         0.1723
    680  C5        14.8390   12.8120  147.5540 C.ar   42  G42         0.1748
    681  C6        13.9980   12.9450  148.6760 C.ar   42  G42         0.3023
    682  O6        13.4710   13.9630  149.1260 O.2    42  G42        -0.2633
    683  N7        15.2880   13.7650  146.6550 N.ar   42  G42        -0.2173
    684  C8        16.0430   13.0950  145.8260 C.ar   42  G42         0.1817
    685  N9        16.1210   11.7570  146.1280 N.ar   42  G42        -0.2693
    686  OP1       18.5370   15.4360  141.8570 O.2    42  G42        -0.5172
    687  OP2       16.9560   16.1200  143.7500 O.co2  42  G42        -0.4373
    688  P         15.3230   10.5680  140.7840 P.3    43  A43         0.2141
    689  C5'       13.6130    8.7480  141.6630 C.3    43  A43         0.1812
    690  O5'       13.9220   10.1200  141.3980 O.3    43  A43        -0.3114
    691  C4'       12.1140    8.5740  141.7640 C.3    43  A43         0.1773
    692  O4'       11.6100    9.4950  142.7510 O.3    43  A43        -0.3307
    693  C3'       11.3430    8.8980  140.4840 C.3    43  A43         0.1860
    694  O3'       11.0910    7.6730  139.7840 O.3    43  A43        -0.3112
    695  C2'       10.0000    9.4720  140.9640 C.3    43  A43         0.2309
    696  O2'        8.9020    8.5800  140.8580 O.3    43  A43        -0.2156
    697  C1'       10.2750    9.8250  142.4330 C.3    43  A43         0.2408
    698  N1         7.8250   12.6470  145.9050 N.ar   43  A43        -0.2040
    699  C2         7.9620   11.3300  145.7410 C.ar   43  A43         0.2016
    700  N3         8.6300   10.6650  144.8050 N.ar   43  A43        -0.2048
    701  C4         9.2170   11.5170  143.9470 C.ar   43  A43         0.1692
    702  C5         9.1690   12.8950  143.9850 C.ar   43  A43         0.1518
    703  C6         8.4300   13.4750  145.0280 C.ar   43  A43         0.1919
    704  N6         8.2950   14.7910  145.1990 N.pl3  43  A43        -0.1054
    705  N7         9.8950   13.4400  142.9360 N.ar   43  A43        -0.2193
    706  C8        10.3580   12.3910  142.2970 C.ar   43  A43         0.1816
    707  N9         9.9820   11.1960  142.8540 N.ar   43  A43        -0.2693
    708  OP1       15.5970    9.7560  139.5820 O.2    43  A43        -0.5172
    709  OP2       15.3290   12.0420  140.6820 O.co2  43  A43        -0.4373
    710  P         11.6680    7.4470  138.3070 P.3    44  A44         0.2141
    711  C5'       13.7860    5.8990  138.3490 C.3    44  A44         0.1812
    712  O5'       12.3640    6.0190  138.4000 O.3    44  A44        -0.3114
    713  C4'       14.2070    4.4910  138.6980 C.3    44  A44         0.1773
    714  O4'       13.8080    4.2250  140.0600 O.3    44  A44        -0.3307
    715  C3'       13.5550    3.3770  137.8810 C.3    44  A44         0.1860
    716  O3'       14.3220    2.9740  136.7310 O.3    44  A44        -0.3112
    717  C2'       13.5950    2.1790  138.8330 C.3    44  A44         0.2309
    718  O2'       14.7540    1.3920  138.6270 O.3    44  A44        -0.2156
    719  C1'       13.6390    2.8360  140.2190 C.3    44  A44         0.2408
    720  N1        11.6120   -0.2870  143.7330 N.ar   44  A44        -0.2040
    721  C2        12.7540   -0.3330  143.0310 C.ar   44  A44         0.2016
    722  N3        13.2140    0.5160  142.1160 N.ar   44  A44        -0.2048
    723  C4        12.3500    1.5290  141.9360 C.ar   44  A44         0.1692
    724  C5        11.1390    1.7150  142.5800 C.ar   44  A44         0.1518
    725  C6        10.7650    0.7460  143.5250 C.ar   44  A44         0.1919
    726  N6         9.6260    0.7940  144.2220 N.pl3  44  A44        -0.1054
    727  N7        10.5220    2.8760  142.1370 N.ar   44  A44        -0.2193
    728  C8        11.3580    3.3590  141.2480 C.ar   44  A44         0.1816
    729  N9        12.4890    2.5960  141.0840 N.ar   44  A44        -0.2693
    730  OP1       12.7310    8.4520  138.0710 O.3    44  A44        -0.4373
    731  OP2       10.5300    7.3530  137.3680 O.co2  44  A44        -0.5172
    732  P         15.3920    3.9780  136.0470 P.3    45  A45         0.2141
    733  C5'       17.5380    3.1890  137.3450 C.3    45  A45         0.1812
    734  O5'       16.5240    4.1680  137.1540 O.3    45  A45        -0.3114
    735  C4'       18.6480    3.7640  138.1900 C.3    45  A45         0.1773
    736  O4'       18.0850    4.2800  139.4220 O.3    45  A45        -0.3307
    737  C3'       19.7170    2.7800  138.6300 C.3    45  A45         0.1860
    738  O3'       20.7250    2.6800  137.6260 O.3    45  A45        -0.3112
    739  C2'       20.2460    3.4100  139.9160 C.3    45  A45         0.2309
    740  O2'       21.2170    4.4100  139.6870 O.3    45  A45        -0.2156
    741  C1'       18.9830    4.0530  140.4960 C.3    45  A45         0.2408
    742  N1        14.9630    3.8190  143.6580 N.ar   45  A45        -0.2040
    743  C2        15.4080    4.7770  142.8330 C.ar   45  A45         0.2016
    744  N3        16.4810    4.7770  142.0500 N.ar   45  A45        -0.2048
    745  C4        17.1480    3.6150  142.1640 C.ar   45  A45         0.1692
    746  C5        16.8160    2.5390  142.9700 C.ar   45  A45         0.1518
    747  C6        15.6640    2.6660  143.7530 C.ar   45  A45         0.1919
    748  N6        15.2310    1.7160  144.5850 N.pl3  45  A45        -0.1054
    749  N7        17.7360    1.5130  142.8270 N.ar   45  A45        -0.2193
    750  C8        18.5910    1.9790  141.9460 C.ar   45  A45         0.1816
    751  N9        18.2870    3.2410  141.4930 N.ar   45  A45        -0.2693
    752  OP1       14.7420    5.2930  135.7990 O.3    45  A45        -0.4373
    753  OP2       16.0200    3.2480  134.9080 O.co2  45  A45        -0.5172
    754  P         21.7310    1.4260  137.6270 P.3    46  U46         0.2141
    755  C5'       23.4330    0.7320  139.5260 C.3    46  U46         0.1812
    756  O5'       22.7470    1.7610  138.8100 O.3    46  U46        -0.3114
    757  C4'       23.0500    0.7820  140.9890 C.3    46  U46         0.1773
    758  O4'       21.6270    0.5100  141.0890 O.3    46  U46        -0.3307
    759  C3'       23.7100   -0.2450  141.8990 C.3    46  U46         0.1860
    760  O3'       25.0700    0.1080  142.2400 O.3    46  U46        -0.3112
    761  C2'       22.6750   -0.4760  143.0060 C.3    46  U46         0.2309
    762  O2'       22.7340    0.3860  144.1210 O.3    46  U46        -0.2156
    763  C1'       21.3540   -0.2400  142.2600 C.3    46  U46         0.2420
    764  N1        20.6100   -1.4480  141.8690 N.ar   46  U46        -0.2534
    765  C2        19.5460   -1.8350  142.6700 C.ar   46  U46         0.3546
    766  O2        19.2130   -1.2250  143.6710 O.2    46  U46        -0.2443
    767  N3        18.8850   -2.9630  142.2530 N.ar   46  U46        -0.1530
    768  C4        19.1700   -3.7320  141.1430 C.ar   46  U46         0.2846
    769  O4        18.4800   -4.7270  140.9040 O.2    46  U46        -0.2650
    770  C5        20.2840   -3.2690  140.3660 C.ar   46  U46         0.0814
    771  C6        20.9490   -2.1710  140.7470 C.ar   46  U46         0.0870
    772  OP1       22.4820    1.4600  136.3410 O.2    46  U46        -0.5172
    773  OP2       20.9520    0.2090  137.9920 O.co2  46  U46        -0.4373
    774  P         25.4070    1.2000  143.3970 P.3    47  A47         0.2141
    775  C5'       25.2230    3.8130  143.4630 C.3    47  A47         0.1812
    776  O5'       24.9120    2.5920  142.7980 O.3    47  A47        -0.3114
    777  C4'       24.6430    4.9940  142.7160 C.3    47  A47         0.1773
    778  O4'       23.4410    4.6000  142.0050 O.3    47  A47        -0.3307
    779  C3'       24.2390    6.1280  143.6440 C.3    47  A47         0.1860
    780  O3'       25.3020    7.0650  143.7920 O.3    47  A47        -0.3112
    781  C2'       23.0230    6.7230  142.9490 C.3    47  A47         0.2309
    782  O2'       23.3780    7.6640  141.9570 O.3    47  A47        -0.2156
    783  C1'       22.3820    5.4740  142.3330 C.3    47  A47         0.2408
    784  N1        17.9930    5.2950  145.0740 N.ar   47  A47        -0.2040
    785  C2        18.4820    6.2310  144.2540 C.ar   47  A47         0.2016
    786  N3        19.6200    6.2340  143.5630 N.ar   47  A47        -0.2048
    787  C4        20.3040    5.0970  143.7760 C.ar   47  A47         0.1692
    788  C5        19.9240    4.0470  144.5860 C.ar   47  A47         0.1518
    789  C6        18.7080    4.1670  145.2620 C.ar   47  A47         0.1919
    790  N6        18.2260    3.2290  146.0780 N.pl3  47  A47        -0.1054
    791  N7        20.8730    3.0410  144.5620 N.ar   47  A47        -0.2193
    792  C8        21.7920    3.4980  143.7550 C.ar   47  A47         0.1816
    793  N9        21.5170    4.7350  143.2470 N.ar   47  A47        -0.2693
    794  OP1       26.8910    1.3170  143.4370 O.2    47  A47        -0.5172
    795  OP2       24.6760    0.9180  144.6610 O.co2  47  A47        -0.4373
    796  P         25.8040    7.4720  145.2640 P.3    48  C48         0.2141
    797  C5'       24.0380    9.4200  145.1490 C.3    48  C48         0.1812
    798  O5'       24.6000    8.3240  145.8660 O.3    48  C48        -0.3114
    799  C4'       22.7130    9.8100  145.7600 C.3    48  C48         0.1773
    800  O4'       21.6670    8.8650  145.3920 O.3    48  C48        -0.3307
    801  C3'       22.7040    9.7790  147.2740 C.3    48  C48         0.1860
    802  O3'       23.2710   10.9680  147.7960 O.3    48  C48        -0.3112
    803  C2'       21.2170    9.6750  147.5670 C.3    48  C48         0.2309
    804  O2'       20.5800   10.9200  147.3890 O.3    48  C48        -0.2156
    805  C1'       20.7630    8.7070  146.4750 C.3    48  C48         0.2420
    806  N1        20.8230    7.3100  146.9290 N.ar   48  C48        -0.2535
    807  C2        19.7180    6.7570  147.5960 C.ar   48  C48         0.3532
    808  O2        18.7010    7.4460  147.7590 O.2    48  C48        -0.2443
    809  N3        19.7910    5.4840  148.0460 N.ar   48  C48        -0.1739
    810  C4        20.9030    4.7700  147.8530 C.ar   48  C48         0.1759
    811  N4        20.9340    3.5200  148.3150 N.pl3  48  C48        -0.1070
    812  C5        22.0320    5.3040  147.1740 C.ar   48  C48         0.0566
    813  C6        21.9470    6.5630  146.7270 C.ar   48  C48         0.0850
    814  OP1       26.9800    8.3650  145.0900 O.2    48  C48        -0.5172
    815  OP2       25.9310    6.2340  146.0800 O.co2  48  C48        -0.4373
    816  P         24.1470   10.9080  149.1350 P.3    49  C49         0.2141
    817  C5'       22.0560   11.7060  150.4970 C.3    49  C49         0.1812
    818  O5'       23.0940   10.7510  150.3180 O.3    49  C49        -0.3114
    819  C4'       20.9710   11.1380  151.3730 C.3    49  C49         0.1773
    820  O4'       20.3230   10.0140  150.7110 O.3    49  C49        -0.3307
    821  C3'       21.4240   10.5050  152.6710 C.3    49  C49         0.1860
    822  O3'       21.7790   11.4770  153.6420 O.3    49  C49        -0.3112
    823  C2'       20.1780    9.7180  153.0490 C.3    49  C49         0.2309
    824  O2'       19.1410   10.5430  153.5170 O.3    49  C49        -0.2156
    825  C1'       19.7620    9.1590  151.6910 C.3    49  C49         0.2420
    826  N1        20.2940    7.8110  151.5150 N.ar   49  C49        -0.2535
    827  C2        19.5760    6.7380  152.0610 C.ar   49  C49         0.3532
    828  O2        18.5010    6.9660  152.6210 O.2    49  C49        -0.2443
    829  N3        20.0720    5.4860  151.9640 N.ar   49  C49        -0.1739
    830  C4        21.2360    5.2810  151.3410 C.ar   49  C49         0.1759
    831  N4        21.6960    4.0280  151.2750 N.pl3  49  C49        -0.1070
    832  C5        21.9820    6.3540  150.7580 C.ar   49  C49         0.0566
    833  C6        21.4740    7.5930  150.8660 C.ar   49  C49         0.0850
    834  OP1       24.7660   12.2540  149.2450 O.3    49  C49        -0.4373
    835  OP2       24.9950    9.6840  149.1120 O.co2  49  C49        -0.5172
    836  P         22.9980   11.1870  154.6510 P.3    50  C50         0.2141
    837  C5'       21.2620   10.5000  156.4790 C.3    50  C50         0.1812
    838  O5'       22.4020   10.1520  155.7040 O.3    50  C50        -0.3114
    839  C4'       20.6130    9.2700  157.0630 C.3    50  C50         0.1773
    840  O4'       20.2690    8.3410  155.9970 O.3    50  C50        -0.3307
    841  C3'       21.4410    8.4090  158.0030 C.3    50  C50         0.1860
    842  O3'       21.4800    8.9640  159.3080 O.3    50  C50        -0.3112
    843  C2'       20.6250    7.1260  157.9960 C.3    50  C50         0.2309
    844  O2'       19.4290    7.2810  158.7310 O.3    50  C50        -0.2156
    845  C1'       20.2580    7.0190  156.5160 C.3    50  C50         0.2420
    846  N1        21.2160    6.1990  155.7650 N.ar   50  C50        -0.2535
    847  C2        21.2770    4.8460  156.0450 C.ar   50  C50         0.3532
    848  O2        20.5190    4.3880  156.9130 O.2    50  C50        -0.2443
    849  N3        22.1550    4.0640  155.3720 N.ar   50  C50        -0.1739
    850  C4        22.9510    4.6040  154.4470 C.ar   50  C50         0.1759
    851  N4        23.8080    3.8010  153.8110 N.pl3  50  C50        -0.1070
    852  C5        22.9050    5.9910  154.1370 C.ar   50  C50         0.0566
    853  C6        22.0320    6.7450  154.8140 C.ar   50  C50         0.0850
    854  OP1       23.2570   12.4650  155.3570 O.3    50  C50        -0.4373
    855  OP2       24.1050   10.5080  153.9200 O.co2  50  C50        -0.5172
    856  P         22.6700    8.5610  160.3130 P.3    51  G51         0.2141
    857  C5'       21.2690    6.7330  161.5480 C.3    51  G51         0.1812
    858  O5'       22.3520    7.0490  160.6940 O.3    51  G51        -0.3114
    859  C4'       21.3200    5.2770  161.9290 C.3    51  G51         0.1773
    860  O4'       21.2120    4.4600  160.7420 O.3    51  G51        -0.3307
    861  C3'       22.6100    4.8050  162.5750 C.3    51  G51         0.1860
    862  O3'       22.5340    5.0400  163.9680 O.3    51  G51        -0.3112
    863  C2'       22.5860    3.3050  162.3100 C.3    51  G51         0.2309
    864  O2'       21.8690    2.5940  163.2940 O.3    51  G51        -0.2156
    865  C1'       21.8530    3.2220  160.9680 C.3    51  G51         0.2408
    866  N1        24.3810   -0.3500  158.4490 N.ar   51  G51        -0.1709
    867  C2        23.5360   -0.4640  159.5220 C.ar   51  G51         0.2606
    868  N2        23.3540   -1.6960  160.0070 N.pl3  51  G51        -0.0859
    869  N3        22.9130    0.5520  160.0850 N.ar   51  G51        -0.1918
    870  C4        23.2100    1.7160  159.4810 C.ar   51  G51         0.1723
    871  C5        24.0350    1.9430  158.4050 C.ar   51  G51         0.1748
    872  C6        24.7010    0.8380  157.8100 C.ar   51  G51         0.3023
    873  O6        25.4830    0.8330  156.8530 O.2    51  G51        -0.2633
    874  N7        24.0610    3.2930  158.0810 N.ar   51  G51        -0.2173
    875  C8        23.2770    3.8470  158.9600 C.ar   51  G51         0.1817
    876  N9        22.7390    2.9460  159.8450 N.ar   51  G51        -0.2693
    877  OP1       22.5000    9.3610  161.5580 O.3    51  G51        -0.4373
    878  OP2       23.9650    8.6200  159.5790 O.co2  51  G51        -0.5172
    879  P         23.8490    5.4590  164.7790 P.3    52  U52         0.2141
    880  C5'       22.6650    7.4020  166.1180 C.3    52  U52         0.1812
    881  O5'       23.2740    6.1060  166.1220 O.3    52  U52        -0.3114
    882  C4'       21.7700    7.5830  167.3330 C.3    52  U52         0.1773
    883  O4'       20.6220    6.7040  167.2210 O.3    52  U52        -0.3307
    884  C3'       22.4660    7.1970  168.6390 C.3    52  U52         0.1860
    885  O3'       22.3500    8.1470  169.6980 O.3    52  U52        -0.3112
    886  C2'       21.9980    5.7820  168.9670 C.3    52  U52         0.2309
    887  O2'       21.6700    5.6660  170.3290 O.3    52  U52        -0.2156
    888  C1'       20.6730    5.7100  168.2150 C.3    52  U52         0.2420
    889  N1        20.2490    4.4210  167.6540 N.ar   52  U52        -0.2534
    890  C2        19.6850    3.5190  168.5330 C.ar   52  U52         0.3546
    891  O2        19.5720    3.7490  169.7220 O.2    52  U52        -0.2443
    892  N3        19.2550    2.3430  167.9710 N.ar   52  U52        -0.1530
    893  C4        19.3360    1.9810  166.6400 C.ar   52  U52         0.2846
    894  O4        18.8980    0.8820  166.2810 O.2    52  U52        -0.2650
    895  C5        19.9500    2.9660  165.7930 C.ar   52  U52         0.0814
    896  C6        20.3780    4.1250  166.3200 C.ar   52  U52         0.0870
    897  OP1       24.5310    6.5040  163.9680 O.2    52  U52        -0.5172
    898  OP2       24.5780    4.2170  165.1490 O.co2  52  U52        -0.4373
    899  P         23.2600    9.4740  169.7050 P.3    53  A53         0.2141
    900  C5'       21.0960   10.8880  169.3090 C.3    53  A53         0.1812
    901  O5'       22.4090   10.5480  168.8980 O.3    53  A53        -0.3114
    902  C4'       20.2660   11.2380  168.1070 C.3    53  A53         0.1773
    903  O4'       20.2330   10.1200  167.1910 O.3    53  A53        -0.3307
    904  C3'       18.8050   11.5370  168.3770 C.3    53  A53         0.1860
    905  O3'       18.6980   12.9120  168.7390 O.3    53  A53        -0.3112
    906  C2'       18.1460   11.2770  167.0180 C.3    53  A53         0.2309
    907  O2'       18.1390   12.4280  166.1970 O.3    53  A53        -0.2156
    908  C1'       19.0750   10.2270  166.3940 C.3    53  A53         0.2408
    909  N1        16.8800    5.8830  168.1900 N.ar   53  A53        -0.2040
    910  C2        17.2920    6.9950  168.8170 C.ar   53  A53         0.2016
    911  N3        17.8590    8.0880  168.3140 N.ar   53  A53        -0.2048
    912  C4        17.9960    7.9730  166.9860 C.ar   53  A53         0.1692
    913  C5        17.6200    6.8910  166.2030 C.ar   53  A53         0.1518
    914  C6        17.0370    5.8010  166.8530 C.ar   53  A53         0.1919
    915  N6        16.6330    4.6940  166.2190 N.pl3  53  A53        -0.1054
    916  N7        17.9160    7.1200  164.8710 N.ar   53  A53        -0.2193
    917  C8        18.4550    8.3120  164.8720 C.ar   53  A53         0.1816
    918  N9        18.5330    8.8910  166.1170 N.ar   53  A53        -0.2693
    919  OP1       24.5070    9.2150  168.9290 O.2    53  A53        -0.5172
    920  OP2       23.3490    9.9500  171.1170 O.co2  53  A53        -0.4373
    921  P         17.4450   13.4210  169.6030 P.3    54  U54         0.2141
    922  C5'       16.2860   15.5210  168.5010 C.3    54  U54         0.1811
    923  O5'       17.3650   14.9770  169.2630 O.3    54  U54        -0.3114
    924  C4'       16.7970   16.6160  167.5950 C.3    54  U54         0.1752
    925  O4'       17.5870   17.5330  168.4030 O.3    54  U54        -0.3483
    926  C3'       17.7430   16.1530  166.4920 C.3    54  U54         0.1839
    927  O3'       17.0220   15.8030  165.3050 O.3    54  U54        -0.3113
    928  C2'       18.6180   17.3810  166.2670 C.3    54  U54         0.2112
    929  O2'       18.0130   18.3360  165.4190 O.3    54  U54        -0.2177
    930  C1'       18.7420   17.9360  167.6870 C.3    54  U54         0.1776
    931  OP1       17.8200   13.2720  171.0320 O.3    54  U54        -0.4373
    932  OP2       16.2140   12.7600  169.0890 O.co2  54  U54        -0.5172
    933  P         17.7920   15.0890  164.0740 P.3    55  C55         0.2141
    934  C5'       17.0720   16.2940  161.8360 C.3    55  C55         0.1811
    935  O5'       16.8220   15.2890  162.8210 O.3    55  C55        -0.3114
    936  C4'       18.1210   15.8150  160.8510 C.3    55  C55         0.1752
    937  O4'       19.4610   16.0950  161.3450 O.3    55  C55        -0.3483
    938  C3'       18.1310   14.3190  160.5950 C.3    55  C55         0.1839
    939  O3'       17.1490   13.9330  159.6520 O.3    55  C55        -0.3113
    940  C2'       19.5430   14.0790  160.0740 C.3    55  C55         0.2112
    941  O2'       19.6740   14.3500  158.6890 O.3    55  C55        -0.2177
    942  C1'       20.3540   15.0780  160.9110 C.3    55  C55         0.1776
    943  OP1       17.8360   13.6250  164.3270 O.3    55  C55        -0.4373
    944  OP2       19.0630   15.8300  163.8240 O.co2  55  C55        -0.5172
    945  P         16.3320   12.5820  159.8970 P.3    56  A56         0.2141
    946  C5'       16.8010   12.3210  157.3180 C.3    56  A56         0.1812
    947  O5'       15.9410   12.0850  158.4300 O.3    56  A56        -0.3114
    948  C4'       16.8160   11.1200  156.3950 C.3    56  A56         0.1773
    949  O4'       17.3680    9.9890  157.1130 O.3    56  A56        -0.3307
    950  C3'       15.4730   10.6020  155.8970 C.3    56  A56         0.1860
    951  O3'       14.9730   11.3510  154.7840 O.3    56  A56        -0.3112
    952  C2'       15.8220    9.1640  155.5170 C.3    56  A56         0.2309
    953  O2'       16.5230    9.0460  154.2900 O.3    56  A56        -0.2156
    954  C1'       16.7860    8.7940  156.6380 C.3    56  A56         0.2408
    955  N1        15.0460    4.2980  158.3370 N.ar   56  A56        -0.2040
    956  C2        15.5250    4.6870  157.1600 C.ar   56  A56         0.2016
    957  N3        15.9470    5.8880  156.7790 N.ar   56  A56        -0.2048
    958  C4        15.8250    6.7730  157.7790 C.ar   56  A56         0.1692
    959  C5        15.3470    6.5230  159.0450 C.ar   56  A56         0.1518
    960  C6        14.9510    5.2040  159.3230 C.ar   56  A56         0.1919
    961  N6        14.5030    4.8010  160.5020 N.pl3  56  A56        -0.1054
    962  N7        15.3700    7.6790  159.8120 N.ar   56  A56        -0.2193
    963  C8        15.8570    8.5840  159.0020 C.ar   56  A56         0.1816
    964  N9        16.1710    8.1000  157.7630 N.ar   56  A56        -0.2693
    965  OP1       15.0950   12.9390  160.6420 O.3    56  A56        -0.4373
    966  OP2       17.2930   11.6160  160.4930 O.co2  56  A56        -0.5172
    967  P         13.4750   11.9510  154.8270 P.3    57  C57         0.2141
    968  C5'       12.2860    9.7080  154.2410 C.3    57  C57         0.1812
    969  O5'       12.5280   10.7270  155.1950 O.3    57  C57        -0.3114
    970  C4'       11.8900    8.4200  154.9240 C.3    57  C57         0.1773
    971  O4'       12.8030    8.1420  156.0230 O.3    57  C57        -0.3307
    972  C3'       10.5350    8.4020  155.5890 C.3    57  C57         0.1860
    973  O3'        9.5660    8.1000  154.6090 O.3    57  C57        -0.3112
    974  C2'       10.6930    7.2360  156.5470 C.3    57  C57         0.2309
    975  O2'       10.6730    6.0130  155.8530 O.3    57  C57        -0.2156
    976  C1'       12.1120    7.4540  157.0450 C.3    57  C57         0.2420
    977  N1        12.1830    8.2610  158.2580 N.ar   57  C57        -0.2535
    978  C2        11.9760    7.6420  159.4860 C.ar   57  C57         0.3532
    979  O2        11.7300    6.4350  159.5100 O.2    57  C57        -0.2443
    980  N3        12.0570    8.3710  160.6130 N.ar   57  C57        -0.1739
    981  C4        12.3510    9.6670  160.5440 C.ar   57  C57         0.1759
    982  N4        12.4430   10.3480  161.6880 N.pl3  57  C57        -0.1070
    983  C5        12.5690   10.3240  159.3020 C.ar   57  C57         0.0566
    984  C6        12.4670    9.5930  158.1950 C.ar   57  C57         0.0850
    985  OP1       13.1110   12.3700  153.4470 O.2    57  C57        -0.5172
    986  OP2       13.4180   12.9300  155.9400 O.co2  57  C57        -0.4373
    987  P          8.0350    8.5220  154.8420 P.3    58  C58         0.2141
    988  C5'        7.2960    6.1010  155.5410 C.3    58  C58         0.1812
    989  O5'        7.4780    7.4680  155.9000 O.3    58  C58        -0.3114
    990  C4'        6.9580    5.2700  156.7600 C.3    58  C58         0.1773
    991  O4'        7.9960    5.4480  157.7600 O.3    58  C58        -0.3307
    992  C3'        5.6690    5.6280  157.4900 C.3    58  C58         0.1860
    993  O3'        4.5660    4.9480  156.8990 O.3    58  C58        -0.3112
    994  C2'        5.9350    5.0870  158.8910 C.3    58  C58         0.2309
    995  O2'        5.7510    3.6860  158.9700 O.3    58  C58        -0.2156
    996  C1'        7.4210    5.4080  159.0580 C.3    58  C58         0.2420
    997  N1         7.6990    6.6880  159.7250 N.ar   58  C58        -0.2535
    998  C2         7.6290    6.7450  161.1120 C.ar   58  C58         0.3532
    999  O2         7.2660    5.7370  161.7280 O.2    58  C58        -0.2443
   1000  N3         7.9580    7.8950  161.7500 N.ar   58  C58        -0.1739
   1001  C4         8.3320    8.9630  161.0430 C.ar   58  C58         0.1759
   1002  N4         8.6730   10.0660  161.7070 N.pl3  58  C58        -0.1070
   1003  C5         8.3770    8.9440  159.6200 C.ar   58  C58         0.0566
   1004  C6         8.0510    7.7950  159.0070 C.ar   58  C58         0.0850
   1005  OP1        7.3330    8.3010  153.5570 O.2    58  C58        -0.5172
   1006  OP2        8.0270    9.8660  155.4650 O.co2  58  C58        -0.4373
   1007  P          3.0690    5.4760  157.1550 P.3    59  U59         0.2141
   1008  C5'        2.6050    4.3890  159.5110 C.3    59  U59         0.1812
   1009  O5'        2.9560    5.5410  158.7460 O.3    59  U59        -0.3114
   1010  C4'        2.0610    4.8060  160.8600 C.3    59  U59         0.1773
   1011  O4'        3.1370    5.3470  161.6610 O.3    59  U59        -0.3307
   1012  C3'        0.9860    5.8910  160.8420 C.3    59  U59         0.1860
   1013  O3'       -0.3080    5.2970  160.6990 O.3    59  U59        -0.3112
   1014  C2'        1.1430    6.5370  162.2150 C.3    59  U59         0.2309
   1015  O2'        0.4400    5.8390  163.2210 O.3    59  U59        -0.2156
   1016  C1'        2.6520    6.4100  162.4600 C.3    59  U59         0.2420
   1017  N1         3.4340    7.6140  162.1440 N.ar   59  U59        -0.2534
   1018  C2         3.6000    8.5560  163.1420 C.ar   59  U59         0.3546
   1019  O2         3.1150    8.4410  164.2500 O.2    59  U59        -0.2443
   1020  N3         4.3580    9.6410  162.7930 N.ar   59  U59        -0.1530
   1021  C4         4.9510    9.8770  161.5760 C.ar   59  U59         0.2846
   1022  O4         5.6130   10.8990  161.4180 O.2    59  U59        -0.2650
   1023  C5         4.7250    8.8630  160.5960 C.ar   59  U59         0.0814
   1024  C6         3.9910    7.7940  160.9060 C.ar   59  U59         0.0870
   1025  OP1        2.1920    4.3880  156.6460 O.3    59  U59        -0.4373
   1026  OP2        2.9280    6.8580  156.6140 O.co2  59  U59        -0.5172
   1027  P         -1.5390    6.1550  160.1080 P.3    60  G60         0.2141
   1028  C5'       -2.2320    6.9400  162.5020 C.3    60  G60         0.1812
   1029  O5'       -1.7750    7.2840  161.2000 O.3    60  G60        -0.3114
   1030  C4'       -2.2230    8.1590  163.3790 C.3    60  G60         0.1773
   1031  O4'       -0.8520    8.5620  163.6220 O.3    60  G60        -0.3307
   1032  C3'       -2.8850    9.3670  162.7420 C.3    60  G60         0.1860
   1033  O3'       -4.2840    9.3220  162.9980 O.3    60  G60        -0.3112
   1034  C2'       -2.1840   10.5270  163.4400 C.3    60  G60         0.2309
   1035  O2'       -2.7370   10.8220  164.7050 O.3    60  G60        -0.2156
   1036  C1'       -0.7570    9.9780  163.5950 C.3    60  G60         0.2408
   1037  N1         2.9870   13.0090  161.8970 N.ar   60  G60        -0.1709
   1038  C2         2.4380   12.9460  163.1500 C.ar   60  G60         0.2606
   1039  N2         2.9370   13.8010  164.0480 N.pl3  60  G60        -0.0859
   1040  N3         1.4660   12.1000  163.4960 N.ar   60  G60        -0.1918
   1041  C4         1.0970   11.3060  162.4630 C.ar   60  G60         0.1723
   1042  C5         1.5950   11.2860  161.1800 C.ar   60  G60         0.1748
   1043  C6         2.6180   12.2020  160.8230 C.ar   60  G60         0.3023
   1044  O6         3.1680   12.3440  159.7300 O.2    60  G60        -0.2633
   1045  N7         0.9610   10.3150  160.4220 N.ar   60  G60        -0.2173
   1046  C8         0.1030    9.7750  161.2360 C.ar   60  G60         0.1817
   1047  N9         0.1190   10.3360  162.4850 N.ar   60  G60        -0.2693
   1048  OP1       -2.7220    5.2580  160.1460 O.3    60  G60        -0.4373
   1049  OP2       -1.1600    6.8180  158.8310 O.co2  60  G60        -0.5172
   1050  P         -5.3250    9.9530  161.9380 P.3    61  A61         0.2141
   1051  C5'       -5.6390    9.4950  159.3590 C.3    61  A61         0.1812
   1052  O5'       -4.7670    9.5460  160.4950 O.3    61  A61        -0.3114
   1053  C4'       -4.8780    9.8040  158.0880 C.3    61  A61         0.1773
   1054  O4'       -4.2960   11.1270  158.1990 O.3    61  A61        -0.3307
   1055  C3'       -3.7130    8.8500  157.8510 C.3    61  A61         0.1860
   1056  O3'       -3.6090    8.3100  156.5290 O.3    61  A61        -0.3112
   1057  C2'       -2.4640    9.5700  158.3640 C.3    61  A61         0.2309
   1058  O2'       -1.3640    9.4380  157.4850 O.3    61  A61        -0.2156
   1059  C1'       -2.8910   11.0390  158.3090 C.3    61  A61         0.2408
   1060  N1         0.5820   14.4420  159.9260 N.ar   61  A61        -0.2040
   1061  C2         0.4410   13.7700  158.7780 C.ar   61  A61         0.2016
   1062  N3        -0.4860   12.8880  158.4260 N.ar   61  A61        -0.2048
   1063  C4        -1.3610   12.7020  159.4230 C.ar   61  A61         0.1692
   1064  C5        -1.3490   13.3120  160.6610 C.ar   61  A61         0.1518
   1065  C6        -0.3150   14.2290  160.9100 C.ar   61  A61         0.1919
   1066  N6        -0.1730   14.8930  162.0560 N.pl3  61  A61        -0.1054
   1067  N7        -2.4140   12.8690  161.4350 N.ar   61  A61        -0.2193
   1068  C8        -3.0340   12.0180  160.6550 C.ar   61  A61         0.1816
   1069  N9        -2.4550   11.8740  159.4230 N.ar   61  A61        -0.2693
   1070  OP1       -5.2500   11.4350  162.0860 O.2    61  A61        -0.5172
   1071  OP2       -6.6220    9.2590  162.1450 O.co2  61  A61        -0.4373
   1072  P         -4.9240    7.8360  155.7340 P.3    62  U62         0.2141
   1073  C5'       -5.2530   10.2760  154.7750 C.3    62  U62         0.1812
   1074  O5'       -5.7740    9.1690  155.5160 O.3    62  U62        -0.3114
   1075  C4'       -6.3050   10.8020  153.8230 C.3    62  U62         0.1773
   1076  O4'       -6.6640    9.7060  152.9480 O.3    62  U62        -0.3307
   1077  C3'       -7.6200   11.2570  154.4570 C.3    62  U62         0.1860
   1078  O3'       -7.6890   12.6680  154.6930 O.3    62  U62        -0.3112
   1079  C2'       -8.6320   10.9890  153.3480 C.3    62  U62         0.2309
   1080  O2'       -8.7040   12.0640  152.4290 O.3    62  U62        -0.2156
   1081  C1'       -8.0480    9.7480  152.6700 C.3    62  U62         0.2420
   1082  N1        -8.6340    8.4830  153.1250 N.ar   62  U62        -0.2534
   1083  C2        -9.6470    7.9410  152.3660 C.ar   62  U62         0.3546
   1084  O2       -10.0880    8.4820  151.3660 O.2    62  U62        -0.2443
   1085  N3       -10.1240    6.7390  152.8190 N.ar   62  U62        -0.1530
   1086  C4        -9.6980    6.0470  153.9310 C.ar   62  U62         0.2846
   1087  O4       -10.2090    4.9610  154.1970 O.2    62  U62        -0.2650
   1088  C5        -8.6560    6.6880  154.6710 C.ar   62  U62         0.0814
   1089  C6        -8.1750    7.8560  154.2530 C.ar   62  U62         0.0870
   1090  OP1       -5.6850    6.9300  156.6330 O.3    62  U62        -0.4373
   1091  OP2       -4.4870    7.3560  154.3990 O.co2  62  U62        -0.5172
   1092  P         -6.3870   13.4860  155.1630 P.3    63  C63         0.2141
   1093  C5'       -6.9290   12.6500  157.6100 C.3    63  C63         0.1812
   1094  O5'       -5.9790   12.8200  156.5580 O.3    63  C63        -0.3114
   1095  C4'       -6.7000   13.6800  158.6940 C.3    63  C63         0.1773
   1096  O4'       -5.3130   13.6370  159.1180 O.3    63  C63        -0.3307
   1097  C3'       -6.9000   15.1310  158.2820 C.3    63  C63         0.1860
   1098  O3'       -8.2770   15.4700  158.3680 O.3    63  C63        -0.3112
   1099  C2'       -6.0740   15.8900  159.3180 C.3    63  C63         0.2309
   1100  O2'       -6.7570   16.0900  160.5390 O.3    63  C63        -0.2156
   1101  C1'       -4.9090   14.9270  159.5520 C.3    63  C63         0.2420
   1102  N1        -3.6770   15.3040  158.8500 N.ar   63  C63        -0.2535
   1103  C2        -2.8350   16.2440  159.4420 C.ar   63  C63         0.3532
   1104  O2        -3.1660   16.7450  160.5260 O.2    63  C63        -0.2443
   1105  N3        -1.6870   16.5860  158.8240 N.ar   63  C63        -0.1739
   1106  C4        -1.3720   16.0310  157.6570 C.ar   63  C63         0.1759
   1107  N4        -0.2280   16.3960  157.0880 N.pl3  63  C63        -0.1070
   1108  C5        -2.2160   15.0770  157.0230 C.ar   63  C63         0.0566
   1109  C6        -3.3490   14.7460  157.6480 C.ar   63  C63         0.0850
   1110  OP1       -6.8350   14.8790  155.4300 O.3    63  C63        -0.4373
   1111  OP2       -5.2910   13.2530  154.1790 O.co2  63  C63        -0.5172
   1112  P         -8.8220   16.7740  157.6130 P.3    64  U64         0.2141
   1113  C5'       -8.4450   18.6390  159.4220 C.3    64  U64         0.1812
   1114  O5'       -7.9760   17.9710  158.2510 O.3    64  U64        -0.3114
   1115  C4'       -7.6640   19.9120  159.6760 C.3    64  U64         0.1773
   1116  O4'       -6.3140   19.6020  160.1120 O.3    64  U64        -0.3307
   1117  C3'       -7.4480   20.8420  158.4980 C.3    64  U64         0.1860
   1118  O3'       -8.5870   21.6400  158.2130 O.3    64  U64        -0.3112
   1119  C2'       -6.2900   21.6910  158.9970 C.3    64  U64         0.2309
   1120  O2'       -6.6920   22.6670  159.9310 O.3    64  U64        -0.2156
   1121  C1'       -5.4300   20.6370  159.6950 C.3    64  U64         0.2420
   1122  N1        -4.4540   20.0710  158.7540 N.ar   64  U64        -0.2534
   1123  C2        -3.2710   20.7690  158.5400 C.ar   64  U64         0.3546
   1124  O2        -2.9860   21.7980  159.1340 O.2    64  U64        -0.2443
   1125  N3        -2.4360   20.2110  157.6020 N.ar   64  U64        -0.1530
   1126  C4        -2.6540   19.0470  156.8800 C.ar   64  U64         0.2846
   1127  O4        -1.8160   18.6750  156.0600 O.2    64  U64        -0.2650
   1128  C5        -3.8840   18.3800  157.1770 C.ar   64  U64         0.0814
   1129  C6        -4.7170   18.8970  158.0820 C.ar   64  U64         0.0870
   1130  OP1      -10.2380   16.9360  158.0290 O.3    64  U64        -0.4373
   1131  OP2       -8.4980   16.6520  156.1690 O.co2  64  U64        -0.5172
   1132  P         -8.7190   22.3480  156.7720 P.3    65  G65         0.2141
   1133  C5'       -7.8950   24.7180  157.5890 C.3    65  G65         0.1812
   1134  O5'       -7.6570   23.5390  156.8240 O.3    65  G65        -0.3114
   1135  C4'       -6.7110   25.6540  157.4850 C.3    65  G65         0.1773
   1136  O4'       -5.5380   25.0010  158.0500 O.3    65  G65        -0.3307
   1137  C3'       -6.2740   26.0120  156.0720 C.3    65  G65         0.1860
   1138  O3'       -7.0350   27.0650  155.4840 O.3    65  G65        -0.3112
   1139  C2'       -4.8260   26.4110  156.2970 C.3    65  G65         0.2309
   1140  O2'       -4.6990   27.6930  156.8740 O.3    65  G65        -0.2156
   1141  C1'       -4.3860   25.3340  157.2870 C.3    65  G65         0.2408
   1142  N1        -0.7480   23.1700  154.4330 N.ar   65  G65        -0.1709
   1143  C2        -0.7730   24.4190  155.0080 C.ar   65  G65         0.2606
   1144  N2         0.2980   25.1860  154.7740 N.pl3  65  G65        -0.0859
   1145  N3        -1.7700   24.8760  155.7540 N.ar   65  G65        -0.1918
   1146  C4        -2.7610   23.9640  155.8850 C.ar   65  G65         0.1723
   1147  C5        -2.8310   22.6880  155.3550 C.ar   65  G65         0.1748
   1148  C6        -1.7540   22.2150  154.5520 C.ar   65  G65         0.3023
   1149  O6        -1.6340   21.1220  153.9900 O.2    65  G65        -0.2633
   1150  N7        -4.0170   22.0660  155.7230 N.ar   65  G65        -0.2173
   1151  C8        -4.6400   22.9540  156.4530 C.ar   65  G65         0.1817
   1152  N9        -3.9440   24.1330  156.5820 N.ar   65  G65        -0.2693
   1153  OP1      -10.0980   22.9040  156.7060 O.3    65  G65        -0.4373
   1154  OP2       -8.2530   21.4150  155.7120 O.co2  65  G65        -0.5172
   1155  P         -7.0450   27.2420  153.8750 P.3    66  G66         0.2141
   1156  C5'       -4.9960   28.9050  153.8560 C.3    66  G66         0.1812
   1157  O5'       -5.5410   27.6360  153.4970 O.3    66  G66        -0.3114
   1158  C4'       -3.6250   29.0970  153.2290 C.3    66  G66         0.1773
   1159  O4'       -2.6980   28.1060  153.7670 O.3    66  G66        -0.3307
   1160  C3'       -3.5010   28.9060  151.7190 C.3    66  G66         0.1860
   1161  O3'       -3.9410   30.0330  150.9590 O.3    66  G66        -0.3112
   1162  C2'       -2.0020   28.6590  151.5810 C.3    66  G66         0.2309
   1163  O2'       -1.2190   29.8230  151.7900 O.3    66  G66        -0.2156
   1164  C1'       -1.7700   27.7130  152.7560 C.3    66  G66         0.2408
   1165  N1        -0.0730   23.5610  150.3300 N.ar   66  G66        -0.1709
   1166  C2         0.4890   24.8150  150.4160 C.ar   66  G66         0.2606
   1167  N2         1.6580   24.9840  149.8020 N.pl3  66  G66        -0.0859
   1168  N3        -0.0580   25.8340  151.0660 N.ar   66  G66        -0.1918
   1169  C4        -1.2320   25.4930  151.6410 C.ar   66  G66         0.1723
   1170  C5        -1.8810   24.2730  151.6150 C.ar   66  G66         0.1748
   1171  C6        -1.2870   23.1880  150.9080 C.ar   66  G66         0.3023
   1172  O6        -1.7210   22.0320  150.7640 O.2    66  G66        -0.2633
   1173  N7        -3.0700   24.3340  152.3290 N.ar   66  G66        -0.2173
   1174  C8        -3.1170   25.5610  152.7750 C.ar   66  G66         0.1817
   1175  N9        -2.0310   26.3170  152.4030 N.ar   66  G66        -0.2693
   1176  OP1       -7.9310   28.3970  153.5650 O.3    66  G66        -0.4373
   1177  OP2       -7.3280   25.9160  153.2590 O.co2  66  G66        -0.5172
   1178  P         -4.7490   29.7990  149.5770 P.3    67  A67         0.2141
   1179  C5'       -2.5290   30.4680  148.3440 C.3    67  A67         0.1812
   1180  O5'       -3.6150   29.5620  148.4840 O.3    67  A67        -0.3114
   1181  C4'       -1.3570   29.7680  147.7030 C.3    67  A67         0.1773
   1182  O4'       -0.9950   28.6300  148.5290 O.3    67  A67        -0.3307
   1183  C3'       -1.6200   29.1450  146.3380 C.3    67  A67         0.1860
   1184  O3'       -1.4620   30.0910  145.2930 O.3    67  A67        -0.3112
   1185  C2'       -0.5320   28.0840  146.2670 C.3    67  A67         0.2309
   1186  O2'        0.7390   28.6230  145.9570 O.3    67  A67        -0.2156
   1187  C1'       -0.5320   27.5730  147.7050 C.3    67  A67         0.2408
   1188  N1        -0.9130   22.5590  146.9190 N.ar   67  A67        -0.2040
   1189  C2         0.0070   23.4700  146.5810 C.ar   67  A67         0.2016
   1190  N3         0.0230   24.7730  146.8100 N.ar   67  A67        -0.2048
   1191  C4        -1.0840   25.1470  147.4720 C.ar   67  A67         0.1692
   1192  C5        -2.1250   24.3360  147.8820 C.ar   67  A67         0.1518
   1193  C6        -2.0110   22.9650  147.5880 C.ar   67  A67         0.1919
   1194  N6        -2.9140   22.0440  147.9360 N.pl3  67  A67        -0.1054
   1195  N7        -3.1010   25.0830  148.5320 N.ar   67  A67        -0.2193
   1196  C8        -2.6270   26.3070  148.5080 C.ar   67  A67         0.1816
   1197  N9        -1.4010   26.4110  147.8930 N.ar   67  A67        -0.2693
   1198  OP1       -5.4460   31.0680  149.2400 O.2    67  A67        -0.5172
   1199  OP2       -5.5320   28.5310  149.6890 O.co2  67  A67        -0.4373
   1200  P         -2.2710   29.9010  143.9150 P.3    68  U68         0.2141
   1201  C5'       -0.6130   28.1960  142.7900 C.3    68  U68         0.1812
   1202  O5'       -1.8770   28.4370  143.4080 O.3    68  U68        -0.3114
   1203  C4'       -0.5040   26.7610  142.3250 C.3    68  U68         0.1773
   1204  O4'       -0.5940   25.8570  143.4590 O.3    68  U68        -0.3307
   1205  C3'       -1.5880   26.2630  141.3860 C.3    68  U68         0.1860
   1206  O3'       -1.3030   26.6540  140.0480 O.3    68  U68        -0.3112
   1207  C2'       -1.4430   24.7570  141.5430 C.3    68  U68         0.2309
   1208  O2'       -0.3020   24.3070  140.8470 O.3    68  U68        -0.2156
   1209  C1'       -1.1870   24.6360  143.0470 C.3    68  U68         0.2420
   1210  N1        -2.4200   24.4360  143.8200 N.ar   68  U68        -0.2534
   1211  C2        -2.7530   23.1450  144.1710 C.ar   68  U68         0.3546
   1212  O2        -2.0690   22.1840  143.8810 O.2    68  U68        -0.2443
   1213  N3        -3.9160   23.0190  144.8830 N.ar   68  U68        -0.1530
   1214  C4        -4.7610   24.0350  145.2790 C.ar   68  U68         0.2846
   1215  O4        -5.7720   23.7640  145.9300 O.2    68  U68        -0.2650
   1216  C5        -4.3460   25.3430  144.8770 C.ar   68  U68         0.0814
   1217  C6        -3.2180   25.4940  144.1780 C.ar   68  U68         0.0870
   1218  OP1       -1.6640   30.8970  142.9860 O.2    68  U68        -0.5172
   1219  OP2       -3.7420   29.9260  144.1770 O.co2  68  U68        -0.4373
   1220  P         -2.5020   26.8150  138.9880 P.3    69  A69         0.2141
   1221  C5'       -4.2330   25.0770  138.0600 C.3    69  A69         0.1812
   1222  O5'       -2.9770   25.3260  138.6860 O.3    69  A69        -0.3114
   1223  C4'       -4.3320   23.6270  137.6670 C.3    69  A69         0.1773
   1224  O4'       -3.2870   23.3350  136.7070 O.3    69  A69        -0.3307
   1225  C3'       -4.0740   22.6510  138.7990 C.3    69  A69         0.1860
   1226  O3'       -5.2600   22.4350  139.5540 O.3    69  A69        -0.3112
   1227  C2'       -3.5970   21.4080  138.0560 C.3    69  A69         0.2309
   1228  O2'       -4.6570   20.6800  137.4690 O.3    69  A69        -0.2156
   1229  C1'       -2.7720   22.0330  136.9360 C.3    69  A69         0.2408
   1230  N1         1.7400   19.6120  137.5530 N.ar   69  A69        -0.2040
   1231  C2         0.4930   19.1500  137.4840 C.ar   69  A69         0.2016
   1232  N3        -0.6450   19.8190  137.3720 N.ar   69  A69        -0.2048
   1233  C4        -0.4130   21.1410  137.3320 C.ar   69  A69         0.1692
   1234  C5         0.8170   21.7620  137.4040 C.ar   69  A69         0.1518
   1235  C6         1.9370   20.9440  137.5140 C.ar   69  A69         0.1919
   1236  N6         3.1820   21.4120  137.5820 N.pl3  69  A69        -0.1054
   1237  N7         0.6780   23.1390  137.3470 N.ar   69  A69        -0.2193
   1238  C8        -0.6120   23.3190  137.2260 C.ar   69  A69         0.1816
   1239  N9        -1.3330   22.1530  137.1780 N.ar   69  A69        -0.2693
   1240  OP1       -1.8900   27.3650  137.7510 O.2    69  A69        -0.5172
   1241  OP2       -3.6410   27.5240  139.6290 O.co2  69  A69        -0.4373
   1242  P         -5.2040   22.5250  141.1590 P.3    70  A70         0.2141
   1243  C5'       -5.0920   19.9160  141.2590 C.3    70  A70         0.1812
   1244  O5'       -4.4890   21.1670  141.5590 O.3    70  A70        -0.3114
   1245  C4'       -4.0850   18.8120  141.4260 C.3    70  A70         0.1773
   1246  O4'       -3.0120   19.0300  140.4780 O.3    70  A70        -0.3307
   1247  C3'       -3.3620   18.7720  142.7620 C.3    70  A70         0.1860
   1248  O3'       -4.1610   18.1270  143.7510 O.3    70  A70        -0.3112
   1249  C2'       -2.1110   17.9820  142.4010 C.3    70  A70         0.2309
   1250  O2'       -2.3730   16.5980  142.2420 O.3    70  A70        -0.2156
   1251  C1'       -1.7990   18.5460  141.0180 C.3    70  A70         0.2408
   1252  N1         3.1790   19.6180  140.6300 N.ar   70  A70        -0.2040
   1253  C2         2.5130   18.4790  140.7680 C.ar   70  A70         0.2016
   1254  N3         1.2100   18.2770  140.8950 N.ar   70  A70        -0.2048
   1255  C4         0.5500   19.4370  140.8800 C.ar   70  A70         0.1692
   1256  C5         1.0980   20.6990  140.7580 C.ar   70  A70         0.1518
   1257  C6         2.4880   20.7730  140.6170 C.ar   70  A70         0.1919
   1258  N6         3.1620   21.9090  140.4650 N.pl3  70  A70        -0.1054
   1259  N7         0.1070   21.6700  140.7950 N.ar   70  A70        -0.2193
   1260  C8        -1.0060   20.9790  140.9220 C.ar   70  A70         0.1816
   1261  N9        -0.8080   19.6190  140.9600 N.ar   70  A70        -0.2693
   1262  OP1       -6.6020   22.4910  141.6600 O.3    70  A70        -0.4373
   1263  OP2       -4.3130   23.6540  141.5510 O.co2  70  A70        -0.5172
   1264  P         -3.9850   18.5170  145.3070 P.3    71  U71         0.2141
   1265  C5'       -2.6700   16.3220  145.7920 C.3    71  U71         0.1812
   1266  O5'       -2.6750   17.7350  145.7510 O.3    71  U71        -0.3114
   1267  C4'       -1.2550   15.8060  145.7370 C.3    71  U71         0.1773
   1268  O4'       -0.5750   16.4610  144.6420 O.3    71  U71        -0.3307
   1269  C3'       -0.3270   16.0990  146.9080 C.3    71  U71         0.1860
   1270  O3'       -0.5340   15.1520  147.9570 O.3    71  U71        -0.3112
   1271  C2'        1.0310   15.8370  146.2680 C.3    71  U71         0.2309
   1272  O2'        1.2690   14.4470  146.1580 O.3    71  U71        -0.2156
   1273  C1'        0.8160   16.3720  144.8510 C.3    71  U71         0.2420
   1274  N1         1.4320   17.6750  144.5770 N.ar   71  U71        -0.2534
   1275  C2         2.7860   17.6780  144.3030 C.ar   71  U71         0.3546
   1276  O2         3.4550   16.6630  144.2970 O.2    71  U71        -0.2443
   1277  N3         3.3250   18.9120  144.0380 N.ar   71  U71        -0.1530
   1278  C4         2.6580   20.1120  144.0250 C.ar   71  U71         0.2846
   1279  O4         3.2810   21.1400  143.7690 O.2    71  U71        -0.2650
   1280  C5         1.2560   20.0260  144.3240 C.ar   71  U71         0.0814
   1281  C6         0.7050   18.8390  144.5840 C.ar   71  U71         0.0870
   1282  OP1       -5.1160   17.8970  146.0320 O.3    71  U71        -0.4373
   1283  OP2       -3.7260   19.9790  145.4540 O.co2  71  U71        -0.5172
   1284  P         -0.7390   15.6570  149.4690 P.3    72  G72         0.2141
   1285  C5'        1.6920   14.7880  149.9220 C.3    72  G72         0.1812
   1286  O5'        0.3260   14.8250  150.3060 O.3    72  G72        -0.3114
   1287  C4'        2.4580   15.8660  150.6460 C.3    72  G72         0.1773
   1288  O4'        2.2890   15.7490  152.0780 O.3    72  G72        -0.3307
   1289  C3'        3.9680   15.8750  150.4630 C.3    72  G72         0.1860
   1290  O3'        4.2450   16.5800  149.2610 O.3    72  G72        -0.3112
   1291  C2'        4.4550   16.6840  151.6720 C.3    72  G72         0.2309
   1292  O2'        4.5750   18.0660  151.4060 O.3    72  G72        -0.2156
   1293  C1'        3.3260   16.4790  152.6880 C.3    72  G72         0.2408
   1294  N1         5.9770   12.9350  155.2340 N.ar   72  G72        -0.1709
   1295  C2         5.8070   13.0680  153.8750 C.ar   72  G72         0.2606
   1296  N2         6.4660   12.1720  153.1090 N.pl3  72  G72        -0.0859
   1297  N3         5.0500   14.0070  153.3110 N.ar   72  G72        -0.1918
   1298  C4         4.4800   14.8140  154.2330 C.ar   72  G72         0.1723
   1299  C5         4.5880   14.7580  155.6090 C.ar   72  G72         0.1748
   1300  C6         5.3950   13.7490  156.1990 C.ar   72  G72         0.3023
   1301  O6         5.6150   13.5400  157.4030 O.2    72  G72        -0.2633
   1302  N7         3.8410   15.7650  156.2020 N.ar   72  G72        -0.2173
   1303  C8         3.3100   16.4040  155.2010 C.ar   72  G72         0.1817
   1304  N9         3.6790   15.9000  153.9790 N.ar   72  G72        -0.2693
   1305  OP1       -2.0840   15.2090  149.9150 O.3    72  G72        -0.4373
   1306  OP2       -0.3860   17.0990  149.5360 O.co2  72  G72        -0.5172
   1307  P          5.5420   16.2260  148.3800 P.3    73  C73         0.2141
   1308  C5'        6.6740   17.9910  146.7940 C.3    73  C73         0.1812
   1309  O5'        5.4950   17.3620  147.2660 O.3    73  C73        -0.3114
   1310  C4'        6.5510   19.4940  146.9190 C.3    73  C73         0.1773
   1311  O4'        5.2640   19.9320  146.4080 O.3    73  C73        -0.3307
   1312  C3'        6.5750   20.0110  148.3420 C.3    73  C73         0.1860
   1313  O3'        7.9280   20.1720  148.7470 O.3    73  C73        -0.3112
   1314  C2'        5.8560   21.3510  148.2260 C.3    73  C73         0.2309
   1315  O2'        6.6910   22.4150  147.8380 O.3    73  C73        -0.2156
   1316  C1'        4.8220   21.0590  147.1390 C.3    73  C73         0.2420
   1317  N1         3.5000   20.7600  147.6950 N.ar   73  C73        -0.2535
   1318  C2         2.7680   21.8040  148.2620 C.ar   73  C73         0.3532
   1319  O2         3.2620   22.9400  148.2550 O.2    73  C73        -0.2443
   1320  N3         1.5450   21.5490  148.8040 N.ar   73  C73        -0.1739
   1321  C4         1.0580   20.3040  148.7830 C.ar   73  C73         0.1759
   1322  N4        -0.1410   20.0840  149.3320 N.pl3  73  C73        -0.1070
   1323  C5         1.7840   19.2220  148.1990 C.ar   73  C73         0.0566
   1324  C6         2.9900   19.4930  147.6710 C.ar   73  C73         0.0850
   1325  OP1        5.2870   14.9250  147.7170 O.2    73  C73        -0.5172
   1326  OP2        6.7830   16.4170  149.1840 O.co2  73  C73        -0.4373
   1327  P          8.3080   20.0750  150.3000 P.3    74  C74         0.2141
   1328  C5'        8.0920   22.6810  150.5260 C.3    74  C74         0.1812
   1329  O5'        7.6480   21.3860  150.9330 O.3    74  C74        -0.3114
   1330  C4'        7.2750   23.7750  151.1830 C.3    74  C74         0.1773
   1331  O4'        5.9140   23.7770  150.6820 O.3    74  C74        -0.3307
   1332  C3'        7.0610   23.7090  152.6850 C.3    74  C74         0.1860
   1333  O3'        8.2050   24.1090  153.4140 O.3    74  C74        -0.3112
   1334  C2'        5.9220   24.7060  152.8650 C.3    74  C74         0.2309
   1335  O2'        6.3540   26.0520  152.7870 O.3    74  C74        -0.2156
   1336  C1'        5.0620   24.3890  151.6440 C.3    74  C74         0.2420
   1337  N1         3.9770   23.4650  151.9760 N.ar   74  C74        -0.2535
   1338  C2         2.8810   23.9610  152.6550 C.ar   74  C74         0.3532
   1339  O2         2.8770   25.1440  152.9760 O.2    74  C74        -0.2443
   1340  N3         1.8500   23.1460  152.9470 N.ar   74  C74        -0.1739
   1341  C4         1.8980   21.8650  152.5870 C.ar   74  C74         0.1759
   1342  N4         0.8510   21.0950  152.8880 N.pl3  74  C74        -0.1070
   1343  C5         3.0190   21.3190  151.9030 C.ar   74  C74         0.0566
   1344  C6         4.0300   22.1480  151.6220 C.ar   74  C74         0.0850
   1345  OP1        9.7840   20.2050  150.3760 O.2    74  C74        -0.5172
   1346  OP2        7.6450   18.8550  150.8270 O.co2  74  C74        -0.4373
   1347  P          8.5080   23.4210  154.8250 P.3    75  A75         0.2141
   1348  C5'        7.2950   25.2960  156.1980 C.3    75  A75         0.1812
   1349  O5'        7.3270   23.9430  155.7540 O.3    75  A75        -0.3114
   1350  C4'        6.0590   25.5520  157.0310 C.3    75  A75         0.1773
   1351  O4'        4.8760   25.3150  156.2260 O.3    75  A75        -0.3307
   1352  C3'        5.8250   24.6540  158.2340 C.3    75  A75         0.1860
   1353  O3'        6.6190   25.0320  159.3600 O.3    75  A75        -0.3112
   1354  C2'        4.3440   24.8950  158.4970 C.3    75  A75         0.2309
   1355  O2'        4.0980   26.1160  159.1770 O.3    75  A75        -0.2156
   1356  C1'        3.7910   24.9710  157.0710 C.3    75  A75         0.2408
   1357  N1        -0.1730   21.7060  157.3890 N.ar   75  A75        -0.2040
   1358  C2         0.0440   22.9030  157.9340 C.ar   75  A75         0.2016
   1359  N3         1.0950   23.7120  157.8020 N.ar   75  A75        -0.2048
   1360  C4         2.0150   23.1670  156.9880 C.ar   75  A75         0.1692
   1361  C5         1.9330   21.9420  156.3570 C.ar   75  A75         0.1518
   1362  C6         0.7760   21.1860  156.5790 C.ar   75  A75         0.1919
   1363  N6         0.5700   19.9910  156.0340 N.pl3  75  A75        -0.1054
   1364  N7         3.0710   21.7000  155.6030 N.ar   75  A75        -0.2193
   1365  C8         3.8060   22.7700  155.7900 C.ar   75  A75         0.1816
   1366  N9         3.2330   23.6950  156.6250 N.ar   75  A75        -0.2693
   1367  OP1        9.8070   23.9570  155.3130 O.3    75  A75        -0.4373
   1368  OP2        8.3370   21.9630  154.6620 O.co2  75  A75        -0.5172
   1369  P          7.0790   23.9120  160.4260 P.3    76  G76         0.2141
   1370  C5'        5.0480   24.8110  161.8480 C.3    76  G76         0.1812
   1371  O5'        5.7940   23.7010  161.3510 O.3    76  G76        -0.3114
   1372  C4'        3.6380   24.3840  162.2020 C.3    76  G76         0.1773
   1373  O4'        2.9610   23.9330  161.0000 O.3    76  G76        -0.3307
   1374  C3'        3.5100   23.2080  163.1600 C.3    76  G76         0.1860
   1375  O3'        3.5970   23.6560  164.5100 O.3    76  G76        -0.3112
   1376  C2'        2.1100   22.6820  162.8410 C.3    76  G76         0.2309
   1377  O2'        1.0810   23.4040  163.4880 O.3    76  G76        -0.2156
   1378  C1'        2.0130   22.9320  161.3320 C.3    76  G76         0.2408
   1379  N1         0.0910   18.5600  159.6190 N.ar   76  G76        -0.1709
   1380  C2        -0.4500   19.4690  160.4880 C.ar   76  G76         0.2606
   1381  N2        -1.6660   19.1680  160.9550 N.pl3  76  G76        -0.0859
   1382  N3         0.1580   20.5830  160.8720 N.ar   76  G76        -0.1918
   1383  C4         1.3810   20.7080  160.3120 C.ar   76  G76         0.1723
   1384  C5         2.0190   19.8540  159.4390 C.ar   76  G76         0.1748
   1385  C6         1.3440   18.6700  159.0260 C.ar   76  G76         0.3023
   1386  O6         1.7270   17.7930  158.2440 O.2    76  G76        -0.2633
   1387  N7         3.2700   20.3430  159.0960 N.ar   76  G76        -0.2173
   1388  C8         3.3660   21.4690  159.7490 C.ar   76  G76         0.1817
   1389  N9         2.2510   21.7530  160.5000 N.ar   76  G76        -0.2693
   1390  OP1        8.1810   24.5020  161.2290 O.3    76  G76        -0.4373
   1391  OP2        7.3160   22.6360  159.7040 O.co2  76  G76        -0.5172
   1392  P          4.4520   22.8170  165.5930 P.3    77  C77         0.2141
   1393  C5'        2.4710   21.2510  166.2840 C.3    77  C77         0.1812
   1394  O5'        3.7310   21.3960  165.6410 O.3    77  C77        -0.3114
   1395  C4'        1.8050   19.9600  165.8680 C.3    77  C77         0.1773
   1396  O4'        1.6690   19.9260  164.4200 O.3    77  C77        -0.3307
   1397  C3'        2.5530   18.6760  166.1840 C.3    77  C77         0.1860
   1398  O3'        2.3350   18.2770  167.5310 O.3    77  C77        -0.3112
   1399  C2'        1.9170   17.6970  165.2030 C.3    77  C77         0.2309
   1400  O2'        0.6610   17.2420  165.6650 O.3    77  C77        -0.2156
   1401  C1'        1.7360   18.5830  163.9630 C.3    77  C77         0.2420
   1402  N1         2.8530   18.4880  163.0110 N.ar   77  C77        -0.2535
   1403  C2         2.8020   17.5300  161.9790 C.ar   77  C77         0.3532
   1404  O2         1.8080   16.7850  161.8870 O.2    77  C77        -0.2443
   1405  N3         3.8380   17.4410  161.1130 N.ar   77  C77        -0.1739
   1406  C4         4.8850   18.2520  161.2420 C.ar   77  C77         0.1759
   1407  N4         5.8740   18.1280  160.3700 N.pl3  77  C77        -0.1070
   1408  C5         4.9620   19.2300  162.2770 C.ar   77  C77         0.0566
   1409  C6         3.9320   19.3160  163.1270 C.ar   77  C77         0.0850
   1410  OP1        4.1890   23.4800  166.8930 O.3    77  C77        -0.4373
   1411  OP2        5.8610   22.6750  165.1150 O.co2  77  C77        -0.5172
   1412  P          3.5740   17.7800  168.4240 P.3    78  G78         0.2141
   1413  C5'        6.0980   18.6010  168.5650 C.3    78  G78         0.1812
   1414  O5'        4.7940   18.7110  167.9620 O.3    78  G78        -0.3114
   1415  C4'        7.1560   18.5120  167.4890 C.3    78  G78         0.1773
   1416  O4'        6.8200   17.4140  166.6330 O.3    78  G78        -0.3307
   1417  C3'        7.2530   19.7440  166.5950 C.3    78  G78         0.1860
   1418  O3'        8.5300   20.3530  166.7870 O.3    78  G78        -0.3112
   1419  C2'        7.3680   19.2140  165.1610 C.3    78  G78         0.2309
   1420  O2'        8.6060   19.5380  164.5670 O.3    78  G78        -0.2156
   1421  C1'        7.2810   17.7010  165.3460 C.3    78  G78         0.2408
   1422  N1         7.5460   15.3840  160.8750 N.ar   78  G78        -0.1709
   1423  C2         8.4220   16.2670  161.4520 C.ar   78  G78         0.2606
   1424  N2         9.5360   16.5180  160.7630 N.pl3  78  G78        -0.0859
   1425  N3         8.2160   16.8560  162.6170 N.ar   78  G78        -0.1918
   1426  C4         7.0360   16.4900  163.1620 C.ar   78  G78         0.1723
   1427  C5         6.0870   15.6230  162.6660 C.ar   78  G78         0.1748
   1428  C6         6.3260   14.9870  161.4230 C.ar   78  G78         0.3023
   1429  O6         5.6110   14.1630  160.8210 O.2    78  G78        -0.2633
   1430  N7         5.0090   15.5270  163.5330 N.ar   78  G78        -0.2173
   1431  C8         5.3240   16.3130  164.5260 C.ar   78  G78         0.1817
   1432  N9         6.5570   16.8930  164.3780 N.ar   78  G78        -0.2693
   1433  OP1        3.8440   16.3670  168.0450 O.2    78  G78        -0.5172
   1434  OP2        3.2380   18.1140  169.8280 O.co2  78  G78        -0.4373
   1435  P          8.8700   21.1850  168.1120 P.3    79  U79         0.2141
   1436  C5'       10.3070   19.2000  169.0460 C.3    79  U79         0.1812
   1437  O5'        9.2020   20.0850  169.2180 O.3    79  U79        -0.3114
   1438  C4'       10.8190   18.6960  170.3840 C.3    79  U79         0.1773
   1439  O4'       11.3510   19.8080  171.1450 O.3    79  U79        -0.3307
   1440  C3'        9.7360   18.0710  171.2540 C.3    79  U79         0.1860
   1441  O3'       10.0750   16.7930  171.7970 O.3    79  U79        -0.3112
   1442  C2'        9.3060   19.1580  172.2420 C.3    79  U79         0.2309
   1443  O2'        9.1640   18.6440  173.5510 O.3    79  U79        -0.2156
   1444  C1'       10.5260   20.0840  172.2550 C.3    79  U79         0.2420
   1445  N1        10.2800   21.5290  172.2880 N.ar   79  U79        -0.2534
   1446  C2        10.0230   22.1120  173.5140 C.ar   79  U79         0.3546
   1447  O2         9.9580   21.4720  174.5500 O.2    79  U79        -0.2443
   1448  N3         9.8470   23.4770  173.4790 N.ar   79  U79        -0.1530
   1449  C4         9.8960   24.2930  172.3580 C.ar   79  U79         0.2846
   1450  O4         9.7250   25.5060  172.4810 O.2    79  U79        -0.2650
   1451  C5        10.1520   23.6070  171.1300 C.ar   79  U79         0.0814
   1452  C6        10.3270   22.2810  171.1370 C.ar   79  U79         0.0870
   1453  OP1        7.6570   21.9680  168.4780 O.3    79  U79        -0.4373
   1454  OP2       10.1460   21.8840  167.8070 O.co2  79  U79        -0.5172
   1455  P         10.0080   15.4750  170.8760 P.3    80  A80         0.2141
   1456  C5'        7.4940   15.5350  171.5760 C.3    80  A80         0.1812
   1457  O5'        8.4570   15.3010  170.5690 O.3    80  A80        -0.3114
   1458  C4'        6.3070   14.6440  171.3610 C.3    80  A80         0.1773
   1459  O4'        5.6740   14.9960  170.1080 O.3    80  A80        -0.3307
   1460  C3'        6.6250   13.1740  171.1940 C.3    80  A80         0.1860
   1461  O3'        6.7990   12.5430  172.4520 O.3    80  A80        -0.3112
   1462  C2'        5.3830   12.6810  170.4740 C.3    80  A80         0.2309
   1463  O2'        4.2760   12.5860  171.3450 O.3    80  A80        -0.2156
   1464  C1'        5.1250   13.8360  169.5100 C.3    80  A80         0.2408
   1465  N1         4.9990   11.2380  165.0770 N.ar   80  A80        -0.2040
   1466  C2         4.2700   11.1500  166.1930 C.ar   80  A80         0.2016
   1467  N3         4.3600   11.8550  167.3170 N.ar   80  A80        -0.2048
   1468  C4         5.3450   12.7590  167.2300 C.ar   80  A80         0.1692
   1469  C5         6.1790   12.9740  166.1500 C.ar   80  A80         0.1518
   1470  C6         5.9820   12.1590  165.0210 C.ar   80  A80         0.1919
   1471  N6         6.7060   12.2440  163.9070 N.pl3  80  A80        -0.1054
   1472  N7         7.0760   13.9990  166.4190 N.ar   80  A80        -0.2193
   1473  C8         6.7740   14.3690  167.6380 C.ar   80  A80         0.1816
   1474  N9         5.7300   13.6630  168.1880 N.ar   80  A80        -0.2693
   1475  OP1       10.4470   14.3290  171.7280 O.3    80  A80        -0.4373
   1476  OP2       10.7080   15.7470  169.5890 O.co2  80  A80        -0.5172
   1477  P          7.9300   11.4160  172.6230 P.3    81  G81         0.2141
   1478  C5'        6.0330    9.6180  172.5610 C.3    81  G81         0.1812
   1479  O5'        7.2500   10.1120  172.0260 O.3    81  G81        -0.3114
   1480  C4'        5.4640    8.5750  171.6410 C.3    81  G81         0.1773
   1481  O4'        5.0710    9.2160  170.4000 O.3    81  G81        -0.3307
   1482  C3'        6.4580    7.5050  171.2150 C.3    81  G81         0.1860
   1483  O3'        6.5200    6.4380  172.1500 O.3    81  G81        -0.3112
   1484  C2'        5.8880    7.0380  169.8860 C.3    81  G81         0.2309
   1485  O2'        4.8510    6.0880  170.0470 O.3    81  G81        -0.2156
   1486  C1'        5.3530    8.3530  169.3080 C.3    81  G81         0.2408
   1487  N1         7.4230    8.4500  164.6800 N.ar   81  G81        -0.1709
   1488  C2         6.5470    7.5480  165.2240 C.ar   81  G81         0.2606
   1489  N2         6.1530    6.5550  164.4240 N.pl3  81  G81        -0.0859
   1490  N3         6.0910    7.6170  166.4590 N.ar   81  G81        -0.1918
   1491  C4         6.5880    8.6790  167.1220 C.ar   81  G81         0.1723
   1492  C5         7.4740    9.6380  166.6730 C.ar   81  G81         0.1748
   1493  C6         7.9570    9.5490  165.3440 C.ar   81  G81         0.3023
   1494  O6         8.7520   10.2970  164.7600 O.2    81  G81        -0.2633
   1495  N7         7.7400   10.5710  167.6660 N.ar   81  G81        -0.2173
   1496  C8         7.0200   10.1720  168.6810 C.ar   81  G81         0.1817
   1497  N9         6.2870    9.0370  168.4130 N.ar   81  G81        -0.2693
   1498  OP1        8.1550   11.2170  174.0780 O.3    81  G81        -0.4373
   1499  OP2        9.0760   11.7710  171.7500 O.co2  81  G81        -0.5172
   1500  P          7.8810    5.5990  172.3000 P.3    82  G82         0.2141
   1501  C5'        8.9560    4.1450  170.3770 C.3    82  G82         0.1812
   1502  O5'        7.8000    4.5340  171.1200 O.3    82  G82        -0.3114
   1503  C4'        8.5510    3.7950  168.9630 C.3    82  G82         0.1773
   1504  O4'        8.1410    5.0060  168.2740 O.3    82  G82        -0.3307
   1505  C3'        9.6290    3.2260  168.0630 C.3    82  G82         0.1860
   1506  O3'        9.7730    1.8310  168.2560 O.3    82  G82        -0.3112
   1507  C2'        9.0780    3.5180  166.6750 C.3    82  G82         0.2309
   1508  O2'        8.1180    2.5790  166.2380 O.3    82  G82        -0.2156
   1509  C1'        8.4220    4.8820  166.8890 C.3    82  G82         0.2408
   1510  N1        10.8960    7.0120  163.0110 N.ar   82  G82        -0.1709
   1511  C2        10.1410    5.8650  163.0450 C.ar   82  G82         0.2606
   1512  N2        10.0270    5.1960  161.8910 N.pl3  82  G82        -0.0859
   1513  N3         9.5400    5.4080  164.1300 N.ar   82  G82        -0.1918
   1514  C4         9.7600    6.2020  165.2010 C.ar   82  G82         0.1723
   1515  C5        10.4940    7.3650  165.2760 C.ar   82  G82         0.1748
   1516  C6        11.1350    7.8460  164.0980 C.ar   82  G82         0.3023
   1517  O6        11.8360    8.8580  163.9560 O.2    82  G82        -0.2633
   1518  N7        10.4700    7.8800  166.5650 N.ar   82  G82        -0.2173
   1519  C8         9.7380    7.0350  167.2380 C.ar   82  G82         0.1817
   1520  N9         9.2730    5.9950  166.4690 N.ar   82  G82        -0.2693
   1521  OP1        7.8160    4.8640  173.5930 O.3    82  G82        -0.4373
   1522  OP2        9.0140    6.5300  172.0290 O.co2  82  G82        -0.5172
   1523  P         11.1980    1.1400  167.9890 P.3    83  G83         0.2141
   1524  C5'       11.2720    0.9860  165.3650 C.3    83  G83         0.1812
   1525  O5'       11.6350    1.6790  166.5550 O.3    83  G83        -0.3114
   1526  C4'       12.0170    1.5700  164.1920 C.3    83  G83         0.1773
   1527  O4'       11.5910    2.9460  163.9830 O.3    83  G83        -0.3307
   1528  C3'       13.5180    1.6750  164.3970 C.3    83  G83         0.1860
   1529  O3'       14.1560    0.4550  164.0380 O.3    83  G83        -0.3112
   1530  C2'       13.8810    2.7900  163.4290 C.3    83  G83         0.2309
   1531  O2'       13.9410    2.3210  162.0960 O.3    83  G83        -0.2156
   1532  C1'       12.6990    3.7430  163.6160 C.3    83  G83         0.2408
   1533  N1        14.7160    8.2300  164.8500 N.ar   83  G83        -0.1709
   1534  C2        14.5970    7.6350  163.6220 C.ar   83  G83         0.2606
   1535  N2        15.1120    8.3050  162.5860 N.pl3  83  G83        -0.0859
   1536  N3        14.0180    6.4690  163.4230 N.ar   83  G83        -0.1918
   1537  C4        13.5630    5.9240  164.5690 C.ar   83  G83         0.1723
   1538  C5        13.6230    6.4330  165.8430 C.ar   83  G83         0.1748
   1539  C6        14.2430    7.7020  166.0420 C.ar   83  G83         0.3023
   1540  O6        14.3860    8.3400  167.0900 O.2    83  G83        -0.2633
   1541  N7        13.0270    5.5650  166.7480 N.ar   83  G83        -0.2173
   1542  C8        12.6310    4.5570  166.0190 C.ar   83  G83         0.1817
   1543  N9        12.9400    4.7020  164.6900 N.ar   83  G83        -0.2693
   1544  OP1       10.9780   -0.3330  167.8770 O.2    83  G83        -0.5172
   1545  OP2       12.1660    1.6820  168.9920 O.co2  83  G83        -0.4373
   1546  P         15.0550   -0.3320  165.1200 P.3    84  A84         0.2141
   1547  C5'       16.0100   -1.8440  163.2050 C.3    84  A84         0.1812
   1548  O5'       16.2550   -0.8970  164.2450 O.3    84  A84        -0.3114
   1549  C4'       16.9790   -1.6180  162.0720 C.3    84  A84         0.1773
   1550  O4'       16.6240   -0.4040  161.3640 O.3    84  A84        -0.3307
   1551  C3'       18.4110   -1.3870  162.5220 C.3    84  A84         0.1860
   1552  O3'       19.0730   -2.6350  162.7160 O.3    84  A84        -0.3112
   1553  C2'       18.9960   -0.5950  161.3580 C.3    84  A84         0.2309
   1554  O2'       19.3800   -1.4310  160.2900 O.3    84  A84        -0.2156
   1555  C1'       17.8000    0.2560  160.9250 C.3    84  A84         0.2408
   1556  N1        18.1050    5.3020  159.9160 N.ar   84  A84        -0.2040
   1557  C2        18.1780    4.2310  159.1240 C.ar   84  A84         0.2016
   1558  N3        18.0950    2.9420  159.4430 N.ar   84  A84        -0.2048
   1559  C4        17.9170    2.7890  160.7660 C.ar   84  A84         0.1692
   1560  C5        17.8240    3.7980  161.7030 C.ar   84  A84         0.1518
   1561  C6        17.9250    5.1110  161.2380 C.ar   84  A84         0.1919
   1562  N6        17.8530    6.1660  162.0280 N.pl3  84  A84        -0.1054
   1563  N7        17.6400    3.2740  162.9740 N.ar   84  A84        -0.2193
   1564  C8        17.6260    1.9780  162.7790 C.ar   84  A84         0.1816
   1565  N9        17.7860    1.6140  161.4670 N.ar   84  A84        -0.2693
   1566  OP1       14.2430   -1.5040  165.5430 O.2    84  A84        -0.5172
   1567  OP2       15.5900    0.6090  166.1490 O.co2  84  A84        -0.4373
   1568  P         20.3530   -2.7220  163.6850 P.3    85  A85         0.2141
   1569  C5'       21.9510   -0.8220  164.5210 C.3    85  A85         0.1812
   1570  O5'       21.0830   -1.3160  163.5090 O.3    85  A85        -0.3114
   1571  C4'       23.1850   -1.6820  164.5930 C.3    85  A85         0.1773
   1572  O4'       23.7960   -1.7610  163.2860 O.3    85  A85        -0.3307
   1573  C3'       24.2890   -1.2110  165.5260 C.3    85  A85         0.1860
   1574  O3'       24.0110   -1.7420  166.8220 O.3    85  A85        -0.3112
   1575  C2'       25.5370   -1.8540  164.9260 C.3    85  A85         0.2309
   1576  O2'       25.6990   -3.1760  165.3950 O.3    85  A85        -0.2156
   1577  C1'       25.1910   -1.9140  163.4330 C.3    85  A85         0.2408
   1578  N1        28.0160   -1.3360  159.2030 N.ar   85  A85        -0.2040
   1579  C2        27.5870   -2.4200  159.8610 C.ar   85  A85         0.2016
   1580  N3        26.8720   -2.4970  160.9790 N.ar   85  A85        -0.2048
   1581  C4        26.5840   -1.2660  161.4430 C.ar   85  A85         0.1692
   1582  C5        26.9570   -0.0610  160.8820 C.ar   85  A85         0.1518
   1583  C6        27.7100   -0.1150  159.7020 C.ar   85  A85         0.1919
   1584  N6        28.1380    0.9700  159.0540 N.pl3  85  A85        -0.1054
   1585  N7        26.4900    0.9980  161.6430 N.ar   85  A85        -0.2193
   1586  C8        25.8490    0.4220  162.6300 C.ar   85  A85         0.1816
   1587  N9        25.8490   -0.9460  162.5600 N.ar   85  A85        -0.2693
   1588  OP1       21.2200   -3.7770  163.0870 O.2    85  A85        -0.5172
   1589  OP2       19.9250   -2.8280  165.1100 O.co2  85  A85        -0.4373
   1590  P         25.0690   -1.5540  168.0200 P.3    86  G86         0.2141
   1591  C5'       27.5370   -2.4400  167.9250 C.3    86  G86         0.1812
   1592  O5'       26.1450   -2.7060  167.7780 O.3    86  G86        -0.3114
   1593  C4'       28.3470   -3.4750  167.1900 C.3    86  G86         0.1773
   1594  O4'       27.9890   -3.4570  165.7810 O.3    86  G86        -0.3307
   1595  C3'       29.8410   -3.2260  167.1530 C.3    86  G86         0.1860
   1596  O3'       30.4620   -3.6340  168.3560 O.3    86  G86        -0.3112
   1597  C2'       30.2570   -4.0960  165.9800 C.3    86  G86         0.2309
   1598  O2'       30.2810   -5.4660  166.3220 O.3    86  G86        -0.2156
   1599  C1'       29.1100   -3.8390  165.0030 C.3    86  G86         0.2408
   1600  N1        31.4670   -2.6920  160.6880 N.ar   86  G86        -0.1709
   1601  C2        31.3420   -3.9040  161.3240 C.ar   86  G86         0.2606
   1602  N2        31.9320   -4.9550  160.7370 N.pl3  86  G86        -0.0859
   1603  N3        30.6860   -4.0720  162.4540 N.ar   86  G86        -0.1918
   1604  C4        30.1560   -2.9140  162.9100 C.ar   86  G86         0.1723
   1605  C5        30.2230   -1.6530  162.3520 C.ar   86  G86         0.1748
   1606  C6        30.9270   -1.4880  161.1360 C.ar   86  G86         0.3023
   1607  O6        31.0990   -0.4600  160.4830 O.2    86  G86        -0.2633
   1608  N7        29.5450   -0.7290  163.1370 N.ar   86  G86        -0.2173
   1609  C8        29.0820   -1.4340  164.1360 C.ar   86  G86         0.1817
   1610  N9        29.4230   -2.7680  164.0600 N.ar   86  G86        -0.2693
   1611  OP1       24.3470   -1.8680  169.2830 O.3    86  G86        -0.4373
   1612  OP2       25.7460   -0.2300  167.8660 O.co2  86  G86        -0.5172
   1613  P         31.8370   -2.9580  168.8150 P.3    87  U87         0.2141
   1614  C5'       33.1960   -4.9070  167.6670 C.3    87  U87         0.1812
   1615  O5'       32.8820   -3.5040  167.7440 O.3    87  U87        -0.3114
   1616  C4'       34.3070   -5.1390  166.6700 C.3    87  U87         0.1773
   1617  O4'       33.7460   -5.1820  165.3300 O.3    87  U87        -0.3307
   1618  C3'       35.3890   -4.0660  166.6330 C.3    87  U87         0.1860
   1619  O3'       36.4640   -4.4090  167.5010 O.3    87  U87        -0.3112
   1620  C2'       35.8340   -4.0940  165.1760 C.3    87  U87         0.2309
   1621  O2'       36.7720   -5.1130  164.8970 O.3    87  U87        -0.2156
   1622  C1'       34.5120   -4.3680  164.4620 C.3    87  U87         0.2420
   1623  N1        33.7410   -3.1520  164.1730 N.ar   87  U87        -0.2534
   1624  C2        33.8310   -2.6200  162.9020 C.ar   87  U87         0.3546
   1625  O2        34.5160   -3.1160  162.0240 O.2    87  U87        -0.2443
   1626  N3        33.0880   -1.4850  162.6990 N.ar   87  U87        -0.1530
   1627  C4        32.2810   -0.8390  163.6120 C.ar   87  U87         0.2846
   1628  O4        31.6740    0.1780  163.2730 O.2    87  U87        -0.2650
   1629  C5        32.2410   -1.4510  164.9050 C.ar   87  U87         0.0814
   1630  C6        32.9550   -2.5590  165.1350 C.ar   87  U87         0.0870
   1631  OP1       32.2000   -3.5110  170.1450 O.3    87  U87        -0.4373
   1632  OP2       31.7090   -1.4890  168.6410 O.co2  87  U87        -0.5172
   1633  P         37.4650   -3.2740  168.0210 P.3    88  U88         0.2141
   1634  C5'       38.9690   -3.9460  165.9590 C.3    88  U88         0.1813
   1635  O5'       38.3100   -2.9160  166.7190 O.3    88  U88        -0.3114
   1636  C4'       39.6430   -3.3490  164.7460 C.3    88  U88         0.1801
   1637  O4'       38.6350   -3.0260  163.7490 O.3    88  U88        -0.3306
   1638  C3'       40.4120   -2.0570  164.9930 C.3    88  U88         0.2161
   1639  O3'       41.7770   -2.3350  165.2840 O.3    88  U88        -0.2175
   1640  C2'       40.2750   -1.3300  163.6610 C.3    88  U88         0.2338
   1641  O2'       41.2110   -1.7560  162.6930 O.3    88  U88        -0.2155
   1642  C1'       38.8580   -1.7210  163.2470 C.3    88  U88         0.2421
   1643  N1        37.8230   -0.8350  163.7970 N.ar   88  U88        -0.2534
   1644  C2        37.3980    0.2200  163.0140 C.ar   88  U88         0.3546
   1645  O2        37.8430    0.4400  161.9000 O.2    88  U88        -0.2443
   1646  N3        36.4320    1.0090  163.5860 N.ar   88  U88        -0.1530
   1647  C4        35.8580    0.8570  164.8300 C.ar   88  U88         0.2846
   1648  O4        34.9960    1.6550  165.2020 O.2    88  U88        -0.2650
   1649  C5        36.3510   -0.2580  165.5790 C.ar   88  U88         0.0814
   1650  C6        37.2930   -1.0460  165.0500 C.ar   88  U88         0.0870
   1651  OP1       38.3760   -3.8880  169.0200 O.3    88  U88        -0.4373
   1652  OP2       36.6580   -2.0850  168.3960 O.co2  88  U88        -0.5172
@<TRIPOS>BOND
     1   380   361    2
     2   361   347    1
     3   361   379    1
     4   361   363    1
     5   347   346    1
     6   362   363    1
     7   362   364    1
     8   359   341    2
     9   342   344    1
    10   342   343    1
    11   344   346    1
    12   344   345    1
    13   349   348    1
    14   346   348    1
    15   402   381    2
    16   343   341    1
    17   348   350    1
    18   341   327    1
    19   341   360    1
    20   364   365    1
    21   364   366    1
    22   398   397    2
    23   399   400   ar
    24   399   396   ar
    25   345   350    1
    26   327   326    1
    27   365   370    1
    28   400   401   ar
    29   381   403    1
    30   381   383    1
    31   381   367    1
    32   329   328    1
    33   397   396   ar
    34   397   391   ar
    35   396   395   ar
    36   350   351    1
    37   378   377   ar
    38   378   371   ar
    39   366   367    1
    40   366   368    1
    41   401   395   ar
    42   401   390    1
    43   377   375   ar
    44   383   382    1
    45   385   390    1
    46   385   384    1
    47   391   392   ar
    48   395   394   ar
    49   326   328    1
    50   326   324    1
    51   328   330    1
    52   382   384    1
    53   370   371    1
    54   370   368    1
    55   390   388    1
    56   324   322    1
    57   324   325    1
    58   392   394   ar
    59   392   393    1
    60   371   372   ar
    61   351   358   ar
    62   351   352   ar
    63   322   323    1
    64   384   386    1
    65   368   369    1
    66   358   357   ar
    67   375   376    2
    68   375   374   ar
    69   339   321    2
    70   353   352    2
    71   330   325    1
    72   330   331    1
    73   352   354   ar
    74   419   418    1
    75   372   374   ar
    76   372   373    2
    77   388   386    1
    78   388   389    1
    79   386   387    1
    80   323   321    1
    81   357   355   ar
    82   333   332    2
    83   321   307    1
    84   321   340    1
    85   418   420   ar
    86   418   417   ar
    87   331   332   ar
    88   331   338   ar
    89   441   440    2
    90   354   355   ar
    91   420   421   ar
    92   309   308    1
    93   479   478    1
    94   520   519    1
    95   332   334   ar
    96   355   356    1
    97   417   415   ar
    98   387   404    1
    99   307   306    1
   100   338   337   ar
   101   423   404    2
   102   440   434   ar
   103   440   439   ar
   104   434   435   ar
   105   421   414   ar
   106   498   497    1
   107   521   516    1
   108   521   519    1
   109   521   531    1
   110   501   502   ar
   111   501   500   ar
   112   516   515    1
   113   415   414   ar
   114   415   416    2
   115   478   477   ar
   116   478   480   ar
   117   308   306    1
   118   308   310    1
   119   502   503   ar
   120   334   335   ar
   121   477   483   ar
   122   515   513    1
   123   515   517    1
   124   404   406    1
   125   404   422    1
   126   519   517    1
   127   414   413    1
   128   436   435    1
   129   306   304    1
   130   524   523   ar
   131   524   525   ar
   132   435   437   ar
   133   439   442   ar
   134   439   438   ar
   135   337   335   ar
   136   500   505   ar
   137   406   405    1
   138   313   312    2
   139   480   481   ar
   140   442   443   ar
   141   513   514    1
   142   523   522   ar
   143   408   413    1
   144   408   407    1
   145   497   499    1
   146   497   495    1
   147   517   518    1
   148   335   336    2
   149   531   525   ar
   150   531   530   ar
   151   459   458    2
   152   518   534    1
   153   304   302    1
   154   304   305    1
   155   499   509    1
   156   499   494    1
   157   525   526   ar
   158   460   458   ar
   159   460   461   ar
   160   483   484    2
   161   483   482   ar
   162   503   509   ar
   163   503   504   ar
   164   413   411    1
   165   538   537    1
   166   538   543    1
   167   310   305    1
   168   310   311    1
   169   462   461    2
   170   438   437   ar
   171   438   444   ar
   172   535   537    1
   173   535   536    1
   174   537   539    1
   175   405   407    1
   176   458   457   ar
   177   509   508   ar
   178   505   504   ar
   179   505   506    1
   180   461   463   ar
   181   481   482   ar
   182   481   487   ar
   183   443   444   ar
   184   312   311   ar
   185   312   314   ar
   186   302   303    1
   187   542   541    1
   188   522   527   ar
   189   530   529   ar
   190   407   409    1
   191   504   507   ar
   192   482   485   ar
   193   494   493    1
   194   543   541    1
   195   543   554    1
   196   444   433    1
   197   496   495    1
   198   496   512    1
   199   514   512    1
   200   311   318   ar
   201   526   527   ar
   202   526   529   ar
   203   555   534    2
   204   495   493    1
   205   534   536    1
   206   534   556    1
   207   493   491    1
   208   475   474    1
   209   527   528    1
   210   411   409    1
   211   411   412    1
   212   314   315   ar
   213   457   456    1
   214   457   464   ar
   215   541   539    1
   216   303   301    1
   217   409   410    1
   218   487   476    1
   219   487   486   ar
   220   539   540    1
   221   319   301    2
   222   508   507   ar
   223   476   474    1
   224   476   471    1
   225   463   464   ar
   226   540   557    1
   227   512   532    2
   228   512   533    1
   229   554   553   ar
   230   554   548   ar
   231   474   472    1
   232   456   451    1
   233   456   454    1
   234   433   428    1
   235   433   431    1
   236   485   486   ar
   237   553   552   ar
   238   318   317   ar
   239   428   427    1
   240   301   287    1
   241   301   320    1
   242   455   454    1
   243   451   450    1
   244   315   317   ar
   245   315   316    2
   246   491   492    1
   247   446   424    2
   248   471   470    1
   249   410   424    1
   250   548   547   ar
   251   548   549   ar
   252   454   452    1
   253   492   490    1
   254   547   545   ar
   255   578   557    2
   256   289   288    1
   257   287   286    1
   258   557   579    1
   259   557   559    1
   260   431   432    1
   261   431   429    1
   262   552   549   ar
   263   472   470    1
   264   472   473    1
   265   426   424    1
   266   426   425    1
   267   424   445    1
   268   558   559    1
   269   558   560    1
   270   549   550   ar
   271   470   468    1
   272   427   429    1
   273   427   425    1
   274   288   286    1
   275   288   290    1
   276   473   490    1
   277   545   546    1
   278   545   544   ar
   279   450   452    1
   280   450   448    1
   281   429   430    1
   282   286   284    1
   283   452   453    1
   284   490   511    2
   285   490   510    1
   286   561   560    1
   287   561   566    1
   288   560   562    1
   289   550   544   ar
   290   550   551    2
   291   448   449    1
   292   468   469    1
   293   449   447    1
   294   290   291    1
   295   290   285    1
   296   453   467    1
   297   469   467    1
   298   284   285    1
   299   284   282    1
   300   430   447    1
   301   293   292    2
   302   291   292   ar
   303   291   298   ar
   304   566   577    1
   305   566   564    1
   306   576   577   ar
   307   576   575   ar
   308   292   294   ar
   309   298   297   ar
   310   466   447    2
   311   562   563    1
   312   562   564    1
   313   447   465    1
   314   467   489    2
   315   467   488    1
   316   577   571   ar
   317   294   295   ar
   318   282   283    1
   319   297   295   ar
   320   295   296    1
   321   575   572   ar
   322   563   580    1
   323   565   564    1
   324   283   281    1
   325   269   268    1
   326   273   272    2
   327   300   281    2
   328   274   272   ar
   329   274   275   ar
   330   571   572   ar
   331   571   570   ar
   332   753   732    2
   333   272   271   ar
   334   572   573   ar
   335   268   266    1
   336   268   270    1
   337   599   580    2
   338   281   267    1
   339   281   299    1
   340   276   275    1
   341   580   598    1
   342   580   582    1
   343   275   277   ar
   344   570   568   ar
   345   752   732    1
   346   271   270    1
   347   271   278   ar
   348   266   267    1
   349   266   264    1
   350   573   574    2
   351   573   567   ar
   352   270   265    1
   353   732   716    1
   354   732   734    1
   355   772   754    2
   356   277   278   ar
   357   568   567   ar
   358   568   569    1
   359   582   581    1
   360  1224  1229    1
   361  1224  1223    1
   362   716   715    1
   363  1229  1239    1
   364  1229  1227    1
   365   581   583    1
   366   734   733    1
   367  1239  1238   ar
   368  1239  1233   ar
   369   264   265    1
   370   264   262    1
   371  1238  1237   ar
   372  1233  1232   ar
   373  1233  1234   ar
   374   733   735    1
   375  1237  1234   ar
   376   731   710    2
   377  1232  1231   ar
   378  1234  1235   ar
   379   262   263    1
   380  1228  1227    1
   381  1231  1230   ar
   382  1235  1230   ar
   383  1235  1236    1
   384   596   597   ar
   385   596   594   ar
   386   738   754    1
   387   738   737    1
   388   754   773    1
   389   754   756    1
   390  1223  1221    1
   391  1223  1225    1
   392  1240  1220    2
   393   715   713    1
   394   715   717    1
   395   597   590   ar
   396   256   255    1
   397  1227  1225    1
   398  1221  1222    1
   399   730   710    1
   400   595   594    1
   401   735   737    1
   402   735   736    1
   403   584   583    1
   404   584   589    1
   405   710   712    1
   406   710   694    1
   407   711   712    1
   408   711   713    1
   409   583   585    1
   410   594   593   ar
   411   263   261    1
   412   718   717    1
   413   737   739    1
   414  1222  1220    1
   415   713   714    1
   416  1225  1226    1
   417   255   254   ar
   418   255   257   ar
   419   756   755    1
   420   254   252   ar
   421   717   719    1
   422  1220  1241    1
   423  1220  1206    1
   424   590   589    1
   425   590   591   ar
   426   619   600    2
   427   736   741    1
   428   585   586    1
   429   585   587    1
   430   589   587    1
   431   755   757    1
   432  1226  1242    1
   433   257   258   ar
   434   708   688    2
   435   593   591   ar
   436   252   253    2
   437   252   251   ar
   438   740   739    1
   439   694   693    1
   440   279   261    2
   441   261   280    1
   442   261   247    1
   443   739   741    1
   444   591   592    2
   445   235   234    2
   446   586   600    1
   447  1206  1205    1
   448   714   719    1
   449   618   600    1
   450   600   602    1
   451   719   729    1
   452   637   636    2
   453   258   251   ar
   454   770   771   ar
   455   770   768   ar
   456   251   250    1
   457   587   588    1
   458   615   614    2
   459  1258  1257    1
   460  1246  1251    1
   461  1246  1245    1
   462   693   695    1
   463   693   691    1
   464   741   751    1
   465   248   246    1
   466   248   249    1
   467   248   250    1
   468  1257  1252   ar
   469  1257  1256   ar
   470  1252  1253   ar
   471   709   688    1
   472   771   764   ar
   473  1256  1259   ar
   474  1256  1255   ar
   475  1253  1254   ar
   476   688   690    1
   477   688   671    1
   478  1259  1260   ar
   479   616   614   ar
   480   616   617   ar
   481  1208  1207    1
   482   696   695    1
   483  1255  1254   ar
   484  1255  1261   ar
   485   234   228   ar
   486   234   233   ar
   487   769   768    2
   488  1260  1261   ar
   489  1261  1251    1
   490   695   697    1
   491   757   758    1
   492   757   759    1
   493  1251  1249    1
   494   247   246    1
   495   246   244    1
   496   729   728   ar
   497   729   723   ar
   498   758   763    1
   499   768   767   ar
   500  1242  1263    2
   501  1242  1244    1
   502  1242  1262    1
   503   614   613   ar
   504   260   241    2
   505   728   727   ar
   506   250   245    1
   507  1243  1245    1
   508  1243  1244    1
   509   228   229   ar
   510  1205  1207    1
   511  1205  1203    1
   512   690   689    1
   513  1245  1247    1
   514   636   630   ar
   515   636   635   ar
   516   751   750   ar
   517   751   745   ar
   518   236   233   ar
   519   236   237   ar
   520  1207  1209    1
   521   240   218    2
   522   602   601    1
   523   233   232   ar
   524   689   691    1
   525   691   692    1
   526   617   610   ar
   527   686   665    2
   528   764   763    1
   529   764   765   ar
   530   671   670    1
   531   759   760    1
   532   759   761    1
   533   723   722   ar
   534   723   724   ar
   535   750   749   ar
   536   782   781    1
   537   630   631   ar
   538   778   783    1
   539   778   777    1
   540   744   745   ar
   541   744   743   ar
   542   722   721   ar
   543   727   724   ar
   544   745   746   ar
   545   243   241    1
   546   243   242    1
   547   760   774    1
   548  1250  1249    1
   549   767   765   ar
   550   763   761    1
   551   706   707   ar
   552   706   705   ar
   553  1203  1201    1
   554  1203  1204    1
   555   783   781    1
   556   783   793    1
   557   229   230    1
   558   229   231   ar
   559   245   244    1
   560   638   635   ar
   561   638   639   ar
   562  1249  1247    1
   563   241   259    1
   564   241   224    1
   565   697   692    1
   566   697   707    1
   567   635   634   ar
   568   237   238   ar
   569   244   242    1
   570   613   611   ar
   571   724   725   ar
   572   232   231   ar
   573   232   238   ar
   574   765   766    2
   575   777   775    1
   576   777   779    1
   577   601   603    1
   578   206   205    1
   579  1247  1248    1
   580  1201  1202    1
   581   776   774    1
   582   776   775    1
   583   666   667    1
   584   666   668    1
   585   749   746   ar
   586   743   742   ar
   587   707   701   ar
   588   705   702   ar
   589   781   779    1
   590   746   747   ar
   591  1218  1200    2
   592   761   762    1
   593   721   720   ar
   594   218   220    1
   595   218   204    1
   596   218   239    1
   597  1209  1204    1
   598  1209  1210    1
   599   610   611   ar
   600   610   609    1
   601   670   668    1
   602   670   672    1
   603   238   227    1
   604   220   219    1
   605   665   667    1
   606   665   687    1
   607   665   649    1
   608   793   792   ar
   609   793   787   ar
   610   631   632    1
   611   631   633   ar
   612   642   620    2
   613   668   669    1
   614   204   203    1
   615   774   794    2
   616   774   795    1
   617  1202  1200    1
   618   604   603    1
   619   604   609    1
   620   611   612    2
   621   725   720   ar
   622   725   726    1
   623   786   787   ar
   624   786   785   ar
   625   639   640   ar
   626   205   203    1
   627   205   207    1
   628   223   224    1
   629   223   225    1
   630   223   221    1
   631   779   780    1
   632   742   747   ar
   633  1248  1264    1
   634   747   748    1
   635   792   791   ar
   636   634   633   ar
   637   634   640   ar
   638  1279  1278    2
   639   787   788   ar
   640   780   796    1
   641  1210  1211   ar
   642  1210  1217   ar
   643   603   605    1
   644  1212  1211    2
   645  1200  1219    1
   646  1200  1184    1
   647   701   702   ar
   648   701   700   ar
   649   702   703   ar
   650   225   227    1
   651   225   226    1
   652  1278  1277   ar
   653  1278  1280   ar
   654  1277  1275   ar
   655   609   607    1
   656   605   607    1
   657   605   606    1
   658   673   672    1
   659  1211  1213   ar
   660  1217  1216   ar
   661   649   648    1
   662   785   784   ar
   663   203   201    1
   664   672   674    1
   665  1276  1275    2
   666  1275  1274   ar
   667   210   209    2
   668  1280  1281   ar
   669   227   222    1
   670   219   221    1
   671   640   629    1
   672   791   788   ar
   673  1274  1281   ar
   674  1274  1273    1
   675   788   789   ar
   676  1268  1273    1
   677  1268  1267    1
   678   222   221    1
   679   620   606    1
   680   620   622    1
   681   620   641    1
   682   207   208    1
   683   207   202    1
   684   700   699   ar
   685   607   608    1
   686   669   674    1
   687  1273  1271    1
   688  1216  1214   ar
   689  1213  1214   ar
   690   209   208   ar
   691   209   211   ar
   692   703   704    1
   693   703   698   ar
   694   784   789   ar
   695   814   796    2
   696   797   799    1
   697   797   798    1
   698   789   790    1
   699   796   798    1
   700   796   815    1
   701   208   215   ar
   702  1214  1215    2
   703  1184  1183    1
   704  1264  1283    2
   705  1264  1266    1
   706  1264  1282    1
   707   211   212   ar
   708   800   799    1
   709   800   805    1
   710   622   621    1
   711   674   685    1
   712   201   202    1
   713   201   199    1
   714   651   650    1
   715   648   650    1
   716   648   646    1
   717  1267  1265    1
   718  1267  1269    1
   719   699   698   ar
   720  1266  1265    1
   721   799   801    1
   722   684   685   ar
   723   684   683   ar
   724   664   643    2
   725  1186  1185    1
   726   629   624    1
   727   629   627    1
   728   215   214   ar
   729   212   213    2
   730   212   214   ar
   731   685   679   ar
   732  1272  1271    1
   733   650   652    1
   734  1185  1183    1
   735  1185  1187    1
   736   646   644    1
   737   646   647    1
   738  1271  1269    1
   739   644   645    1
   740   624   623    1
   741  1183  1181    1
   742  1311  1310    1
   743  1311  1316    1
   744   805   806    1
   745   805   803    1
   746   627   625    1
   747   627   628    1
   748  1189  1190   ar
   749  1189  1188   ar
   750   625   623    1
   751   625   626    1
   752   199   200    1
   753   683   680   ar
   754   813   806   ar
   755   813   812   ar
   756   621   623    1
   757  1308  1310    1
   758  1308  1309    1
   759  1190  1191   ar
   760   645   643    1
   761  1269  1270    1
   762   187   186    1
   763  1188  1193   ar
   764  1310  1312    1
   765   806   807   ar
   766  1316  1317    1
   767  1316  1314    1
   768   643   626    1
   769   643   663    1
   770   812   810   ar
   771   200   198    1
   772   679   680   ar
   773   679   678   ar
   774  1309  1307    1
   775   801   803    1
   776   801   802    1
   777   185   186   ar
   778   185   191   ar
   779   804   803    1
   780   186   188   ar
   781  1191  1192   ar
   782  1191  1197   ar
   783   680   681   ar
   784  1193  1192   ar
   785  1193  1194    1
   786   807   808    2
   787   807   809   ar
   788   192   191    2
   789   647   652    1
   790   652   662    1
   791  1324  1317   ar
   792  1324  1323   ar
   793  1317  1318   ar
   794  1181  1179    1
   795  1181  1182    1
   796  1187  1197    1
   797  1187  1182    1
   798  1325  1307    2
   799   191   190   ar
   800   802   816    1
   801  1315  1314    1
   802   810   809   ar
   803   810   811    1
   804   678   676   ar
   805  1192  1195   ar
   806  1197  1196   ar
   807  1270  1284    1
   808   188   189   ar
   809  1323  1321   ar
   810  1314  1312    1
   811  1319  1318    2
   812  1318  1320   ar
   813  1312  1313    1
   814  1179  1180    1
   815  1307  1326    1
   816  1307  1290    1
   817   190   189   ar
   818   190   193   ar
   819  1180  1178    1
   820  1196  1195   ar
   821   189   195   ar
   822   662   656   ar
   823   662   661   ar
   824   198   216    2
   825   198   217    1
   826   198   181    1
   827   681   682    2
   828   681   675   ar
   829   655   656   ar
   830   655   654   ar
   831  1313  1327    1
   832  1321  1320   ar
   833  1321  1322    1
   834   182   183    1
   835   182   184    1
   836   182   180    1
   837   676   675   ar
   838   676   677    1
   839   193   194   ar
   840   656   657   ar
   841   835   816    2
   842   816   834    1
   843   816   818    1
   844   195   194   ar
   845   195   184    1
   846  1198  1178    2
   847  1290  1289    1
   848   661   660   ar
   849   654   653   ar
   850  1284  1306    2
   851  1284  1305    1
   852  1284  1286    1
   853   169   168    2
   854   181   180    1
   855  1178  1199    1
   856  1178  1161    1
   857   184   179    1
   858   180   178    1
   859  1167  1166    1
   860  1285  1286    1
   861  1285  1287    1
   862   162   168   ar
   863   162   163   ar
   864   657   660   ar
   865   657   658   ar
   866   168   167   ar
   867   164   163    1
   868  1327  1345    2
   869  1327  1346    1
   870  1327  1329    1
   871   818   817    1
   872  1165  1166   ar
   873  1165  1171   ar
   874  1166  1168   ar
   875   653   658   ar
   876  1289  1287    1
   877  1289  1291    1
   878    64    46    2
   879   817   819    1
   880  1328  1329    1
   881  1328  1330    1
   882   163   165   ar
   883  1287  1288    1
   884  1331  1330    1
   885  1331  1336    1
   886   820   819    1
   887   820   825    1
   888   832   833   ar
   889   832   830   ar
   890   658   659    1
   891  1172  1171    2
   892   833   826   ar
   893  1171  1170   ar
   894    44    24    2
   895  1161  1160    1
   896   179   178    1
   897  1168  1169   ar
   898   178   176    1
   899  1330  1332    1
   900   167   170   ar
   901   167   166   ar
   902   831   830    1
   903   830   829   ar
   904    84    66    2
   905  1084  1083    2
   906   819   821    1
   907  1292  1291    1
   908   826   825    1
   909   826   827   ar
   910  1162  1160    1
   911  1162  1163    1
   912  1162  1164    1
   913  1170  1169   ar
   914  1170  1173   ar
   915  1344  1343   ar
   916  1344  1337   ar
   917   165   166   ar
   918  1169  1175   ar
   919  1336  1337    1
   920  1336  1334    1
   921  1291  1293    1
   922   825   823    1
   923  1160  1158    1
   924    85    66    1
   925   170   171   ar
   926   177   176    1
   927   177   175    1
   928    46    65    1
   929    46    30    1
   930    46    48    1
   931   166   172   ar
   932  1343  1341   ar
   933   829   827   ar
   934  1337  1338   ar
   935   146   145    2
   936   197   175    2
   937   827   828    2
   938  1288  1293    1
   939    66    52    1
   940    66    68    1
   941  1173  1174   ar
   942  1083  1085   ar
   943  1083  1082   ar
   944    24     7    1
   945    24    45    1
   946    24    26    1
   947  1175  1164    1
   948  1175  1174   ar
   949    30    29    1
   950  1080  1079    1
   951    25    26    1
   952    25    27    1
   953   105    86    2
   954  1341  1342    1
   955  1341  1340   ar
   956  1338  1340   ar
   957  1338  1339    2
   958  1081  1076    1
   959  1081  1082    1
   960  1081  1079    1
   961   821   823    1
   962   821   822    1
   963     7     6    1
   964  1332  1334    1
   965  1332  1333    1
   966  1293  1304    1
   967   171   172   ar
   968  1164  1159    1
   969   175   196    1
   970   175   158    1
   971  1335  1334    1
   972    48    47    1
   973  1085  1086   ar
   974   172   161    1
   975    47    49    1
   976  1076  1075    1
   977   823   824    1
   978   145   139   ar
   979   145   144   ar
   980  1296  1295    1
   981  1082  1089   ar
   982   159   160    1
   983   159   161    1
   984   159   157    1
   985   104    86    1
   986    52    51    1
   987  1158  1159    1
   988  1158  1156    1
   989    27    29    1
   990    27    28    1
   991  1177  1155    2
   992    68    67    1
   993  1297  1295   ar
   994  1297  1298   ar
   995  1079  1077    1
   996  1333  1347    1
   997   139   140   ar
   998    29    31    1
   999   985   967    2
  1000    22     1    1
  1001  1157  1156    1
  1002  1157  1155    1
  1003  1005   987    2
  1004  1176  1155    1
  1005   128   106    2
  1006    86    72    1
  1007    86    88    1
  1008   822   836    1
  1009   161   156    1
  1010   851   850    1
  1011  1075  1077    1
  1012  1075  1073    1
  1013     9     8    1
  1014   157   158    1
  1015   157   155    1
  1016  1155  1138    1
  1017  1295  1294   ar
  1018   855   836    2
  1019  1086  1087    2
  1020  1086  1088   ar
  1021    67    69    1
  1022  1304  1298   ar
  1023  1304  1303   ar
  1024  1149  1148    2
  1025     6     4    1
  1026     6     8    1
  1027     4     2    1
  1028     4     5    1
  1029   144   147   ar
  1030   144   143   ar
  1031    51    49    1
  1032    51    53    1
  1033    49    50    1
  1034     2     3    1
  1035   147   148   ar
  1036   852   850   ar
  1037   852   853   ar
  1038   123   122    2
  1039  1111  1092    2
  1040  1298  1299   ar
  1041   968   970    1
  1042   968   969    1
  1043  1089  1088   ar
  1044   953   952    1
  1045   151   129    2
  1046  1091  1072    2
  1047  1142  1148   ar
  1048  1142  1143   ar
  1049   850   849   ar
  1050    72    71    1
  1051  1077  1078    1
  1052   127   106    1
  1053  1148  1147   ar
  1054   140   141    1
  1055   140   142   ar
  1056    28    33    1
  1057   174   152    2
  1058   973   987    1
  1059   973   972    1
  1060     3     1    1
  1061   836   854    1
  1062   836   838    1
  1063  1368  1347    2
  1064    88    87    1
  1065  1078  1092    1
  1066     8    10    1
  1067    32    31    1
  1068   106   108    1
  1069   106    92    1
  1070  1144  1143    1
  1071  1073  1074    1
  1072     1    23    1
  1073   951   967    1
  1074   951   950    1
  1075    31    33    1
  1076   853   846   ar
  1077  1347  1367    1
  1078  1347  1349    1
  1079   967   969    1
  1080   967   986    1
  1081   987  1006    1
  1082   987   989    1
  1083    71    69    1
  1084    71    73    1
  1085   970   972    1
  1086   970   971    1
  1087   156   155    1
  1088   124   121   ar
  1089   124   125   ar
  1090  1143  1145   ar
  1091   122   121   ar
  1092   122   116   ar
  1093   154   152    1
  1094   154   153    1
  1095   143   142   ar
  1096   143   149   ar
  1097    69    70    1
  1098  1092  1110    1
  1099  1092  1094    1
  1100     5    10    1
  1101  1303  1302   ar
  1102   148   149   ar
  1103   155   153    1
  1104    82    83   ar
  1105    82    80   ar
  1106  1294  1300   ar
  1107   102   103   ar
  1108   102   100   ar
  1109   101   100    1
  1110    50    55    1
  1111  1147  1150   ar
  1112  1147  1146   ar
  1113   849   847   ar
  1114  1138  1137    1
  1115    83    76   ar
  1116   121   120   ar
  1117  1074  1072    1
  1118   952   950    1
  1119   952   954    1
  1120    53    54    1
  1121    53    55    1
  1122    33    43    1
  1123   988   989    1
  1124   988   990    1
  1125   972   974    1
  1126   108   107    1
  1127  1364  1365   ar
  1128  1364  1361   ar
  1129  1299  1300   ar
  1130  1299  1302   ar
  1131    87    89    1
  1132   152   173    1
  1133   152   135    1
  1134   838   837    1
  1135  1154  1132    2
  1136    92    91    1
  1137  1150  1151   ar
  1138  1072  1056    1
  1139  1072  1090    1
  1140    10    21    1
  1141   125   126   ar
  1142  1349  1348    1
  1143  1145  1146   ar
  1144   846   847   ar
  1145   846   845    1
  1146   129   150    1
  1147   129   131    1
  1148   129   112    1
  1149    63    62   ar
  1150    63    56   ar
  1151  1365  1366   ar
  1152    42    43   ar
  1153    42    41   ar
  1154   103    96   ar
  1155   975   974    1
  1156    81    80    2
  1157   100    99   ar
  1158  1146  1152   ar
  1159   149   138    1
  1160   950   948    1
  1161   116   117   ar
  1162    62    60   ar
  1163   840   845    1
  1164   840   839    1
  1165   971   976    1
  1166    80    79   ar
  1167  1363  1362    1
  1168   847   848    2
  1169  1127  1126    2
  1170  1137  1139    1
  1171  1137  1135    1
  1172    91    89    1
  1173    91    93    1
  1174    70    75    1
  1175  1131  1112    2
  1176    43    37   ar
  1177  1348  1350    1
  1178  1300  1301    2
  1179   131   130    1
  1180  1351  1350    1
  1181  1351  1356    1
  1182    55    56    1
  1183  1139  1140    1
  1184  1139  1141    1
  1185    73    75    1
  1186    73    74    1
  1187  1361  1362   ar
  1188  1361  1360   ar
  1189   948   949    1
  1190   948   946    1
  1191  1151  1152   ar
  1192   837   839    1
  1193    56    57   ar
  1194   845   843    1
  1195  1056  1055    1
  1196    76    75    1
  1197    76    77   ar
  1198   974   976    1
  1199  1094  1093    1
  1200  1362  1357   ar
  1201  1152  1141    1
  1202    41    38   ar
  1203    89    90    1
  1204   120   126   ar
  1205   120   119   ar
  1206  1026  1007    2
  1207  1366  1360   ar
  1208  1366  1356    1
  1209   954   949    1
  1210   954   964    1
  1211  1025  1007    1
  1212  1153  1132    1
  1213   134   135    1
  1214   134   136    1
  1215   134   132    1
  1216   126   115    1
  1217   111   112    1
  1218   111   109    1
  1219   111   113    1
  1220   990   992    1
  1221   990   991    1
  1222  1132  1134    1
  1223  1132  1118    1
  1224   957   956   ar
  1225   957   958   ar
  1226  1134  1133    1
  1227   873   872    2
  1228   107   109    1
  1229  1126  1128   ar
  1230  1126  1125   ar
  1231   993  1007    1
  1232   993   992    1
  1233   136   138    1
  1234   136   137    1
  1235    21    20   ar
  1236    21    15   ar
  1237  1360  1359   ar
  1238    60    61    1
  1239    60    59   ar
  1240   117   119   ar
  1241   117   118    1
  1242    99    97   ar
  1243  1108  1109   ar
  1244  1108  1106   ar
  1245  1350  1352    1
  1246    96    97   ar
  1247    96    95    1
  1248   976   977    1
  1249    79    77   ar
  1250   839   841    1
  1251  1356  1354    1
  1252  1107  1106    1
  1253  1007  1009    1
  1254   956   955   ar
  1255   138   133    1
  1256  1128  1129   ar
  1257    90    95    1
  1258  1141  1136    1
  1259    93    95    1
  1260    93    94    1
  1261   946   947    1
  1262    37    38   ar
  1263    37    36   ar
  1264    77    78    2
  1265  1357  1358   ar
  1266    20    19   ar
  1267  1135  1133    1
  1268  1135  1136    1
  1269  1058  1057    1
  1270   992   994    1
  1271    57    59   ar
  1272    57    58    2
  1273   109   110    1
  1274   130   132    1
  1275   113   115    1
  1276   113   114    1
  1277    38    39   ar
  1278  1125  1123   ar
  1279  1093  1095    1
  1280  1112  1130    1
  1281  1112  1114    1
  1282  1112  1098    1
  1283    97    98    2
  1284  1109  1102   ar
  1285  1106  1105   ar
  1286   133   132    1
  1287   110   115    1
  1288   991   996    1
  1289   964   958   ar
  1290   964   963   ar
  1291   958   959   ar
  1292  1359  1358   ar
  1293   872   871   ar
  1294   872   866   ar
  1295  1055  1053    1
  1296  1055  1057    1
  1297    14    15   ar
  1298    14    12   ar
  1299    15    16   ar
  1300   843   841    1
  1301   843   844    1
  1302   841   842    1
  1303    36    35   ar
  1304   874   871   ar
  1305   874   875   ar
  1306  1129  1122   ar
  1307  1053  1054    1
  1308  1053  1051    1
  1309   984   977   ar
  1310   984   983   ar
  1311  1054  1059    1
  1312  1118  1117    1
  1313  1352  1354    1
  1314  1352  1353    1
  1315  1386  1385    2
  1316  1114  1113    1
  1317   977   978   ar
  1318  1097  1098    1
  1319  1097  1095    1
  1320  1097  1099    1
  1321  1059  1057    1
  1322  1059  1069    1
  1323   955   960   ar
  1324   871   870   ar
  1325  1062  1061   ar
  1326  1062  1063   ar
  1327   947   945    1
  1328   866   867   ar
  1329  1354  1355    1
  1330  1117  1119    1
  1331  1117  1115    1
  1332  1123  1122   ar
  1333  1123  1124    2
  1334    19    16   ar
  1335   941   940    1
  1336    39    40    1
  1337    39    34   ar
  1338  1095  1096    1
  1339  1009  1008    1
  1340  1122  1121    1
  1341  1061  1060   ar
  1342  1105  1103   ar
  1343  1049  1027    2
  1344  1102  1103   ar
  1345  1102  1101    1
  1346   994   995    1
  1347   994   996    1
  1348    16    17   ar
  1349   875   876   ar
  1350    12    13    1
  1351    12    11   ar
  1352  1119  1121    1
  1353  1119  1120    1
  1354   963   962   ar
  1355  1004  1003   ar
  1356  1004   997   ar
  1357  1385  1384   ar
  1358  1385  1379   ar
  1359   959   960   ar
  1360   959   962   ar
  1361  1584  1583    1
  1362   996   997    1
  1363  1387  1384   ar
  1364  1387  1388   ar
  1365    35    34   ar
  1366  1096  1101    1
  1367  1557  1558   ar
  1368  1557  1556   ar
  1369  1578  1583   ar
  1370  1578  1579   ar
  1371   983   981   ar
  1372   842   856    1
  1373  1099  1101    1
  1374  1099  1100    1
  1375   960   961    1
  1376  1051  1052    1
  1377  1353  1369    1
  1378  1113  1115    1
  1379  1069  1063   ar
  1380  1069  1068   ar
  1381  1063  1064   ar
  1382  1384  1383   ar
  1383  1103  1104    2
  1384  1558  1559   ar
  1385   870   876   ar
  1386   870   869   ar
  1387   978   979    2
  1388   978   980   ar
  1389  1008  1010    1
  1390   867   868    1
  1391   867   869   ar
  1392   878   856    2
  1393  1379  1380   ar
  1394  1003  1001   ar
  1395   939   945    1
  1396   939   938    1
  1397  1115  1116    1
  1398  1121  1116    1
  1399  1583  1582   ar
  1400  1391  1369    2
  1401   997   998   ar
  1402  1044  1043    2
  1403  1388  1389   ar
  1404   876   865    1
  1405  1579  1580   ar
  1406   945   966    2
  1407   945   965    1
  1408  1556  1561   ar
  1409  1060  1065   ar
  1410    11    17   ar
  1411    17    18    2
  1412   940   938    1
  1413   940   942    1
  1414  1027  1048    1
  1415  1027  1013    1
  1416  1027  1029    1
  1417  1554  1553    1
  1418  1383  1389   ar
  1419  1383  1382   ar
  1420   856   858    1
  1421   856   877    1
  1422  1407  1406    1
  1423  1045  1042   ar
  1424  1045  1046   ar
  1425  1369  1390    1
  1426  1369  1371    1
  1427  1607  1606    2
  1428  1380  1382   ar
  1429  1380  1381    1
  1430  1052  1050    1
  1431  1389  1378    1
  1432   981   980   ar
  1433   981   982    1
  1434   938   936    1
  1435  1023  1024   ar
  1436  1023  1021   ar
  1437  1068  1067   ar
  1438  1064  1065   ar
  1439  1064  1067   ar
  1440  1600  1606   ar
  1441  1600  1601   ar
  1442   858   857    1
  1443  1013  1012    1
  1444  1602  1601    1
  1445   860   865    1
  1446   860   859    1
  1447  1424  1423    1
  1448  1559  1565   ar
  1449  1559  1560   ar
  1450  1429  1428    2
  1451  1043  1042   ar
  1452  1043  1037   ar
  1453  1012  1010    1
  1454  1012  1014    1
  1455   936   937    1
  1456   936   934    1
  1457  1010  1011    1
  1458  1422  1428   ar
  1459  1422  1423   ar
  1460  1582  1581   ar
  1461  1582  1585   ar
  1462  1024  1017   ar
  1463  1065  1066    1
  1464   942   937    1
  1465  1555  1553    1
  1466  1555  1550    1
  1467  1555  1565    1
  1468   865   863    1
  1469  1580  1581   ar
  1470  1373  1378    1
  1471  1373  1372    1
  1472  1001  1002    1
  1473  1001  1000   ar
  1474   998   999    2
  1475   998  1000   ar
  1476  1405  1406   ar
  1477  1405  1403   ar
  1478  1606  1605   ar
  1479  1042  1041   ar
  1480  1029  1028    1
  1481  1046  1047   ar
  1482  1561  1560   ar
  1483  1561  1562    1
  1484  1406  1408   ar
  1485  1601  1603   ar
  1486  1378  1376    1
  1487  1371  1370    1
  1488  1553  1551    1
  1489  1550  1549    1
  1490  1022  1021    2
  1491  1428  1427   ar
  1492  1581  1587   ar
  1493  1423  1425   ar
  1494  1565  1564   ar
  1495   857   859    1
  1496  1021  1020   ar
  1497  1585  1586   ar
  1498  1011  1016    1
  1499  1560  1563   ar
  1500   934   935    1
  1501  1370  1372    1
  1502  1404  1403    2
  1503  1512  1511    1
  1504  1037  1038   ar
  1505  1645  1644    2
  1506   859   861    1
  1507  1050  1070    2
  1508  1050  1071    1
  1509  1050  1033    1
  1510  1403  1402   ar
  1511  1625  1624    2
  1512  1549  1551    1
  1513  1549  1547    1
  1514  1531  1530    1
  1515  1017  1016    1
  1516  1017  1018   ar
  1517  1372  1374    1
  1518  1014  1016    1
  1519  1014  1015    1
  1520  1408  1409   ar
  1521   863   861    1
  1522   863   864    1
  1523  1605  1604   ar
  1524  1605  1608   ar
  1525  1603  1604   ar
  1526  1041  1047   ar
  1527  1041  1040   ar
  1528  1047  1036    1
  1529  1028  1030    1
  1530  1551  1552    1
  1531  1587  1586   ar
  1532  1587  1577    1
  1533   861   862    1
  1534  1535  1534    1
  1535  1425  1426   ar
  1536  1427  1426   ar
  1537  1427  1430   ar
  1538  1641  1640    1
  1539  1626  1624   ar
  1540  1626  1627   ar
  1541  1552  1568    1
  1542  1032  1033    1
  1543  1032  1030    1
  1544  1032  1034    1
  1545  1564  1563   ar
  1546  1020  1018   ar
  1547   935   933    1
  1548  1376  1374    1
  1549  1376  1377    1
  1550  1624  1623   ar
  1551  1604  1610   ar
  1552  1510  1511   ar
  1553  1510  1516   ar
  1554  1402  1409   ar
  1555  1402  1401    1
  1556  1644  1646   ar
  1557  1644  1643   ar
  1558  1511  1513   ar
  1559  1588  1568    2
  1560  1608  1609   ar
  1561  1018  1019    2
  1562  1038  1040   ar
  1563  1038  1039    1
  1564  1374  1375    1
  1565  1426  1432   ar
  1566  1547  1548    1
  1567  1642  1640    1
  1568  1642  1637    1
  1569  1642  1643    1
  1570  1628  1627    2
  1571  1572  1577    1
  1572  1572  1571    1
  1573  1030  1031    1
  1574  1536  1534   ar
  1575  1536  1537   ar
  1576  1530  1532    1
  1577  1530  1528    1
  1578  1577  1575    1
  1579  1034  1036    1
  1580  1034  1035    1
  1581  1570  1568    1
  1582  1570  1569    1
  1583  1430  1431   ar
  1584  1646  1647   ar
  1585  1036  1031    1
  1586  1627  1629   ar
  1587  1532  1527    1
  1588  1532  1543    1
  1589  1534  1533   ar
  1590  1640  1638    1
  1591  1568  1589    1
  1592  1637  1636    1
  1593  1643  1650   ar
  1594   944   933    2
  1595  1471  1470    1
  1596  1517  1516    2
  1597  1401  1396    1
  1598  1401  1399    1
  1599   897   879    2
  1600   862   879    1
  1601  1527  1526    1
  1602  1529  1528    1
  1603  1529  1546    1
  1604  1610  1609   ar
  1605  1610  1599    1
  1606   933   943    1
  1607   933   927    1
  1608  1516  1515   ar
  1609  1513  1514   ar
  1610  1623  1622    1
  1611  1623  1630   ar
  1612  1526  1528    1
  1613  1526  1524    1
  1614  1548  1546    1
  1615  1432  1431   ar
  1616  1432  1421    1
  1617  1396  1395    1
  1618  1489  1488    1
  1619  1622  1620    1
  1620  1622  1617    1
  1621  1375  1392    1
  1622  1569  1571    1
  1623  1420  1419    1
  1624  1537  1543   ar
  1625  1537  1538   ar
  1626  1571  1573    1
  1627  1487  1488   ar
  1628  1487  1493   ar
  1629  1543  1542   ar
  1630  1636  1638    1
  1631  1636  1634    1
  1632  1494  1493    2
  1633   879   898    1
  1634   879   881    1
  1635  1647  1648    2
  1636  1647  1649   ar
  1637  1533  1539   ar
  1638   916   917   ar
  1639   916   913   ar
  1640   917   918   ar
  1641  1621  1620    1
  1642  1629  1630   ar
  1643  1575  1576    1
  1644  1575  1573    1
  1645  1638  1639    1
  1646  1599  1594    1
  1647  1599  1597    1
  1648  1470  1465   ar
  1649  1470  1469   ar
  1650  1650  1649   ar
  1651  1465  1466   ar
  1652  1411  1392    2
  1653  1546  1566    2
  1654  1546  1567    1
  1655  1419  1421    1
  1656  1419  1417    1
  1657  1620  1618    1
  1658  1514  1515   ar
  1659  1514  1520   ar
  1660  1399  1400    1
  1661  1399  1397    1
  1662  1488  1490   ar
  1663  1515  1518   ar
  1664   927   926    1
  1665  1617  1616    1
  1666  1493  1492   ar
  1667  1421  1416    1
  1668  1524  1525    1
  1669   929   928    1
  1670  1573  1574    1
  1671  1392  1394    1
  1672  1392  1410    1
  1673  1394  1393    1
  1674  1594  1593    1
  1675   895   896   ar
  1676   895   893   ar
  1677  1538  1539   ar
  1678  1538  1541   ar
  1679  1395  1397    1
  1680  1395  1393    1
  1681  1634  1635    1
  1682  1597  1598    1
  1683  1597  1595    1
  1684  1542  1541   ar
  1685  1539  1540    2
  1686   918   908    1
  1687   918   912   ar
  1688   880   881    1
  1689   880   882    1
  1690  1469  1472   ar
  1691  1469  1468   ar
  1692  1397  1398    1
  1693  1466  1467   ar
  1694   907   906    1
  1695   913   914   ar
  1696   913   912   ar
  1697   915   914    1
  1698  1508  1507    1
  1699   928   926    1
  1700   928   930    1
  1701   894   893    2
  1702   896   889   ar
  1703   908   906    1
  1704   908   903    1
  1705  1472  1473   ar
  1706  1490  1491   ar
  1707  1520  1509    1
  1708  1520  1519   ar
  1709   926   924    1
  1710  1525  1523    1
  1711  1518  1519   ar
  1712  1417  1418    1
  1713  1417  1415    1
  1714  1416  1415    1
  1715  1618  1616    1
  1716  1618  1619    1
  1717   893   892   ar
  1718  1616  1614    1
  1719  1492  1491   ar
  1720  1492  1495   ar
  1721  1507  1509    1
  1722  1507  1505    1
  1723  1635  1633    1
  1724  1418  1435    1
  1725  1574  1590    1
  1726   914   909   ar
  1727  1509  1504    1
  1728   912   911   ar
  1729   906   904    1
  1730  1491  1497   ar
  1731  1595  1593    1
  1732  1595  1596    1
  1733  1593  1591    1
  1734   903   902    1
  1735   883   882    1
  1736   883   888    1
  1737  1468  1467   ar
  1738  1468  1474   ar
  1739   882   884    1
  1740  1415  1413    1
  1741  1619  1633    1
  1742  1398  1412    1
  1743   924   925    1
  1744   924   922    1
  1745  1473  1474   ar
  1746   889   888    1
  1747   889   890   ar
  1748  1495  1496   ar
  1749  1614  1615    1
  1750   930   925    1
  1751  1615  1613    1
  1752  1592  1591    1
  1753  1592  1590    1
  1754  1454  1435    2
  1755  1612  1590    2
  1756  1544  1523    2
  1757  1414  1412    1
  1758  1414  1413    1
  1759   892   890   ar
  1760  1523  1506    1
  1761  1523  1545    1
  1762  1590  1611    1
  1763  1633  1652    2
  1764  1633  1651    1
  1765  1433  1412    2
  1766  1505  1506    1
  1767  1505  1503    1
  1768   902   904    1
  1769   902   900    1
  1770  1435  1453    1
  1771  1435  1437    1
  1772  1474  1464    1
  1773   909   910   ar
  1774   888   886    1
  1775  1504  1503    1
  1776   911   910   ar
  1777  1596  1613    1
  1778   904   905    1
  1779  1497  1496   ar
  1780  1497  1486    1
  1781  1412  1434    1
  1782   922   923    1
  1783   890   891    2
  1784   884   886    1
  1785   884   885    1
  1786  1632  1613    2
  1787   905   921    1
  1788  1613  1631    1
  1789   901   900    1
  1790   901   899    1
  1791   919   899    2
  1792  1503  1501    1
  1793   886   887    1
  1794  1436  1437    1
  1795  1436  1438    1
  1796   932   921    2
  1797   923   921    1
  1798  1486  1484    1
  1799  1486  1481    1
  1800  1464  1459    1
  1801  1464  1462    1
  1802  1476  1455    2
  1803   921   931    1
  1804   885   899    1
  1805   899   920    1
  1806  1484  1485    1
  1807  1484  1482    1
  1808  1459  1458    1
  1809  1501  1502    1
  1810  1438  1439    1
  1811  1438  1440    1
  1812  1481  1480    1
  1813  1462  1460    1
  1814  1462  1463    1
  1815  1457  1455    1
  1816  1457  1456    1
  1817  1455  1475    1
  1818  1455  1441    1
  1819  1502  1500    1
  1820  1451  1452   ar
  1821  1451  1449   ar
  1822  1452  1445   ar
  1823  1439  1444    1
  1824  1460  1458    1
  1825  1460  1461    1
  1826  1482  1480    1
  1827  1482  1483    1
  1828  1440  1441    1
  1829  1440  1442    1
  1830  1458  1456    1
  1831  1480  1478    1
  1832  1499  1477    2
  1833  1479  1478    1
  1834  1479  1477    1
  1835  1522  1500    2
  1836  1483  1500    1
  1837  1442  1444    1
  1838  1442  1443    1
  1839  1444  1445    1
  1840  1445  1446   ar
  1841  1500  1521    1
  1842  1449  1450    2
  1843  1449  1448   ar
  1844  1461  1477    1
  1845  1477  1498    1
  1846  1448  1446   ar
  1847  1446  1447    2
